


 35 35  0  0  0  0  0  0  0  0999 V2000
   -2.3469    4.4779   -0.6225 H   0  0  0  1  0  0  0  0  0  0  0  0
   -2.4590    4.4065   -2.7342 C   0  0  0  1  0  0  0  0  0  0  0  0
   -0.4658    4.8997   -1.3720 N   0  0  0  1  0  0  0  0  0  0  0  0
   -1.7180    4.1603   -1.4278 C   0  0  0  1  0  0  0  0  0  0  0  0
   -2.2111    5.4110   -3.3995 O   0  0  0  1  0  0  0  0  0  0  0  0
   -3.3008    3.4496   -3.1392 N   0  0  0  1  0  0  0  0  0  0  0  0
    0.3644    4.4111   -1.1916 H   0  0  0  1  0  0  0  0  0  0  0  0
   -0.4067    6.2634   -1.5640 C   0  0  0  1  0  0  0  0  0  0  0  0
   -3.8669    3.4284   -4.4797 C   0  0  0  1  0  0  0  0  0  0  0  0
    0.9546    6.8843   -1.4460 C   0  0  0  1  0  0  0  0  0  0  0  0
   -1.4202    6.8888   -1.8124 O   0  0  0  1  0  0  0  0  0  0  0  0
   -3.5450    2.7378   -2.5114 H   0  0  0  1  0  0  0  0  0  0  0  0
   -3.2175    3.9519   -5.1499 H   0  0  0  1  0  0  0  0  0  0  0  0
   -4.8258    3.9029   -4.4692 H   0  0  0  1  0  0  0  0  0  0  0  0
   -3.9734    2.4148   -4.8056 H   0  0  0  1  0  0  0  0  0  0  0  0
    1.4691    6.7974   -2.3801 H   0  0  0  1  0  0  0  0  0  0  0  0
    1.5115    6.3800   -0.6841 H   0  0  0  1  0  0  0  0  0  0  0  0
    0.8537    7.9182   -1.1895 H   0  0  0  1  0  0  0  0  0  0  0  0
    3.1863    0.6034   -5.2695 F   0  0  0  1  0  0  0  0  0  0  0  0
    1.9141    0.2014   -5.2723 C   0  0  0  1  0  0  0  0  0  0  0  0
    1.4649    0.3947   -6.5134 F   0  0  0  1  0  0  0  0  0  0  0  0
    1.9394   -1.1189   -5.0855 F   0  0  0  1  0  0  0  0  0  0  0  0
    1.0759    0.9192   -4.2327 C   0  0  0  1  0  0  0  0  0  0  0  0
    1.6203    1.3514   -3.0334 C   0  0  0  1  0  0  0  0  0  0  0  0
    0.8068    1.9157   -2.0689 C   0  0  0  1  0  0  0  0  0  0  0  0
   -0.5524    2.0543   -2.3030 C   0  0  0  1  0  0  0  0  0  0  0  0
   -1.0950    1.6234   -3.4988 C   0  0  0  1  0  0  0  0  0  0  0  0
   -0.2794    1.0574   -4.4662 C   0  0  0  1  0  0  0  0  0  0  0  0
   -1.4409    2.6762   -1.2517 C   0  0  0  1  0  0  0  0  0  0  0  0
    2.6407    1.2511   -2.8593 H   0  0  0  1  0  0  0  0  0  0  0  0
    1.2145    2.2363   -1.1675 H   0  0  0  1  0  0  0  0  0  0  0  0
   -2.1154    1.7237   -3.6728 H   0  0  0  1  0  0  0  0  0  0  0  0
   -0.6871    0.7368   -5.3676 H   0  0  0  1  0  0  0  0  0  0  0  0
   -2.3788    2.1614   -1.2656 H   0  0  0  1  0  0  0  0  0  0  0  0
   -0.9721    2.5386   -0.2998 H   0  0  0  1  0  0  0  0  0  0  0  0
  1  4  1  0  0  0  0
  2  4  1  0  0  0  0
  2  5  2  0  0  0  0
  2  6  1  0  0  0  0
  3  4  1  0  0  0  0
  3  7  1  0  0  0  0
  3  8  1  0  0  0  0
  4 29  1  0  0  0  0
  6  9  1  0  0  0  0
  6 12  1  0  0  0  0
  8 10  1  0  0  0  0
  8 11  2  0  0  0  0
  9 13  1  0  0  0  0
  9 14  1  0  0  0  0
  9 15  1  0  0  0  0
 10 16  1  0  0  0  0
 10 17  1  0  0  0  0
 10 18  1  0  0  0  0
 19 20  1  0  0  0  0
 20 21  1  0  0  0  0
 20 22  1  0  0  0  0
 20 23  1  0  0  0  0
 23 24  4  0  0  0  0
 23 28  4  0  0  0  0
 24 25  4  0  0  0  0
 24 30  1  0  0  0  0
 25 26  4  0  0  0  0
 25 31  1  0  0  0  0
 26 27  4  0  0  0  0
 26 29  1  0  0  0  0
 27 28  4  0  0  0  0
 27 32  1  0  0  0  0
 28 33  1  0  0  0  0
 29 34  1  0  0  0  0
 29 35  1  0  0  0  0
M  END
> <BCLConfClusterSize>
1

> <ConfClashScore>
0 

> <ConfOneFourInteractionScore>
-0.949142 

> <ConfScore>
-0.0184081 

> <ConfScorePBest>
0.00783383 

> <ConfTolerance>
0.267329 

> <RosettaParamsInstructions>
M  ROOT 3
M  POLY_N_BB 3
M  POLY_CA_BB 4
M  POLY_C_BB 2
M  POLY_O_BB 5
M  POLY_IGNORE 9 10 11 12 13 14 15 16 17 18 
M  POLY_UPPER 6
M  POLY_LOWER 8
M  POLY_CHG 0
M  POLY_PROPERTIES ALPHA_AA D_AA PROTEIN AROMATIC POLYMER 
M  END

$$$$



 35 35  0  0  0  0  0  0  0  0999 V2000
   -1.9789    4.5613   -0.4598 H   0  0  0  1  0  0  0  0  0  0  0  0
   -2.2997    4.6453   -2.5407 C   0  0  0  1  0  0  0  0  0  0  0  0
   -0.1251    4.7363   -1.3648 N   0  0  0  1  0  0  0  0  0  0  0  0
   -1.4885    4.1980   -1.3386 C   0  0  0  1  0  0  0  0  0  0  0  0
   -1.9950    5.6671   -3.1336 O   0  0  0  1  0  0  0  0  0  0  0  0
   -3.2784    3.8285   -2.9450 N   0  0  0  1  0  0  0  0  0  0  0  0
    0.6299    4.1152   -1.2973 H   0  0  0  1  0  0  0  0  0  0  0  0
    0.1317    6.0855   -1.4811 C   0  0  0  1  0  0  0  0  0  0  0  0
   -4.0927    4.1790   -4.0991 C   0  0  0  1  0  0  0  0  0  0  0  0
    1.5791    6.4819   -1.4626 C   0  0  0  1  0  0  0  0  0  0  0  0
   -0.7907    6.8766   -1.5904 O   0  0  0  1  0  0  0  0  0  0  0  0
   -3.4476    2.9921   -2.4630 H   0  0  0  1  0  0  0  0  0  0  0  0
   -3.4862    4.6779   -4.8258 H   0  0  0  1  0  0  0  0  0  0  0  0
   -4.8864    4.8273   -3.7916 H   0  0  0  1  0  0  0  0  0  0  0  0
   -4.5041    3.2894   -4.5284 H   0  0  0  1  0  0  0  0  0  0  0  0
    1.7205    7.2859   -0.7708 H   0  0  0  1  0  0  0  0  0  0  0  0
    1.8747    6.7978   -2.4413 H   0  0  0  1  0  0  0  0  0  0  0  0
    2.1742    5.6448   -1.1626 H   0  0  0  1  0  0  0  0  0  0  0  0
    2.7270    1.0287   -5.9323 F   0  0  0  1  0  0  0  0  0  0  0  0
    1.9149    0.2016   -5.2718 C   0  0  0  1  0  0  0  0  0  0  0  0
    1.1735   -0.4103   -6.1967 F   0  0  0  1  0  0  0  0  0  0  0  0
    2.6946   -0.7385   -4.7361 F   0  0  0  1  0  0  0  0  0  0  0  0
    1.0736    0.9191   -4.2344 C   0  0  0  1  0  0  0  0  0  0  0  0
    1.6173    1.3614   -3.0384 C   0  0  0  1  0  0  0  0  0  0  0  0
    0.8018    1.9251   -2.0754 C   0  0  0  1  0  0  0  0  0  0  0  0
   -0.5588    2.0532   -2.3076 C   0  0  0  1  0  0  0  0  0  0  0  0
   -1.1007    1.6121   -3.5000 C   0  0  0  1  0  0  0  0  0  0  0  0
   -0.2830    1.0467   -4.4660 C   0  0  0  1  0  0  0  0  0  0  0  0
   -1.4030    2.6816   -1.2242 C   0  0  0  1  0  0  0  0  0  0  0  0
    2.6387    1.2690   -2.8658 H   0  0  0  1  0  0  0  0  0  0  0  0
    1.2090    2.2533   -1.1765 H   0  0  0  1  0  0  0  0  0  0  0  0
   -2.1221    1.7045   -3.6726 H   0  0  0  1  0  0  0  0  0  0  0  0
   -0.6902    0.7185   -5.3649 H   0  0  0  1  0  0  0  0  0  0  0  0
   -2.3924    2.2791   -1.2868 H   0  0  0  1  0  0  0  0  0  0  0  0
   -0.9766    2.4353   -0.2742 H   0  0  0  1  0  0  0  0  0  0  0  0
  1  4  1  0  0  0  0
  2  4  1  0  0  0  0
  2  5  2  0  0  0  0
  2  6  1  0  0  0  0
  3  4  1  0  0  0  0
  3  7  1  0  0  0  0
  3  8  1  0  0  0  0
  4 29  1  0  0  0  0
  6  9  1  0  0  0  0
  6 12  1  0  0  0  0
  8 10  1  0  0  0  0
  8 11  2  0  0  0  0
  9 13  1  0  0  0  0
  9 14  1  0  0  0  0
  9 15  1  0  0  0  0
 10 16  1  0  0  0  0
 10 17  1  0  0  0  0
 10 18  1  0  0  0  0
 19 20  1  0  0  0  0
 20 21  1  0  0  0  0
 20 22  1  0  0  0  0
 20 23  1  0  0  0  0
 23 24  4  0  0  0  0
 23 28  4  0  0  0  0
 24 25  4  0  0  0  0
 24 30  1  0  0  0  0
 25 26  4  0  0  0  0
 25 31  1  0  0  0  0
 26 27  4  0  0  0  0
 26 29  1  0  0  0  0
 27 28  4  0  0  0  0
 27 32  1  0  0  0  0
 28 33  1  0  0  0  0
 29 34  1  0  0  0  0
 29 35  1  0  0  0  0
M  END
> <BCLConfClusterSize>
1

> <ConfClashScore>
0 

> <ConfOneFourInteractionScore>
-0.949142 

> <ConfScore>
0.0329622 

> <ConfScorePBest>
0.00780535 

> <ConfTolerance>
0.237528 

> <RosettaParamsInstructions>
M  ROOT 3
M  POLY_N_BB 3
M  POLY_CA_BB 4
M  POLY_C_BB 2
M  POLY_O_BB 5
M  POLY_IGNORE 9 10 11 12 13 14 15 16 17 18 
M  POLY_UPPER 6
M  POLY_LOWER 8
M  POLY_CHG 0
M  POLY_PROPERTIES ALPHA_AA D_AA PROTEIN AROMATIC POLYMER 
M  END

$$$$



 35 35  0  0  0  0  0  0  0  0999 V2000
   -2.7388    2.2937    0.3467 H   0  0  0  1  0  0  0  0  0  0  0  0
   -1.3176    0.7578    0.3957 C   0  0  0  1  0  0  0  0  0  0  0  0
   -3.2130    0.9635   -1.1481 N   0  0  0  1  0  0  0  0  0  0  0  0
   -2.2121    1.7087   -0.3779 C   0  0  0  1  0  0  0  0  0  0  0  0
   -1.6868   -0.3845    0.6638 O   0  0  0  1  0  0  0  0  0  0  0  0
   -0.0895    1.2013    0.6845 N   0  0  0  1  0  0  0  0  0  0  0  0
   -3.2813    1.0944   -2.1169 H   0  0  0  1  0  0  0  0  0  0  0  0
   -4.0630    0.0741   -0.5085 C   0  0  0  1  0  0  0  0  0  0  0  0
    0.8263    0.4555    1.5348 C   0  0  0  1  0  0  0  0  0  0  0  0
   -5.0701   -0.6880   -1.3232 C   0  0  0  1  0  0  0  0  0  0  0  0
   -3.9644   -0.0605    0.7000 O   0  0  0  1  0  0  0  0  0  0  0  0
    0.2040    2.0582    0.3106 H   0  0  0  1  0  0  0  0  0  0  0  0
    1.4806    1.1362    2.0384 H   0  0  0  1  0  0  0  0  0  0  0  0
    1.4040   -0.2156    0.9341 H   0  0  0  1  0  0  0  0  0  0  0  0
    0.2678   -0.1024    2.2571 H   0  0  0  1  0  0  0  0  0  0  0  0
   -5.3109   -0.1317   -2.2049 H   0  0  0  1  0  0  0  0  0  0  0  0
   -5.9568   -0.8387   -0.7436 H   0  0  0  1  0  0  0  0  0  0  0  0
   -4.6596   -1.6362   -1.6011 H   0  0  0  1  0  0  0  0  0  0  0  0
    3.1494   -0.0720   -4.8511 F   0  0  0  1  0  0  0  0  0  0  0  0
    1.9115    0.1989   -5.2683 C   0  0  0  1  0  0  0  0  0  0  0  0
    2.0751    0.9016   -6.3903 F   0  0  0  1  0  0  0  0  0  0  0  0
    1.4075   -0.9669   -5.6377 F   0  0  0  1  0  0  0  0  0  0  0  0
    1.0742    0.9172   -4.2283 C   0  0  0  1  0  0  0  0  0  0  0  0
    1.5914    1.2562   -2.9877 C   0  0  0  1  0  0  0  0  0  0  0  0
    0.7728    1.8235   -2.0294 C   0  0  0  1  0  0  0  0  0  0  0  0
   -0.5641    2.0584   -2.3106 C   0  0  0  1  0  0  0  0  0  0  0  0
   -1.0796    1.7203   -3.5475 C   0  0  0  1  0  0  0  0  0  0  0  0
   -0.2588    1.1514   -4.5088 C   0  0  0  1  0  0  0  0  0  0  0  0
   -1.4124    2.6857   -1.2298 C   0  0  0  1  0  0  0  0  0  0  0  0
    2.5954    1.0837   -2.7780 H   0  0  0  1  0  0  0  0  0  0  0  0
    1.1599    2.0742   -1.0972 H   0  0  0  1  0  0  0  0  0  0  0  0
   -2.0836    1.8929   -3.7572 H   0  0  0  1  0  0  0  0  0  0  0  0
   -0.6459    0.9007   -5.4410 H   0  0  0  1  0  0  0  0  0  0  0  0
   -0.7649    3.2367   -0.5801 H   0  0  0  1  0  0  0  0  0  0  0  0
   -2.1022    3.3558   -1.6988 H   0  0  0  1  0  0  0  0  0  0  0  0
  1  4  1  0  0  0  0
  2  4  1  0  0  0  0
  2  5  2  0  0  0  0
  2  6  1  0  0  0  0
  3  4  1  0  0  0  0
  3  7  1  0  0  0  0
  3  8  1  0  0  0  0
  4 29  1  0  0  0  0
  6  9  1  0  0  0  0
  6 12  1  0  0  0  0
  8 10  1  0  0  0  0
  8 11  2  0  0  0  0
  9 13  1  0  0  0  0
  9 14  1  0  0  0  0
  9 15  1  0  0  0  0
 10 16  1  0  0  0  0
 10 17  1  0  0  0  0
 10 18  1  0  0  0  0
 19 20  1  0  0  0  0
 20 21  1  0  0  0  0
 20 22  1  0  0  0  0
 20 23  1  0  0  0  0
 23 24  4  0  0  0  0
 23 28  4  0  0  0  0
 24 25  4  0  0  0  0
 24 30  1  0  0  0  0
 25 26  4  0  0  0  0
 25 31  1  0  0  0  0
 26 27  4  0  0  0  0
 26 29  1  0  0  0  0
 27 28  4  0  0  0  0
 27 32  1  0  0  0  0
 28 33  1  0  0  0  0
 29 34  1  0  0  0  0
 29 35  1  0  0  0  0
M  END
> <BCLConfClusterSize>
1

> <ConfClashScore>
0 

> <ConfOneFourInteractionScore>
-0.949142 

> <ConfScore>
0.0388567 

> <ConfScorePBest>
0.00777687 

> <ConfTolerance>
0.360558 

> <RosettaParamsInstructions>
M  ROOT 3
M  POLY_N_BB 3
M  POLY_CA_BB 4
M  POLY_C_BB 2
M  POLY_O_BB 5
M  POLY_IGNORE 9 10 11 12 13 14 15 16 17 18 
M  POLY_UPPER 6
M  POLY_LOWER 8
M  POLY_CHG 0
M  POLY_PROPERTIES ALPHA_AA D_AA PROTEIN AROMATIC POLYMER 
M  END

$$$$



 35 35  0  0  0  0  0  0  0  0999 V2000
   -2.1621    4.4793   -0.4107 H   0  0  0  1  0  0  0  0  0  0  0  0
   -2.0113    4.7282   -2.5279 C   0  0  0  1  0  0  0  0  0  0  0  0
   -0.1541    4.7042   -0.9199 N   0  0  0  1  0  0  0  0  0  0  0  0
   -1.4906    4.1866   -1.1906 C   0  0  0  1  0  0  0  0  0  0  0  0
   -1.6175    5.8244   -2.9442 O   0  0  0  1  0  0  0  0  0  0  0  0
   -2.8199    3.9263   -3.2291 N   0  0  0  1  0  0  0  0  0  0  0  0
    0.5657    4.0527   -0.7863 H   0  0  0  1  0  0  0  0  0  0  0  0
    0.1699    6.0292   -0.8384 C   0  0  0  1  0  0  0  0  0  0  0  0
   -3.3459    4.3618   -4.5142 C   0  0  0  1  0  0  0  0  0  0  0  0
    1.5549    6.2784   -0.2977 C   0  0  0  1  0  0  0  0  0  0  0  0
   -0.6062    6.9073   -1.1776 O   0  0  0  1  0  0  0  0  0  0  0  0
   -3.0587    3.0436   -2.8768 H   0  0  0  1  0  0  0  0  0  0  0  0
   -2.5415    4.7008   -5.1331 H   0  0  0  1  0  0  0  0  0  0  0  0
   -4.0403    5.1616   -4.3626 H   0  0  0  1  0  0  0  0  0  0  0  0
   -3.8426    3.5433   -4.9919 H   0  0  0  1  0  0  0  0  0  0  0  0
    2.2638    6.2356   -1.0980 H   0  0  0  1  0  0  0  0  0  0  0  0
    1.7932    5.5309    0.4299 H   0  0  0  1  0  0  0  0  0  0  0  0
    1.5906    7.2454    0.1588 H   0  0  0  1  0  0  0  0  0  0  0  0
    2.3257    1.0308   -6.2282 F   0  0  0  1  0  0  0  0  0  0  0  0
    1.9199    0.1968   -5.2692 C   0  0  0  1  0  0  0  0  0  0  0  0
    1.2228   -0.7655   -5.8752 F   0  0  0  1  0  0  0  0  0  0  0  0
    3.0028   -0.3660   -4.7567 F   0  0  0  1  0  0  0  0  0  0  0  0
    1.0815    0.9157   -4.2304 C   0  0  0  1  0  0  0  0  0  0  0  0
    1.6171    1.3178   -3.0167 C   0  0  0  1  0  0  0  0  0  0  0  0
    0.8014    1.8839   -2.0552 C   0  0  0  1  0  0  0  0  0  0  0  0
   -0.5511    2.0544   -2.3064 C   0  0  0  1  0  0  0  0  0  0  0  0
   -1.0849    1.6534   -3.5165 C   0  0  0  1  0  0  0  0  0  0  0  0
   -0.2671    1.0857   -4.4810 C   0  0  0  1  0  0  0  0  0  0  0  0
   -1.4419    2.6782   -1.2582 C   0  0  0  1  0  0  0  0  0  0  0  0
    2.6326    1.1936   -2.8297 H   0  0  0  1  0  0  0  0  0  0  0  0
    1.2025    2.1819   -1.1431 H   0  0  0  1  0  0  0  0  0  0  0  0
   -2.1004    1.7776   -3.7034 H   0  0  0  1  0  0  0  0  0  0  0  0
   -0.6682    0.7876   -5.3931 H   0  0  0  1  0  0  0  0  0  0  0  0
   -2.4386    2.3335   -1.4387 H   0  0  0  1  0  0  0  0  0  0  0  0
   -1.1092    2.3256   -0.3043 H   0  0  0  1  0  0  0  0  0  0  0  0
  1  4  1  0  0  0  0
  2  4  1  0  0  0  0
  2  5  2  0  0  0  0
  2  6  1  0  0  0  0
  3  4  1  0  0  0  0
  3  7  1  0  0  0  0
  3  8  1  0  0  0  0
  4 29  1  0  0  0  0
  6  9  1  0  0  0  0
  6 12  1  0  0  0  0
  8 10  1  0  0  0  0
  8 11  2  0  0  0  0
  9 13  1  0  0  0  0
  9 14  1  0  0  0  0
  9 15  1  0  0  0  0
 10 16  1  0  0  0  0
 10 17  1  0  0  0  0
 10 18  1  0  0  0  0
 19 20  1  0  0  0  0
 20 21  1  0  0  0  0
 20 22  1  0  0  0  0
 20 23  1  0  0  0  0
 23 24  4  0  0  0  0
 23 28  4  0  0  0  0
 24 25  4  0  0  0  0
 24 30  1  0  0  0  0
 25 26  4  0  0  0  0
 25 31  1  0  0  0  0
 26 27  4  0  0  0  0
 26 29  1  0  0  0  0
 27 28  4  0  0  0  0
 27 32  1  0  0  0  0
 28 33  1  0  0  0  0
 29 34  1  0  0  0  0
 29 35  1  0  0  0  0
M  END
> <BCLConfClusterSize>
1

> <ConfClashScore>
0 

> <ConfOneFourInteractionScore>
-0.949142 

> <ConfScore>
0.0515871 

> <ConfScorePBest>
0.00774839 

> <ConfTolerance>
0.368152 

> <RosettaParamsInstructions>
M  ROOT 3
M  POLY_N_BB 3
M  POLY_CA_BB 4
M  POLY_C_BB 2
M  POLY_O_BB 5
M  POLY_IGNORE 9 10 11 12 13 14 15 16 17 18 
M  POLY_UPPER 6
M  POLY_LOWER 8
M  POLY_CHG 0
M  POLY_PROPERTIES ALPHA_AA D_AA PROTEIN AROMATIC POLYMER 
M  END

$$$$



 35 35  0  0  0  0  0  0  0  0999 V2000
   -2.9711    1.2185   -1.2219 H   0  0  0  1  0  0  0  0  0  0  0  0
   -3.1653    2.3514    0.5334 C   0  0  0  1  0  0  0  0  0  0  0  0
   -1.4110    0.6590   -0.0071 N   0  0  0  1  0  0  0  0  0  0  0  0
   -2.3071    1.6838   -0.5237 C   0  0  0  1  0  0  0  0  0  0  0  0
   -3.4781    1.7299    1.5560 O   0  0  0  1  0  0  0  0  0  0  0  0
   -3.4746    3.6372    0.3346 N   0  0  0  1  0  0  0  0  0  0  0  0
   -1.3698   -0.1967   -0.4830 H   0  0  0  1  0  0  0  0  0  0  0  0
   -0.6413    0.8110    1.0744 C   0  0  0  1  0  0  0  0  0  0  0  0
   -4.2667    4.3588    1.3193 C   0  0  0  1  0  0  0  0  0  0  0  0
    0.2080   -0.3873    1.4990 C   0  0  0  1  0  0  0  0  0  0  0  0
   -0.6632    1.8313    1.7614 O   0  0  0  1  0  0  0  0  0  0  0  0
   -3.1672    4.0944   -0.4758 H   0  0  0  1  0  0  0  0  0  0  0  0
   -4.0248    4.0062    2.3002 H   0  0  0  1  0  0  0  0  0  0  0  0
   -5.3069    4.1961    1.1286 H   0  0  0  1  0  0  0  0  0  0  0  0
   -4.0508    5.4047    1.2533 H   0  0  0  1  0  0  0  0  0  0  0  0
    0.0399   -1.2011    0.8249 H   0  0  0  1  0  0  0  0  0  0  0  0
   -0.0642   -0.6837    2.4904 H   0  0  0  1  0  0  0  0  0  0  0  0
    1.2428   -0.1158    1.4788 H   0  0  0  1  0  0  0  0  0  0  0  0
    2.1617   -1.0754   -4.9241 F   0  0  0  1  0  0  0  0  0  0  0  0
    1.9270    0.1953   -5.2561 C   0  0  0  1  0  0  0  0  0  0  0  0
    3.1221    0.7661   -5.4146 F   0  0  0  1  0  0  0  0  0  0  0  0
    1.3630    0.1675   -6.4643 F   0  0  0  1  0  0  0  0  0  0  0  0
    1.0720    0.9137   -4.2332 C   0  0  0  1  0  0  0  0  0  0  0  0
    1.5113    1.0088   -2.9219 C   0  0  0  1  0  0  0  0  0  0  0  0
    0.6985    1.5794   -1.9606 C   0  0  0  1  0  0  0  0  0  0  0  0
   -0.5537    2.0614   -2.3088 C   0  0  0  1  0  0  0  0  0  0  0  0
   -0.9915    1.9664   -3.6162 C   0  0  0  1  0  0  0  0  0  0  0  0
   -0.1765    1.3942   -4.5805 C   0  0  0  1  0  0  0  0  0  0  0  0
   -1.4831    2.6998   -1.3037 C   0  0  0  1  0  0  0  0  0  0  0  0
    2.4524    0.6509   -2.6614 H   0  0  0  1  0  0  0  0  0  0  0  0
    1.0264    1.6472   -0.9760 H   0  0  0  1  0  0  0  0  0  0  0  0
   -1.9326    2.3244   -3.8767 H   0  0  0  1  0  0  0  0  0  0  0  0
   -0.5044    1.3264   -5.5651 H   0  0  0  1  0  0  0  0  0  0  0  0
   -0.8975    3.2673   -0.6109 H   0  0  0  1  0  0  0  0  0  0  0  0
   -2.1518    3.3525   -1.8249 H   0  0  0  1  0  0  0  0  0  0  0  0
  1  4  1  0  0  0  0
  2  4  1  0  0  0  0
  2  5  2  0  0  0  0
  2  6  1  0  0  0  0
  3  4  1  0  0  0  0
  3  7  1  0  0  0  0
  3  8  1  0  0  0  0
  4 29  1  0  0  0  0
  6  9  1  0  0  0  0
  6 12  1  0  0  0  0
  8 10  1  0  0  0  0
  8 11  2  0  0  0  0
  9 13  1  0  0  0  0
  9 14  1  0  0  0  0
  9 15  1  0  0  0  0
 10 16  1  0  0  0  0
 10 17  1  0  0  0  0
 10 18  1  0  0  0  0
 19 20  1  0  0  0  0
 20 21  1  0  0  0  0
 20 22  1  0  0  0  0
 20 23  1  0  0  0  0
 23 24  4  0  0  0  0
 23 28  4  0  0  0  0
 24 25  4  0  0  0  0
 24 30  1  0  0  0  0
 25 26  4  0  0  0  0
 25 31  1  0  0  0  0
 26 27  4  0  0  0  0
 26 29  1  0  0  0  0
 27 28  4  0  0  0  0
 27 32  1  0  0  0  0
 28 33  1  0  0  0  0
 29 34  1  0  0  0  0
 29 35  1  0  0  0  0
M  END
> <BCLConfClusterSize>
1

> <ConfClashScore>
0 

> <ConfOneFourInteractionScore>
-0.933935 

> <ConfScore>
0.0815102 

> <ConfScorePBest>
0.00771991 

> <ConfTolerance>
0.283509 

> <RosettaParamsInstructions>
M  ROOT 3
M  POLY_N_BB 3
M  POLY_CA_BB 4
M  POLY_C_BB 2
M  POLY_O_BB 5
M  POLY_IGNORE 9 10 11 12 13 14 15 16 17 18 
M  POLY_UPPER 6
M  POLY_LOWER 8
M  POLY_CHG 0
M  POLY_PROPERTIES ALPHA_AA D_AA PROTEIN AROMATIC POLYMER 
M  END

$$$$



 35 35  0  0  0  0  0  0  0  0999 V2000
   -0.6994    4.6508   -1.3935 H   0  0  0  1  0  0  0  0  0  0  0  0
   -2.4702    4.7954   -0.2690 C   0  0  0  1  0  0  0  0  0  0  0  0
   -2.3114    4.4702   -2.6779 N   0  0  0  1  0  0  0  0  0  0  0  0
   -1.6598    4.1790   -1.3931 C   0  0  0  1  0  0  0  0  0  0  0  0
   -3.2424    5.7225   -0.5073 O   0  0  0  1  0  0  0  0  0  0  0  0
   -2.3596    4.2263    0.9361 N   0  0  0  1  0  0  0  0  0  0  0  0
   -1.7521    4.6700   -3.4574 H   0  0  0  1  0  0  0  0  0  0  0  0
   -3.6529    4.4719   -2.8215 C   0  0  0  1  0  0  0  0  0  0  0  0
   -3.2303    4.5817    2.0466 C   0  0  0  1  0  0  0  0  0  0  0  0
   -4.2266    4.9558   -4.1340 C   0  0  0  1  0  0  0  0  0  0  0  0
   -4.3898    4.0915   -1.9130 O   0  0  0  1  0  0  0  0  0  0  0  0
   -1.6680    3.5461    1.0762 H   0  0  0  1  0  0  0  0  0  0  0  0
   -3.8634    5.3946    1.7581 H   0  0  0  1  0  0  0  0  0  0  0  0
   -2.6354    4.8739    2.8866 H   0  0  0  1  0  0  0  0  0  0  0  0
   -3.8324    3.7378    2.3116 H   0  0  0  1  0  0  0  0  0  0  0  0
   -3.5681    5.6800   -4.5663 H   0  0  0  1  0  0  0  0  0  0  0  0
   -5.1836    5.4023   -3.9617 H   0  0  0  1  0  0  0  0  0  0  0  0
   -4.3341    4.1276   -4.8030 H   0  0  0  1  0  0  0  0  0  0  0  0
    3.1921    0.6222   -5.2337 F   0  0  0  1  0  0  0  0  0  0  0  0
    1.9265    0.2008   -5.2601 C   0  0  0  1  0  0  0  0  0  0  0  0
    1.5014    0.3759   -6.5122 F   0  0  0  1  0  0  0  0  0  0  0  0
    1.9675   -1.1172   -5.0603 F   0  0  0  1  0  0  0  0  0  0  0  0
    1.0563    0.9143   -4.2468 C   0  0  0  1  0  0  0  0  0  0  0  0
    1.6119    1.3441   -3.0517 C   0  0  0  1  0  0  0  0  0  0  0  0
    0.8085    1.9124   -2.0811 C   0  0  0  1  0  0  0  0  0  0  0  0
   -0.5517    2.0575   -2.3048 C   0  0  0  1  0  0  0  0  0  0  0  0
   -1.1055    1.6289   -3.4964 C   0  0  0  1  0  0  0  0  0  0  0  0
   -0.3000    1.0589   -4.4699 C   0  0  0  1  0  0  0  0  0  0  0  0
   -1.4292    2.6837   -1.2469 C   0  0  0  1  0  0  0  0  0  0  0  0
    2.6331    1.2389   -2.8854 H   0  0  0  1  0  0  0  0  0  0  0  0
    1.2247    2.2312   -1.1829 H   0  0  0  1  0  0  0  0  0  0  0  0
   -2.1268    1.7341   -3.6626 H   0  0  0  1  0  0  0  0  0  0  0  0
   -0.7162    0.7402   -5.3681 H   0  0  0  1  0  0  0  0  0  0  0  0
   -2.3822    2.1982   -1.2786 H   0  0  0  1  0  0  0  0  0  0  0  0
   -0.9723    2.5118   -0.2948 H   0  0  0  1  0  0  0  0  0  0  0  0
  1  4  1  0  0  0  0
  2  4  1  0  0  0  0
  2  5  2  0  0  0  0
  2  6  1  0  0  0  0
  3  4  1  0  0  0  0
  3  7  1  0  0  0  0
  3  8  1  0  0  0  0
  4 29  1  0  0  0  0
  6  9  1  0  0  0  0
  6 12  1  0  0  0  0
  8 10  1  0  0  0  0
  8 11  2  0  0  0  0
  9 13  1  0  0  0  0
  9 14  1  0  0  0  0
  9 15  1  0  0  0  0
 10 16  1  0  0  0  0
 10 17  1  0  0  0  0
 10 18  1  0  0  0  0
 19 20  1  0  0  0  0
 20 21  1  0  0  0  0
 20 22  1  0  0  0  0
 20 23  1  0  0  0  0
 23 24  4  0  0  0  0
 23 28  4  0  0  0  0
 24 25  4  0  0  0  0
 24 30  1  0  0  0  0
 25 26  4  0  0  0  0
 25 31  1  0  0  0  0
 26 27  4  0  0  0  0
 26 29  1  0  0  0  0
 27 28  4  0  0  0  0
 27 32  1  0  0  0  0
 28 33  1  0  0  0  0
 29 34  1  0  0  0  0
 29 35  1  0  0  0  0
M  END
> <BCLConfClusterSize>
1

> <ConfClashScore>
0 

> <ConfOneFourInteractionScore>
-0.933935 

> <ConfScore>
0.0875164 

> <ConfScorePBest>
0.00769143 

> <ConfTolerance>
0.262452 

> <RosettaParamsInstructions>
M  ROOT 3
M  POLY_N_BB 3
M  POLY_CA_BB 4
M  POLY_C_BB 2
M  POLY_O_BB 5
M  POLY_IGNORE 9 10 11 12 13 14 15 16 17 18 
M  POLY_UPPER 6
M  POLY_LOWER 8
M  POLY_CHG 0
M  POLY_PROPERTIES ALPHA_AA D_AA PROTEIN AROMATIC POLYMER 
M  END

$$$$



 35 35  0  0  0  0  0  0  0  0999 V2000
   -2.7680    1.0717   -0.9214 H   0  0  0  1  0  0  0  0  0  0  0  0
   -2.9100    2.3279    0.7640 C   0  0  0  1  0  0  0  0  0  0  0  0
   -1.0786    0.7585    0.2164 N   0  0  0  1  0  0  0  0  0  0  0  0
   -2.0925    1.6536   -0.3298 C   0  0  0  1  0  0  0  0  0  0  0  0
   -3.0073    1.8196    1.8703 O   0  0  0  1  0  0  0  0  0  0  0  0
   -3.4120    3.5251    0.4311 N   0  0  0  1  0  0  0  0  0  0  0  0
   -1.0088   -0.1382   -0.1727 H   0  0  0  1  0  0  0  0  0  0  0  0
   -0.2295    1.0722    1.2169 C   0  0  0  1  0  0  0  0  0  0  0  0
   -4.2227    4.3635    1.3071 C   0  0  0  1  0  0  0  0  0  0  0  0
    0.5935   -0.0404    1.8257 C   0  0  0  1  0  0  0  0  0  0  0  0
   -0.1263    2.2267    1.6229 O   0  0  0  1  0  0  0  0  0  0  0  0
   -3.2200    3.8626   -0.4686 H   0  0  0  1  0  0  0  0  0  0  0  0
   -3.8555    4.2925    2.3096 H   0  0  0  1  0  0  0  0  0  0  0  0
   -5.2398    4.0327    1.2759 H   0  0  0  1  0  0  0  0  0  0  0  0
   -4.1676    5.3802    0.9785 H   0  0  0  1  0  0  0  0  0  0  0  0
    1.2807    0.3708    2.5353 H   0  0  0  1  0  0  0  0  0  0  0  0
    1.1370   -0.5449    1.0543 H   0  0  0  1  0  0  0  0  0  0  0  0
   -0.0547   -0.7346    2.3184 H   0  0  0  1  0  0  0  0  0  0  0  0
    1.9040    0.8213   -6.4507 F   0  0  0  1  0  0  0  0  0  0  0  0
    1.9135    0.1984   -5.2710 C   0  0  0  1  0  0  0  0  0  0  0  0
    1.4846   -1.0434   -5.5017 F   0  0  0  1  0  0  0  0  0  0  0  0
    3.1945    0.0913   -4.9156 F   0  0  0  1  0  0  0  0  0  0  0  0
    1.0796    0.9166   -4.2282 C   0  0  0  1  0  0  0  0  0  0  0  0
    1.5975    1.2460   -2.9853 C   0  0  0  1  0  0  0  0  0  0  0  0
    0.7814    1.8136   -2.0250 C   0  0  0  1  0  0  0  0  0  0  0  0
   -0.5536    2.0583   -2.3065 C   0  0  0  1  0  0  0  0  0  0  0  0
   -1.0699    1.7298   -3.5457 C   0  0  0  1  0  0  0  0  0  0  0  0
   -0.2516    1.1605   -4.5090 C   0  0  0  1  0  0  0  0  0  0  0  0
   -1.4446    2.6838   -1.2594 C   0  0  0  1  0  0  0  0  0  0  0  0
    2.6001    1.0662   -2.7754 H   0  0  0  1  0  0  0  0  0  0  0  0
    1.1690    2.0570   -1.0911 H   0  0  0  1  0  0  0  0  0  0  0  0
   -2.0725    1.9096   -3.7556 H   0  0  0  1  0  0  0  0  0  0  0  0
   -0.6392    0.9171   -5.4428 H   0  0  0  1  0  0  0  0  0  0  0  0
   -0.8564    3.3539   -0.6680 H   0  0  0  1  0  0  0  0  0  0  0  0
   -2.2197    3.2308   -1.7545 H   0  0  0  1  0  0  0  0  0  0  0  0
  1  4  1  0  0  0  0
  2  4  1  0  0  0  0
  2  5  2  0  0  0  0
  2  6  1  0  0  0  0
  3  4  1  0  0  0  0
  3  7  1  0  0  0  0
  3  8  1  0  0  0  0
  4 29  1  0  0  0  0
  6  9  1  0  0  0  0
  6 12  1  0  0  0  0
  8 10  1  0  0  0  0
  8 11  2  0  0  0  0
  9 13  1  0  0  0  0
  9 14  1  0  0  0  0
  9 15  1  0  0  0  0
 10 16  1  0  0  0  0
 10 17  1  0  0  0  0
 10 18  1  0  0  0  0
 19 20  1  0  0  0  0
 20 21  1  0  0  0  0
 20 22  1  0  0  0  0
 20 23  1  0  0  0  0
 23 24  4  0  0  0  0
 23 28  4  0  0  0  0
 24 25  4  0  0  0  0
 24 30  1  0  0  0  0
 25 26  4  0  0  0  0
 25 31  1  0  0  0  0
 26 27  4  0  0  0  0
 26 29  1  0  0  0  0
 27 28  4  0  0  0  0
 27 32  1  0  0  0  0
 28 33  1  0  0  0  0
 29 34  1  0  0  0  0
 29 35  1  0  0  0  0
M  END
> <BCLConfClusterSize>
1

> <ConfClashScore>
0 

> <ConfOneFourInteractionScore>
-0.933935 

> <ConfScore>
0.098997 

> <ConfScorePBest>
0.00766295 

> <ConfTolerance>
0.290592 

> <RosettaParamsInstructions>
M  ROOT 3
M  POLY_N_BB 3
M  POLY_CA_BB 4
M  POLY_C_BB 2
M  POLY_O_BB 5
M  POLY_IGNORE 9 10 11 12 13 14 15 16 17 18 
M  POLY_UPPER 6
M  POLY_LOWER 8
M  POLY_CHG 0
M  POLY_PROPERTIES ALPHA_AA D_AA PROTEIN AROMATIC POLYMER 
M  END

$$$$



 35 35  0  0  0  0  0  0  0  0999 V2000
   -1.5516    4.4590   -0.1231 H   0  0  0  1  0  0  0  0  0  0  0  0
   -1.3359    5.1036   -2.1124 C   0  0  0  1  0  0  0  0  0  0  0  0
    0.4171    4.1818   -0.6943 N   0  0  0  1  0  0  0  0  0  0  0  0
   -1.0212    4.1305   -0.9924 C   0  0  0  1  0  0  0  0  0  0  0  0
   -0.7482    6.1824   -2.1700 O   0  0  0  1  0  0  0  0  0  0  0  0
   -2.1972    4.6883   -3.0473 N   0  0  0  1  0  0  0  0  0  0  0  0
    0.7142    3.8229    0.1679 H   0  0  0  1  0  0  0  0  0  0  0  0
    1.3500    4.6808   -1.5102 C   0  0  0  1  0  0  0  0  0  0  0  0
   -2.6030    5.5330   -4.1607 C   0  0  0  1  0  0  0  0  0  0  0  0
    2.7203    4.8885   -0.8951 C   0  0  0  1  0  0  0  0  0  0  0  0
    1.1300    4.9600   -2.6877 O   0  0  0  1  0  0  0  0  0  0  0  0
   -2.5681    3.7836   -2.9803 H   0  0  0  1  0  0  0  0  0  0  0  0
   -2.9418    6.4770   -3.7879 H   0  0  0  1  0  0  0  0  0  0  0  0
   -3.3959    5.0569   -4.6988 H   0  0  0  1  0  0  0  0  0  0  0  0
   -1.7696    5.6861   -4.8141 H   0  0  0  1  0  0  0  0  0  0  0  0
    2.6242    4.9880    0.1660 H   0  0  0  1  0  0  0  0  0  0  0  0
    3.1610    5.7764   -1.2979 H   0  0  0  1  0  0  0  0  0  0  0  0
    3.3427    4.0475   -1.1192 H   0  0  0  1  0  0  0  0  0  0  0  0
    1.3789   -0.9529   -5.6627 F   0  0  0  1  0  0  0  0  0  0  0  0
    1.9271    0.1930   -5.2546 C   0  0  0  1  0  0  0  0  0  0  0  0
    3.1349   -0.1190   -4.7823 F   0  0  0  1  0  0  0  0  0  0  0  0
    2.1319    0.9209   -6.3531 F   0  0  0  1  0  0  0  0  0  0  0  0
    1.0727    0.9131   -4.2325 C   0  0  0  1  0  0  0  0  0  0  0  0
    1.4763    0.9463   -2.9067 C   0  0  0  1  0  0  0  0  0  0  0  0
    0.6596    1.5191   -1.9500 C   0  0  0  1  0  0  0  0  0  0  0  0
   -0.5605    2.0651   -2.3170 C   0  0  0  1  0  0  0  0  0  0  0  0
   -0.9628    2.0319   -3.6388 C   0  0  0  1  0  0  0  0  0  0  0  0
   -0.1439    1.4575   -4.5985 C   0  0  0  1  0  0  0  0  0  0  0  0
   -1.4508    2.6964   -1.2728 C   0  0  0  1  0  0  0  0  0  0  0  0
    2.3935    0.5402   -2.6320 H   0  0  0  1  0  0  0  0  0  0  0  0
    0.9606    1.5404   -0.9548 H   0  0  0  1  0  0  0  0  0  0  0  0
   -1.8800    2.4380   -3.9135 H   0  0  0  1  0  0  0  0  0  0  0  0
   -0.4449    1.4361   -5.5937 H   0  0  0  1  0  0  0  0  0  0  0  0
   -2.4608    2.6955   -1.6260 H   0  0  0  1  0  0  0  0  0  0  0  0
   -1.3881    2.1282   -0.3683 H   0  0  0  1  0  0  0  0  0  0  0  0
  1  4  1  0  0  0  0
  2  4  1  0  0  0  0
  2  5  2  0  0  0  0
  2  6  1  0  0  0  0
  3  4  1  0  0  0  0
  3  7  1  0  0  0  0
  3  8  1  0  0  0  0
  4 29  1  0  0  0  0
  6  9  1  0  0  0  0
  6 12  1  0  0  0  0
  8 10  1  0  0  0  0
  8 11  2  0  0  0  0
  9 13  1  0  0  0  0
  9 14  1  0  0  0  0
  9 15  1  0  0  0  0
 10 16  1  0  0  0  0
 10 17  1  0  0  0  0
 10 18  1  0  0  0  0
 19 20  1  0  0  0  0
 20 21  1  0  0  0  0
 20 22  1  0  0  0  0
 20 23  1  0  0  0  0
 23 24  4  0  0  0  0
 23 28  4  0  0  0  0
 24 25  4  0  0  0  0
 24 30  1  0  0  0  0
 25 26  4  0  0  0  0
 25 31  1  0  0  0  0
 26 27  4  0  0  0  0
 26 29  1  0  0  0  0
 27 28  4  0  0  0  0
 27 32  1  0  0  0  0
 28 33  1  0  0  0  0
 29 34  1  0  0  0  0
 29 35  1  0  0  0  0
M  END
> <BCLConfClusterSize>
1

> <ConfClashScore>
0.000966159 

> <ConfOneFourInteractionScore>
-0.92611 

> <ConfScore>
0.112835 

> <ConfScorePBest>
0.00763447 

> <ConfTolerance>
0.267309 

> <RosettaParamsInstructions>
M  ROOT 3
M  POLY_N_BB 3
M  POLY_CA_BB 4
M  POLY_C_BB 2
M  POLY_O_BB 5
M  POLY_IGNORE 9 10 11 12 13 14 15 16 17 18 
M  POLY_UPPER 6
M  POLY_LOWER 8
M  POLY_CHG 0
M  POLY_PROPERTIES ALPHA_AA D_AA PROTEIN AROMATIC POLYMER 
M  END

$$$$



 35 35  0  0  0  0  0  0  0  0999 V2000
   -2.0875    4.5230   -0.4470 H   0  0  0  1  0  0  0  0  0  0  0  0
   -1.4900    4.9513   -2.4210 C   0  0  0  1  0  0  0  0  0  0  0  0
   -0.0188    4.4579   -0.4954 N   0  0  0  1  0  0  0  0  0  0  0  0
   -1.3202    4.1955   -1.1171 C   0  0  0  1  0  0  0  0  0  0  0  0
   -2.6049    5.0884   -2.9391 O   0  0  0  1  0  0  0  0  0  0  0  0
   -0.3912    5.5273   -2.9203 N   0  0  0  1  0  0  0  0  0  0  0  0
    0.5663    3.7004   -0.2853 H   0  0  0  1  0  0  0  0  0  0  0  0
    0.3973    5.6940   -0.2053 C   0  0  0  1  0  0  0  0  0  0  0  0
   -0.4198    6.3417   -4.1260 C   0  0  0  1  0  0  0  0  0  0  0  0
    1.8085    5.8033    0.3386 C   0  0  0  1  0  0  0  0  0  0  0  0
   -0.2994    6.6832   -0.3614 O   0  0  0  1  0  0  0  0  0  0  0  0
    0.4630    5.3964   -2.4581 H   0  0  0  1  0  0  0  0  0  0  0  0
   -1.1190    5.9261   -4.8212 H   0  0  0  1  0  0  0  0  0  0  0  0
    0.5546    6.3588   -4.5677 H   0  0  0  1  0  0  0  0  0  0  0  0
   -0.7161    7.3389   -3.8757 H   0  0  0  1  0  0  0  0  0  0  0  0
    2.5031    5.4580   -0.3984 H   0  0  0  1  0  0  0  0  0  0  0  0
    1.8978    5.2043    1.2208 H   0  0  0  1  0  0  0  0  0  0  0  0
    2.0203    6.8246    0.5774 H   0  0  0  1  0  0  0  0  0  0  0  0
    1.4548    0.3271   -6.5022 F   0  0  0  1  0  0  0  0  0  0  0  0
    1.9230    0.1959   -5.2597 C   0  0  0  1  0  0  0  0  0  0  0  0
    2.0032   -1.1153   -5.0282 F   0  0  0  1  0  0  0  0  0  0  0  0
    3.1796    0.6495   -5.2836 F   0  0  0  1  0  0  0  0  0  0  0  0
    1.0663    0.9141   -4.2382 C   0  0  0  1  0  0  0  0  0  0  0  0
    1.5592    1.1233   -2.9596 C   0  0  0  1  0  0  0  0  0  0  0  0
    0.7526    1.6935   -1.9929 C   0  0  0  1  0  0  0  0  0  0  0  0
   -0.5474    2.0612   -2.3033 C   0  0  0  1  0  0  0  0  0  0  0  0
   -1.0387    1.8526   -3.5781 C   0  0  0  1  0  0  0  0  0  0  0  0
   -0.2299    1.2807   -4.5478 C   0  0  0  1  0  0  0  0  0  0  0  0
   -1.4731    2.6933   -1.2909 C   0  0  0  1  0  0  0  0  0  0  0  0
    2.5358    0.8512   -2.7277 H   0  0  0  1  0  0  0  0  0  0  0  0
    1.1210    1.8468   -1.0325 H   0  0  0  1  0  0  0  0  0  0  0  0
   -2.0153    2.1247   -3.8100 H   0  0  0  1  0  0  0  0  0  0  0  0
   -0.5984    1.1274   -5.5082 H   0  0  0  1  0  0  0  0  0  0  0  0
   -2.4797    2.4971   -1.5963 H   0  0  0  1  0  0  0  0  0  0  0  0
   -1.2908    2.2311   -0.3432 H   0  0  0  1  0  0  0  0  0  0  0  0
  1  4  1  0  0  0  0
  2  4  1  0  0  0  0
  2  5  2  0  0  0  0
  2  6  1  0  0  0  0
  3  4  1  0  0  0  0
  3  7  1  0  0  0  0
  3  8  1  0  0  0  0
  4 29  1  0  0  0  0
  6  9  1  0  0  0  0
  6 12  1  0  0  0  0
  8 10  1  0  0  0  0
  8 11  2  0  0  0  0
  9 13  1  0  0  0  0
  9 14  1  0  0  0  0
  9 15  1  0  0  0  0
 10 16  1  0  0  0  0
 10 17  1  0  0  0  0
 10 18  1  0  0  0  0
 19 20  1  0  0  0  0
 20 21  1  0  0  0  0
 20 22  1  0  0  0  0
 20 23  1  0  0  0  0
 23 24  4  0  0  0  0
 23 28  4  0  0  0  0
 24 25  4  0  0  0  0
 24 30  1  0  0  0  0
 25 26  4  0  0  0  0
 25 31  1  0  0  0  0
 26 27  4  0  0  0  0
 26 29  1  0  0  0  0
 27 28  4  0  0  0  0
 27 32  1  0  0  0  0
 28 33  1  0  0  0  0
 29 34  1  0  0  0  0
 29 35  1  0  0  0  0
M  END
> <BCLConfClusterSize>
1

> <ConfClashScore>
0 

> <ConfOneFourInteractionScore>
-0.957074 

> <ConfScore>
0.130888 

> <ConfScorePBest>
0.00760599 

> <ConfTolerance>
0.238771 

> <RosettaParamsInstructions>
M  ROOT 3
M  POLY_N_BB 3
M  POLY_CA_BB 4
M  POLY_C_BB 2
M  POLY_O_BB 5
M  POLY_IGNORE 9 10 11 12 13 14 15 16 17 18 
M  POLY_UPPER 6
M  POLY_LOWER 8
M  POLY_CHG 0
M  POLY_PROPERTIES ALPHA_AA D_AA PROTEIN AROMATIC POLYMER 
M  END

$$$$



 35 35  0  0  0  0  0  0  0  0999 V2000
   -2.7914    2.2545    0.3051 H   0  0  0  1  0  0  0  0  0  0  0  0
   -1.0772    1.0459    0.6045 C   0  0  0  1  0  0  0  0  0  0  0  0
   -2.8509    0.7175   -1.0784 N   0  0  0  1  0  0  0  0  0  0  0  0
   -2.1085    1.7034   -0.3072 C   0  0  0  1  0  0  0  0  0  0  0  0
   -1.2209   -0.1337    0.9475 O   0  0  0  1  0  0  0  0  0  0  0  0
   -0.0024    1.7753    0.9230 N   0  0  0  1  0  0  0  0  0  0  0  0
   -3.7934    0.8901   -1.2841 H   0  0  0  1  0  0  0  0  0  0  0  0
   -2.2923   -0.4145   -1.5157 C   0  0  0  1  0  0  0  0  0  0  0  0
    1.1129    1.1045    1.5742 C   0  0  0  1  0  0  0  0  0  0  0  0
   -3.1932   -1.3214   -2.3313 C   0  0  0  1  0  0  0  0  0  0  0  0
   -1.1233   -0.7187   -1.2817 O   0  0  0  1  0  0  0  0  0  0  0  0
    0.0331    2.7341    0.7235 H   0  0  0  1  0  0  0  0  0  0  0  0
    0.8679    0.0749    1.7315 H   0  0  0  1  0  0  0  0  0  0  0  0
    1.3090    1.5722    2.5164 H   0  0  0  1  0  0  0  0  0  0  0  0
    1.9817    1.1734    0.9535 H   0  0  0  1  0  0  0  0  0  0  0  0
   -3.4450   -0.8397   -3.2529 H   0  0  0  1  0  0  0  0  0  0  0  0
   -4.0872   -1.5252   -1.7798 H   0  0  0  1  0  0  0  0  0  0  0  0
   -2.6831   -2.2394   -2.5366 H   0  0  0  1  0  0  0  0  0  0  0  0
    3.2244    0.4292   -5.0386 F   0  0  0  1  0  0  0  0  0  0  0  0
    1.9295    0.2004   -5.2640 C   0  0  0  1  0  0  0  0  0  0  0  0
    1.6615    0.5887   -6.5117 F   0  0  0  1  0  0  0  0  0  0  0  0
    1.7453   -1.1219   -5.2110 F   0  0  0  1  0  0  0  0  0  0  0  0
    1.0599    0.9138   -4.2500 C   0  0  0  1  0  0  0  0  0  0  0  0
    1.6102    1.3208   -3.0445 C   0  0  0  1  0  0  0  0  0  0  0  0
    0.8058    1.8884   -2.0745 C   0  0  0  1  0  0  0  0  0  0  0  0
   -0.5501    2.0557   -2.3089 C   0  0  0  1  0  0  0  0  0  0  0  0
   -1.0986    1.6498   -3.5108 C   0  0  0  1  0  0  0  0  0  0  0  0
   -0.2921    1.0804   -4.4839 C   0  0  0  1  0  0  0  0  0  0  0  0
   -1.4286    2.6813   -1.2514 C   0  0  0  1  0  0  0  0  0  0  0  0
    2.6282    1.1990   -2.8701 H   0  0  0  1  0  0  0  0  0  0  0  0
    1.2179    2.1902   -1.1685 H   0  0  0  1  0  0  0  0  0  0  0  0
   -2.1166    1.7716   -3.6852 H   0  0  0  1  0  0  0  0  0  0  0  0
   -0.7042    0.7787   -5.3898 H   0  0  0  1  0  0  0  0  0  0  0  0
   -0.8217    3.3388   -0.6648 H   0  0  0  1  0  0  0  0  0  0  0  0
   -2.1907    3.2457   -1.7470 H   0  0  0  1  0  0  0  0  0  0  0  0
  1  4  1  0  0  0  0
  2  4  1  0  0  0  0
  2  5  2  0  0  0  0
  2  6  1  0  0  0  0
  3  4  1  0  0  0  0
  3  7  1  0  0  0  0
  3  8  1  0  0  0  0
  4 29  1  0  0  0  0
  6  9  1  0  0  0  0
  6 12  1  0  0  0  0
  8 10  1  0  0  0  0
  8 11  2  0  0  0  0
  9 13  1  0  0  0  0
  9 14  1  0  0  0  0
  9 15  1  0  0  0  0
 10 16  1  0  0  0  0
 10 17  1  0  0  0  0
 10 18  1  0  0  0  0
 19 20  1  0  0  0  0
 20 21  1  0  0  0  0
 20 22  1  0  0  0  0
 20 23  1  0  0  0  0
 23 24  4  0  0  0  0
 23 28  4  0  0  0  0
 24 25  4  0  0  0  0
 24 30  1  0  0  0  0
 25 26  4  0  0  0  0
 25 31  1  0  0  0  0
 26 27  4  0  0  0  0
 26 29  1  0  0  0  0
 27 28  4  0  0  0  0
 27 32  1  0  0  0  0
 28 33  1  0  0  0  0
 29 34  1  0  0  0  0
 29 35  1  0  0  0  0
M  END
> <BCLConfClusterSize>
1

> <ConfClashScore>
0 

> <ConfOneFourInteractionScore>
-0.924221 

> <ConfScore>
0.133145 

> <ConfScorePBest>
0.00757751 

> <ConfTolerance>
0.307191 

> <RosettaParamsInstructions>
M  ROOT 3
M  POLY_N_BB 3
M  POLY_CA_BB 4
M  POLY_C_BB 2
M  POLY_O_BB 5
M  POLY_IGNORE 9 10 11 12 13 14 15 16 17 18 
M  POLY_UPPER 6
M  POLY_LOWER 8
M  POLY_CHG 0
M  POLY_PROPERTIES ALPHA_AA D_AA PROTEIN AROMATIC POLYMER 
M  END

$$$$



 35 35  0  0  0  0  0  0  0  0999 V2000
   -2.5487    1.0095   -0.8568 H   0  0  0  1  0  0  0  0  0  0  0  0
   -3.0429    2.5055    0.5743 C   0  0  0  1  0  0  0  0  0  0  0  0
   -0.9692    1.1165    0.4806 N   0  0  0  1  0  0  0  0  0  0  0  0
   -2.0254    1.7527   -0.2923 C   0  0  0  1  0  0  0  0  0  0  0  0
   -3.1029    2.2824    1.7824 O   0  0  0  1  0  0  0  0  0  0  0  0
   -3.7710    3.4486   -0.0331 N   0  0  0  1  0  0  0  0  0  0  0  0
   -0.0416    1.3565    0.2744 H   0  0  0  1  0  0  0  0  0  0  0  0
   -1.1852    0.2186    1.4616 C   0  0  0  1  0  0  0  0  0  0  0  0
   -4.6801    4.3628    0.6418 C   0  0  0  1  0  0  0  0  0  0  0  0
    0.0870   -0.3086    2.0962 C   0  0  0  1  0  0  0  0  0  0  0  0
   -2.2956   -0.1598    1.8324 O   0  0  0  1  0  0  0  0  0  0  0  0
   -3.6858    3.5302   -1.0060 H   0  0  0  1  0  0  0  0  0  0  0  0
   -5.2644    3.8224    1.3569 H   0  0  0  1  0  0  0  0  0  0  0  0
   -5.3285    4.8169   -0.0781 H   0  0  0  1  0  0  0  0  0  0  0  0
   -4.1158    5.1214    1.1429 H   0  0  0  1  0  0  0  0  0  0  0  0
    0.9353    0.1240    1.6083 H   0  0  0  1  0  0  0  0  0  0  0  0
    0.1216   -1.3732    1.9940 H   0  0  0  1  0  0  0  0  0  0  0  0
    0.1018   -0.0488    3.1340 H   0  0  0  1  0  0  0  0  0  0  0  0
    3.1537    0.6914   -5.2906 F   0  0  0  1  0  0  0  0  0  0  0  0
    1.9159    0.1941   -5.2648 C   0  0  0  1  0  0  0  0  0  0  0  0
    1.4847    0.3296   -6.4975 F   0  0  0  1  0  0  0  0  0  0  0  0
    2.0731   -1.0820   -5.0111 F   0  0  0  1  0  0  0  0  0  0  0  0
    1.0477    0.9048   -4.2478 C   0  0  0  1  0  0  0  0  0  0  0  0
    1.6067    1.3354   -3.0547 C   0  0  0  1  0  0  0  0  0  0  0  0
    0.8055    1.9011   -2.0808 C   0  0  0  1  0  0  0  0  0  0  0  0
   -0.5560    2.0426   -2.2992 C   0  0  0  1  0  0  0  0  0  0  0  0
   -1.1132    1.6132   -3.4888 C   0  0  0  1  0  0  0  0  0  0  0  0
   -0.3099    1.0459   -4.4657 C   0  0  0  1  0  0  0  0  0  0  0  0
   -1.4045    2.7541   -1.2719 C   0  0  0  1  0  0  0  0  0  0  0  0
    2.6288    1.2329   -2.8923 H   0  0  0  1  0  0  0  0  0  0  0  0
    1.2242    2.2205   -1.1840 H   0  0  0  1  0  0  0  0  0  0  0  0
   -2.1353    1.7157   -3.6511 H   0  0  0  1  0  0  0  0  0  0  0  0
   -0.7286    0.7265   -5.3625 H   0  0  0  1  0  0  0  0  0  0  0  0
   -0.7929    3.4435   -0.7283 H   0  0  0  1  0  0  0  0  0  0  0  0
   -2.1864    3.2873   -1.7712 H   0  0  0  1  0  0  0  0  0  0  0  0
  1  4  1  0  0  0  0
  2  4  1  0  0  0  0
  2  5  2  0  0  0  0
  2  6  1  0  0  0  0
  3  4  1  0  0  0  0
  3  7  1  0  0  0  0
  3  8  1  0  0  0  0
  4 29  1  0  0  0  0
  6  9  1  0  0  0  0
  6 12  1  0  0  0  0
  8 10  1  0  0  0  0
  8 11  2  0  0  0  0
  9 13  1  0  0  0  0
  9 14  1  0  0  0  0
  9 15  1  0  0  0  0
 10 16  1  0  0  0  0
 10 17  1  0  0  0  0
 10 18  1  0  0  0  0
 19 20  1  0  0  0  0
 20 21  1  0  0  0  0
 20 22  1  0  0  0  0
 20 23  1  0  0  0  0
 23 24  4  0  0  0  0
 23 28  4  0  0  0  0
 24 25  4  0  0  0  0
 24 30  1  0  0  0  0
 25 26  4  0  0  0  0
 25 31  1  0  0  0  0
 26 27  4  0  0  0  0
 26 29  1  0  0  0  0
 27 28  4  0  0  0  0
 27 32  1  0  0  0  0
 28 33  1  0  0  0  0
 29 34  1  0  0  0  0
 29 35  1  0  0  0  0
M  END
> <BCLConfClusterSize>
1

> <ConfClashScore>
0 

> <ConfOneFourInteractionScore>
-0.958855 

> <ConfScore>
0.146884 

> <ConfScorePBest>
0.00754903 

> <ConfTolerance>
0.329795 

> <RosettaParamsInstructions>
M  ROOT 3
M  POLY_N_BB 3
M  POLY_CA_BB 4
M  POLY_C_BB 2
M  POLY_O_BB 5
M  POLY_IGNORE 9 10 11 12 13 14 15 16 17 18 
M  POLY_UPPER 6
M  POLY_LOWER 8
M  POLY_CHG 0
M  POLY_PROPERTIES ALPHA_AA D_AA PROTEIN AROMATIC POLYMER 
M  END

$$$$



 35 35  0  0  0  0  0  0  0  0999 V2000
   -0.5239    4.6396   -1.7011 H   0  0  0  1  0  0  0  0  0  0  0  0
   -2.1892    4.9545   -0.3996 C   0  0  0  1  0  0  0  0  0  0  0  0
   -2.2812    4.4406   -2.7965 N   0  0  0  1  0  0  0  0  0  0  0  0
   -1.5111    4.2454   -1.5786 C   0  0  0  1  0  0  0  0  0  0  0  0
   -1.6635    4.9344    0.7121 O   0  0  0  1  0  0  0  0  0  0  0  0
   -3.3020    5.6449   -0.6708 N   0  0  0  1  0  0  0  0  0  0  0  0
   -2.9811    3.7995   -3.0406 H   0  0  0  1  0  0  0  0  0  0  0  0
   -2.0357    5.4967   -3.5868 C   0  0  0  1  0  0  0  0  0  0  0  0
   -4.0308    6.3783    0.3533 C   0  0  0  1  0  0  0  0  0  0  0  0
   -2.9505    5.6485   -4.7865 C   0  0  0  1  0  0  0  0  0  0  0  0
   -1.1309    6.3011   -3.3681 O   0  0  0  1  0  0  0  0  0  0  0  0
   -3.6383    5.6574   -1.5912 H   0  0  0  1  0  0  0  0  0  0  0  0
   -3.7753    5.9934    1.3184 H   0  0  0  1  0  0  0  0  0  0  0  0
   -5.0826    6.2659    0.1918 H   0  0  0  1  0  0  0  0  0  0  0  0
   -3.7705    7.4149    0.3027 H   0  0  0  1  0  0  0  0  0  0  0  0
   -3.9477    5.8459   -4.4526 H   0  0  0  1  0  0  0  0  0  0  0  0
   -2.9390    4.7452   -5.3600 H   0  0  0  1  0  0  0  0  0  0  0  0
   -2.6104    6.4613   -5.3935 H   0  0  0  1  0  0  0  0  0  0  0  0
    3.2149    0.3303   -5.0340 F   0  0  0  1  0  0  0  0  0  0  0  0
    1.9304    0.2108   -5.2566 C   0  0  0  1  0  0  0  0  0  0  0  0
    1.7612    0.6333   -6.4931 F   0  0  0  1  0  0  0  0  0  0  0  0
    1.7129   -1.0840   -5.3333 F   0  0  0  1  0  0  0  0  0  0  0  0
    1.0570    0.9159   -4.2401 C   0  0  0  1  0  0  0  0  0  0  0  0
    1.6002    1.3037   -3.0252 C   0  0  0  1  0  0  0  0  0  0  0  0
    0.7915    1.8634   -2.0540 C   0  0  0  1  0  0  0  0  0  0  0  0
   -0.5615    2.0417   -2.2968 C   0  0  0  1  0  0  0  0  0  0  0  0
   -1.1029    1.6549   -3.5082 C   0  0  0  1  0  0  0  0  0  0  0  0
   -0.2921    1.0936   -4.4823 C   0  0  0  1  0  0  0  0  0  0  0  0
   -1.4154    2.7469   -1.2696 C   0  0  0  1  0  0  0  0  0  0  0  0
    2.6161    1.1736   -2.8444 H   0  0  0  1  0  0  0  0  0  0  0  0
    1.1982    2.1507   -1.1410 H   0  0  0  1  0  0  0  0  0  0  0  0
   -2.1188    1.7850   -3.6889 H   0  0  0  1  0  0  0  0  0  0  0  0
   -0.6988    0.8063   -5.3954 H   0  0  0  1  0  0  0  0  0  0  0  0
   -2.3979    2.3232   -1.2796 H   0  0  0  1  0  0  0  0  0  0  0  0
   -0.9795    2.6155   -0.3013 H   0  0  0  1  0  0  0  0  0  0  0  0
  1  4  1  0  0  0  0
  2  4  1  0  0  0  0
  2  5  2  0  0  0  0
  2  6  1  0  0  0  0
  3  4  1  0  0  0  0
  3  7  1  0  0  0  0
  3  8  1  0  0  0  0
  4 29  1  0  0  0  0
  6  9  1  0  0  0  0
  6 12  1  0  0  0  0
  8 10  1  0  0  0  0
  8 11  2  0  0  0  0
  9 13  1  0  0  0  0
  9 14  1  0  0  0  0
  9 15  1  0  0  0  0
 10 16  1  0  0  0  0
 10 17  1  0  0  0  0
 10 18  1  0  0  0  0
 19 20  1  0  0  0  0
 20 21  1  0  0  0  0
 20 22  1  0  0  0  0
 20 23  1  0  0  0  0
 23 24  4  0  0  0  0
 23 28  4  0  0  0  0
 24 25  4  0  0  0  0
 24 30  1  0  0  0  0
 25 26  4  0  0  0  0
 25 31  1  0  0  0  0
 26 27  4  0  0  0  0
 26 29  1  0  0  0  0
 27 28  4  0  0  0  0
 27 32  1  0  0  0  0
 28 33  1  0  0  0  0
 29 34  1  0  0  0  0
 29 35  1  0  0  0  0
M  END
> <BCLConfClusterSize>
1

> <ConfClashScore>
0 

> <ConfOneFourInteractionScore>
-0.956443 

> <ConfScore>
0.151523 

> <ConfScorePBest>
0.00752055 

> <ConfTolerance>
0.282203 

> <RosettaParamsInstructions>
M  ROOT 3
M  POLY_N_BB 3
M  POLY_CA_BB 4
M  POLY_C_BB 2
M  POLY_O_BB 5
M  POLY_IGNORE 9 10 11 12 13 14 15 16 17 18 
M  POLY_UPPER 6
M  POLY_LOWER 8
M  POLY_CHG 0
M  POLY_PROPERTIES ALPHA_AA D_AA PROTEIN AROMATIC POLYMER 
M  END

$$$$



 35 35  0  0  0  0  0  0  0  0999 V2000
   -2.3994    0.8755   -0.8222 H   0  0  0  1  0  0  0  0  0  0  0  0
   -3.0811    2.2037    0.6465 C   0  0  0  1  0  0  0  0  0  0  0  0
   -0.8775    1.1043    0.5508 N   0  0  0  1  0  0  0  0  0  0  0  0
   -1.9755    1.6755   -0.2520 C   0  0  0  1  0  0  0  0  0  0  0  0
   -4.1452    2.5542    0.1602 O   0  0  0  1  0  0  0  0  0  0  0  0
   -2.8518    2.1764    1.9637 N   0  0  0  1  0  0  0  0  0  0  0  0
   -0.0406    1.6074    0.6333 H   0  0  0  1  0  0  0  0  0  0  0  0
   -0.9844   -0.0751    1.1694 C   0  0  0  1  0  0  0  0  0  0  0  0
   -3.8082    2.5783    2.9844 C   0  0  0  1  0  0  0  0  0  0  0  0
    0.2648   -0.5639    1.8762 C   0  0  0  1  0  0  0  0  0  0  0  0
   -2.0216   -0.7363    1.1760 O   0  0  0  1  0  0  0  0  0  0  0  0
   -1.9736    1.8620    2.2643 H   0  0  0  1  0  0  0  0  0  0  0  0
   -4.2746    3.4967    2.6949 H   0  0  0  1  0  0  0  0  0  0  0  0
   -3.2992    2.7151    3.9156 H   0  0  0  1  0  0  0  0  0  0  0  0
   -4.5538    1.8186    3.0931 H   0  0  0  1  0  0  0  0  0  0  0  0
    1.0430   -0.7205    1.1587 H   0  0  0  1  0  0  0  0  0  0  0  0
    0.0529   -1.4844    2.3788 H   0  0  0  1  0  0  0  0  0  0  0  0
    0.5802    0.1684    2.5899 H   0  0  0  1  0  0  0  0  0  0  0  0
    3.2061    0.1360   -4.8820 F   0  0  0  1  0  0  0  0  0  0  0  0
    1.9277    0.2000   -5.2585 C   0  0  0  1  0  0  0  0  0  0  0  0
    1.9198    0.7987   -6.4505 F   0  0  0  1  0  0  0  0  0  0  0  0
    1.5372   -1.0577   -5.4694 F   0  0  0  1  0  0  0  0  0  0  0  0
    1.0594    0.9147   -4.2445 C   0  0  0  1  0  0  0  0  0  0  0  0
    1.5984    1.2804   -3.0208 C   0  0  0  1  0  0  0  0  0  0  0  0
    0.7921    1.8488   -2.0528 C   0  0  0  1  0  0  0  0  0  0  0  0
   -0.5543    2.0580   -2.3073 C   0  0  0  1  0  0  0  0  0  0  0  0
   -1.0916    1.6934   -3.5274 C   0  0  0  1  0  0  0  0  0  0  0  0
   -0.2831    1.1233   -4.4984 C   0  0  0  1  0  0  0  0  0  0  0  0
   -1.4348    2.6845   -1.2519 C   0  0  0  1  0  0  0  0  0  0  0  0
    2.6095    1.1271   -2.8312 H   0  0  0  1  0  0  0  0  0  0  0  0
    1.1956    2.1195   -1.1333 H   0  0  0  1  0  0  0  0  0  0  0  0
   -2.1026    1.8467   -3.7170 H   0  0  0  1  0  0  0  0  0  0  0  0
   -0.6866    0.8526   -5.4179 H   0  0  0  1  0  0  0  0  0  0  0  0
   -0.8623    3.4165   -0.7215 H   0  0  0  1  0  0  0  0  0  0  0  0
   -2.2616    3.1602   -1.7367 H   0  0  0  1  0  0  0  0  0  0  0  0
  1  4  1  0  0  0  0
  2  4  1  0  0  0  0
  2  5  2  0  0  0  0
  2  6  1  0  0  0  0
  3  4  1  0  0  0  0
  3  7  1  0  0  0  0
  3  8  1  0  0  0  0
  4 29  1  0  0  0  0
  6  9  1  0  0  0  0
  6 12  1  0  0  0  0
  8 10  1  0  0  0  0
  8 11  2  0  0  0  0
  9 13  1  0  0  0  0
  9 14  1  0  0  0  0
  9 15  1  0  0  0  0
 10 16  1  0  0  0  0
 10 17  1  0  0  0  0
 10 18  1  0  0  0  0
 19 20  1  0  0  0  0
 20 21  1  0  0  0  0
 20 22  1  0  0  0  0
 20 23  1  0  0  0  0
 23 24  4  0  0  0  0
 23 28  4  0  0  0  0
 24 25  4  0  0  0  0
 24 30  1  0  0  0  0
 25 26  4  0  0  0  0
 25 31  1  0  0  0  0
 26 27  4  0  0  0  0
 26 29  1  0  0  0  0
 27 28  4  0  0  0  0
 27 32  1  0  0  0  0
 28 33  1  0  0  0  0
 29 34  1  0  0  0  0
 29 35  1  0  0  0  0
M  END
> <BCLConfClusterSize>
1

> <ConfClashScore>
0 

> <ConfOneFourInteractionScore>
-0.956443 

> <ConfScore>
0.159346 

> <ConfScorePBest>
0.00749207 

> <ConfTolerance>
0.240614 

> <RosettaParamsInstructions>
M  ROOT 3
M  POLY_N_BB 3
M  POLY_CA_BB 4
M  POLY_C_BB 2
M  POLY_O_BB 5
M  POLY_IGNORE 9 10 11 12 13 14 15 16 17 18 
M  POLY_UPPER 6
M  POLY_LOWER 8
M  POLY_CHG 0
M  POLY_PROPERTIES ALPHA_AA D_AA PROTEIN AROMATIC POLYMER 
M  END

$$$$



 35 35  0  0  0  0  0  0  0  0999 V2000
   -2.9125    2.2324    0.1657 H   0  0  0  1  0  0  0  0  0  0  0  0
   -1.5241    0.6704    0.3634 C   0  0  0  1  0  0  0  0  0  0  0  0
   -3.1748    0.9740   -1.4480 N   0  0  0  1  0  0  0  0  0  0  0  0
   -2.2878    1.6715   -0.4977 C   0  0  0  1  0  0  0  0  0  0  0  0
   -1.2153    0.9633    1.5082 O   0  0  0  1  0  0  0  0  0  0  0  0
   -1.3016   -0.5392   -0.1701 N   0  0  0  1  0  0  0  0  0  0  0  0
   -2.9958    0.0412   -1.6894 H   0  0  0  1  0  0  0  0  0  0  0  0
   -4.2260    1.6140   -1.9823 C   0  0  0  1  0  0  0  0  0  0  0  0
   -0.7176   -1.6307    0.5950 C   0  0  0  1  0  0  0  0  0  0  0  0
   -5.0849    0.7625   -2.9191 C   0  0  0  1  0  0  0  0  0  0  0  0
   -4.5524    2.7539   -1.7075 O   0  0  0  1  0  0  0  0  0  0  0  0
   -1.5405   -0.6937   -1.1078 H   0  0  0  1  0  0  0  0  0  0  0  0
   -1.0495   -1.5727    1.6105 H   0  0  0  1  0  0  0  0  0  0  0  0
    0.3494   -1.5568    0.5640 H   0  0  0  1  0  0  0  0  0  0  0  0
   -1.0233   -2.5653    0.1729 H   0  0  0  1  0  0  0  0  0  0  0  0
   -4.4538    0.1199   -3.4968 H   0  0  0  1  0  0  0  0  0  0  0  0
   -5.6385    1.4017   -3.5747 H   0  0  0  1  0  0  0  0  0  0  0  0
   -5.7630    0.1702   -2.3410 H   0  0  0  1  0  0  0  0  0  0  0  0
    3.2120    0.1776   -4.9524 F   0  0  0  1  0  0  0  0  0  0  0  0
    1.9164    0.2008   -5.2700 C   0  0  0  1  0  0  0  0  0  0  0  0
    1.8378    0.7709   -6.4734 F   0  0  0  1  0  0  0  0  0  0  0  0
    1.5495   -1.0708   -5.4344 F   0  0  0  1  0  0  0  0  0  0  0  0
    1.0765    0.9180   -4.2314 C   0  0  0  1  0  0  0  0  0  0  0  0
    1.6040    1.2967   -3.0066 C   0  0  0  1  0  0  0  0  0  0  0  0
    0.7855    1.8619   -2.0469 C   0  0  0  1  0  0  0  0  0  0  0  0
   -0.5615    2.0549   -2.3110 C   0  0  0  1  0  0  0  0  0  0  0  0
   -1.0872    1.6773   -3.5321 C   0  0  0  1  0  0  0  0  0  0  0  0
   -0.2666    1.1105   -4.4948 C   0  0  0  1  0  0  0  0  0  0  0  0
   -1.4093    2.6819   -1.2295 C   0  0  0  1  0  0  0  0  0  0  0  0
    2.6154    1.1556   -2.8099 H   0  0  0  1  0  0  0  0  0  0  0  0
    1.1803    2.1423   -1.1266 H   0  0  0  1  0  0  0  0  0  0  0  0
   -2.0987    1.8184   -3.7288 H   0  0  0  1  0  0  0  0  0  0  0  0
   -0.6614    0.8301   -5.4151 H   0  0  0  1  0  0  0  0  0  0  0  0
   -0.7619    3.1492   -0.5172 H   0  0  0  1  0  0  0  0  0  0  0  0
   -2.0406    3.4208   -1.6771 H   0  0  0  1  0  0  0  0  0  0  0  0
  1  4  1  0  0  0  0
  2  4  1  0  0  0  0
  2  5  2  0  0  0  0
  2  6  1  0  0  0  0
  3  4  1  0  0  0  0
  3  7  1  0  0  0  0
  3  8  1  0  0  0  0
  4 29  1  0  0  0  0
  6  9  1  0  0  0  0
  6 12  1  0  0  0  0
  8 10  1  0  0  0  0
  8 11  2  0  0  0  0
  9 13  1  0  0  0  0
  9 14  1  0  0  0  0
  9 15  1  0  0  0  0
 10 16  1  0  0  0  0
 10 17  1  0  0  0  0
 10 18  1  0  0  0  0
 19 20  1  0  0  0  0
 20 21  1  0  0  0  0
 20 22  1  0  0  0  0
 20 23  1  0  0  0  0
 23 24  4  0  0  0  0
 23 28  4  0  0  0  0
 24 25  4  0  0  0  0
 24 30  1  0  0  0  0
 25 26  4  0  0  0  0
 25 31  1  0  0  0  0
 26 27  4  0  0  0  0
 26 29  1  0  0  0  0
 27 28  4  0  0  0  0
 27 32  1  0  0  0  0
 28 33  1  0  0  0  0
 29 34  1  0  0  0  0
 29 35  1  0  0  0  0
M  END
> <BCLConfClusterSize>
1

> <ConfClashScore>
0 

> <ConfOneFourInteractionScore>
-0.952634 

> <ConfScore>
0.166792 

> <ConfScorePBest>
0.00746359 

> <ConfTolerance>
0.29735 

> <RosettaParamsInstructions>
M  ROOT 3
M  POLY_N_BB 3
M  POLY_CA_BB 4
M  POLY_C_BB 2
M  POLY_O_BB 5
M  POLY_IGNORE 9 10 11 12 13 14 15 16 17 18 
M  POLY_UPPER 6
M  POLY_LOWER 8
M  POLY_CHG 0
M  POLY_PROPERTIES ALPHA_AA D_AA PROTEIN AROMATIC POLYMER 
M  END

$$$$



 35 35  0  0  0  0  0  0  0  0999 V2000
   -2.4292    4.3708   -0.6102 H   0  0  0  1  0  0  0  0  0  0  0  0
   -2.8507    4.2241   -2.6549 C   0  0  0  1  0  0  0  0  0  0  0  0
   -0.7292    4.9403   -1.6308 N   0  0  0  1  0  0  0  0  0  0  0  0
   -1.9002    4.0549   -1.4851 C   0  0  0  1  0  0  0  0  0  0  0  0
   -4.0584    4.1196   -2.5061 O   0  0  0  1  0  0  0  0  0  0  0  0
   -2.2994    4.5776   -3.8209 N   0  0  0  1  0  0  0  0  0  0  0  0
   -0.5230    5.3102   -2.5145 H   0  0  0  1  0  0  0  0  0  0  0  0
    0.0600    5.2553   -0.5998 C   0  0  0  1  0  0  0  0  0  0  0  0
   -3.0989    4.8836   -4.9977 C   0  0  0  1  0  0  0  0  0  0  0  0
    1.2107    6.1918   -0.9131 C   0  0  0  1  0  0  0  0  0  0  0  0
   -0.1197    4.8232    0.5377 O   0  0  0  1  0  0  0  0  0  0  0  0
   -1.3230    4.6324   -3.8850 H   0  0  0  1  0  0  0  0  0  0  0  0
   -3.9285    4.2100   -5.0509 H   0  0  0  1  0  0  0  0  0  0  0  0
   -2.4964    4.7770   -5.8755 H   0  0  0  1  0  0  0  0  0  0  0  0
   -3.4596    5.8889   -4.9320 H   0  0  0  1  0  0  0  0  0  0  0  0
    0.8257    7.1209   -1.2784 H   0  0  0  1  0  0  0  0  0  0  0  0
    1.8382    5.7486   -1.6578 H   0  0  0  1  0  0  0  0  0  0  0  0
    1.7800    6.3667   -0.0242 H   0  0  0  1  0  0  0  0  0  0  0  0
    2.8001    0.9948   -5.8619 F   0  0  0  1  0  0  0  0  0  0  0  0
    1.9114    0.1950   -5.2700 C   0  0  0  1  0  0  0  0  0  0  0  0
    1.1710   -0.3283   -6.2485 F   0  0  0  1  0  0  0  0  0  0  0  0
    2.6079   -0.8152   -4.7474 F   0  0  0  1  0  0  0  0  0  0  0  0
    1.0757    0.9213   -4.2342 C   0  0  0  1  0  0  0  0  0  0  0  0
    1.6250    1.3710   -3.0436 C   0  0  0  1  0  0  0  0  0  0  0  0
    0.8145    1.9430   -2.0813 C   0  0  0  1  0  0  0  0  0  0  0  0
   -0.5468    2.0719   -2.3088 C   0  0  0  1  0  0  0  0  0  0  0  0
   -1.0944    1.6235   -3.4959 C   0  0  0  1  0  0  0  0  0  0  0  0
   -0.2816    1.0498   -4.4612 C   0  0  0  1  0  0  0  0  0  0  0  0
   -1.4535    2.6119   -1.2281 C   0  0  0  1  0  0  0  0  0  0  0  0
    2.6470    1.2780   -2.8745 H   0  0  0  1  0  0  0  0  0  0  0  0
    1.2259    2.2768   -1.1864 H   0  0  0  1  0  0  0  0  0  0  0  0
   -2.1163    1.7165   -3.6650 H   0  0  0  1  0  0  0  0  0  0  0  0
   -0.6932    0.7160   -5.3561 H   0  0  0  1  0  0  0  0  0  0  0  0
   -2.3231    1.9911   -1.1715 H   0  0  0  1  0  0  0  0  0  0  0  0
   -0.9295    2.5785   -0.2958 H   0  0  0  1  0  0  0  0  0  0  0  0
  1  4  1  0  0  0  0
  2  4  1  0  0  0  0
  2  5  2  0  0  0  0
  2  6  1  0  0  0  0
  3  4  1  0  0  0  0
  3  7  1  0  0  0  0
  3  8  1  0  0  0  0
  4 29  1  0  0  0  0
  6  9  1  0  0  0  0
  6 12  1  0  0  0  0
  8 10  1  0  0  0  0
  8 11  2  0  0  0  0
  9 13  1  0  0  0  0
  9 14  1  0  0  0  0
  9 15  1  0  0  0  0
 10 16  1  0  0  0  0
 10 17  1  0  0  0  0
 10 18  1  0  0  0  0
 19 20  1  0  0  0  0
 20 21  1  0  0  0  0
 20 22  1  0  0  0  0
 20 23  1  0  0  0  0
 23 24  4  0  0  0  0
 23 28  4  0  0  0  0
 24 25  4  0  0  0  0
 24 30  1  0  0  0  0
 25 26  4  0  0  0  0
 25 31  1  0  0  0  0
 26 27  4  0  0  0  0
 26 29  1  0  0  0  0
 27 28  4  0  0  0  0
 27 32  1  0  0  0  0
 28 33  1  0  0  0  0
 29 34  1  0  0  0  0
 29 35  1  0  0  0  0
M  END
> <BCLConfClusterSize>
1

> <ConfClashScore>
0 

> <ConfOneFourInteractionScore>
-0.933966 

> <ConfScore>
0.170612 

> <ConfScorePBest>
0.0074351 

> <ConfTolerance>
0.3301 

> <RosettaParamsInstructions>
M  ROOT 3
M  POLY_N_BB 3
M  POLY_CA_BB 4
M  POLY_C_BB 2
M  POLY_O_BB 5
M  POLY_IGNORE 9 10 11 12 13 14 15 16 17 18 
M  POLY_UPPER 6
M  POLY_LOWER 8
M  POLY_CHG 0
M  POLY_PROPERTIES ALPHA_AA D_AA PROTEIN AROMATIC POLYMER 
M  END

$$$$



 35 35  0  0  0  0  0  0  0  0999 V2000
   -0.0143    4.0567   -0.5321 H   0  0  0  1  0  0  0  0  0  0  0  0
   -1.8733    4.6737    0.2317 C   0  0  0  1  0  0  0  0  0  0  0  0
   -1.0324    4.9751   -2.0668 N   0  0  0  1  0  0  0  0  0  0  0  0
   -1.0201    4.1158   -0.8923 C   0  0  0  1  0  0  0  0  0  0  0  0
   -1.7788    4.2270    1.3645 O   0  0  0  1  0  0  0  0  0  0  0  0
   -2.6368    5.7169   -0.1105 N   0  0  0  1  0  0  0  0  0  0  0  0
   -1.7144    4.8476   -2.7589 H   0  0  0  1  0  0  0  0  0  0  0  0
   -0.1068    5.9471   -2.2047 C   0  0  0  1  0  0  0  0  0  0  0  0
   -3.4267    6.5116    0.8182 C   0  0  0  1  0  0  0  0  0  0  0  0
   -0.1135    6.6793   -3.5325 C   0  0  0  1  0  0  0  0  0  0  0  0
    0.6990    6.2348   -1.3211 O   0  0  0  1  0  0  0  0  0  0  0  0
   -2.6667    5.9650   -1.0582 H   0  0  0  1  0  0  0  0  0  0  0  0
   -3.0085    6.4339    1.8000 H   0  0  0  1  0  0  0  0  0  0  0  0
   -4.4336    6.1497    0.8300 H   0  0  0  1  0  0  0  0  0  0  0  0
   -3.4188    7.5354    0.5074 H   0  0  0  1  0  0  0  0  0  0  0  0
    0.1802    6.0079   -4.3121 H   0  0  0  1  0  0  0  0  0  0  0  0
    0.5729    7.4991   -3.4908 H   0  0  0  1  0  0  0  0  0  0  0  0
   -1.0982    7.0476   -3.7314 H   0  0  0  1  0  0  0  0  0  0  0  0
    2.1304   -1.0930   -4.9571 F   0  0  0  1  0  0  0  0  0  0  0  0
    1.9305    0.1934   -5.2489 C   0  0  0  1  0  0  0  0  0  0  0  0
    3.1359    0.7426   -5.4061 F   0  0  0  1  0  0  0  0  0  0  0  0
    1.3846    0.1974   -6.4657 F   0  0  0  1  0  0  0  0  0  0  0  0
    1.0719    0.9136   -4.2304 C   0  0  0  1  0  0  0  0  0  0  0  0
    1.5046    1.0078   -2.9169 C   0  0  0  1  0  0  0  0  0  0  0  0
    0.6880    1.5802   -1.9598 C   0  0  0  1  0  0  0  0  0  0  0  0
   -0.5613    2.0649   -2.3145 C   0  0  0  1  0  0  0  0  0  0  0  0
   -0.9926    1.9708   -3.6241 C   0  0  0  1  0  0  0  0  0  0  0  0
   -0.1738    1.3968   -4.5842 C   0  0  0  1  0  0  0  0  0  0  0  0
   -1.4517    2.6958   -1.2702 C   0  0  0  1  0  0  0  0  0  0  0  0
    2.4436    0.6479   -2.6515 H   0  0  0  1  0  0  0  0  0  0  0  0
    1.0110    1.6473   -0.9735 H   0  0  0  1  0  0  0  0  0  0  0  0
   -1.9315    2.3308   -3.8895 H   0  0  0  1  0  0  0  0  0  0  0  0
   -0.4968    1.3297   -5.5705 H   0  0  0  1  0  0  0  0  0  0  0  0
   -2.4505    2.7336   -1.6521 H   0  0  0  1  0  0  0  0  0  0  0  0
   -1.4286    2.0873   -0.3903 H   0  0  0  1  0  0  0  0  0  0  0  0
  1  4  1  0  0  0  0
  2  4  1  0  0  0  0
  2  5  2  0  0  0  0
  2  6  1  0  0  0  0
  3  4  1  0  0  0  0
  3  7  1  0  0  0  0
  3  8  1  0  0  0  0
  4 29  1  0  0  0  0
  6  9  1  0  0  0  0
  6 12  1  0  0  0  0
  8 10  1  0  0  0  0
  8 11  2  0  0  0  0
  9 13  1  0  0  0  0
  9 14  1  0  0  0  0
  9 15  1  0  0  0  0
 10 16  1  0  0  0  0
 10 17  1  0  0  0  0
 10 18  1  0  0  0  0
 19 20  1  0  0  0  0
 20 21  1  0  0  0  0
 20 22  1  0  0  0  0
 20 23  1  0  0  0  0
 23 24  4  0  0  0  0
 23 28  4  0  0  0  0
 24 25  4  0  0  0  0
 24 30  1  0  0  0  0
 25 26  4  0  0  0  0
 25 31  1  0  0  0  0
 26 27  4  0  0  0  0
 26 29  1  0  0  0  0
 27 28  4  0  0  0  0
 27 32  1  0  0  0  0
 28 33  1  0  0  0  0
 29 34  1  0  0  0  0
 29 35  1  0  0  0  0
M  END
> <BCLConfClusterSize>
1

> <ConfClashScore>
0 

> <ConfOneFourInteractionScore>
-0.94165 

> <ConfScore>
0.173857 

> <ConfScorePBest>
0.00740662 

> <ConfTolerance>
0.297419 

> <RosettaParamsInstructions>
M  ROOT 3
M  POLY_N_BB 3
M  POLY_CA_BB 4
M  POLY_C_BB 2
M  POLY_O_BB 5
M  POLY_IGNORE 9 10 11 12 13 14 15 16 17 18 
M  POLY_UPPER 6
M  POLY_LOWER 8
M  POLY_CHG 0
M  POLY_PROPERTIES ALPHA_AA D_AA PROTEIN AROMATIC POLYMER 
M  END

$$$$



 35 35  0  0  0  0  0  0  0  0999 V2000
   -2.2936    4.5863   -0.7005 H   0  0  0  1  0  0  0  0  0  0  0  0
   -2.8895    4.1989   -2.7128 C   0  0  0  1  0  0  0  0  0  0  0  0
   -0.6929    4.9723   -1.9856 N   0  0  0  1  0  0  0  0  0  0  0  0
   -1.8543    4.1666   -1.5813 C   0  0  0  1  0  0  0  0  0  0  0  0
   -2.9294    5.1596   -3.4796 O   0  0  0  1  0  0  0  0  0  0  0  0
   -3.6570    3.1136   -2.8586 N   0  0  0  1  0  0  0  0  0  0  0  0
    0.1868    4.5407   -1.9665 H   0  0  0  1  0  0  0  0  0  0  0  0
   -0.7462    6.2466   -2.3765 C   0  0  0  1  0  0  0  0  0  0  0  0
   -4.5950    2.9168   -3.9537 C   0  0  0  1  0  0  0  0  0  0  0  0
    0.5833    6.8822   -2.7339 C   0  0  0  1  0  0  0  0  0  0  0  0
   -1.7886    6.8764   -2.4481 O   0  0  0  1  0  0  0  0  0  0  0  0
   -3.5831    2.4056   -2.1850 H   0  0  0  1  0  0  0  0  0  0  0  0
   -5.3950    3.6224   -3.8699 H   0  0  0  1  0  0  0  0  0  0  0  0
   -4.9900    1.9233   -3.9105 H   0  0  0  1  0  0  0  0  0  0  0  0
   -4.0897    3.0601   -4.8859 H   0  0  0  1  0  0  0  0  0  0  0  0
    0.6869    6.9191   -3.7982 H   0  0  0  1  0  0  0  0  0  0  0  0
    1.3795    6.3007   -2.3182 H   0  0  0  1  0  0  0  0  0  0  0  0
    0.6216    7.8753   -2.3374 H   0  0  0  1  0  0  0  0  0  0  0  0
    1.6312   -1.0961   -5.3622 F   0  0  0  1  0  0  0  0  0  0  0  0
    1.9311    0.1995   -5.2553 C   0  0  0  1  0  0  0  0  0  0  0  0
    3.2306    0.2581   -4.9602 F   0  0  0  1  0  0  0  0  0  0  0  0
    1.8018    0.7158   -6.4808 F   0  0  0  1  0  0  0  0  0  0  0  0
    1.0712    0.9115   -4.2321 C   0  0  0  1  0  0  0  0  0  0  0  0
    1.4747    0.9462   -2.9064 C   0  0  0  1  0  0  0  0  0  0  0  0
    0.6537    1.5113   -1.9489 C   0  0  0  1  0  0  0  0  0  0  0  0
   -0.5708    2.0481   -2.3149 C   0  0  0  1  0  0  0  0  0  0  0  0
   -0.9730    2.0134   -3.6367 C   0  0  0  1  0  0  0  0  0  0  0  0
   -0.1497    1.4467   -4.5972 C   0  0  0  1  0  0  0  0  0  0  0  0
   -1.4137    2.7537   -1.2790 C   0  0  0  1  0  0  0  0  0  0  0  0
    2.3951    0.5471   -2.6323 H   0  0  0  1  0  0  0  0  0  0  0  0
    0.9546    1.5338   -0.9536 H   0  0  0  1  0  0  0  0  0  0  0  0
   -1.8934    2.4125   -3.9108 H   0  0  0  1  0  0  0  0  0  0  0  0
   -0.4507    1.4243   -5.5925 H   0  0  0  1  0  0  0  0  0  0  0  0
   -2.2966    2.1676   -1.1314 H   0  0  0  1  0  0  0  0  0  0  0  0
   -0.8480    2.7821   -0.3712 H   0  0  0  1  0  0  0  0  0  0  0  0
  1  4  1  0  0  0  0
  2  4  1  0  0  0  0
  2  5  2  0  0  0  0
  2  6  1  0  0  0  0
  3  4  1  0  0  0  0
  3  7  1  0  0  0  0
  3  8  1  0  0  0  0
  4 29  1  0  0  0  0
  6  9  1  0  0  0  0
  6 12  1  0  0  0  0
  8 10  1  0  0  0  0
  8 11  2  0  0  0  0
  9 13  1  0  0  0  0
  9 14  1  0  0  0  0
  9 15  1  0  0  0  0
 10 16  1  0  0  0  0
 10 17  1  0  0  0  0
 10 18  1  0  0  0  0
 19 20  1  0  0  0  0
 20 21  1  0  0  0  0
 20 22  1  0  0  0  0
 20 23  1  0  0  0  0
 23 24  4  0  0  0  0
 23 28  4  0  0  0  0
 24 25  4  0  0  0  0
 24 30  1  0  0  0  0
 25 26  4  0  0  0  0
 25 31  1  0  0  0  0
 26 27  4  0  0  0  0
 26 29  1  0  0  0  0
 27 28  4  0  0  0  0
 27 32  1  0  0  0  0
 28 33  1  0  0  0  0
 29 34  1  0  0  0  0
 29 35  1  0  0  0  0
M  END
> <BCLConfClusterSize>
1

> <ConfClashScore>
0.000577473 

> <ConfOneFourInteractionScore>
-0.95103 

> <ConfScore>
0.174354 

> <ConfScorePBest>
0.00737814 

> <ConfTolerance>
0.324708 

> <RosettaParamsInstructions>
M  ROOT 3
M  POLY_N_BB 3
M  POLY_CA_BB 4
M  POLY_C_BB 2
M  POLY_O_BB 5
M  POLY_IGNORE 9 10 11 12 13 14 15 16 17 18 
M  POLY_UPPER 6
M  POLY_LOWER 8
M  POLY_CHG 0
M  POLY_PROPERTIES ALPHA_AA D_AA PROTEIN AROMATIC POLYMER 
M  END

$$$$



 35 35  0  0  0  0  0  0  0  0999 V2000
   -2.9627    2.2842    0.1461 H   0  0  0  1  0  0  0  0  0  0  0  0
   -1.8952    0.4801   -0.1196 C   0  0  0  1  0  0  0  0  0  0  0  0
   -3.4986    1.5456   -1.7150 N   0  0  0  1  0  0  0  0  0  0  0  0
   -2.4991    1.7650   -0.6665 C   0  0  0  1  0  0  0  0  0  0  0  0
   -1.5776    0.3816    1.0646 O   0  0  0  1  0  0  0  0  0  0  0  0
   -1.8161   -0.5477   -0.9715 N   0  0  0  1  0  0  0  0  0  0  0  0
   -3.5395    0.6703   -2.1537 H   0  0  0  1  0  0  0  0  0  0  0  0
   -4.3886    2.5335   -2.1082 C   0  0  0  1  0  0  0  0  0  0  0  0
   -1.3588   -1.8662   -0.5586 C   0  0  0  1  0  0  0  0  0  0  0  0
   -5.4278    2.2099   -3.1446 C   0  0  0  1  0  0  0  0  0  0  0  0
   -4.2978    3.6375   -1.5972 O   0  0  0  1  0  0  0  0  0  0  0  0
   -2.0750   -0.4082   -1.9063 H   0  0  0  1  0  0  0  0  0  0  0  0
   -0.8915   -2.3575   -1.3863 H   0  0  0  1  0  0  0  0  0  0  0  0
   -2.1948   -2.4454   -0.2261 H   0  0  0  1  0  0  0  0  0  0  0  0
   -0.6540   -1.7650    0.2401 H   0  0  0  1  0  0  0  0  0  0  0  0
   -5.0038    2.3167   -4.1211 H   0  0  0  1  0  0  0  0  0  0  0  0
   -6.2558    2.8796   -3.0403 H   0  0  0  1  0  0  0  0  0  0  0  0
   -5.7638    1.2029   -3.0101 H   0  0  0  1  0  0  0  0  0  0  0  0
    1.2241   -0.2795   -6.2870 F   0  0  0  1  0  0  0  0  0  0  0  0
    1.9268    0.2065   -5.2623 C   0  0  0  1  0  0  0  0  0  0  0  0
    2.5428   -0.8570   -4.7438 F   0  0  0  1  0  0  0  0  0  0  0  0
    2.8829    0.9615   -5.7627 F   0  0  0  1  0  0  0  0  0  0  0  0
    1.0694    0.9210   -4.2388 C   0  0  0  1  0  0  0  0  0  0  0  0
    1.5138    1.0266   -2.9300 C   0  0  0  1  0  0  0  0  0  0  0  0
    0.6997    1.5935   -1.9676 C   0  0  0  1  0  0  0  0  0  0  0  0
   -0.5589    2.0612   -2.3121 C   0  0  0  1  0  0  0  0  0  0  0  0
   -1.0018    1.9557   -3.6171 C   0  0  0  1  0  0  0  0  0  0  0  0
   -0.1855    1.3872   -4.5825 C   0  0  0  1  0  0  0  0  0  0  0  0
   -1.4468    2.6860   -1.2620 C   0  0  0  1  0  0  0  0  0  0  0  0
    2.4596    0.6794   -2.6722 H   0  0  0  1  0  0  0  0  0  0  0  0
    1.0314    1.6692   -0.9848 H   0  0  0  1  0  0  0  0  0  0  0  0
   -1.9476    2.3029   -3.8748 H   0  0  0  1  0  0  0  0  0  0  0  0
   -0.5172    1.3116   -5.5652 H   0  0  0  1  0  0  0  0  0  0  0  0
   -0.8222    3.0323   -0.4652 H   0  0  0  1  0  0  0  0  0  0  0  0
   -1.9506    3.5179   -1.7082 H   0  0  0  1  0  0  0  0  0  0  0  0
  1  4  1  0  0  0  0
  2  4  1  0  0  0  0
  2  5  2  0  0  0  0
  2  6  1  0  0  0  0
  3  4  1  0  0  0  0
  3  7  1  0  0  0  0
  3  8  1  0  0  0  0
  4 29  1  0  0  0  0
  6  9  1  0  0  0  0
  6 12  1  0  0  0  0
  8 10  1  0  0  0  0
  8 11  2  0  0  0  0
  9 13  1  0  0  0  0
  9 14  1  0  0  0  0
  9 15  1  0  0  0  0
 10 16  1  0  0  0  0
 10 17  1  0  0  0  0
 10 18  1  0  0  0  0
 19 20  1  0  0  0  0
 20 21  1  0  0  0  0
 20 22  1  0  0  0  0
 20 23  1  0  0  0  0
 23 24  4  0  0  0  0
 23 28  4  0  0  0  0
 24 25  4  0  0  0  0
 24 30  1  0  0  0  0
 25 26  4  0  0  0  0
 25 31  1  0  0  0  0
 26 27  4  0  0  0  0
 26 29  1  0  0  0  0
 27 28  4  0  0  0  0
 27 32  1  0  0  0  0
 28 33  1  0  0  0  0
 29 34  1  0  0  0  0
 29 35  1  0  0  0  0
M  END
> <BCLConfClusterSize>
1

> <ConfClashScore>
0 

> <ConfOneFourInteractionScore>
-0.96177 

> <ConfScore>
0.177582 

> <ConfScorePBest>
0.00734966 

> <ConfTolerance>
0.350972 

> <RosettaParamsInstructions>
M  ROOT 3
M  POLY_N_BB 3
M  POLY_CA_BB 4
M  POLY_C_BB 2
M  POLY_O_BB 5
M  POLY_IGNORE 9 10 11 12 13 14 15 16 17 18 
M  POLY_UPPER 6
M  POLY_LOWER 8
M  POLY_CHG 0
M  POLY_PROPERTIES ALPHA_AA D_AA PROTEIN AROMATIC POLYMER 
M  END

$$$$



 35 35  0  0  0  0  0  0  0  0999 V2000
   -3.3620    3.5270   -0.9898 H   0  0  0  1  0  0  0  0  0  0  0  0
   -3.6169    1.6382   -1.9499 C   0  0  0  1  0  0  0  0  0  0  0  0
   -2.8121    3.6888   -2.9984 N   0  0  0  1  0  0  0  0  0  0  0  0
   -2.8493    2.9478   -1.7291 C   0  0  0  1  0  0  0  0  0  0  0  0
   -4.5677    1.6089   -2.7302 O   0  0  0  1  0  0  0  0  0  0  0  0
   -3.1456    0.5515   -1.3291 N   0  0  0  1  0  0  0  0  0  0  0  0
   -1.9422    3.9024   -3.3960 H   0  0  0  1  0  0  0  0  0  0  0  0
   -3.9229    4.0812   -3.6286 C   0  0  0  1  0  0  0  0  0  0  0  0
   -3.7081   -0.7593   -1.6216 C   0  0  0  1  0  0  0  0  0  0  0  0
   -3.7377    4.8271   -4.9561 C   0  0  0  1  0  0  0  0  0  0  0  0
   -5.0548    3.8045   -3.2337 O   0  0  0  1  0  0  0  0  0  0  0  0
   -2.4201    0.6375   -0.6760 H   0  0  0  1  0  0  0  0  0  0  0  0
   -4.2177   -0.7275   -2.5619 H   0  0  0  1  0  0  0  0  0  0  0  0
   -4.3989   -1.0307   -0.8509 H   0  0  0  1  0  0  0  0  0  0  0  0
   -2.9212   -1.4828   -1.6670 H   0  0  0  1  0  0  0  0  0  0  0  0
   -3.0621    4.2814   -5.5812 H   0  0  0  1  0  0  0  0  0  0  0  0
   -3.3384    5.8012   -4.7649 H   0  0  0  1  0  0  0  0  0  0  0  0
   -4.6833    4.9190   -5.4482 H   0  0  0  1  0  0  0  0  0  0  0  0
    3.1848    0.6440   -5.2552 F   0  0  0  1  0  0  0  0  0  0  0  0
    1.9265    0.2008   -5.2601 C   0  0  0  1  0  0  0  0  0  0  0  0
    1.4835    0.3502   -6.5095 F   0  0  0  1  0  0  0  0  0  0  0  0
    1.9925   -1.1132   -5.0417 F   0  0  0  1  0  0  0  0  0  0  0  0
    1.0562    0.9143   -4.2468 C   0  0  0  1  0  0  0  0  0  0  0  0
    1.6123    1.3463   -3.0528 C   0  0  0  1  0  0  0  0  0  0  0  0
    0.8091    1.9145   -2.0822 C   0  0  0  1  0  0  0  0  0  0  0  0
   -0.5516    2.0575   -2.3047 C   0  0  0  1  0  0  0  0  0  0  0  0
   -1.1059    1.6267   -3.4952 C   0  0  0  1  0  0  0  0  0  0  0  0
   -0.3005    1.0568   -4.4689 C   0  0  0  1  0  0  0  0  0  0  0  0
   -1.4290    2.6837   -1.2467 C   0  0  0  1  0  0  0  0  0  0  0  0
    2.6339    1.2428   -2.8874 H   0  0  0  1  0  0  0  0  0  0  0  0
    1.2256    2.2350   -1.1847 H   0  0  0  1  0  0  0  0  0  0  0  0
   -2.1275    1.7303   -3.6606 H   0  0  0  1  0  0  0  0  0  0  0  0
   -0.7171    0.7363   -5.3663 H   0  0  0  1  0  0  0  0  0  0  0  0
   -1.4722    2.0237   -0.4056 H   0  0  0  1  0  0  0  0  0  0  0  0
   -0.9921    3.6139   -0.9487 H   0  0  0  1  0  0  0  0  0  0  0  0
  1  4  1  0  0  0  0
  2  4  1  0  0  0  0
  2  5  2  0  0  0  0
  2  6  1  0  0  0  0
  3  4  1  0  0  0  0
  3  7  1  0  0  0  0
  3  8  1  0  0  0  0
  4 29  1  0  0  0  0
  6  9  1  0  0  0  0
  6 12  1  0  0  0  0
  8 10  1  0  0  0  0
  8 11  2  0  0  0  0
  9 13  1  0  0  0  0
  9 14  1  0  0  0  0
  9 15  1  0  0  0  0
 10 16  1  0  0  0  0
 10 17  1  0  0  0  0
 10 18  1  0  0  0  0
 19 20  1  0  0  0  0
 20 21  1  0  0  0  0
 20 22  1  0  0  0  0
 20 23  1  0  0  0  0
 23 24  4  0  0  0  0
 23 28  4  0  0  0  0
 24 25  4  0  0  0  0
 24 30  1  0  0  0  0
 25 26  4  0  0  0  0
 25 31  1  0  0  0  0
 26 27  4  0  0  0  0
 26 29  1  0  0  0  0
 27 28  4  0  0  0  0
 27 32  1  0  0  0  0
 28 33  1  0  0  0  0
 29 34  1  0  0  0  0
 29 35  1  0  0  0  0
M  END
> <BCLConfClusterSize>
1

> <ConfClashScore>
0.000224479 

> <ConfOneFourInteractionScore>
-0.943589 

> <ConfScore>
0.191923 

> <ConfScorePBest>
0.00732118 

> <ConfTolerance>
0.461263 

> <RosettaParamsInstructions>
M  ROOT 3
M  POLY_N_BB 3
M  POLY_CA_BB 4
M  POLY_C_BB 2
M  POLY_O_BB 5
M  POLY_IGNORE 9 10 11 12 13 14 15 16 17 18 
M  POLY_UPPER 6
M  POLY_LOWER 8
M  POLY_CHG 0
M  POLY_PROPERTIES ALPHA_AA D_AA PROTEIN AROMATIC POLYMER 
M  END

$$$$



 35 35  0  0  0  0  0  0  0  0999 V2000
   -3.1242    2.2768   -0.0559 H   0  0  0  1  0  0  0  0  0  0  0  0
   -1.8584    0.6061    0.1046 C   0  0  0  1  0  0  0  0  0  0  0  0
   -3.3145    1.1403   -1.7738 N   0  0  0  1  0  0  0  0  0  0  0  0
   -2.4841    1.7222   -0.7098 C   0  0  0  1  0  0  0  0  0  0  0  0
   -1.5688    0.7968    1.2847 O   0  0  0  1  0  0  0  0  0  0  0  0
   -1.7299   -0.5807   -0.4982 N   0  0  0  1  0  0  0  0  0  0  0  0
   -3.0649    1.3249   -2.7033 H   0  0  0  1  0  0  0  0  0  0  0  0
   -4.3857    0.3771   -1.5549 C   0  0  0  1  0  0  0  0  0  0  0  0
   -1.3165   -1.7769    0.2202 C   0  0  0  1  0  0  0  0  0  0  0  0
   -5.0795   -0.2109   -2.7902 C   0  0  0  1  0  0  0  0  0  0  0  0
   -4.7774    0.0732   -0.4290 O   0  0  0  1  0  0  0  0  0  0  0  0
   -1.9208   -0.6472   -1.4571 H   0  0  0  1  0  0  0  0  0  0  0  0
   -0.5539   -1.5235    0.9267 H   0  0  0  1  0  0  0  0  0  0  0  0
   -0.9344   -2.4956   -0.4743 H   0  0  0  1  0  0  0  0  0  0  0  0
   -2.1573   -2.1910    0.7365 H   0  0  0  1  0  0  0  0  0  0  0  0
   -5.1979    0.5524   -3.5306 H   0  0  0  1  0  0  0  0  0  0  0  0
   -6.0407   -0.5901   -2.5123 H   0  0  0  1  0  0  0  0  0  0  0  0
   -4.4839   -1.0052   -3.1892 H   0  0  0  1  0  0  0  0  0  0  0  0
    1.1964   -0.3769   -6.2185 F   0  0  0  1  0  0  0  0  0  0  0  0
    1.9245    0.1943   -5.2575 C   0  0  0  1  0  0  0  0  0  0  0  0
    2.6590   -0.7795   -4.7177 F   0  0  0  1  0  0  0  0  0  0  0  0
    2.7807    1.0108   -5.8731 F   0  0  0  1  0  0  0  0  0  0  0  0
    1.0715    0.9133   -4.2334 C   0  0  0  1  0  0  0  0  0  0  0  0
    1.5096    1.0023   -2.9213 C   0  0  0  1  0  0  0  0  0  0  0  0
    0.6982    1.5736   -1.9592 C   0  0  0  1  0  0  0  0  0  0  0  0
   -0.5514    2.0623   -2.3074 C   0  0  0  1  0  0  0  0  0  0  0  0
   -0.9880    1.9735   -3.6157 C   0  0  0  1  0  0  0  0  0  0  0  0
   -0.1743    1.4006   -4.5807 C   0  0  0  1  0  0  0  0  0  0  0  0
   -1.4791    2.7018   -1.3015 C   0  0  0  1  0  0  0  0  0  0  0  0
    2.4488    0.6393   -2.6608 H   0  0  0  1  0  0  0  0  0  0  0  0
    1.0252    1.6367   -0.9740 H   0  0  0  1  0  0  0  0  0  0  0  0
   -1.9271    2.3365   -3.8761 H   0  0  0  1  0  0  0  0  0  0  0  0
   -0.5014    1.3375   -5.5659 H   0  0  0  1  0  0  0  0  0  0  0  0
   -0.8905    3.1081   -0.5056 H   0  0  0  1  0  0  0  0  0  0  0  0
   -2.0164    3.4897   -1.7865 H   0  0  0  1  0  0  0  0  0  0  0  0
  1  4  1  0  0  0  0
  2  4  1  0  0  0  0
  2  5  2  0  0  0  0
  2  6  1  0  0  0  0
  3  4  1  0  0  0  0
  3  7  1  0  0  0  0
  3  8  1  0  0  0  0
  4 29  1  0  0  0  0
  6  9  1  0  0  0  0
  6 12  1  0  0  0  0
  8 10  1  0  0  0  0
  8 11  2  0  0  0  0
  9 13  1  0  0  0  0
  9 14  1  0  0  0  0
  9 15  1  0  0  0  0
 10 16  1  0  0  0  0
 10 17  1  0  0  0  0
 10 18  1  0  0  0  0
 19 20  1  0  0  0  0
 20 21  1  0  0  0  0
 20 22  1  0  0  0  0
 20 23  1  0  0  0  0
 23 24  4  0  0  0  0
 23 28  4  0  0  0  0
 24 25  4  0  0  0  0
 24 30  1  0  0  0  0
 25 26  4  0  0  0  0
 25 31  1  0  0  0  0
 26 27  4  0  0  0  0
 26 29  1  0  0  0  0
 27 28  4  0  0  0  0
 27 32  1  0  0  0  0
 28 33  1  0  0  0  0
 29 34  1  0  0  0  0
 29 35  1  0  0  0  0
M  END
> <BCLConfClusterSize>
1

> <ConfClashScore>
0 

> <ConfOneFourInteractionScore>
-0.931937 

> <ConfScore>
0.192103 

> <ConfScorePBest>
0.0072927 

> <ConfTolerance>
0.266465 

> <RosettaParamsInstructions>
M  ROOT 3
M  POLY_N_BB 3
M  POLY_CA_BB 4
M  POLY_C_BB 2
M  POLY_O_BB 5
M  POLY_IGNORE 9 10 11 12 13 14 15 16 17 18 
M  POLY_UPPER 6
M  POLY_LOWER 8
M  POLY_CHG 0
M  POLY_PROPERTIES ALPHA_AA D_AA PROTEIN AROMATIC POLYMER 
M  END

$$$$



 35 35  0  0  0  0  0  0  0  0999 V2000
   -2.2669    0.9437   -0.4195 H   0  0  0  1  0  0  0  0  0  0  0  0
   -2.6070    2.4895    0.9644 C   0  0  0  1  0  0  0  0  0  0  0  0
   -0.4884    1.2920    0.5583 N   0  0  0  1  0  0  0  0  0  0  0  0
   -1.7202    1.7836   -0.0445 C   0  0  0  1  0  0  0  0  0  0  0  0
   -2.5483    2.1807    2.1540 O   0  0  0  1  0  0  0  0  0  0  0  0
   -3.3628    3.4925    0.5049 N   0  0  0  1  0  0  0  0  0  0  0  0
    0.3669    1.5132    0.1341 H   0  0  0  1  0  0  0  0  0  0  0  0
   -0.4842    0.5501    1.6694 C   0  0  0  1  0  0  0  0  0  0  0  0
   -4.3100    4.2418    1.3181 C   0  0  0  1  0  0  0  0  0  0  0  0
    0.8814    0.2518    2.2572 C   0  0  0  1  0  0  0  0  0  0  0  0
   -1.5037    0.1306    2.1919 O   0  0  0  1  0  0  0  0  0  0  0  0
   -3.2734    3.7389   -0.4394 H   0  0  0  1  0  0  0  0  0  0  0  0
   -3.9439    4.3099    2.3212 H   0  0  0  1  0  0  0  0  0  0  0  0
   -5.2553    3.7405    1.3169 H   0  0  0  1  0  0  0  0  0  0  0  0
   -4.4268    5.2255    0.9138 H   0  0  0  1  0  0  0  0  0  0  0  0
    1.5374    1.0768    2.0730 H   0  0  0  1  0  0  0  0  0  0  0  0
    1.2808   -0.6299    1.8012 H   0  0  0  1  0  0  0  0  0  0  0  0
    0.7895    0.0981    3.3121 H   0  0  0  1  0  0  0  0  0  0  0  0
    2.5556    1.0617   -6.0612 F   0  0  0  1  0  0  0  0  0  0  0  0
    1.9190    0.1980   -5.2682 C   0  0  0  1  0  0  0  0  0  0  0  0
    1.1658   -0.5620   -6.0647 F   0  0  0  1  0  0  0  0  0  0  0  0
    2.8446   -0.5940   -4.7254 F   0  0  0  1  0  0  0  0  0  0  0  0
    1.0779    0.9156   -4.2335 C   0  0  0  1  0  0  0  0  0  0  0  0
    1.6172    1.3462   -3.0313 C   0  0  0  1  0  0  0  0  0  0  0  0
    0.8000    1.9112   -2.0704 C   0  0  0  1  0  0  0  0  0  0  0  0
   -0.5579    2.0522   -2.3109 C   0  0  0  1  0  0  0  0  0  0  0  0
   -1.0954    1.6228   -3.5096 C   0  0  0  1  0  0  0  0  0  0  0  0
   -0.2760    1.0561   -4.4735 C   0  0  0  1  0  0  0  0  0  0  0  0
   -1.4040    2.6815   -1.2295 C   0  0  0  1  0  0  0  0  0  0  0  0
    2.6366    1.2442   -2.8523 H   0  0  0  1  0  0  0  0  0  0  0  0
    1.2039    2.2306   -1.1668 H   0  0  0  1  0  0  0  0  0  0  0  0
   -2.1148    1.7249   -3.6885 H   0  0  0  1  0  0  0  0  0  0  0  0
   -0.6799    0.7367   -5.3770 H   0  0  0  1  0  0  0  0  0  0  0  0
   -0.8843    3.5417   -0.8624 H   0  0  0  1  0  0  0  0  0  0  0  0
   -2.3306    2.9850   -1.6701 H   0  0  0  1  0  0  0  0  0  0  0  0
  1  4  1  0  0  0  0
  2  4  1  0  0  0  0
  2  5  2  0  0  0  0
  2  6  1  0  0  0  0
  3  4  1  0  0  0  0
  3  7  1  0  0  0  0
  3  8  1  0  0  0  0
  4 29  1  0  0  0  0
  6  9  1  0  0  0  0
  6 12  1  0  0  0  0
  8 10  1  0  0  0  0
  8 11  2  0  0  0  0
  9 13  1  0  0  0  0
  9 14  1  0  0  0  0
  9 15  1  0  0  0  0
 10 16  1  0  0  0  0
 10 17  1  0  0  0  0
 10 18  1  0  0  0  0
 19 20  1  0  0  0  0
 20 21  1  0  0  0  0
 20 22  1  0  0  0  0
 20 23  1  0  0  0  0
 23 24  4  0  0  0  0
 23 28  4  0  0  0  0
 24 25  4  0  0  0  0
 24 30  1  0  0  0  0
 25 26  4  0  0  0  0
 25 31  1  0  0  0  0
 26 27  4  0  0  0  0
 26 29  1  0  0  0  0
 27 28  4  0  0  0  0
 27 32  1  0  0  0  0
 28 33  1  0  0  0  0
 29 34  1  0  0  0  0
 29 35  1  0  0  0  0
M  END
> <BCLConfClusterSize>
1

> <ConfClashScore>
0 

> <ConfOneFourInteractionScore>
-0.958855 

> <ConfScore>
0.193366 

> <ConfScorePBest>
0.00726422 

> <ConfTolerance>
0.385604 

> <RosettaParamsInstructions>
M  ROOT 3
M  POLY_N_BB 3
M  POLY_CA_BB 4
M  POLY_C_BB 2
M  POLY_O_BB 5
M  POLY_IGNORE 9 10 11 12 13 14 15 16 17 18 
M  POLY_UPPER 6
M  POLY_LOWER 8
M  POLY_CHG 0
M  POLY_PROPERTIES ALPHA_AA D_AA PROTEIN AROMATIC POLYMER 
M  END

$$$$



 35 35  0  0  0  0  0  0  0  0999 V2000
   -2.4577    4.4676   -0.7991 H   0  0  0  1  0  0  0  0  0  0  0  0
   -2.3286    4.3040   -2.9070 C   0  0  0  1  0  0  0  0  0  0  0  0
   -0.5050    4.9266   -1.2760 N   0  0  0  1  0  0  0  0  0  0  0  0
   -1.7183    4.1570   -1.5074 C   0  0  0  1  0  0  0  0  0  0  0  0
   -3.1546    3.4941   -3.2988 O   0  0  0  1  0  0  0  0  0  0  0  0
   -1.9756    5.3870   -3.6076 N   0  0  0  1  0  0  0  0  0  0  0  0
    0.3440    4.4496   -1.1664 H   0  0  0  1  0  0  0  0  0  0  0  0
   -0.5084    6.2740   -1.2072 C   0  0  0  1  0  0  0  0  0  0  0  0
   -2.4375    5.6171   -4.9683 C   0  0  0  1  0  0  0  0  0  0  0  0
    0.7947    6.9729   -0.8917 C   0  0  0  1  0  0  0  0  0  0  0  0
   -1.5400    6.9174   -1.3952 O   0  0  0  1  0  0  0  0  0  0  0  0
   -1.3854    6.0486   -3.1902 H   0  0  0  1  0  0  0  0  0  0  0  0
   -3.2538    6.3088   -4.9562 H   0  0  0  1  0  0  0  0  0  0  0  0
   -2.7611    4.6913   -5.3963 H   0  0  0  1  0  0  0  0  0  0  0  0
   -1.6372    6.0204   -5.5530 H   0  0  0  1  0  0  0  0  0  0  0  0
    1.5846    6.5302   -1.4618 H   0  0  0  1  0  0  0  0  0  0  0  0
    1.0091    6.8730    0.1518 H   0  0  0  1  0  0  0  0  0  0  0  0
    0.7126    8.0100   -1.1418 H   0  0  0  1  0  0  0  0  0  0  0  0
    2.5007    1.0400   -6.1226 F   0  0  0  1  0  0  0  0  0  0  0  0
    1.9243    0.1998   -5.2613 C   0  0  0  1  0  0  0  0  0  0  0  0
    1.2362   -0.6745   -5.9971 F   0  0  0  1  0  0  0  0  0  0  0  0
    2.9145   -0.4887   -4.6919 F   0  0  0  1  0  0  0  0  0  0  0  0
    1.0563    0.9142   -4.2467 C   0  0  0  1  0  0  0  0  0  0  0  0
    1.6100    1.3283   -3.0452 C   0  0  0  1  0  0  0  0  0  0  0  0
    0.8075    1.8971   -2.0743 C   0  0  0  1  0  0  0  0  0  0  0  0
   -0.5499    2.0584   -2.3039 C   0  0  0  1  0  0  0  0  0  0  0  0
   -1.1018    1.6455   -3.5018 C   0  0  0  1  0  0  0  0  0  0  0  0
   -0.2972    1.0750   -4.4758 C   0  0  0  1  0  0  0  0  0  0  0  0
   -1.4264    2.6853   -1.2454 C   0  0  0  1  0  0  0  0  0  0  0  0
    2.6292    1.2109   -2.8745 H   0  0  0  1  0  0  0  0  0  0  0  0
    1.2222    2.2041   -1.1713 H   0  0  0  1  0  0  0  0  0  0  0  0
   -2.1210    1.7628   -3.6725 H   0  0  0  1  0  0  0  0  0  0  0  0
   -0.7119    0.7680   -5.3787 H   0  0  0  1  0  0  0  0  0  0  0  0
   -2.3548    2.1543   -1.2138 H   0  0  0  1  0  0  0  0  0  0  0  0
   -0.9331    2.5989   -0.2998 H   0  0  0  1  0  0  0  0  0  0  0  0
  1  4  1  0  0  0  0
  2  4  1  0  0  0  0
  2  5  2  0  0  0  0
  2  6  1  0  0  0  0
  3  4  1  0  0  0  0
  3  7  1  0  0  0  0
  3  8  1  0  0  0  0
  4 29  1  0  0  0  0
  6  9  1  0  0  0  0
  6 12  1  0  0  0  0
  8 10  1  0  0  0  0
  8 11  2  0  0  0  0
  9 13  1  0  0  0  0
  9 14  1  0  0  0  0
  9 15  1  0  0  0  0
 10 16  1  0  0  0  0
 10 17  1  0  0  0  0
 10 18  1  0  0  0  0
 19 20  1  0  0  0  0
 20 21  1  0  0  0  0
 20 22  1  0  0  0  0
 20 23  1  0  0  0  0
 23 24  4  0  0  0  0
 23 28  4  0  0  0  0
 24 25  4  0  0  0  0
 24 30  1  0  0  0  0
 25 26  4  0  0  0  0
 25 31  1  0  0  0  0
 26 27  4  0  0  0  0
 26 29  1  0  0  0  0
 27 28  4  0  0  0  0
 27 32  1  0  0  0  0
 28 33  1  0  0  0  0
 29 34  1  0  0  0  0
 29 35  1  0  0  0  0
M  END
> <BCLConfClusterSize>
1

> <ConfClashScore>
0.00257182 

> <ConfOneFourInteractionScore>
-0.957074 

> <ConfScore>
0.19491 

> <ConfScorePBest>
0.00723574 

> <ConfTolerance>
0.258132 

> <RosettaParamsInstructions>
M  ROOT 3
M  POLY_N_BB 3
M  POLY_CA_BB 4
M  POLY_C_BB 2
M  POLY_O_BB 5
M  POLY_IGNORE 9 10 11 12 13 14 15 16 17 18 
M  POLY_UPPER 6
M  POLY_LOWER 8
M  POLY_CHG 0
M  POLY_PROPERTIES ALPHA_AA D_AA PROTEIN AROMATIC POLYMER 
M  END

$$$$



 35 35  0  0  0  0  0  0  0  0999 V2000
   -0.1926    4.3572   -0.9791 H   0  0  0  1  0  0  0  0  0  0  0  0
   -1.8909    4.6807    0.2254 C   0  0  0  1  0  0  0  0  0  0  0  0
   -1.7452    4.9054   -2.2339 N   0  0  0  1  0  0  0  0  0  0  0  0
   -1.2463    4.1877   -1.0570 C   0  0  0  1  0  0  0  0  0  0  0  0
   -2.4574    5.7626    0.2448 O   0  0  0  1  0  0  0  0  0  0  0  0
   -1.8750    3.8438    1.2683 N   0  0  0  1  0  0  0  0  0  0  0  0
   -1.1430    5.0931   -2.9839 H   0  0  0  1  0  0  0  0  0  0  0  0
   -3.0675    5.3193   -2.2882 C   0  0  0  1  0  0  0  0  0  0  0  0
   -2.4171    4.2650    2.5515 C   0  0  0  1  0  0  0  0  0  0  0  0
   -3.4989    6.2434   -3.3921 C   0  0  0  1  0  0  0  0  0  0  0  0
   -3.8385    4.9183   -1.4355 O   0  0  0  1  0  0  0  0  0  0  0  0
   -1.4975    2.9450    1.1682 H   0  0  0  1  0  0  0  0  0  0  0  0
   -3.3723    3.8074    2.7032 H   0  0  0  1  0  0  0  0  0  0  0  0
   -2.5263    5.3294    2.5602 H   0  0  0  1  0  0  0  0  0  0  0  0
   -1.7511    3.9679    3.3346 H   0  0  0  1  0  0  0  0  0  0  0  0
   -4.0243    5.6862   -4.1394 H   0  0  0  1  0  0  0  0  0  0  0  0
   -2.6371    6.7024   -3.8299 H   0  0  0  1  0  0  0  0  0  0  0  0
   -4.1423    6.9994   -2.9930 H   0  0  0  1  0  0  0  0  0  0  0  0
    2.0957   -1.0968   -4.9825 F   0  0  0  1  0  0  0  0  0  0  0  0
    1.9154    0.1941   -5.2667 C   0  0  0  1  0  0  0  0  0  0  0  0
    3.1339    0.7197   -5.4023 F   0  0  0  1  0  0  0  0  0  0  0  0
    1.3540    0.2354   -6.4758 F   0  0  0  1  0  0  0  0  0  0  0  0
    1.0876    0.9098   -4.2173 C   0  0  0  1  0  0  0  0  0  0  0  0
    1.5102    1.0057   -2.9005 C   0  0  0  1  0  0  0  0  0  0  0  0
    0.6867    1.5804   -1.9508 C   0  0  0  1  0  0  0  0  0  0  0  0
   -0.5594    2.0656   -2.3159 C   0  0  0  1  0  0  0  0  0  0  0  0
   -0.9805    1.9699   -3.6287 C   0  0  0  1  0  0  0  0  0  0  0  0
   -0.1549    1.3936   -4.5814 C   0  0  0  1  0  0  0  0  0  0  0  0
   -1.4573    2.6990   -1.2795 C   0  0  0  1  0  0  0  0  0  0  0  0
    2.4467    0.6453   -2.6273 H   0  0  0  1  0  0  0  0  0  0  0  0
    1.0020    1.6488   -0.9621 H   0  0  0  1  0  0  0  0  0  0  0  0
   -1.9170    2.3303   -3.9019 H   0  0  0  1  0  0  0  0  0  0  0  0
   -0.4702    1.3252   -5.5701 H   0  0  0  1  0  0  0  0  0  0  0  0
   -2.4715    2.5518   -1.5872 H   0  0  0  1  0  0  0  0  0  0  0  0
   -1.2904    2.1992   -0.3483 H   0  0  0  1  0  0  0  0  0  0  0  0
  1  4  1  0  0  0  0
  2  4  1  0  0  0  0
  2  5  2  0  0  0  0
  2  6  1  0  0  0  0
  3  4  1  0  0  0  0
  3  7  1  0  0  0  0
  3  8  1  0  0  0  0
  4 29  1  0  0  0  0
  6  9  1  0  0  0  0
  6 12  1  0  0  0  0
  8 10  1  0  0  0  0
  8 11  2  0  0  0  0
  9 13  1  0  0  0  0
  9 14  1  0  0  0  0
  9 15  1  0  0  0  0
 10 16  1  0  0  0  0
 10 17  1  0  0  0  0
 10 18  1  0  0  0  0
 19 20  1  0  0  0  0
 20 21  1  0  0  0  0
 20 22  1  0  0  0  0
 20 23  1  0  0  0  0
 23 24  4  0  0  0  0
 23 28  4  0  0  0  0
 24 25  4  0  0  0  0
 24 30  1  0  0  0  0
 25 26  4  0  0  0  0
 25 31  1  0  0  0  0
 26 27  4  0  0  0  0
 26 29  1  0  0  0  0
 27 28  4  0  0  0  0
 27 32  1  0  0  0  0
 28 33  1  0  0  0  0
 29 34  1  0  0  0  0
 29 35  1  0  0  0  0
M  END
> <BCLConfClusterSize>
1

> <ConfClashScore>
0 

> <ConfOneFourInteractionScore>
-0.930059 

> <ConfScore>
0.196817 

> <ConfScorePBest>
0.00720726 

> <ConfTolerance>
0.317417 

> <RosettaParamsInstructions>
M  ROOT 3
M  POLY_N_BB 3
M  POLY_CA_BB 4
M  POLY_C_BB 2
M  POLY_O_BB 5
M  POLY_IGNORE 9 10 11 12 13 14 15 16 17 18 
M  POLY_UPPER 6
M  POLY_LOWER 8
M  POLY_CHG 0
M  POLY_PROPERTIES ALPHA_AA D_AA PROTEIN AROMATIC POLYMER 
M  END

$$$$



 35 35  0  0  0  0  0  0  0  0999 V2000
   -2.0407    4.5172   -0.4047 H   0  0  0  1  0  0  0  0  0  0  0  0
   -1.6056    4.9192   -2.4284 C   0  0  0  1  0  0  0  0  0  0  0  0
    0.0088    4.5370   -0.5949 N   0  0  0  1  0  0  0  0  0  0  0  0
   -1.3074    4.2001   -1.1165 C   0  0  0  1  0  0  0  0  0  0  0  0
   -2.7779    5.1014   -2.7787 O   0  0  0  1  0  0  0  0  0  0  0  0
   -0.5565    5.3996   -3.1044 N   0  0  0  1  0  0  0  0  0  0  0  0
    0.5855    3.8165   -0.2653 H   0  0  0  1  0  0  0  0  0  0  0  0
    0.4684    5.8231   -0.5488 C   0  0  0  1  0  0  0  0  0  0  0  0
   -0.7050    6.1257   -4.3568 C   0  0  0  1  0  0  0  0  0  0  0  0
    1.8123    5.9616    0.1398 C   0  0  0  1  0  0  0  0  0  0  0  0
   -0.1622    6.7531   -1.0239 O   0  0  0  1  0  0  0  0  0  0  0  0
    0.3436    5.2577   -2.7438 H   0  0  0  1  0  0  0  0  0  0  0  0
    0.0097    6.9210   -4.3954 H   0  0  0  1  0  0  0  0  0  0  0  0
   -1.6932    6.5312   -4.4186 H   0  0  0  1  0  0  0  0  0  0  0  0
   -0.5406    5.4587   -5.1771 H   0  0  0  1  0  0  0  0  0  0  0  0
    1.7248    5.6501    1.1597 H   0  0  0  1  0  0  0  0  0  0  0  0
    2.1268    6.9838    0.1050 H   0  0  0  1  0  0  0  0  0  0  0  0
    2.5334    5.3488   -0.3595 H   0  0  0  1  0  0  0  0  0  0  0  0
    1.2204   -0.2319   -6.3061 F   0  0  0  1  0  0  0  0  0  0  0  0
    1.9255    0.1942   -5.2567 C   0  0  0  1  0  0  0  0  0  0  0  0
    2.5278   -0.8829   -4.7502 F   0  0  0  1  0  0  0  0  0  0  0  0
    2.8945    0.9682   -5.7472 F   0  0  0  1  0  0  0  0  0  0  0  0
    1.0691    0.9138   -4.2359 C   0  0  0  1  0  0  0  0  0  0  0  0
    1.5147    1.0259   -2.9280 C   0  0  0  1  0  0  0  0  0  0  0  0
    0.7014    1.5976   -1.9677 C   0  0  0  1  0  0  0  0  0  0  0  0
   -0.5574    2.0636   -2.3134 C   0  0  0  1  0  0  0  0  0  0  0  0
   -1.0015    1.9517   -3.6174 C   0  0  0  1  0  0  0  0  0  0  0  0
   -0.1861    1.3784   -4.5807 C   0  0  0  1  0  0  0  0  0  0  0  0
   -1.4443    2.6937   -1.2656 C   0  0  0  1  0  0  0  0  0  0  0  0
    2.4607    0.6799   -2.6694 H   0  0  0  1  0  0  0  0  0  0  0  0
    1.0341    1.6781   -0.9857 H   0  0  0  1  0  0  0  0  0  0  0  0
   -1.9476    2.2977   -3.8760 H   0  0  0  1  0  0  0  0  0  0  0  0
   -0.5188    1.2979   -5.5628 H   0  0  0  1  0  0  0  0  0  0  0  0
   -2.4609    2.4783   -1.5207 H   0  0  0  1  0  0  0  0  0  0  0  0
   -1.2101    2.2461   -0.3224 H   0  0  0  1  0  0  0  0  0  0  0  0
  1  4  1  0  0  0  0
  2  4  1  0  0  0  0
  2  5  2  0  0  0  0
  2  6  1  0  0  0  0
  3  4  1  0  0  0  0
  3  7  1  0  0  0  0
  3  8  1  0  0  0  0
  4 29  1  0  0  0  0
  6  9  1  0  0  0  0
  6 12  1  0  0  0  0
  8 10  1  0  0  0  0
  8 11  2  0  0  0  0
  9 13  1  0  0  0  0
  9 14  1  0  0  0  0
  9 15  1  0  0  0  0
 10 16  1  0  0  0  0
 10 17  1  0  0  0  0
 10 18  1  0  0  0  0
 19 20  1  0  0  0  0
 20 21  1  0  0  0  0
 20 22  1  0  0  0  0
 20 23  1  0  0  0  0
 23 24  4  0  0  0  0
 23 28  4  0  0  0  0
 24 25  4  0  0  0  0
 24 30  1  0  0  0  0
 25 26  4  0  0  0  0
 25 31  1  0  0  0  0
 26 27  4  0  0  0  0
 26 29  1  0  0  0  0
 27 28  4  0  0  0  0
 27 32  1  0  0  0  0
 28 33  1  0  0  0  0
 29 34  1  0  0  0  0
 29 35  1  0  0  0  0
M  END
> <BCLConfClusterSize>
1

> <ConfClashScore>
0 

> <ConfOneFourInteractionScore>
-0.957074 

> <ConfScore>
0.199449 

> <ConfScorePBest>
0.00717878 

> <ConfTolerance>
0.254836 

> <RosettaParamsInstructions>
M  ROOT 3
M  POLY_N_BB 3
M  POLY_CA_BB 4
M  POLY_C_BB 2
M  POLY_O_BB 5
M  POLY_IGNORE 9 10 11 12 13 14 15 16 17 18 
M  POLY_UPPER 6
M  POLY_LOWER 8
M  POLY_CHG 0
M  POLY_PROPERTIES ALPHA_AA D_AA PROTEIN AROMATIC POLYMER 
M  END

$$$$



 35 35  0  0  0  0  0  0  0  0999 V2000
   -2.6719    2.1937    0.3834 H   0  0  0  1  0  0  0  0  0  0  0  0
   -1.2144    0.6767    0.2697 C   0  0  0  1  0  0  0  0  0  0  0  0
   -3.1531    0.9911   -1.2244 N   0  0  0  1  0  0  0  0  0  0  0  0
   -2.1609    1.6616   -0.3916 C   0  0  0  1  0  0  0  0  0  0  0  0
   -0.6128    0.9976    1.2831 O   0  0  0  1  0  0  0  0  0  0  0  0
   -1.1536   -0.5495   -0.2604 N   0  0  0  1  0  0  0  0  0  0  0  0
   -3.1893    0.0125   -1.1870 H   0  0  0  1  0  0  0  0  0  0  0  0
   -4.0235    1.6158   -2.0413 C   0  0  0  1  0  0  0  0  0  0  0  0
   -0.3556   -1.6133    0.3306 C   0  0  0  1  0  0  0  0  0  0  0  0
   -4.9071    0.6641   -2.8375 C   0  0  0  1  0  0  0  0  0  0  0  0
   -4.1208    2.8230   -2.1564 O   0  0  0  1  0  0  0  0  0  0  0  0
   -1.6643   -0.7383   -1.0753 H   0  0  0  1  0  0  0  0  0  0  0  0
    0.5758   -1.6925   -0.1902 H   0  0  0  1  0  0  0  0  0  0  0  0
   -0.8855   -2.5398    0.2561 H   0  0  0  1  0  0  0  0  0  0  0  0
   -0.1702   -1.3897    1.3604 H   0  0  0  1  0  0  0  0  0  0  0  0
   -4.4176    0.4036   -3.7526 H   0  0  0  1  0  0  0  0  0  0  0  0
   -5.8395    1.1416   -3.0553 H   0  0  0  1  0  0  0  0  0  0  0  0
   -5.0847   -0.2214   -2.2637 H   0  0  0  1  0  0  0  0  0  0  0  0
    3.1319    0.7554   -5.3969 F   0  0  0  1  0  0  0  0  0  0  0  0
    1.9299    0.1950   -5.2519 C   0  0  0  1  0  0  0  0  0  0  0  0
    1.3994    0.2181   -6.4756 F   0  0  0  1  0  0  0  0  0  0  0  0
    2.1193   -1.0777   -4.9711 F   0  0  0  1  0  0  0  0  0  0  0  0
    1.0580    0.9108   -4.2416 C   0  0  0  1  0  0  0  0  0  0  0  0
    1.6142    1.3530   -3.0513 C   0  0  0  1  0  0  0  0  0  0  0  0
    0.8100    1.9236   -2.0829 C   0  0  0  1  0  0  0  0  0  0  0  0
   -0.5518    2.0585   -2.3038 C   0  0  0  1  0  0  0  0  0  0  0  0
   -1.1062    1.6175   -3.4906 C   0  0  0  1  0  0  0  0  0  0  0  0
   -0.2998    1.0452   -4.4620 C   0  0  0  1  0  0  0  0  0  0  0  0
   -1.4303    2.6873   -1.2482 C   0  0  0  1  0  0  0  0  0  0  0  0
    2.6365    1.2554   -2.8871 H   0  0  0  1  0  0  0  0  0  0  0  0
    1.2265    2.2517   -1.1882 H   0  0  0  1  0  0  0  0  0  0  0  0
   -2.1285    1.7151   -3.6548 H   0  0  0  1  0  0  0  0  0  0  0  0
   -0.7164    0.7171   -5.3567 H   0  0  0  1  0  0  0  0  0  0  0  0
   -0.8180    3.2897   -0.6102 H   0  0  0  1  0  0  0  0  0  0  0  0
   -2.1567    3.3052   -1.7335 H   0  0  0  1  0  0  0  0  0  0  0  0
  1  4  1  0  0  0  0
  2  4  1  0  0  0  0
  2  5  2  0  0  0  0
  2  6  1  0  0  0  0
  3  4  1  0  0  0  0
  3  7  1  0  0  0  0
  3  8  1  0  0  0  0
  4 29  1  0  0  0  0
  6  9  1  0  0  0  0
  6 12  1  0  0  0  0
  8 10  1  0  0  0  0
  8 11  2  0  0  0  0
  9 13  1  0  0  0  0
  9 14  1  0  0  0  0
  9 15  1  0  0  0  0
 10 16  1  0  0  0  0
 10 17  1  0  0  0  0
 10 18  1  0  0  0  0
 19 20  1  0  0  0  0
 20 21  1  0  0  0  0
 20 22  1  0  0  0  0
 20 23  1  0  0  0  0
 23 24  4  0  0  0  0
 23 28  4  0  0  0  0
 24 25  4  0  0  0  0
 24 30  1  0  0  0  0
 25 26  4  0  0  0  0
 25 31  1  0  0  0  0
 26 27  4  0  0  0  0
 26 29  1  0  0  0  0
 27 28  4  0  0  0  0
 27 32  1  0  0  0  0
 28 33  1  0  0  0  0
 29 34  1  0  0  0  0
 29 35  1  0  0  0  0
M  END
> <BCLConfClusterSize>
1

> <ConfClashScore>
0 

> <ConfOneFourInteractionScore>
-0.959103 

> <ConfScore>
0.199871 

> <ConfScorePBest>
0.0071503 

> <ConfTolerance>
0.383657 

> <RosettaParamsInstructions>
M  ROOT 3
M  POLY_N_BB 3
M  POLY_CA_BB 4
M  POLY_C_BB 2
M  POLY_O_BB 5
M  POLY_IGNORE 9 10 11 12 13 14 15 16 17 18 
M  POLY_UPPER 6
M  POLY_LOWER 8
M  POLY_CHG 0
M  POLY_PROPERTIES ALPHA_AA D_AA PROTEIN AROMATIC POLYMER 
M  END

$$$$



 35 35  0  0  0  0  0  0  0  0999 V2000
   -2.4398    2.4179    0.5685 H   0  0  0  1  0  0  0  0  0  0  0  0
   -0.7191    1.2023    0.5935 C   0  0  0  1  0  0  0  0  0  0  0  0
   -2.8555    0.8267   -0.6737 N   0  0  0  1  0  0  0  0  0  0  0  0
   -1.9173    1.7961   -0.1280 C   0  0  0  1  0  0  0  0  0  0  0  0
    0.2702    1.8770    0.8336 O   0  0  0  1  0  0  0  0  0  0  0  0
   -0.8492   -0.0580    1.0215 N   0  0  0  1  0  0  0  0  0  0  0  0
   -2.9117    0.7185   -1.6461 H   0  0  0  1  0  0  0  0  0  0  0  0
   -3.6506    0.0717    0.1125 C   0  0  0  1  0  0  0  0  0  0  0  0
    0.2708   -0.8159    1.5591 C   0  0  0  1  0  0  0  0  0  0  0  0
   -4.6234   -0.8775   -0.5596 C   0  0  0  1  0  0  0  0  0  0  0  0
   -3.5901    0.1493    1.3386 O   0  0  0  1  0  0  0  0  0  0  0  0
   -1.7293   -0.4861    0.9712 H   0  0  0  1  0  0  0  0  0  0  0  0
    0.9131   -0.1614    2.1105 H   0  0  0  1  0  0  0  0  0  0  0  0
    0.8197   -1.2597    0.7549 H   0  0  0  1  0  0  0  0  0  0  0  0
   -0.0968   -1.5839    2.2072 H   0  0  0  1  0  0  0  0  0  0  0  0
   -5.3867   -1.1582    0.1358 H   0  0  0  1  0  0  0  0  0  0  0  0
   -4.1001   -1.7517   -0.8865 H   0  0  0  1  0  0  0  0  0  0  0  0
   -5.0700   -0.3925   -1.4024 H   0  0  0  1  0  0  0  0  0  0  0  0
    2.3792    1.0180   -6.2114 F   0  0  0  1  0  0  0  0  0  0  0  0
    1.9242    0.1994   -5.2611 C   0  0  0  1  0  0  0  0  0  0  0  0
    1.2722   -0.7783   -5.8922 F   0  0  0  1  0  0  0  0  0  0  0  0
    2.9988   -0.3644   -4.7080 F   0  0  0  1  0  0  0  0  0  0  0  0
    1.0569    0.9143   -4.2462 C   0  0  0  1  0  0  0  0  0  0  0  0
    1.6071    1.3127   -3.0378 C   0  0  0  1  0  0  0  0  0  0  0  0
    0.8041    1.8816   -2.0673 C   0  0  0  1  0  0  0  0  0  0  0  0
   -0.5501    2.0586   -2.3042 C   0  0  0  1  0  0  0  0  0  0  0  0
   -1.0985    1.6613   -3.5090 C   0  0  0  1  0  0  0  0  0  0  0  0
   -0.2934    1.0907   -4.4826 C   0  0  0  1  0  0  0  0  0  0  0  0
   -1.4270    2.6856   -1.2462 C   0  0  0  1  0  0  0  0  0  0  0  0
    2.6238    1.1836   -2.8616 H   0  0  0  1  0  0  0  0  0  0  0  0
    1.2160    2.1769   -1.1592 H   0  0  0  1  0  0  0  0  0  0  0  0
   -2.1153    1.7905   -3.6853 H   0  0  0  1  0  0  0  0  0  0  0  0
   -0.7053    0.7955   -5.3907 H   0  0  0  1  0  0  0  0  0  0  0  0
   -0.8702    3.4831   -0.8002 H   0  0  0  1  0  0  0  0  0  0  0  0
   -2.2888    3.0841   -1.7396 H   0  0  0  1  0  0  0  0  0  0  0  0
  1  4  1  0  0  0  0
  2  4  1  0  0  0  0
  2  5  2  0  0  0  0
  2  6  1  0  0  0  0
  3  4  1  0  0  0  0
  3  7  1  0  0  0  0
  3  8  1  0  0  0  0
  4 29  1  0  0  0  0
  6  9  1  0  0  0  0
  6 12  1  0  0  0  0
  8 10  1  0  0  0  0
  8 11  2  0  0  0  0
  9 13  1  0  0  0  0
  9 14  1  0  0  0  0
  9 15  1  0  0  0  0
 10 16  1  0  0  0  0
 10 17  1  0  0  0  0
 10 18  1  0  0  0  0
 19 20  1  0  0  0  0
 20 21  1  0  0  0  0
 20 22  1  0  0  0  0
 20 23  1  0  0  0  0
 23 24  4  0  0  0  0
 23 28  4  0  0  0  0
 24 25  4  0  0  0  0
 24 30  1  0  0  0  0
 25 26  4  0  0  0  0
 25 31  1  0  0  0  0
 26 27  4  0  0  0  0
 26 29  1  0  0  0  0
 27 28  4  0  0  0  0
 27 32  1  0  0  0  0
 28 33  1  0  0  0  0
 29 34  1  0  0  0  0
 29 35  1  0  0  0  0
M  END
> <BCLConfClusterSize>
1

> <ConfClashScore>
0.00265282 

> <ConfOneFourInteractionScore>
-0.957074 

> <ConfScore>
0.200616 

> <ConfScorePBest>
0.00712182 

> <ConfTolerance>
0.266328 

> <RosettaParamsInstructions>
M  ROOT 3
M  POLY_N_BB 3
M  POLY_CA_BB 4
M  POLY_C_BB 2
M  POLY_O_BB 5
M  POLY_IGNORE 9 10 11 12 13 14 15 16 17 18 
M  POLY_UPPER 6
M  POLY_LOWER 8
M  POLY_CHG 0
M  POLY_PROPERTIES ALPHA_AA D_AA PROTEIN AROMATIC POLYMER 
M  END

$$$$



 35 35  0  0  0  0  0  0  0  0999 V2000
   -1.8743    4.5106   -2.2809 H   0  0  0  1  0  0  0  0  0  0  0  0
   -0.0535    4.7938   -1.2044 C   0  0  0  1  0  0  0  0  0  0  0  0
   -2.2982    4.7490   -0.2495 N   0  0  0  1  0  0  0  0  0  0  0  0
   -1.4670    4.2129   -1.3374 C   0  0  0  1  0  0  0  0  0  0  0  0
    0.4362    4.9652   -0.0891 O   0  0  0  1  0  0  0  0  0  0  0  0
    0.6187    5.0094   -2.3402 N   0  0  0  1  0  0  0  0  0  0  0  0
   -2.8547    4.1311    0.2690 H   0  0  0  1  0  0  0  0  0  0  0  0
   -2.3212    6.0493    0.0567 C   0  0  0  1  0  0  0  0  0  0  0  0
    1.9883    5.5014   -2.3515 C   0  0  0  1  0  0  0  0  0  0  0  0
   -3.2462    6.4424    1.1920 C   0  0  0  1  0  0  0  0  0  0  0  0
   -1.6435    6.8872   -0.5325 O   0  0  0  1  0  0  0  0  0  0  0  0
    0.1736    4.8298   -3.1946 H   0  0  0  1  0  0  0  0  0  0  0  0
    2.4655    5.2507   -1.4272 H   0  0  0  1  0  0  0  0  0  0  0  0
    1.9841    6.5644   -2.4737 H   0  0  0  1  0  0  0  0  0  0  0  0
    2.5222    5.0508   -3.1619 H   0  0  0  1  0  0  0  0  0  0  0  0
   -4.2564    6.2107    0.9262 H   0  0  0  1  0  0  0  0  0  0  0  0
   -3.1581    7.4928    1.3761 H   0  0  0  1  0  0  0  0  0  0  0  0
   -2.9769    5.9012    2.0749 H   0  0  0  1  0  0  0  0  0  0  0  0
    1.4323    0.3566   -6.5027 F   0  0  0  1  0  0  0  0  0  0  0  0
    1.9140    0.1958   -5.2689 C   0  0  0  1  0  0  0  0  0  0  0  0
    1.9725   -1.1203   -5.0602 F   0  0  0  1  0  0  0  0  0  0  0  0
    3.1761    0.6254   -5.3020 F   0  0  0  1  0  0  0  0  0  0  0  0
    1.0835    0.9135   -4.2231 C   0  0  0  1  0  0  0  0  0  0  0  0
    1.5626    1.1333   -2.9410 C   0  0  0  1  0  0  0  0  0  0  0  0
    0.7431    1.7043   -1.9856 C   0  0  0  1  0  0  0  0  0  0  0  0
   -0.5560    2.0621   -2.3108 C   0  0  0  1  0  0  0  0  0  0  0  0
   -1.0335    1.8429   -3.5891 C   0  0  0  1  0  0  0  0  0  0  0  0
   -0.2119    1.2702   -4.5475 C   0  0  0  1  0  0  0  0  0  0  0  0
   -1.4501    2.6915   -1.2688 C   0  0  0  1  0  0  0  0  0  0  0  0
    2.5386    0.8686   -2.6980 H   0  0  0  1  0  0  0  0  0  0  0  0
    1.1012    1.8656   -1.0226 H   0  0  0  1  0  0  0  0  0  0  0  0
   -2.0095    2.1076   -3.8321 H   0  0  0  1  0  0  0  0  0  0  0  0
   -0.5700    1.1090   -5.5105 H   0  0  0  1  0  0  0  0  0  0  0  0
   -2.4477    2.3329   -1.4145 H   0  0  0  1  0  0  0  0  0  0  0  0
   -1.1031    2.3980   -0.3001 H   0  0  0  1  0  0  0  0  0  0  0  0
  1  4  1  0  0  0  0
  2  4  1  0  0  0  0
  2  5  2  0  0  0  0
  2  6  1  0  0  0  0
  3  4  1  0  0  0  0
  3  7  1  0  0  0  0
  3  8  1  0  0  0  0
  4 29  1  0  0  0  0
  6  9  1  0  0  0  0
  6 12  1  0  0  0  0
  8 10  1  0  0  0  0
  8 11  2  0  0  0  0
  9 13  1  0  0  0  0
  9 14  1  0  0  0  0
  9 15  1  0  0  0  0
 10 16  1  0  0  0  0
 10 17  1  0  0  0  0
 10 18  1  0  0  0  0
 19 20  1  0  0  0  0
 20 21  1  0  0  0  0
 20 22  1  0  0  0  0
 20 23  1  0  0  0  0
 23 24  4  0  0  0  0
 23 28  4  0  0  0  0
 24 25  4  0  0  0  0
 24 30  1  0  0  0  0
 25 26  4  0  0  0  0
 25 31  1  0  0  0  0
 26 27  4  0  0  0  0
 26 29  1  0  0  0  0
 27 28  4  0  0  0  0
 27 32  1  0  0  0  0
 28 33  1  0  0  0  0
 29 34  1  0  0  0  0
 29 35  1  0  0  0  0
M  END
> <BCLConfClusterSize>
1

> <ConfClashScore>
0 

> <ConfOneFourInteractionScore>
-0.985807 

> <ConfScore>
0.203001 

> <ConfScorePBest>
0.00709334 

> <ConfTolerance>
0.270639 

> <RosettaParamsInstructions>
M  ROOT 3
M  POLY_N_BB 3
M  POLY_CA_BB 4
M  POLY_C_BB 2
M  POLY_O_BB 5
M  POLY_IGNORE 9 10 11 12 13 14 15 16 17 18 
M  POLY_UPPER 6
M  POLY_LOWER 8
M  POLY_CHG 0
M  POLY_PROPERTIES ALPHA_AA D_AA PROTEIN AROMATIC POLYMER 
M  END

$$$$



 35 35  0  0  0  0  0  0  0  0999 V2000
   -2.8740    2.1921    0.2022 H   0  0  0  1  0  0  0  0  0  0  0  0
   -1.1813    1.0214    0.6310 C   0  0  0  1  0  0  0  0  0  0  0  0
   -2.7888    0.6361   -1.1583 N   0  0  0  1  0  0  0  0  0  0  0  0
   -2.1242    1.6762   -0.3604 C   0  0  0  1  0  0  0  0  0  0  0  0
   -1.0764    1.4733    1.7608 O   0  0  0  1  0  0  0  0  0  0  0  0
   -0.5636   -0.0943    0.2285 N   0  0  0  1  0  0  0  0  0  0  0  0
   -2.4220   -0.2712   -1.2094 H   0  0  0  1  0  0  0  0  0  0  0  0
   -3.9155    0.9652   -1.8169 C   0  0  0  1  0  0  0  0  0  0  0  0
    0.3766   -0.8652    1.0342 C   0  0  0  1  0  0  0  0  0  0  0  0
   -4.5775   -0.1576   -2.5916 C   0  0  0  1  0  0  0  0  0  0  0  0
   -4.3918    2.0972   -1.8029 O   0  0  0  1  0  0  0  0  0  0  0  0
   -0.7572   -0.4183   -0.6759 H   0  0  0  1  0  0  0  0  0  0  0  0
   -0.1626   -1.5499    1.6549 H   0  0  0  1  0  0  0  0  0  0  0  0
    0.9477   -0.2010    1.6486 H   0  0  0  1  0  0  0  0  0  0  0  0
    1.0345   -1.4104    0.3900 H   0  0  0  1  0  0  0  0  0  0  0  0
   -4.1184   -0.2466   -3.5540 H   0  0  0  1  0  0  0  0  0  0  0  0
   -5.6186    0.0580   -2.7119 H   0  0  0  1  0  0  0  0  0  0  0  0
   -4.4627   -1.0765   -2.0555 H   0  0  0  1  0  0  0  0  0  0  0  0
    1.2075   -0.1734   -6.3317 F   0  0  0  1  0  0  0  0  0  0  0  0
    1.9162    0.1983   -5.2643 C   0  0  0  1  0  0  0  0  0  0  0  0
    2.4752   -0.9270   -4.8164 F   0  0  0  1  0  0  0  0  0  0  0  0
    2.9065    0.9321   -5.7443 F   0  0  0  1  0  0  0  0  0  0  0  0
    1.0868    0.9138   -4.2159 C   0  0  0  1  0  0  0  0  0  0  0  0
    1.5243    1.0411   -2.9067 C   0  0  0  1  0  0  0  0  0  0  0  0
    0.7011    1.6141   -1.9558 C   0  0  0  1  0  0  0  0  0  0  0  0
   -0.5599    2.0662   -2.3123 C   0  0  0  1  0  0  0  0  0  0  0  0
   -0.9959    1.9392   -3.6176 C   0  0  0  1  0  0  0  0  0  0  0  0
   -0.1704    1.3646   -4.5715 C   0  0  0  1  0  0  0  0  0  0  0  0
   -1.4577    2.6977   -1.2748 C   0  0  0  1  0  0  0  0  0  0  0  0
    2.4719    0.7056   -2.6401 H   0  0  0  1  0  0  0  0  0  0  0  0
    1.0277    1.7060   -0.9727 H   0  0  0  1  0  0  0  0  0  0  0  0
   -1.9435    2.2748   -3.8842 H   0  0  0  1  0  0  0  0  0  0  0  0
   -0.4970    1.2727   -5.5546 H   0  0  0  1  0  0  0  0  0  0  0  0
   -0.8705    3.3605   -0.6741 H   0  0  0  1  0  0  0  0  0  0  0  0
   -2.2211    3.2536   -1.7779 H   0  0  0  1  0  0  0  0  0  0  0  0
  1  4  1  0  0  0  0
  2  4  1  0  0  0  0
  2  5  2  0  0  0  0
  2  6  1  0  0  0  0
  3  4  1  0  0  0  0
  3  7  1  0  0  0  0
  3  8  1  0  0  0  0
  4 29  1  0  0  0  0
  6  9  1  0  0  0  0
  6 12  1  0  0  0  0
  8 10  1  0  0  0  0
  8 11  2  0  0  0  0
  9 13  1  0  0  0  0
  9 14  1  0  0  0  0
  9 15  1  0  0  0  0
 10 16  1  0  0  0  0
 10 17  1  0  0  0  0
 10 18  1  0  0  0  0
 19 20  1  0  0  0  0
 20 21  1  0  0  0  0
 20 22  1  0  0  0  0
 20 23  1  0  0  0  0
 23 24  4  0  0  0  0
 23 28  4  0  0  0  0
 24 25  4  0  0  0  0
 24 30  1  0  0  0  0
 25 26  4  0  0  0  0
 25 31  1  0  0  0  0
 26 27  4  0  0  0  0
 26 29  1  0  0  0  0
 27 28  4  0  0  0  0
 27 32  1  0  0  0  0
 28 33  1  0  0  0  0
 29 34  1  0  0  0  0
 29 35  1  0  0  0  0
M  END
> <BCLConfClusterSize>
1

> <ConfClashScore>
0 

> <ConfOneFourInteractionScore>
-0.933966 

> <ConfScore>
0.204175 

> <ConfScorePBest>
0.00706485 

> <ConfTolerance>
0.474666 

> <RosettaParamsInstructions>
M  ROOT 3
M  POLY_N_BB 3
M  POLY_CA_BB 4
M  POLY_C_BB 2
M  POLY_O_BB 5
M  POLY_IGNORE 9 10 11 12 13 14 15 16 17 18 
M  POLY_UPPER 6
M  POLY_LOWER 8
M  POLY_CHG 0
M  POLY_PROPERTIES ALPHA_AA D_AA PROTEIN AROMATIC POLYMER 
M  END

$$$$



 35 35  0  0  0  0  0  0  0  0999 V2000
   -0.2857    4.5088   -1.3925 H   0  0  0  1  0  0  0  0  0  0  0  0
   -1.9195    4.9903   -0.1705 C   0  0  0  1  0  0  0  0  0  0  0  0
   -1.9060    4.6949   -2.6475 N   0  0  0  1  0  0  0  0  0  0  0  0
   -1.3274    4.2656   -1.3692 C   0  0  0  1  0  0  0  0  0  0  0  0
   -2.6003    6.0004   -0.3400 O   0  0  0  1  0  0  0  0  0  0  0  0
   -1.7319    4.4265    1.0275 N   0  0  0  1  0  0  0  0  0  0  0  0
   -1.3050    4.8933   -3.3958 H   0  0  0  1  0  0  0  0  0  0  0  0
   -3.2236    4.8247   -2.8268 C   0  0  0  1  0  0  0  0  0  0  0  0
   -2.1725    4.9934    2.2934 C   0  0  0  1  0  0  0  0  0  0  0  0
   -3.6510    5.4555   -4.1378 C   0  0  0  1  0  0  0  0  0  0  0  0
   -4.0519    4.4616   -1.9932 O   0  0  0  1  0  0  0  0  0  0  0  0
   -1.2623    3.5668    1.0552 H   0  0  0  1  0  0  0  0  0  0  0  0
   -1.4662    4.7493    3.0592 H   0  0  0  1  0  0  0  0  0  0  0  0
   -3.1300    4.5908    2.5501 H   0  0  0  1  0  0  0  0  0  0  0  0
   -2.2452    6.0570    2.2014 H   0  0  0  1  0  0  0  0  0  0  0  0
   -3.7664    4.6934   -4.8800 H   0  0  0  1  0  0  0  0  0  0  0  0
   -2.9058    6.1539   -4.4569 H   0  0  0  1  0  0  0  0  0  0  0  0
   -4.5824    5.9643   -4.0015 H   0  0  0  1  0  0  0  0  0  0  0  0
    2.8771   -0.5459   -4.6908 F   0  0  0  1  0  0  0  0  0  0  0  0
    1.9315    0.2048   -5.2584 C   0  0  0  1  0  0  0  0  0  0  0  0
    2.5658    1.0541   -6.0681 F   0  0  0  1  0  0  0  0  0  0  0  0
    1.2307   -0.6108   -6.0473 F   0  0  0  1  0  0  0  0  0  0  0  0
    1.0638    0.9132   -4.2394 C   0  0  0  1  0  0  0  0  0  0  0  0
    1.5591    1.1481   -2.9661 C   0  0  0  1  0  0  0  0  0  0  0  0
    0.7447    1.7093   -2.0006 C   0  0  0  1  0  0  0  0  0  0  0  0
   -0.5656    2.0421   -2.3069 C   0  0  0  1  0  0  0  0  0  0  0  0
   -1.0592    1.8078   -3.5764 C   0  0  0  1  0  0  0  0  0  0  0  0
   -0.2427    1.2450   -4.5448 C   0  0  0  1  0  0  0  0  0  0  0  0
   -1.4145    2.7479   -1.2761 C   0  0  0  1  0  0  0  0  0  0  0  0
    2.5434    0.9022   -2.7374 H   0  0  0  1  0  0  0  0  0  0  0  0
    1.1151    1.8819   -1.0443 H   0  0  0  1  0  0  0  0  0  0  0  0
   -2.0435    2.0538   -3.8050 H   0  0  0  1  0  0  0  0  0  0  0  0
   -0.6131    1.0725   -5.5012 H   0  0  0  1  0  0  0  0  0  0  0  0
   -2.4343    2.4560   -1.4170 H   0  0  0  1  0  0  0  0  0  0  0  0
   -1.0883    2.4471   -0.3024 H   0  0  0  1  0  0  0  0  0  0  0  0
  1  4  1  0  0  0  0
  2  4  1  0  0  0  0
  2  5  2  0  0  0  0
  2  6  1  0  0  0  0
  3  4  1  0  0  0  0
  3  7  1  0  0  0  0
  3  8  1  0  0  0  0
  4 29  1  0  0  0  0
  6  9  1  0  0  0  0
  6 12  1  0  0  0  0
  8 10  1  0  0  0  0
  8 11  2  0  0  0  0
  9 13  1  0  0  0  0
  9 14  1  0  0  0  0
  9 15  1  0  0  0  0
 10 16  1  0  0  0  0
 10 17  1  0  0  0  0
 10 18  1  0  0  0  0
 19 20  1  0  0  0  0
 20 21  1  0  0  0  0
 20 22  1  0  0  0  0
 20 23  1  0  0  0  0
 23 24  4  0  0  0  0
 23 28  4  0  0  0  0
 24 25  4  0  0  0  0
 24 30  1  0  0  0  0
 25 26  4  0  0  0  0
 25 31  1  0  0  0  0
 26 27  4  0  0  0  0
 26 29  1  0  0  0  0
 27 28  4  0  0  0  0
 27 32  1  0  0  0  0
 28 33  1  0  0  0  0
 29 34  1  0  0  0  0
 29 35  1  0  0  0  0
M  END
> <BCLConfClusterSize>
1

> <ConfClashScore>
0 

> <ConfOneFourInteractionScore>
-0.957011 

> <ConfScore>
0.20568 

> <ConfScorePBest>
0.00703637 

> <ConfTolerance>
0.34319 

> <RosettaParamsInstructions>
M  ROOT 3
M  POLY_N_BB 3
M  POLY_CA_BB 4
M  POLY_C_BB 2
M  POLY_O_BB 5
M  POLY_IGNORE 9 10 11 12 13 14 15 16 17 18 
M  POLY_UPPER 6
M  POLY_LOWER 8
M  POLY_CHG 0
M  POLY_PROPERTIES ALPHA_AA D_AA PROTEIN AROMATIC POLYMER 
M  END

$$$$



 35 35  0  0  0  0  0  0  0  0999 V2000
   -2.0368    4.3228   -2.4229 H   0  0  0  1  0  0  0  0  0  0  0  0
   -0.4277    4.9904   -1.2468 C   0  0  0  1  0  0  0  0  0  0  0  0
   -2.7505    4.6052   -0.5139 N   0  0  0  1  0  0  0  0  0  0  0  0
   -1.6957    4.1750   -1.4196 C   0  0  0  1  0  0  0  0  0  0  0  0
   -0.3998    6.1550   -1.6091 O   0  0  0  1  0  0  0  0  0  0  0  0
    0.5894    4.3961   -0.6138 N   0  0  0  1  0  0  0  0  0  0  0  0
   -3.1419    3.9503    0.1012 H   0  0  0  1  0  0  0  0  0  0  0  0
   -3.2075    5.8724   -0.4916 C   0  0  0  1  0  0  0  0  0  0  0  0
    1.8418    5.0841   -0.3379 C   0  0  0  1  0  0  0  0  0  0  0  0
   -4.2971    6.1093    0.5359 C   0  0  0  1  0  0  0  0  0  0  0  0
   -2.8018    6.7760   -1.2213 O   0  0  0  1  0  0  0  0  0  0  0  0
    0.4879    3.4649   -0.3257 H   0  0  0  1  0  0  0  0  0  0  0  0
    2.5067    4.9619   -1.1673 H   0  0  0  1  0  0  0  0  0  0  0  0
    2.2894    4.6705    0.5416 H   0  0  0  1  0  0  0  0  0  0  0  0
    1.6502    6.1256   -0.1851 H   0  0  0  1  0  0  0  0  0  0  0  0
   -4.0702    5.5653    1.4290 H   0  0  0  1  0  0  0  0  0  0  0  0
   -5.2352    5.7758    0.1440 H   0  0  0  1  0  0  0  0  0  0  0  0
   -4.3547    7.1540    0.7599 H   0  0  0  1  0  0  0  0  0  0  0  0
    2.3428    1.0084   -6.2359 F   0  0  0  1  0  0  0  0  0  0  0  0
    1.9242    0.1993   -5.2611 C   0  0  0  1  0  0  0  0  0  0  0  0
    1.2856   -0.8069   -5.8603 F   0  0  0  1  0  0  0  0  0  0  0  0
    3.0215   -0.3267   -4.7154 F   0  0  0  1  0  0  0  0  0  0  0  0
    1.0571    0.9143   -4.2461 C   0  0  0  1  0  0  0  0  0  0  0  0
    1.6060    1.3076   -3.0354 C   0  0  0  1  0  0  0  0  0  0  0  0
    0.8029    1.8766   -2.0651 C   0  0  0  1  0  0  0  0  0  0  0  0
   -0.5502    2.0587   -2.3043 C   0  0  0  1  0  0  0  0  0  0  0  0
   -1.0973    1.6665   -3.5114 C   0  0  0  1  0  0  0  0  0  0  0  0
   -0.2921    1.0958   -4.4848 C   0  0  0  1  0  0  0  0  0  0  0  0
   -1.4273    2.6858   -1.2465 C   0  0  0  1  0  0  0  0  0  0  0  0
    2.6220    1.1747   -2.8574 H   0  0  0  1  0  0  0  0  0  0  0  0
    1.2139    2.1680   -1.1553 H   0  0  0  1  0  0  0  0  0  0  0  0
   -2.1133    1.7994   -3.6894 H   0  0  0  1  0  0  0  0  0  0  0  0
   -0.7031    0.8044   -5.3946 H   0  0  0  1  0  0  0  0  0  0  0  0
   -2.3688    2.1775   -1.2545 H   0  0  0  1  0  0  0  0  0  0  0  0
   -0.9529    2.5440   -0.2979 H   0  0  0  1  0  0  0  0  0  0  0  0
  1  4  1  0  0  0  0
  2  4  1  0  0  0  0
  2  5  2  0  0  0  0
  2  6  1  0  0  0  0
  3  4  1  0  0  0  0
  3  7  1  0  0  0  0
  3  8  1  0  0  0  0
  4 29  1  0  0  0  0
  6  9  1  0  0  0  0
  6 12  1  0  0  0  0
  8 10  1  0  0  0  0
  8 11  2  0  0  0  0
  9 13  1  0  0  0  0
  9 14  1  0  0  0  0
  9 15  1  0  0  0  0
 10 16  1  0  0  0  0
 10 17  1  0  0  0  0
 10 18  1  0  0  0  0
 19 20  1  0  0  0  0
 20 21  1  0  0  0  0
 20 22  1  0  0  0  0
 20 23  1  0  0  0  0
 23 24  4  0  0  0  0
 23 28  4  0  0  0  0
 24 25  4  0  0  0  0
 24 30  1  0  0  0  0
 25 26  4  0  0  0  0
 25 31  1  0  0  0  0
 26 27  4  0  0  0  0
 26 29  1  0  0  0  0
 27 28  4  0  0  0  0
 27 32  1  0  0  0  0
 28 33  1  0  0  0  0
 29 34  1  0  0  0  0
 29 35  1  0  0  0  0
M  END
> <BCLConfClusterSize>
1

> <ConfClashScore>
0.000190341 

> <ConfOneFourInteractionScore>
-0.952541 

> <ConfScore>
0.207854 

> <ConfScorePBest>
0.00700789 

> <ConfTolerance>
0.373205 

> <RosettaParamsInstructions>
M  ROOT 3
M  POLY_N_BB 3
M  POLY_CA_BB 4
M  POLY_C_BB 2
M  POLY_O_BB 5
M  POLY_IGNORE 9 10 11 12 13 14 15 16 17 18 
M  POLY_UPPER 6
M  POLY_LOWER 8
M  POLY_CHG 0
M  POLY_PROPERTIES ALPHA_AA D_AA PROTEIN AROMATIC POLYMER 
M  END

$$$$



 35 35  0  0  0  0  0  0  0  0999 V2000
   -2.3634    2.4022    0.5869 H   0  0  0  1  0  0  0  0  0  0  0  0
   -0.4287    1.7011    0.8629 C   0  0  0  1  0  0  0  0  0  0  0  0
   -2.2817    0.5728   -0.3284 N   0  0  0  1  0  0  0  0  0  0  0  0
   -1.6541    1.8611   -0.0040 C   0  0  0  1  0  0  0  0  0  0  0  0
   -0.2494    0.6544    1.4832 O   0  0  0  1  0  0  0  0  0  0  0  0
    0.4593    2.7008    0.8415 N   0  0  0  1  0  0  0  0  0  0  0  0
   -3.2590    0.5033   -0.3043 H   0  0  0  1  0  0  0  0  0  0  0  0
   -1.5664   -0.5073   -0.6551 C   0  0  0  1  0  0  0  0  0  0  0  0
    1.6691    2.6833    1.6502 C   0  0  0  1  0  0  0  0  0  0  0  0
   -2.3654   -1.7613   -0.9527 C   0  0  0  1  0  0  0  0  0  0  0  0
   -0.3379   -0.5038   -0.7158 O   0  0  0  1  0  0  0  0  0  0  0  0
    0.2895    3.4719    0.2611 H   0  0  0  1  0  0  0  0  0  0  0  0
    1.6854    1.7970    2.2494 H   0  0  0  1  0  0  0  0  0  0  0  0
    1.6852    3.5438    2.2861 H   0  0  0  1  0  0  0  0  0  0  0  0
    2.5262    2.6964    1.0098 H   0  0  0  1  0  0  0  0  0  0  0  0
   -1.7054   -2.5342   -1.2873 H   0  0  0  1  0  0  0  0  0  0  0  0
   -3.0854   -1.5523   -1.7161 H   0  0  0  1  0  0  0  0  0  0  0  0
   -2.8690   -2.0821   -0.0649 H   0  0  0  1  0  0  0  0  0  0  0  0
    1.4647    0.3094   -6.5083 F   0  0  0  1  0  0  0  0  0  0  0  0
    1.9179    0.1925   -5.2590 C   0  0  0  1  0  0  0  0  0  0  0  0
    2.0415   -1.1133   -5.0166 F   0  0  0  1  0  0  0  0  0  0  0  0
    3.1663    0.6602   -5.2924 F   0  0  0  1  0  0  0  0  0  0  0  0
    1.0605    0.9128   -4.2395 C   0  0  0  1  0  0  0  0  0  0  0  0
    1.5506    1.1201   -2.9594 C   0  0  0  1  0  0  0  0  0  0  0  0
    0.7431    1.6923   -1.9947 C   0  0  0  1  0  0  0  0  0  0  0  0
   -0.5550    2.0639   -2.3085 C   0  0  0  1  0  0  0  0  0  0  0  0
   -1.0435    1.8572   -3.5847 C   0  0  0  1  0  0  0  0  0  0  0  0
   -0.2337    1.2833   -4.5524 C   0  0  0  1  0  0  0  0  0  0  0  0
   -1.4361    2.6946   -1.2562 C   0  0  0  1  0  0  0  0  0  0  0  0
    2.5258    0.8450   -2.7250 H   0  0  0  1  0  0  0  0  0  0  0  0
    1.1093    1.8442   -1.0333 H   0  0  0  1  0  0  0  0  0  0  0  0
   -2.0187    2.1323   -3.8191 H   0  0  0  1  0  0  0  0  0  0  0  0
   -0.6001    1.1315   -5.5139 H   0  0  0  1  0  0  0  0  0  0  0  0
   -0.9879    3.6208   -0.9623 H   0  0  0  1  0  0  0  0  0  0  0  0
   -2.3924    2.8846   -1.6969 H   0  0  0  1  0  0  0  0  0  0  0  0
  1  4  1  0  0  0  0
  2  4  1  0  0  0  0
  2  5  2  0  0  0  0
  2  6  1  0  0  0  0
  3  4  1  0  0  0  0
  3  7  1  0  0  0  0
  3  8  1  0  0  0  0
  4 29  1  0  0  0  0
  6  9  1  0  0  0  0
  6 12  1  0  0  0  0
  8 10  1  0  0  0  0
  8 11  2  0  0  0  0
  9 13  1  0  0  0  0
  9 14  1  0  0  0  0
  9 15  1  0  0  0  0
 10 16  1  0  0  0  0
 10 17  1  0  0  0  0
 10 18  1  0  0  0  0
 19 20  1  0  0  0  0
 20 21  1  0  0  0  0
 20 22  1  0  0  0  0
 20 23  1  0  0  0  0
 23 24  4  0  0  0  0
 23 28  4  0  0  0  0
 24 25  4  0  0  0  0
 24 30  1  0  0  0  0
 25 26  4  0  0  0  0
 25 31  1  0  0  0  0
 26 27  4  0  0  0  0
 26 29  1  0  0  0  0
 27 28  4  0  0  0  0
 27 32  1  0  0  0  0
 28 33  1  0  0  0  0
 29 34  1  0  0  0  0
 29 35  1  0  0  0  0
M  END
> <BCLConfClusterSize>
1

> <ConfClashScore>
0 

> <ConfOneFourInteractionScore>
-0.924221 

> <ConfScore>
0.209167 

> <ConfScorePBest>
0.00697941 

> <ConfTolerance>
0.370898 

> <RosettaParamsInstructions>
M  ROOT 3
M  POLY_N_BB 3
M  POLY_CA_BB 4
M  POLY_C_BB 2
M  POLY_O_BB 5
M  POLY_IGNORE 9 10 11 12 13 14 15 16 17 18 
M  POLY_UPPER 6
M  POLY_LOWER 8
M  POLY_CHG 0
M  POLY_PROPERTIES ALPHA_AA D_AA PROTEIN AROMATIC POLYMER 
M  END

$$$$



 35 35  0  0  0  0  0  0  0  0999 V2000
   -1.7822    4.2898    0.0305 H   0  0  0  1  0  0  0  0  0  0  0  0
   -1.5828    5.0186   -1.9518 C   0  0  0  1  0  0  0  0  0  0  0  0
    0.2239    4.2195   -0.4682 N   0  0  0  1  0  0  0  0  0  0  0  0
   -1.1788    4.0667   -0.8245 C   0  0  0  1  0  0  0  0  0  0  0  0
   -2.7340    5.0246   -2.3599 O   0  0  0  1  0  0  0  0  0  0  0  0
   -0.6469    5.8751   -2.3835 N   0  0  0  1  0  0  0  0  0  0  0  0
    0.8885    3.6499   -0.9088 H   0  0  0  1  0  0  0  0  0  0  0  0
    0.6371    5.1095    0.4386 C   0  0  0  1  0  0  0  0  0  0  0  0
   -0.9098    6.8510   -3.4307 C   0  0  0  1  0  0  0  0  0  0  0  0
    2.1257    5.1131    0.7273 C   0  0  0  1  0  0  0  0  0  0  0  0
   -0.1265    5.8845    1.0129 O   0  0  0  1  0  0  0  0  0  0  0  0
    0.2456    5.8432   -1.9801 H   0  0  0  1  0  0  0  0  0  0  0  0
   -1.6843    6.4862   -4.0725 H   0  0  0  1  0  0  0  0  0  0  0  0
   -0.0190    7.0098   -4.0017 H   0  0  0  1  0  0  0  0  0  0  0  0
   -1.2195    7.7744   -2.9876 H   0  0  0  1  0  0  0  0  0  0  0  0
    2.6608    5.3825   -0.1593 H   0  0  0  1  0  0  0  0  0  0  0  0
    2.4296    4.1374    1.0444 H   0  0  0  1  0  0  0  0  0  0  0  0
    2.3370    5.8220    1.5004 H   0  0  0  1  0  0  0  0  0  0  0  0
    1.2037   -0.3290   -6.2501 F   0  0  0  1  0  0  0  0  0  0  0  0
    1.9244    0.1888   -5.2539 C   0  0  0  1  0  0  0  0  0  0  0  0
    2.6030   -0.8268   -4.7178 F   0  0  0  1  0  0  0  0  0  0  0  0
    2.8239    0.9787   -5.8188 F   0  0  0  1  0  0  0  0  0  0  0  0
    1.0700    0.9166   -4.2372 C   0  0  0  1  0  0  0  0  0  0  0  0
    1.5082    1.0204   -2.9262 C   0  0  0  1  0  0  0  0  0  0  0  0
    0.6957    1.5999   -1.9700 C   0  0  0  1  0  0  0  0  0  0  0  0
   -0.5551    2.0820   -2.3230 C   0  0  0  1  0  0  0  0  0  0  0  0
   -0.9918    1.9784   -3.6301 C   0  0  0  1  0  0  0  0  0  0  0  0
   -0.1771    1.3972   -4.5893 C   0  0  0  1  0  0  0  0  0  0  0  0
   -1.4474    2.6237   -1.2313 C   0  0  0  1  0  0  0  0  0  0  0  0
    2.4483    0.6623   -2.6621 H   0  0  0  1  0  0  0  0  0  0  0  0
    1.0227    1.6743   -0.9855 H   0  0  0  1  0  0  0  0  0  0  0  0
   -1.9318    2.3365   -3.8942 H   0  0  0  1  0  0  0  0  0  0  0  0
   -0.5042    1.3229   -5.5737 H   0  0  0  1  0  0  0  0  0  0  0  0
   -2.4601    2.5595   -1.5705 H   0  0  0  1  0  0  0  0  0  0  0  0
   -1.3209    2.0078   -0.3655 H   0  0  0  1  0  0  0  0  0  0  0  0
  1  4  1  0  0  0  0
  2  4  1  0  0  0  0
  2  5  2  0  0  0  0
  2  6  1  0  0  0  0
  3  4  1  0  0  0  0
  3  7  1  0  0  0  0
  3  8  1  0  0  0  0
  4 29  1  0  0  0  0
  6  9  1  0  0  0  0
  6 12  1  0  0  0  0
  8 10  1  0  0  0  0
  8 11  2  0  0  0  0
  9 13  1  0  0  0  0
  9 14  1  0  0  0  0
  9 15  1  0  0  0  0
 10 16  1  0  0  0  0
 10 17  1  0  0  0  0
 10 18  1  0  0  0  0
 19 20  1  0  0  0  0
 20 21  1  0  0  0  0
 20 22  1  0  0  0  0
 20 23  1  0  0  0  0
 23 24  4  0  0  0  0
 23 28  4  0  0  0  0
 24 25  4  0  0  0  0
 24 30  1  0  0  0  0
 25 26  4  0  0  0  0
 25 31  1  0  0  0  0
 26 27  4  0  0  0  0
 26 29  1  0  0  0  0
 27 28  4  0  0  0  0
 27 32  1  0  0  0  0
 28 33  1  0  0  0  0
 29 34  1  0  0  0  0
 29 35  1  0  0  0  0
M  END
> <BCLConfClusterSize>
1

> <ConfClashScore>
0 

> <ConfOneFourInteractionScore>
-0.931937 

> <ConfScore>
0.220624 

> <ConfScorePBest>
0.00695093 

> <ConfTolerance>
0.339958 

> <RosettaParamsInstructions>
M  ROOT 3
M  POLY_N_BB 3
M  POLY_CA_BB 4
M  POLY_C_BB 2
M  POLY_O_BB 5
M  POLY_IGNORE 9 10 11 12 13 14 15 16 17 18 
M  POLY_UPPER 6
M  POLY_LOWER 8
M  POLY_CHG 0
M  POLY_PROPERTIES ALPHA_AA D_AA PROTEIN AROMATIC POLYMER 
M  END

$$$$



 35 35  0  0  0  0  0  0  0  0999 V2000
   -2.0654    4.5729   -0.5550 H   0  0  0  1  0  0  0  0  0  0  0  0
   -2.5864    4.4815   -2.5947 C   0  0  0  1  0  0  0  0  0  0  0  0
   -0.3234    4.8055   -1.6493 N   0  0  0  1  0  0  0  0  0  0  0  0
   -1.6344    4.1798   -1.4520 C   0  0  0  1  0  0  0  0  0  0  0  0
   -3.7789    4.6233   -2.3720 O   0  0  0  1  0  0  0  0  0  0  0  0
   -2.0405    4.6630   -3.8019 N   0  0  0  1  0  0  0  0  0  0  0  0
    0.4744    4.2367   -1.6658 H   0  0  0  1  0  0  0  0  0  0  0  0
   -0.1779    6.1298   -1.8083 C   0  0  0  1  0  0  0  0  0  0  0  0
   -2.8643    5.1040   -4.9176 C   0  0  0  1  0  0  0  0  0  0  0  0
    1.2631    6.5931   -2.0293 C   0  0  0  1  0  0  0  0  0  0  0  0
   -1.1073    6.9310   -1.8612 O   0  0  0  1  0  0  0  0  0  0  0  0
   -1.0836    4.4987   -3.9356 H   0  0  0  1  0  0  0  0  0  0  0  0
   -3.5994    5.7977   -4.5665 H   0  0  0  1  0  0  0  0  0  0  0  0
   -3.3524    4.2588   -5.3561 H   0  0  0  1  0  0  0  0  0  0  0  0
   -2.2466    5.5797   -5.6505 H   0  0  0  1  0  0  0  0  0  0  0  0
    1.8706    6.2750   -1.2078 H   0  0  0  1  0  0  0  0  0  0  0  0
    1.2877    7.6606   -2.0983 H   0  0  0  1  0  0  0  0  0  0  0  0
    1.6392    6.1678   -2.9363 H   0  0  0  1  0  0  0  0  0  0  0  0
    2.5426    1.0419   -6.0874 F   0  0  0  1  0  0  0  0  0  0  0  0
    1.9246    0.1994   -5.2612 C   0  0  0  1  0  0  0  0  0  0  0  0
    1.2289   -0.6332   -6.0312 F   0  0  0  1  0  0  0  0  0  0  0  0
    2.8779   -0.5292   -4.6916 F   0  0  0  1  0  0  0  0  0  0  0  0
    1.0563    0.9138   -4.2468 C   0  0  0  1  0  0  0  0  0  0  0  0
    1.6110    1.3325   -3.0474 C   0  0  0  1  0  0  0  0  0  0  0  0
    0.8086    1.9014   -2.0764 C   0  0  0  1  0  0  0  0  0  0  0  0
   -0.5497    2.0582   -2.3040 C   0  0  0  1  0  0  0  0  0  0  0  0
   -1.1026    1.6408   -3.4999 C   0  0  0  1  0  0  0  0  0  0  0  0
   -0.2980    1.0702   -4.4739 C   0  0  0  1  0  0  0  0  0  0  0  0
   -1.4261    2.6852   -1.2455 C   0  0  0  1  0  0  0  0  0  0  0  0
    2.6308    1.2185   -2.8782 H   0  0  0  1  0  0  0  0  0  0  0  0
    1.2240    2.2118   -1.1749 H   0  0  0  1  0  0  0  0  0  0  0  0
   -2.1224    1.7548   -3.6691 H   0  0  0  1  0  0  0  0  0  0  0  0
   -0.7135    0.7598   -5.3754 H   0  0  0  1  0  0  0  0  0  0  0  0
   -2.3808    2.2025   -1.2641 H   0  0  0  1  0  0  0  0  0  0  0  0
   -0.9678    2.5340   -0.2905 H   0  0  0  1  0  0  0  0  0  0  0  0
  1  4  1  0  0  0  0
  2  4  1  0  0  0  0
  2  5  2  0  0  0  0
  2  6  1  0  0  0  0
  3  4  1  0  0  0  0
  3  7  1  0  0  0  0
  3  8  1  0  0  0  0
  4 29  1  0  0  0  0
  6  9  1  0  0  0  0
  6 12  1  0  0  0  0
  8 10  1  0  0  0  0
  8 11  2  0  0  0  0
  9 13  1  0  0  0  0
  9 14  1  0  0  0  0
  9 15  1  0  0  0  0
 10 16  1  0  0  0  0
 10 17  1  0  0  0  0
 10 18  1  0  0  0  0
 19 20  1  0  0  0  0
 20 21  1  0  0  0  0
 20 22  1  0  0  0  0
 20 23  1  0  0  0  0
 23 24  4  0  0  0  0
 23 28  4  0  0  0  0
 24 25  4  0  0  0  0
 24 30  1  0  0  0  0
 25 26  4  0  0  0  0
 25 31  1  0  0  0  0
 26 27  4  0  0  0  0
 26 29  1  0  0  0  0
 27 28  4  0  0  0  0
 27 32  1  0  0  0  0
 28 33  1  0  0  0  0
 29 34  1  0  0  0  0
 29 35  1  0  0  0  0
M  END
> <BCLConfClusterSize>
1

> <ConfClashScore>
0 

> <ConfOneFourInteractionScore>
-0.950605 

> <ConfScore>
0.223143 

> <ConfScorePBest>
0.00692245 

> <ConfTolerance>
0.310818 

> <RosettaParamsInstructions>
M  ROOT 3
M  POLY_N_BB 3
M  POLY_CA_BB 4
M  POLY_C_BB 2
M  POLY_O_BB 5
M  POLY_IGNORE 9 10 11 12 13 14 15 16 17 18 
M  POLY_UPPER 6
M  POLY_LOWER 8
M  POLY_CHG 0
M  POLY_PROPERTIES ALPHA_AA D_AA PROTEIN AROMATIC POLYMER 
M  END

$$$$



 35 35  0  0  0  0  0  0  0  0999 V2000
   -2.8744    1.1625   -1.0659 H   0  0  0  1  0  0  0  0  0  0  0  0
   -3.1443    2.3398    0.6328 C   0  0  0  1  0  0  0  0  0  0  0  0
   -1.3382    0.6903    0.2037 N   0  0  0  1  0  0  0  0  0  0  0  0
   -2.2313    1.6921   -0.3946 C   0  0  0  1  0  0  0  0  0  0  0  0
   -3.8928    3.2540    0.3236 O   0  0  0  1  0  0  0  0  0  0  0  0
   -3.1425    1.7960    1.8546 N   0  0  0  1  0  0  0  0  0  0  0  0
   -0.4164    0.9620    0.3954 H   0  0  0  1  0  0  0  0  0  0  0  0
   -1.6918   -0.5755    0.5089 C   0  0  0  1  0  0  0  0  0  0  0  0
   -4.1090    2.1736    2.8750 C   0  0  0  1  0  0  0  0  0  0  0  0
   -0.6656   -1.4570    1.1841 C   0  0  0  1  0  0  0  0  0  0  0  0
   -2.8135   -1.0016    0.2471 O   0  0  0  1  0  0  0  0  0  0  0  0
   -2.4668    1.1197    2.0703 H   0  0  0  1  0  0  0  0  0  0  0  0
   -4.3887    1.3087    3.4395 H   0  0  0  1  0  0  0  0  0  0  0  0
   -4.9767    2.5899    2.4074 H   0  0  0  1  0  0  0  0  0  0  0  0
   -3.6722    2.8997    3.5283 H   0  0  0  1  0  0  0  0  0  0  0  0
   -0.5912   -1.1911    2.2179 H   0  0  0  1  0  0  0  0  0  0  0  0
    0.2853   -1.3227    0.7122 H   0  0  0  1  0  0  0  0  0  0  0  0
   -0.9646   -2.4809    1.1000 H   0  0  0  1  0  0  0  0  0  0  0  0
    2.8234   -0.5946   -4.7015 F   0  0  0  1  0  0  0  0  0  0  0  0
    1.9392    0.2106   -5.2545 C   0  0  0  1  0  0  0  0  0  0  0  0
    2.5762    1.0194   -6.0603 F   0  0  0  1  0  0  0  0  0  0  0  0
    1.2315   -0.5931   -6.0518 F   0  0  0  1  0  0  0  0  0  0  0  0
    1.0714    0.9226   -4.2380 C   0  0  0  1  0  0  0  0  0  0  0  0
    1.5633    1.1542   -2.9629 C   0  0  0  1  0  0  0  0  0  0  0  0
    0.7482    1.7188   -2.0000 C   0  0  0  1  0  0  0  0  0  0  0  0
   -0.5593    2.0582   -2.3107 C   0  0  0  1  0  0  0  0  0  0  0  0
   -1.0496    1.8272   -3.5821 C   0  0  0  1  0  0  0  0  0  0  0  0
   -0.2323    1.2610   -4.5480 C   0  0  0  1  0  0  0  0  0  0  0  0
   -1.4488    2.6805   -1.2604 C   0  0  0  1  0  0  0  0  0  0  0  0
    2.5455    0.9033   -2.7308 H   0  0  0  1  0  0  0  0  0  0  0  0
    1.1160    1.8889   -1.0421 H   0  0  0  1  0  0  0  0  0  0  0  0
   -2.0318    2.0781   -3.8141 H   0  0  0  1  0  0  0  0  0  0  0  0
   -0.6001    1.0909   -5.5058 H   0  0  0  1  0  0  0  0  0  0  0  0
   -0.8331    3.2703   -0.6138 H   0  0  0  1  0  0  0  0  0  0  0  0
   -2.1536    3.3136   -1.7577 H   0  0  0  1  0  0  0  0  0  0  0  0
  1  4  1  0  0  0  0
  2  4  1  0  0  0  0
  2  5  2  0  0  0  0
  2  6  1  0  0  0  0
  3  4  1  0  0  0  0
  3  7  1  0  0  0  0
  3  8  1  0  0  0  0
  4 29  1  0  0  0  0
  6  9  1  0  0  0  0
  6 12  1  0  0  0  0
  8 10  1  0  0  0  0
  8 11  2  0  0  0  0
  9 13  1  0  0  0  0
  9 14  1  0  0  0  0
  9 15  1  0  0  0  0
 10 16  1  0  0  0  0
 10 17  1  0  0  0  0
 10 18  1  0  0  0  0
 19 20  1  0  0  0  0
 20 21  1  0  0  0  0
 20 22  1  0  0  0  0
 20 23  1  0  0  0  0
 23 24  4  0  0  0  0
 23 28  4  0  0  0  0
 24 25  4  0  0  0  0
 24 30  1  0  0  0  0
 25 26  4  0  0  0  0
 25 31  1  0  0  0  0
 26 27  4  0  0  0  0
 26 29  1  0  0  0  0
 27 28  4  0  0  0  0
 27 32  1  0  0  0  0
 28 33  1  0  0  0  0
 29 34  1  0  0  0  0
 29 35  1  0  0  0  0
M  END
> <BCLConfClusterSize>
1

> <ConfClashScore>
0 

> <ConfOneFourInteractionScore>
-0.94165 

> <ConfScore>
0.223155 

> <ConfScorePBest>
0.00689397 

> <ConfTolerance>
0.305173 

> <RosettaParamsInstructions>
M  ROOT 3
M  POLY_N_BB 3
M  POLY_CA_BB 4
M  POLY_C_BB 2
M  POLY_O_BB 5
M  POLY_IGNORE 9 10 11 12 13 14 15 16 17 18 
M  POLY_UPPER 6
M  POLY_LOWER 8
M  POLY_CHG 0
M  POLY_PROPERTIES ALPHA_AA D_AA PROTEIN AROMATIC POLYMER 
M  END

$$$$



 35 35  0  0  0  0  0  0  0  0999 V2000
   -2.4825    3.9559   -2.6217 H   0  0  0  1  0  0  0  0  0  0  0  0
   -0.7588    5.0151   -2.0272 C   0  0  0  1  0  0  0  0  0  0  0  0
   -2.8058    4.6280   -0.6902 N   0  0  0  1  0  0  0  0  0  0  0  0
   -1.9182    4.0819   -1.7213 C   0  0  0  1  0  0  0  0  0  0  0  0
   -0.9444    6.0957   -2.5652 O   0  0  0  1  0  0  0  0  0  0  0  0
    0.4459    4.6254   -1.5968 N   0  0  0  1  0  0  0  0  0  0  0  0
   -3.5687    4.0691   -0.4334 H   0  0  0  1  0  0  0  0  0  0  0  0
   -2.6900    5.8297   -0.0456 C   0  0  0  1  0  0  0  0  0  0  0  0
    1.6323    5.3869   -1.9578 C   0  0  0  1  0  0  0  0  0  0  0  0
   -3.7815    6.1483    0.9509 C   0  0  0  1  0  0  0  0  0  0  0  0
   -1.7223    6.6489   -0.2601 O   0  0  0  1  0  0  0  0  0  0  0  0
    0.5299    3.8253   -1.0372 H   0  0  0  1  0  0  0  0  0  0  0  0
    2.3415    5.3438   -1.1578 H   0  0  0  1  0  0  0  0  0  0  0  0
    1.3605    6.4058   -2.1387 H   0  0  0  1  0  0  0  0  0  0  0  0
    2.0673    4.9708   -2.8425 H   0  0  0  1  0  0  0  0  0  0  0  0
   -3.5880    7.0998    1.4005 H   0  0  0  1  0  0  0  0  0  0  0  0
   -3.8032    5.3937    1.7091 H   0  0  0  1  0  0  0  0  0  0  0  0
   -4.7257    6.1770    0.4483 H   0  0  0  1  0  0  0  0  0  0  0  0
    1.4293    0.3523   -6.5020 F   0  0  0  1  0  0  0  0  0  0  0  0
    1.9140    0.1958   -5.2689 C   0  0  0  1  0  0  0  0  0  0  0  0
    1.9767   -1.1197   -5.0572 F   0  0  0  1  0  0  0  0  0  0  0  0
    3.1748    0.6289   -5.3056 F   0  0  0  1  0  0  0  0  0  0  0  0
    1.0835    0.9135   -4.2230 C   0  0  0  1  0  0  0  0  0  0  0  0
    1.5623    1.1324   -2.9407 C   0  0  0  1  0  0  0  0  0  0  0  0
    0.7428    1.7035   -1.9853 C   0  0  0  1  0  0  0  0  0  0  0  0
   -0.5560    2.0621   -2.3109 C   0  0  0  1  0  0  0  0  0  0  0  0
   -1.0332    1.8438   -3.5894 C   0  0  0  1  0  0  0  0  0  0  0  0
   -0.2115    1.2711   -4.5477 C   0  0  0  1  0  0  0  0  0  0  0  0
   -1.4502    2.6915   -1.2689 C   0  0  0  1  0  0  0  0  0  0  0  0
    2.5380    0.8671   -2.6975 H   0  0  0  1  0  0  0  0  0  0  0  0
    1.1006    1.8641   -1.0221 H   0  0  0  1  0  0  0  0  0  0  0  0
   -2.0089    2.1091   -3.8326 H   0  0  0  1  0  0  0  0  0  0  0  0
   -0.5694    1.1105   -5.5109 H   0  0  0  1  0  0  0  0  0  0  0  0
   -2.3049    2.0662   -1.1160 H   0  0  0  1  0  0  0  0  0  0  0  0
   -0.9076    2.7854   -0.3514 H   0  0  0  1  0  0  0  0  0  0  0  0
  1  4  1  0  0  0  0
  2  4  1  0  0  0  0
  2  5  2  0  0  0  0
  2  6  1  0  0  0  0
  3  4  1  0  0  0  0
  3  7  1  0  0  0  0
  3  8  1  0  0  0  0
  4 29  1  0  0  0  0
  6  9  1  0  0  0  0
  6 12  1  0  0  0  0
  8 10  1  0  0  0  0
  8 11  2  0  0  0  0
  9 13  1  0  0  0  0
  9 14  1  0  0  0  0
  9 15  1  0  0  0  0
 10 16  1  0  0  0  0
 10 17  1  0  0  0  0
 10 18  1  0  0  0  0
 19 20  1  0  0  0  0
 20 21  1  0  0  0  0
 20 22  1  0  0  0  0
 20 23  1  0  0  0  0
 23 24  4  0  0  0  0
 23 28  4  0  0  0  0
 24 25  4  0  0  0  0
 24 30  1  0  0  0  0
 25 26  4  0  0  0  0
 25 31  1  0  0  0  0
 26 27  4  0  0  0  0
 26 29  1  0  0  0  0
 27 28  4  0  0  0  0
 27 32  1  0  0  0  0
 28 33  1  0  0  0  0
 29 34  1  0  0  0  0
 29 35  1  0  0  0  0
M  END
> <BCLConfClusterSize>
1

> <ConfClashScore>
0 

> <ConfOneFourInteractionScore>
-0.953993 

> <ConfScore>
0.223987 

> <ConfScorePBest>
0.00686549 

> <ConfTolerance>
0.467997 

> <RosettaParamsInstructions>
M  ROOT 3
M  POLY_N_BB 3
M  POLY_CA_BB 4
M  POLY_C_BB 2
M  POLY_O_BB 5
M  POLY_IGNORE 9 10 11 12 13 14 15 16 17 18 
M  POLY_UPPER 6
M  POLY_LOWER 8
M  POLY_CHG 0
M  POLY_PROPERTIES ALPHA_AA D_AA PROTEIN AROMATIC POLYMER 
M  END

$$$$



 35 35  0  0  0  0  0  0  0  0999 V2000
   -0.3209    4.4071   -0.7200 H   0  0  0  1  0  0  0  0  0  0  0  0
   -2.3246    4.7264   -0.1008 C   0  0  0  1  0  0  0  0  0  0  0  0
   -1.4411    4.8338   -2.4045 N   0  0  0  1  0  0  0  0  0  0  0  0
   -1.2975    4.1988   -1.1043 C   0  0  0  1  0  0  0  0  0  0  0  0
   -2.8708    5.8143   -0.2773 O   0  0  0  1  0  0  0  0  0  0  0  0
   -2.6207    3.8818    0.8928 N   0  0  0  1  0  0  0  0  0  0  0  0
   -1.8103    4.3274   -3.1579 H   0  0  0  1  0  0  0  0  0  0  0  0
   -1.0707    6.1062   -2.5741 C   0  0  0  1  0  0  0  0  0  0  0  0
   -3.5498    4.1826    1.9718 C   0  0  0  1  0  0  0  0  0  0  0  0
   -1.2697    6.6701   -3.9676 C   0  0  0  1  0  0  0  0  0  0  0  0
   -0.6005    6.7865   -1.6771 O   0  0  0  1  0  0  0  0  0  0  0  0
   -2.1842    3.0043    0.8946 H   0  0  0  1  0  0  0  0  0  0  0  0
   -4.0543    3.2870    2.2689 H   0  0  0  1  0  0  0  0  0  0  0  0
   -4.2676    4.9008    1.6342 H   0  0  0  1  0  0  0  0  0  0  0  0
   -3.0107    4.5813    2.8056 H   0  0  0  1  0  0  0  0  0  0  0  0
   -0.9768    7.6991   -3.9817 H   0  0  0  1  0  0  0  0  0  0  0  0
   -2.3011    6.5893   -4.2408 H   0  0  0  1  0  0  0  0  0  0  0  0
   -0.6717    6.1197   -4.6635 H   0  0  0  1  0  0  0  0  0  0  0  0
    1.5764    0.4821   -6.5150 F   0  0  0  1  0  0  0  0  0  0  0  0
    1.9245    0.1965   -5.2591 C   0  0  0  1  0  0  0  0  0  0  0  0
    1.8520   -1.1305   -5.1448 F   0  0  0  1  0  0  0  0  0  0  0  0
    3.2158    0.5111   -5.1488 F   0  0  0  1  0  0  0  0  0  0  0  0
    1.0635    0.9144   -4.2410 C   0  0  0  1  0  0  0  0  0  0  0  0
    1.5658    1.1579   -2.9721 C   0  0  0  1  0  0  0  0  0  0  0  0
    0.7575    1.7280   -2.0067 C   0  0  0  1  0  0  0  0  0  0  0  0
   -0.5537    2.0612   -2.3087 C   0  0  0  1  0  0  0  0  0  0  0  0
   -1.0543    1.8184   -3.5739 C   0  0  0  1  0  0  0  0  0  0  0  0
   -0.2439    1.2466   -4.5423 C   0  0  0  1  0  0  0  0  0  0  0  0
   -1.4357    2.6896   -1.2558 C   0  0  0  1  0  0  0  0  0  0  0  0
    2.5507    0.9116   -2.7466 H   0  0  0  1  0  0  0  0  0  0  0  0
    1.1331    1.9069   -1.0536 H   0  0  0  1  0  0  0  0  0  0  0  0
   -2.0393    2.0647   -3.7993 H   0  0  0  1  0  0  0  0  0  0  0  0
   -0.6195    1.0676   -5.4954 H   0  0  0  1  0  0  0  0  0  0  0  0
   -2.4535    2.4748   -1.5068 H   0  0  0  1  0  0  0  0  0  0  0  0
   -1.1975    2.2401   -0.3145 H   0  0  0  1  0  0  0  0  0  0  0  0
  1  4  1  0  0  0  0
  2  4  1  0  0  0  0
  2  5  2  0  0  0  0
  2  6  1  0  0  0  0
  3  4  1  0  0  0  0
  3  7  1  0  0  0  0
  3  8  1  0  0  0  0
  4 29  1  0  0  0  0
  6  9  1  0  0  0  0
  6 12  1  0  0  0  0
  8 10  1  0  0  0  0
  8 11  2  0  0  0  0
  9 13  1  0  0  0  0
  9 14  1  0  0  0  0
  9 15  1  0  0  0  0
 10 16  1  0  0  0  0
 10 17  1  0  0  0  0
 10 18  1  0  0  0  0
 19 20  1  0  0  0  0
 20 21  1  0  0  0  0
 20 22  1  0  0  0  0
 20 23  1  0  0  0  0
 23 24  4  0  0  0  0
 23 28  4  0  0  0  0
 24 25  4  0  0  0  0
 24 30  1  0  0  0  0
 25 26  4  0  0  0  0
 25 31  1  0  0  0  0
 26 27  4  0  0  0  0
 26 29  1  0  0  0  0
 27 28  4  0  0  0  0
 27 32  1  0  0  0  0
 28 33  1  0  0  0  0
 29 34  1  0  0  0  0
 29 35  1  0  0  0  0
M  END
> <BCLConfClusterSize>
1

> <ConfClashScore>
0 

> <ConfOneFourInteractionScore>
-0.958855 

> <ConfScore>
0.232326 

> <ConfScorePBest>
0.00683701 

> <ConfTolerance>
0.40273 

> <RosettaParamsInstructions>
M  ROOT 3
M  POLY_N_BB 3
M  POLY_CA_BB 4
M  POLY_C_BB 2
M  POLY_O_BB 5
M  POLY_IGNORE 9 10 11 12 13 14 15 16 17 18 
M  POLY_UPPER 6
M  POLY_LOWER 8
M  POLY_CHG 0
M  POLY_PROPERTIES ALPHA_AA D_AA PROTEIN AROMATIC POLYMER 
M  END

$$$$



 35 35  0  0  0  0  0  0  0  0999 V2000
   -1.6168    0.9448   -0.1518 H   0  0  0  1  0  0  0  0  0  0  0  0
   -3.3164    0.9288   -1.3641 C   0  0  0  1  0  0  0  0  0  0  0  0
   -2.9635    2.2578    0.6725 N   0  0  0  1  0  0  0  0  0  0  0  0
   -2.3033    1.6816   -0.5136 C   0  0  0  1  0  0  0  0  0  0  0  0
   -4.2172    1.5318   -1.9450 O   0  0  0  1  0  0  0  0  0  0  0  0
   -3.0827   -0.3826   -1.4828 N   0  0  0  1  0  0  0  0  0  0  0  0
   -2.9096    3.2287    0.7942 H   0  0  0  1  0  0  0  0  0  0  0  0
   -3.6354    1.5499    1.6014 C   0  0  0  1  0  0  0  0  0  0  0  0
   -3.8338   -1.2262   -2.4004 C   0  0  0  1  0  0  0  0  0  0  0  0
   -4.1284    2.3863    2.7661 C   0  0  0  1  0  0  0  0  0  0  0  0
   -3.8467    0.3397    1.5417 O   0  0  0  1  0  0  0  0  0  0  0  0
   -2.3812   -0.7896   -0.9327 H   0  0  0  1  0  0  0  0  0  0  0  0
   -3.7493   -0.8372   -3.3936 H   0  0  0  1  0  0  0  0  0  0  0  0
   -4.8634   -1.2406   -2.1096 H   0  0  0  1  0  0  0  0  0  0  0  0
   -3.4408   -2.2211   -2.3727 H   0  0  0  1  0  0  0  0  0  0  0  0
   -3.9928    3.4240    2.5433 H   0  0  0  1  0  0  0  0  0  0  0  0
   -3.5730    2.1351    3.6455 H   0  0  0  1  0  0  0  0  0  0  0  0
   -5.1671    2.1900    2.9314 H   0  0  0  1  0  0  0  0  0  0  0  0
    1.1672   -0.5442   -6.0901 F   0  0  0  1  0  0  0  0  0  0  0  0
    1.9146    0.1927   -5.2664 C   0  0  0  1  0  0  0  0  0  0  0  0
    2.8107   -0.6386   -4.7322 F   0  0  0  1  0  0  0  0  0  0  0  0
    2.6010    1.0359   -6.0387 F   0  0  0  1  0  0  0  0  0  0  0  0
    1.0880    0.9087   -4.2163 C   0  0  0  1  0  0  0  0  0  0  0  0
    1.5000    0.9835   -2.8948 C   0  0  0  1  0  0  0  0  0  0  0  0
    0.6766    1.5597   -1.9460 C   0  0  0  1  0  0  0  0  0  0  0  0
   -0.5588    2.0674   -2.3166 C   0  0  0  1  0  0  0  0  0  0  0  0
   -0.9695    1.9927   -3.6341 C   0  0  0  1  0  0  0  0  0  0  0  0
   -0.1438    1.4149   -4.5859 C   0  0  0  1  0  0  0  0  0  0  0  0
   -1.4566    2.7024   -1.2811 C   0  0  0  1  0  0  0  0  0  0  0  0
    2.4286    0.6062   -2.6174 H   0  0  0  1  0  0  0  0  0  0  0  0
    0.9840    1.6122   -0.9538 H   0  0  0  1  0  0  0  0  0  0  0  0
   -1.8981    2.3700   -3.9115 H   0  0  0  1  0  0  0  0  0  0  0  0
   -0.4512    1.3624   -5.5781 H   0  0  0  1  0  0  0  0  0  0  0  0
   -0.8464    3.2338   -0.5810 H   0  0  0  1  0  0  0  0  0  0  0  0
   -2.1138    3.3877   -1.7744 H   0  0  0  1  0  0  0  0  0  0  0  0
  1  4  1  0  0  0  0
  2  4  1  0  0  0  0
  2  5  2  0  0  0  0
  2  6  1  0  0  0  0
  3  4  1  0  0  0  0
  3  7  1  0  0  0  0
  3  8  1  0  0  0  0
  4 29  1  0  0  0  0
  6  9  1  0  0  0  0
  6 12  1  0  0  0  0
  8 10  1  0  0  0  0
  8 11  2  0  0  0  0
  9 13  1  0  0  0  0
  9 14  1  0  0  0  0
  9 15  1  0  0  0  0
 10 16  1  0  0  0  0
 10 17  1  0  0  0  0
 10 18  1  0  0  0  0
 19 20  1  0  0  0  0
 20 21  1  0  0  0  0
 20 22  1  0  0  0  0
 20 23  1  0  0  0  0
 23 24  4  0  0  0  0
 23 28  4  0  0  0  0
 24 25  4  0  0  0  0
 24 30  1  0  0  0  0
 25 26  4  0  0  0  0
 25 31  1  0  0  0  0
 26 27  4  0  0  0  0
 26 29  1  0  0  0  0
 27 28  4  0  0  0  0
 27 32  1  0  0  0  0
 28 33  1  0  0  0  0
 29 34  1  0  0  0  0
 29 35  1  0  0  0  0
M  END
> <BCLConfClusterSize>
1

> <ConfClashScore>
0 

> <ConfOneFourInteractionScore>
-0.978127 

> <ConfScore>
0.237357 

> <ConfScorePBest>
0.00680853 

> <ConfTolerance>
0.369045 

> <RosettaParamsInstructions>
M  ROOT 3
M  POLY_N_BB 3
M  POLY_CA_BB 4
M  POLY_C_BB 2
M  POLY_O_BB 5
M  POLY_IGNORE 9 10 11 12 13 14 15 16 17 18 
M  POLY_UPPER 6
M  POLY_LOWER 8
M  POLY_CHG 0
M  POLY_PROPERTIES ALPHA_AA D_AA PROTEIN AROMATIC POLYMER 
M  END

$$$$



 35 35  0  0  0  0  0  0  0  0999 V2000
   -1.3984    1.0067    0.0981 H   0  0  0  1  0  0  0  0  0  0  0  0
   -2.9848    0.7942   -1.2958 C   0  0  0  1  0  0  0  0  0  0  0  0
   -2.8918    2.3245    0.6665 N   0  0  0  1  0  0  0  0  0  0  0  0
   -2.1245    1.6428   -0.3635 C   0  0  0  1  0  0  0  0  0  0  0  0
   -3.9846    1.2746   -1.8067 O   0  0  0  1  0  0  0  0  0  0  0  0
   -2.5375   -0.4378   -1.5757 N   0  0  0  1  0  0  0  0  0  0  0  0
   -2.8300    3.3018    0.7054 H   0  0  0  1  0  0  0  0  0  0  0  0
   -3.6748    1.7189    1.5639 C   0  0  0  1  0  0  0  0  0  0  0  0
   -3.2282   -1.2611   -2.5619 C   0  0  0  1  0  0  0  0  0  0  0  0
   -4.5474    2.6339    2.4007 C   0  0  0  1  0  0  0  0  0  0  0  0
   -3.6994    0.5085    1.7145 O   0  0  0  1  0  0  0  0  0  0  0  0
   -1.7448   -0.7862   -1.1169 H   0  0  0  1  0  0  0  0  0  0  0  0
   -3.8549   -1.9687   -2.0605 H   0  0  0  1  0  0  0  0  0  0  0  0
   -2.5085   -1.7821   -3.1581 H   0  0  0  1  0  0  0  0  0  0  0  0
   -3.8279   -0.6365   -3.1905 H   0  0  0  1  0  0  0  0  0  0  0  0
   -4.1067    2.7622    3.3672 H   0  0  0  1  0  0  0  0  0  0  0  0
   -5.5197    2.2000    2.5071 H   0  0  0  1  0  0  0  0  0  0  0  0
   -4.6318    3.5853    1.9183 H   0  0  0  1  0  0  0  0  0  0  0  0
    1.3861    0.3081   -6.4803 F   0  0  0  1  0  0  0  0  0  0  0  0
    1.9224    0.1985   -5.2659 C   0  0  0  1  0  0  0  0  0  0  0  0
    2.0071   -1.1038   -5.0073 F   0  0  0  1  0  0  0  0  0  0  0  0
    3.1681    0.6687   -5.3417 F   0  0  0  1  0  0  0  0  0  0  0  0
    1.0853    0.9141   -4.2265 C   0  0  0  1  0  0  0  0  0  0  0  0
    1.5522    1.1260   -2.9386 C   0  0  0  1  0  0  0  0  0  0  0  0
    0.7254    1.6961   -1.9890 C   0  0  0  1  0  0  0  0  0  0  0  0
   -0.5688    2.0609   -2.3258 C   0  0  0  1  0  0  0  0  0  0  0  0
   -1.0342    1.8496   -3.6100 C   0  0  0  1  0  0  0  0  0  0  0  0
   -0.2051    1.2778   -4.5625 C   0  0  0  1  0  0  0  0  0  0  0  0
   -1.3840    2.6802   -1.2152 C   0  0  0  1  0  0  0  0  0  0  0  0
    2.5245    0.8560   -2.6869 H   0  0  0  1  0  0  0  0  0  0  0  0
    1.0743    1.8514   -1.0217 H   0  0  0  1  0  0  0  0  0  0  0  0
   -2.0065    2.1196   -3.8616 H   0  0  0  1  0  0  0  0  0  0  0  0
   -0.5541    1.1226   -5.5298 H   0  0  0  1  0  0  0  0  0  0  0  0
   -0.7267    3.2361   -0.5797 H   0  0  0  1  0  0  0  0  0  0  0  0
   -2.1046    3.3413   -1.6496 H   0  0  0  1  0  0  0  0  0  0  0  0
  1  4  1  0  0  0  0
  2  4  1  0  0  0  0
  2  5  2  0  0  0  0
  2  6  1  0  0  0  0
  3  4  1  0  0  0  0
  3  7  1  0  0  0  0
  3  8  1  0  0  0  0
  4 29  1  0  0  0  0
  6  9  1  0  0  0  0
  6 12  1  0  0  0  0
  8 10  1  0  0  0  0
  8 11  2  0  0  0  0
  9 13  1  0  0  0  0
  9 14  1  0  0  0  0
  9 15  1  0  0  0  0
 10 16  1  0  0  0  0
 10 17  1  0  0  0  0
 10 18  1  0  0  0  0
 19 20  1  0  0  0  0
 20 21  1  0  0  0  0
 20 22  1  0  0  0  0
 20 23  1  0  0  0  0
 23 24  4  0  0  0  0
 23 28  4  0  0  0  0
 24 25  4  0  0  0  0
 24 30  1  0  0  0  0
 25 26  4  0  0  0  0
 25 31  1  0  0  0  0
 26 27  4  0  0  0  0
 26 29  1  0  0  0  0
 27 28  4  0  0  0  0
 27 32  1  0  0  0  0
 28 33  1  0  0  0  0
 29 34  1  0  0  0  0
 29 35  1  0  0  0  0
M  END
> <BCLConfClusterSize>
1

> <ConfClashScore>
0 

> <ConfOneFourInteractionScore>
-0.981931 

> <ConfScore>
0.244973 

> <ConfScorePBest>
0.00678005 

> <ConfTolerance>
0.316821 

> <RosettaParamsInstructions>
M  ROOT 3
M  POLY_N_BB 3
M  POLY_CA_BB 4
M  POLY_C_BB 2
M  POLY_O_BB 5
M  POLY_IGNORE 9 10 11 12 13 14 15 16 17 18 
M  POLY_UPPER 6
M  POLY_LOWER 8
M  POLY_CHG 0
M  POLY_PROPERTIES ALPHA_AA D_AA PROTEIN AROMATIC POLYMER 
M  END

$$$$



 35 35  0  0  0  0  0  0  0  0999 V2000
   -0.6519    4.5913   -1.5748 H   0  0  0  1  0  0  0  0  0  0  0  0
   -2.1020    4.8686   -0.1146 C   0  0  0  1  0  0  0  0  0  0  0  0
   -2.4555    4.5432   -2.5426 N   0  0  0  1  0  0  0  0  0  0  0  0
   -1.6269    4.1960   -1.3798 C   0  0  0  1  0  0  0  0  0  0  0  0
   -2.9335    5.7742   -0.1507 O   0  0  0  1  0  0  0  0  0  0  0  0
   -1.6377    4.3663    1.0345 N   0  0  0  1  0  0  0  0  0  0  0  0
   -2.0310    4.7475   -3.4019 H   0  0  0  1  0  0  0  0  0  0  0  0
   -3.7920    4.5810   -2.4303 C   0  0  0  1  0  0  0  0  0  0  0  0
   -2.0046    4.9199    2.3294 C   0  0  0  1  0  0  0  0  0  0  0  0
   -4.5549    4.8178   -3.7191 C   0  0  0  1  0  0  0  0  0  0  0  0
   -4.3786    4.4350   -1.3588 O   0  0  0  1  0  0  0  0  0  0  0  0
   -1.0292    3.5987    1.0036 H   0  0  0  1  0  0  0  0  0  0  0  0
   -3.0706    4.9649    2.4096 H   0  0  0  1  0  0  0  0  0  0  0  0
   -1.5981    5.9051    2.4240 H   0  0  0  1  0  0  0  0  0  0  0  0
   -1.6147    4.2966    3.1069 H   0  0  0  1  0  0  0  0  0  0  0  0
   -3.9504    5.3893   -4.3921 H   0  0  0  1  0  0  0  0  0  0  0  0
   -5.4560    5.3540   -3.5065 H   0  0  0  1  0  0  0  0  0  0  0  0
   -4.7965    3.8771   -4.1682 H   0  0  0  1  0  0  0  0  0  0  0  0
    1.6228    0.5875   -6.5120 F   0  0  0  1  0  0  0  0  0  0  0  0
    1.9138    0.1970   -5.2699 C   0  0  0  1  0  0  0  0  0  0  0  0
    1.7371   -1.1249   -5.2437 F   0  0  0  1  0  0  0  0  0  0  0  0
    3.2219    0.4024   -5.1106 F   0  0  0  1  0  0  0  0  0  0  0  0
    1.0817    0.9150   -4.2254 C   0  0  0  1  0  0  0  0  0  0  0  0
    1.5798    1.1847   -2.9602 C   0  0  0  1  0  0  0  0  0  0  0  0
    0.7618    1.7540   -2.0026 C   0  0  0  1  0  0  0  0  0  0  0  0
   -0.5550    2.0603   -2.3088 C   0  0  0  1  0  0  0  0  0  0  0  0
   -1.0514    1.7914   -3.5703 C   0  0  0  1  0  0  0  0  0  0  0  0
   -0.2312    1.2203   -4.5309 C   0  0  0  1  0  0  0  0  0  0  0  0
   -1.4477    2.6879   -1.2645 C   0  0  0  1  0  0  0  0  0  0  0  0
    2.5689    0.9586   -2.7315 H   0  0  0  1  0  0  0  0  0  0  0  0
    1.1343    1.9527   -1.0521 H   0  0  0  1  0  0  0  0  0  0  0  0
   -2.0404    2.0174   -3.7990 H   0  0  0  1  0  0  0  0  0  0  0  0
   -0.6037    1.0217   -5.4814 H   0  0  0  1  0  0  0  0  0  0  0  0
   -2.4137    2.2340   -1.3401 H   0  0  0  1  0  0  0  0  0  0  0  0
   -1.0286    2.4779   -0.3027 H   0  0  0  1  0  0  0  0  0  0  0  0
  1  4  1  0  0  0  0
  2  4  1  0  0  0  0
  2  5  2  0  0  0  0
  2  6  1  0  0  0  0
  3  4  1  0  0  0  0
  3  7  1  0  0  0  0
  3  8  1  0  0  0  0
  4 29  1  0  0  0  0
  6  9  1  0  0  0  0
  6 12  1  0  0  0  0
  8 10  1  0  0  0  0
  8 11  2  0  0  0  0
  9 13  1  0  0  0  0
  9 14  1  0  0  0  0
  9 15  1  0  0  0  0
 10 16  1  0  0  0  0
 10 17  1  0  0  0  0
 10 18  1  0  0  0  0
 19 20  1  0  0  0  0
 20 21  1  0  0  0  0
 20 22  1  0  0  0  0
 20 23  1  0  0  0  0
 23 24  4  0  0  0  0
 23 28  4  0  0  0  0
 24 25  4  0  0  0  0
 24 30  1  0  0  0  0
 25 26  4  0  0  0  0
 25 31  1  0  0  0  0
 26 27  4  0  0  0  0
 26 29  1  0  0  0  0
 27 28  4  0  0  0  0
 27 32  1  0  0  0  0
 28 33  1  0  0  0  0
 29 34  1  0  0  0  0
 29 35  1  0  0  0  0
M  END
> <BCLConfClusterSize>
1

> <ConfClashScore>
0 

> <ConfOneFourInteractionScore>
-0.957011 

> <ConfScore>
0.248757 

> <ConfScorePBest>
0.00675157 

> <ConfTolerance>
0.455848 

> <RosettaParamsInstructions>
M  ROOT 3
M  POLY_N_BB 3
M  POLY_CA_BB 4
M  POLY_C_BB 2
M  POLY_O_BB 5
M  POLY_IGNORE 9 10 11 12 13 14 15 16 17 18 
M  POLY_UPPER 6
M  POLY_LOWER 8
M  POLY_CHG 0
M  POLY_PROPERTIES ALPHA_AA D_AA PROTEIN AROMATIC POLYMER 
M  END

$$$$



 35 35  0  0  0  0  0  0  0  0999 V2000
   -2.7775    1.0774   -1.1454 H   0  0  0  1  0  0  0  0  0  0  0  0
   -3.3546    2.4317    0.3594 C   0  0  0  1  0  0  0  0  0  0  0  0
   -1.3890    0.8764    0.3592 N   0  0  0  1  0  0  0  0  0  0  0  0
   -2.2764    1.7106   -0.4433 C   0  0  0  1  0  0  0  0  0  0  0  0
   -4.3102    2.9589   -0.2079 O   0  0  0  1  0  0  0  0  0  0  0  0
   -3.2084    2.3561    1.6866 N   0  0  0  1  0  0  0  0  0  0  0  0
   -0.4251    1.0359    0.2827 H   0  0  0  1  0  0  0  0  0  0  0  0
   -1.7912   -0.0889    1.1907 C   0  0  0  1  0  0  0  0  0  0  0  0
   -4.1996    2.8868    2.6087 C   0  0  0  1  0  0  0  0  0  0  0  0
   -0.6911   -0.8064    1.9483 C   0  0  0  1  0  0  0  0  0  0  0  0
   -2.9740   -0.3904    1.3449 O   0  0  0  1  0  0  0  0  0  0  0  0
   -2.4053    1.9281    2.0503 H   0  0  0  1  0  0  0  0  0  0  0  0
   -5.1808    2.6545    2.2509 H   0  0  0  1  0  0  0  0  0  0  0  0
   -4.0881    3.9486    2.6794 H   0  0  0  1  0  0  0  0  0  0  0  0
   -4.0591    2.4478    3.5744 H   0  0  0  1  0  0  0  0  0  0  0  0
    0.2621   -0.4826    1.5858 H   0  0  0  1  0  0  0  0  0  0  0  0
   -0.7879   -1.8620    1.8026 H   0  0  0  1  0  0  0  0  0  0  0  0
   -0.7710   -0.5810    2.9912 H   0  0  0  1  0  0  0  0  0  0  0  0
    3.2018    0.5887   -5.2019 F   0  0  0  1  0  0  0  0  0  0  0  0
    1.9266    0.2008   -5.2600 C   0  0  0  1  0  0  0  0  0  0  0  0
    1.5289    0.4139   -6.5153 F   0  0  0  1  0  0  0  0  0  0  0  0
    1.9306   -1.1218   -5.0887 F   0  0  0  1  0  0  0  0  0  0  0  0
    1.0565    0.9144   -4.2466 C   0  0  0  1  0  0  0  0  0  0  0  0
    1.6113    1.3406   -3.0499 C   0  0  0  1  0  0  0  0  0  0  0  0
    0.8077    1.9089   -2.0795 C   0  0  0  1  0  0  0  0  0  0  0  0
   -0.5519    2.0575   -2.3050 C   0  0  0  1  0  0  0  0  0  0  0  0
   -1.1049    1.6324   -3.4982 C   0  0  0  1  0  0  0  0  0  0  0  0
   -0.2992    1.0625   -4.4716 C   0  0  0  1  0  0  0  0  0  0  0  0
   -1.4296    2.6838   -1.2472 C   0  0  0  1  0  0  0  0  0  0  0  0
    2.6320    1.2328   -2.8823 H   0  0  0  1  0  0  0  0  0  0  0  0
    1.2232    2.2250   -1.1801 H   0  0  0  1  0  0  0  0  0  0  0  0
   -2.1256    1.7402   -3.6658 H   0  0  0  1  0  0  0  0  0  0  0  0
   -0.7147    0.7463   -5.3710 H   0  0  0  1  0  0  0  0  0  0  0  0
   -0.7977    3.2130   -0.5649 H   0  0  0  1  0  0  0  0  0  0  0  0
   -2.0892    3.3733   -1.7314 H   0  0  0  1  0  0  0  0  0  0  0  0
  1  4  1  0  0  0  0
  2  4  1  0  0  0  0
  2  5  2  0  0  0  0
  2  6  1  0  0  0  0
  3  4  1  0  0  0  0
  3  7  1  0  0  0  0
  3  8  1  0  0  0  0
  4 29  1  0  0  0  0
  6  9  1  0  0  0  0
  6 12  1  0  0  0  0
  8 10  1  0  0  0  0
  8 11  2  0  0  0  0
  9 13  1  0  0  0  0
  9 14  1  0  0  0  0
  9 15  1  0  0  0  0
 10 16  1  0  0  0  0
 10 17  1  0  0  0  0
 10 18  1  0  0  0  0
 19 20  1  0  0  0  0
 20 21  1  0  0  0  0
 20 22  1  0  0  0  0
 20 23  1  0  0  0  0
 23 24  4  0  0  0  0
 23 28  4  0  0  0  0
 24 25  4  0  0  0  0
 24 30  1  0  0  0  0
 25 26  4  0  0  0  0
 25 31  1  0  0  0  0
 26 27  4  0  0  0  0
 26 29  1  0  0  0  0
 27 28  4  0  0  0  0
 27 32  1  0  0  0  0
 28 33  1  0  0  0  0
 29 34  1  0  0  0  0
 29 35  1  0  0  0  0
M  END
> <BCLConfClusterSize>
1

> <ConfClashScore>
0 

> <ConfOneFourInteractionScore>
-0.960318 

> <ConfScore>
0.25022 

> <ConfScorePBest>
0.00672309 

> <ConfTolerance>
0.250853 

> <RosettaParamsInstructions>
M  ROOT 3
M  POLY_N_BB 3
M  POLY_CA_BB 4
M  POLY_C_BB 2
M  POLY_O_BB 5
M  POLY_IGNORE 9 10 11 12 13 14 15 16 17 18 
M  POLY_UPPER 6
M  POLY_LOWER 8
M  POLY_CHG 0
M  POLY_PROPERTIES ALPHA_AA D_AA PROTEIN AROMATIC POLYMER 
M  END

$$$$



 35 35  0  0  0  0  0  0  0  0999 V2000
   -2.3168    4.5333   -0.7130 H   0  0  0  1  0  0  0  0  0  0  0  0
   -2.3618    4.4361   -2.8233 C   0  0  0  1  0  0  0  0  0  0  0  0
   -0.4185    4.9111   -1.4362 N   0  0  0  1  0  0  0  0  0  0  0  0
   -1.6743    4.1777   -1.4913 C   0  0  0  1  0  0  0  0  0  0  0  0
   -3.5883    4.4108   -2.9101 O   0  0  0  1  0  0  0  0  0  0  0  0
   -1.5360    4.7686   -3.8251 N   0  0  0  1  0  0  0  0  0  0  0  0
    0.3745    4.4287   -1.1218 H   0  0  0  1  0  0  0  0  0  0  0  0
   -0.2596    6.2410   -1.7951 C   0  0  0  1  0  0  0  0  0  0  0  0
   -1.9970    4.8960   -5.2097 C   0  0  0  1  0  0  0  0  0  0  0  0
    1.1153    6.8472   -1.7617 C   0  0  0  1  0  0  0  0  0  0  0  0
   -1.2439    6.8762   -2.1268 O   0  0  0  1  0  0  0  0  0  0  0  0
   -0.5908    4.9323   -3.6243 H   0  0  0  1  0  0  0  0  0  0  0  0
   -2.8868    4.3172   -5.3446 H   0  0  0  1  0  0  0  0  0  0  0  0
   -1.2363    4.5401   -5.8728 H   0  0  0  1  0  0  0  0  0  0  0  0
   -2.2045    5.9238   -5.4231 H   0  0  0  1  0  0  0  0  0  0  0  0
    1.7211    6.3199   -1.0547 H   0  0  0  1  0  0  0  0  0  0  0  0
    1.0446    7.8753   -1.4738 H   0  0  0  1  0  0  0  0  0  0  0  0
    1.5590    6.7780   -2.7329 H   0  0  0  1  0  0  0  0  0  0  0  0
    1.5845    0.5470   -6.5142 F   0  0  0  1  0  0  0  0  0  0  0  0
    1.9138    0.1968   -5.2697 C   0  0  0  1  0  0  0  0  0  0  0  0
    1.7792   -1.1289   -5.2075 F   0  0  0  1  0  0  0  0  0  0  0  0
    3.2179    0.4462   -5.1443 F   0  0  0  1  0  0  0  0  0  0  0  0
    1.0821    0.9147   -4.2250 C   0  0  0  1  0  0  0  0  0  0  0  0
    1.5768    1.1752   -2.9565 C   0  0  0  1  0  0  0  0  0  0  0  0
    0.7585    1.7448   -1.9993 C   0  0  0  1  0  0  0  0  0  0  0  0
   -0.5552    2.0606   -2.3092 C   0  0  0  1  0  0  0  0  0  0  0  0
   -1.0482    1.8009   -3.5740 C   0  0  0  1  0  0  0  0  0  0  0  0
   -0.2278    1.2296   -4.5341 C   0  0  0  1  0  0  0  0  0  0  0  0
   -1.4482    2.6886   -1.2653 C   0  0  0  1  0  0  0  0  0  0  0  0
    2.5635    0.9419   -2.7251 H   0  0  0  1  0  0  0  0  0  0  0  0
    1.1284    1.9365   -1.0464 H   0  0  0  1  0  0  0  0  0  0  0  0
   -2.0350    2.0341   -3.8053 H   0  0  0  1  0  0  0  0  0  0  0  0
   -0.5977    1.0379   -5.4870 H   0  0  0  1  0  0  0  0  0  0  0  0
   -2.3963    2.1931   -1.2857 H   0  0  0  1  0  0  0  0  0  0  0  0
   -0.9957    2.5546   -0.3050 H   0  0  0  1  0  0  0  0  0  0  0  0
  1  4  1  0  0  0  0
  2  4  1  0  0  0  0
  2  5  2  0  0  0  0
  2  6  1  0  0  0  0
  3  4  1  0  0  0  0
  3  7  1  0  0  0  0
  3  8  1  0  0  0  0
  4 29  1  0  0  0  0
  6  9  1  0  0  0  0
  6 12  1  0  0  0  0
  8 10  1  0  0  0  0
  8 11  2  0  0  0  0
  9 13  1  0  0  0  0
  9 14  1  0  0  0  0
  9 15  1  0  0  0  0
 10 16  1  0  0  0  0
 10 17  1  0  0  0  0
 10 18  1  0  0  0  0
 19 20  1  0  0  0  0
 20 21  1  0  0  0  0
 20 22  1  0  0  0  0
 20 23  1  0  0  0  0
 23 24  4  0  0  0  0
 23 28  4  0  0  0  0
 24 25  4  0  0  0  0
 24 30  1  0  0  0  0
 25 26  4  0  0  0  0
 25 31  1  0  0  0  0
 26 27  4  0  0  0  0
 26 29  1  0  0  0  0
 27 28  4  0  0  0  0
 27 32  1  0  0  0  0
 28 33  1  0  0  0  0
 29 34  1  0  0  0  0
 29 35  1  0  0  0  0
M  END
> <BCLConfClusterSize>
1

> <ConfClashScore>
0 

> <ConfOneFourInteractionScore>
-0.931937 

> <ConfScore>
0.253927 

> <ConfScorePBest>
0.0066946 

> <ConfTolerance>
0.257356 

> <RosettaParamsInstructions>
M  ROOT 3
M  POLY_N_BB 3
M  POLY_CA_BB 4
M  POLY_C_BB 2
M  POLY_O_BB 5
M  POLY_IGNORE 9 10 11 12 13 14 15 16 17 18 
M  POLY_UPPER 6
M  POLY_LOWER 8
M  POLY_CHG 0
M  POLY_PROPERTIES ALPHA_AA D_AA PROTEIN AROMATIC POLYMER 
M  END

$$$$



 35 35  0  0  0  0  0  0  0  0999 V2000
   -2.1555    4.5860   -0.6174 H   0  0  0  1  0  0  0  0  0  0  0  0
   -1.7496    4.7363   -2.6887 C   0  0  0  1  0  0  0  0  0  0  0  0
   -0.1009    4.6886   -0.8543 N   0  0  0  1  0  0  0  0  0  0  0  0
   -1.4112    4.2244   -1.2958 C   0  0  0  1  0  0  0  0  0  0  0  0
   -2.9117    4.9631   -2.9880 O   0  0  0  1  0  0  0  0  0  0  0  0
   -0.7179    4.9964   -3.5035 N   0  0  0  1  0  0  0  0  0  0  0  0
    0.5916    4.0122   -0.7013 H   0  0  0  1  0  0  0  0  0  0  0  0
    0.2265    5.9665   -0.6428 C   0  0  0  1  0  0  0  0  0  0  0  0
   -0.8373    5.4922   -4.8666 C   0  0  0  1  0  0  0  0  0  0  0  0
    1.6224    6.2081   -0.1022 C   0  0  0  1  0  0  0  0  0  0  0  0
   -0.5408    6.8992   -0.8660 O   0  0  0  1  0  0  0  0  0  0  0  0
    0.1849    4.8411   -3.1554 H   0  0  0  1  0  0  0  0  0  0  0  0
   -1.6974    6.1241   -4.9427 H   0  0  0  1  0  0  0  0  0  0  0  0
   -0.9413    4.6661   -5.5385 H   0  0  0  1  0  0  0  0  0  0  0  0
    0.0391    6.0511   -5.1206 H   0  0  0  1  0  0  0  0  0  0  0  0
    1.7218    5.7373    0.8534 H   0  0  0  1  0  0  0  0  0  0  0  0
    1.7879    7.2603   -0.0001 H   0  0  0  1  0  0  0  0  0  0  0  0
    2.3426    5.7973   -0.7786 H   0  0  0  1  0  0  0  0  0  0  0  0
    1.2165   -0.6365   -6.0219 F   0  0  0  1  0  0  0  0  0  0  0  0
    1.9263    0.1933   -5.2554 C   0  0  0  1  0  0  0  0  0  0  0  0
    2.8826   -0.5463   -4.6916 F   0  0  0  1  0  0  0  0  0  0  0  0
    2.5446    1.0329   -6.0870 F   0  0  0  1  0  0  0  0  0  0  0  0
    1.0715    0.9133   -4.2336 C   0  0  0  1  0  0  0  0  0  0  0  0
    1.4892    0.9716   -2.9132 C   0  0  0  1  0  0  0  0  0  0  0  0
    0.6738    1.5441   -1.9552 C   0  0  0  1  0  0  0  0  0  0  0  0
   -0.5593    2.0647   -2.3156 C   0  0  0  1  0  0  0  0  0  0  0  0
   -0.9756    2.0064   -3.6322 C   0  0  0  1  0  0  0  0  0  0  0  0
   -0.1580    1.4323   -4.5932 C   0  0  0  1  0  0  0  0  0  0  0  0
   -1.4483    2.6957   -1.2702 C   0  0  0  1  0  0  0  0  0  0  0  0
    2.4161    0.5847   -2.6434 H   0  0  0  1  0  0  0  0  0  0  0  0
    0.9855    1.5843   -0.9638 H   0  0  0  1  0  0  0  0  0  0  0  0
   -1.9025    2.3934   -3.9020 H   0  0  0  1  0  0  0  0  0  0  0  0
   -0.4697    1.3922   -5.5846 H   0  0  0  1  0  0  0  0  0  0  0  0
   -2.4550    2.3765   -1.4416 H   0  0  0  1  0  0  0  0  0  0  0  0
   -1.1276    2.3633   -0.3049 H   0  0  0  1  0  0  0  0  0  0  0  0
  1  4  1  0  0  0  0
  2  4  1  0  0  0  0
  2  5  2  0  0  0  0
  2  6  1  0  0  0  0
  3  4  1  0  0  0  0
  3  7  1  0  0  0  0
  3  8  1  0  0  0  0
  4 29  1  0  0  0  0
  6  9  1  0  0  0  0
  6 12  1  0  0  0  0
  8 10  1  0  0  0  0
  8 11  2  0  0  0  0
  9 13  1  0  0  0  0
  9 14  1  0  0  0  0
  9 15  1  0  0  0  0
 10 16  1  0  0  0  0
 10 17  1  0  0  0  0
 10 18  1  0  0  0  0
 19 20  1  0  0  0  0
 20 21  1  0  0  0  0
 20 22  1  0  0  0  0
 20 23  1  0  0  0  0
 23 24  4  0  0  0  0
 23 28  4  0  0  0  0
 24 25  4  0  0  0  0
 24 30  1  0  0  0  0
 25 26  4  0  0  0  0
 25 31  1  0  0  0  0
 26 27  4  0  0  0  0
 26 29  1  0  0  0  0
 27 28  4  0  0  0  0
 27 32  1  0  0  0  0
 28 33  1  0  0  0  0
 29 34  1  0  0  0  0
 29 35  1  0  0  0  0
M  END
> <BCLConfClusterSize>
1

> <ConfClashScore>
0 

> <ConfOneFourInteractionScore>
-0.957074 

> <ConfScore>
0.257647 

> <ConfScorePBest>
0.00666612 

> <ConfTolerance>
0.330694 

> <RosettaParamsInstructions>
M  ROOT 3
M  POLY_N_BB 3
M  POLY_CA_BB 4
M  POLY_C_BB 2
M  POLY_O_BB 5
M  POLY_IGNORE 9 10 11 12 13 14 15 16 17 18 
M  POLY_UPPER 6
M  POLY_LOWER 8
M  POLY_CHG 0
M  POLY_PROPERTIES ALPHA_AA D_AA PROTEIN AROMATIC POLYMER 
M  END

$$$$



 35 35  0  0  0  0  0  0  0  0999 V2000
   -2.7771    1.1460   -0.7853 H   0  0  0  1  0  0  0  0  0  0  0  0
   -2.7755    2.4482    0.8601 C   0  0  0  1  0  0  0  0  0  0  0  0
   -1.0093    0.8046    0.2092 N   0  0  0  1  0  0  0  0  0  0  0  0
   -2.0473    1.7193   -0.2526 C   0  0  0  1  0  0  0  0  0  0  0  0
   -3.7910    3.0795    0.6113 O   0  0  0  1  0  0  0  0  0  0  0  0
   -2.2994    2.2859    2.0992 N   0  0  0  1  0  0  0  0  0  0  0  0
   -0.0991    0.9460   -0.1255 H   0  0  0  1  0  0  0  0  0  0  0  0
   -1.2054   -0.2099    1.0529 C   0  0  0  1  0  0  0  0  0  0  0  0
   -2.8951    2.9429    3.2531 C   0  0  0  1  0  0  0  0  0  0  0  0
    0.0516   -0.9236    1.5333 C   0  0  0  1  0  0  0  0  0  0  0  0
   -2.3224   -0.5610    1.4299 O   0  0  0  1  0  0  0  0  0  0  0  0
   -1.5224    1.7044    2.2350 H   0  0  0  1  0  0  0  0  0  0  0  0
   -3.9615    2.9071    3.1734 H   0  0  0  1  0  0  0  0  0  0  0  0
   -2.5743    3.9631    3.2873 H   0  0  0  1  0  0  0  0  0  0  0  0
   -2.5874    2.4416    4.1469 H   0  0  0  1  0  0  0  0  0  0  0  0
   -0.2019   -1.9083    1.8662 H   0  0  0  1  0  0  0  0  0  0  0  0
    0.4860   -0.3745    2.3425 H   0  0  0  1  0  0  0  0  0  0  0  0
    0.7538   -0.9892    0.7286 H   0  0  0  1  0  0  0  0  0  0  0  0
    3.1565    0.7103   -5.3443 F   0  0  0  1  0  0  0  0  0  0  0  0
    1.9295    0.1945   -5.2518 C   0  0  0  1  0  0  0  0  0  0  0  0
    1.4358    0.2802   -6.4880 F   0  0  0  1  0  0  0  0  0  0  0  0
    2.0604   -1.0936   -5.0104 F   0  0  0  1  0  0  0  0  0  0  0  0
    1.0579    0.9105   -4.2415 C   0  0  0  1  0  0  0  0  0  0  0  0
    1.6134    1.3490   -3.0495 C   0  0  0  1  0  0  0  0  0  0  0  0
    0.8091    1.9198   -2.0812 C   0  0  0  1  0  0  0  0  0  0  0  0
   -0.5520    2.0586   -2.3041 C   0  0  0  1  0  0  0  0  0  0  0  0
   -1.1057    1.6213   -3.4925 C   0  0  0  1  0  0  0  0  0  0  0  0
   -0.2992    1.0488   -4.4638 C   0  0  0  1  0  0  0  0  0  0  0  0
   -1.4306    2.6876   -1.2486 C   0  0  0  1  0  0  0  0  0  0  0  0
    2.6352    1.2486   -2.8839 H   0  0  0  1  0  0  0  0  0  0  0  0
    1.2251    2.2452   -1.1853 H   0  0  0  1  0  0  0  0  0  0  0  0
   -2.1275    1.7218   -3.6581 H   0  0  0  1  0  0  0  0  0  0  0  0
   -0.7153    0.7234   -5.3597 H   0  0  0  1  0  0  0  0  0  0  0  0
   -0.8377    3.3906   -0.7017 H   0  0  0  1  0  0  0  0  0  0  0  0
   -2.2267    3.2018   -1.7453 H   0  0  0  1  0  0  0  0  0  0  0  0
  1  4  1  0  0  0  0
  2  4  1  0  0  0  0
  2  5  2  0  0  0  0
  2  6  1  0  0  0  0
  3  4  1  0  0  0  0
  3  7  1  0  0  0  0
  3  8  1  0  0  0  0
  4 29  1  0  0  0  0
  6  9  1  0  0  0  0
  6 12  1  0  0  0  0
  8 10  1  0  0  0  0
  8 11  2  0  0  0  0
  9 13  1  0  0  0  0
  9 14  1  0  0  0  0
  9 15  1  0  0  0  0
 10 16  1  0  0  0  0
 10 17  1  0  0  0  0
 10 18  1  0  0  0  0
 19 20  1  0  0  0  0
 20 21  1  0  0  0  0
 20 22  1  0  0  0  0
 20 23  1  0  0  0  0
 23 24  4  0  0  0  0
 23 28  4  0  0  0  0
 24 25  4  0  0  0  0
 24 30  1  0  0  0  0
 25 26  4  0  0  0  0
 25 31  1  0  0  0  0
 26 27  4  0  0  0  0
 26 29  1  0  0  0  0
 27 28  4  0  0  0  0
 27 32  1  0  0  0  0
 28 33  1  0  0  0  0
 29 34  1  0  0  0  0
 29 35  1  0  0  0  0
M  END
> <BCLConfClusterSize>
1

> <ConfClashScore>
0 

> <ConfOneFourInteractionScore>
-0.94165 

> <ConfScore>
0.259582 

> <ConfScorePBest>
0.00663764 

> <ConfTolerance>
0.296885 

> <RosettaParamsInstructions>
M  ROOT 3
M  POLY_N_BB 3
M  POLY_CA_BB 4
M  POLY_C_BB 2
M  POLY_O_BB 5
M  POLY_IGNORE 9 10 11 12 13 14 15 16 17 18 
M  POLY_UPPER 6
M  POLY_LOWER 8
M  POLY_CHG 0
M  POLY_PROPERTIES ALPHA_AA D_AA PROTEIN AROMATIC POLYMER 
M  END

$$$$



 35 35  0  0  0  0  0  0  0  0999 V2000
   -0.5549    4.5694   -1.0134 H   0  0  0  1  0  0  0  0  0  0  0  0
   -2.4952    4.6197   -0.1194 C   0  0  0  1  0  0  0  0  0  0  0  0
   -1.9852    4.7196   -2.5178 N   0  0  0  1  0  0  0  0  0  0  0  0
   -1.5330    4.1975   -1.2369 C   0  0  0  1  0  0  0  0  0  0  0  0
   -2.1486    4.5306    1.0470 O   0  0  0  1  0  0  0  0  0  0  0  0
   -3.6607    5.1549   -0.4980 N   0  0  0  1  0  0  0  0  0  0  0  0
   -2.4168    4.1093   -3.1516 H   0  0  0  1  0  0  0  0  0  0  0  0
   -1.8325    6.0021   -2.8598 C   0  0  0  1  0  0  0  0  0  0  0  0
   -4.6731    5.5710    0.4611 C   0  0  0  1  0  0  0  0  0  0  0  0
   -2.4529    6.4097   -4.1820 C   0  0  0  1  0  0  0  0  0  0  0  0
   -1.2302    6.8150   -2.1596 O   0  0  0  1  0  0  0  0  0  0  0  0
   -3.8393    5.2710   -1.4545 H   0  0  0  1  0  0  0  0  0  0  0  0
   -4.7261    4.8575    1.2567 H   0  0  0  1  0  0  0  0  0  0  0  0
   -5.6232    5.6316   -0.0273 H   0  0  0  1  0  0  0  0  0  0  0  0
   -4.4143    6.5300    0.8591 H   0  0  0  1  0  0  0  0  0  0  0  0
   -1.7039    6.8478   -4.8080 H   0  0  0  1  0  0  0  0  0  0  0  0
   -3.2315    7.1222   -4.0057 H   0  0  0  1  0  0  0  0  0  0  0  0
   -2.8611    5.5467   -4.6652 H   0  0  0  1  0  0  0  0  0  0  0  0
    1.5930    0.5621   -6.5137 F   0  0  0  1  0  0  0  0  0  0  0  0
    1.9123    0.1969   -5.2709 C   0  0  0  1  0  0  0  0  0  0  0  0
    1.7624   -1.1276   -5.2214 F   0  0  0  1  0  0  0  0  0  0  0  0
    3.2185    0.4305   -5.1370 F   0  0  0  1  0  0  0  0  0  0  0  0
    1.0836    0.9148   -4.2236 C   0  0  0  1  0  0  0  0  0  0  0  0
    1.5828    1.1770   -2.9573 C   0  0  0  1  0  0  0  0  0  0  0  0
    0.7675    1.7465   -1.9975 C   0  0  0  1  0  0  0  0  0  0  0  0
   -0.5477    2.0604   -2.3027 C   0  0  0  1  0  0  0  0  0  0  0  0
   -1.0453    1.7988   -3.5653 C   0  0  0  1  0  0  0  0  0  0  0  0
   -0.2278    1.2277   -4.5281 C   0  0  0  1  0  0  0  0  0  0  0  0
   -1.4837    2.6889   -1.2975 C   0  0  0  1  0  0  0  0  0  0  0  0
    2.5707    0.9452   -2.7294 H   0  0  0  1  0  0  0  0  0  0  0  0
    1.1408    1.9396   -1.0462 H   0  0  0  1  0  0  0  0  0  0  0  0
   -2.0332    2.0306   -3.7931 H   0  0  0  1  0  0  0  0  0  0  0  0
   -0.6011    1.0347   -5.4793 H   0  0  0  1  0  0  0  0  0  0  0  0
   -2.4719    2.3450   -1.5216 H   0  0  0  1  0  0  0  0  0  0  0  0
   -1.1949    2.3388   -0.3285 H   0  0  0  1  0  0  0  0  0  0  0  0
  1  4  1  0  0  0  0
  2  4  1  0  0  0  0
  2  5  2  0  0  0  0
  2  6  1  0  0  0  0
  3  4  1  0  0  0  0
  3  7  1  0  0  0  0
  3  8  1  0  0  0  0
  4 29  1  0  0  0  0
  6  9  1  0  0  0  0
  6 12  1  0  0  0  0
  8 10  1  0  0  0  0
  8 11  2  0  0  0  0
  9 13  1  0  0  0  0
  9 14  1  0  0  0  0
  9 15  1  0  0  0  0
 10 16  1  0  0  0  0
 10 17  1  0  0  0  0
 10 18  1  0  0  0  0
 19 20  1  0  0  0  0
 20 21  1  0  0  0  0
 20 22  1  0  0  0  0
 20 23  1  0  0  0  0
 23 24  4  0  0  0  0
 23 28  4  0  0  0  0
 24 25  4  0  0  0  0
 24 30  1  0  0  0  0
 25 26  4  0  0  0  0
 25 31  1  0  0  0  0
 26 27  4  0  0  0  0
 26 29  1  0  0  0  0
 27 28  4  0  0  0  0
 27 32  1  0  0  0  0
 28 33  1  0  0  0  0
 29 34  1  0  0  0  0
 29 35  1  0  0  0  0
M  END
> <BCLConfClusterSize>
1

> <ConfClashScore>
0 

> <ConfOneFourInteractionScore>
-0.960318 

> <ConfScore>
0.264222 

> <ConfScorePBest>
0.00660916 

> <ConfTolerance>
0.297589 

> <RosettaParamsInstructions>
M  ROOT 3
M  POLY_N_BB 3
M  POLY_CA_BB 4
M  POLY_C_BB 2
M  POLY_O_BB 5
M  POLY_IGNORE 9 10 11 12 13 14 15 16 17 18 
M  POLY_UPPER 6
M  POLY_LOWER 8
M  POLY_CHG 0
M  POLY_PROPERTIES ALPHA_AA D_AA PROTEIN AROMATIC POLYMER 
M  END

$$$$



 35 35  0  0  0  0  0  0  0  0999 V2000
   -0.3740    4.4204   -0.8068 H   0  0  0  1  0  0  0  0  0  0  0  0
   -2.3778    4.8106   -0.2309 C   0  0  0  1  0  0  0  0  0  0  0  0
   -1.4072    4.7371   -2.5538 N   0  0  0  1  0  0  0  0  0  0  0  0
   -1.3443    4.2025   -1.2017 C   0  0  0  1  0  0  0  0  0  0  0  0
   -2.6090    4.2997    0.8206 O   0  0  0  1  0  0  0  0  0  0  0  0
   -2.9170    5.9640   -0.5940 N   0  0  0  1  0  0  0  0  0  0  0  0
   -0.5719    5.0418   -2.9660 H   0  0  0  1  0  0  0  0  0  0  0  0
   -2.5359    4.8394   -3.2720 C   0  0  0  1  0  0  0  0  0  0  0  0
   -3.7384    6.7565    0.3088 C   0  0  0  1  0  0  0  0  0  0  0  0
   -2.3881    5.4637   -4.6459 C   0  0  0  1  0  0  0  0  0  0  0  0
   -3.6206    4.4600   -2.8623 O   0  0  0  1  0  0  0  0  0  0  0  0
   -2.7574    6.2955   -1.5023 H   0  0  0  1  0  0  0  0  0  0  0  0
   -3.1561    7.0493    1.1573 H   0  0  0  1  0  0  0  0  0  0  0  0
   -4.5746    6.1736    0.6342 H   0  0  0  1  0  0  0  0  0  0  0  0
   -4.0885    7.6294   -0.2016 H   0  0  0  1  0  0  0  0  0  0  0  0
   -1.9823    4.7424   -5.3241 H   0  0  0  1  0  0  0  0  0  0  0  0
   -1.7308    6.3059   -4.5859 H   0  0  0  1  0  0  0  0  0  0  0  0
   -3.3470    5.7832   -4.9972 H   0  0  0  1  0  0  0  0  0  0  0  0
    3.1230    0.7694   -5.4003 F   0  0  0  1  0  0  0  0  0  0  0  0
    1.9242    0.2004   -5.2616 C   0  0  0  1  0  0  0  0  0  0  0  0
    1.3771    0.1826   -6.4780 F   0  0  0  1  0  0  0  0  0  0  0  0
    2.1507   -1.0727   -4.9351 F   0  0  0  1  0  0  0  0  0  0  0  0
    1.0572    0.9145   -4.2459 C   0  0  0  1  0  0  0  0  0  0  0  0
    1.6196    1.3563   -3.0584 C   0  0  0  1  0  0  0  0  0  0  0  0
    0.8201    1.9252   -2.0850 C   0  0  0  1  0  0  0  0  0  0  0  0
   -0.5430    2.0590   -2.2983 C   0  0  0  1  0  0  0  0  0  0  0  0
   -1.1035    1.6184   -3.4824 C   0  0  0  1  0  0  0  0  0  0  0  0
   -0.3019    1.0477   -4.4587 C   0  0  0  1  0  0  0  0  0  0  0  0
   -1.4653    2.6775   -1.2745 C   0  0  0  1  0  0  0  0  0  0  0  0
    2.6429    1.2596   -2.8999 H   0  0  0  1  0  0  0  0  0  0  0  0
    1.2413    2.2531   -1.1924 H   0  0  0  1  0  0  0  0  0  0  0  0
   -2.1268    1.7151   -3.6408 H   0  0  0  1  0  0  0  0  0  0  0  0
   -0.7231    0.7199   -5.3513 H   0  0  0  1  0  0  0  0  0  0  0  0
   -2.4739    2.4277   -1.5298 H   0  0  0  1  0  0  0  0  0  0  0  0
   -1.2289    2.2708   -0.3135 H   0  0  0  1  0  0  0  0  0  0  0  0
  1  4  1  0  0  0  0
  2  4  1  0  0  0  0
  2  5  2  0  0  0  0
  2  6  1  0  0  0  0
  3  4  1  0  0  0  0
  3  7  1  0  0  0  0
  3  8  1  0  0  0  0
  4 29  1  0  0  0  0
  6  9  1  0  0  0  0
  6 12  1  0  0  0  0
  8 10  1  0  0  0  0
  8 11  2  0  0  0  0
  9 13  1  0  0  0  0
  9 14  1  0  0  0  0
  9 15  1  0  0  0  0
 10 16  1  0  0  0  0
 10 17  1  0  0  0  0
 10 18  1  0  0  0  0
 19 20  1  0  0  0  0
 20 21  1  0  0  0  0
 20 22  1  0  0  0  0
 20 23  1  0  0  0  0
 23 24  4  0  0  0  0
 23 28  4  0  0  0  0
 24 25  4  0  0  0  0
 24 30  1  0  0  0  0
 25 26  4  0  0  0  0
 25 31  1  0  0  0  0
 26 27  4  0  0  0  0
 26 29  1  0  0  0  0
 27 28  4  0  0  0  0
 27 32  1  0  0  0  0
 28 33  1  0  0  0  0
 29 34  1  0  0  0  0
 29 35  1  0  0  0  0
M  END
> <BCLConfClusterSize>
1

> <ConfClashScore>
0 

> <ConfOneFourInteractionScore>
-0.957723 

> <ConfScore>
0.266429 

> <ConfScorePBest>
0.00658068 

> <ConfTolerance>
0.281158 

> <RosettaParamsInstructions>
M  ROOT 3
M  POLY_N_BB 3
M  POLY_CA_BB 4
M  POLY_C_BB 2
M  POLY_O_BB 5
M  POLY_IGNORE 9 10 11 12 13 14 15 16 17 18 
M  POLY_UPPER 6
M  POLY_LOWER 8
M  POLY_CHG 0
M  POLY_PROPERTIES ALPHA_AA D_AA PROTEIN AROMATIC POLYMER 
M  END

$$$$



 35 35  0  0  0  0  0  0  0  0999 V2000
   -0.3185    4.4187   -0.8209 H   0  0  0  1  0  0  0  0  0  0  0  0
   -2.2612    4.6315    0.0134 C   0  0  0  1  0  0  0  0  0  0  0  0
   -1.6140    4.8157   -2.3860 N   0  0  0  1  0  0  0  0  0  0  0  0
   -1.3224    4.1868   -1.1095 C   0  0  0  1  0  0  0  0  0  0  0  0
   -2.0326    4.3244    1.1732 O   0  0  0  1  0  0  0  0  0  0  0  0
   -3.2605    5.4302   -0.3765 N   0  0  0  1  0  0  0  0  0  0  0  0
   -1.8165    4.2471   -3.1581 H   0  0  0  1  0  0  0  0  0  0  0  0
   -1.6160    6.1424   -2.5441 C   0  0  0  1  0  0  0  0  0  0  0  0
   -4.0862    6.1620    0.5725 C   0  0  0  1  0  0  0  0  0  0  0  0
   -1.8789    6.6361   -3.9488 C   0  0  0  1  0  0  0  0  0  0  0  0
   -1.4185    6.9275   -1.6181 O   0  0  0  1  0  0  0  0  0  0  0  0
   -3.4431    5.5260   -1.3345 H   0  0  0  1  0  0  0  0  0  0  0  0
   -3.4780    6.5099    1.3812 H   0  0  0  1  0  0  0  0  0  0  0  0
   -4.8496    5.5160    0.9530 H   0  0  0  1  0  0  0  0  0  0  0  0
   -4.5381    6.9981    0.0810 H   0  0  0  1  0  0  0  0  0  0  0  0
   -2.6427    6.0381   -4.4004 H   0  0  0  1  0  0  0  0  0  0  0  0
   -0.9810    6.5631   -4.5261 H   0  0  0  1  0  0  0  0  0  0  0  0
   -2.1992    7.6564   -3.9138 H   0  0  0  1  0  0  0  0  0  0  0  0
    3.0566    0.8323   -5.5492 F   0  0  0  1  0  0  0  0  0  0  0  0
    1.9186    0.1969   -5.2643 C   0  0  0  1  0  0  0  0  0  0  0  0
    1.2891    0.0951   -6.4358 F   0  0  0  1  0  0  0  0  0  0  0  0
    2.2306   -1.0357   -4.9207 F   0  0  0  1  0  0  0  0  0  0  0  0
    1.0781    0.9167   -4.2279 C   0  0  0  1  0  0  0  0  0  0  0  0
    1.6239    1.3672   -3.0360 C   0  0  0  1  0  0  0  0  0  0  0  0
    0.8094    1.9330   -2.0733 C   0  0  0  1  0  0  0  0  0  0  0  0
   -0.5524    2.0548   -2.3018 C   0  0  0  1  0  0  0  0  0  0  0  0
   -1.0964    1.6055   -3.4902 C   0  0  0  1  0  0  0  0  0  0  0  0
   -0.2797    1.0381   -4.4558 C   0  0  0  1  0  0  0  0  0  0  0  0
   -1.4421    2.6783   -1.2525 C   0  0  0  1  0  0  0  0  0  0  0  0
    2.6462    1.2795   -2.8662 H   0  0  0  1  0  0  0  0  0  0  0  0
    1.2182    2.2673   -1.1774 H   0  0  0  1  0  0  0  0  0  0  0  0
   -2.1187    1.6933   -3.6600 H   0  0  0  1  0  0  0  0  0  0  0  0
   -0.6886    0.7037   -5.3517 H   0  0  0  1  0  0  0  0  0  0  0  0
   -2.4572    2.4500   -1.5024 H   0  0  0  1  0  0  0  0  0  0  0  0
   -1.1987    2.2369   -0.3087 H   0  0  0  1  0  0  0  0  0  0  0  0
  1  4  1  0  0  0  0
  2  4  1  0  0  0  0
  2  5  2  0  0  0  0
  2  6  1  0  0  0  0
  3  4  1  0  0  0  0
  3  7  1  0  0  0  0
  3  8  1  0  0  0  0
  4 29  1  0  0  0  0
  6  9  1  0  0  0  0
  6 12  1  0  0  0  0
  8 10  1  0  0  0  0
  8 11  2  0  0  0  0
  9 13  1  0  0  0  0
  9 14  1  0  0  0  0
  9 15  1  0  0  0  0
 10 16  1  0  0  0  0
 10 17  1  0  0  0  0
 10 18  1  0  0  0  0
 19 20  1  0  0  0  0
 20 21  1  0  0  0  0
 20 22  1  0  0  0  0
 20 23  1  0  0  0  0
 23 24  4  0  0  0  0
 23 28  4  0  0  0  0
 24 25  4  0  0  0  0
 24 30  1  0  0  0  0
 25 26  4  0  0  0  0
 25 31  1  0  0  0  0
 26 27  4  0  0  0  0
 26 29  1  0  0  0  0
 27 28  4  0  0  0  0
 27 32  1  0  0  0  0
 28 33  1  0  0  0  0
 29 34  1  0  0  0  0
 29 35  1  0  0  0  0
M  END
> <BCLConfClusterSize>
1

> <ConfClashScore>
0 

> <ConfOneFourInteractionScore>
-0.960318 

> <ConfScore>
0.269307 

> <ConfScorePBest>
0.0065522 

> <ConfTolerance>
0.307037 

> <RosettaParamsInstructions>
M  ROOT 3
M  POLY_N_BB 3
M  POLY_CA_BB 4
M  POLY_C_BB 2
M  POLY_O_BB 5
M  POLY_IGNORE 9 10 11 12 13 14 15 16 17 18 
M  POLY_UPPER 6
M  POLY_LOWER 8
M  POLY_CHG 0
M  POLY_PROPERTIES ALPHA_AA D_AA PROTEIN AROMATIC POLYMER 
M  END

$$$$



 35 35  0  0  0  0  0  0  0  0999 V2000
   -2.9392    1.2108   -1.2205 H   0  0  0  1  0  0  0  0  0  0  0  0
   -3.1780    2.3502    0.5302 C   0  0  0  1  0  0  0  0  0  0  0  0
   -1.4531    0.6448    0.0858 N   0  0  0  1  0  0  0  0  0  0  0  0
   -2.2952    1.6752   -0.5032 C   0  0  0  1  0  0  0  0  0  0  0  0
   -3.9433    3.2390    0.1895 O   0  0  0  1  0  0  0  0  0  0  0  0
   -3.1283    1.8641    1.7750 N   0  0  0  1  0  0  0  0  0  0  0  0
   -1.5951   -0.2960   -0.1490 H   0  0  0  1  0  0  0  0  0  0  0  0
   -0.4828    0.9802    0.9496 C   0  0  0  1  0  0  0  0  0  0  0  0
   -3.9197    2.3752    2.8843 C   0  0  0  1  0  0  0  0  0  0  0  0
    0.3050   -0.1750    1.5363 C   0  0  0  1  0  0  0  0  0  0  0  0
   -0.2340    2.1428    1.2575 O   0  0  0  1  0  0  0  0  0  0  0  0
   -2.5203    1.1161    1.9515 H   0  0  0  1  0  0  0  0  0  0  0  0
   -4.9398    2.0759    2.7630 H   0  0  0  1  0  0  0  0  0  0  0  0
   -3.8613    3.4435    2.9013 H   0  0  0  1  0  0  0  0  0  0  0  0
   -3.5398    1.9820    3.8041 H   0  0  0  1  0  0  0  0  0  0  0  0
    1.3041    0.1447    1.7473 H   0  0  0  1  0  0  0  0  0  0  0  0
    0.3299   -0.9823    0.8345 H   0  0  0  1  0  0  0  0  0  0  0  0
   -0.1630   -0.5025    2.4410 H   0  0  0  1  0  0  0  0  0  0  0  0
    1.4474    0.2813   -6.5019 F   0  0  0  1  0  0  0  0  0  0  0  0
    1.9178    0.1919   -5.2588 C   0  0  0  1  0  0  0  0  0  0  0  0
    2.0676   -1.1043   -4.9989 F   0  0  0  1  0  0  0  0  0  0  0  0
    3.1572    0.6811   -5.3156 F   0  0  0  1  0  0  0  0  0  0  0  0
    1.0607    0.9125   -4.2393 C   0  0  0  1  0  0  0  0  0  0  0  0
    1.5486    1.1144   -2.9575 C   0  0  0  1  0  0  0  0  0  0  0  0
    0.7409    1.6869   -1.9931 C   0  0  0  1  0  0  0  0  0  0  0  0
   -0.5551    2.0640   -2.3088 C   0  0  0  1  0  0  0  0  0  0  0  0
   -1.0413    1.8626   -3.5867 C   0  0  0  1  0  0  0  0  0  0  0  0
   -0.2315    1.2884   -4.5542 C   0  0  0  1  0  0  0  0  0  0  0  0
   -1.4363    2.6950   -1.2567 C   0  0  0  1  0  0  0  0  0  0  0  0
    2.5223    0.8352   -2.7217 H   0  0  0  1  0  0  0  0  0  0  0  0
    1.1055    1.8347   -1.0304 H   0  0  0  1  0  0  0  0  0  0  0  0
   -2.0150    2.1418   -3.8225 H   0  0  0  1  0  0  0  0  0  0  0  0
   -0.5961    1.1406   -5.5169 H   0  0  0  1  0  0  0  0  0  0  0  0
   -0.8132    3.2033   -0.5508 H   0  0  0  1  0  0  0  0  0  0  0  0
   -2.0845    3.4001   -1.7337 H   0  0  0  1  0  0  0  0  0  0  0  0
  1  4  1  0  0  0  0
  2  4  1  0  0  0  0
  2  5  2  0  0  0  0
  2  6  1  0  0  0  0
  3  4  1  0  0  0  0
  3  7  1  0  0  0  0
  3  8  1  0  0  0  0
  4 29  1  0  0  0  0
  6  9  1  0  0  0  0
  6 12  1  0  0  0  0
  8 10  1  0  0  0  0
  8 11  2  0  0  0  0
  9 13  1  0  0  0  0
  9 14  1  0  0  0  0
  9 15  1  0  0  0  0
 10 16  1  0  0  0  0
 10 17  1  0  0  0  0
 10 18  1  0  0  0  0
 19 20  1  0  0  0  0
 20 21  1  0  0  0  0
 20 22  1  0  0  0  0
 20 23  1  0  0  0  0
 23 24  4  0  0  0  0
 23 28  4  0  0  0  0
 24 25  4  0  0  0  0
 24 30  1  0  0  0  0
 25 26  4  0  0  0  0
 25 31  1  0  0  0  0
 26 27  4  0  0  0  0
 26 29  1  0  0  0  0
 27 28  4  0  0  0  0
 27 32  1  0  0  0  0
 28 33  1  0  0  0  0
 29 34  1  0  0  0  0
 29 35  1  0  0  0  0
M  END
> <BCLConfClusterSize>
1

> <ConfClashScore>
0 

> <ConfOneFourInteractionScore>
-0.938662 

> <ConfScore>
0.275662 

> <ConfScorePBest>
0.00652372 

> <ConfTolerance>
0.248021 

> <RosettaParamsInstructions>
M  ROOT 3
M  POLY_N_BB 3
M  POLY_CA_BB 4
M  POLY_C_BB 2
M  POLY_O_BB 5
M  POLY_IGNORE 9 10 11 12 13 14 15 16 17 18 
M  POLY_UPPER 6
M  POLY_LOWER 8
M  POLY_CHG 0
M  POLY_PROPERTIES ALPHA_AA D_AA PROTEIN AROMATIC POLYMER 
M  END

$$$$



 35 35  0  0  0  0  0  0  0  0999 V2000
   -0.4148    4.4484   -1.0558 H   0  0  0  1  0  0  0  0  0  0  0  0
   -2.1871    4.7078    0.0526 C   0  0  0  1  0  0  0  0  0  0  0  0
   -1.9818    4.7208   -2.3790 N   0  0  0  1  0  0  0  0  0  0  0  0
   -1.4359    4.1411   -1.1436 C   0  0  0  1  0  0  0  0  0  0  0  0
   -2.2968    4.0654    1.0961 O   0  0  0  1  0  0  0  0  0  0  0  0
   -2.6352    5.9620   -0.0682 N   0  0  0  1  0  0  0  0  0  0  0  0
   -1.3618    5.0855   -3.0445 H   0  0  0  1  0  0  0  0  0  0  0  0
   -3.3069    4.7682   -2.6286 C   0  0  0  1  0  0  0  0  0  0  0  0
   -3.3357    6.7008    0.9727 C   0  0  0  1  0  0  0  0  0  0  0  0
   -3.7711    5.4868   -3.8805 C   0  0  0  1  0  0  0  0  0  0  0  0
   -4.1167    4.2447   -1.8646 O   0  0  0  1  0  0  0  0  0  0  0  0
   -2.4805    6.4182   -0.9216 H   0  0  0  1  0  0  0  0  0  0  0  0
   -3.6998    6.0182    1.7118 H   0  0  0  1  0  0  0  0  0  0  0  0
   -4.1588    7.2310    0.5410 H   0  0  0  1  0  0  0  0  0  0  0  0
   -2.6634    7.3962    1.4301 H   0  0  0  1  0  0  0  0  0  0  0  0
   -4.7318    5.9243   -3.7058 H   0  0  0  1  0  0  0  0  0  0  0  0
   -3.8392    4.7881   -4.6880 H   0  0  0  1  0  0  0  0  0  0  0  0
   -3.0699    6.2552   -4.1312 H   0  0  0  1  0  0  0  0  0  0  0  0
    3.2264    0.4628   -5.1198 F   0  0  0  1  0  0  0  0  0  0  0  0
    1.9254    0.2013   -5.2579 C   0  0  0  1  0  0  0  0  0  0  0  0
    1.6094    0.4855   -6.5223 F   0  0  0  1  0  0  0  0  0  0  0  0
    1.8211   -1.1249   -5.1626 F   0  0  0  1  0  0  0  0  0  0  0  0
    1.0577    0.9211   -4.2468 C   0  0  0  1  0  0  0  0  0  0  0  0
    1.6109    1.3378   -3.0460 C   0  0  0  1  0  0  0  0  0  0  0  0
    0.8085    1.9117   -2.0780 C   0  0  0  1  0  0  0  0  0  0  0  0
   -0.5483    2.0754   -2.3099 C   0  0  0  1  0  0  0  0  0  0  0  0
   -1.0997    1.6598   -3.5072 C   0  0  0  1  0  0  0  0  0  0  0  0
   -0.2951    1.0842   -4.4782 C   0  0  0  1  0  0  0  0  0  0  0  0
   -1.4482    2.6175   -1.2246 C   0  0  0  1  0  0  0  0  0  0  0  0
    2.6296    1.2187   -2.8736 H   0  0  0  1  0  0  0  0  0  0  0  0
    1.2227    2.2208   -1.1755 H   0  0  0  1  0  0  0  0  0  0  0  0
   -2.1183    1.7790   -3.6797 H   0  0  0  1  0  0  0  0  0  0  0  0
   -0.7093    0.7752   -5.3807 H   0  0  0  1  0  0  0  0  0  0  0  0
   -2.4495    2.2948   -1.4197 H   0  0  0  1  0  0  0  0  0  0  0  0
   -1.1229    2.2238   -0.2843 H   0  0  0  1  0  0  0  0  0  0  0  0
  1  4  1  0  0  0  0
  2  4  1  0  0  0  0
  2  5  2  0  0  0  0
  2  6  1  0  0  0  0
  3  4  1  0  0  0  0
  3  7  1  0  0  0  0
  3  8  1  0  0  0  0
  4 29  1  0  0  0  0
  6  9  1  0  0  0  0
  6 12  1  0  0  0  0
  8 10  1  0  0  0  0
  8 11  2  0  0  0  0
  9 13  1  0  0  0  0
  9 14  1  0  0  0  0
  9 15  1  0  0  0  0
 10 16  1  0  0  0  0
 10 17  1  0  0  0  0
 10 18  1  0  0  0  0
 19 20  1  0  0  0  0
 20 21  1  0  0  0  0
 20 22  1  0  0  0  0
 20 23  1  0  0  0  0
 23 24  4  0  0  0  0
 23 28  4  0  0  0  0
 24 25  4  0  0  0  0
 24 30  1  0  0  0  0
 25 26  4  0  0  0  0
 25 31  1  0  0  0  0
 26 27  4  0  0  0  0
 26 29  1  0  0  0  0
 27 28  4  0  0  0  0
 27 32  1  0  0  0  0
 28 33  1  0  0  0  0
 29 34  1  0  0  0  0
 29 35  1  0  0  0  0
M  END
> <BCLConfClusterSize>
1

> <ConfClashScore>
0 

> <ConfOneFourInteractionScore>
-0.957364 

> <ConfScore>
0.278849 

> <ConfScorePBest>
0.00649524 

> <ConfTolerance>
0.233266 

> <RosettaParamsInstructions>
M  ROOT 3
M  POLY_N_BB 3
M  POLY_CA_BB 4
M  POLY_C_BB 2
M  POLY_O_BB 5
M  POLY_IGNORE 9 10 11 12 13 14 15 16 17 18 
M  POLY_UPPER 6
M  POLY_LOWER 8
M  POLY_CHG 0
M  POLY_PROPERTIES ALPHA_AA D_AA PROTEIN AROMATIC POLYMER 
M  END

$$$$



 35 35  0  0  0  0  0  0  0  0999 V2000
   -3.2006    1.9536   -2.1886 H   0  0  0  1  0  0  0  0  0  0  0  0
   -3.8486    2.7226   -0.3721 C   0  0  0  1  0  0  0  0  0  0  0  0
   -2.6516    0.5917   -0.7621 N   0  0  0  1  0  0  0  0  0  0  0  0
   -2.8153    1.9875   -1.1910 C   0  0  0  1  0  0  0  0  0  0  0  0
   -4.2145    3.8462   -0.7129 O   0  0  0  1  0  0  0  0  0  0  0  0
   -4.3842    2.0595    0.6583 N   0  0  0  1  0  0  0  0  0  0  0  0
   -1.9030    0.3796   -0.1663 H   0  0  0  1  0  0  0  0  0  0  0  0
   -3.4622   -0.4115   -1.1345 C   0  0  0  1  0  0  0  0  0  0  0  0
   -5.3042    2.7335    1.5623 C   0  0  0  1  0  0  0  0  0  0  0  0
   -3.0731   -1.7892   -0.6031 C   0  0  0  1  0  0  0  0  0  0  0  0
   -4.4104   -0.2745   -1.9063 O   0  0  0  1  0  0  0  0  0  0  0  0
   -4.1566    1.1176    0.8050 H   0  0  0  1  0  0  0  0  0  0  0  0
   -4.9399    3.7169    1.7748 H   0  0  0  1  0  0  0  0  0  0  0  0
   -5.3806    2.1772    2.4731 H   0  0  0  1  0  0  0  0  0  0  0  0
   -6.2684    2.8020    1.1037 H   0  0  0  1  0  0  0  0  0  0  0  0
   -2.3272   -1.6814    0.1565 H   0  0  0  1  0  0  0  0  0  0  0  0
   -2.6836   -2.3830   -1.4034 H   0  0  0  1  0  0  0  0  0  0  0  0
   -3.9359   -2.2685   -0.1898 H   0  0  0  1  0  0  0  0  0  0  0  0
    1.5512    0.4549   -6.5123 F   0  0  0  1  0  0  0  0  0  0  0  0
    1.9239    0.1959   -5.2599 C   0  0  0  1  0  0  0  0  0  0  0  0
    1.8782   -1.1212   -5.1248 F   0  0  0  1  0  0  0  0  0  0  0  0
    3.2011    0.5333   -5.1760 F   0  0  0  1  0  0  0  0  0  0  0  0
    1.0660    0.9139   -4.2391 C   0  0  0  1  0  0  0  0  0  0  0  0
    1.5692    1.1501   -2.9693 C   0  0  0  1  0  0  0  0  0  0  0  0
    0.7634    1.7203   -2.0018 C   0  0  0  1  0  0  0  0  0  0  0  0
   -0.5462    2.0607   -2.3028 C   0  0  0  1  0  0  0  0  0  0  0  0
   -1.0477    1.8250   -3.5689 C   0  0  0  1  0  0  0  0  0  0  0  0
   -0.2397    1.2533   -4.5394 C   0  0  0  1  0  0  0  0  0  0  0  0
   -1.4716    2.6912   -1.2892 C   0  0  0  1  0  0  0  0  0  0  0  0
    2.5530    0.8985   -2.7445 H   0  0  0  1  0  0  0  0  0  0  0  0
    1.1396    1.8939   -1.0479 H   0  0  0  1  0  0  0  0  0  0  0  0
   -2.0315    2.0767   -3.7936 H   0  0  0  1  0  0  0  0  0  0  0  0
   -0.6160    1.0797   -5.4933 H   0  0  0  1  0  0  0  0  0  0  0  0
   -0.9990    2.6584   -0.3298 H   0  0  0  1  0  0  0  0  0  0  0  0
   -1.6404    3.7100   -1.5696 H   0  0  0  1  0  0  0  0  0  0  0  0
  1  4  1  0  0  0  0
  2  4  1  0  0  0  0
  2  5  2  0  0  0  0
  2  6  1  0  0  0  0
  3  4  1  0  0  0  0
  3  7  1  0  0  0  0
  3  8  1  0  0  0  0
  4 29  1  0  0  0  0
  6  9  1  0  0  0  0
  6 12  1  0  0  0  0
  8 10  1  0  0  0  0
  8 11  2  0  0  0  0
  9 13  1  0  0  0  0
  9 14  1  0  0  0  0
  9 15  1  0  0  0  0
 10 16  1  0  0  0  0
 10 17  1  0  0  0  0
 10 18  1  0  0  0  0
 19 20  1  0  0  0  0
 20 21  1  0  0  0  0
 20 22  1  0  0  0  0
 20 23  1  0  0  0  0
 23 24  4  0  0  0  0
 23 28  4  0  0  0  0
 24 25  4  0  0  0  0
 24 30  1  0  0  0  0
 25 26  4  0  0  0  0
 25 31  1  0  0  0  0
 26 27  4  0  0  0  0
 26 29  1  0  0  0  0
 27 28  4  0  0  0  0
 27 32  1  0  0  0  0
 28 33  1  0  0  0  0
 29 34  1  0  0  0  0
 29 35  1  0  0  0  0
M  END
> <BCLConfClusterSize>
1

> <ConfClashScore>
0 

> <ConfOneFourInteractionScore>
-0.94165 

> <ConfScore>
0.280218 

> <ConfScorePBest>
0.00646676 

> <ConfTolerance>
0.370139 

> <RosettaParamsInstructions>
M  ROOT 3
M  POLY_N_BB 3
M  POLY_CA_BB 4
M  POLY_C_BB 2
M  POLY_O_BB 5
M  POLY_IGNORE 9 10 11 12 13 14 15 16 17 18 
M  POLY_UPPER 6
M  POLY_LOWER 8
M  POLY_CHG 0
M  POLY_PROPERTIES ALPHA_AA D_AA PROTEIN AROMATIC POLYMER 
M  END

$$$$



 35 35  0  0  0  0  0  0  0  0999 V2000
   -2.7470    2.1927    0.2971 H   0  0  0  1  0  0  0  0  0  0  0  0
   -1.0195    1.0885    0.7320 C   0  0  0  1  0  0  0  0  0  0  0  0
   -2.6933    0.6514   -1.0553 N   0  0  0  1  0  0  0  0  0  0  0  0
   -2.0053    1.6696   -0.2696 C   0  0  0  1  0  0  0  0  0  0  0  0
   -0.6053    1.7801    1.6495 O   0  0  0  1  0  0  0  0  0  0  0  0
   -0.7040   -0.2634    0.5918 N   0  0  0  1  0  0  0  0  0  0  0  0
   -2.7400    0.7564   -2.0285 H   0  0  0  1  0  0  0  0  0  0  0  0
   -3.2619   -0.4196   -0.4943 C   0  0  0  1  0  0  0  0  0  0  0  0
    0.0607   -0.9988    1.6050 C   0  0  0  1  0  0  0  0  0  0  0  0
   -3.7775   -1.5066   -1.4459 C   0  0  0  1  0  0  0  0  0  0  0  0
   -3.3134   -0.5948    0.7202 O   0  0  0  1  0  0  0  0  0  0  0  0
   -1.0037   -0.7382   -0.2114 H   0  0  0  1  0  0  0  0  0  0  0  0
    0.3769   -1.9381    1.2017 H   0  0  0  1  0  0  0  0  0  0  0  0
   -0.5557   -1.1687    2.4630 H   0  0  0  1  0  0  0  0  0  0  0  0
    0.9186   -0.4260    1.8893 H   0  0  0  1  0  0  0  0  0  0  0  0
   -4.5992   -1.1234   -2.0142 H   0  0  0  1  0  0  0  0  0  0  0  0
   -4.1013   -2.3534   -0.8776 H   0  0  0  1  0  0  0  0  0  0  0  0
   -2.9917   -1.8012   -2.1096 H   0  0  0  1  0  0  0  0  0  0  0  0
    2.9667    0.9413   -5.6487 F   0  0  0  1  0  0  0  0  0  0  0  0
    1.9269    0.2013   -5.2600 C   0  0  0  1  0  0  0  0  0  0  0  0
    1.2631   -0.1217   -6.3710 F   0  0  0  1  0  0  0  0  0  0  0  0
    2.4351   -0.9363   -4.7844 F   0  0  0  1  0  0  0  0  0  0  0  0
    1.0535    0.9139   -4.2488 C   0  0  0  1  0  0  0  0  0  0  0  0
    1.6107    1.3638   -3.0619 C   0  0  0  1  0  0  0  0  0  0  0  0
    0.8059    1.9317   -2.0923 C   0  0  0  1  0  0  0  0  0  0  0  0
   -0.5576    2.0562   -2.3088 C   0  0  0  1  0  0  0  0  0  0  0  0
   -1.1130    1.6075   -3.4922 C   0  0  0  1  0  0  0  0  0  0  0  0
   -0.3060    1.0380   -4.4648 C   0  0  0  1  0  0  0  0  0  0  0  0
   -1.3898    2.6894   -1.2189 C   0  0  0  1  0  0  0  0  0  0  0  0
    2.6343    1.2741   -2.9010 H   0  0  0  1  0  0  0  0  0  0  0  0
    1.2233    2.2656   -1.2002 H   0  0  0  1  0  0  0  0  0  0  0  0
   -2.1366    1.6973   -3.6531 H   0  0  0  1  0  0  0  0  0  0  0  0
   -0.7235    0.7041   -5.3569 H   0  0  0  1  0  0  0  0  0  0  0  0
   -0.7651    3.3481   -0.6526 H   0  0  0  1  0  0  0  0  0  0  0  0
   -2.1790    3.2497   -1.6751 H   0  0  0  1  0  0  0  0  0  0  0  0
  1  4  1  0  0  0  0
  2  4  1  0  0  0  0
  2  5  2  0  0  0  0
  2  6  1  0  0  0  0
  3  4  1  0  0  0  0
  3  7  1  0  0  0  0
  3  8  1  0  0  0  0
  4 29  1  0  0  0  0
  6  9  1  0  0  0  0
  6 12  1  0  0  0  0
  8 10  1  0  0  0  0
  8 11  2  0  0  0  0
  9 13  1  0  0  0  0
  9 14  1  0  0  0  0
  9 15  1  0  0  0  0
 10 16  1  0  0  0  0
 10 17  1  0  0  0  0
 10 18  1  0  0  0  0
 19 20  1  0  0  0  0
 20 21  1  0  0  0  0
 20 22  1  0  0  0  0
 20 23  1  0  0  0  0
 23 24  4  0  0  0  0
 23 28  4  0  0  0  0
 24 25  4  0  0  0  0
 24 30  1  0  0  0  0
 25 26  4  0  0  0  0
 25 31  1  0  0  0  0
 26 27  4  0  0  0  0
 26 29  1  0  0  0  0
 27 28  4  0  0  0  0
 27 32  1  0  0  0  0
 28 33  1  0  0  0  0
 29 34  1  0  0  0  0
 29 35  1  0  0  0  0
M  END
> <BCLConfClusterSize>
1

> <ConfClashScore>
0 

> <ConfOneFourInteractionScore>
-0.950605 

> <ConfScore>
0.280305 

> <ConfScorePBest>
0.00643828 

> <ConfTolerance>
0.338066 

> <RosettaParamsInstructions>
M  ROOT 3
M  POLY_N_BB 3
M  POLY_CA_BB 4
M  POLY_C_BB 2
M  POLY_O_BB 5
M  POLY_IGNORE 9 10 11 12 13 14 15 16 17 18 
M  POLY_UPPER 6
M  POLY_LOWER 8
M  POLY_CHG 0
M  POLY_PROPERTIES ALPHA_AA D_AA PROTEIN AROMATIC POLYMER 
M  END

$$$$



 35 35  0  0  0  0  0  0  0  0999 V2000
   -3.2098    1.5863   -1.5398 H   0  0  0  1  0  0  0  0  0  0  0  0
   -3.2991    2.3597    0.4197 C   0  0  0  1  0  0  0  0  0  0  0  0
   -1.9459    0.4516   -0.3787 N   0  0  0  1  0  0  0  0  0  0  0  0
   -2.5205    1.7388   -0.7358 C   0  0  0  1  0  0  0  0  0  0  0  0
   -3.9493    1.6465    1.1682 O   0  0  0  1  0  0  0  0  0  0  0  0
   -3.1540    3.6901    0.6064 N   0  0  0  1  0  0  0  0  0  0  0  0
   -1.8791   -0.2576   -1.0517 H   0  0  0  1  0  0  0  0  0  0  0  0
   -1.5097    0.2342    0.8630 C   0  0  0  1  0  0  0  0  0  0  0  0
   -3.7995    4.3379    1.7156 C   0  0  0  1  0  0  0  0  0  0  0  0
   -1.0665   -1.1838    1.1666 C   0  0  0  1  0  0  0  0  0  0  0  0
   -1.4628    1.1152    1.7204 O   0  0  0  1  0  0  0  0  0  0  0  0
   -2.6076    4.2144   -0.0156 H   0  0  0  1  0  0  0  0  0  0  0  0
   -3.7544    5.3990    1.5850 H   0  0  0  1  0  0  0  0  0  0  0  0
   -3.3021    4.0692    2.6240 H   0  0  0  1  0  0  0  0  0  0  0  0
   -4.8225    4.0279    1.7632 H   0  0  0  1  0  0  0  0  0  0  0  0
   -0.0093   -1.2659    1.0233 H   0  0  0  1  0  0  0  0  0  0  0  0
   -1.5690   -1.8627    0.5098 H   0  0  0  1  0  0  0  0  0  0  0  0
   -1.3083   -1.4233    2.1810 H   0  0  0  1  0  0  0  0  0  0  0  0
    3.1488    0.7286   -5.3453 F   0  0  0  1  0  0  0  0  0  0  0  0
    1.9262    0.2013   -5.2605 C   0  0  0  1  0  0  0  0  0  0  0  0
    1.4159    0.2435   -6.4923 F   0  0  0  1  0  0  0  0  0  0  0  0
    2.0959   -1.0918   -4.9697 F   0  0  0  1  0  0  0  0  0  0  0  0
    1.0558    0.9145   -4.2472 C   0  0  0  1  0  0  0  0  0  0  0  0
    1.6137    1.3541   -3.0568 C   0  0  0  1  0  0  0  0  0  0  0  0
    0.8109    1.9222   -2.0858 C   0  0  0  1  0  0  0  0  0  0  0  0
   -0.5513    2.0574   -2.3043 C   0  0  0  1  0  0  0  0  0  0  0  0
   -1.1074    1.6190   -3.4912 C   0  0  0  1  0  0  0  0  0  0  0  0
   -0.3024    1.0492   -4.4652 C   0  0  0  1  0  0  0  0  0  0  0  0
   -1.4282    2.6835   -1.2458 C   0  0  0  1  0  0  0  0  0  0  0  0
    2.6363    1.2564   -2.8944 H   0  0  0  1  0  0  0  0  0  0  0  0
    1.2288    2.2484   -1.1910 H   0  0  0  1  0  0  0  0  0  0  0  0
   -2.1300    1.7167   -3.6535 H   0  0  0  1  0  0  0  0  0  0  0  0
   -0.7204    0.7230   -5.3599 H   0  0  0  1  0  0  0  0  0  0  0  0
   -0.8124    2.9700   -0.4190 H   0  0  0  1  0  0  0  0  0  0  0  0
   -1.8956    3.5520   -1.6608 H   0  0  0  1  0  0  0  0  0  0  0  0
  1  4  1  0  0  0  0
  2  4  1  0  0  0  0
  2  5  2  0  0  0  0
  2  6  1  0  0  0  0
  3  4  1  0  0  0  0
  3  7  1  0  0  0  0
  3  8  1  0  0  0  0
  4 29  1  0  0  0  0
  6  9  1  0  0  0  0
  6 12  1  0  0  0  0
  8 10  1  0  0  0  0
  8 11  2  0  0  0  0
  9 13  1  0  0  0  0
  9 14  1  0  0  0  0
  9 15  1  0  0  0  0
 10 16  1  0  0  0  0
 10 17  1  0  0  0  0
 10 18  1  0  0  0  0
 19 20  1  0  0  0  0
 20 21  1  0  0  0  0
 20 22  1  0  0  0  0
 20 23  1  0  0  0  0
 23 24  4  0  0  0  0
 23 28  4  0  0  0  0
 24 25  4  0  0  0  0
 24 30  1  0  0  0  0
 25 26  4  0  0  0  0
 25 31  1  0  0  0  0
 26 27  4  0  0  0  0
 26 29  1  0  0  0  0
 27 28  4  0  0  0  0
 27 32  1  0  0  0  0
 28 33  1  0  0  0  0
 29 34  1  0  0  0  0
 29 35  1  0  0  0  0
M  END
> <BCLConfClusterSize>
1

> <ConfClashScore>
0 

> <ConfOneFourInteractionScore>
-0.933935 

> <ConfScore>
0.282086 

> <ConfScorePBest>
0.0064098 

> <ConfTolerance>
0.42194 

> <RosettaParamsInstructions>
M  ROOT 3
M  POLY_N_BB 3
M  POLY_CA_BB 4
M  POLY_C_BB 2
M  POLY_O_BB 5
M  POLY_IGNORE 9 10 11 12 13 14 15 16 17 18 
M  POLY_UPPER 6
M  POLY_LOWER 8
M  POLY_CHG 0
M  POLY_PROPERTIES ALPHA_AA D_AA PROTEIN AROMATIC POLYMER 
M  END

$$$$



 35 35  0  0  0  0  0  0  0  0999 V2000
   -2.8083    1.1139   -1.2513 H   0  0  0  1  0  0  0  0  0  0  0  0
   -3.4753    2.4565    0.2183 C   0  0  0  1  0  0  0  0  0  0  0  0
   -1.6307    0.8498    0.4073 N   0  0  0  1  0  0  0  0  0  0  0  0
   -2.3473    1.7305   -0.5082 C   0  0  0  1  0  0  0  0  0  0  0  0
   -4.4614    2.8569   -0.3983 O   0  0  0  1  0  0  0  0  0  0  0  0
   -3.3304    2.5282    1.5458 N   0  0  0  1  0  0  0  0  0  0  0  0
   -0.7648    1.1577    0.7475 H   0  0  0  1  0  0  0  0  0  0  0  0
   -2.0659   -0.3450    0.8172 C   0  0  0  1  0  0  0  0  0  0  0  0
   -4.3317    3.1425    2.4049 C   0  0  0  1  0  0  0  0  0  0  0  0
   -1.2591   -0.9960    1.9237 C   0  0  0  1  0  0  0  0  0  0  0  0
   -3.0542   -0.8965    0.3401 O   0  0  0  1  0  0  0  0  0  0  0  0
   -2.5220    2.1542    1.9542 H   0  0  0  1  0  0  0  0  0  0  0  0
   -4.4819    4.1594    2.1079 H   0  0  0  1  0  0  0  0  0  0  0  0
   -3.9960    3.1137    3.4205 H   0  0  0  1  0  0  0  0  0  0  0  0
   -5.2534    2.6060    2.3181 H   0  0  0  1  0  0  0  0  0  0  0  0
   -1.3552   -0.4214    2.8212 H   0  0  0  1  0  0  0  0  0  0  0  0
   -0.2293   -1.0384    1.6363 H   0  0  0  1  0  0  0  0  0  0  0  0
   -1.6234   -1.9874    2.0945 H   0  0  0  1  0  0  0  0  0  0  0  0
    1.8558    0.7364   -6.4811 F   0  0  0  1  0  0  0  0  0  0  0  0
    1.9175    0.1971   -5.2623 C   0  0  0  1  0  0  0  0  0  0  0  0
    1.6097   -1.0937   -5.3982 F   0  0  0  1  0  0  0  0  0  0  0  0
    3.2102    0.2143   -4.9351 F   0  0  0  1  0  0  0  0  0  0  0  0
    1.0564    0.9147   -4.2441 C   0  0  0  1  0  0  0  0  0  0  0  0
    1.5821    1.2184   -2.9979 C   0  0  0  1  0  0  0  0  0  0  0  0
    0.7780    1.7886   -2.0291 C   0  0  0  1  0  0  0  0  0  0  0  0
   -0.5526    2.0617   -2.3052 C   0  0  0  1  0  0  0  0  0  0  0  0
   -1.0767    1.7588   -3.5477 C   0  0  0  1  0  0  0  0  0  0  0  0
   -0.2704    1.1869   -4.5195 C   0  0  0  1  0  0  0  0  0  0  0  0
   -1.4303    2.6902   -1.2487 C   0  0  0  1  0  0  0  0  0  0  0  0
    2.5815    1.0172   -2.7920 H   0  0  0  1  0  0  0  0  0  0  0  0
    1.1714    2.0128   -1.0928 H   0  0  0  1  0  0  0  0  0  0  0  0
   -2.0760    1.9600   -3.7535 H   0  0  0  1  0  0  0  0  0  0  0  0
   -0.6638    0.9627   -5.4558 H   0  0  0  1  0  0  0  0  0  0  0  0
   -0.7943    3.1610   -0.5285 H   0  0  0  1  0  0  0  0  0  0  0  0
   -2.0406    3.4296   -1.7238 H   0  0  0  1  0  0  0  0  0  0  0  0
  1  4  1  0  0  0  0
  2  4  1  0  0  0  0
  2  5  2  0  0  0  0
  2  6  1  0  0  0  0
  3  4  1  0  0  0  0
  3  7  1  0  0  0  0
  3  8  1  0  0  0  0
  4 29  1  0  0  0  0
  6  9  1  0  0  0  0
  6 12  1  0  0  0  0
  8 10  1  0  0  0  0
  8 11  2  0  0  0  0
  9 13  1  0  0  0  0
  9 14  1  0  0  0  0
  9 15  1  0  0  0  0
 10 16  1  0  0  0  0
 10 17  1  0  0  0  0
 10 18  1  0  0  0  0
 19 20  1  0  0  0  0
 20 21  1  0  0  0  0
 20 22  1  0  0  0  0
 20 23  1  0  0  0  0
 23 24  4  0  0  0  0
 23 28  4  0  0  0  0
 24 25  4  0  0  0  0
 24 30  1  0  0  0  0
 25 26  4  0  0  0  0
 25 31  1  0  0  0  0
 26 27  4  0  0  0  0
 26 29  1  0  0  0  0
 27 28  4  0  0  0  0
 27 32  1  0  0  0  0
 28 33  1  0  0  0  0
 29 34  1  0  0  0  0
 29 35  1  0  0  0  0
M  END
> <BCLConfClusterSize>
1

> <ConfClashScore>
0 

> <ConfOneFourInteractionScore>
-0.960318 

> <ConfScore>
0.2826 

> <ConfScorePBest>
0.00638132 

> <ConfTolerance>
0.399753 

> <RosettaParamsInstructions>
M  ROOT 3
M  POLY_N_BB 3
M  POLY_CA_BB 4
M  POLY_C_BB 2
M  POLY_O_BB 5
M  POLY_IGNORE 9 10 11 12 13 14 15 16 17 18 
M  POLY_UPPER 6
M  POLY_LOWER 8
M  POLY_CHG 0
M  POLY_PROPERTIES ALPHA_AA D_AA PROTEIN AROMATIC POLYMER 
M  END

$$$$



 35 35  0  0  0  0  0  0  0  0999 V2000
   -2.2676    4.5835   -0.7282 H   0  0  0  1  0  0  0  0  0  0  0  0
   -2.8361    4.2061   -2.7374 C   0  0  0  1  0  0  0  0  0  0  0  0
   -0.6069    4.8923   -1.9228 N   0  0  0  1  0  0  0  0  0  0  0  0
   -1.8171    4.1523   -1.5977 C   0  0  0  1  0  0  0  0  0  0  0  0
   -2.7193    5.0298   -3.6432 O   0  0  0  1  0  0  0  0  0  0  0  0
   -3.7730    3.2487   -2.6973 N   0  0  0  1  0  0  0  0  0  0  0  0
    0.2353    4.4013   -2.0223 H   0  0  0  1  0  0  0  0  0  0  0  0
   -0.6041    6.2234   -2.0908 C   0  0  0  1  0  0  0  0  0  0  0  0
   -4.8715    3.1956   -3.6504 C   0  0  0  1  0  0  0  0  0  0  0  0
    0.7569    6.8581   -2.3002 C   0  0  0  1  0  0  0  0  0  0  0  0
   -1.6294    6.9018   -2.0789 O   0  0  0  1  0  0  0  0  0  0  0  0
   -3.7165    2.5605   -2.0019 H   0  0  0  1  0  0  0  0  0  0  0  0
   -5.2175    2.1871   -3.7407 H   0  0  0  1  0  0  0  0  0  0  0  0
   -4.5330    3.5429   -4.6041 H   0  0  0  1  0  0  0  0  0  0  0  0
   -5.6716    3.8175   -3.3071 H   0  0  0  1  0  0  0  0  0  0  0  0
    1.5018    6.0927   -2.3649 H   0  0  0  1  0  0  0  0  0  0  0  0
    0.9797    7.5036   -1.4764 H   0  0  0  1  0  0  0  0  0  0  0  0
    0.7497    7.4260   -3.2071 H   0  0  0  1  0  0  0  0  0  0  0  0
    1.1952   -0.2344   -6.2997 F   0  0  0  1  0  0  0  0  0  0  0  0
    1.9166    0.1990   -5.2645 C   0  0  0  1  0  0  0  0  0  0  0  0
    2.5325   -0.8885   -4.7982 F   0  0  0  1  0  0  0  0  0  0  0  0
    2.8591    0.9525   -5.7922 F   0  0  0  1  0  0  0  0  0  0  0  0
    1.0874    0.9140   -4.2158 C   0  0  0  1  0  0  0  0  0  0  0  0
    1.5204    1.0319   -2.9042 C   0  0  0  1  0  0  0  0  0  0  0  0
    0.6968    1.6048   -1.9536 C   0  0  0  1  0  0  0  0  0  0  0  0
   -0.5600    2.0664   -2.3127 C   0  0  0  1  0  0  0  0  0  0  0  0
   -0.9915    1.9487   -3.6204 C   0  0  0  1  0  0  0  0  0  0  0  0
   -0.1657    1.3741   -4.5740 C   0  0  0  1  0  0  0  0  0  0  0  0
   -1.4582    2.6979   -1.2755 C   0  0  0  1  0  0  0  0  0  0  0  0
    2.4649    0.6892   -2.6356 H   0  0  0  1  0  0  0  0  0  0  0  0
    1.0200    1.6897   -0.9688 H   0  0  0  1  0  0  0  0  0  0  0  0
   -1.9360    2.2914   -3.8890 H   0  0  0  1  0  0  0  0  0  0  0  0
   -0.4890    1.2893   -5.5588 H   0  0  0  1  0  0  0  0  0  0  0  0
   -2.3625    2.1290   -1.2163 H   0  0  0  1  0  0  0  0  0  0  0  0
   -0.9574    2.6721   -0.3302 H   0  0  0  1  0  0  0  0  0  0  0  0
  1  4  1  0  0  0  0
  2  4  1  0  0  0  0
  2  5  2  0  0  0  0
  2  6  1  0  0  0  0
  3  4  1  0  0  0  0
  3  7  1  0  0  0  0
  3  8  1  0  0  0  0
  4 29  1  0  0  0  0
  6  9  1  0  0  0  0
  6 12  1  0  0  0  0
  8 10  1  0  0  0  0
  8 11  2  0  0  0  0
  9 13  1  0  0  0  0
  9 14  1  0  0  0  0
  9 15  1  0  0  0  0
 10 16  1  0  0  0  0
 10 17  1  0  0  0  0
 10 18  1  0  0  0  0
 19 20  1  0  0  0  0
 20 21  1  0  0  0  0
 20 22  1  0  0  0  0
 20 23  1  0  0  0  0
 23 24  4  0  0  0  0
 23 28  4  0  0  0  0
 24 25  4  0  0  0  0
 24 30  1  0  0  0  0
 25 26  4  0  0  0  0
 25 31  1  0  0  0  0
 26 27  4  0  0  0  0
 26 29  1  0  0  0  0
 27 28  4  0  0  0  0
 27 32  1  0  0  0  0
 28 33  1  0  0  0  0
 29 34  1  0  0  0  0
 29 35  1  0  0  0  0
M  END
> <BCLConfClusterSize>
1

> <ConfClashScore>
0.00217763 

> <ConfOneFourInteractionScore>
-0.95103 

> <ConfScore>
0.283234 

> <ConfScorePBest>
0.00635284 

> <ConfTolerance>
0.405246 

> <RosettaParamsInstructions>
M  ROOT 3
M  POLY_N_BB 3
M  POLY_CA_BB 4
M  POLY_C_BB 2
M  POLY_O_BB 5
M  POLY_IGNORE 9 10 11 12 13 14 15 16 17 18 
M  POLY_UPPER 6
M  POLY_LOWER 8
M  POLY_CHG 0
M  POLY_PROPERTIES ALPHA_AA D_AA PROTEIN AROMATIC POLYMER 
M  END

$$$$



 35 35  0  0  0  0  0  0  0  0999 V2000
   -2.6611    1.0241   -0.8351 H   0  0  0  1  0  0  0  0  0  0  0  0
   -2.9792    2.4016    0.7273 C   0  0  0  1  0  0  0  0  0  0  0  0
   -0.9970    0.9594    0.3947 N   0  0  0  1  0  0  0  0  0  0  0  0
   -2.0666    1.7106   -0.2692 C   0  0  0  1  0  0  0  0  0  0  0  0
   -3.3960    3.5349    0.4930 O   0  0  0  1  0  0  0  0  0  0  0  0
   -3.3570    1.6885    1.7937 N   0  0  0  1  0  0  0  0  0  0  0  0
   -0.8024    0.0473    0.0934 H   0  0  0  1  0  0  0  0  0  0  0  0
   -0.2782    1.4749    1.3960 C   0  0  0  1  0  0  0  0  0  0  0  0
   -4.2328    2.2313    2.8213 C   0  0  0  1  0  0  0  0  0  0  0  0
    0.6994    0.5260    2.0617 C   0  0  0  1  0  0  0  0  0  0  0  0
   -0.3888    2.6423    1.7682 O   0  0  0  1  0  0  0  0  0  0  0  0
   -3.0327    0.7683    1.8863 H   0  0  0  1  0  0  0  0  0  0  0  0
   -5.0774    2.6991    2.3602 H   0  0  0  1  0  0  0  0  0  0  0  0
   -3.6973    2.9542    3.4006 H   0  0  0  1  0  0  0  0  0  0  0  0
   -4.5676    1.4398    3.4588 H   0  0  0  1  0  0  0  0  0  0  0  0
    0.8518    0.8251    3.0777 H   0  0  0  1  0  0  0  0  0  0  0  0
    1.6326    0.5512    1.5389 H   0  0  0  1  0  0  0  0  0  0  0  0
    0.3036   -0.4678    2.0382 H   0  0  0  1  0  0  0  0  0  0  0  0
    3.2243    0.4659   -5.0967 F   0  0  0  1  0  0  0  0  0  0  0  0
    1.9270    0.2006   -5.2596 C   0  0  0  1  0  0  0  0  0  0  0  0
    1.6320    0.5400   -6.5154 F   0  0  0  1  0  0  0  0  0  0  0  0
    1.8058   -1.1258   -5.1926 F   0  0  0  1  0  0  0  0  0  0  0  0
    1.0572    0.9145   -4.2461 C   0  0  0  1  0  0  0  0  0  0  0  0
    1.6085    1.3265   -3.0428 C   0  0  0  1  0  0  0  0  0  0  0  0
    0.8042    1.8948   -2.0730 C   0  0  0  1  0  0  0  0  0  0  0  0
   -0.5526    2.0576   -2.3056 C   0  0  0  1  0  0  0  0  0  0  0  0
   -1.1020    1.6467   -3.5053 C   0  0  0  1  0  0  0  0  0  0  0  0
   -0.2956    1.0768   -4.4781 C   0  0  0  1  0  0  0  0  0  0  0  0
   -1.4310    2.6838   -1.2484 C   0  0  0  1  0  0  0  0  0  0  0  0
    2.6271    1.2080   -2.8698 H   0  0  0  1  0  0  0  0  0  0  0  0
    1.2170    2.2002   -1.1686 H   0  0  0  1  0  0  0  0  0  0  0  0
   -2.1207    1.7652   -3.6783 H   0  0  0  1  0  0  0  0  0  0  0  0
   -0.7085    0.7713   -5.3825 H   0  0  0  1  0  0  0  0  0  0  0  0
   -0.8335    3.3726   -0.6884 H   0  0  0  1  0  0  0  0  0  0  0  0
   -2.2171    3.2140   -1.7441 H   0  0  0  1  0  0  0  0  0  0  0  0
  1  4  1  0  0  0  0
  2  4  1  0  0  0  0
  2  5  2  0  0  0  0
  2  6  1  0  0  0  0
  3  4  1  0  0  0  0
  3  7  1  0  0  0  0
  3  8  1  0  0  0  0
  4 29  1  0  0  0  0
  6  9  1  0  0  0  0
  6 12  1  0  0  0  0
  8 10  1  0  0  0  0
  8 11  2  0  0  0  0
  9 13  1  0  0  0  0
  9 14  1  0  0  0  0
  9 15  1  0  0  0  0
 10 16  1  0  0  0  0
 10 17  1  0  0  0  0
 10 18  1  0  0  0  0
 19 20  1  0  0  0  0
 20 21  1  0  0  0  0
 20 22  1  0  0  0  0
 20 23  1  0  0  0  0
 23 24  4  0  0  0  0
 23 28  4  0  0  0  0
 24 25  4  0  0  0  0
 24 30  1  0  0  0  0
 25 26  4  0  0  0  0
 25 31  1  0  0  0  0
 26 27  4  0  0  0  0
 26 29  1  0  0  0  0
 27 28  4  0  0  0  0
 27 32  1  0  0  0  0
 28 33  1  0  0  0  0
 29 34  1  0  0  0  0
 29 35  1  0  0  0  0
M  END
> <BCLConfClusterSize>
1

> <ConfClashScore>
0 

> <ConfOneFourInteractionScore>
-0.976539 

> <ConfScore>
0.284506 

> <ConfScorePBest>
0.00632436 

> <ConfTolerance>
0.230157 

> <RosettaParamsInstructions>
M  ROOT 3
M  POLY_N_BB 3
M  POLY_CA_BB 4
M  POLY_C_BB 2
M  POLY_O_BB 5
M  POLY_IGNORE 9 10 11 12 13 14 15 16 17 18 
M  POLY_UPPER 6
M  POLY_LOWER 8
M  POLY_CHG 0
M  POLY_PROPERTIES ALPHA_AA D_AA PROTEIN AROMATIC POLYMER 
M  END

$$$$



 35 35  0  0  0  0  0  0  0  0999 V2000
   -2.3586    4.1627   -2.3168 H   0  0  0  1  0  0  0  0  0  0  0  0
   -0.5572    4.9878   -1.6111 C   0  0  0  1  0  0  0  0  0  0  0  0
   -2.6453    4.5279   -0.3115 N   0  0  0  1  0  0  0  0  0  0  0  0
   -1.7836    4.0942   -1.4171 C   0  0  0  1  0  0  0  0  0  0  0  0
   -0.0984    5.1860   -2.7351 O   0  0  0  1  0  0  0  0  0  0  0  0
   -0.1119    5.5764   -0.4959 N   0  0  0  1  0  0  0  0  0  0  0  0
   -2.9598    3.8601    0.3331 H   0  0  0  1  0  0  0  0  0  0  0  0
   -3.0175    5.8059   -0.1525 C   0  0  0  1  0  0  0  0  0  0  0  0
    1.0741    6.4156   -0.4133 C   0  0  0  1  0  0  0  0  0  0  0  0
   -3.9872    6.0755    0.9910 C   0  0  0  1  0  0  0  0  0  0  0  0
   -2.6123    6.7161   -0.8738 O   0  0  0  1  0  0  0  0  0  0  0  0
   -0.6228    5.4317    0.3278 H   0  0  0  1  0  0  0  0  0  0  0  0
    0.9767    7.0917    0.4103 H   0  0  0  1  0  0  0  0  0  0  0  0
    1.1806    6.9724   -1.3208 H   0  0  0  1  0  0  0  0  0  0  0  0
    1.9371    5.7998   -0.2687 H   0  0  0  1  0  0  0  0  0  0  0  0
   -4.7585    5.3339    0.9875 H   0  0  0  1  0  0  0  0  0  0  0  0
   -4.4238    7.0444    0.8671 H   0  0  0  1  0  0  0  0  0  0  0  0
   -3.4604    6.0374    1.9215 H   0  0  0  1  0  0  0  0  0  0  0  0
    3.2274    0.3925   -5.0471 F   0  0  0  1  0  0  0  0  0  0  0  0
    1.9248    0.1938   -5.2564 C   0  0  0  1  0  0  0  0  0  0  0  0
    1.6846    0.5851   -6.5088 F   0  0  0  1  0  0  0  0  0  0  0  0
    1.7406   -1.1269   -5.2357 F   0  0  0  1  0  0  0  0  0  0  0  0
    1.0582    0.9164   -4.2465 C   0  0  0  1  0  0  0  0  0  0  0  0
    1.6090    1.3240   -3.0415 C   0  0  0  1  0  0  0  0  0  0  0  0
    0.8066    1.9003   -2.0749 C   0  0  0  1  0  0  0  0  0  0  0  0
   -0.5477    2.0756   -2.3124 C   0  0  0  1  0  0  0  0  0  0  0  0
   -1.0968    1.6691   -3.5138 C   0  0  0  1  0  0  0  0  0  0  0  0
   -0.2923    1.0911   -4.4834 C   0  0  0  1  0  0  0  0  0  0  0  0
   -1.4483    2.6204   -1.2290 C   0  0  0  1  0  0  0  0  0  0  0  0
    2.6259    1.1962   -2.8648 H   0  0  0  1  0  0  0  0  0  0  0  0
    1.2191    2.2025   -1.1692 H   0  0  0  1  0  0  0  0  0  0  0  0
   -2.1137    1.7969   -3.6904 H   0  0  0  1  0  0  0  0  0  0  0  0
   -0.7047    0.7889   -5.3890 H   0  0  0  1  0  0  0  0  0  0  0  0
   -2.3603    2.0608   -1.2308 H   0  0  0  1  0  0  0  0  0  0  0  0
   -0.9575    2.5005   -0.2858 H   0  0  0  1  0  0  0  0  0  0  0  0
  1  4  1  0  0  0  0
  2  4  1  0  0  0  0
  2  5  2  0  0  0  0
  2  6  1  0  0  0  0
  3  4  1  0  0  0  0
  3  7  1  0  0  0  0
  3  8  1  0  0  0  0
  4 29  1  0  0  0  0
  6  9  1  0  0  0  0
  6 12  1  0  0  0  0
  8 10  1  0  0  0  0
  8 11  2  0  0  0  0
  9 13  1  0  0  0  0
  9 14  1  0  0  0  0
  9 15  1  0  0  0  0
 10 16  1  0  0  0  0
 10 17  1  0  0  0  0
 10 18  1  0  0  0  0
 19 20  1  0  0  0  0
 20 21  1  0  0  0  0
 20 22  1  0  0  0  0
 20 23  1  0  0  0  0
 23 24  4  0  0  0  0
 23 28  4  0  0  0  0
 24 25  4  0  0  0  0
 24 30  1  0  0  0  0
 25 26  4  0  0  0  0
 25 31  1  0  0  0  0
 26 27  4  0  0  0  0
 26 29  1  0  0  0  0
 27 28  4  0  0  0  0
 27 32  1  0  0  0  0
 28 33  1  0  0  0  0
 29 34  1  0  0  0  0
 29 35  1  0  0  0  0
M  END
> <BCLConfClusterSize>
1

> <ConfClashScore>
0 

> <ConfOneFourInteractionScore>
-0.960318 

> <ConfScore>
0.284566 

> <ConfScorePBest>
0.00629587 

> <ConfTolerance>
0.313757 

> <RosettaParamsInstructions>
M  ROOT 3
M  POLY_N_BB 3
M  POLY_CA_BB 4
M  POLY_C_BB 2
M  POLY_O_BB 5
M  POLY_IGNORE 9 10 11 12 13 14 15 16 17 18 
M  POLY_UPPER 6
M  POLY_LOWER 8
M  POLY_CHG 0
M  POLY_PROPERTIES ALPHA_AA D_AA PROTEIN AROMATIC POLYMER 
M  END

$$$$



 35 35  0  0  0  0  0  0  0  0999 V2000
   -1.5498    4.7342   -1.7659 H   0  0  0  1  0  0  0  0  0  0  0  0
    0.2776    4.4384   -0.7324 C   0  0  0  1  0  0  0  0  0  0  0  0
   -1.9561    4.5426    0.2541 N   0  0  0  1  0  0  0  0  0  0  0  0
   -1.2107    4.1496   -0.9364 C   0  0  0  1  0  0  0  0  0  0  0  0
    0.8834    3.9464    0.2071 O   0  0  0  1  0  0  0  0  0  0  0  0
    0.8424    5.1780   -1.6969 N   0  0  0  1  0  0  0  0  0  0  0  0
   -2.5960    3.8976    0.6215 H   0  0  0  1  0  0  0  0  0  0  0  0
   -1.8324    5.7137    0.8806 C   0  0  0  1  0  0  0  0  0  0  0  0
    2.2415    5.5761   -1.6525 C   0  0  0  1  0  0  0  0  0  0  0  0
   -2.7853    5.9464    2.0355 C   0  0  0  1  0  0  0  0  0  0  0  0
   -1.0051    6.5615    0.5562 O   0  0  0  1  0  0  0  0  0  0  0  0
    0.2942    5.4604   -2.4585 H   0  0  0  1  0  0  0  0  0  0  0  0
    2.4644    6.1924   -2.4983 H   0  0  0  1  0  0  0  0  0  0  0  0
    2.8611    4.7040   -1.6738 H   0  0  0  1  0  0  0  0  0  0  0  0
    2.4276    6.1247   -0.7529 H   0  0  0  1  0  0  0  0  0  0  0  0
   -2.2643    6.4264    2.8374 H   0  0  0  1  0  0  0  0  0  0  0  0
   -3.1720    5.0076    2.3732 H   0  0  0  1  0  0  0  0  0  0  0  0
   -3.5926    6.5694    1.7115 H   0  0  0  1  0  0  0  0  0  0  0  0
    1.1978   -0.4609   -6.1622 F   0  0  0  1  0  0  0  0  0  0  0  0
    1.9259    0.1936   -5.2559 C   0  0  0  1  0  0  0  0  0  0  0  0
    2.7317   -0.7126   -4.7001 F   0  0  0  1  0  0  0  0  0  0  0  0
    2.7137    1.0248   -5.9395 F   0  0  0  1  0  0  0  0  0  0  0  0
    1.0705    0.9135   -4.2345 C   0  0  0  1  0  0  0  0  0  0  0  0
    1.4996    0.9931   -2.9188 C   0  0  0  1  0  0  0  0  0  0  0  0
    0.6851    1.5652   -1.9599 C   0  0  0  1  0  0  0  0  0  0  0  0
   -0.5585    2.0643   -2.3147 C   0  0  0  1  0  0  0  0  0  0  0  0
   -0.9861    1.9848   -3.6266 C   0  0  0  1  0  0  0  0  0  0  0  0
   -0.1694    1.4111   -4.5885 C   0  0  0  1  0  0  0  0  0  0  0  0
   -1.4466    2.6949   -1.2683 C   0  0  0  1  0  0  0  0  0  0  0  0
    2.4343    0.6223   -2.6533 H   0  0  0  1  0  0  0  0  0  0  0  0
    1.0053    1.6213   -0.9720 H   0  0  0  1  0  0  0  0  0  0  0  0
   -1.9208    2.3556   -3.8921 H   0  0  0  1  0  0  0  0  0  0  0  0
   -0.4897    1.3550   -5.5764 H   0  0  0  1  0  0  0  0  0  0  0  0
   -2.4569    2.6040   -1.6089 H   0  0  0  1  0  0  0  0  0  0  0  0
   -1.3228    2.1361   -0.3643 H   0  0  0  1  0  0  0  0  0  0  0  0
  1  4  1  0  0  0  0
  2  4  1  0  0  0  0
  2  5  2  0  0  0  0
  2  6  1  0  0  0  0
  3  4  1  0  0  0  0
  3  7  1  0  0  0  0
  3  8  1  0  0  0  0
  4 29  1  0  0  0  0
  6  9  1  0  0  0  0
  6 12  1  0  0  0  0
  8 10  1  0  0  0  0
  8 11  2  0  0  0  0
  9 13  1  0  0  0  0
  9 14  1  0  0  0  0
  9 15  1  0  0  0  0
 10 16  1  0  0  0  0
 10 17  1  0  0  0  0
 10 18  1  0  0  0  0
 19 20  1  0  0  0  0
 20 21  1  0  0  0  0
 20 22  1  0  0  0  0
 20 23  1  0  0  0  0
 23 24  4  0  0  0  0
 23 28  4  0  0  0  0
 24 25  4  0  0  0  0
 24 30  1  0  0  0  0
 25 26  4  0  0  0  0
 25 31  1  0  0  0  0
 26 27  4  0  0  0  0
 26 29  1  0  0  0  0
 27 28  4  0  0  0  0
 27 32  1  0  0  0  0
 28 33  1  0  0  0  0
 29 34  1  0  0  0  0
 29 35  1  0  0  0  0
M  END
> <BCLConfClusterSize>
1

> <ConfClashScore>
0 

> <ConfOneFourInteractionScore>
-0.981931 

> <ConfScore>
0.287338 

> <ConfScorePBest>
0.00626739 

> <ConfTolerance>
0.385165 

> <RosettaParamsInstructions>
M  ROOT 3
M  POLY_N_BB 3
M  POLY_CA_BB 4
M  POLY_C_BB 2
M  POLY_O_BB 5
M  POLY_IGNORE 9 10 11 12 13 14 15 16 17 18 
M  POLY_UPPER 6
M  POLY_LOWER 8
M  POLY_CHG 0
M  POLY_PROPERTIES ALPHA_AA D_AA PROTEIN AROMATIC POLYMER 
M  END

$$$$



 35 35  0  0  0  0  0  0  0  0999 V2000
   -1.8996    4.5603   -0.3672 H   0  0  0  1  0  0  0  0  0  0  0  0
   -1.6702    4.8948   -2.4566 C   0  0  0  1  0  0  0  0  0  0  0  0
    0.1271    4.4397   -0.7830 N   0  0  0  1  0  0  0  0  0  0  0  0
   -1.2616    4.2046   -1.1491 C   0  0  0  1  0  0  0  0  0  0  0  0
   -2.8479    4.9441   -2.7765 O   0  0  0  1  0  0  0  0  0  0  0  0
   -0.6972    5.4937   -3.1515 N   0  0  0  1  0  0  0  0  0  0  0  0
    0.8162    3.8341   -1.1278 H   0  0  0  1  0  0  0  0  0  0  0  0
    0.5070    5.4846    0.0317 C   0  0  0  1  0  0  0  0  0  0  0  0
   -0.9266    6.3702   -4.2904 C   0  0  0  1  0  0  0  0  0  0  0  0
    1.9855    5.6893    0.1899 C   0  0  0  1  0  0  0  0  0  0  0  0
   -0.3366    6.1752    0.5714 O   0  0  0  1  0  0  0  0  0  0  0  0
    0.2294    5.3322   -2.8763 H   0  0  0  1  0  0  0  0  0  0  0  0
   -1.3526    5.8071   -5.0943 H   0  0  0  1  0  0  0  0  0  0  0  0
    0.0032    6.7950   -4.6062 H   0  0  0  1  0  0  0  0  0  0  0  0
   -1.5993    7.1529   -4.0079 H   0  0  0  1  0  0  0  0  0  0  0  0
    2.3869    4.9226    0.8192 H   0  0  0  1  0  0  0  0  0  0  0  0
    2.1674    6.6459    0.6334 H   0  0  0  1  0  0  0  0  0  0  0  0
    2.4561    5.6453   -0.7700 H   0  0  0  1  0  0  0  0  0  0  0  0
    1.7502   -1.1113   -5.2304 F   0  0  0  1  0  0  0  0  0  0  0  0
    1.9205    0.2113   -5.2739 C   0  0  0  1  0  0  0  0  0  0  0  0
    3.2132    0.3787   -5.1161 F   0  0  0  1  0  0  0  0  0  0  0  0
    1.5979    0.5503   -6.4981 F   0  0  0  1  0  0  0  0  0  0  0  0
    1.0937    0.9183   -4.2178 C   0  0  0  1  0  0  0  0  0  0  0  0
    1.4997    0.9718   -2.8935 C   0  0  0  1  0  0  0  0  0  0  0  0
    0.6755    1.5403   -1.9406 C   0  0  0  1  0  0  0  0  0  0  0  0
   -0.5545    2.0617   -2.3101 C   0  0  0  1  0  0  0  0  0  0  0  0
   -0.9592    2.0083   -3.6305 C   0  0  0  1  0  0  0  0  0  0  0  0
   -0.1328    1.4381   -4.5863 C   0  0  0  1  0  0  0  0  0  0  0  0
   -1.4946    2.7000   -1.3149 C   0  0  0  1  0  0  0  0  0  0  0  0
    2.4243    0.5842   -2.6169 H   0  0  0  1  0  0  0  0  0  0  0  0
    0.9784    1.5769   -0.9464 H   0  0  0  1  0  0  0  0  0  0  0  0
   -1.8838    2.3959   -3.9070 H   0  0  0  1  0  0  0  0  0  0  0  0
   -0.4357    1.4016   -5.5806 H   0  0  0  1  0  0  0  0  0  0  0  0
   -2.4996    2.5457   -1.6483 H   0  0  0  1  0  0  0  0  0  0  0  0
   -1.3570    2.2273   -0.3649 H   0  0  0  1  0  0  0  0  0  0  0  0
  1  4  1  0  0  0  0
  2  4  1  0  0  0  0
  2  5  2  0  0  0  0
  2  6  1  0  0  0  0
  3  4  1  0  0  0  0
  3  7  1  0  0  0  0
  3  8  1  0  0  0  0
  4 29  1  0  0  0  0
  6  9  1  0  0  0  0
  6 12  1  0  0  0  0
  8 10  1  0  0  0  0
  8 11  2  0  0  0  0
  9 13  1  0  0  0  0
  9 14  1  0  0  0  0
  9 15  1  0  0  0  0
 10 16  1  0  0  0  0
 10 17  1  0  0  0  0
 10 18  1  0  0  0  0
 19 20  1  0  0  0  0
 20 21  1  0  0  0  0
 20 22  1  0  0  0  0
 20 23  1  0  0  0  0
 23 24  4  0  0  0  0
 23 28  4  0  0  0  0
 24 25  4  0  0  0  0
 24 30  1  0  0  0  0
 25 26  4  0  0  0  0
 25 31  1  0  0  0  0
 26 27  4  0  0  0  0
 26 29  1  0  0  0  0
 27 28  4  0  0  0  0
 27 32  1  0  0  0  0
 28 33  1  0  0  0  0
 29 34  1  0  0  0  0
 29 35  1  0  0  0  0
M  END
> <BCLConfClusterSize>
1

> <ConfClashScore>
0 

> <ConfOneFourInteractionScore>
-0.950605 

> <ConfScore>
0.290272 

> <ConfScorePBest>
0.00623891 

> <ConfTolerance>
0.399006 

> <RosettaParamsInstructions>
M  ROOT 3
M  POLY_N_BB 3
M  POLY_CA_BB 4
M  POLY_C_BB 2
M  POLY_O_BB 5
M  POLY_IGNORE 9 10 11 12 13 14 15 16 17 18 
M  POLY_UPPER 6
M  POLY_LOWER 8
M  POLY_CHG 0
M  POLY_PROPERTIES ALPHA_AA D_AA PROTEIN AROMATIC POLYMER 
M  END

$$$$



 35 35  0  0  0  0  0  0  0  0999 V2000
   -2.4018    2.2271    0.5782 H   0  0  0  1  0  0  0  0  0  0  0  0
   -0.7255    0.9475    0.4044 C   0  0  0  1  0  0  0  0  0  0  0  0
   -2.8672    0.7557   -0.7991 N   0  0  0  1  0  0  0  0  0  0  0  0
   -1.9146    1.6794   -0.2014 C   0  0  0  1  0  0  0  0  0  0  0  0
   -0.1607    1.4101    1.3943 O   0  0  0  1  0  0  0  0  0  0  0  0
   -0.4046   -0.2324   -0.1370 N   0  0  0  1  0  0  0  0  0  0  0  0
   -3.3235    1.0164   -1.6263 H   0  0  0  1  0  0  0  0  0  0  0  0
   -3.1412   -0.4353   -0.2594 C   0  0  0  1  0  0  0  0  0  0  0  0
    0.7307   -1.0168    0.3253 C   0  0  0  1  0  0  0  0  0  0  0  0
   -4.1145   -1.2977   -1.0308 C   0  0  0  1  0  0  0  0  0  0  0  0
   -2.6433   -0.8227    0.7968 O   0  0  0  1  0  0  0  0  0  0  0  0
   -0.9531   -0.5810   -0.8705 H   0  0  0  1  0  0  0  0  0  0  0  0
    1.4631   -0.3659    0.7552 H   0  0  0  1  0  0  0  0  0  0  0  0
    1.1617   -1.5415   -0.5016 H   0  0  0  1  0  0  0  0  0  0  0  0
    0.4020   -1.7196    1.0621 H   0  0  0  1  0  0  0  0  0  0  0  0
   -3.7102   -1.5157   -1.9972 H   0  0  0  1  0  0  0  0  0  0  0  0
   -5.0422   -0.7763   -1.1419 H   0  0  0  1  0  0  0  0  0  0  0  0
   -4.2797   -2.2115   -0.4992 H   0  0  0  1  0  0  0  0  0  0  0  0
    2.1428    0.9734   -6.3349 F   0  0  0  1  0  0  0  0  0  0  0  0
    1.9131    0.1953   -5.2758 C   0  0  0  1  0  0  0  0  0  0  0  0
    1.3171   -0.9156   -5.7119 F   0  0  0  1  0  0  0  0  0  0  0  0
    3.1017   -0.1601   -4.7796 F   0  0  0  1  0  0  0  0  0  0  0  0
    1.0788    0.9146   -4.2340 C   0  0  0  1  0  0  0  0  0  0  0  0
    1.6105    1.2882   -3.0096 C   0  0  0  1  0  0  0  0  0  0  0  0
    0.7968    1.8555   -2.0471 C   0  0  0  1  0  0  0  0  0  0  0  0
   -0.5498    2.0557   -2.3081 C   0  0  0  1  0  0  0  0  0  0  0  0
   -1.0798    1.6831   -3.5289 C   0  0  0  1  0  0  0  0  0  0  0  0
   -0.2639    1.1141   -4.4944 C   0  0  0  1  0  0  0  0  0  0  0  0
   -1.4384    2.6809   -1.2588 C   0  0  0  1  0  0  0  0  0  0  0  0
    2.6217    1.1418   -2.8152 H   0  0  0  1  0  0  0  0  0  0  0  0
    1.1948    2.1322   -1.1270 H   0  0  0  1  0  0  0  0  0  0  0  0
   -2.0909    1.8295   -3.7233 H   0  0  0  1  0  0  0  0  0  0  0  0
   -0.6619    0.8375   -5.4145 H   0  0  0  1  0  0  0  0  0  0  0  0
   -0.8913    3.4591   -0.7689 H   0  0  0  1  0  0  0  0  0  0  0  0
   -2.2962    3.0981   -1.7436 H   0  0  0  1  0  0  0  0  0  0  0  0
  1  4  1  0  0  0  0
  2  4  1  0  0  0  0
  2  5  2  0  0  0  0
  2  6  1  0  0  0  0
  3  4  1  0  0  0  0
  3  7  1  0  0  0  0
  3  8  1  0  0  0  0
  4 29  1  0  0  0  0
  6  9  1  0  0  0  0
  6 12  1  0  0  0  0
  8 10  1  0  0  0  0
  8 11  2  0  0  0  0
  9 13  1  0  0  0  0
  9 14  1  0  0  0  0
  9 15  1  0  0  0  0
 10 16  1  0  0  0  0
 10 17  1  0  0  0  0
 10 18  1  0  0  0  0
 19 20  1  0  0  0  0
 20 21  1  0  0  0  0
 20 22  1  0  0  0  0
 20 23  1  0  0  0  0
 23 24  4  0  0  0  0
 23 28  4  0  0  0  0
 24 25  4  0  0  0  0
 24 30  1  0  0  0  0
 25 26  4  0  0  0  0
 25 31  1  0  0  0  0
 26 27  4  0  0  0  0
 26 29  1  0  0  0  0
 27 28  4  0  0  0  0
 27 32  1  0  0  0  0
 28 33  1  0  0  0  0
 29 34  1  0  0  0  0
 29 35  1  0  0  0  0
M  END
> <BCLConfClusterSize>
1

> <ConfClashScore>
0 

> <ConfOneFourInteractionScore>
-0.950025 

> <ConfScore>
0.290924 

> <ConfScorePBest>
0.00621043 

> <ConfTolerance>
0.373269 

> <RosettaParamsInstructions>
M  ROOT 3
M  POLY_N_BB 3
M  POLY_CA_BB 4
M  POLY_C_BB 2
M  POLY_O_BB 5
M  POLY_IGNORE 9 10 11 12 13 14 15 16 17 18 
M  POLY_UPPER 6
M  POLY_LOWER 8
M  POLY_CHG 0
M  POLY_PROPERTIES ALPHA_AA D_AA PROTEIN AROMATIC POLYMER 
M  END

$$$$



 35 35  0  0  0  0  0  0  0  0999 V2000
   -2.8812    1.1846   -0.9592 H   0  0  0  1  0  0  0  0  0  0  0  0
   -2.9566    2.4359    0.7339 C   0  0  0  1  0  0  0  0  0  0  0  0
   -1.2247    0.8141    0.1642 N   0  0  0  1  0  0  0  0  0  0  0  0
   -2.1804    1.7305   -0.3627 C   0  0  0  1  0  0  0  0  0  0  0  0
   -3.6321    3.4350    0.4917 O   0  0  0  1  0  0  0  0  0  0  0  0
   -2.9330    1.8613    1.9412 N   0  0  0  1  0  0  0  0  0  0  0  0
   -1.1979   -0.0984   -0.1921 H   0  0  0  1  0  0  0  0  0  0  0  0
   -0.3668    1.1547    1.1239 C   0  0  0  1  0  0  0  0  0  0  0  0
   -3.6077    2.4425    3.0922 C   0  0  0  1  0  0  0  0  0  0  0  0
    0.7958    0.1890    1.3692 C   0  0  0  1  0  0  0  0  0  0  0  0
   -0.4280    2.1569    1.8144 O   0  0  0  1  0  0  0  0  0  0  0  0
   -2.4443    1.0194    2.0548 H   0  0  0  1  0  0  0  0  0  0  0  0
   -3.7766    3.4847    2.9185 H   0  0  0  1  0  0  0  0  0  0  0  0
   -2.9971    2.3205    3.9624 H   0  0  0  1  0  0  0  0  0  0  0  0
   -4.5455    1.9496    3.2420 H   0  0  0  1  0  0  0  0  0  0  0  0
    1.7199    0.6767    1.1387 H   0  0  0  1  0  0  0  0  0  0  0  0
    0.6817   -0.6721    0.7444 H   0  0  0  1  0  0  0  0  0  0  0  0
    0.7982   -0.1123    2.3959 H   0  0  0  1  0  0  0  0  0  0  0  0
    1.1620   -0.4871   -6.1334 F   0  0  0  1  0  0  0  0  0  0  0  0
    1.9146    0.1928   -5.2665 C   0  0  0  1  0  0  0  0  0  0  0  0
    2.7613   -0.6904   -4.7353 F   0  0  0  1  0  0  0  0  0  0  0  0
    2.6556    1.0309   -5.9925 F   0  0  0  1  0  0  0  0  0  0  0  0
    1.0878    0.9089   -4.2166 C   0  0  0  1  0  0  0  0  0  0  0  0
    1.5035    0.9907   -2.8967 C   0  0  0  1  0  0  0  0  0  0  0  0
    0.6802    1.5666   -1.9475 C   0  0  0  1  0  0  0  0  0  0  0  0
   -0.5587    2.0672   -2.3163 C   0  0  0  1  0  0  0  0  0  0  0  0
   -0.9730    1.9855   -3.6323 C   0  0  0  1  0  0  0  0  0  0  0  0
   -0.1475    1.4080   -4.5844 C   0  0  0  1  0  0  0  0  0  0  0  0
   -1.4563    2.7019   -1.2805 C   0  0  0  1  0  0  0  0  0  0  0  0
    2.4346    0.6188   -2.6207 H   0  0  0  1  0  0  0  0  0  0  0  0
    0.9903    1.6244   -0.9565 H   0  0  0  1  0  0  0  0  0  0  0  0
   -1.9041    2.3575   -3.9083 H   0  0  0  1  0  0  0  0  0  0  0  0
   -0.4576    1.3503   -5.5754 H   0  0  0  1  0  0  0  0  0  0  0  0
   -0.8552    3.3449   -0.6722 H   0  0  0  1  0  0  0  0  0  0  0  0
   -2.1937    3.2827   -1.7941 H   0  0  0  1  0  0  0  0  0  0  0  0
  1  4  1  0  0  0  0
  2  4  1  0  0  0  0
  2  5  2  0  0  0  0
  2  6  1  0  0  0  0
  3  4  1  0  0  0  0
  3  7  1  0  0  0  0
  3  8  1  0  0  0  0
  4 29  1  0  0  0  0
  6  9  1  0  0  0  0
  6 12  1  0  0  0  0
  8 10  1  0  0  0  0
  8 11  2  0  0  0  0
  9 13  1  0  0  0  0
  9 14  1  0  0  0  0
  9 15  1  0  0  0  0
 10 16  1  0  0  0  0
 10 17  1  0  0  0  0
 10 18  1  0  0  0  0
 19 20  1  0  0  0  0
 20 21  1  0  0  0  0
 20 22  1  0  0  0  0
 20 23  1  0  0  0  0
 23 24  4  0  0  0  0
 23 28  4  0  0  0  0
 24 25  4  0  0  0  0
 24 30  1  0  0  0  0
 25 26  4  0  0  0  0
 25 31  1  0  0  0  0
 26 27  4  0  0  0  0
 26 29  1  0  0  0  0
 27 28  4  0  0  0  0
 27 32  1  0  0  0  0
 28 33  1  0  0  0  0
 29 34  1  0  0  0  0
 29 35  1  0  0  0  0
M  END
> <BCLConfClusterSize>
1

> <ConfClashScore>
0 

> <ConfOneFourInteractionScore>
-0.939055 

> <ConfScore>
0.291494 

> <ConfScorePBest>
0.00618195 

> <ConfTolerance>
0.322137 

> <RosettaParamsInstructions>
M  ROOT 3
M  POLY_N_BB 3
M  POLY_CA_BB 4
M  POLY_C_BB 2
M  POLY_O_BB 5
M  POLY_IGNORE 9 10 11 12 13 14 15 16 17 18 
M  POLY_UPPER 6
M  POLY_LOWER 8
M  POLY_CHG 0
M  POLY_PROPERTIES ALPHA_AA D_AA PROTEIN AROMATIC POLYMER 
M  END

$$$$



 35 35  0  0  0  0  0  0  0  0999 V2000
   -2.1727    4.5045   -0.4972 H   0  0  0  1  0  0  0  0  0  0  0  0
   -2.2730    4.6577   -2.6026 C   0  0  0  1  0  0  0  0  0  0  0  0
   -0.2395    4.7775   -1.1874 N   0  0  0  1  0  0  0  0  0  0  0  0
   -1.5759    4.1915   -1.3283 C   0  0  0  1  0  0  0  0  0  0  0  0
   -3.1053    3.9574   -3.1581 O   0  0  0  1  0  0  0  0  0  0  0  0
   -1.9869    5.8969   -3.0159 N   0  0  0  1  0  0  0  0  0  0  0  0
    0.0086    5.1895   -0.3335 H   0  0  0  1  0  0  0  0  0  0  0  0
    0.6607    4.7693   -2.1923 C   0  0  0  1  0  0  0  0  0  0  0  0
   -2.6566    6.4507   -4.1833 C   0  0  0  1  0  0  0  0  0  0  0  0
    2.0062    5.4249   -1.9494 C   0  0  0  1  0  0  0  0  0  0  0  0
    0.4000    4.2459   -3.2748 O   0  0  0  1  0  0  0  0  0  0  0  0
   -1.3248    6.4332   -2.5317 H   0  0  0  1  0  0  0  0  0  0  0  0
   -3.0133    5.6538   -4.8019 H   0  0  0  1  0  0  0  0  0  0  0  0
   -1.9668    7.0514   -4.7383 H   0  0  0  1  0  0  0  0  0  0  0  0
   -3.4821    7.0539   -3.8678 H   0  0  0  1  0  0  0  0  0  0  0  0
    1.8774    6.4836   -1.8637 H   0  0  0  1  0  0  0  0  0  0  0  0
    2.6602    5.2105   -2.7687 H   0  0  0  1  0  0  0  0  0  0  0  0
    2.4305    5.0431   -1.0443 H   0  0  0  1  0  0  0  0  0  0  0  0
    3.2099    0.1675   -4.9518 F   0  0  0  1  0  0  0  0  0  0  0  0
    1.9150    0.2008   -5.2712 C   0  0  0  1  0  0  0  0  0  0  0  0
    1.8420    0.7777   -6.4717 F   0  0  0  1  0  0  0  0  0  0  0  0
    1.5392   -1.0698   -5.4430 F   0  0  0  1  0  0  0  0  0  0  0  0
    1.0783    0.9183   -4.2301 C   0  0  0  1  0  0  0  0  0  0  0  0
    1.6087    1.2946   -3.0059 C   0  0  0  1  0  0  0  0  0  0  0  0
    0.7930    1.8600   -2.0440 C   0  0  0  1  0  0  0  0  0  0  0  0
   -0.5542    2.0557   -2.3053 C   0  0  0  1  0  0  0  0  0  0  0  0
   -1.0829    1.6804   -3.5259 C   0  0  0  1  0  0  0  0  0  0  0  0
   -0.2650    1.1134   -4.4908 C   0  0  0  1  0  0  0  0  0  0  0  0
   -1.4449    2.6789   -1.2566 C   0  0  0  1  0  0  0  0  0  0  0  0
    2.6202    1.1515   -2.8113 H   0  0  0  1  0  0  0  0  0  0  0  0
    1.1900    2.1387   -1.1241 H   0  0  0  1  0  0  0  0  0  0  0  0
   -2.0944    1.8235   -3.7205 H   0  0  0  1  0  0  0  0  0  0  0  0
   -0.6621    0.8347   -5.4107 H   0  0  0  1  0  0  0  0  0  0  0  0
   -2.4228    2.2575   -1.3614 H   0  0  0  1  0  0  0  0  0  0  0  0
   -1.0487    2.4271   -0.2951 H   0  0  0  1  0  0  0  0  0  0  0  0
  1  4  1  0  0  0  0
  2  4  1  0  0  0  0
  2  5  2  0  0  0  0
  2  6  1  0  0  0  0
  3  4  1  0  0  0  0
  3  7  1  0  0  0  0
  3  8  1  0  0  0  0
  4 29  1  0  0  0  0
  6  9  1  0  0  0  0
  6 12  1  0  0  0  0
  8 10  1  0  0  0  0
  8 11  2  0  0  0  0
  9 13  1  0  0  0  0
  9 14  1  0  0  0  0
  9 15  1  0  0  0  0
 10 16  1  0  0  0  0
 10 17  1  0  0  0  0
 10 18  1  0  0  0  0
 19 20  1  0  0  0  0
 20 21  1  0  0  0  0
 20 22  1  0  0  0  0
 20 23  1  0  0  0  0
 23 24  4  0  0  0  0
 23 28  4  0  0  0  0
 24 25  4  0  0  0  0
 24 30  1  0  0  0  0
 25 26  4  0  0  0  0
 25 31  1  0  0  0  0
 26 27  4  0  0  0  0
 26 29  1  0  0  0  0
 27 28  4  0  0  0  0
 27 32  1  0  0  0  0
 28 33  1  0  0  0  0
 29 34  1  0  0  0  0
 29 35  1  0  0  0  0
M  END
> <BCLConfClusterSize>
1

> <ConfClashScore>
0 

> <ConfOneFourInteractionScore>
-0.947651 

> <ConfScore>
0.295859 

> <ConfScorePBest>
0.00615347 

> <ConfTolerance>
0.255147 

> <RosettaParamsInstructions>
M  ROOT 3
M  POLY_N_BB 3
M  POLY_CA_BB 4
M  POLY_C_BB 2
M  POLY_O_BB 5
M  POLY_IGNORE 9 10 11 12 13 14 15 16 17 18 
M  POLY_UPPER 6
M  POLY_LOWER 8
M  POLY_CHG 0
M  POLY_PROPERTIES ALPHA_AA D_AA PROTEIN AROMATIC POLYMER 
M  END

$$$$



 35 35  0  0  0  0  0  0  0  0999 V2000
   -1.8294    1.1334    0.0228 H   0  0  0  1  0  0  0  0  0  0  0  0
   -3.2966    1.0978   -1.4813 C   0  0  0  1  0  0  0  0  0  0  0  0
   -3.1629    2.6458    0.4328 N   0  0  0  1  0  0  0  0  0  0  0  0
   -2.3994    1.8565   -0.5222 C   0  0  0  1  0  0  0  0  0  0  0  0
   -2.9019    0.0813   -2.0504 O   0  0  0  1  0  0  0  0  0  0  0  0
   -4.5544    1.5451   -1.5987 N   0  0  0  1  0  0  0  0  0  0  0  0
   -2.9323    3.5939    0.5241 H   0  0  0  1  0  0  0  0  0  0  0  0
   -4.1525    2.1761    1.1930 C   0  0  0  1  0  0  0  0  0  0  0  0
   -5.5898    0.7837   -2.2814 C   0  0  0  1  0  0  0  0  0  0  0  0
   -4.7150    3.1450    2.2148 C   0  0  0  1  0  0  0  0  0  0  0  0
   -4.5934    1.0347    1.0868 O   0  0  0  1  0  0  0  0  0  0  0  0
   -4.7850    2.4153   -1.2114 H   0  0  0  1  0  0  0  0  0  0  0  0
   -5.1374    0.0101   -2.8661 H   0  0  0  1  0  0  0  0  0  0  0  0
   -6.1472    1.4348   -2.9220 H   0  0  0  1  0  0  0  0  0  0  0  0
   -6.2460    0.3464   -1.5582 H   0  0  0  1  0  0  0  0  0  0  0  0
   -4.9930    4.0563    1.7277 H   0  0  0  1  0  0  0  0  0  0  0  0
   -3.9728    3.3501    2.9578 H   0  0  0  1  0  0  0  0  0  0  0  0
   -5.5761    2.7124    2.6799 H   0  0  0  1  0  0  0  0  0  0  0  0
    2.0649    0.8945   -6.3988 F   0  0  0  1  0  0  0  0  0  0  0  0
    1.9346    0.2127   -5.2595 C   0  0  0  1  0  0  0  0  0  0  0  0
    1.4224   -0.9623   -5.6288 F   0  0  0  1  0  0  0  0  0  0  0  0
    3.1467   -0.0517   -4.8173 F   0  0  0  1  0  0  0  0  0  0  0  0
    1.0629    0.9171   -4.2411 C   0  0  0  1  0  0  0  0  0  0  0  0
    1.5957    1.2634   -3.0091 C   0  0  0  1  0  0  0  0  0  0  0  0
    0.7857    1.8218   -2.0384 C   0  0  0  1  0  0  0  0  0  0  0  0
   -0.5582    2.0405   -2.2985 C   0  0  0  1  0  0  0  0  0  0  0  0
   -1.0893    1.6951   -3.5268 C   0  0  0  1  0  0  0  0  0  0  0  0
   -0.2771    1.1351   -4.5006 C   0  0  0  1  0  0  0  0  0  0  0  0
   -1.4106    2.7443   -1.2691 C   0  0  0  1  0  0  0  0  0  0  0  0
    2.6048    1.1031   -2.8153 H   0  0  0  1  0  0  0  0  0  0  0  0
    1.1845    2.0780   -1.1127 H   0  0  0  1  0  0  0  0  0  0  0  0
   -2.0984    1.8555   -3.7206 H   0  0  0  1  0  0  0  0  0  0  0  0
   -0.6759    0.8789   -5.4263 H   0  0  0  1  0  0  0  0  0  0  0  0
   -0.7572    3.1898   -0.5483 H   0  0  0  1  0  0  0  0  0  0  0  0
   -1.9665    3.5100   -1.7687 H   0  0  0  1  0  0  0  0  0  0  0  0
  1  4  1  0  0  0  0
  2  4  1  0  0  0  0
  2  5  2  0  0  0  0
  2  6  1  0  0  0  0
  3  4  1  0  0  0  0
  3  7  1  0  0  0  0
  3  8  1  0  0  0  0
  4 29  1  0  0  0  0
  6  9  1  0  0  0  0
  6 12  1  0  0  0  0
  8 10  1  0  0  0  0
  8 11  2  0  0  0  0
  9 13  1  0  0  0  0
  9 14  1  0  0  0  0
  9 15  1  0  0  0  0
 10 16  1  0  0  0  0
 10 17  1  0  0  0  0
 10 18  1  0  0  0  0
 19 20  1  0  0  0  0
 20 21  1  0  0  0  0
 20 22  1  0  0  0  0
 20 23  1  0  0  0  0
 23 24  4  0  0  0  0
 23 28  4  0  0  0  0
 24 25  4  0  0  0  0
 24 30  1  0  0  0  0
 25 26  4  0  0  0  0
 25 31  1  0  0  0  0
 26 27  4  0  0  0  0
 26 29  1  0  0  0  0
 27 28  4  0  0  0  0
 27 32  1  0  0  0  0
 28 33  1  0  0  0  0
 29 34  1  0  0  0  0
 29 35  1  0  0  0  0
M  END
> <BCLConfClusterSize>
1

> <ConfClashScore>
0 

> <ConfOneFourInteractionScore>
-0.956443 

> <ConfScore>
0.297731 

> <ConfScorePBest>
0.00612499 

> <ConfTolerance>
0.28469 

> <RosettaParamsInstructions>
M  ROOT 3
M  POLY_N_BB 3
M  POLY_CA_BB 4
M  POLY_C_BB 2
M  POLY_O_BB 5
M  POLY_IGNORE 9 10 11 12 13 14 15 16 17 18 
M  POLY_UPPER 6
M  POLY_LOWER 8
M  POLY_CHG 0
M  POLY_PROPERTIES ALPHA_AA D_AA PROTEIN AROMATIC POLYMER 
M  END

$$$$



 35 35  0  0  0  0  0  0  0  0999 V2000
   -2.6973    4.3686   -0.9321 H   0  0  0  1  0  0  0  0  0  0  0  0
   -3.2608    3.6914   -2.8326 C   0  0  0  1  0  0  0  0  0  0  0  0
   -1.2445    4.9878   -2.2590 N   0  0  0  1  0  0  0  0  0  0  0  0
   -2.1940    3.9630   -1.7848 C   0  0  0  1  0  0  0  0  0  0  0  0
   -4.4256    3.5326   -2.5063 O   0  0  0  1  0  0  0  0  0  0  0  0
   -2.8267    3.7334   -4.0968 N   0  0  0  1  0  0  0  0  0  0  0  0
   -0.2828    4.7995   -2.2613 H   0  0  0  1  0  0  0  0  0  0  0  0
   -1.6968    6.1818   -2.6889 C   0  0  0  1  0  0  0  0  0  0  0  0
   -3.6868    3.4100   -5.2253 C   0  0  0  1  0  0  0  0  0  0  0  0
   -0.5936    7.1550   -3.0565 C   0  0  0  1  0  0  0  0  0  0  0  0
   -2.8748    6.4844   -2.7854 O   0  0  0  1  0  0  0  0  0  0  0  0
   -1.8969    3.9908   -4.2693 H   0  0  0  1  0  0  0  0  0  0  0  0
   -4.4969    4.1076   -5.2683 H   0  0  0  1  0  0  0  0  0  0  0  0
   -4.0749    2.4201   -5.1055 H   0  0  0  1  0  0  0  0  0  0  0  0
   -3.1210    3.4645   -6.1318 H   0  0  0  1  0  0  0  0  0  0  0  0
    0.0117    6.7327   -3.8313 H   0  0  0  1  0  0  0  0  0  0  0  0
    0.0124    7.3483   -2.1962 H   0  0  0  1  0  0  0  0  0  0  0  0
   -1.0265    8.0707   -3.4016 H   0  0  0  1  0  0  0  0  0  0  0  0
    2.4175    1.0634   -6.1626 F   0  0  0  1  0  0  0  0  0  0  0  0
    1.9184    0.2040   -5.2725 C   0  0  0  1  0  0  0  0  0  0  0  0
    1.1913   -0.6757   -5.9630 F   0  0  0  1  0  0  0  0  0  0  0  0
    2.9482   -0.4602   -4.7463 F   0  0  0  1  0  0  0  0  0  0  0  0
    1.0810    0.9141   -4.2295 C   0  0  0  1  0  0  0  0  0  0  0  0
    1.6216    1.3246   -3.0209 C   0  0  0  1  0  0  0  0  0  0  0  0
    0.8072    1.8828   -2.0538 C   0  0  0  1  0  0  0  0  0  0  0  0
   -0.5492    2.0372   -2.2944 C   0  0  0  1  0  0  0  0  0  0  0  0
   -1.0880    1.6280   -3.4996 C   0  0  0  1  0  0  0  0  0  0  0  0
   -0.2713    1.0680   -4.4696 C   0  0  0  1  0  0  0  0  0  0  0  0
   -1.4534    2.7362   -1.3069 C   0  0  0  1  0  0  0  0  0  0  0  0
    2.6400    1.2124   -2.8418 H   0  0  0  1  0  0  0  0  0  0  0  0
    1.2120    2.1871   -1.1454 H   0  0  0  1  0  0  0  0  0  0  0  0
   -2.1063    1.7401   -3.6786 H   0  0  0  1  0  0  0  0  0  0  0  0
   -0.6762    0.7638   -5.3780 H   0  0  0  1  0  0  0  0  0  0  0  0
   -2.1856    2.0256   -0.9846 H   0  0  0  1  0  0  0  0  0  0  0  0
   -0.8504    3.0307   -0.4735 H   0  0  0  1  0  0  0  0  0  0  0  0
  1  4  1  0  0  0  0
  2  4  1  0  0  0  0
  2  5  2  0  0  0  0
  2  6  1  0  0  0  0
  3  4  1  0  0  0  0
  3  7  1  0  0  0  0
  3  8  1  0  0  0  0
  4 29  1  0  0  0  0
  6  9  1  0  0  0  0
  6 12  1  0  0  0  0
  8 10  1  0  0  0  0
  8 11  2  0  0  0  0
  9 13  1  0  0  0  0
  9 14  1  0  0  0  0
  9 15  1  0  0  0  0
 10 16  1  0  0  0  0
 10 17  1  0  0  0  0
 10 18  1  0  0  0  0
 19 20  1  0  0  0  0
 20 21  1  0  0  0  0
 20 22  1  0  0  0  0
 20 23  1  0  0  0  0
 23 24  4  0  0  0  0
 23 28  4  0  0  0  0
 24 25  4  0  0  0  0
 24 30  1  0  0  0  0
 25 26  4  0  0  0  0
 25 31  1  0  0  0  0
 26 27  4  0  0  0  0
 26 29  1  0  0  0  0
 27 28  4  0  0  0  0
 27 32  1  0  0  0  0
 28 33  1  0  0  0  0
 29 34  1  0  0  0  0
 29 35  1  0  0  0  0
M  END
> <BCLConfClusterSize>
1

> <ConfClashScore>
0 

> <ConfOneFourInteractionScore>
-0.950605 

> <ConfScore>
0.302828 

> <ConfScorePBest>
0.00609651 

> <ConfTolerance>
0.434582 

> <RosettaParamsInstructions>
M  ROOT 3
M  POLY_N_BB 3
M  POLY_CA_BB 4
M  POLY_C_BB 2
M  POLY_O_BB 5
M  POLY_IGNORE 9 10 11 12 13 14 15 16 17 18 
M  POLY_UPPER 6
M  POLY_LOWER 8
M  POLY_CHG 0
M  POLY_PROPERTIES ALPHA_AA D_AA PROTEIN AROMATIC POLYMER 
M  END

$$$$



 35 35  0  0  0  0  0  0  0  0999 V2000
   -3.3207    1.9124   -1.8344 H   0  0  0  1  0  0  0  0  0  0  0  0
   -3.5769    2.5404    0.1488 C   0  0  0  1  0  0  0  0  0  0  0  0
   -2.3925    0.5212   -0.6269 N   0  0  0  1  0  0  0  0  0  0  0  0
   -2.7219    1.9230   -0.9477 C   0  0  0  1  0  0  0  0  0  0  0  0
   -4.2298    1.8360    0.9173 O   0  0  0  1  0  0  0  0  0  0  0  0
   -3.5049    3.8693    0.2798 N   0  0  0  1  0  0  0  0  0  0  0  0
   -1.4506    0.2530   -0.5910 H   0  0  0  1  0  0  0  0  0  0  0  0
   -3.3377   -0.3992   -0.3824 C   0  0  0  1  0  0  0  0  0  0  0  0
   -4.2831    4.5960    1.2719 C   0  0  0  1  0  0  0  0  0  0  0  0
   -2.8995   -1.8388   -0.1963 C   0  0  0  1  0  0  0  0  0  0  0  0
   -4.5255   -0.0869   -0.3109 O   0  0  0  1  0  0  0  0  0  0  0  0
   -2.9073    4.3713   -0.3129 H   0  0  0  1  0  0  0  0  0  0  0  0
   -5.1789    4.0533    1.4907 H   0  0  0  1  0  0  0  0  0  0  0  0
   -4.5365    5.5622    0.8882 H   0  0  0  1  0  0  0  0  0  0  0  0
   -3.7061    4.7069    2.1661 H   0  0  0  1  0  0  0  0  0  0  0  0
   -2.6669   -2.2674   -1.1487 H   0  0  0  1  0  0  0  0  0  0  0  0
   -3.6902   -2.3957    0.2616 H   0  0  0  1  0  0  0  0  0  0  0  0
   -2.0322   -1.8693    0.4297 H   0  0  0  1  0  0  0  0  0  0  0  0
    1.4944   -1.0547   -5.4851 F   0  0  0  1  0  0  0  0  0  0  0  0
    1.9150    0.1924   -5.2659 C   0  0  0  1  0  0  0  0  0  0  0  0
    3.2018    0.0977   -4.9275 F   0  0  0  1  0  0  0  0  0  0  0  0
    1.8838    0.8100   -6.4475 F   0  0  0  1  0  0  0  0  0  0  0  0
    1.0890    0.9076   -4.2147 C   0  0  0  1  0  0  0  0  0  0  0  0
    1.4827    0.9486   -2.8862 C   0  0  0  1  0  0  0  0  0  0  0  0
    0.6583    1.5258   -1.9388 C   0  0  0  1  0  0  0  0  0  0  0  0
   -0.5597    2.0683   -2.3179 C   0  0  0  1  0  0  0  0  0  0  0  0
   -0.9521    2.0273   -3.6424 C   0  0  0  1  0  0  0  0  0  0  0  0
   -0.1254    1.4485   -4.5928 C   0  0  0  1  0  0  0  0  0  0  0  0
   -1.4585    2.7044   -1.2839 C   0  0  0  1  0  0  0  0  0  0  0  0
    2.3983    0.5452   -2.6024 H   0  0  0  1  0  0  0  0  0  0  0  0
    0.9518    1.5530   -0.9415 H   0  0  0  1  0  0  0  0  0  0  0  0
   -1.8676    2.4307   -3.9262 H   0  0  0  1  0  0  0  0  0  0  0  0
   -0.4189    1.4213   -5.5901 H   0  0  0  1  0  0  0  0  0  0  0  0
   -0.8935    2.8219   -0.3829 H   0  0  0  1  0  0  0  0  0  0  0  0
   -1.7526    3.6662   -1.6491 H   0  0  0  1  0  0  0  0  0  0  0  0
  1  4  1  0  0  0  0
  2  4  1  0  0  0  0
  2  5  2  0  0  0  0
  2  6  1  0  0  0  0
  3  4  1  0  0  0  0
  3  7  1  0  0  0  0
  3  8  1  0  0  0  0
  4 29  1  0  0  0  0
  6  9  1  0  0  0  0
  6 12  1  0  0  0  0
  8 10  1  0  0  0  0
  8 11  2  0  0  0  0
  9 13  1  0  0  0  0
  9 14  1  0  0  0  0
  9 15  1  0  0  0  0
 10 16  1  0  0  0  0
 10 17  1  0  0  0  0
 10 18  1  0  0  0  0
 19 20  1  0  0  0  0
 20 21  1  0  0  0  0
 20 22  1  0  0  0  0
 20 23  1  0  0  0  0
 23 24  4  0  0  0  0
 23 28  4  0  0  0  0
 24 25  4  0  0  0  0
 24 30  1  0  0  0  0
 25 26  4  0  0  0  0
 25 31  1  0  0  0  0
 26 27  4  0  0  0  0
 26 29  1  0  0  0  0
 27 28  4  0  0  0  0
 27 32  1  0  0  0  0
 28 33  1  0  0  0  0
 29 34  1  0  0  0  0
 29 35  1  0  0  0  0
M  END
> <BCLConfClusterSize>
1

> <ConfClashScore>
0 

> <ConfOneFourInteractionScore>
-0.960744 

> <ConfScore>
0.305011 

> <ConfScorePBest>
0.00606803 

> <ConfTolerance>
0.462276 

> <RosettaParamsInstructions>
M  ROOT 3
M  POLY_N_BB 3
M  POLY_CA_BB 4
M  POLY_C_BB 2
M  POLY_O_BB 5
M  POLY_IGNORE 9 10 11 12 13 14 15 16 17 18 
M  POLY_UPPER 6
M  POLY_LOWER 8
M  POLY_CHG 0
M  POLY_PROPERTIES ALPHA_AA D_AA PROTEIN AROMATIC POLYMER 
M  END

$$$$



 35 35  0  0  0  0  0  0  0  0999 V2000
   -2.3479    4.4905   -0.7226 H   0  0  0  1  0  0  0  0  0  0  0  0
   -2.0564    4.6130   -2.7950 C   0  0  0  1  0  0  0  0  0  0  0  0
   -0.3370    4.8286   -1.0005 N   0  0  0  1  0  0  0  0  0  0  0  0
   -1.5894    4.1846   -1.4126 C   0  0  0  1  0  0  0  0  0  0  0  0
   -2.5891    3.8188   -3.5547 O   0  0  0  1  0  0  0  0  0  0  0  0
   -1.9312    5.9120   -3.0873 N   0  0  0  1  0  0  0  0  0  0  0  0
   -0.3004    5.2782   -0.1304 H   0  0  0  1  0  0  0  0  0  0  0  0
    0.7551    4.8235   -1.7701 C   0  0  0  1  0  0  0  0  0  0  0  0
   -2.4827    6.4920   -4.3027 C   0  0  0  1  0  0  0  0  0  0  0  0
    2.0051    5.4104   -1.1438 C   0  0  0  1  0  0  0  0  0  0  0  0
    0.7650    4.3756   -2.9156 O   0  0  0  1  0  0  0  0  0  0  0  0
   -1.4513    6.4935   -2.4613 H   0  0  0  1  0  0  0  0  0  0  0  0
   -2.4380    5.7729   -5.0938 H   0  0  0  1  0  0  0  0  0  0  0  0
   -1.9145    7.3568   -4.5747 H   0  0  0  1  0  0  0  0  0  0  0  0
   -3.5013    6.7726   -4.1334 H   0  0  0  1  0  0  0  0  0  0  0  0
    2.3428    4.7717   -0.3545 H   0  0  0  1  0  0  0  0  0  0  0  0
    1.7840    6.3796   -0.7480 H   0  0  0  1  0  0  0  0  0  0  0  0
    2.7704    5.4940   -1.8868 H   0  0  0  1  0  0  0  0  0  0  0  0
    2.9449    0.9293   -5.7062 F   0  0  0  1  0  0  0  0  0  0  0  0
    1.9197    0.1986   -5.2646 C   0  0  0  1  0  0  0  0  0  0  0  0
    1.2193   -0.0937   -6.3616 F   0  0  0  1  0  0  0  0  0  0  0  0
    2.4073   -0.9483   -4.8387 F   0  0  0  1  0  0  0  0  0  0  0  0
    1.0787    0.9178   -4.2281 C   0  0  0  1  0  0  0  0  0  0  0  0
    1.6247    1.3701   -3.0369 C   0  0  0  1  0  0  0  0  0  0  0  0
    0.8099    1.9351   -2.0740 C   0  0  0  1  0  0  0  0  0  0  0  0
   -0.5522    2.0544   -2.3015 C   0  0  0  1  0  0  0  0  0  0  0  0
   -1.0964    1.6034   -3.4892 C   0  0  0  1  0  0  0  0  0  0  0  0
   -0.2795    1.0367   -4.4550 C   0  0  0  1  0  0  0  0  0  0  0  0
   -1.4422    2.6772   -1.2520 C   0  0  0  1  0  0  0  0  0  0  0  0
    2.6473    1.2842   -2.8679 H   0  0  0  1  0  0  0  0  0  0  0  0
    1.2189    2.2709   -1.1787 H   0  0  0  1  0  0  0  0  0  0  0  0
   -2.1190    1.6893   -3.6582 H   0  0  0  1  0  0  0  0  0  0  0  0
   -0.6885    0.7010   -5.3504 H   0  0  0  1  0  0  0  0  0  0  0  0
   -2.4124    2.2311   -1.3198 H   0  0  0  1  0  0  0  0  0  0  0  0
   -1.0236    2.4767   -0.2879 H   0  0  0  1  0  0  0  0  0  0  0  0
  1  4  1  0  0  0  0
  2  4  1  0  0  0  0
  2  5  2  0  0  0  0
  2  6  1  0  0  0  0
  3  4  1  0  0  0  0
  3  7  1  0  0  0  0
  3  8  1  0  0  0  0
  4 29  1  0  0  0  0
  6  9  1  0  0  0  0
  6 12  1  0  0  0  0
  8 10  1  0  0  0  0
  8 11  2  0  0  0  0
  9 13  1  0  0  0  0
  9 14  1  0  0  0  0
  9 15  1  0  0  0  0
 10 16  1  0  0  0  0
 10 17  1  0  0  0  0
 10 18  1  0  0  0  0
 19 20  1  0  0  0  0
 20 21  1  0  0  0  0
 20 22  1  0  0  0  0
 20 23  1  0  0  0  0
 23 24  4  0  0  0  0
 23 28  4  0  0  0  0
 24 25  4  0  0  0  0
 24 30  1  0  0  0  0
 25 26  4  0  0  0  0
 25 31  1  0  0  0  0
 26 27  4  0  0  0  0
 26 29  1  0  0  0  0
 27 28  4  0  0  0  0
 27 32  1  0  0  0  0
 28 33  1  0  0  0  0
 29 34  1  0  0  0  0
 29 35  1  0  0  0  0
M  END
> <BCLConfClusterSize>
1

> <ConfClashScore>
0 

> <ConfOneFourInteractionScore>
-0.973295 

> <ConfScore>
0.307112 

> <ConfScorePBest>
0.00603955 

> <ConfTolerance>
0.332825 

> <RosettaParamsInstructions>
M  ROOT 3
M  POLY_N_BB 3
M  POLY_CA_BB 4
M  POLY_C_BB 2
M  POLY_O_BB 5
M  POLY_IGNORE 9 10 11 12 13 14 15 16 17 18 
M  POLY_UPPER 6
M  POLY_LOWER 8
M  POLY_CHG 0
M  POLY_PROPERTIES ALPHA_AA D_AA PROTEIN AROMATIC POLYMER 
M  END

$$$$



 35 35  0  0  0  0  0  0  0  0999 V2000
   -2.0270    0.8988   -0.3237 H   0  0  0  1  0  0  0  0  0  0  0  0
   -3.3429    1.2306   -1.9362 C   0  0  0  1  0  0  0  0  0  0  0  0
   -3.3362    2.3542    0.2986 N   0  0  0  1  0  0  0  0  0  0  0  0
   -2.5289    1.7437   -0.7470 C   0  0  0  1  0  0  0  0  0  0  0  0
   -2.9678    0.2584   -2.5733 O   0  0  0  1  0  0  0  0  0  0  0  0
   -4.5021    1.8715   -2.1402 N   0  0  0  1  0  0  0  0  0  0  0  0
   -3.1336    3.2716    0.5776 H   0  0  0  1  0  0  0  0  0  0  0  0
   -4.3539    1.7013    0.8972 C   0  0  0  1  0  0  0  0  0  0  0  0
   -5.4754    1.4233   -3.1250 C   0  0  0  1  0  0  0  0  0  0  0  0
   -5.1259    2.4256    1.9767 C   0  0  0  1  0  0  0  0  0  0  0  0
   -4.6471    0.5505    0.5758 O   0  0  0  1  0  0  0  0  0  0  0  0
   -4.7013    2.6697   -1.6077 H   0  0  0  1  0  0  0  0  0  0  0  0
   -6.1607    0.7421   -2.6654 H   0  0  0  1  0  0  0  0  0  0  0  0
   -4.9686    0.9311   -3.9286 H   0  0  0  1  0  0  0  0  0  0  0  0
   -6.0124    2.2671   -3.5049 H   0  0  0  1  0  0  0  0  0  0  0  0
   -4.8260    3.4523    2.0026 H   0  0  0  1  0  0  0  0  0  0  0  0
   -4.9246    1.9715    2.9244 H   0  0  0  1  0  0  0  0  0  0  0  0
   -6.1734    2.3654    1.7671 H   0  0  0  1  0  0  0  0  0  0  0  0
    1.2146   -0.2631   -6.2887 F   0  0  0  1  0  0  0  0  0  0  0  0
    1.9256    0.1941   -5.2566 C   0  0  0  1  0  0  0  0  0  0  0  0
    2.5561   -0.8624   -4.7411 F   0  0  0  1  0  0  0  0  0  0  0  0
    2.8722    0.9786   -5.7734 F   0  0  0  1  0  0  0  0  0  0  0  0
    1.0693    0.9137   -4.2357 C   0  0  0  1  0  0  0  0  0  0  0  0
    1.5125    1.0211   -2.9266 C   0  0  0  1  0  0  0  0  0  0  0  0
    0.6991    1.5929   -1.9665 C   0  0  0  1  0  0  0  0  0  0  0  0
   -0.5576    2.0637   -2.3136 C   0  0  0  1  0  0  0  0  0  0  0  0
   -0.9993    1.9565   -3.6188 C   0  0  0  1  0  0  0  0  0  0  0  0
   -0.1837    1.3832   -4.5819 C   0  0  0  1  0  0  0  0  0  0  0  0
   -1.4446    2.6939   -1.2660 C   0  0  0  1  0  0  0  0  0  0  0  0
    2.4570    0.6715   -2.6670 H   0  0  0  1  0  0  0  0  0  0  0  0
    1.0300    1.6699   -0.9836 H   0  0  0  1  0  0  0  0  0  0  0  0
   -1.9438    2.3061   -3.8784 H   0  0  0  1  0  0  0  0  0  0  0  0
   -0.5146    1.3062   -5.5648 H   0  0  0  1  0  0  0  0  0  0  0  0
   -0.8345    2.9976   -0.4411 H   0  0  0  1  0  0  0  0  0  0  0  0
   -1.9199    3.5519   -1.6936 H   0  0  0  1  0  0  0  0  0  0  0  0
  1  4  1  0  0  0  0
  2  4  1  0  0  0  0
  2  5  2  0  0  0  0
  2  6  1  0  0  0  0
  3  4  1  0  0  0  0
  3  7  1  0  0  0  0
  3  8  1  0  0  0  0
  4 29  1  0  0  0  0
  6  9  1  0  0  0  0
  6 12  1  0  0  0  0
  8 10  1  0  0  0  0
  8 11  2  0  0  0  0
  9 13  1  0  0  0  0
  9 14  1  0  0  0  0
  9 15  1  0  0  0  0
 10 16  1  0  0  0  0
 10 17  1  0  0  0  0
 10 18  1  0  0  0  0
 19 20  1  0  0  0  0
 20 21  1  0  0  0  0
 20 22  1  0  0  0  0
 20 23  1  0  0  0  0
 23 24  4  0  0  0  0
 23 28  4  0  0  0  0
 24 25  4  0  0  0  0
 24 30  1  0  0  0  0
 25 26  4  0  0  0  0
 25 31  1  0  0  0  0
 26 27  4  0  0  0  0
 26 29  1  0  0  0  0
 27 28  4  0  0  0  0
 27 32  1  0  0  0  0
 28 33  1  0  0  0  0
 29 34  1  0  0  0  0
 29 35  1  0  0  0  0
M  END
> <BCLConfClusterSize>
1

> <ConfClashScore>
0 

> <ConfOneFourInteractionScore>
-0.960318 

> <ConfScore>
0.30784 

> <ConfScorePBest>
0.00601107 

> <ConfTolerance>
0.344619 

> <RosettaParamsInstructions>
M  ROOT 3
M  POLY_N_BB 3
M  POLY_CA_BB 4
M  POLY_C_BB 2
M  POLY_O_BB 5
M  POLY_IGNORE 9 10 11 12 13 14 15 16 17 18 
M  POLY_UPPER 6
M  POLY_LOWER 8
M  POLY_CHG 0
M  POLY_PROPERTIES ALPHA_AA D_AA PROTEIN AROMATIC POLYMER 
M  END

$$$$



 35 35  0  0  0  0  0  0  0  0999 V2000
   -3.0855    1.4282   -1.7705 H   0  0  0  1  0  0  0  0  0  0  0  0
   -3.7019    2.4548   -0.0520 C   0  0  0  1  0  0  0  0  0  0  0  0
   -2.0854    0.5982   -0.1688 N   0  0  0  1  0  0  0  0  0  0  0  0
   -2.6175    1.7794   -0.8746 C   0  0  0  1  0  0  0  0  0  0  0  0
   -3.8439    3.6660   -0.0866 O   0  0  0  1  0  0  0  0  0  0  0  0
   -4.5050    1.6160    0.6111 N   0  0  0  1  0  0  0  0  0  0  0  0
   -2.0170   -0.2423   -0.6680 H   0  0  0  1  0  0  0  0  0  0  0  0
   -1.6870    0.6015    1.1202 C   0  0  0  1  0  0  0  0  0  0  0  0
   -5.6635    2.0169    1.3954 C   0  0  0  1  0  0  0  0  0  0  0  0
   -1.2387   -0.7120    1.7311 C   0  0  0  1  0  0  0  0  0  0  0  0
   -1.6864    1.6382    1.7826 O   0  0  0  1  0  0  0  0  0  0  0  0
   -4.2979    0.6592    0.5655 H   0  0  0  1  0  0  0  0  0  0  0  0
   -5.7134    1.4264    2.2864 H   0  0  0  1  0  0  0  0  0  0  0  0
   -6.5528    1.8685    0.8192 H   0  0  0  1  0  0  0  0  0  0  0  0
   -5.5761    3.0507    1.6574 H   0  0  0  1  0  0  0  0  0  0  0  0
   -0.5065   -1.1686    1.0984 H   0  0  0  1  0  0  0  0  0  0  0  0
   -2.0808   -1.3646    1.8304 H   0  0  0  1  0  0  0  0  0  0  0  0
   -0.8125   -0.5295    2.6954 H   0  0  0  1  0  0  0  0  0  0  0  0
    1.9088   -1.1238   -5.0705 F   0  0  0  1  0  0  0  0  0  0  0  0
    1.9265    0.1965   -5.2614 C   0  0  0  1  0  0  0  0  0  0  0  0
    3.2036    0.5731   -5.1798 F   0  0  0  1  0  0  0  0  0  0  0  0
    1.5278    0.4186   -6.5145 F   0  0  0  1  0  0  0  0  0  0  0  0
    1.0733    0.9137   -4.2362 C   0  0  0  1  0  0  0  0  0  0  0  0
    1.4966    0.9743   -2.9176 C   0  0  0  1  0  0  0  0  0  0  0  0
    0.6831    1.5440   -1.9564 C   0  0  0  1  0  0  0  0  0  0  0  0
   -0.5536    2.0595   -2.3117 C   0  0  0  1  0  0  0  0  0  0  0  0
   -0.9755    1.9989   -3.6264 C   0  0  0  1  0  0  0  0  0  0  0  0
   -0.1598    1.4276   -4.5906 C   0  0  0  1  0  0  0  0  0  0  0  0
   -1.4827    2.6987   -1.3069 C   0  0  0  1  0  0  0  0  0  0  0  0
    2.4262    0.5912   -2.6517 H   0  0  0  1  0  0  0  0  0  0  0  0
    0.9989    1.5860   -0.9664 H   0  0  0  1  0  0  0  0  0  0  0  0
   -1.9051    2.3820   -3.8923 H   0  0  0  1  0  0  0  0  0  0  0  0
   -0.4756    1.3857   -5.5806 H   0  0  0  1  0  0  0  0  0  0  0  0
   -0.9146    2.9686   -0.4413 H   0  0  0  1  0  0  0  0  0  0  0  0
   -1.9054    3.5784   -1.7453 H   0  0  0  1  0  0  0  0  0  0  0  0
  1  4  1  0  0  0  0
  2  4  1  0  0  0  0
  2  5  2  0  0  0  0
  2  6  1  0  0  0  0
  3  4  1  0  0  0  0
  3  7  1  0  0  0  0
  3  8  1  0  0  0  0
  4 29  1  0  0  0  0
  6  9  1  0  0  0  0
  6 12  1  0  0  0  0
  8 10  1  0  0  0  0
  8 11  2  0  0  0  0
  9 13  1  0  0  0  0
  9 14  1  0  0  0  0
  9 15  1  0  0  0  0
 10 16  1  0  0  0  0
 10 17  1  0  0  0  0
 10 18  1  0  0  0  0
 19 20  1  0  0  0  0
 20 21  1  0  0  0  0
 20 22  1  0  0  0  0
 20 23  1  0  0  0  0
 23 24  4  0  0  0  0
 23 28  4  0  0  0  0
 24 25  4  0  0  0  0
 24 30  1  0  0  0  0
 25 26  4  0  0  0  0
 25 31  1  0  0  0  0
 26 27  4  0  0  0  0
 26 29  1  0  0  0  0
 27 28  4  0  0  0  0
 27 32  1  0  0  0  0
 28 33  1  0  0  0  0
 29 34  1  0  0  0  0
 29 35  1  0  0  0  0
M  END
> <BCLConfClusterSize>
1

> <ConfClashScore>
0 

> <ConfOneFourInteractionScore>
-0.957364 

> <ConfScore>
0.308712 

> <ConfScorePBest>
0.00598259 

> <ConfTolerance>
0.281841 

> <RosettaParamsInstructions>
M  ROOT 3
M  POLY_N_BB 3
M  POLY_CA_BB 4
M  POLY_C_BB 2
M  POLY_O_BB 5
M  POLY_IGNORE 9 10 11 12 13 14 15 16 17 18 
M  POLY_UPPER 6
M  POLY_LOWER 8
M  POLY_CHG 0
M  POLY_PROPERTIES ALPHA_AA D_AA PROTEIN AROMATIC POLYMER 
M  END

$$$$



 35 35  0  0  0  0  0  0  0  0999 V2000
   -2.7921    1.0768   -0.9416 H   0  0  0  1  0  0  0  0  0  0  0  0
   -2.9271    2.2310    0.7900 C   0  0  0  1  0  0  0  0  0  0  0  0
   -1.1314    0.6800    0.1871 N   0  0  0  1  0  0  0  0  0  0  0  0
   -2.1058    1.6386   -0.3429 C   0  0  0  1  0  0  0  0  0  0  0  0
   -2.3812    2.7194    1.7867 O   0  0  0  1  0  0  0  0  0  0  0  0
   -4.2509    2.2721    0.6046 N   0  0  0  1  0  0  0  0  0  0  0  0
   -0.1936    0.9618    0.2258 H   0  0  0  1  0  0  0  0  0  0  0  0
   -1.4269   -0.5540    0.6233 C   0  0  0  1  0  0  0  0  0  0  0  0
   -5.1507    2.8994    1.5609 C   0  0  0  1  0  0  0  0  0  0  0  0
   -0.3077   -1.3873    1.2165 C   0  0  0  1  0  0  0  0  0  0  0  0
   -2.5756   -1.0001    0.5450 O   0  0  0  1  0  0  0  0  0  0  0  0
   -4.6281    1.8656   -0.2034 H   0  0  0  1  0  0  0  0  0  0  0  0
   -4.7137    2.8667    2.5371 H   0  0  0  1  0  0  0  0  0  0  0  0
   -6.0831    2.3746    1.5701 H   0  0  0  1  0  0  0  0  0  0  0  0
   -5.3169    3.9180    1.2787 H   0  0  0  1  0  0  0  0  0  0  0  0
    0.5883   -1.2361    0.6515 H   0  0  0  1  0  0  0  0  0  0  0  0
   -0.5785   -2.4220    1.1850 H   0  0  0  1  0  0  0  0  0  0  0  0
   -0.1430   -1.0920    2.2317 H   0  0  0  1  0  0  0  0  0  0  0  0
    3.1706    0.6393   -5.2779 F   0  0  0  1  0  0  0  0  0  0  0  0
    1.9126    0.1951   -5.2714 C   0  0  0  1  0  0  0  0  0  0  0  0
    1.4350    0.3944   -6.5008 F   0  0  0  1  0  0  0  0  0  0  0  0
    1.9616   -1.1231   -5.0749 F   0  0  0  1  0  0  0  0  0  0  0  0
    1.0788    0.9147   -4.2322 C   0  0  0  1  0  0  0  0  0  0  0  0
    1.6271    1.3498   -3.0356 C   0  0  0  1  0  0  0  0  0  0  0  0
    0.8168    1.9165   -2.0700 C   0  0  0  1  0  0  0  0  0  0  0  0
   -0.5431    2.0548   -2.3000 C   0  0  0  1  0  0  0  0  0  0  0  0
   -1.0896    1.6210   -3.4930 C   0  0  0  1  0  0  0  0  0  0  0  0
   -0.2772    1.0525   -4.4616 C   0  0  0  1  0  0  0  0  0  0  0  0
   -1.4768    2.6712   -1.2852 C   0  0  0  1  0  0  0  0  0  0  0  0
    2.6481    1.2497   -2.8646 H   0  0  0  1  0  0  0  0  0  0  0  0
    1.2275    2.2393   -1.1707 H   0  0  0  1  0  0  0  0  0  0  0  0
   -2.1106    1.7210   -3.6640 H   0  0  0  1  0  0  0  0  0  0  0  0
   -0.6879    0.7297   -5.3609 H   0  0  0  1  0  0  0  0  0  0  0  0
   -0.9251    3.3759   -0.6987 H   0  0  0  1  0  0  0  0  0  0  0  0
   -2.2612    3.1778   -1.8077 H   0  0  0  1  0  0  0  0  0  0  0  0
  1  4  1  0  0  0  0
  2  4  1  0  0  0  0
  2  5  2  0  0  0  0
  2  6  1  0  0  0  0
  3  4  1  0  0  0  0
  3  7  1  0  0  0  0
  3  8  1  0  0  0  0
  4 29  1  0  0  0  0
  6  9  1  0  0  0  0
  6 12  1  0  0  0  0
  8 10  1  0  0  0  0
  8 11  2  0  0  0  0
  9 13  1  0  0  0  0
  9 14  1  0  0  0  0
  9 15  1  0  0  0  0
 10 16  1  0  0  0  0
 10 17  1  0  0  0  0
 10 18  1  0  0  0  0
 19 20  1  0  0  0  0
 20 21  1  0  0  0  0
 20 22  1  0  0  0  0
 20 23  1  0  0  0  0
 23 24  4  0  0  0  0
 23 28  4  0  0  0  0
 24 25  4  0  0  0  0
 24 30  1  0  0  0  0
 25 26  4  0  0  0  0
 25 31  1  0  0  0  0
 26 27  4  0  0  0  0
 26 29  1  0  0  0  0
 27 28  4  0  0  0  0
 27 32  1  0  0  0  0
 28 33  1  0  0  0  0
 29 34  1  0  0  0  0
 29 35  1  0  0  0  0
M  END
> <BCLConfClusterSize>
1

> <ConfClashScore>
0 

> <ConfOneFourInteractionScore>
-0.985807 

> <ConfScore>
0.308744 

> <ConfScorePBest>
0.00595411 

> <ConfTolerance>
0.342607 

> <RosettaParamsInstructions>
M  ROOT 3
M  POLY_N_BB 3
M  POLY_CA_BB 4
M  POLY_C_BB 2
M  POLY_O_BB 5
M  POLY_IGNORE 9 10 11 12 13 14 15 16 17 18 
M  POLY_UPPER 6
M  POLY_LOWER 8
M  POLY_CHG 0
M  POLY_PROPERTIES ALPHA_AA D_AA PROTEIN AROMATIC POLYMER 
M  END

$$$$



 35 35  0  0  0  0  0  0  0  0999 V2000
   -2.6681    0.9374   -1.0274 H   0  0  0  1  0  0  0  0  0  0  0  0
   -3.1406    2.1526    0.6187 C   0  0  0  1  0  0  0  0  0  0  0  0
   -1.0928    0.7605    0.2852 N   0  0  0  1  0  0  0  0  0  0  0  0
   -2.1252    1.5770   -0.3634 C   0  0  0  1  0  0  0  0  0  0  0  0
   -2.7899    2.5287    1.7266 O   0  0  0  1  0  0  0  0  0  0  0  0
   -4.3792    2.2814    0.1313 N   0  0  0  1  0  0  0  0  0  0  0  0
   -0.1584    1.0285    0.1603 H   0  0  0  1  0  0  0  0  0  0  0  0
   -1.3306   -0.3207    1.0331 C   0  0  0  1  0  0  0  0  0  0  0  0
   -5.4004    2.9726    0.9041 C   0  0  0  1  0  0  0  0  0  0  0  0
   -0.1055   -1.0158    1.5945 C   0  0  0  1  0  0  0  0  0  0  0  0
   -2.4546   -0.7369    1.2607 O   0  0  0  1  0  0  0  0  0  0  0  0
   -4.5997    1.9097   -0.7483 H   0  0  0  1  0  0  0  0  0  0  0  0
   -4.9325    3.6057    1.6288 H   0  0  0  1  0  0  0  0  0  0  0  0
   -6.0166    2.2543    1.4034 H   0  0  0  1  0  0  0  0  0  0  0  0
   -6.0030    3.5659    0.2485 H   0  0  0  1  0  0  0  0  0  0  0  0
    0.3417   -0.3997    2.3464 H   0  0  0  1  0  0  0  0  0  0  0  0
    0.5994   -1.1863    0.8078 H   0  0  0  1  0  0  0  0  0  0  0  0
   -0.3930   -1.9520    2.0255 H   0  0  0  1  0  0  0  0  0  0  0  0
    1.2019   -0.3369   -6.2453 F   0  0  0  1  0  0  0  0  0  0  0  0
    1.9236    0.1876   -5.2533 C   0  0  0  1  0  0  0  0  0  0  0  0
    2.6080   -0.8232   -4.7155 F   0  0  0  1  0  0  0  0  0  0  0  0
    2.8249    0.9849   -5.8284 F   0  0  0  1  0  0  0  0  0  0  0  0
    1.0696    0.9159   -4.2368 C   0  0  0  1  0  0  0  0  0  0  0  0
    1.5072    1.0187   -2.9255 C   0  0  0  1  0  0  0  0  0  0  0  0
    0.6948    1.5987   -1.9695 C   0  0  0  1  0  0  0  0  0  0  0  0
   -0.5553    2.0824   -2.3229 C   0  0  0  1  0  0  0  0  0  0  0  0
   -0.9914    1.9798   -3.6303 C   0  0  0  1  0  0  0  0  0  0  0  0
   -0.1768    1.3981   -4.5893 C   0  0  0  1  0  0  0  0  0  0  0  0
   -1.4475    2.6246   -1.2314 C   0  0  0  1  0  0  0  0  0  0  0  0
    2.4467    0.6595   -2.6611 H   0  0  0  1  0  0  0  0  0  0  0  0
    1.0214    1.6723   -0.9849 H   0  0  0  1  0  0  0  0  0  0  0  0
   -1.9309    2.3390   -3.8947 H   0  0  0  1  0  0  0  0  0  0  0  0
   -0.5035    1.3246   -5.5739 H   0  0  0  1  0  0  0  0  0  0  0  0
   -0.8512    3.2449   -0.5953 H   0  0  0  1  0  0  0  0  0  0  0  0
   -2.2112    3.2154   -1.6925 H   0  0  0  1  0  0  0  0  0  0  0  0
  1  4  1  0  0  0  0
  2  4  1  0  0  0  0
  2  5  2  0  0  0  0
  2  6  1  0  0  0  0
  3  4  1  0  0  0  0
  3  7  1  0  0  0  0
  3  8  1  0  0  0  0
  4 29  1  0  0  0  0
  6  9  1  0  0  0  0
  6 12  1  0  0  0  0
  8 10  1  0  0  0  0
  8 11  2  0  0  0  0
  9 13  1  0  0  0  0
  9 14  1  0  0  0  0
  9 15  1  0  0  0  0
 10 16  1  0  0  0  0
 10 17  1  0  0  0  0
 10 18  1  0  0  0  0
 19 20  1  0  0  0  0
 20 21  1  0  0  0  0
 20 22  1  0  0  0  0
 20 23  1  0  0  0  0
 23 24  4  0  0  0  0
 23 28  4  0  0  0  0
 24 25  4  0  0  0  0
 24 30  1  0  0  0  0
 25 26  4  0  0  0  0
 25 31  1  0  0  0  0
 26 27  4  0  0  0  0
 26 29  1  0  0  0  0
 27 28  4  0  0  0  0
 27 32  1  0  0  0  0
 28 33  1  0  0  0  0
 29 34  1  0  0  0  0
 29 35  1  0  0  0  0
M  END
> <BCLConfClusterSize>
1

> <ConfClashScore>
0 

> <ConfOneFourInteractionScore>
-0.985807 

> <ConfScore>
0.309783 

> <ConfScorePBest>
0.00592562 

> <ConfTolerance>
0.390711 

> <RosettaParamsInstructions>
M  ROOT 3
M  POLY_N_BB 3
M  POLY_CA_BB 4
M  POLY_C_BB 2
M  POLY_O_BB 5
M  POLY_IGNORE 9 10 11 12 13 14 15 16 17 18 
M  POLY_UPPER 6
M  POLY_LOWER 8
M  POLY_CHG 0
M  POLY_PROPERTIES ALPHA_AA D_AA PROTEIN AROMATIC POLYMER 
M  END

$$$$



 35 35  0  0  0  0  0  0  0  0999 V2000
   -2.9661    1.2369   -1.5026 H   0  0  0  1  0  0  0  0  0  0  0  0
   -3.5438    2.3534    0.1727 C   0  0  0  1  0  0  0  0  0  0  0  0
   -1.7480    0.6692    0.0621 N   0  0  0  1  0  0  0  0  0  0  0  0
   -2.4653    1.7174   -0.6882 C   0  0  0  1  0  0  0  0  0  0  0  0
   -4.4031    3.0637   -0.3469 O   0  0  0  1  0  0  0  0  0  0  0  0
   -3.5482    2.0292    1.4701 N   0  0  0  1  0  0  0  0  0  0  0  0
   -1.1343    0.9360    0.7781 H   0  0  0  1  0  0  0  0  0  0  0  0
   -1.9063   -0.6356   -0.2015 C   0  0  0  1  0  0  0  0  0  0  0  0
   -4.4143    2.6270    2.4753 C   0  0  0  1  0  0  0  0  0  0  0  0
   -1.0738   -1.5805    0.6353 C   0  0  0  1  0  0  0  0  0  0  0  0
   -2.6749   -1.0560   -1.0649 O   0  0  0  1  0  0  0  0  0  0  0  0
   -2.9210    1.3369    1.7663 H   0  0  0  1  0  0  0  0  0  0  0  0
   -5.4271    2.6087    2.1306 H   0  0  0  1  0  0  0  0  0  0  0  0
   -4.1146    3.6397    2.6473 H   0  0  0  1  0  0  0  0  0  0  0  0
   -4.3381    2.0722    3.3870 H   0  0  0  1  0  0  0  0  0  0  0  0
   -0.0356   -1.3653    0.4908 H   0  0  0  1  0  0  0  0  0  0  0  0
   -1.2733   -2.5891    0.3389 H   0  0  0  1  0  0  0  0  0  0  0  0
   -1.3232   -1.4557    1.6683 H   0  0  0  1  0  0  0  0  0  0  0  0
    1.1944   -0.4800   -6.1473 F   0  0  0  1  0  0  0  0  0  0  0  0
    1.9247    0.1941   -5.2572 C   0  0  0  1  0  0  0  0  0  0  0  0
    2.7497   -0.6950   -4.7020 F   0  0  0  1  0  0  0  0  0  0  0  0
    2.6923    1.0286   -5.9594 F   0  0  0  1  0  0  0  0  0  0  0  0
    1.0721    0.9132   -4.2328 C   0  0  0  1  0  0  0  0  0  0  0  0
    1.5031    0.9883   -2.9175 C   0  0  0  1  0  0  0  0  0  0  0  0
    0.6911    1.5597   -1.9560 C   0  0  0  1  0  0  0  0  0  0  0  0
   -0.5519    2.0625   -2.3079 C   0  0  0  1  0  0  0  0  0  0  0  0
   -0.9814    1.9874   -3.6194 C   0  0  0  1  0  0  0  0  0  0  0  0
   -0.1672    1.4144   -4.5839 C   0  0  0  1  0  0  0  0  0  0  0  0
   -1.4798    2.7028   -1.3027 C   0  0  0  1  0  0  0  0  0  0  0  0
    2.4373    0.6148   -2.6541 H   0  0  0  1  0  0  0  0  0  0  0  0
    1.0126    1.6125   -0.9684 H   0  0  0  1  0  0  0  0  0  0  0  0
   -1.9156    2.3610   -3.8827 H   0  0  0  1  0  0  0  0  0  0  0  0
   -0.4888    1.3616   -5.5715 H   0  0  0  1  0  0  0  0  0  0  0  0
   -0.8902    3.1288   -0.5181 H   0  0  0  1  0  0  0  0  0  0  0  0
   -2.0328    3.4759   -1.7940 H   0  0  0  1  0  0  0  0  0  0  0  0
  1  4  1  0  0  0  0
  2  4  1  0  0  0  0
  2  5  2  0  0  0  0
  2  6  1  0  0  0  0
  3  4  1  0  0  0  0
  3  7  1  0  0  0  0
  3  8  1  0  0  0  0
  4 29  1  0  0  0  0
  6  9  1  0  0  0  0
  6 12  1  0  0  0  0
  8 10  1  0  0  0  0
  8 11  2  0  0  0  0
  9 13  1  0  0  0  0
  9 14  1  0  0  0  0
  9 15  1  0  0  0  0
 10 16  1  0  0  0  0
 10 17  1  0  0  0  0
 10 18  1  0  0  0  0
 19 20  1  0  0  0  0
 20 21  1  0  0  0  0
 20 22  1  0  0  0  0
 20 23  1  0  0  0  0
 23 24  4  0  0  0  0
 23 28  4  0  0  0  0
 24 25  4  0  0  0  0
 24 30  1  0  0  0  0
 25 26  4  0  0  0  0
 25 31  1  0  0  0  0
 26 27  4  0  0  0  0
 26 29  1  0  0  0  0
 27 28  4  0  0  0  0
 27 32  1  0  0  0  0
 28 33  1  0  0  0  0
 29 34  1  0  0  0  0
 29 35  1  0  0  0  0
M  END
> <BCLConfClusterSize>
1

> <ConfClashScore>
0 

> <ConfOneFourInteractionScore>
-0.94165 

> <ConfScore>
0.309796 

> <ConfScorePBest>
0.00589714 

> <ConfTolerance>
0.411009 

> <RosettaParamsInstructions>
M  ROOT 3
M  POLY_N_BB 3
M  POLY_CA_BB 4
M  POLY_C_BB 2
M  POLY_O_BB 5
M  POLY_IGNORE 9 10 11 12 13 14 15 16 17 18 
M  POLY_UPPER 6
M  POLY_LOWER 8
M  POLY_CHG 0
M  POLY_PROPERTIES ALPHA_AA D_AA PROTEIN AROMATIC POLYMER 
M  END

$$$$



 35 35  0  0  0  0  0  0  0  0999 V2000
   -2.8870    2.3019    0.2063 H   0  0  0  1  0  0  0  0  0  0  0  0
   -1.4793    0.7672    0.4512 C   0  0  0  1  0  0  0  0  0  0  0  0
   -3.1771    0.9538   -1.3283 N   0  0  0  1  0  0  0  0  0  0  0  0
   -2.2737    1.7105   -0.4409 C   0  0  0  1  0  0  0  0  0  0  0  0
   -0.2748    0.5905    0.2750 O   0  0  0  1  0  0  0  0  0  0  0  0
   -2.1421    0.2214    1.4764 N   0  0  0  1  0  0  0  0  0  0  0  0
   -2.9959    0.9831   -2.2910 H   0  0  0  1  0  0  0  0  0  0  0  0
   -4.2221    0.2327   -0.9192 C   0  0  0  1  0  0  0  0  0  0  0  0
   -1.4652   -0.7006    2.3762 C   0  0  0  1  0  0  0  0  0  0  0  0
   -5.0453   -0.4150   -2.0156 C   0  0  0  1  0  0  0  0  0  0  0  0
   -4.5142    0.0911    0.2653 O   0  0  0  1  0  0  0  0  0  0  0  0
   -3.0856    0.4427    1.6221 H   0  0  0  1  0  0  0  0  0  0  0  0
   -0.4716   -0.3511    2.5646 H   0  0  0  1  0  0  0  0  0  0  0  0
   -1.4226   -1.6706    1.9267 H   0  0  0  1  0  0  0  0  0  0  0  0
   -2.0038   -0.7579    3.2990 H   0  0  0  1  0  0  0  0  0  0  0  0
   -5.4309    0.3414   -2.6668 H   0  0  0  1  0  0  0  0  0  0  0  0
   -5.8577   -0.9569   -1.5783 H   0  0  0  1  0  0  0  0  0  0  0  0
   -4.4282   -1.0864   -2.5752 H   0  0  0  1  0  0  0  0  0  0  0  0
    3.1619    0.7010   -5.3149 F   0  0  0  1  0  0  0  0  0  0  0  0
    1.9263    0.2009   -5.2603 C   0  0  0  1  0  0  0  0  0  0  0  0
    1.4375    0.2790   -6.4990 F   0  0  0  1  0  0  0  0  0  0  0  0
    2.0610   -1.0988   -4.9931 F   0  0  0  1  0  0  0  0  0  0  0  0
    1.0559    0.9143   -4.2470 C   0  0  0  1  0  0  0  0  0  0  0  0
    1.6133    1.3515   -3.0555 C   0  0  0  1  0  0  0  0  0  0  0  0
    0.8104    1.9198   -2.0847 C   0  0  0  1  0  0  0  0  0  0  0  0
   -0.5513    2.0574   -2.3045 C   0  0  0  1  0  0  0  0  0  0  0  0
   -1.1069    1.6214   -3.4925 C   0  0  0  1  0  0  0  0  0  0  0  0
   -0.3018    1.0514   -4.4663 C   0  0  0  1  0  0  0  0  0  0  0  0
   -1.4284    2.6837   -1.2462 C   0  0  0  1  0  0  0  0  0  0  0  0
    2.6356    1.2520   -2.8922 H   0  0  0  1  0  0  0  0  0  0  0  0
    1.2279    2.2442   -1.1891 H   0  0  0  1  0  0  0  0  0  0  0  0
   -2.1292    1.7210   -3.6558 H   0  0  0  1  0  0  0  0  0  0  0  0
   -0.7193    0.7270   -5.3619 H   0  0  0  1  0  0  0  0  0  0  0  0
   -0.7962    3.2139   -0.5649 H   0  0  0  1  0  0  0  0  0  0  0  0
   -2.0889    3.3725   -1.7301 H   0  0  0  1  0  0  0  0  0  0  0  0
  1  4  1  0  0  0  0
  2  4  1  0  0  0  0
  2  5  2  0  0  0  0
  2  6  1  0  0  0  0
  3  4  1  0  0  0  0
  3  7  1  0  0  0  0
  3  8  1  0  0  0  0
  4 29  1  0  0  0  0
  6  9  1  0  0  0  0
  6 12  1  0  0  0  0
  8 10  1  0  0  0  0
  8 11  2  0  0  0  0
  9 13  1  0  0  0  0
  9 14  1  0  0  0  0
  9 15  1  0  0  0  0
 10 16  1  0  0  0  0
 10 17  1  0  0  0  0
 10 18  1  0  0  0  0
 19 20  1  0  0  0  0
 20 21  1  0  0  0  0
 20 22  1  0  0  0  0
 20 23  1  0  0  0  0
 23 24  4  0  0  0  0
 23 28  4  0  0  0  0
 24 25  4  0  0  0  0
 24 30  1  0  0  0  0
 25 26  4  0  0  0  0
 25 31  1  0  0  0  0
 26 27  4  0  0  0  0
 26 29  1  0  0  0  0
 27 28  4  0  0  0  0
 27 32  1  0  0  0  0
 28 33  1  0  0  0  0
 29 34  1  0  0  0  0
 29 35  1  0  0  0  0
M  END
> <BCLConfClusterSize>
1

> <ConfClashScore>
0 

> <ConfOneFourInteractionScore>
-0.969421 

> <ConfScore>
0.314292 

> <ConfScorePBest>
0.00586866 

> <ConfTolerance>
0.461106 

> <RosettaParamsInstructions>
M  ROOT 3
M  POLY_N_BB 3
M  POLY_CA_BB 4
M  POLY_C_BB 2
M  POLY_O_BB 5
M  POLY_IGNORE 9 10 11 12 13 14 15 16 17 18 
M  POLY_UPPER 6
M  POLY_LOWER 8
M  POLY_CHG 0
M  POLY_PROPERTIES ALPHA_AA D_AA PROTEIN AROMATIC POLYMER 
M  END

$$$$



 35 35  0  0  0  0  0  0  0  0999 V2000
   -1.8532    4.4839   -0.2321 H   0  0  0  1  0  0  0  0  0  0  0  0
   -1.7908    4.9951   -2.2901 C   0  0  0  1  0  0  0  0  0  0  0  0
    0.1269    4.4974   -0.7909 N   0  0  0  1  0  0  0  0  0  0  0  0
   -1.2675    4.1985   -1.0809 C   0  0  0  1  0  0  0  0  0  0  0  0
   -2.8558    4.6789   -2.8176 O   0  0  0  1  0  0  0  0  0  0  0  0
   -1.0815    6.0674   -2.6579 N   0  0  0  1  0  0  0  0  0  0  0  0
    0.3820    4.7174    0.1293 H   0  0  0  1  0  0  0  0  0  0  0  0
    1.0755    4.4821   -1.7398 C   0  0  0  1  0  0  0  0  0  0  0  0
   -1.4722    6.9114   -3.7782 C   0  0  0  1  0  0  0  0  0  0  0  0
    2.4877    4.8651   -1.3421 C   0  0  0  1  0  0  0  0  0  0  0  0
    0.8103    4.1677   -2.8970 O   0  0  0  1  0  0  0  0  0  0  0  0
   -0.2706    6.2931   -2.1560 H   0  0  0  1  0  0  0  0  0  0  0  0
   -2.3819    7.4221   -3.5405 H   0  0  0  1  0  0  0  0  0  0  0  0
   -1.6206    6.3046   -4.6469 H   0  0  0  1  0  0  0  0  0  0  0  0
   -0.7011    7.6279   -3.9706 H   0  0  0  1  0  0  0  0  0  0  0  0
    3.1865    4.2480   -1.8674 H   0  0  0  1  0  0  0  0  0  0  0  0
    2.6114    4.7262   -0.2884 H   0  0  0  1  0  0  0  0  0  0  0  0
    2.6619    5.8913   -1.5900 H   0  0  0  1  0  0  0  0  0  0  0  0
    1.1672   -0.3103   -6.2508 F   0  0  0  1  0  0  0  0  0  0  0  0
    1.9145    0.1933   -5.2669 C   0  0  0  1  0  0  0  0  0  0  0  0
    2.6049   -0.8303   -4.7620 F   0  0  0  1  0  0  0  0  0  0  0  0
    2.8071    0.9952   -5.8489 F   0  0  0  1  0  0  0  0  0  0  0  0
    1.0871    0.9098   -4.2177 C   0  0  0  1  0  0  0  0  0  0  0  0
    1.5148    1.0152   -2.9033 C   0  0  0  1  0  0  0  0  0  0  0  0
    0.6922    1.5902   -1.9531 C   0  0  0  1  0  0  0  0  0  0  0  0
   -0.5583    2.0663   -2.3154 C   0  0  0  1  0  0  0  0  0  0  0  0
   -0.9845    1.9611   -3.6258 C   0  0  0  1  0  0  0  0  0  0  0  0
   -0.1597    1.3845   -4.5790 C   0  0  0  1  0  0  0  0  0  0  0  0
   -1.4553    2.7001   -1.2785 C   0  0  0  1  0  0  0  0  0  0  0  0
    2.4546    0.6616   -2.6323 H   0  0  0  1  0  0  0  0  0  0  0  0
    1.0114    1.6657   -0.9662 H   0  0  0  1  0  0  0  0  0  0  0  0
   -1.9243    2.3147   -3.8969 H   0  0  0  1  0  0  0  0  0  0  0  0
   -0.4789    1.3090   -5.5660 H   0  0  0  1  0  0  0  0  0  0  0  0
   -2.4702    2.5305   -1.5721 H   0  0  0  1  0  0  0  0  0  0  0  0
   -1.2692    2.2177   -0.3417 H   0  0  0  1  0  0  0  0  0  0  0  0
  1  4  1  0  0  0  0
  2  4  1  0  0  0  0
  2  5  2  0  0  0  0
  2  6  1  0  0  0  0
  3  4  1  0  0  0  0
  3  7  1  0  0  0  0
  3  8  1  0  0  0  0
  4 29  1  0  0  0  0
  6  9  1  0  0  0  0
  6 12  1  0  0  0  0
  8 10  1  0  0  0  0
  8 11  2  0  0  0  0
  9 13  1  0  0  0  0
  9 14  1  0  0  0  0
  9 15  1  0  0  0  0
 10 16  1  0  0  0  0
 10 17  1  0  0  0  0
 10 18  1  0  0  0  0
 19 20  1  0  0  0  0
 20 21  1  0  0  0  0
 20 22  1  0  0  0  0
 20 23  1  0  0  0  0
 23 24  4  0  0  0  0
 23 28  4  0  0  0  0
 24 25  4  0  0  0  0
 24 30  1  0  0  0  0
 25 26  4  0  0  0  0
 25 31  1  0  0  0  0
 26 27  4  0  0  0  0
 26 29  1  0  0  0  0
 27 28  4  0  0  0  0
 27 32  1  0  0  0  0
 28 33  1  0  0  0  0
 29 34  1  0  0  0  0
 29 35  1  0  0  0  0
M  END
> <BCLConfClusterSize>
1

> <ConfClashScore>
0 

> <ConfOneFourInteractionScore>
-0.948009 

> <ConfScore>
0.317242 

> <ConfScorePBest>
0.00584018 

> <ConfTolerance>
0.330717 

> <RosettaParamsInstructions>
M  ROOT 3
M  POLY_N_BB 3
M  POLY_CA_BB 4
M  POLY_C_BB 2
M  POLY_O_BB 5
M  POLY_IGNORE 9 10 11 12 13 14 15 16 17 18 
M  POLY_UPPER 6
M  POLY_LOWER 8
M  POLY_CHG 0
M  POLY_PROPERTIES ALPHA_AA D_AA PROTEIN AROMATIC POLYMER 
M  END

$$$$



 35 35  0  0  0  0  0  0  0  0999 V2000
   -2.7777    1.0467   -1.2203 H   0  0  0  1  0  0  0  0  0  0  0  0
   -3.5213    2.4647    0.1456 C   0  0  0  1  0  0  0  0  0  0  0  0
   -1.5587    0.9919    0.4396 N   0  0  0  1  0  0  0  0  0  0  0  0
   -2.3616    1.7409   -0.5205 C   0  0  0  1  0  0  0  0  0  0  0  0
   -4.5265    2.7574   -0.4834 O   0  0  0  1  0  0  0  0  0  0  0  0
   -3.4110    2.6771    1.4613 N   0  0  0  1  0  0  0  0  0  0  0  0
   -0.5836    1.0871    0.4170 H   0  0  0  1  0  0  0  0  0  0  0  0
   -2.1063    0.1805    1.3489 C   0  0  0  1  0  0  0  0  0  0  0  0
   -4.4825    3.3437    2.1862 C   0  0  0  1  0  0  0  0  0  0  0  0
   -1.1339   -0.5629    2.2364 C   0  0  0  1  0  0  0  0  0  0  0  0
   -3.3216    0.0347    1.4709 O   0  0  0  1  0  0  0  0  0  0  0  0
   -2.6070    2.3831    1.9383 H   0  0  0  1  0  0  0  0  0  0  0  0
   -4.5780    4.3504    1.8363 H   0  0  0  1  0  0  0  0  0  0  0  0
   -4.2553    3.3499    3.2318 H   0  0  0  1  0  0  0  0  0  0  0  0
   -5.4018    2.8210    2.0235 H   0  0  0  1  0  0  0  0  0  0  0  0
   -0.5205    0.1395    2.7611 H   0  0  0  1  0  0  0  0  0  0  0  0
   -0.5158   -1.1967    1.6355 H   0  0  0  1  0  0  0  0  0  0  0  0
   -1.6772   -1.1576    2.9408 H   0  0  0  1  0  0  0  0  0  0  0  0
    1.2332   -0.7099   -5.9527 F   0  0  0  1  0  0  0  0  0  0  0  0
    1.9251    0.1938   -5.2566 C   0  0  0  1  0  0  0  0  0  0  0  0
    2.9452   -0.4636   -4.7027 F   0  0  0  1  0  0  0  0  0  0  0  0
    2.4589    1.0259   -6.1518 F   0  0  0  1  0  0  0  0  0  0  0  0
    1.0733    0.9129   -4.2317 C   0  0  0  1  0  0  0  0  0  0  0  0
    1.4900    0.9616   -2.9105 C   0  0  0  1  0  0  0  0  0  0  0  0
    0.6769    1.5333   -1.9502 C   0  0  0  1  0  0  0  0  0  0  0  0
   -0.5529    2.0627   -2.3090 C   0  0  0  1  0  0  0  0  0  0  0  0
   -0.9683    2.0141   -3.6263 C   0  0  0  1  0  0  0  0  0  0  0  0
   -0.1529    1.4407   -4.5896 C   0  0  0  1  0  0  0  0  0  0  0  0
   -1.4813    2.7047   -1.3053 C   0  0  0  1  0  0  0  0  0  0  0  0
    2.4145    0.5680   -2.6419 H   0  0  0  1  0  0  0  0  0  0  0  0
    0.9877    1.5663   -0.9583 H   0  0  0  1  0  0  0  0  0  0  0  0
   -1.8927    2.4076   -3.8948 H   0  0  0  1  0  0  0  0  0  0  0  0
   -0.4638    1.4078   -5.5815 H   0  0  0  1  0  0  0  0  0  0  0  0
   -0.8840    3.2508   -0.6053 H   0  0  0  1  0  0  0  0  0  0  0  0
   -2.1211    3.3810   -1.8329 H   0  0  0  1  0  0  0  0  0  0  0  0
  1  4  1  0  0  0  0
  2  4  1  0  0  0  0
  2  5  2  0  0  0  0
  2  6  1  0  0  0  0
  3  4  1  0  0  0  0
  3  7  1  0  0  0  0
  3  8  1  0  0  0  0
  4 29  1  0  0  0  0
  6  9  1  0  0  0  0
  6 12  1  0  0  0  0
  8 10  1  0  0  0  0
  8 11  2  0  0  0  0
  9 13  1  0  0  0  0
  9 14  1  0  0  0  0
  9 15  1  0  0  0  0
 10 16  1  0  0  0  0
 10 17  1  0  0  0  0
 10 18  1  0  0  0  0
 19 20  1  0  0  0  0
 20 21  1  0  0  0  0
 20 22  1  0  0  0  0
 20 23  1  0  0  0  0
 23 24  4  0  0  0  0
 23 28  4  0  0  0  0
 24 25  4  0  0  0  0
 24 30  1  0  0  0  0
 25 26  4  0  0  0  0
 25 31  1  0  0  0  0
 26 27  4  0  0  0  0
 26 29  1  0  0  0  0
 27 28  4  0  0  0  0
 27 32  1  0  0  0  0
 28 33  1  0  0  0  0
 29 34  1  0  0  0  0
 29 35  1  0  0  0  0
M  END
> <BCLConfClusterSize>
1

> <ConfClashScore>
0 

> <ConfOneFourInteractionScore>
-0.956443 

> <ConfScore>
0.320062 

> <ConfScorePBest>
0.0058117 

> <ConfTolerance>
0.31975 

> <RosettaParamsInstructions>
M  ROOT 3
M  POLY_N_BB 3
M  POLY_CA_BB 4
M  POLY_C_BB 2
M  POLY_O_BB 5
M  POLY_IGNORE 9 10 11 12 13 14 15 16 17 18 
M  POLY_UPPER 6
M  POLY_LOWER 8
M  POLY_CHG 0
M  POLY_PROPERTIES ALPHA_AA D_AA PROTEIN AROMATIC POLYMER 
M  END

$$$$



 35 35  0  0  0  0  0  0  0  0999 V2000
   -1.8428    4.5300   -0.3119 H   0  0  0  1  0  0  0  0  0  0  0  0
   -1.4397    4.9748   -2.3264 C   0  0  0  1  0  0  0  0  0  0  0  0
    0.1905    4.3725   -0.5783 N   0  0  0  1  0  0  0  0  0  0  0  0
   -1.1666    4.1792   -1.0634 C   0  0  0  1  0  0  0  0  0  0  0  0
   -0.5178    5.3015   -3.0722 O   0  0  0  1  0  0  0  0  0  0  0  0
   -2.7394    5.1955   -2.5810 N   0  0  0  1  0  0  0  0  0  0  0  0
    0.7270    3.5991   -0.3054 H   0  0  0  1  0  0  0  0  0  0  0  0
    0.7058    5.5980   -0.5041 C   0  0  0  1  0  0  0  0  0  0  0  0
   -3.1901    5.8896   -3.7781 C   0  0  0  1  0  0  0  0  0  0  0  0
    2.1261    5.7044    0.0576 C   0  0  0  1  0  0  0  0  0  0  0  0
    0.1443    6.6385   -0.8444 O   0  0  0  1  0  0  0  0  0  0  0  0
   -3.4077    4.8781   -1.9384 H   0  0  0  1  0  0  0  0  0  0  0  0
   -4.0970    5.4435   -4.1295 H   0  0  0  1  0  0  0  0  0  0  0  0
   -2.4393    5.8158   -4.5368 H   0  0  0  1  0  0  0  0  0  0  0  0
   -3.3654    6.9198   -3.5480 H   0  0  0  1  0  0  0  0  0  0  0  0
    2.0826    5.8070    1.1217 H   0  0  0  1  0  0  0  0  0  0  0  0
    2.6127    6.5593   -0.3634 H   0  0  0  1  0  0  0  0  0  0  0  0
    2.6756    4.8211   -0.1931 H   0  0  0  1  0  0  0  0  0  0  0  0
    1.1991   -0.5038   -6.1306 F   0  0  0  1  0  0  0  0  0  0  0  0
    1.9260    0.1935   -5.2558 C   0  0  0  1  0  0  0  0  0  0  0  0
    2.7690   -0.6752   -4.6954 F   0  0  0  1  0  0  0  0  0  0  0  0
    2.6751    1.0299   -5.9755 F   0  0  0  1  0  0  0  0  0  0  0  0
    1.0708    0.9134   -4.2343 C   0  0  0  1  0  0  0  0  0  0  0  0
    1.4970    0.9875   -2.9173 C   0  0  0  1  0  0  0  0  0  0  0  0
    0.6822    1.5597   -1.9586 C   0  0  0  1  0  0  0  0  0  0  0  0
   -0.5587    2.0644   -2.3150 C   0  0  0  1  0  0  0  0  0  0  0  0
   -0.9834    1.9905   -3.6281 C   0  0  0  1  0  0  0  0  0  0  0  0
   -0.1665    1.4166   -4.5897 C   0  0  0  1  0  0  0  0  0  0  0  0
   -1.4470    2.6951   -1.2688 C   0  0  0  1  0  0  0  0  0  0  0  0
    2.4296    0.6125   -2.6507 H   0  0  0  1  0  0  0  0  0  0  0  0
    1.0002    1.6117   -0.9698 H   0  0  0  1  0  0  0  0  0  0  0  0
   -1.9161    2.3654   -3.8947 H   0  0  0  1  0  0  0  0  0  0  0  0
   -0.4845    1.3646   -5.5785 H   0  0  0  1  0  0  0  0  0  0  0  0
   -2.4663    2.5800   -1.5732 H   0  0  0  1  0  0  0  0  0  0  0  0
   -1.2923    2.1875   -0.3397 H   0  0  0  1  0  0  0  0  0  0  0  0
  1  4  1  0  0  0  0
  2  4  1  0  0  0  0
  2  5  2  0  0  0  0
  2  6  1  0  0  0  0
  3  4  1  0  0  0  0
  3  7  1  0  0  0  0
  3  8  1  0  0  0  0
  4 29  1  0  0  0  0
  6  9  1  0  0  0  0
  6 12  1  0  0  0  0
  8 10  1  0  0  0  0
  8 11  2  0  0  0  0
  9 13  1  0  0  0  0
  9 14  1  0  0  0  0
  9 15  1  0  0  0  0
 10 16  1  0  0  0  0
 10 17  1  0  0  0  0
 10 18  1  0  0  0  0
 19 20  1  0  0  0  0
 20 21  1  0  0  0  0
 20 22  1  0  0  0  0
 20 23  1  0  0  0  0
 23 24  4  0  0  0  0
 23 28  4  0  0  0  0
 24 25  4  0  0  0  0
 24 30  1  0  0  0  0
 25 26  4  0  0  0  0
 25 31  1  0  0  0  0
 26 27  4  0  0  0  0
 26 29  1  0  0  0  0
 27 28  4  0  0  0  0
 27 32  1  0  0  0  0
 28 33  1  0  0  0  0
 29 34  1  0  0  0  0
 29 35  1  0  0  0  0
M  END
> <BCLConfClusterSize>
1

> <ConfClashScore>
0 

> <ConfOneFourInteractionScore>
-0.976093 

> <ConfScore>
0.321831 

> <ConfScorePBest>
0.00578322 

> <ConfTolerance>
0.384769 

> <RosettaParamsInstructions>
M  ROOT 3
M  POLY_N_BB 3
M  POLY_CA_BB 4
M  POLY_C_BB 2
M  POLY_O_BB 5
M  POLY_IGNORE 9 10 11 12 13 14 15 16 17 18 
M  POLY_UPPER 6
M  POLY_LOWER 8
M  POLY_CHG 0
M  POLY_PROPERTIES ALPHA_AA D_AA PROTEIN AROMATIC POLYMER 
M  END

$$$$



 35 35  0  0  0  0  0  0  0  0999 V2000
   -1.4288    4.3346    0.1112 H   0  0  0  1  0  0  0  0  0  0  0  0
    0.0558    4.6829   -1.3815 C   0  0  0  1  0  0  0  0  0  0  0  0
    0.2201    3.1234    0.5051 N   0  0  0  1  0  0  0  0  0  0  0  0
   -0.7038    3.7601   -0.4267 C   0  0  0  1  0  0  0  0  0  0  0  0
    1.1443    5.1572   -1.0603 O   0  0  0  1  0  0  0  0  0  0  0  0
   -0.5167    4.8401   -2.5830 N   0  0  0  1  0  0  0  0  0  0  0  0
    0.1817    2.1474    0.5855 H   0  0  0  1  0  0  0  0  0  0  0  0
    1.1149    3.7704    1.2573 C   0  0  0  1  0  0  0  0  0  0  0  0
    0.0536    5.6303   -3.6623 C   0  0  0  1  0  0  0  0  0  0  0  0
    2.0514    2.8971    2.0612 C   0  0  0  1  0  0  0  0  0  0  0  0
    1.1871    4.9976    1.3056 O   0  0  0  1  0  0  0  0  0  0  0  0
   -1.3742    4.3942   -2.7445 H   0  0  0  1  0  0  0  0  0  0  0  0
   -0.7211    6.1908   -4.1425 H   0  0  0  1  0  0  0  0  0  0  0  0
    0.5164    4.9795   -4.3745 H   0  0  0  1  0  0  0  0  0  0  0  0
    0.7851    6.3021   -3.2642 H   0  0  0  1  0  0  0  0  0  0  0  0
    1.4859    2.3119    2.7560 H   0  0  0  1  0  0  0  0  0  0  0  0
    2.7436    3.5139    2.5952 H   0  0  0  1  0  0  0  0  0  0  0  0
    2.5874    2.2474    1.4013 H   0  0  0  1  0  0  0  0  0  0  0  0
    3.0419    0.8757   -5.5408 F   0  0  0  1  0  0  0  0  0  0  0  0
    1.9256    0.2008   -5.2609 C   0  0  0  1  0  0  0  0  0  0  0  0
    1.3032    0.0105   -6.4252 F   0  0  0  1  0  0  0  0  0  0  0  0
    2.3131   -1.0049   -4.8428 F   0  0  0  1  0  0  0  0  0  0  0  0
    1.0552    0.9141   -4.2475 C   0  0  0  1  0  0  0  0  0  0  0  0
    1.6154    1.3625   -3.0614 C   0  0  0  1  0  0  0  0  0  0  0  0
    0.8133    1.9309   -2.0900 C   0  0  0  1  0  0  0  0  0  0  0  0
   -0.5504    2.0575   -2.3038 C   0  0  0  1  0  0  0  0  0  0  0  0
   -1.1088    1.6104   -3.4863 C   0  0  0  1  0  0  0  0  0  0  0  0
   -0.3045    1.0403   -4.4608 C   0  0  0  1  0  0  0  0  0  0  0  0
   -1.4267    2.6839   -1.2448 C   0  0  0  1  0  0  0  0  0  0  0  0
    2.6392    1.2712   -2.9026 H   0  0  0  1  0  0  0  0  0  0  0  0
    1.2329    2.2636   -1.1984 H   0  0  0  1  0  0  0  0  0  0  0  0
   -2.1325    1.7018   -3.6451 H   0  0  0  1  0  0  0  0  0  0  0  0
   -0.7242    0.7076   -5.3523 H   0  0  0  1  0  0  0  0  0  0  0  0
   -2.2727    3.1310   -1.7236 H   0  0  0  1  0  0  0  0  0  0  0  0
   -1.7582    1.9151   -0.5786 H   0  0  0  1  0  0  0  0  0  0  0  0
  1  4  1  0  0  0  0
  2  4  1  0  0  0  0
  2  5  2  0  0  0  0
  2  6  1  0  0  0  0
  3  4  1  0  0  0  0
  3  7  1  0  0  0  0
  3  8  1  0  0  0  0
  4 29  1  0  0  0  0
  6  9  1  0  0  0  0
  6 12  1  0  0  0  0
  8 10  1  0  0  0  0
  8 11  2  0  0  0  0
  9 13  1  0  0  0  0
  9 14  1  0  0  0  0
  9 15  1  0  0  0  0
 10 16  1  0  0  0  0
 10 17  1  0  0  0  0
 10 18  1  0  0  0  0
 19 20  1  0  0  0  0
 20 21  1  0  0  0  0
 20 22  1  0  0  0  0
 20 23  1  0  0  0  0
 23 24  4  0  0  0  0
 23 28  4  0  0  0  0
 24 25  4  0  0  0  0
 24 30  1  0  0  0  0
 25 26  4  0  0  0  0
 25 31  1  0  0  0  0
 26 27  4  0  0  0  0
 26 29  1  0  0  0  0
 27 28  4  0  0  0  0
 27 32  1  0  0  0  0
 28 33  1  0  0  0  0
 29 34  1  0  0  0  0
 29 35  1  0  0  0  0
M  END
> <BCLConfClusterSize>
1

> <ConfClashScore>
0 

> <ConfOneFourInteractionScore>
-0.94817 

> <ConfScore>
0.322111 

> <ConfScorePBest>
0.00575474 

> <ConfTolerance>
0.515786 

> <RosettaParamsInstructions>
M  ROOT 3
M  POLY_N_BB 3
M  POLY_CA_BB 4
M  POLY_C_BB 2
M  POLY_O_BB 5
M  POLY_IGNORE 9 10 11 12 13 14 15 16 17 18 
M  POLY_UPPER 6
M  POLY_LOWER 8
M  POLY_CHG 0
M  POLY_PROPERTIES ALPHA_AA D_AA PROTEIN AROMATIC POLYMER 
M  END

$$$$



 35 35  0  0  0  0  0  0  0  0999 V2000
   -2.1461    4.5280   -0.5021 H   0  0  0  1  0  0  0  0  0  0  0  0
   -1.6922    4.8031   -2.5531 C   0  0  0  1  0  0  0  0  0  0  0  0
   -0.0883    4.6307   -0.6866 N   0  0  0  1  0  0  0  0  0  0  0  0
   -1.3877    4.2038   -1.1838 C   0  0  0  1  0  0  0  0  0  0  0  0
   -2.7941    4.6234   -3.0694 O   0  0  0  1  0  0  0  0  0  0  0  0
   -0.7485    5.5813   -3.0937 N   0  0  0  1  0  0  0  0  0  0  0  0
    0.6147    3.9592   -0.5628 H   0  0  0  1  0  0  0  0  0  0  0  0
    0.1797    5.9063   -0.3932 C   0  0  0  1  0  0  0  0  0  0  0  0
   -0.9747    6.3456   -4.3113 C   0  0  0  1  0  0  0  0  0  0  0  0
    1.5850    6.1871    0.1020 C   0  0  0  1  0  0  0  0  0  0  0  0
   -0.6466    6.8073   -0.5107 O   0  0  0  1  0  0  0  0  0  0  0  0
    0.1257    5.6389   -2.6546 H   0  0  0  1  0  0  0  0  0  0  0  0
   -0.9793    7.3906   -4.0814 H   0  0  0  1  0  0  0  0  0  0  0  0
   -1.9176    6.0698   -4.7353 H   0  0  0  1  0  0  0  0  0  0  0  0
   -0.1935    6.1384   -5.0125 H   0  0  0  1  0  0  0  0  0  0  0  0
    2.2556    6.2286   -0.7308 H   0  0  0  1  0  0  0  0  0  0  0  0
    1.8910    5.4070    0.7674 H   0  0  0  1  0  0  0  0  0  0  0  0
    1.6003    7.1239    0.6189 H   0  0  0  1  0  0  0  0  0  0  0  0
    3.1205   -0.0950   -4.7752 F   0  0  0  1  0  0  0  0  0  0  0  0
    1.9159    0.1984   -5.2679 C   0  0  0  1  0  0  0  0  0  0  0  0
    2.1674    0.9232   -6.3334 F   0  0  0  1  0  0  0  0  0  0  0  0
    1.4204   -0.9535   -5.6490 F   0  0  0  1  0  0  0  0  0  0  0  0
    1.0534    0.9144   -4.2497 C   0  0  0  1  0  0  0  0  0  0  0  0
    1.5850    1.2375   -3.0109 C   0  0  0  1  0  0  0  0  0  0  0  0
    0.7810    1.8065   -2.0412 C   0  0  0  1  0  0  0  0  0  0  0  0
   -0.5553    2.0589   -2.3092 C   0  0  0  1  0  0  0  0  0  0  0  0
   -1.0852    1.7367   -3.5443 C   0  0  0  1  0  0  0  0  0  0  0  0
   -0.2791    1.1661   -4.5170 C   0  0  0  1  0  0  0  0  0  0  0  0
   -1.4330    2.6861   -1.2518 C   0  0  0  1  0  0  0  0  0  0  0  0
    2.5886    1.0518   -2.8112 H   0  0  0  1  0  0  0  0  0  0  0  0
    1.1788    2.0452   -1.1104 H   0  0  0  1  0  0  0  0  0  0  0  0
   -2.0888    1.9224   -3.7440 H   0  0  0  1  0  0  0  0  0  0  0  0
   -0.6769    0.9273   -5.4478 H   0  0  0  1  0  0  0  0  0  0  0  0
   -2.4439    2.3944   -1.4464 H   0  0  0  1  0  0  0  0  0  0  0  0
   -1.1278    2.3037   -0.3002 H   0  0  0  1  0  0  0  0  0  0  0  0
  1  4  1  0  0  0  0
  2  4  1  0  0  0  0
  2  5  2  0  0  0  0
  2  6  1  0  0  0  0
  3  4  1  0  0  0  0
  3  7  1  0  0  0  0
  3  8  1  0  0  0  0
  4 29  1  0  0  0  0
  6  9  1  0  0  0  0
  6 12  1  0  0  0  0
  8 10  1  0  0  0  0
  8 11  2  0  0  0  0
  9 13  1  0  0  0  0
  9 14  1  0  0  0  0
  9 15  1  0  0  0  0
 10 16  1  0  0  0  0
 10 17  1  0  0  0  0
 10 18  1  0  0  0  0
 19 20  1  0  0  0  0
 20 21  1  0  0  0  0
 20 22  1  0  0  0  0
 20 23  1  0  0  0  0
 23 24  4  0  0  0  0
 23 28  4  0  0  0  0
 24 25  4  0  0  0  0
 24 30  1  0  0  0  0
 25 26  4  0  0  0  0
 25 31  1  0  0  0  0
 26 27  4  0  0  0  0
 26 29  1  0  0  0  0
 27 28  4  0  0  0  0
 27 32  1  0  0  0  0
 28 33  1  0  0  0  0
 29 34  1  0  0  0  0
 29 35  1  0  0  0  0
M  END
> <BCLConfClusterSize>
1

> <ConfClashScore>
0 

> <ConfOneFourInteractionScore>
-0.957074 

> <ConfScore>
0.322187 

> <ConfScorePBest>
0.00572626 

> <ConfTolerance>
0.351886 

> <RosettaParamsInstructions>
M  ROOT 3
M  POLY_N_BB 3
M  POLY_CA_BB 4
M  POLY_C_BB 2
M  POLY_O_BB 5
M  POLY_IGNORE 9 10 11 12 13 14 15 16 17 18 
M  POLY_UPPER 6
M  POLY_LOWER 8
M  POLY_CHG 0
M  POLY_PROPERTIES ALPHA_AA D_AA PROTEIN AROMATIC POLYMER 
M  END

$$$$



 35 35  0  0  0  0  0  0  0  0999 V2000
   -3.2987    2.6215   -2.2641 H   0  0  0  1  0  0  0  0  0  0  0  0
   -3.7513    2.7405   -0.2097 C   0  0  0  1  0  0  0  0  0  0  0  0
   -2.9241    0.7599   -1.4396 N   0  0  0  1  0  0  0  0  0  0  0  0
   -2.8999    2.2233   -1.3546 C   0  0  0  1  0  0  0  0  0  0  0  0
   -3.9397    3.9493   -0.0837 O   0  0  0  1  0  0  0  0  0  0  0  0
   -4.3338    1.8236    0.5703 N   0  0  0  1  0  0  0  0  0  0  0  0
   -2.1832    0.2512   -1.0490 H   0  0  0  1  0  0  0  0  0  0  0  0
   -3.9211    0.0958   -2.0312 C   0  0  0  1  0  0  0  0  0  0  0  0
   -5.1225    2.1848    1.7387 C   0  0  0  1  0  0  0  0  0  0  0  0
   -3.8478   -1.4182   -2.0720 C   0  0  0  1  0  0  0  0  0  0  0  0
   -4.8973    0.6393   -2.5461 O   0  0  0  1  0  0  0  0  0  0  0  0
   -4.2257    0.8755    0.3473 H   0  0  0  1  0  0  0  0  0  0  0  0
   -5.5781    3.1400    1.5807 H   0  0  0  1  0  0  0  0  0  0  0  0
   -4.4863    2.2311    2.5978 H   0  0  0  1  0  0  0  0  0  0  0  0
   -5.8831    1.4489    1.8967 H   0  0  0  1  0  0  0  0  0  0  0  0
   -3.5900   -1.7896   -1.1022 H   0  0  0  1  0  0  0  0  0  0  0  0
   -3.1032   -1.7200   -2.7788 H   0  0  0  1  0  0  0  0  0  0  0  0
   -4.7983   -1.8133   -2.3639 H   0  0  0  1  0  0  0  0  0  0  0  0
    3.1646    0.6630   -5.3280 F   0  0  0  1  0  0  0  0  0  0  0  0
    1.9140    0.2015   -5.2725 C   0  0  0  1  0  0  0  0  0  0  0  0
    1.4164    0.3242   -6.5040 F   0  0  0  1  0  0  0  0  0  0  0  0
    2.0093   -1.1077   -5.0367 F   0  0  0  1  0  0  0  0  0  0  0  0
    1.0756    0.9193   -4.2330 C   0  0  0  1  0  0  0  0  0  0  0  0
    1.6214    1.3572   -3.0363 C   0  0  0  1  0  0  0  0  0  0  0  0
    0.8081    1.9214   -2.0716 C   0  0  0  1  0  0  0  0  0  0  0  0
   -0.5522    2.0542   -2.3027 C   0  0  0  1  0  0  0  0  0  0  0  0
   -1.0961    1.6175   -3.4959 C   0  0  0  1  0  0  0  0  0  0  0  0
   -0.2807    1.0516   -4.4636 C   0  0  0  1  0  0  0  0  0  0  0  0
   -1.4405    2.6760   -1.2512 C   0  0  0  1  0  0  0  0  0  0  0  0
    2.6426    1.2613   -2.8645 H   0  0  0  1  0  0  0  0  0  0  0  0
    1.2168    2.2463   -1.1722 H   0  0  0  1  0  0  0  0  0  0  0  0
   -2.1173    1.7135   -3.6677 H   0  0  0  1  0  0  0  0  0  0  0  0
   -0.6895    0.7267   -5.3630 H   0  0  0  1  0  0  0  0  0  0  0  0
   -1.0671    2.4042   -0.2859 H   0  0  0  1  0  0  0  0  0  0  0  0
   -1.4053    3.7397   -1.3612 H   0  0  0  1  0  0  0  0  0  0  0  0
  1  4  1  0  0  0  0
  2  4  1  0  0  0  0
  2  5  2  0  0  0  0
  2  6  1  0  0  0  0
  3  4  1  0  0  0  0
  3  7  1  0  0  0  0
  3  8  1  0  0  0  0
  4 29  1  0  0  0  0
  6  9  1  0  0  0  0
  6 12  1  0  0  0  0
  8 10  1  0  0  0  0
  8 11  2  0  0  0  0
  9 13  1  0  0  0  0
  9 14  1  0  0  0  0
  9 15  1  0  0  0  0
 10 16  1  0  0  0  0
 10 17  1  0  0  0  0
 10 18  1  0  0  0  0
 19 20  1  0  0  0  0
 20 21  1  0  0  0  0
 20 22  1  0  0  0  0
 20 23  1  0  0  0  0
 23 24  4  0  0  0  0
 23 28  4  0  0  0  0
 24 25  4  0  0  0  0
 24 30  1  0  0  0  0
 25 26  4  0  0  0  0
 25 31  1  0  0  0  0
 26 27  4  0  0  0  0
 26 29  1  0  0  0  0
 27 28  4  0  0  0  0
 27 32  1  0  0  0  0
 28 33  1  0  0  0  0
 29 34  1  0  0  0  0
 29 35  1  0  0  0  0
M  END
> <BCLConfClusterSize>
1

> <ConfClashScore>
0 

> <ConfOneFourInteractionScore>
-0.934209 

> <ConfScore>
0.323001 

> <ConfScorePBest>
0.00569778 

> <ConfTolerance>
0.440797 

> <RosettaParamsInstructions>
M  ROOT 3
M  POLY_N_BB 3
M  POLY_CA_BB 4
M  POLY_C_BB 2
M  POLY_O_BB 5
M  POLY_IGNORE 9 10 11 12 13 14 15 16 17 18 
M  POLY_UPPER 6
M  POLY_LOWER 8
M  POLY_CHG 0
M  POLY_PROPERTIES ALPHA_AA D_AA PROTEIN AROMATIC POLYMER 
M  END

$$$$



 35 35  0  0  0  0  0  0  0  0999 V2000
   -0.5791    4.5703   -1.0933 H   0  0  0  1  0  0  0  0  0  0  0  0
   -2.5621    4.8620   -0.4856 C   0  0  0  1  0  0  0  0  0  0  0  0
   -1.7416    4.6165   -2.7965 N   0  0  0  1  0  0  0  0  0  0  0  0
   -1.5381    4.2037   -1.3949 C   0  0  0  1  0  0  0  0  0  0  0  0
   -2.5868    6.0845   -0.3522 O   0  0  0  1  0  0  0  0  0  0  0  0
   -3.4498    4.0220    0.0573 N   0  0  0  1  0  0  0  0  0  0  0  0
   -0.9760    4.9555   -3.3057 H   0  0  0  1  0  0  0  0  0  0  0  0
   -2.9335    4.5444   -3.3958 C   0  0  0  1  0  0  0  0  0  0  0  0
   -4.4991    4.5304    0.9281 C   0  0  0  1  0  0  0  0  0  0  0  0
   -3.0157    5.1670   -4.7759 C   0  0  0  1  0  0  0  0  0  0  0  0
   -3.9049    4.0153   -2.8811 O   0  0  0  1  0  0  0  0  0  0  0  0
   -3.3937    3.0620   -0.1317 H   0  0  0  1  0  0  0  0  0  0  0  0
   -4.4668    5.5998    0.9396 H   0  0  0  1  0  0  0  0  0  0  0  0
   -4.3501    4.1586    1.9203 H   0  0  0  1  0  0  0  0  0  0  0  0
   -5.4520    4.2065    0.5647 H   0  0  0  1  0  0  0  0  0  0  0  0
   -3.8086    5.8852   -4.7972 H   0  0  0  1  0  0  0  0  0  0  0  0
   -3.2069    4.4034   -5.5007 H   0  0  0  1  0  0  0  0  0  0  0  0
   -2.0894    5.6519   -5.0039 H   0  0  0  1  0  0  0  0  0  0  0  0
    1.4093    0.2329   -6.4889 F   0  0  0  1  0  0  0  0  0  0  0  0
    1.9290    0.2096   -5.2626 C   0  0  0  1  0  0  0  0  0  0  0  0
    2.0693   -1.0909   -4.9816 F   0  0  0  1  0  0  0  0  0  0  0  0
    3.1469    0.6869   -5.3433 F   0  0  0  1  0  0  0  0  0  0  0  0
    1.0701    0.9221   -4.2389 C   0  0  0  1  0  0  0  0  0  0  0  0
    1.5558    1.1143   -2.9549 C   0  0  0  1  0  0  0  0  0  0  0  0
    0.7464    1.6792   -1.9874 C   0  0  0  1  0  0  0  0  0  0  0  0
   -0.5491    2.0585   -2.3024 C   0  0  0  1  0  0  0  0  0  0  0  0
   -1.0332    1.8669   -3.5826 C   0  0  0  1  0  0  0  0  0  0  0  0
   -0.2216    1.3003   -4.5531 C   0  0  0  1  0  0  0  0  0  0  0  0
   -1.4775    2.6855   -1.2893 C   0  0  0  1  0  0  0  0  0  0  0  0
    2.5291    0.8334   -2.7196 H   0  0  0  1  0  0  0  0  0  0  0  0
    1.1094    1.8197   -1.0230 H   0  0  0  1  0  0  0  0  0  0  0  0
   -2.0065    2.1477   -3.8179 H   0  0  0  1  0  0  0  0  0  0  0  0
   -0.5846    1.1598   -5.5175 H   0  0  0  1  0  0  0  0  0  0  0  0
   -2.4617    2.2941   -1.4411 H   0  0  0  1  0  0  0  0  0  0  0  0
   -1.1371    2.4257   -0.3087 H   0  0  0  1  0  0  0  0  0  0  0  0
  1  4  1  0  0  0  0
  2  4  1  0  0  0  0
  2  5  2  0  0  0  0
  2  6  1  0  0  0  0
  3  4  1  0  0  0  0
  3  7  1  0  0  0  0
  3  8  1  0  0  0  0
  4 29  1  0  0  0  0
  6  9  1  0  0  0  0
  6 12  1  0  0  0  0
  8 10  1  0  0  0  0
  8 11  2  0  0  0  0
  9 13  1  0  0  0  0
  9 14  1  0  0  0  0
  9 15  1  0  0  0  0
 10 16  1  0  0  0  0
 10 17  1  0  0  0  0
 10 18  1  0  0  0  0
 19 20  1  0  0  0  0
 20 21  1  0  0  0  0
 20 22  1  0  0  0  0
 20 23  1  0  0  0  0
 23 24  4  0  0  0  0
 23 28  4  0  0  0  0
 24 25  4  0  0  0  0
 24 30  1  0  0  0  0
 25 26  4  0  0  0  0
 25 31  1  0  0  0  0
 26 27  4  0  0  0  0
 26 29  1  0  0  0  0
 27 28  4  0  0  0  0
 27 32  1  0  0  0  0
 28 33  1  0  0  0  0
 29 34  1  0  0  0  0
 29 35  1  0  0  0  0
M  END
> <BCLConfClusterSize>
1

> <ConfClashScore>
0 

> <ConfOneFourInteractionScore>
-0.927621 

> <ConfScore>
0.324129 

> <ConfScorePBest>
0.0056693 

> <ConfTolerance>
0.430734 

> <RosettaParamsInstructions>
M  ROOT 3
M  POLY_N_BB 3
M  POLY_CA_BB 4
M  POLY_C_BB 2
M  POLY_O_BB 5
M  POLY_IGNORE 9 10 11 12 13 14 15 16 17 18 
M  POLY_UPPER 6
M  POLY_LOWER 8
M  POLY_CHG 0
M  POLY_PROPERTIES ALPHA_AA D_AA PROTEIN AROMATIC POLYMER 
M  END

$$$$



 35 35  0  0  0  0  0  0  0  0999 V2000
   -1.0214    1.2678    0.2633 H   0  0  0  1  0  0  0  0  0  0  0  0
   -2.8112    0.6706   -0.6991 C   0  0  0  1  0  0  0  0  0  0  0  0
   -2.5350    2.5182    0.9106 N   0  0  0  1  0  0  0  0  0  0  0  0
   -1.8881    1.7487   -0.1399 C   0  0  0  1  0  0  0  0  0  0  0  0
   -2.3928   -0.1788   -1.4842 O   0  0  0  1  0  0  0  0  0  0  0  0
   -4.0631    0.6526   -0.2199 N   0  0  0  1  0  0  0  0  0  0  0  0
   -2.7527    3.4621    0.7619 H   0  0  0  1  0  0  0  0  0  0  0  0
   -2.8362    1.9356    2.0897 C   0  0  0  1  0  0  0  0  0  0  0  0
   -4.9588   -0.4754   -0.4277 C   0  0  0  1  0  0  0  0  0  0  0  0
   -3.3944    2.8105    3.1951 C   0  0  0  1  0  0  0  0  0  0  0  0
   -2.6639    0.7301    2.2652 O   0  0  0  1  0  0  0  0  0  0  0  0
   -4.3863    1.4259    0.2879 H   0  0  0  1  0  0  0  0  0  0  0  0
   -5.0687   -0.6557   -1.4767 H   0  0  0  1  0  0  0  0  0  0  0  0
   -5.9152   -0.2541   -0.0020 H   0  0  0  1  0  0  0  0  0  0  0  0
   -4.5511   -1.3456    0.0427 H   0  0  0  1  0  0  0  0  0  0  0  0
   -4.0777    3.5205    2.7781 H   0  0  0  1  0  0  0  0  0  0  0  0
   -2.5928    3.3287    3.6787 H   0  0  0  1  0  0  0  0  0  0  0  0
   -3.9067    2.1996    3.9088 H   0  0  0  1  0  0  0  0  0  0  0  0
    3.1830    0.0401   -4.8348 F   0  0  0  1  0  0  0  0  0  0  0  0
    1.9279    0.1997   -5.2582 C   0  0  0  1  0  0  0  0  0  0  0  0
    2.0061    0.8559   -6.4169 F   0  0  0  1  0  0  0  0  0  0  0  0
    1.4741   -1.0200   -5.5494 F   0  0  0  1  0  0  0  0  0  0  0  0
    1.0601    0.9148   -4.2439 C   0  0  0  1  0  0  0  0  0  0  0  0
    1.5948    1.2652   -3.0139 C   0  0  0  1  0  0  0  0  0  0  0  0
    0.7878    1.8336   -2.0464 C   0  0  0  1  0  0  0  0  0  0  0  0
   -0.5548    2.0582   -2.3079 C   0  0  0  1  0  0  0  0  0  0  0  0
   -1.0878    1.7088   -3.5343 C   0  0  0  1  0  0  0  0  0  0  0  0
   -0.2786    1.1387   -4.5048 C   0  0  0  1  0  0  0  0  0  0  0  0
   -1.4359    2.6847   -1.2531 C   0  0  0  1  0  0  0  0  0  0  0  0
    2.6030    1.1004   -2.8191 H   0  0  0  1  0  0  0  0  0  0  0  0
    1.1880    2.0928   -1.1222 H   0  0  0  1  0  0  0  0  0  0  0  0
   -2.0960    1.8736   -3.7291 H   0  0  0  1  0  0  0  0  0  0  0  0
   -0.6788    0.8795   -5.4290 H   0  0  0  1  0  0  0  0  0  0  0  0
   -0.8931    3.4912   -0.8060 H   0  0  0  1  0  0  0  0  0  0  0  0
   -2.3097    3.0676   -1.7377 H   0  0  0  1  0  0  0  0  0  0  0  0
  1  4  1  0  0  0  0
  2  4  1  0  0  0  0
  2  5  2  0  0  0  0
  2  6  1  0  0  0  0
  3  4  1  0  0  0  0
  3  7  1  0  0  0  0
  3  8  1  0  0  0  0
  4 29  1  0  0  0  0
  6  9  1  0  0  0  0
  6 12  1  0  0  0  0
  8 10  1  0  0  0  0
  8 11  2  0  0  0  0
  9 13  1  0  0  0  0
  9 14  1  0  0  0  0
  9 15  1  0  0  0  0
 10 16  1  0  0  0  0
 10 17  1  0  0  0  0
 10 18  1  0  0  0  0
 19 20  1  0  0  0  0
 20 21  1  0  0  0  0
 20 22  1  0  0  0  0
 20 23  1  0  0  0  0
 23 24  4  0  0  0  0
 23 28  4  0  0  0  0
 24 25  4  0  0  0  0
 24 30  1  0  0  0  0
 25 26  4  0  0  0  0
 25 31  1  0  0  0  0
 26 27  4  0  0  0  0
 26 29  1  0  0  0  0
 27 28  4  0  0  0  0
 27 32  1  0  0  0  0
 28 33  1  0  0  0  0
 29 34  1  0  0  0  0
 29 35  1  0  0  0  0
M  END
> <BCLConfClusterSize>
1

> <ConfClashScore>
0 

> <ConfOneFourInteractionScore>
-0.960318 

> <ConfScore>
0.324384 

> <ConfScorePBest>
0.00564082 

> <ConfTolerance>
0.336994 

> <RosettaParamsInstructions>
M  ROOT 3
M  POLY_N_BB 3
M  POLY_CA_BB 4
M  POLY_C_BB 2
M  POLY_O_BB 5
M  POLY_IGNORE 9 10 11 12 13 14 15 16 17 18 
M  POLY_UPPER 6
M  POLY_LOWER 8
M  POLY_CHG 0
M  POLY_PROPERTIES ALPHA_AA D_AA PROTEIN AROMATIC POLYMER 
M  END

$$$$



 35 35  0  0  0  0  0  0  0  0999 V2000
   -2.9009    1.2227   -1.4867 H   0  0  0  1  0  0  0  0  0  0  0  0
   -3.5841    2.3609    0.1109 C   0  0  0  1  0  0  0  0  0  0  0  0
   -1.7695    0.6313    0.1124 N   0  0  0  1  0  0  0  0  0  0  0  0
   -2.4364    1.7108   -0.6555 C   0  0  0  1  0  0  0  0  0  0  0  0
   -4.1172    3.3778   -0.3303 O   0  0  0  1  0  0  0  0  0  0  0  0
   -4.0139    1.7251    1.2060 N   0  0  0  1  0  0  0  0  0  0  0  0
   -1.6177   -0.2428   -0.3038 H   0  0  0  1  0  0  0  0  0  0  0  0
   -1.3746    0.8485    1.3730 C   0  0  0  1  0  0  0  0  0  0  0  0
   -5.0087    2.3004    2.0989 C   0  0  0  1  0  0  0  0  0  0  0  0
   -0.7880   -0.3677    2.0861 C   0  0  0  1  0  0  0  0  0  0  0  0
   -1.5293    1.9163    1.9643 O   0  0  0  1  0  0  0  0  0  0  0  0
   -3.6462    0.8409    1.4146 H   0  0  0  1  0  0  0  0  0  0  0  0
   -4.6207    3.1969    2.5357 H   0  0  0  1  0  0  0  0  0  0  0  0
   -5.2415    1.5989    2.8725 H   0  0  0  1  0  0  0  0  0  0  0  0
   -5.8953    2.5286    1.5450 H   0  0  0  1  0  0  0  0  0  0  0  0
   -1.2666   -1.2559    1.7297 H   0  0  0  1  0  0  0  0  0  0  0  0
   -0.9484   -0.2747    3.1399 H   0  0  0  1  0  0  0  0  0  0  0  0
    0.2620   -0.4248    1.8883 H   0  0  0  1  0  0  0  0  0  0  0  0
    1.6500   -1.1089   -5.3274 F   0  0  0  1  0  0  0  0  0  0  0  0
    1.9288    0.1938   -5.2539 C   0  0  0  1  0  0  0  0  0  0  0  0
    3.2237    0.2807   -4.9836 F   0  0  0  1  0  0  0  0  0  0  0  0
    1.7708    0.6795   -6.4859 F   0  0  0  1  0  0  0  0  0  0  0  0
    1.0733    0.9134   -4.2324 C   0  0  0  1  0  0  0  0  0  0  0  0
    1.4801    0.9538   -2.9079 C   0  0  0  1  0  0  0  0  0  0  0  0
    0.6628    1.5261   -1.9513 C   0  0  0  1  0  0  0  0  0  0  0  0
   -0.5610    2.0644   -2.3173 C   0  0  0  1  0  0  0  0  0  0  0  0
   -0.9664    2.0240   -3.6379 C   0  0  0  1  0  0  0  0  0  0  0  0
   -0.1470    1.4501   -4.5974 C   0  0  0  1  0  0  0  0  0  0  0  0
   -1.4519    2.6951   -1.2733 C   0  0  0  1  0  0  0  0  0  0  0  0
    2.4000    0.5535   -2.6339 H   0  0  0  1  0  0  0  0  0  0  0  0
    0.9662    1.5529   -0.9569 H   0  0  0  1  0  0  0  0  0  0  0  0
   -1.8864    2.4243   -3.9119 H   0  0  0  1  0  0  0  0  0  0  0  0
   -0.4503    1.4233   -5.5918 H   0  0  0  1  0  0  0  0  0  0  0  0
   -0.8352    3.0937   -0.4950 H   0  0  0  1  0  0  0  0  0  0  0  0
   -2.0054    3.4878   -1.7318 H   0  0  0  1  0  0  0  0  0  0  0  0
  1  4  1  0  0  0  0
  2  4  1  0  0  0  0
  2  5  2  0  0  0  0
  2  6  1  0  0  0  0
  3  4  1  0  0  0  0
  3  7  1  0  0  0  0
  3  8  1  0  0  0  0
  4 29  1  0  0  0  0
  6  9  1  0  0  0  0
  6 12  1  0  0  0  0
  8 10  1  0  0  0  0
  8 11  2  0  0  0  0
  9 13  1  0  0  0  0
  9 14  1  0  0  0  0
  9 15  1  0  0  0  0
 10 16  1  0  0  0  0
 10 17  1  0  0  0  0
 10 18  1  0  0  0  0
 19 20  1  0  0  0  0
 20 21  1  0  0  0  0
 20 22  1  0  0  0  0
 20 23  1  0  0  0  0
 23 24  4  0  0  0  0
 23 28  4  0  0  0  0
 24 25  4  0  0  0  0
 24 30  1  0  0  0  0
 25 26  4  0  0  0  0
 25 31  1  0  0  0  0
 26 27  4  0  0  0  0
 26 29  1  0  0  0  0
 27 28  4  0  0  0  0
 27 32  1  0  0  0  0
 28 33  1  0  0  0  0
 29 34  1  0  0  0  0
 29 35  1  0  0  0  0
M  END
> <BCLConfClusterSize>
1

> <ConfClashScore>
0 

> <ConfOneFourInteractionScore>
-0.957723 

> <ConfScore>
0.326654 

> <ConfScorePBest>
0.00561234 

> <ConfTolerance>
0.351871 

> <RosettaParamsInstructions>
M  ROOT 3
M  POLY_N_BB 3
M  POLY_CA_BB 4
M  POLY_C_BB 2
M  POLY_O_BB 5
M  POLY_IGNORE 9 10 11 12 13 14 15 16 17 18 
M  POLY_UPPER 6
M  POLY_LOWER 8
M  POLY_CHG 0
M  POLY_PROPERTIES ALPHA_AA D_AA PROTEIN AROMATIC POLYMER 
M  END

$$$$



 35 35  0  0  0  0  0  0  0  0999 V2000
   -2.7924    1.9513    0.2290 H   0  0  0  1  0  0  0  0  0  0  0  0
   -1.1260    0.6821    0.3618 C   0  0  0  1  0  0  0  0  0  0  0  0
   -2.9382    0.6560   -1.3471 N   0  0  0  1  0  0  0  0  0  0  0  0
   -2.1277    1.4864   -0.4688 C   0  0  0  1  0  0  0  0  0  0  0  0
   -0.8737   -0.4788    0.0784 O   0  0  0  1  0  0  0  0  0  0  0  0
   -0.5160    1.3763    1.3285 N   0  0  0  1  0  0  0  0  0  0  0  0
   -3.1689    0.9941   -2.2375 H   0  0  0  1  0  0  0  0  0  0  0  0
   -3.3786   -0.5514   -0.9817 C   0  0  0  1  0  0  0  0  0  0  0  0
    0.4398    0.7649    2.2398 C   0  0  0  1  0  0  0  0  0  0  0  0
   -4.2571   -1.2651   -1.9906 C   0  0  0  1  0  0  0  0  0  0  0  0
   -3.1002   -1.0662    0.0980 O   0  0  0  1  0  0  0  0  0  0  0  0
   -0.7198    2.3298    1.4266 H   0  0  0  1  0  0  0  0  0  0  0  0
    0.9914    0.0073    1.7234 H   0  0  0  1  0  0  0  0  0  0  0  0
   -0.0836    0.3259    3.0634 H   0  0  0  1  0  0  0  0  0  0  0  0
    1.1143    1.5121    2.6027 H   0  0  0  1  0  0  0  0  0  0  0  0
   -4.9617   -1.8844   -1.4758 H   0  0  0  1  0  0  0  0  0  0  0  0
   -3.6479   -1.8719   -2.6275 H   0  0  0  1  0  0  0  0  0  0  0  0
   -4.7818   -0.5428   -2.5805 H   0  0  0  1  0  0  0  0  0  0  0  0
    2.4029    1.0109   -6.1968 F   0  0  0  1  0  0  0  0  0  0  0  0
    1.9221    0.1934   -5.2585 C   0  0  0  1  0  0  0  0  0  0  0  0
    1.2587   -0.7665   -5.9047 F   0  0  0  1  0  0  0  0  0  0  0  0
    2.9797   -0.3953   -4.6985 F   0  0  0  1  0  0  0  0  0  0  0  0
    1.0574    0.9163   -4.2470 C   0  0  0  1  0  0  0  0  0  0  0  0
    1.6098    1.3212   -3.0418 C   0  0  0  1  0  0  0  0  0  0  0  0
    0.8091    1.8977   -2.0739 C   0  0  0  1  0  0  0  0  0  0  0  0
   -0.5451    2.0760   -2.3104 C   0  0  0  1  0  0  0  0  0  0  0  0
   -1.0956    1.6722   -3.5121 C   0  0  0  1  0  0  0  0  0  0  0  0
   -0.2928    1.0940   -4.4829 C   0  0  0  1  0  0  0  0  0  0  0  0
   -1.4440    2.6211   -1.2257 C   0  0  0  1  0  0  0  0  0  0  0  0
    2.6265    1.1911   -2.8659 H   0  0  0  1  0  0  0  0  0  0  0  0
    1.2226    2.1978   -1.1681 H   0  0  0  1  0  0  0  0  0  0  0  0
   -2.1123    1.8023   -3.6879 H   0  0  0  1  0  0  0  0  0  0  0  0
   -0.7064    0.7939   -5.3887 H   0  0  0  1  0  0  0  0  0  0  0  0
   -0.8575    3.1966   -0.5404 H   0  0  0  1  0  0  0  0  0  0  0  0
   -2.1902    3.2462   -1.6698 H   0  0  0  1  0  0  0  0  0  0  0  0
  1  4  1  0  0  0  0
  2  4  1  0  0  0  0
  2  5  2  0  0  0  0
  2  6  1  0  0  0  0
  3  4  1  0  0  0  0
  3  7  1  0  0  0  0
  3  8  1  0  0  0  0
  4 29  1  0  0  0  0
  6  9  1  0  0  0  0
  6 12  1  0  0  0  0
  8 10  1  0  0  0  0
  8 11  2  0  0  0  0
  9 13  1  0  0  0  0
  9 14  1  0  0  0  0
  9 15  1  0  0  0  0
 10 16  1  0  0  0  0
 10 17  1  0  0  0  0
 10 18  1  0  0  0  0
 19 20  1  0  0  0  0
 20 21  1  0  0  0  0
 20 22  1  0  0  0  0
 20 23  1  0  0  0  0
 23 24  4  0  0  0  0
 23 28  4  0  0  0  0
 24 25  4  0  0  0  0
 24 30  1  0  0  0  0
 25 26  4  0  0  0  0
 25 31  1  0  0  0  0
 26 27  4  0  0  0  0
 26 29  1  0  0  0  0
 27 28  4  0  0  0  0
 27 32  1  0  0  0  0
 28 33  1  0  0  0  0
 29 34  1  0  0  0  0
 29 35  1  0  0  0  0
M  END
> <BCLConfClusterSize>
1

> <ConfClashScore>
0 

> <ConfOneFourInteractionScore>
-0.976093 

> <ConfScore>
0.3329 

> <ConfScorePBest>
0.00558386 

> <ConfTolerance>
0.406856 

> <RosettaParamsInstructions>
M  ROOT 3
M  POLY_N_BB 3
M  POLY_CA_BB 4
M  POLY_C_BB 2
M  POLY_O_BB 5
M  POLY_IGNORE 9 10 11 12 13 14 15 16 17 18 
M  POLY_UPPER 6
M  POLY_LOWER 8
M  POLY_CHG 0
M  POLY_PROPERTIES ALPHA_AA D_AA PROTEIN AROMATIC POLYMER 
M  END

$$$$



 35 35  0  0  0  0  0  0  0  0999 V2000
   -1.4333    0.8613   -0.1983 H   0  0  0  1  0  0  0  0  0  0  0  0
   -3.1774    0.9028   -1.4090 C   0  0  0  1  0  0  0  0  0  0  0  0
   -2.8379    2.1069    0.6805 N   0  0  0  1  0  0  0  0  0  0  0  0
   -2.1627    1.5850   -0.4969 C   0  0  0  1  0  0  0  0  0  0  0  0
   -4.3856    1.0862   -1.2643 O   0  0  0  1  0  0  0  0  0  0  0  0
   -2.6761    0.1753   -2.4167 N   0  0  0  1  0  0  0  0  0  0  0  0
   -2.7534    3.0604    0.8905 H   0  0  0  1  0  0  0  0  0  0  0  0
   -3.5725    1.3283    1.4895 C   0  0  0  1  0  0  0  0  0  0  0  0
   -3.4870   -0.5214   -3.4041 C   0  0  0  1  0  0  0  0  0  0  0  0
   -4.0830    1.9882    2.7504 C   0  0  0  1  0  0  0  0  0  0  0  0
   -3.8249    0.1516    1.2381 O   0  0  0  1  0  0  0  0  0  0  0  0
   -1.7015    0.1082   -2.4936 H   0  0  0  1  0  0  0  0  0  0  0  0
   -4.0843    0.1867   -3.9396 H   0  0  0  1  0  0  0  0  0  0  0  0
   -4.1248   -1.2241   -2.9098 H   0  0  0  1  0  0  0  0  0  0  0  0
   -2.8482   -1.0389   -4.0889 H   0  0  0  1  0  0  0  0  0  0  0  0
   -4.7460    2.7873    2.4921 H   0  0  0  1  0  0  0  0  0  0  0  0
   -3.2571    2.3766    3.3088 H   0  0  0  1  0  0  0  0  0  0  0  0
   -4.6073    1.2675    3.3426 H   0  0  0  1  0  0  0  0  0  0  0  0
    1.9074   -1.1358   -5.1138 F   0  0  0  1  0  0  0  0  0  0  0  0
    1.9293    0.1913   -5.2485 C   0  0  0  1  0  0  0  0  0  0  0  0
    3.2111    0.5589   -5.2153 F   0  0  0  1  0  0  0  0  0  0  0  0
    1.5325    0.4245   -6.5003 F   0  0  0  1  0  0  0  0  0  0  0  0
    1.0724    0.9125   -4.2293 C   0  0  0  1  0  0  0  0  0  0  0  0
    1.4909    0.9783   -2.9094 C   0  0  0  1  0  0  0  0  0  0  0  0
    0.6739    1.5518   -1.9534 C   0  0  0  1  0  0  0  0  0  0  0  0
   -0.5615    2.0659   -2.3152 C   0  0  0  1  0  0  0  0  0  0  0  0
   -0.9785    2.0002   -3.6312 C   0  0  0  1  0  0  0  0  0  0  0  0
   -0.1594    1.4251   -4.5902 C   0  0  0  1  0  0  0  0  0  0  0  0
   -1.4522    2.6980   -1.2719 C   0  0  0  1  0  0  0  0  0  0  0  0
    2.4194    0.5962   -2.6386 H   0  0  0  1  0  0  0  0  0  0  0  0
    0.9861    1.5976   -0.9624 H   0  0  0  1  0  0  0  0  0  0  0  0
   -1.9071    2.3824   -3.9020 H   0  0  0  1  0  0  0  0  0  0  0  0
   -0.4716    1.3793   -5.5812 H   0  0  0  1  0  0  0  0  0  0  0  0
   -0.8604    3.2839   -0.6000 H   0  0  0  1  0  0  0  0  0  0  0  0
   -2.1770    3.3244   -1.7486 H   0  0  0  1  0  0  0  0  0  0  0  0
  1  4  1  0  0  0  0
  2  4  1  0  0  0  0
  2  5  2  0  0  0  0
  2  6  1  0  0  0  0
  3  4  1  0  0  0  0
  3  7  1  0  0  0  0
  3  8  1  0  0  0  0
  4 29  1  0  0  0  0
  6  9  1  0  0  0  0
  6 12  1  0  0  0  0
  8 10  1  0  0  0  0
  8 11  2  0  0  0  0
  9 13  1  0  0  0  0
  9 14  1  0  0  0  0
  9 15  1  0  0  0  0
 10 16  1  0  0  0  0
 10 17  1  0  0  0  0
 10 18  1  0  0  0  0
 19 20  1  0  0  0  0
 20 21  1  0  0  0  0
 20 22  1  0  0  0  0
 20 23  1  0  0  0  0
 23 24  4  0  0  0  0
 23 28  4  0  0  0  0
 24 25  4  0  0  0  0
 24 30  1  0  0  0  0
 25 26  4  0  0  0  0
 25 31  1  0  0  0  0
 26 27  4  0  0  0  0
 26 29  1  0  0  0  0
 27 28  4  0  0  0  0
 27 32  1  0  0  0  0
 28 33  1  0  0  0  0
 29 34  1  0  0  0  0
 29 35  1  0  0  0  0
M  END
> <BCLConfClusterSize>
1

> <ConfClashScore>
0 

> <ConfOneFourInteractionScore>
-0.985807 

> <ConfScore>
0.333699 

> <ConfScorePBest>
0.00555537 

> <ConfTolerance>
0.563221 

> <RosettaParamsInstructions>
M  ROOT 3
M  POLY_N_BB 3
M  POLY_CA_BB 4
M  POLY_C_BB 2
M  POLY_O_BB 5
M  POLY_IGNORE 9 10 11 12 13 14 15 16 17 18 
M  POLY_UPPER 6
M  POLY_LOWER 8
M  POLY_CHG 0
M  POLY_PROPERTIES ALPHA_AA D_AA PROTEIN AROMATIC POLYMER 
M  END

$$$$



 35 35  0  0  0  0  0  0  0  0999 V2000
   -2.9288    2.3036    0.1161 H   0  0  0  1  0  0  0  0  0  0  0  0
   -1.5125    0.7729    0.3279 C   0  0  0  1  0  0  0  0  0  0  0  0
   -3.1806    1.0587   -1.4950 N   0  0  0  1  0  0  0  0  0  0  0  0
   -2.3066    1.7344   -0.5425 C   0  0  0  1  0  0  0  0  0  0  0  0
   -1.9940   -0.3055    0.6391 O   0  0  0  1  0  0  0  0  0  0  0  0
   -0.2647    1.1359    0.6433 N   0  0  0  1  0  0  0  0  0  0  0  0
   -3.1392    0.0804   -1.5328 H   0  0  0  1  0  0  0  0  0  0  0  0
   -4.0315    1.6720   -2.3181 C   0  0  0  1  0  0  0  0  0  0  0  0
    0.5568    0.2755    1.4815 C   0  0  0  1  0  0  0  0  0  0  0  0
   -4.8344    0.7678   -3.2257 C   0  0  0  1  0  0  0  0  0  0  0  0
   -4.1683    2.8940   -2.3512 O   0  0  0  1  0  0  0  0  0  0  0  0
    0.0973    1.9832    0.3093 H   0  0  0  1  0  0  0  0  0  0  0  0
    1.0974   -0.4125    0.8656 H   0  0  0  1  0  0  0  0  0  0  0  0
   -0.0702   -0.2678    2.1572 H   0  0  0  1  0  0  0  0  0  0  0  0
    1.2473    0.8741    2.0381 H   0  0  0  1  0  0  0  0  0  0  0  0
   -4.9558   -0.1883   -2.7608 H   0  0  0  1  0  0  0  0  0  0  0  0
   -4.3198    0.6489   -4.1562 H   0  0  0  1  0  0  0  0  0  0  0  0
   -5.7959    1.2028   -3.4023 H   0  0  0  1  0  0  0  0  0  0  0  0
    3.1700    0.6903   -5.2963 F   0  0  0  1  0  0  0  0  0  0  0  0
    1.9267    0.2073   -5.2640 C   0  0  0  1  0  0  0  0  0  0  0  0
    1.4515    0.3178   -6.5055 F   0  0  0  1  0  0  0  0  0  0  0  0
    2.0399   -1.0993   -5.0221 F   0  0  0  1  0  0  0  0  0  0  0  0
    1.0567    0.9127   -4.2448 C   0  0  0  1  0  0  0  0  0  0  0  0
    1.6152    1.3436   -3.0516 C   0  0  0  1  0  0  0  0  0  0  0  0
    0.8128    1.9043   -2.0758 C   0  0  0  1  0  0  0  0  0  0  0  0
   -0.5495    2.0407   -2.2925 C   0  0  0  1  0  0  0  0  0  0  0  0
   -1.1062    1.6110   -3.4823 C   0  0  0  1  0  0  0  0  0  0  0  0
   -0.3017    1.0486   -4.4610 C   0  0  0  1  0  0  0  0  0  0  0  0
   -1.4429    2.7413   -1.2963 C   0  0  0  1  0  0  0  0  0  0  0  0
    2.6380    1.2451   -2.8905 H   0  0  0  1  0  0  0  0  0  0  0  0
    1.2312    2.2240   -1.1789 H   0  0  0  1  0  0  0  0  0  0  0  0
   -2.1290    1.7096   -3.6433 H   0  0  0  1  0  0  0  0  0  0  0  0
   -0.7201    0.7290   -5.3579 H   0  0  0  1  0  0  0  0  0  0  0  0
   -0.8358    3.2762   -0.5962 H   0  0  0  1  0  0  0  0  0  0  0  0
   -2.0776    3.4279   -1.8164 H   0  0  0  1  0  0  0  0  0  0  0  0
  1  4  1  0  0  0  0
  2  4  1  0  0  0  0
  2  5  2  0  0  0  0
  2  6  1  0  0  0  0
  3  4  1  0  0  0  0
  3  7  1  0  0  0  0
  3  8  1  0  0  0  0
  4 29  1  0  0  0  0
  6  9  1  0  0  0  0
  6 12  1  0  0  0  0
  8 10  1  0  0  0  0
  8 11  2  0  0  0  0
  9 13  1  0  0  0  0
  9 14  1  0  0  0  0
  9 15  1  0  0  0  0
 10 16  1  0  0  0  0
 10 17  1  0  0  0  0
 10 18  1  0  0  0  0
 19 20  1  0  0  0  0
 20 21  1  0  0  0  0
 20 22  1  0  0  0  0
 20 23  1  0  0  0  0
 23 24  4  0  0  0  0
 23 28  4  0  0  0  0
 24 25  4  0  0  0  0
 24 30  1  0  0  0  0
 25 26  4  0  0  0  0
 25 31  1  0  0  0  0
 26 27  4  0  0  0  0
 26 29  1  0  0  0  0
 27 28  4  0  0  0  0
 27 32  1  0  0  0  0
 28 33  1  0  0  0  0
 29 34  1  0  0  0  0
 29 35  1  0  0  0  0
M  END
> <BCLConfClusterSize>
1

> <ConfClashScore>
0 

> <ConfOneFourInteractionScore>
-0.927466 

> <ConfScore>
0.337648 

> <ConfScorePBest>
0.00552689 

> <ConfTolerance>
0.414147 

> <RosettaParamsInstructions>
M  ROOT 3
M  POLY_N_BB 3
M  POLY_CA_BB 4
M  POLY_C_BB 2
M  POLY_O_BB 5
M  POLY_IGNORE 9 10 11 12 13 14 15 16 17 18 
M  POLY_UPPER 6
M  POLY_LOWER 8
M  POLY_CHG 0
M  POLY_PROPERTIES ALPHA_AA D_AA PROTEIN AROMATIC POLYMER 
M  END

$$$$



 35 35  0  0  0  0  0  0  0  0999 V2000
   -0.3682    4.2456   -0.5892 H   0  0  0  1  0  0  0  0  0  0  0  0
   -2.2950    4.6454    0.0757 C   0  0  0  1  0  0  0  0  0  0  0  0
   -1.3741    4.9162   -2.2400 N   0  0  0  1  0  0  0  0  0  0  0  0
   -1.3490    4.1107   -0.9950 C   0  0  0  1  0  0  0  0  0  0  0  0
   -1.9494    4.6802    1.2556 O   0  0  0  1  0  0  0  0  0  0  0  0
   -3.4490    5.1340   -0.3911 N   0  0  0  1  0  0  0  0  0  0  0  0
   -1.4580    4.4348   -3.0895 H   0  0  0  1  0  0  0  0  0  0  0  0
   -1.2900    6.2618   -2.2913 C   0  0  0  1  0  0  0  0  0  0  0  0
   -4.5063    5.6065    0.4903 C   0  0  0  1  0  0  0  0  0  0  0  0
   -1.1702    6.9153   -3.6494 C   0  0  0  1  0  0  0  0  0  0  0  0
   -1.3101    6.9394   -1.2645 O   0  0  0  1  0  0  0  0  0  0  0  0
   -3.5875    5.1754   -1.3604 H   0  0  0  1  0  0  0  0  0  0  0  0
   -5.4083    5.7348   -0.0708 H   0  0  0  1  0  0  0  0  0  0  0  0
   -4.2188    6.5424    0.9219 H   0  0  0  1  0  0  0  0  0  0  0  0
   -4.6691    4.8896    1.2677 H   0  0  0  1  0  0  0  0  0  0  0  0
   -2.1289    6.9302   -4.1244 H   0  0  0  1  0  0  0  0  0  0  0  0
   -0.4822    6.3605   -4.2525 H   0  0  0  1  0  0  0  0  0  0  0  0
   -0.8148    7.9178   -3.5325 H   0  0  0  1  0  0  0  0  0  0  0  0
    2.8030   -0.6212   -4.6620 F   0  0  0  1  0  0  0  0  0  0  0  0
    1.9244    0.1867   -5.2582 C   0  0  0  1  0  0  0  0  0  0  0  0
    2.6361    1.0418   -5.9941 F   0  0  0  1  0  0  0  0  0  0  0  0
    1.2105   -0.5612   -6.1005 F   0  0  0  1  0  0  0  0  0  0  0  0
    1.0653    0.9141   -4.2425 C   0  0  0  1  0  0  0  0  0  0  0  0
    1.5594    1.1405   -2.9673 C   0  0  0  1  0  0  0  0  0  0  0  0
    0.7519    1.7187   -2.0061 C   0  0  0  1  0  0  0  0  0  0  0  0
   -0.5501    2.0770   -2.3186 C   0  0  0  1  0  0  0  0  0  0  0  0
   -1.0426    1.8512   -3.5901 C   0  0  0  1  0  0  0  0  0  0  0  0
   -0.2330    1.2713   -4.5543 C   0  0  0  1  0  0  0  0  0  0  0  0
   -1.4679    2.6253   -1.2515 C   0  0  0  1  0  0  0  0  0  0  0  0
    2.5376    0.8754   -2.7339 H   0  0  0  1  0  0  0  0  0  0  0  0
    1.1213    1.8850   -1.0482 H   0  0  0  1  0  0  0  0  0  0  0  0
   -2.0208    2.1163   -3.8234 H   0  0  0  1  0  0  0  0  0  0  0  0
   -0.6024    1.1051   -5.5122 H   0  0  0  1  0  0  0  0  0  0  0  0
   -2.4760    2.4208   -1.5463 H   0  0  0  1  0  0  0  0  0  0  0  0
   -1.2526    2.1140   -0.3365 H   0  0  0  1  0  0  0  0  0  0  0  0
  1  4  1  0  0  0  0
  2  4  1  0  0  0  0
  2  5  2  0  0  0  0
  2  6  1  0  0  0  0
  3  4  1  0  0  0  0
  3  7  1  0  0  0  0
  3  8  1  0  0  0  0
  4 29  1  0  0  0  0
  6  9  1  0  0  0  0
  6 12  1  0  0  0  0
  8 10  1  0  0  0  0
  8 11  2  0  0  0  0
  9 13  1  0  0  0  0
  9 14  1  0  0  0  0
  9 15  1  0  0  0  0
 10 16  1  0  0  0  0
 10 17  1  0  0  0  0
 10 18  1  0  0  0  0
 19 20  1  0  0  0  0
 20 21  1  0  0  0  0
 20 22  1  0  0  0  0
 20 23  1  0  0  0  0
 23 24  4  0  0  0  0
 23 28  4  0  0  0  0
 24 25  4  0  0  0  0
 24 30  1  0  0  0  0
 25 26  4  0  0  0  0
 25 31  1  0  0  0  0
 26 27  4  0  0  0  0
 26 29  1  0  0  0  0
 27 28  4  0  0  0  0
 27 32  1  0  0  0  0
 28 33  1  0  0  0  0
 29 34  1  0  0  0  0
 29 35  1  0  0  0  0
M  END
> <BCLConfClusterSize>
1

> <ConfClashScore>
0 

> <ConfOneFourInteractionScore>
-0.94165 

> <ConfScore>
0.337781 

> <ConfScorePBest>
0.00549841 

> <ConfTolerance>
0.367233 

> <RosettaParamsInstructions>
M  ROOT 3
M  POLY_N_BB 3
M  POLY_CA_BB 4
M  POLY_C_BB 2
M  POLY_O_BB 5
M  POLY_IGNORE 9 10 11 12 13 14 15 16 17 18 
M  POLY_UPPER 6
M  POLY_LOWER 8
M  POLY_CHG 0
M  POLY_PROPERTIES ALPHA_AA D_AA PROTEIN AROMATIC POLYMER 
M  END

$$$$



 35 35  0  0  0  0  0  0  0  0999 V2000
   -2.1368    4.1534   -2.6180 H   0  0  0  1  0  0  0  0  0  0  0  0
   -0.4996    5.0197   -1.6364 C   0  0  0  1  0  0  0  0  0  0  0  0
   -2.7948    4.6490   -0.7322 N   0  0  0  1  0  0  0  0  0  0  0  0
   -1.7434    4.1449   -1.6230 C   0  0  0  1  0  0  0  0  0  0  0  0
    0.3981    4.7964   -2.4472 O   0  0  0  1  0  0  0  0  0  0  0  0
   -0.4874    6.0628   -0.7996 N   0  0  0  1  0  0  0  0  0  0  0  0
   -3.1369    4.0628   -0.0252 H   0  0  0  1  0  0  0  0  0  0  0  0
   -3.3019    5.8793   -0.8513 C   0  0  0  1  0  0  0  0  0  0  0  0
    0.5017    7.1259   -0.8967 C   0  0  0  1  0  0  0  0  0  0  0  0
   -4.4228    6.2256    0.1094 C   0  0  0  1  0  0  0  0  0  0  0  0
   -2.8982    6.6928   -1.6813 O   0  0  0  1  0  0  0  0  0  0  0  0
   -1.1682    6.1130   -0.0965 H   0  0  0  1  0  0  0  0  0  0  0  0
    1.4342    6.7171   -1.2256 H   0  0  0  1  0  0  0  0  0  0  0  0
    0.6307    7.5814    0.0628 H   0  0  0  1  0  0  0  0  0  0  0  0
    0.1672    7.8607   -1.5989 H   0  0  0  1  0  0  0  0  0  0  0  0
   -4.7530    7.2269   -0.0731 H   0  0  0  1  0  0  0  0  0  0  0  0
   -4.0674    6.1453    1.1155 H   0  0  0  1  0  0  0  0  0  0  0  0
   -5.2388    5.5491   -0.0363 H   0  0  0  1  0  0  0  0  0  0  0  0
    2.0546    0.8890   -6.3955 F   0  0  0  1  0  0  0  0  0  0  0  0
    1.9225    0.1983   -5.2617 C   0  0  0  1  0  0  0  0  0  0  0  0
    1.4258   -0.9910   -5.6055 F   0  0  0  1  0  0  0  0  0  0  0  0
    3.1590   -0.0279   -4.8160 F   0  0  0  1  0  0  0  0  0  0  0  0
    1.0607    0.9145   -4.2431 C   0  0  0  1  0  0  0  0  0  0  0  0
    1.6009    1.2610   -3.0144 C   0  0  0  1  0  0  0  0  0  0  0  0
    0.7993    1.8305   -2.0431 C   0  0  0  1  0  0  0  0  0  0  0  0
   -0.5435    2.0601   -2.2995 C   0  0  0  1  0  0  0  0  0  0  0  0
   -1.0819    1.7145   -3.5245 C   0  0  0  1  0  0  0  0  0  0  0  0
   -0.2782    1.1434   -4.4988 C   0  0  0  1  0  0  0  0  0  0  0  0
   -1.4667    2.6842   -1.2798 C   0  0  0  1  0  0  0  0  0  0  0  0
    2.6092    1.0925   -2.8235 H   0  0  0  1  0  0  0  0  0  0  0  0
    1.2036    2.0868   -1.1199 H   0  0  0  1  0  0  0  0  0  0  0  0
   -2.0903    1.8831   -3.7155 H   0  0  0  1  0  0  0  0  0  0  0  0
   -0.6825    0.8871   -5.4221 H   0  0  0  1  0  0  0  0  0  0  0  0
   -2.3911    2.1455   -1.2674 H   0  0  0  1  0  0  0  0  0  0  0  0
   -1.0094    2.6313   -0.3138 H   0  0  0  1  0  0  0  0  0  0  0  0
  1  4  1  0  0  0  0
  2  4  1  0  0  0  0
  2  5  2  0  0  0  0
  2  6  1  0  0  0  0
  3  4  1  0  0  0  0
  3  7  1  0  0  0  0
  3  8  1  0  0  0  0
  4 29  1  0  0  0  0
  6  9  1  0  0  0  0
  6 12  1  0  0  0  0
  8 10  1  0  0  0  0
  8 11  2  0  0  0  0
  9 13  1  0  0  0  0
  9 14  1  0  0  0  0
  9 15  1  0  0  0  0
 10 16  1  0  0  0  0
 10 17  1  0  0  0  0
 10 18  1  0  0  0  0
 19 20  1  0  0  0  0
 20 21  1  0  0  0  0
 20 22  1  0  0  0  0
 20 23  1  0  0  0  0
 23 24  4  0  0  0  0
 23 28  4  0  0  0  0
 24 25  4  0  0  0  0
 24 30  1  0  0  0  0
 25 26  4  0  0  0  0
 25 31  1  0  0  0  0
 26 27  4  0  0  0  0
 26 29  1  0  0  0  0
 27 28  4  0  0  0  0
 27 32  1  0  0  0  0
 28 33  1  0  0  0  0
 29 34  1  0  0  0  0
 29 35  1  0  0  0  0
M  END
> <BCLConfClusterSize>
1

> <ConfClashScore>
0 

> <ConfOneFourInteractionScore>
-0.960318 

> <ConfScore>
0.340779 

> <ConfScorePBest>
0.00546993 

> <ConfTolerance>
0.331493 

> <RosettaParamsInstructions>
M  ROOT 3
M  POLY_N_BB 3
M  POLY_CA_BB 4
M  POLY_C_BB 2
M  POLY_O_BB 5
M  POLY_IGNORE 9 10 11 12 13 14 15 16 17 18 
M  POLY_UPPER 6
M  POLY_LOWER 8
M  POLY_CHG 0
M  POLY_PROPERTIES ALPHA_AA D_AA PROTEIN AROMATIC POLYMER 
M  END

$$$$



 35 35  0  0  0  0  0  0  0  0999 V2000
   -2.3066    4.5122   -0.7059 H   0  0  0  1  0  0  0  0  0  0  0  0
   -2.1347    4.5960   -2.7883 C   0  0  0  1  0  0  0  0  0  0  0  0
   -0.3310    4.8594   -1.1029 N   0  0  0  1  0  0  0  0  0  0  0  0
   -1.5844    4.1959   -1.4293 C   0  0  0  1  0  0  0  0  0  0  0  0
   -3.1357    4.0531   -3.2527 O   0  0  0  1  0  0  0  0  0  0  0  0
   -1.5261    5.6196   -3.3968 N   0  0  0  1  0  0  0  0  0  0  0  0
    0.2035    5.2091   -1.8462 H   0  0  0  1  0  0  0  0  0  0  0  0
    0.1453    5.0273    0.1317 C   0  0  0  1  0  0  0  0  0  0  0  0
   -1.8537    6.1125   -4.7263 C   0  0  0  1  0  0  0  0  0  0  0  0
    1.4417    5.8067    0.2373 C   0  0  0  1  0  0  0  0  0  0  0  0
   -0.4173    4.5855    1.1326 O   0  0  0  1  0  0  0  0  0  0  0  0
   -0.8052    6.0718   -2.9108 H   0  0  0  1  0  0  0  0  0  0  0  0
   -2.1398    5.2923   -5.3509 H   0  0  0  1  0  0  0  0  0  0  0  0
   -0.9986    6.5993   -5.1467 H   0  0  0  1  0  0  0  0  0  0  0  0
   -2.6636    6.8085   -4.6588 H   0  0  0  1  0  0  0  0  0  0  0  0
    2.1992    5.3198   -0.3407 H   0  0  0  1  0  0  0  0  0  0  0  0
    1.7483    5.8513    1.2614 H   0  0  0  1  0  0  0  0  0  0  0  0
    1.2923    6.7989   -0.1344 H   0  0  0  1  0  0  0  0  0  0  0  0
    1.8642    0.7976   -6.4628 F   0  0  0  1  0  0  0  0  0  0  0  0
    1.9120    0.1982   -5.2719 C   0  0  0  1  0  0  0  0  0  0  0  0
    1.5088   -1.0578   -5.4703 F   0  0  0  1  0  0  0  0  0  0  0  0
    3.2019    0.1285   -4.9403 F   0  0  0  1  0  0  0  0  0  0  0  0
    1.0815    0.9165   -4.2264 C   0  0  0  1  0  0  0  0  0  0  0  0
    1.6007    1.2378   -2.9819 C   0  0  0  1  0  0  0  0  0  0  0  0
    0.7873    1.8056   -2.0195 C   0  0  0  1  0  0  0  0  0  0  0  0
   -0.5463    2.0589   -2.3005 C   0  0  0  1  0  0  0  0  0  0  0  0
   -1.0638    1.7385   -3.5414 C   0  0  0  1  0  0  0  0  0  0  0  0
   -0.2482    1.1689   -4.5067 C   0  0  0  1  0  0  0  0  0  0  0  0
   -1.4815    2.6825   -1.2916 C   0  0  0  1  0  0  0  0  0  0  0  0
    2.6022    1.0515   -2.7724 H   0  0  0  1  0  0  0  0  0  0  0  0
    1.1758    2.0430   -1.0845 H   0  0  0  1  0  0  0  0  0  0  0  0
   -2.0653    1.9248   -3.7509 H   0  0  0  1  0  0  0  0  0  0  0  0
   -0.6367    0.9316   -5.4417 H   0  0  0  1  0  0  0  0  0  0  0  0
   -2.4560    2.2613   -1.4247 H   0  0  0  1  0  0  0  0  0  0  0  0
   -1.1245    2.4534   -0.3093 H   0  0  0  1  0  0  0  0  0  0  0  0
  1  4  1  0  0  0  0
  2  4  1  0  0  0  0
  2  5  2  0  0  0  0
  2  6  1  0  0  0  0
  3  4  1  0  0  0  0
  3  7  1  0  0  0  0
  3  8  1  0  0  0  0
  4 29  1  0  0  0  0
  6  9  1  0  0  0  0
  6 12  1  0  0  0  0
  8 10  1  0  0  0  0
  8 11  2  0  0  0  0
  9 13  1  0  0  0  0
  9 14  1  0  0  0  0
  9 15  1  0  0  0  0
 10 16  1  0  0  0  0
 10 17  1  0  0  0  0
 10 18  1  0  0  0  0
 19 20  1  0  0  0  0
 20 21  1  0  0  0  0
 20 22  1  0  0  0  0
 20 23  1  0  0  0  0
 23 24  4  0  0  0  0
 23 28  4  0  0  0  0
 24 25  4  0  0  0  0
 24 30  1  0  0  0  0
 25 26  4  0  0  0  0
 25 31  1  0  0  0  0
 26 27  4  0  0  0  0
 26 29  1  0  0  0  0
 27 28  4  0  0  0  0
 27 32  1  0  0  0  0
 28 33  1  0  0  0  0
 29 34  1  0  0  0  0
 29 35  1  0  0  0  0
M  END
> <BCLConfClusterSize>
1

> <ConfClashScore>
0 

> <ConfOneFourInteractionScore>
-0.957723 

> <ConfScore>
0.341859 

> <ConfScorePBest>
0.00544145 

> <ConfTolerance>
0.445402 

> <RosettaParamsInstructions>
M  ROOT 3
M  POLY_N_BB 3
M  POLY_CA_BB 4
M  POLY_C_BB 2
M  POLY_O_BB 5
M  POLY_IGNORE 9 10 11 12 13 14 15 16 17 18 
M  POLY_UPPER 6
M  POLY_LOWER 8
M  POLY_CHG 0
M  POLY_PROPERTIES ALPHA_AA D_AA PROTEIN AROMATIC POLYMER 
M  END

$$$$



 35 35  0  0  0  0  0  0  0  0999 V2000
   -2.8717    2.2125    0.2047 H   0  0  0  1  0  0  0  0  0  0  0  0
   -1.2751    0.8543    0.4369 C   0  0  0  1  0  0  0  0  0  0  0  0
   -3.0312    0.8834   -1.3799 N   0  0  0  1  0  0  0  0  0  0  0  0
   -2.2153    1.6676   -0.4413 C   0  0  0  1  0  0  0  0  0  0  0  0
   -1.2336    1.0423    1.6517 O   0  0  0  1  0  0  0  0  0  0  0  0
   -0.5961   -0.1054   -0.2073 N   0  0  0  1  0  0  0  0  0  0  0  0
   -3.4116    1.3530   -2.1514 H   0  0  0  1  0  0  0  0  0  0  0  0
   -3.2787   -0.3496   -1.2669 C   0  0  0  1  0  0  0  0  0  0  0  0
    0.3532   -0.9429    0.5172 C   0  0  0  1  0  0  0  0  0  0  0  0
   -4.0365   -0.9778   -2.4203 C   0  0  0  1  0  0  0  0  0  0  0  0
   -2.9353   -1.0147   -0.2916 O   0  0  0  1  0  0  0  0  0  0  0  0
   -0.7379   -0.2446   -1.1669 H   0  0  0  1  0  0  0  0  0  0  0  0
    0.7875   -0.3806    1.3172 H   0  0  0  1  0  0  0  0  0  0  0  0
    1.1242   -1.2670   -0.1503 H   0  0  0  1  0  0  0  0  0  0  0  0
   -0.1557   -1.7955    0.9160 H   0  0  0  1  0  0  0  0  0  0  0  0
   -4.3278   -0.2162   -3.1132 H   0  0  0  1  0  0  0  0  0  0  0  0
   -4.9088   -1.4721   -2.0466 H   0  0  0  1  0  0  0  0  0  0  0  0
   -3.4077   -1.6882   -2.9150 H   0  0  0  1  0  0  0  0  0  0  0  0
    1.5433    0.4348   -6.5134 F   0  0  0  1  0  0  0  0  0  0  0  0
    1.9258    0.1963   -5.2577 C   0  0  0  1  0  0  0  0  0  0  0  0
    1.8994   -1.1286   -5.1053 F   0  0  0  1  0  0  0  0  0  0  0  0
    3.2080    0.5555   -5.1833 F   0  0  0  1  0  0  0  0  0  0  0  0
    1.0623    0.9145   -4.2419 C   0  0  0  1  0  0  0  0  0  0  0  0
    1.5577    1.1493   -2.9687 C   0  0  0  1  0  0  0  0  0  0  0  0
    0.7464    1.7196   -2.0060 C   0  0  0  1  0  0  0  0  0  0  0  0
   -0.5608    2.0618   -2.3150 C   0  0  0  1  0  0  0  0  0  0  0  0
   -1.0546    1.8276   -3.5845 C   0  0  0  1  0  0  0  0  0  0  0  0
   -0.2411    1.2556   -4.5502 C   0  0  0  1  0  0  0  0  0  0  0  0
   -1.4019    2.6874   -1.2276 C   0  0  0  1  0  0  0  0  0  0  0  0
    2.5397    0.8963   -2.7380 H   0  0  0  1  0  0  0  0  0  0  0  0
    1.1168    1.8921   -1.0496 H   0  0  0  1  0  0  0  0  0  0  0  0
   -2.0366    2.0806   -3.8152 H   0  0  0  1  0  0  0  0  0  0  0  0
   -0.6116    1.0831   -5.5065 H   0  0  0  1  0  0  0  0  0  0  0  0
   -0.7538    3.2021   -0.5493 H   0  0  0  1  0  0  0  0  0  0  0  0
   -2.0756    3.3863   -1.6777 H   0  0  0  1  0  0  0  0  0  0  0  0
  1  4  1  0  0  0  0
  2  4  1  0  0  0  0
  2  5  2  0  0  0  0
  2  6  1  0  0  0  0
  3  4  1  0  0  0  0
  3  7  1  0  0  0  0
  3  8  1  0  0  0  0
  4 29  1  0  0  0  0
  6  9  1  0  0  0  0
  6 12  1  0  0  0  0
  8 10  1  0  0  0  0
  8 11  2  0  0  0  0
  9 13  1  0  0  0  0
  9 14  1  0  0  0  0
  9 15  1  0  0  0  0
 10 16  1  0  0  0  0
 10 17  1  0  0  0  0
 10 18  1  0  0  0  0
 19 20  1  0  0  0  0
 20 21  1  0  0  0  0
 20 22  1  0  0  0  0
 20 23  1  0  0  0  0
 23 24  4  0  0  0  0
 23 28  4  0  0  0  0
 24 25  4  0  0  0  0
 24 30  1  0  0  0  0
 25 26  4  0  0  0  0
 25 31  1  0  0  0  0
 26 27  4  0  0  0  0
 26 29  1  0  0  0  0
 27 28  4  0  0  0  0
 27 32  1  0  0  0  0
 28 33  1  0  0  0  0
 29 34  1  0  0  0  0
 29 35  1  0  0  0  0
M  END
> <BCLConfClusterSize>
1

> <ConfClashScore>
0 

> <ConfOneFourInteractionScore>
-0.952056 

> <ConfScore>
0.346134 

> <ConfScorePBest>
0.00541297 

> <ConfTolerance>
0.380864 

> <RosettaParamsInstructions>
M  ROOT 3
M  POLY_N_BB 3
M  POLY_CA_BB 4
M  POLY_C_BB 2
M  POLY_O_BB 5
M  POLY_IGNORE 9 10 11 12 13 14 15 16 17 18 
M  POLY_UPPER 6
M  POLY_LOWER 8
M  POLY_CHG 0
M  POLY_PROPERTIES ALPHA_AA D_AA PROTEIN AROMATIC POLYMER 
M  END

$$$$



 35 35  0  0  0  0  0  0  0  0999 V2000
   -1.9707    4.5925   -0.4914 H   0  0  0  1  0  0  0  0  0  0  0  0
   -2.3237    4.7390   -2.5596 C   0  0  0  1  0  0  0  0  0  0  0  0
   -0.1509    4.7812   -1.4577 N   0  0  0  1  0  0  0  0  0  0  0  0
   -1.5102    4.2269   -1.3854 C   0  0  0  1  0  0  0  0  0  0  0  0
   -2.1256    5.8498   -3.0272 O   0  0  0  1  0  0  0  0  0  0  0  0
   -3.1943    3.8786   -3.0983 N   0  0  0  1  0  0  0  0  0  0  0  0
    0.1574    5.1687   -2.3034 H   0  0  0  1  0  0  0  0  0  0  0  0
    0.6790    4.7751   -0.4107 C   0  0  0  1  0  0  0  0  0  0  0  0
   -4.1121    4.2638   -4.1600 C   0  0  0  1  0  0  0  0  0  0  0  0
    2.0680    5.3547   -0.5947 C   0  0  0  1  0  0  0  0  0  0  0  0
    0.3840    4.3269    0.6959 O   0  0  0  1  0  0  0  0  0  0  0  0
   -3.2149    2.9567   -2.7667 H   0  0  0  1  0  0  0  0  0  0  0  0
   -3.6615    4.0675   -5.1104 H   0  0  0  1  0  0  0  0  0  0  0  0
   -4.3329    5.3077   -4.0790 H   0  0  0  1  0  0  0  0  0  0  0  0
   -5.0168    3.6995   -4.0712 H   0  0  0  1  0  0  0  0  0  0  0  0
    1.9908    6.3793   -0.8936 H   0  0  0  1  0  0  0  0  0  0  0  0
    2.5879    4.8017   -1.3488 H   0  0  0  1  0  0  0  0  0  0  0  0
    2.6054    5.2923    0.3284 H   0  0  0  1  0  0  0  0  0  0  0  0
    1.1668   -0.3140   -6.2486 F   0  0  0  1  0  0  0  0  0  0  0  0
    1.9145    0.1933   -5.2669 C   0  0  0  1  0  0  0  0  0  0  0  0
    2.6082   -0.8277   -4.7612 F   0  0  0  1  0  0  0  0  0  0  0  0
    2.8042    0.9963   -5.8519 F   0  0  0  1  0  0  0  0  0  0  0  0
    1.0871    0.9098   -4.2177 C   0  0  0  1  0  0  0  0  0  0  0  0
    1.5146    1.0146   -2.9032 C   0  0  0  1  0  0  0  0  0  0  0  0
    0.6919    1.5897   -1.9530 C   0  0  0  1  0  0  0  0  0  0  0  0
   -0.5583    2.0663   -2.3154 C   0  0  0  1  0  0  0  0  0  0  0  0
   -0.9843    1.9617   -3.6260 C   0  0  0  1  0  0  0  0  0  0  0  0
   -0.1594    1.3850   -4.5792 C   0  0  0  1  0  0  0  0  0  0  0  0
   -1.4554    2.7001   -1.2786 C   0  0  0  1  0  0  0  0  0  0  0  0
    2.4541    0.6607   -2.6320 H   0  0  0  1  0  0  0  0  0  0  0  0
    1.0109    1.6648   -0.9660 H   0  0  0  1  0  0  0  0  0  0  0  0
   -1.9238    2.3156   -3.8971 H   0  0  0  1  0  0  0  0  0  0  0  0
   -0.4784    1.3099   -5.5662 H   0  0  0  1  0  0  0  0  0  0  0  0
   -2.4455    2.3142   -1.4032 H   0  0  0  1  0  0  0  0  0  0  0  0
   -1.0901    2.4396   -0.3072 H   0  0  0  1  0  0  0  0  0  0  0  0
  1  4  1  0  0  0  0
  2  4  1  0  0  0  0
  2  5  2  0  0  0  0
  2  6  1  0  0  0  0
  3  4  1  0  0  0  0
  3  7  1  0  0  0  0
  3  8  1  0  0  0  0
  4 29  1  0  0  0  0
  6  9  1  0  0  0  0
  6 12  1  0  0  0  0
  8 10  1  0  0  0  0
  8 11  2  0  0  0  0
  9 13  1  0  0  0  0
  9 14  1  0  0  0  0
  9 15  1  0  0  0  0
 10 16  1  0  0  0  0
 10 17  1  0  0  0  0
 10 18  1  0  0  0  0
 19 20  1  0  0  0  0
 20 21  1  0  0  0  0
 20 22  1  0  0  0  0
 20 23  1  0  0  0  0
 23 24  4  0  0  0  0
 23 28  4  0  0  0  0
 24 25  4  0  0  0  0
 24 30  1  0  0  0  0
 25 26  4  0  0  0  0
 25 31  1  0  0  0  0
 26 27  4  0  0  0  0
 26 29  1  0  0  0  0
 27 28  4  0  0  0  0
 27 32  1  0  0  0  0
 28 33  1  0  0  0  0
 29 34  1  0  0  0  0
 29 35  1  0  0  0  0
M  END
> <BCLConfClusterSize>
1

> <ConfClashScore>
0.000220462 

> <ConfOneFourInteractionScore>
-0.929354 

> <ConfScore>
0.346369 

> <ConfScorePBest>
0.00538449 

> <ConfTolerance>
0.443818 

> <RosettaParamsInstructions>
M  ROOT 3
M  POLY_N_BB 3
M  POLY_CA_BB 4
M  POLY_C_BB 2
M  POLY_O_BB 5
M  POLY_IGNORE 9 10 11 12 13 14 15 16 17 18 
M  POLY_UPPER 6
M  POLY_LOWER 8
M  POLY_CHG 0
M  POLY_PROPERTIES ALPHA_AA D_AA PROTEIN AROMATIC POLYMER 
M  END

$$$$



 35 35  0  0  0  0  0  0  0  0999 V2000
   -2.9993    2.3255    0.0934 H   0  0  0  1  0  0  0  0  0  0  0  0
   -1.4917    0.9000    0.4680 C   0  0  0  1  0  0  0  0  0  0  0  0
   -3.1153    0.9112   -1.4005 N   0  0  0  1  0  0  0  0  0  0  0  0
   -2.3257    1.7387   -0.4954 C   0  0  0  1  0  0  0  0  0  0  0  0
   -0.5925    1.4284    1.1200 O   0  0  0  1  0  0  0  0  0  0  0  0
   -1.8574   -0.4117    0.6203 N   0  0  0  1  0  0  0  0  0  0  0  0
   -2.9447   -0.0534   -1.4296 H   0  0  0  1  0  0  0  0  0  0  0  0
   -4.0632    1.4226   -2.1912 C   0  0  0  1  0  0  0  0  0  0  0  0
   -1.1694   -1.3178    1.5599 C   0  0  0  1  0  0  0  0  0  0  0  0
   -4.7312    0.4433   -3.1367 C   0  0  0  1  0  0  0  0  0  0  0  0
   -4.3863    2.6072   -2.1677 O   0  0  0  1  0  0  0  0  0  0  0  0
   -2.6018   -0.7602    0.0866 H   0  0  0  1  0  0  0  0  0  0  0  0
   -0.6475   -0.7411    2.2947 H   0  0  0  1  0  0  0  0  0  0  0  0
   -0.4718   -1.9257    1.0225 H   0  0  0  1  0  0  0  0  0  0  0  0
   -1.8899   -1.9436    2.0437 H   0  0  0  1  0  0  0  0  0  0  0  0
   -4.9480    0.9328   -4.0632 H   0  0  0  1  0  0  0  0  0  0  0  0
   -5.6412    0.0896   -2.6990 H   0  0  0  1  0  0  0  0  0  0  0  0
   -4.0757   -0.3834   -3.3152 H   0  0  0  1  0  0  0  0  0  0  0  0
    1.3447   -0.9590   -5.6337 F   0  0  0  1  0  0  0  0  0  0  0  0
    1.9174    0.1884   -5.2660 C   0  0  0  1  0  0  0  0  0  0  0  0
    3.1450   -0.0947   -4.8276 F   0  0  0  1  0  0  0  0  0  0  0  0
    2.0505    0.9339   -6.3638 F   0  0  0  1  0  0  0  0  0  0  0  0
    1.0925    0.9040   -4.2169 C   0  0  0  1  0  0  0  0  0  0  0  0
    1.4845    0.9436   -2.8878 C   0  0  0  1  0  0  0  0  0  0  0  0
    0.6599    1.5220   -1.9413 C   0  0  0  1  0  0  0  0  0  0  0  0
   -0.5564    2.0672   -2.3217 C   0  0  0  1  0  0  0  0  0  0  0  0
   -0.9470    2.0276   -3.6468 C   0  0  0  1  0  0  0  0  0  0  0  0
   -0.1203    1.4476   -4.5963 C   0  0  0  1  0  0  0  0  0  0  0  0
   -1.4553    2.7046   -1.2887 C   0  0  0  1  0  0  0  0  0  0  0  0
    2.3988    0.5381   -2.6030 H   0  0  0  1  0  0  0  0  0  0  0  0
    0.9521    1.5482   -0.9435 H   0  0  0  1  0  0  0  0  0  0  0  0
   -1.8614    2.4331   -3.9317 H   0  0  0  1  0  0  0  0  0  0  0  0
   -0.4125    1.4214   -5.5941 H   0  0  0  1  0  0  0  0  0  0  0  0
   -0.8368    3.2365   -0.5962 H   0  0  0  1  0  0  0  0  0  0  0  0
   -2.1010    3.3931   -1.7927 H   0  0  0  1  0  0  0  0  0  0  0  0
  1  4  1  0  0  0  0
  2  4  1  0  0  0  0
  2  5  2  0  0  0  0
  2  6  1  0  0  0  0
  3  4  1  0  0  0  0
  3  7  1  0  0  0  0
  3  8  1  0  0  0  0
  4 29  1  0  0  0  0
  6  9  1  0  0  0  0
  6 12  1  0  0  0  0
  8 10  1  0  0  0  0
  8 11  2  0  0  0  0
  9 13  1  0  0  0  0
  9 14  1  0  0  0  0
  9 15  1  0  0  0  0
 10 16  1  0  0  0  0
 10 17  1  0  0  0  0
 10 18  1  0  0  0  0
 19 20  1  0  0  0  0
 20 21  1  0  0  0  0
 20 22  1  0  0  0  0
 20 23  1  0  0  0  0
 23 24  4  0  0  0  0
 23 28  4  0  0  0  0
 24 25  4  0  0  0  0
 24 30  1  0  0  0  0
 25 26  4  0  0  0  0
 25 31  1  0  0  0  0
 26 27  4  0  0  0  0
 26 29  1  0  0  0  0
 27 28  4  0  0  0  0
 27 32  1  0  0  0  0
 28 33  1  0  0  0  0
 29 34  1  0  0  0  0
 29 35  1  0  0  0  0
M  END
> <BCLConfClusterSize>
1

> <ConfClashScore>
0 

> <ConfOneFourInteractionScore>
-0.951253 

> <ConfScore>
0.346413 

> <ConfScorePBest>
0.00535601 

> <ConfTolerance>
0.381489 

> <RosettaParamsInstructions>
M  ROOT 3
M  POLY_N_BB 3
M  POLY_CA_BB 4
M  POLY_C_BB 2
M  POLY_O_BB 5
M  POLY_IGNORE 9 10 11 12 13 14 15 16 17 18 
M  POLY_UPPER 6
M  POLY_LOWER 8
M  POLY_CHG 0
M  POLY_PROPERTIES ALPHA_AA D_AA PROTEIN AROMATIC POLYMER 
M  END

$$$$



 35 35  0  0  0  0  0  0  0  0999 V2000
   -3.1220    3.1927   -2.4332 H   0  0  0  1  0  0  0  0  0  0  0  0
   -3.7762    3.0970   -0.4081 C   0  0  0  1  0  0  0  0  0  0  0  0
   -3.2790    1.2020   -1.8446 N   0  0  0  1  0  0  0  0  0  0  0  0
   -2.9200    2.5921   -1.5710 C   0  0  0  1  0  0  0  0  0  0  0  0
   -4.7913    2.5078   -0.0704 O   0  0  0  1  0  0  0  0  0  0  0  0
   -3.3027    4.1562    0.2627 N   0  0  0  1  0  0  0  0  0  0  0  0
   -3.3838    0.8971   -2.7700 H   0  0  0  1  0  0  0  0  0  0  0  0
   -3.4648    0.3461   -0.8357 C   0  0  0  1  0  0  0  0  0  0  0  0
   -4.0046    4.7338    1.3991 C   0  0  0  1  0  0  0  0  0  0  0  0
   -3.7393   -1.1070   -1.1708 C   0  0  0  1  0  0  0  0  0  0  0  0
   -3.4265    0.6660    0.3517 O   0  0  0  1  0  0  0  0  0  0  0  0
   -2.4543    4.5557   -0.0220 H   0  0  0  1  0  0  0  0  0  0  0  0
   -4.9039    5.2053    1.0615 H   0  0  0  1  0  0  0  0  0  0  0  0
   -3.3780    5.4599    1.8735 H   0  0  0  1  0  0  0  0  0  0  0  0
   -4.2482    3.9610    2.0979 H   0  0  0  1  0  0  0  0  0  0  0  0
   -2.9701   -1.4761   -1.8166 H   0  0  0  1  0  0  0  0  0  0  0  0
   -4.6862   -1.1865   -1.6628 H   0  0  0  1  0  0  0  0  0  0  0  0
   -3.7554   -1.6837   -0.2697 H   0  0  0  1  0  0  0  0  0  0  0  0
    2.4996    1.0398   -6.1234 F   0  0  0  1  0  0  0  0  0  0  0  0
    1.9243    0.1998   -5.2613 C   0  0  0  1  0  0  0  0  0  0  0  0
    1.2365   -0.6755   -5.9962 F   0  0  0  1  0  0  0  0  0  0  0  0
    2.9153   -0.4876   -4.6920 F   0  0  0  1  0  0  0  0  0  0  0  0
    1.0563    0.9142   -4.2467 C   0  0  0  1  0  0  0  0  0  0  0  0
    1.6100    1.3281   -3.0452 C   0  0  0  1  0  0  0  0  0  0  0  0
    0.8075    1.8969   -2.0742 C   0  0  0  1  0  0  0  0  0  0  0  0
   -0.5499    2.0584   -2.3039 C   0  0  0  1  0  0  0  0  0  0  0  0
   -1.1018    1.6456   -3.5019 C   0  0  0  1  0  0  0  0  0  0  0  0
   -0.2972    1.0751   -4.4758 C   0  0  0  1  0  0  0  0  0  0  0  0
   -1.4264    2.6853   -1.2454 C   0  0  0  1  0  0  0  0  0  0  0  0
    2.6292    1.2107   -2.8744 H   0  0  0  1  0  0  0  0  0  0  0  0
    1.2222    2.2038   -1.1712 H   0  0  0  1  0  0  0  0  0  0  0  0
   -2.1210    1.7631   -3.6726 H   0  0  0  1  0  0  0  0  0  0  0  0
   -0.7119    0.7682   -5.3788 H   0  0  0  1  0  0  0  0  0  0  0  0
   -1.2486    2.1855   -0.3162 H   0  0  0  1  0  0  0  0  0  0  0  0
   -1.1619    3.7178   -1.1520 H   0  0  0  1  0  0  0  0  0  0  0  0
  1  4  1  0  0  0  0
  2  4  1  0  0  0  0
  2  5  2  0  0  0  0
  2  6  1  0  0  0  0
  3  4  1  0  0  0  0
  3  7  1  0  0  0  0
  3  8  1  0  0  0  0
  4 29  1  0  0  0  0
  6  9  1  0  0  0  0
  6 12  1  0  0  0  0
  8 10  1  0  0  0  0
  8 11  2  0  0  0  0
  9 13  1  0  0  0  0
  9 14  1  0  0  0  0
  9 15  1  0  0  0  0
 10 16  1  0  0  0  0
 10 17  1  0  0  0  0
 10 18  1  0  0  0  0
 19 20  1  0  0  0  0
 20 21  1  0  0  0  0
 20 22  1  0  0  0  0
 20 23  1  0  0  0  0
 23 24  4  0  0  0  0
 23 28  4  0  0  0  0
 24 25  4  0  0  0  0
 24 30  1  0  0  0  0
 25 26  4  0  0  0  0
 25 31  1  0  0  0  0
 26 27  4  0  0  0  0
 26 29  1  0  0  0  0
 27 28  4  0  0  0  0
 27 32  1  0  0  0  0
 28 33  1  0  0  0  0
 29 34  1  0  0  0  0
 29 35  1  0  0  0  0
M  END
> <BCLConfClusterSize>
1

> <ConfClashScore>
0 

> <ConfOneFourInteractionScore>
-0.928382 

> <ConfScore>
0.347591 

> <ConfScorePBest>
0.00532753 

> <ConfTolerance>
0.582888 

> <RosettaParamsInstructions>
M  ROOT 3
M  POLY_N_BB 3
M  POLY_CA_BB 4
M  POLY_C_BB 2
M  POLY_O_BB 5
M  POLY_IGNORE 9 10 11 12 13 14 15 16 17 18 
M  POLY_UPPER 6
M  POLY_LOWER 8
M  POLY_CHG 0
M  POLY_PROPERTIES ALPHA_AA D_AA PROTEIN AROMATIC POLYMER 
M  END

$$$$



 35 35  0  0  0  0  0  0  0  0999 V2000
   -2.7922    2.2779    0.3000 H   0  0  0  1  0  0  0  0  0  0  0  0
   -1.5536    0.5744    0.1963 C   0  0  0  1  0  0  0  0  0  0  0  0
   -3.3385    1.1722   -1.3610 N   0  0  0  1  0  0  0  0  0  0  0  0
   -2.3044    1.7214   -0.4727 C   0  0  0  1  0  0  0  0  0  0  0  0
   -1.9840   -0.5815    0.1029 O   0  0  0  1  0  0  0  0  0  0  0  0
   -0.3956    0.8784    0.7921 N   0  0  0  1  0  0  0  0  0  0  0  0
   -4.2555    1.5094   -1.2845 H   0  0  0  1  0  0  0  0  0  0  0  0
   -3.0693    0.2199   -2.2781 C   0  0  0  1  0  0  0  0  0  0  0  0
    0.4132   -0.1204    1.4749 C   0  0  0  1  0  0  0  0  0  0  0  0
   -4.1969   -0.2373   -3.1830 C   0  0  0  1  0  0  0  0  0  0  0  0
   -1.9431   -0.2647   -2.3793 O   0  0  0  1  0  0  0  0  0  0  0  0
   -0.0806    1.8061    0.7681 H   0  0  0  1  0  0  0  0  0  0  0  0
   -0.1492   -0.5462    2.2794 H   0  0  0  1  0  0  0  0  0  0  0  0
    1.2970    0.3412    1.8630 H   0  0  0  1  0  0  0  0  0  0  0  0
    0.6864   -0.8906    0.7842 H   0  0  0  1  0  0  0  0  0  0  0  0
   -4.4010    0.5206   -3.9102 H   0  0  0  1  0  0  0  0  0  0  0  0
   -5.0745   -0.4146   -2.5971 H   0  0  0  1  0  0  0  0  0  0  0  0
   -3.9108   -1.1405   -3.6803 H   0  0  0  1  0  0  0  0  0  0  0  0
    1.2068   -0.3455   -6.2405 F   0  0  0  1  0  0  0  0  0  0  0  0
    1.9267    0.1932   -5.2548 C   0  0  0  1  0  0  0  0  0  0  0  0
    2.6281   -0.8056   -4.7167 F   0  0  0  1  0  0  0  0  0  0  0  0
    2.8151    1.0021   -5.8394 F   0  0  0  1  0  0  0  0  0  0  0  0
    1.0682    0.9138   -4.2365 C   0  0  0  1  0  0  0  0  0  0  0  0
    1.5024    1.0110   -2.9237 C   0  0  0  1  0  0  0  0  0  0  0  0
    0.6862    1.5837   -1.9666 C   0  0  0  1  0  0  0  0  0  0  0  0
   -0.5644    2.0656   -2.3204 C   0  0  0  1  0  0  0  0  0  0  0  0
   -0.9972    1.9687   -3.6294 C   0  0  0  1  0  0  0  0  0  0  0  0
   -0.1787    1.3943   -4.5895 C   0  0  0  1  0  0  0  0  0  0  0  0
   -1.4132    2.6871   -1.2365 C   0  0  0  1  0  0  0  0  0  0  0  0
    2.4423    0.6530   -2.6589 H   0  0  0  1  0  0  0  0  0  0  0  0
    1.0103    1.6530   -0.9808 H   0  0  0  1  0  0  0  0  0  0  0  0
   -1.9371    2.3266   -3.8941 H   0  0  0  1  0  0  0  0  0  0  0  0
   -0.5029    1.3250   -5.5752 H   0  0  0  1  0  0  0  0  0  0  0  0
   -0.7582    3.1581   -0.5337 H   0  0  0  1  0  0  0  0  0  0  0  0
   -2.0401    3.4257   -1.6910 H   0  0  0  1  0  0  0  0  0  0  0  0
  1  4  1  0  0  0  0
  2  4  1  0  0  0  0
  2  5  2  0  0  0  0
  2  6  1  0  0  0  0
  3  4  1  0  0  0  0
  3  7  1  0  0  0  0
  3  8  1  0  0  0  0
  4 29  1  0  0  0  0
  6  9  1  0  0  0  0
  6 12  1  0  0  0  0
  8 10  1  0  0  0  0
  8 11  2  0  0  0  0
  9 13  1  0  0  0  0
  9 14  1  0  0  0  0
  9 15  1  0  0  0  0
 10 16  1  0  0  0  0
 10 17  1  0  0  0  0
 10 18  1  0  0  0  0
 19 20  1  0  0  0  0
 20 21  1  0  0  0  0
 20 22  1  0  0  0  0
 20 23  1  0  0  0  0
 23 24  4  0  0  0  0
 23 28  4  0  0  0  0
 24 25  4  0  0  0  0
 24 30  1  0  0  0  0
 25 26  4  0  0  0  0
 25 31  1  0  0  0  0
 26 27  4  0  0  0  0
 26 29  1  0  0  0  0
 27 28  4  0  0  0  0
 27 32  1  0  0  0  0
 28 33  1  0  0  0  0
 29 34  1  0  0  0  0
 29 35  1  0  0  0  0
M  END
> <BCLConfClusterSize>
1

> <ConfClashScore>
0 

> <ConfOneFourInteractionScore>
-0.951173 

> <ConfScore>
0.347968 

> <ConfScorePBest>
0.00529905 

> <ConfTolerance>
0.411519 

> <RosettaParamsInstructions>
M  ROOT 3
M  POLY_N_BB 3
M  POLY_CA_BB 4
M  POLY_C_BB 2
M  POLY_O_BB 5
M  POLY_IGNORE 9 10 11 12 13 14 15 16 17 18 
M  POLY_UPPER 6
M  POLY_LOWER 8
M  POLY_CHG 0
M  POLY_PROPERTIES ALPHA_AA D_AA PROTEIN AROMATIC POLYMER 
M  END

$$$$



 35 35  0  0  0  0  0  0  0  0999 V2000
   -3.3377    2.7270   -0.4274 H   0  0  0  1  0  0  0  0  0  0  0  0
   -2.8941    0.7353   -0.9447 C   0  0  0  1  0  0  0  0  0  0  0  0
   -3.5263    2.6166   -2.4697 N   0  0  0  1  0  0  0  0  0  0  0  0
   -2.8508    2.2311   -1.2410 C   0  0  0  1  0  0  0  0  0  0  0  0
   -2.9919    0.3168    0.2152 O   0  0  0  1  0  0  0  0  0  0  0  0
   -2.9103   -0.0793   -2.0051 N   0  0  0  1  0  0  0  0  0  0  0  0
   -3.8527    1.9273   -3.0851 H   0  0  0  1  0  0  0  0  0  0  0  0
   -3.7083    3.9493   -2.7706 C   0  0  0  1  0  0  0  0  0  0  0  0
   -3.0037   -1.5196   -1.8188 C   0  0  0  1  0  0  0  0  0  0  0  0
   -4.3074    4.2425   -4.1151 C   0  0  0  1  0  0  0  0  0  0  0  0
   -3.3883    4.8076   -1.9648 O   0  0  0  1  0  0  0  0  0  0  0  0
   -2.8590    0.2944   -2.9096 H   0  0  0  1  0  0  0  0  0  0  0  0
   -3.8801   -1.7500   -1.2498 H   0  0  0  1  0  0  0  0  0  0  0  0
   -2.1376   -1.8683   -1.2962 H   0  0  0  1  0  0  0  0  0  0  0  0
   -3.0621   -1.9994   -2.7734 H   0  0  0  1  0  0  0  0  0  0  0  0
   -4.8017    5.1910   -4.0867 H   0  0  0  1  0  0  0  0  0  0  0  0
   -5.0147    3.4793   -4.3643 H   0  0  0  1  0  0  0  0  0  0  0  0
   -3.5328    4.2662   -4.8530 H   0  0  0  1  0  0  0  0  0  0  0  0
    1.1577   -0.2968   -6.2424 F   0  0  0  1  0  0  0  0  0  0  0  0
    1.9229    0.2041   -5.2710 C   0  0  0  1  0  0  0  0  0  0  0  0
    2.5933   -0.8245   -4.7496 F   0  0  0  1  0  0  0  0  0  0  0  0
    2.8172    1.0072   -5.8489 F   0  0  0  1  0  0  0  0  0  0  0  0
    1.0892    0.9101   -4.2197 C   0  0  0  1  0  0  0  0  0  0  0  0
    1.5137    1.0110   -2.9039 C   0  0  0  1  0  0  0  0  0  0  0  0
    0.6857    1.5760   -1.9523 C   0  0  0  1  0  0  0  0  0  0  0  0
   -0.5667    2.0467   -2.3146 C   0  0  0  1  0  0  0  0  0  0  0  0
   -0.9897    1.9461   -3.6265 C   0  0  0  1  0  0  0  0  0  0  0  0
   -0.1596    1.3794   -4.5810 C   0  0  0  1  0  0  0  0  0  0  0  0
   -1.4211    2.7540   -1.2893 C   0  0  0  1  0  0  0  0  0  0  0  0
    2.4549    0.6615   -2.6328 H   0  0  0  1  0  0  0  0  0  0  0  0
    1.0025    1.6481   -0.9643 H   0  0  0  1  0  0  0  0  0  0  0  0
   -1.9310    2.2956   -3.8975 H   0  0  0  1  0  0  0  0  0  0  0  0
   -0.4764    1.3074   -5.5690 H   0  0  0  1  0  0  0  0  0  0  0  0
   -0.9769    2.6204   -0.3251 H   0  0  0  1  0  0  0  0  0  0  0  0
   -1.4477    3.7965   -1.5289 H   0  0  0  1  0  0  0  0  0  0  0  0
  1  4  1  0  0  0  0
  2  4  1  0  0  0  0
  2  5  2  0  0  0  0
  2  6  1  0  0  0  0
  3  4  1  0  0  0  0
  3  7  1  0  0  0  0
  3  8  1  0  0  0  0
  4 29  1  0  0  0  0
  6  9  1  0  0  0  0
  6 12  1  0  0  0  0
  8 10  1  0  0  0  0
  8 11  2  0  0  0  0
  9 13  1  0  0  0  0
  9 14  1  0  0  0  0
  9 15  1  0  0  0  0
 10 16  1  0  0  0  0
 10 17  1  0  0  0  0
 10 18  1  0  0  0  0
 19 20  1  0  0  0  0
 20 21  1  0  0  0  0
 20 22  1  0  0  0  0
 20 23  1  0  0  0  0
 23 24  4  0  0  0  0
 23 28  4  0  0  0  0
 24 25  4  0  0  0  0
 24 30  1  0  0  0  0
 25 26  4  0  0  0  0
 25 31  1  0  0  0  0
 26 27  4  0  0  0  0
 26 29  1  0  0  0  0
 27 28  4  0  0  0  0
 27 32  1  0  0  0  0
 28 33  1  0  0  0  0
 29 34  1  0  0  0  0
 29 35  1  0  0  0  0
M  END
> <BCLConfClusterSize>
1

> <ConfClashScore>
0 

> <ConfOneFourInteractionScore>
-0.959103 

> <ConfScore>
0.350678 

> <ConfScorePBest>
0.00527057 

> <ConfTolerance>
0.617694 

> <RosettaParamsInstructions>
M  ROOT 3
M  POLY_N_BB 3
M  POLY_CA_BB 4
M  POLY_C_BB 2
M  POLY_O_BB 5
M  POLY_IGNORE 9 10 11 12 13 14 15 16 17 18 
M  POLY_UPPER 6
M  POLY_LOWER 8
M  POLY_CHG 0
M  POLY_PROPERTIES ALPHA_AA D_AA PROTEIN AROMATIC POLYMER 
M  END

$$$$



 35 35  0  0  0  0  0  0  0  0999 V2000
   -2.5320    4.4094   -0.8500 H   0  0  0  1  0  0  0  0  0  0  0  0
   -3.2147    3.8375   -2.7264 C   0  0  0  1  0  0  0  0  0  0  0  0
   -1.0710    5.0037   -2.1535 N   0  0  0  1  0  0  0  0  0  0  0  0
   -2.0746    3.9989   -1.7259 C   0  0  0  1  0  0  0  0  0  0  0  0
   -3.5159    4.7511   -3.5040 O   0  0  0  1  0  0  0  0  0  0  0  0
   -3.7991    2.6355   -2.7710 N   0  0  0  1  0  0  0  0  0  0  0  0
   -0.5815    5.5046   -1.4680 H   0  0  0  1  0  0  0  0  0  0  0  0
   -0.8051    5.2554   -3.4700 C   0  0  0  1  0  0  0  0  0  0  0  0
   -4.8981    2.3911   -3.6931 C   0  0  0  1  0  0  0  0  0  0  0  0
    0.2608    6.3129   -3.6813 C   0  0  0  1  0  0  0  0  0  0  0  0
   -1.3833    4.6721   -4.3683 O   0  0  0  1  0  0  0  0  0  0  0  0
   -3.4866    1.9177   -2.1815 H   0  0  0  1  0  0  0  0  0  0  0  0
   -4.6938    1.5117   -4.2673 H   0  0  0  1  0  0  0  0  0  0  0  0
   -5.0051    3.2288   -4.3501 H   0  0  0  1  0  0  0  0  0  0  0  0
   -5.8036    2.2532   -3.1399 H   0  0  0  1  0  0  0  0  0  0  0  0
    0.0115    6.9053   -4.5367 H   0  0  0  1  0  0  0  0  0  0  0  0
    1.2068    5.8387   -3.8396 H   0  0  0  1  0  0  0  0  0  0  0  0
    0.3162    6.9408   -2.8167 H   0  0  0  1  0  0  0  0  0  0  0  0
    2.3805   -0.9662   -4.7852 F   0  0  0  1  0  0  0  0  0  0  0  0
    1.9262    0.1938   -5.2625 C   0  0  0  1  0  0  0  0  0  0  0  0
    3.0000    0.9148   -5.5887 F   0  0  0  1  0  0  0  0  0  0  0  0
    1.2799   -0.0716   -6.3790 F   0  0  0  1  0  0  0  0  0  0  0  0
    1.0673    0.9131   -4.2409 C   0  0  0  1  0  0  0  0  0  0  0  0
    1.5220    1.0449   -2.9380 C   0  0  0  1  0  0  0  0  0  0  0  0
    0.7089    1.6154   -1.9769 C   0  0  0  1  0  0  0  0  0  0  0  0
   -0.5590    2.0605   -2.3168 C   0  0  0  1  0  0  0  0  0  0  0  0
   -1.0122    1.9290   -3.6159 C   0  0  0  1  0  0  0  0  0  0  0  0
   -0.1969    1.3569   -4.5800 C   0  0  0  1  0  0  0  0  0  0  0  0
   -1.4458    2.6894   -1.2682 C   0  0  0  1  0  0  0  0  0  0  0  0
    2.4748    0.7145   -2.6838 H   0  0  0  1  0  0  0  0  0  0  0  0
    1.0485    1.7106   -0.9985 H   0  0  0  1  0  0  0  0  0  0  0  0
   -1.9650    2.2594   -3.8701 H   0  0  0  1  0  0  0  0  0  0  0  0
   -0.5365    1.2616   -5.5584 H   0  0  0  1  0  0  0  0  0  0  0  0
   -2.2291    2.0013   -1.0275 H   0  0  0  1  0  0  0  0  0  0  0  0
   -0.8577    2.8808   -0.3951 H   0  0  0  1  0  0  0  0  0  0  0  0
  1  4  1  0  0  0  0
  2  4  1  0  0  0  0
  2  5  2  0  0  0  0
  2  6  1  0  0  0  0
  3  4  1  0  0  0  0
  3  7  1  0  0  0  0
  3  8  1  0  0  0  0
  4 29  1  0  0  0  0
  6  9  1  0  0  0  0
  6 12  1  0  0  0  0
  8 10  1  0  0  0  0
  8 11  2  0  0  0  0
  9 13  1  0  0  0  0
  9 14  1  0  0  0  0
  9 15  1  0  0  0  0
 10 16  1  0  0  0  0
 10 17  1  0  0  0  0
 10 18  1  0  0  0  0
 19 20  1  0  0  0  0
 20 21  1  0  0  0  0
 20 22  1  0  0  0  0
 20 23  1  0  0  0  0
 23 24  4  0  0  0  0
 23 28  4  0  0  0  0
 24 25  4  0  0  0  0
 24 30  1  0  0  0  0
 25 26  4  0  0  0  0
 25 31  1  0  0  0  0
 26 27  4  0  0  0  0
 26 29  1  0  0  0  0
 27 28  4  0  0  0  0
 27 32  1  0  0  0  0
 28 33  1  0  0  0  0
 29 34  1  0  0  0  0
 29 35  1  0  0  0  0
M  END
> <BCLConfClusterSize>
1

> <ConfClashScore>
0 

> <ConfOneFourInteractionScore>
-0.924221 

> <ConfScore>
0.351086 

> <ConfScorePBest>
0.00524209 

> <ConfTolerance>
0.379924 

> <RosettaParamsInstructions>
M  ROOT 3
M  POLY_N_BB 3
M  POLY_CA_BB 4
M  POLY_C_BB 2
M  POLY_O_BB 5
M  POLY_IGNORE 9 10 11 12 13 14 15 16 17 18 
M  POLY_UPPER 6
M  POLY_LOWER 8
M  POLY_CHG 0
M  POLY_PROPERTIES ALPHA_AA D_AA PROTEIN AROMATIC POLYMER 
M  END

$$$$



 35 35  0  0  0  0  0  0  0  0999 V2000
   -0.9718    4.6621   -1.8995 H   0  0  0  1  0  0  0  0  0  0  0  0
   -2.6155    4.9064   -0.6247 C   0  0  0  1  0  0  0  0  0  0  0  0
   -2.6561    4.1239   -2.9613 N   0  0  0  1  0  0  0  0  0  0  0  0
   -1.8809    4.1320   -1.7062 C   0  0  0  1  0  0  0  0  0  0  0  0
   -2.1253    5.0553    0.4939 O   0  0  0  1  0  0  0  0  0  0  0  0
   -3.7670    5.4825   -0.9859 N   0  0  0  1  0  0  0  0  0  0  0  0
   -3.2175    3.3471   -3.1655 H   0  0  0  1  0  0  0  0  0  0  0  0
   -2.6193    5.1372   -3.8280 C   0  0  0  1  0  0  0  0  0  0  0  0
   -4.5066    6.4441   -0.1807 C   0  0  0  1  0  0  0  0  0  0  0  0
   -3.3686    4.9823   -5.1526 C   0  0  0  1  0  0  0  0  0  0  0  0
   -2.0183    6.1907   -3.6265 O   0  0  0  1  0  0  0  0  0  0  0  0
   -4.1413    5.2390   -1.8583 H   0  0  0  1  0  0  0  0  0  0  0  0
   -5.2811    5.9386    0.3574 H   0  0  0  1  0  0  0  0  0  0  0  0
   -4.9410    7.1844   -0.8194 H   0  0  0  1  0  0  0  0  0  0  0  0
   -3.8410    6.9158    0.5117 H   0  0  0  1  0  0  0  0  0  0  0  0
   -2.6688    4.9909   -5.9620 H   0  0  0  1  0  0  0  0  0  0  0  0
   -4.0581    5.7923   -5.2690 H   0  0  0  1  0  0  0  0  0  0  0  0
   -3.9031    4.0554   -5.1535 H   0  0  0  1  0  0  0  0  0  0  0  0
    1.1804   -0.2793   -6.2590 F   0  0  0  1  0  0  0  0  0  0  0  0
    1.9081    0.1782   -5.2606 C   0  0  0  1  0  0  0  0  0  0  0  0
    2.6122   -0.8151   -4.7842 F   0  0  0  1  0  0  0  0  0  0  0  0
    2.7924    0.9815   -5.8533 F   0  0  0  1  0  0  0  0  0  0  0  0
    1.0858    0.9007   -4.2116 C   0  0  0  1  0  0  0  0  0  0  0  0
    1.5183    1.0109   -2.8991 C   0  0  0  1  0  0  0  0  0  0  0  0
    0.7000    1.5915   -1.9485 C   0  0  0  1  0  0  0  0  0  0  0  0
   -0.5507    2.0685   -2.3085 C   0  0  0  1  0  0  0  0  0  0  0  0
   -0.9818    1.9585   -3.6170 C   0  0  0  1  0  0  0  0  0  0  0  0
   -0.1613    1.3762   -4.5706 C   0  0  0  1  0  0  0  0  0  0  0  0
   -1.4858    2.7173   -1.3154 C   0  0  0  1  0  0  0  0  0  0  0  0
    2.4583    0.6567   -2.6299 H   0  0  0  1  0  0  0  0  0  0  0  0
    1.0228    1.6706   -0.9630 H   0  0  0  1  0  0  0  0  0  0  0  0
   -1.9218    2.3127   -3.8862 H   0  0  0  1  0  0  0  0  0  0  0  0
   -0.4841    1.2972   -5.5560 H   0  0  0  1  0  0  0  0  0  0  0  0
   -2.3728    2.1232   -1.2444 H   0  0  0  1  0  0  0  0  0  0  0  0
   -1.0007    2.7502   -0.3622 H   0  0  0  1  0  0  0  0  0  0  0  0
  1  4  1  0  0  0  0
  2  4  1  0  0  0  0
  2  5  2  0  0  0  0
  2  6  1  0  0  0  0
  3  4  1  0  0  0  0
  3  7  1  0  0  0  0
  3  8  1  0  0  0  0
  4 29  1  0  0  0  0
  6  9  1  0  0  0  0
  6 12  1  0  0  0  0
  8 10  1  0  0  0  0
  8 11  2  0  0  0  0
  9 13  1  0  0  0  0
  9 14  1  0  0  0  0
  9 15  1  0  0  0  0
 10 16  1  0  0  0  0
 10 17  1  0  0  0  0
 10 18  1  0  0  0  0
 19 20  1  0  0  0  0
 20 21  1  0  0  0  0
 20 22  1  0  0  0  0
 20 23  1  0  0  0  0
 23 24  4  0  0  0  0
 23 28  4  0  0  0  0
 24 25  4  0  0  0  0
 24 30  1  0  0  0  0
 25 26  4  0  0  0  0
 25 31  1  0  0  0  0
 26 27  4  0  0  0  0
 26 29  1  0  0  0  0
 27 28  4  0  0  0  0
 27 32  1  0  0  0  0
 28 33  1  0  0  0  0
 29 34  1  0  0  0  0
 29 35  1  0  0  0  0
M  END
> <BCLConfClusterSize>
1

> <ConfClashScore>
0 

> <ConfOneFourInteractionScore>
-0.937775 

> <ConfScore>
0.35254 

> <ConfScorePBest>
0.00521361 

> <ConfTolerance>
0.409337 

> <RosettaParamsInstructions>
M  ROOT 3
M  POLY_N_BB 3
M  POLY_CA_BB 4
M  POLY_C_BB 2
M  POLY_O_BB 5
M  POLY_IGNORE 9 10 11 12 13 14 15 16 17 18 
M  POLY_UPPER 6
M  POLY_LOWER 8
M  POLY_CHG 0
M  POLY_PROPERTIES ALPHA_AA D_AA PROTEIN AROMATIC POLYMER 
M  END

$$$$



 35 35  0  0  0  0  0  0  0  0999 V2000
   -2.8190    2.0599    0.2224 H   0  0  0  1  0  0  0  0  0  0  0  0
   -0.9509    1.2013    0.6861 C   0  0  0  1  0  0  0  0  0  0  0  0
   -2.5807    0.4806   -1.0702 N   0  0  0  1  0  0  0  0  0  0  0  0
   -2.0235    1.6026   -0.3281 C   0  0  0  1  0  0  0  0  0  0  0  0
   -0.0280    1.9576    0.9469 O   0  0  0  1  0  0  0  0  0  0  0  0
   -1.1678    0.0312    1.2961 N   0  0  0  1  0  0  0  0  0  0  0  0
   -3.5540    0.4089   -1.1592 H   0  0  0  1  0  0  0  0  0  0  0  0
   -1.8036   -0.4640   -1.6397 C   0  0  0  1  0  0  0  0  0  0  0  0
   -0.2439   -0.4439    2.3152 C   0  0  0  1  0  0  0  0  0  0  0  0
   -2.4843   -1.5957   -2.3757 C   0  0  0  1  0  0  0  0  0  0  0  0
   -0.5769   -0.4083   -1.5637 O   0  0  0  1  0  0  0  0  0  0  0  0
   -1.9505   -0.5075    1.0563 H   0  0  0  1  0  0  0  0  0  0  0  0
   -0.3071   -1.5097    2.3857 H   0  0  0  1  0  0  0  0  0  0  0  0
   -0.4992   -0.0085    3.2586 H   0  0  0  1  0  0  0  0  0  0  0  0
    0.7540   -0.1628    2.0505 H   0  0  0  1  0  0  0  0  0  0  0  0
   -3.0302   -1.2031   -3.2081 H   0  0  0  1  0  0  0  0  0  0  0  0
   -3.1576   -2.0979   -1.7129 H   0  0  0  1  0  0  0  0  0  0  0  0
   -1.7470   -2.2868   -2.7271 H   0  0  0  1  0  0  0  0  0  0  0  0
    2.1701    0.9532   -6.3448 F   0  0  0  1  0  0  0  0  0  0  0  0
    1.9221    0.2061   -5.2676 C   0  0  0  1  0  0  0  0  0  0  0  0
    1.3089   -0.8779   -5.7454 F   0  0  0  1  0  0  0  0  0  0  0  0
    3.0807   -0.2163   -4.8053 F   0  0  0  1  0  0  0  0  0  0  0  0
    1.0829    0.9216   -4.2271 C   0  0  0  1  0  0  0  0  0  0  0  0
    1.6112    1.2980   -3.0020 C   0  0  0  1  0  0  0  0  0  0  0  0
    0.7935    1.8615   -2.0407 C   0  0  0  1  0  0  0  0  0  0  0  0
   -0.5537    2.0552   -2.3035 C   0  0  0  1  0  0  0  0  0  0  0  0
   -1.0802    1.6798   -3.5250 C   0  0  0  1  0  0  0  0  0  0  0  0
   -0.2603    1.1147   -4.4892 C   0  0  0  1  0  0  0  0  0  0  0  0
   -1.4467    2.6763   -1.2555 C   0  0  0  1  0  0  0  0  0  0  0  0
    2.6228    1.1564   -2.8062 H   0  0  0  1  0  0  0  0  0  0  0  0
    1.1889    2.1402   -1.1201 H   0  0  0  1  0  0  0  0  0  0  0  0
   -2.0918    1.8214   -3.7207 H   0  0  0  1  0  0  0  0  0  0  0  0
   -0.6558    0.8360   -5.4098 H   0  0  0  1  0  0  0  0  0  0  0  0
   -0.8760    3.3711   -0.6755 H   0  0  0  1  0  0  0  0  0  0  0  0
   -2.2505    3.1905   -1.7396 H   0  0  0  1  0  0  0  0  0  0  0  0
  1  4  1  0  0  0  0
  2  4  1  0  0  0  0
  2  5  2  0  0  0  0
  2  6  1  0  0  0  0
  3  4  1  0  0  0  0
  3  7  1  0  0  0  0
  3  8  1  0  0  0  0
  4 29  1  0  0  0  0
  6  9  1  0  0  0  0
  6 12  1  0  0  0  0
  8 10  1  0  0  0  0
  8 11  2  0  0  0  0
  9 13  1  0  0  0  0
  9 14  1  0  0  0  0
  9 15  1  0  0  0  0
 10 16  1  0  0  0  0
 10 17  1  0  0  0  0
 10 18  1  0  0  0  0
 19 20  1  0  0  0  0
 20 21  1  0  0  0  0
 20 22  1  0  0  0  0
 20 23  1  0  0  0  0
 23 24  4  0  0  0  0
 23 28  4  0  0  0  0
 24 25  4  0  0  0  0
 24 30  1  0  0  0  0
 25 26  4  0  0  0  0
 25 31  1  0  0  0  0
 26 27  4  0  0  0  0
 26 29  1  0  0  0  0
 27 28  4  0  0  0  0
 27 32  1  0  0  0  0
 28 33  1  0  0  0  0
 29 34  1  0  0  0  0
 29 35  1  0  0  0  0
M  END
> <BCLConfClusterSize>
1

> <ConfClashScore>
0 

> <ConfOneFourInteractionScore>
-0.928983 

> <ConfScore>
0.354196 

> <ConfScorePBest>
0.00518512 

> <ConfTolerance>
0.377231 

> <RosettaParamsInstructions>
M  ROOT 3
M  POLY_N_BB 3
M  POLY_CA_BB 4
M  POLY_C_BB 2
M  POLY_O_BB 5
M  POLY_IGNORE 9 10 11 12 13 14 15 16 17 18 
M  POLY_UPPER 6
M  POLY_LOWER 8
M  POLY_CHG 0
M  POLY_PROPERTIES ALPHA_AA D_AA PROTEIN AROMATIC POLYMER 
M  END

$$$$



 35 35  0  0  0  0  0  0  0  0999 V2000
   -1.4116    0.8960   -0.0289 H   0  0  0  1  0  0  0  0  0  0  0  0
   -3.1798    0.7790   -1.1675 C   0  0  0  1  0  0  0  0  0  0  0  0
   -2.7521    2.2479    0.7688 N   0  0  0  1  0  0  0  0  0  0  0  0
   -2.1564    1.5782   -0.3820 C   0  0  0  1  0  0  0  0  0  0  0  0
   -2.9602    0.4313   -2.3176 O   0  0  0  1  0  0  0  0  0  0  0  0
   -4.2823    0.4078   -0.5022 N   0  0  0  1  0  0  0  0  0  0  0  0
   -2.3169    2.1633    1.6428 H   0  0  0  1  0  0  0  0  0  0  0  0
   -3.8705    2.9725    0.6728 C   0  0  0  1  0  0  0  0  0  0  0  0
   -5.3381   -0.3227   -1.1873 C   0  0  0  1  0  0  0  0  0  0  0  0
   -4.4116    3.5237    1.9764 C   0  0  0  1  0  0  0  0  0  0  0  0
   -4.4377    3.1886   -0.3949 O   0  0  0  1  0  0  0  0  0  0  0  0
   -4.3777    0.6288    0.4478 H   0  0  0  1  0  0  0  0  0  0  0  0
   -4.9341   -0.8077   -2.0514 H   0  0  0  1  0  0  0  0  0  0  0  0
   -6.1061    0.3590   -1.4877 H   0  0  0  1  0  0  0  0  0  0  0  0
   -5.7502   -1.0566   -0.5267 H   0  0  0  1  0  0  0  0  0  0  0  0
   -3.6141    3.6155    2.6838 H   0  0  0  1  0  0  0  0  0  0  0  0
   -5.1560    2.8592    2.3626 H   0  0  0  1  0  0  0  0  0  0  0  0
   -4.8469    4.4857    1.8032 H   0  0  0  1  0  0  0  0  0  0  0  0
    1.2320   -0.0376   -6.3898 F   0  0  0  1  0  0  0  0  0  0  0  0
    1.9125    0.1880   -5.2646 C   0  0  0  1  0  0  0  0  0  0  0  0
    2.3384   -1.0031   -4.8414 F   0  0  0  1  0  0  0  0  0  0  0  0
    3.0023    0.8707   -5.6179 F   0  0  0  1  0  0  0  0  0  0  0  0
    1.0855    0.9135   -4.2213 C   0  0  0  1  0  0  0  0  0  0  0  0
    1.5332    1.0675   -2.9184 C   0  0  0  1  0  0  0  0  0  0  0  0
    0.7128    1.6488   -1.9701 C   0  0  0  1  0  0  0  0  0  0  0  0
   -0.5555    2.0828   -2.3230 C   0  0  0  1  0  0  0  0  0  0  0  0
   -1.0017    1.9293   -3.6220 C   0  0  0  1  0  0  0  0  0  0  0  0
   -0.1791    1.3462   -4.5733 C   0  0  0  1  0  0  0  0  0  0  0  0
   -1.4531    2.6279   -1.2373 C   0  0  0  1  0  0  0  0  0  0  0  0
    2.4863    0.7455   -2.6546 H   0  0  0  1  0  0  0  0  0  0  0  0
    1.0472    1.7607   -0.9917 H   0  0  0  1  0  0  0  0  0  0  0  0
   -1.9548    2.2512   -3.8858 H   0  0  0  1  0  0  0  0  0  0  0  0
   -0.5135    1.2344   -5.5517 H   0  0  0  1  0  0  0  0  0  0  0  0
   -0.8562    3.2355   -0.5897 H   0  0  0  1  0  0  0  0  0  0  0  0
   -2.2039    3.2320   -1.7022 H   0  0  0  1  0  0  0  0  0  0  0  0
  1  4  1  0  0  0  0
  2  4  1  0  0  0  0
  2  5  2  0  0  0  0
  2  6  1  0  0  0  0
  3  4  1  0  0  0  0
  3  7  1  0  0  0  0
  3  8  1  0  0  0  0
  4 29  1  0  0  0  0
  6  9  1  0  0  0  0
  6 12  1  0  0  0  0
  8 10  1  0  0  0  0
  8 11  2  0  0  0  0
  9 13  1  0  0  0  0
  9 14  1  0  0  0  0
  9 15  1  0  0  0  0
 10 16  1  0  0  0  0
 10 17  1  0  0  0  0
 10 18  1  0  0  0  0
 19 20  1  0  0  0  0
 20 21  1  0  0  0  0
 20 22  1  0  0  0  0
 20 23  1  0  0  0  0
 23 24  4  0  0  0  0
 23 28  4  0  0  0  0
 24 25  4  0  0  0  0
 24 30  1  0  0  0  0
 25 26  4  0  0  0  0
 25 31  1  0  0  0  0
 26 27  4  0  0  0  0
 26 29  1  0  0  0  0
 27 28  4  0  0  0  0
 27 32  1  0  0  0  0
 28 33  1  0  0  0  0
 29 34  1  0  0  0  0
 29 35  1  0  0  0  0
M  END
> <BCLConfClusterSize>
1

> <ConfClashScore>
0 

> <ConfOneFourInteractionScore>
-0.957723 

> <ConfScore>
0.355567 

> <ConfScorePBest>
0.00515664 

> <ConfTolerance>
0.30731 

> <RosettaParamsInstructions>
M  ROOT 3
M  POLY_N_BB 3
M  POLY_CA_BB 4
M  POLY_C_BB 2
M  POLY_O_BB 5
M  POLY_IGNORE 9 10 11 12 13 14 15 16 17 18 
M  POLY_UPPER 6
M  POLY_LOWER 8
M  POLY_CHG 0
M  POLY_PROPERTIES ALPHA_AA D_AA PROTEIN AROMATIC POLYMER 
M  END

$$$$



 35 35  0  0  0  0  0  0  0  0999 V2000
   -2.5517    2.1868    0.4565 H   0  0  0  1  0  0  0  0  0  0  0  0
   -1.1616    0.6256    0.2924 C   0  0  0  1  0  0  0  0  0  0  0  0
   -3.1645    1.0381   -1.1374 N   0  0  0  1  0  0  0  0  0  0  0  0
   -2.0907    1.6480   -0.3448 C   0  0  0  1  0  0  0  0  0  0  0  0
   -0.0124    0.9156    0.5873 O   0  0  0  1  0  0  0  0  0  0  0  0
   -1.6998   -0.5627    0.5868 N   0  0  0  1  0  0  0  0  0  0  0  0
   -4.0672    1.4094   -1.0495 H   0  0  0  1  0  0  0  0  0  0  0  0
   -2.9892    0.0045   -1.9747 C   0  0  0  1  0  0  0  0  0  0  0  0
   -0.9520   -1.6066    1.2717 C   0  0  0  1  0  0  0  0  0  0  0  0
   -4.1684   -0.4360   -2.8200 C   0  0  0  1  0  0  0  0  0  0  0  0
   -1.9065   -0.5697   -2.0559 O   0  0  0  1  0  0  0  0  0  0  0  0
   -2.6300   -0.7367    0.3324 H   0  0  0  1  0  0  0  0  0  0  0  0
   -0.5908   -1.2322    2.2067 H   0  0  0  1  0  0  0  0  0  0  0  0
   -0.1241   -1.9086    0.6649 H   0  0  0  1  0  0  0  0  0  0  0  0
   -1.5914   -2.4464    1.4472 H   0  0  0  1  0  0  0  0  0  0  0  0
   -4.7625    0.4162   -3.0760 H   0  0  0  1  0  0  0  0  0  0  0  0
   -4.7634   -1.1322   -2.2666 H   0  0  0  1  0  0  0  0  0  0  0  0
   -3.8113   -0.9030   -3.7141 H   0  0  0  1  0  0  0  0  0  0  0  0
    1.3387    0.0956   -6.4485 F   0  0  0  1  0  0  0  0  0  0  0  0
    1.9273    0.1953   -5.2554 C   0  0  0  1  0  0  0  0  0  0  0  0
    2.2259   -1.0537   -4.8803 F   0  0  0  1  0  0  0  0  0  0  0  0
    3.0916    0.8114   -5.4636 F   0  0  0  1  0  0  0  0  0  0  0  0
    1.0635    0.9149   -4.2408 C   0  0  0  1  0  0  0  0  0  0  0  0
    1.5286    1.0847   -2.9460 C   0  0  0  1  0  0  0  0  0  0  0  0
    0.7124    1.6563   -1.9881 C   0  0  0  1  0  0  0  0  0  0  0  0
   -0.5691    2.0646   -2.3234 C   0  0  0  1  0  0  0  0  0  0  0  0
   -1.0326    1.8953   -3.6144 C   0  0  0  1  0  0  0  0  0  0  0  0
   -0.2143    1.3220   -4.5752 C   0  0  0  1  0  0  0  0  0  0  0  0
   -1.3732    2.6814   -1.2034 C   0  0  0  1  0  0  0  0  0  0  0  0
    2.4915    0.7820   -2.6954 H   0  0  0  1  0  0  0  0  0  0  0  0
    1.0598    1.7800   -1.0157 H   0  0  0  1  0  0  0  0  0  0  0  0
   -1.9955    2.1979   -3.8650 H   0  0  0  1  0  0  0  0  0  0  0  0
   -0.5617    1.1983   -5.5476 H   0  0  0  1  0  0  0  0  0  0  0  0
   -0.7111    3.2432   -0.5781 H   0  0  0  1  0  0  0  0  0  0  0  0
   -2.1039    3.3366   -1.6295 H   0  0  0  1  0  0  0  0  0  0  0  0
  1  4  1  0  0  0  0
  2  4  1  0  0  0  0
  2  5  2  0  0  0  0
  2  6  1  0  0  0  0
  3  4  1  0  0  0  0
  3  7  1  0  0  0  0
  3  8  1  0  0  0  0
  4 29  1  0  0  0  0
  6  9  1  0  0  0  0
  6 12  1  0  0  0  0
  8 10  1  0  0  0  0
  8 11  2  0  0  0  0
  9 13  1  0  0  0  0
  9 14  1  0  0  0  0
  9 15  1  0  0  0  0
 10 16  1  0  0  0  0
 10 17  1  0  0  0  0
 10 18  1  0  0  0  0
 19 20  1  0  0  0  0
 20 21  1  0  0  0  0
 20 22  1  0  0  0  0
 20 23  1  0  0  0  0
 23 24  4  0  0  0  0
 23 28  4  0  0  0  0
 24 25  4  0  0  0  0
 24 30  1  0  0  0  0
 25 26  4  0  0  0  0
 25 31  1  0  0  0  0
 26 27  4  0  0  0  0
 26 29  1  0  0  0  0
 27 28  4  0  0  0  0
 27 32  1  0  0  0  0
 28 33  1  0  0  0  0
 29 34  1  0  0  0  0
 29 35  1  0  0  0  0
M  END
> <BCLConfClusterSize>
1

> <ConfClashScore>
0 

> <ConfOneFourInteractionScore>
-0.948009 

> <ConfScore>
0.356766 

> <ConfScorePBest>
0.00512816 

> <ConfTolerance>
0.384955 

> <RosettaParamsInstructions>
M  ROOT 3
M  POLY_N_BB 3
M  POLY_CA_BB 4
M  POLY_C_BB 2
M  POLY_O_BB 5
M  POLY_IGNORE 9 10 11 12 13 14 15 16 17 18 
M  POLY_UPPER 6
M  POLY_LOWER 8
M  POLY_CHG 0
M  POLY_PROPERTIES ALPHA_AA D_AA PROTEIN AROMATIC POLYMER 
M  END

$$$$



 35 35  0  0  0  0  0  0  0  0999 V2000
   -2.7660    4.2487   -0.8774 H   0  0  0  1  0  0  0  0  0  0  0  0
   -3.2490    3.4887   -2.7779 C   0  0  0  1  0  0  0  0  0  0  0  0
   -1.3753    4.9816   -2.2048 N   0  0  0  1  0  0  0  0  0  0  0  0
   -2.2169    3.8831   -1.7199 C   0  0  0  1  0  0  0  0  0  0  0  0
   -4.2376    2.8430   -2.4707 O   0  0  0  1  0  0  0  0  0  0  0  0
   -3.0135    3.9795   -3.9993 N   0  0  0  1  0  0  0  0  0  0  0  0
   -0.4037    4.8660   -2.1505 H   0  0  0  1  0  0  0  0  0  0  0  0
   -1.8334    6.1284   -2.7149 C   0  0  0  1  0  0  0  0  0  0  0  0
   -3.9784    4.0021   -5.0885 C   0  0  0  1  0  0  0  0  0  0  0  0
   -0.7776    7.1466   -3.0991 C   0  0  0  1  0  0  0  0  0  0  0  0
   -3.0214    6.3591   -2.8692 O   0  0  0  1  0  0  0  0  0  0  0  0
   -2.1241    4.3521   -4.1742 H   0  0  0  1  0  0  0  0  0  0  0  0
   -4.2508    5.0143   -5.3034 H   0  0  0  1  0  0  0  0  0  0  0  0
   -4.8504    3.4512   -4.8036 H   0  0  0  1  0  0  0  0  0  0  0  0
   -3.5436    3.5575   -5.9592 H   0  0  0  1  0  0  0  0  0  0  0  0
   -0.4203    7.6399   -2.2194 H   0  0  0  1  0  0  0  0  0  0  0  0
   -1.2038    7.8684   -3.7642 H   0  0  0  1  0  0  0  0  0  0  0  0
    0.0364    6.6502   -3.5849 H   0  0  0  1  0  0  0  0  0  0  0  0
    3.2140    0.4916   -5.1659 F   0  0  0  1  0  0  0  0  0  0  0  0
    1.9160    0.2016   -5.2709 C   0  0  0  1  0  0  0  0  0  0  0  0
    1.5641    0.5142   -6.5190 F   0  0  0  1  0  0  0  0  0  0  0  0
    1.8211   -1.1254   -5.1772 F   0  0  0  1  0  0  0  0  0  0  0  0
    1.0748    0.9188   -4.2333 C   0  0  0  1  0  0  0  0  0  0  0  0
    1.6129    1.3396   -3.0271 C   0  0  0  1  0  0  0  0  0  0  0  0
    0.7960    1.9036   -2.0654 C   0  0  0  1  0  0  0  0  0  0  0  0
   -0.5603    2.0534   -2.3090 C   0  0  0  1  0  0  0  0  0  0  0  0
   -1.0967    1.6339   -3.5117 C   0  0  0  1  0  0  0  0  0  0  0  0
   -0.2776    1.0682   -4.4764 C   0  0  0  1  0  0  0  0  0  0  0  0
   -1.4062    2.6812   -1.2265 C   0  0  0  1  0  0  0  0  0  0  0  0
    2.6312    1.2308   -2.8458 H   0  0  0  1  0  0  0  0  0  0  0  0
    1.1990    2.2156   -1.1588 H   0  0  0  1  0  0  0  0  0  0  0  0
   -2.1150    1.7426   -3.6930 H   0  0  0  1  0  0  0  0  0  0  0  0
   -0.6806    0.7562   -5.3829 H   0  0  0  1  0  0  0  0  0  0  0  0
   -2.0846    1.9427   -0.8532 H   0  0  0  1  0  0  0  0  0  0  0  0
   -0.7619    3.0062   -0.4364 H   0  0  0  1  0  0  0  0  0  0  0  0
  1  4  1  0  0  0  0
  2  4  1  0  0  0  0
  2  5  2  0  0  0  0
  2  6  1  0  0  0  0
  3  4  1  0  0  0  0
  3  7  1  0  0  0  0
  3  8  1  0  0  0  0
  4 29  1  0  0  0  0
  6  9  1  0  0  0  0
  6 12  1  0  0  0  0
  8 10  1  0  0  0  0
  8 11  2  0  0  0  0
  9 13  1  0  0  0  0
  9 14  1  0  0  0  0
  9 15  1  0  0  0  0
 10 16  1  0  0  0  0
 10 17  1  0  0  0  0
 10 18  1  0  0  0  0
 19 20  1  0  0  0  0
 20 21  1  0  0  0  0
 20 22  1  0  0  0  0
 20 23  1  0  0  0  0
 23 24  4  0  0  0  0
 23 28  4  0  0  0  0
 24 25  4  0  0  0  0
 24 30  1  0  0  0  0
 25 26  4  0  0  0  0
 25 31  1  0  0  0  0
 26 27  4  0  0  0  0
 26 29  1  0  0  0  0
 27 28  4  0  0  0  0
 27 32  1  0  0  0  0
 28 33  1  0  0  0  0
 29 34  1  0  0  0  0
 29 35  1  0  0  0  0
M  END
> <BCLConfClusterSize>
1

> <ConfClashScore>
0 

> <ConfOneFourInteractionScore>
-0.931937 

> <ConfScore>
0.357172 

> <ConfScorePBest>
0.00509968 

> <ConfTolerance>
0.478854 

> <RosettaParamsInstructions>
M  ROOT 3
M  POLY_N_BB 3
M  POLY_CA_BB 4
M  POLY_C_BB 2
M  POLY_O_BB 5
M  POLY_IGNORE 9 10 11 12 13 14 15 16 17 18 
M  POLY_UPPER 6
M  POLY_LOWER 8
M  POLY_CHG 0
M  POLY_PROPERTIES ALPHA_AA D_AA PROTEIN AROMATIC POLYMER 
M  END

$$$$



 35 35  0  0  0  0  0  0  0  0999 V2000
   -2.1751    4.5408   -0.6101 H   0  0  0  1  0  0  0  0  0  0  0  0
   -1.7163    4.7185   -2.6537 C   0  0  0  1  0  0  0  0  0  0  0  0
   -0.1305    4.7122   -0.7652 N   0  0  0  1  0  0  0  0  0  0  0  0
   -1.3987    4.2006   -1.2631 C   0  0  0  1  0  0  0  0  0  0  0  0
   -2.3917    4.0433   -3.4149 O   0  0  0  1  0  0  0  0  0  0  0  0
   -1.2981    5.9546   -2.9464 N   0  0  0  1  0  0  0  0  0  0  0  0
    0.6971    4.4461   -1.2175 H   0  0  0  1  0  0  0  0  0  0  0  0
   -0.0554    5.5319    0.2872 C   0  0  0  1  0  0  0  0  0  0  0  0
   -1.4870    6.5480   -4.2618 C   0  0  0  1  0  0  0  0  0  0  0  0
    1.3226    5.7291    0.9197 C   0  0  0  1  0  0  0  0  0  0  0  0
   -1.0506    6.0488    0.7931 O   0  0  0  1  0  0  0  0  0  0  0  0
   -0.8489    6.4790   -2.2510 H   0  0  0  1  0  0  0  0  0  0  0  0
   -2.4152    6.2125   -4.6750 H   0  0  0  1  0  0  0  0  0  0  0  0
   -0.6836    6.2535   -4.9043 H   0  0  0  1  0  0  0  0  0  0  0  0
   -1.5010    7.6142   -4.1731 H   0  0  0  1  0  0  0  0  0  0  0  0
    2.0354    5.1026    0.4254 H   0  0  0  1  0  0  0  0  0  0  0  0
    1.2790    5.4700    1.9569 H   0  0  0  1  0  0  0  0  0  0  0  0
    1.6176    6.7527    0.8193 H   0  0  0  1  0  0  0  0  0  0  0  0
    3.1729    0.6519   -5.3306 F   0  0  0  1  0  0  0  0  0  0  0  0
    1.9155    0.2094   -5.2734 C   0  0  0  1  0  0  0  0  0  0  0  0
    1.4202    0.3013   -6.5086 F   0  0  0  1  0  0  0  0  0  0  0  0
    2.0136   -1.1003   -5.0336 F   0  0  0  1  0  0  0  0  0  0  0  0
    1.0735    0.9240   -4.2346 C   0  0  0  1  0  0  0  0  0  0  0  0
    1.6159    1.3612   -3.0361 C   0  0  0  1  0  0  0  0  0  0  0  0
    0.7995    1.9222   -2.0723 C   0  0  0  1  0  0  0  0  0  0  0  0
   -0.5606    2.0528   -2.3060 C   0  0  0  1  0  0  0  0  0  0  0  0
   -1.1011    1.6169   -3.5010 C   0  0  0  1  0  0  0  0  0  0  0  0
   -0.2826    1.0541   -4.4679 C   0  0  0  1  0  0  0  0  0  0  0  0
   -1.4057    2.6781   -1.2215 C   0  0  0  1  0  0  0  0  0  0  0  0
    2.6369    1.2669   -2.8623 H   0  0  0  1  0  0  0  0  0  0  0  0
    1.2057    2.2465   -1.1715 H   0  0  0  1  0  0  0  0  0  0  0  0
   -2.1221    1.7111   -3.6748 H   0  0  0  1  0  0  0  0  0  0  0  0
   -0.6888    0.7298   -5.3686 H   0  0  0  1  0  0  0  0  0  0  0  0
   -2.4139    2.3389   -1.3373 H   0  0  0  1  0  0  0  0  0  0  0  0
   -1.0292    2.3616   -0.2713 H   0  0  0  1  0  0  0  0  0  0  0  0
  1  4  1  0  0  0  0
  2  4  1  0  0  0  0
  2  5  2  0  0  0  0
  2  6  1  0  0  0  0
  3  4  1  0  0  0  0
  3  7  1  0  0  0  0
  3  8  1  0  0  0  0
  4 29  1  0  0  0  0
  6  9  1  0  0  0  0
  6 12  1  0  0  0  0
  8 10  1  0  0  0  0
  8 11  2  0  0  0  0
  9 13  1  0  0  0  0
  9 14  1  0  0  0  0
  9 15  1  0  0  0  0
 10 16  1  0  0  0  0
 10 17  1  0  0  0  0
 10 18  1  0  0  0  0
 19 20  1  0  0  0  0
 20 21  1  0  0  0  0
 20 22  1  0  0  0  0
 20 23  1  0  0  0  0
 23 24  4  0  0  0  0
 23 28  4  0  0  0  0
 24 25  4  0  0  0  0
 24 30  1  0  0  0  0
 25 26  4  0  0  0  0
 25 31  1  0  0  0  0
 26 27  4  0  0  0  0
 26 29  1  0  0  0  0
 27 28  4  0  0  0  0
 27 32  1  0  0  0  0
 28 33  1  0  0  0  0
 29 34  1  0  0  0  0
 29 35  1  0  0  0  0
M  END
> <BCLConfClusterSize>
1

> <ConfClashScore>
0 

> <ConfOneFourInteractionScore>
-0.956715 

> <ConfScore>
0.357211 

> <ConfScorePBest>
0.0050712 

> <ConfTolerance>
0.5253 

> <RosettaParamsInstructions>
M  ROOT 3
M  POLY_N_BB 3
M  POLY_CA_BB 4
M  POLY_C_BB 2
M  POLY_O_BB 5
M  POLY_IGNORE 9 10 11 12 13 14 15 16 17 18 
M  POLY_UPPER 6
M  POLY_LOWER 8
M  POLY_CHG 0
M  POLY_PROPERTIES ALPHA_AA D_AA PROTEIN AROMATIC POLYMER 
M  END

$$$$



 35 35  0  0  0  0  0  0  0  0999 V2000
   -2.3893    4.2744   -2.2291 H   0  0  0  1  0  0  0  0  0  0  0  0
   -0.4451    4.9380   -1.8048 C   0  0  0  1  0  0  0  0  0  0  0  0
   -2.3296    4.7772   -0.2354 N   0  0  0  1  0  0  0  0  0  0  0  0
   -1.7026    4.1724   -1.4149 C   0  0  0  1  0  0  0  0  0  0  0  0
    0.0628    4.7596   -2.9106 O   0  0  0  1  0  0  0  0  0  0  0  0
    0.0013    5.8480   -0.9324 N   0  0  0  1  0  0  0  0  0  0  0  0
   -2.4566    4.2283    0.5665 H   0  0  0  1  0  0  0  0  0  0  0  0
   -2.7379    6.0629   -0.2157 C   0  0  0  1  0  0  0  0  0  0  0  0
    1.1881    6.6327   -1.2380 C   0  0  0  1  0  0  0  0  0  0  0  0
   -3.4268    6.5730    1.0351 C   0  0  0  1  0  0  0  0  0  0  0  0
   -2.5578    6.8018   -1.1827 O   0  0  0  1  0  0  0  0  0  0  0  0
   -0.4719    5.9866   -0.0854 H   0  0  0  1  0  0  0  0  0  0  0  0
    1.3039    6.7066   -2.2992 H   0  0  0  1  0  0  0  0  0  0  0  0
    2.0488    6.1556   -0.8179 H   0  0  0  1  0  0  0  0  0  0  0  0
    1.0842    7.6129   -0.8217 H   0  0  0  1  0  0  0  0  0  0  0  0
   -2.7056    7.0333    1.6776 H   0  0  0  1  0  0  0  0  0  0  0  0
   -3.8889    5.7546    1.5465 H   0  0  0  1  0  0  0  0  0  0  0  0
   -4.1722    7.2912    0.7638 H   0  0  0  1  0  0  0  0  0  0  0  0
    2.8443    0.9836   -5.8018 F   0  0  0  1  0  0  0  0  0  0  0  0
    1.9143    0.2028   -5.2734 C   0  0  0  1  0  0  0  0  0  0  0  0
    1.1850   -0.2512   -6.2939 F   0  0  0  1  0  0  0  0  0  0  0  0
    2.5559   -0.8563   -4.7714 F   0  0  0  1  0  0  0  0  0  0  0  0
    1.0755    0.9202   -4.2339 C   0  0  0  1  0  0  0  0  0  0  0  0
    1.6237    1.3686   -3.0423 C   0  0  0  1  0  0  0  0  0  0  0  0
    0.8109    1.9322   -2.0768 C   0  0  0  1  0  0  0  0  0  0  0  0
   -0.5514    2.0539   -2.3022 C   0  0  0  1  0  0  0  0  0  0  0  0
   -1.0977    1.6067   -3.4904 C   0  0  0  1  0  0  0  0  0  0  0  0
   -0.2828    1.0415   -4.4588 C   0  0  0  1  0  0  0  0  0  0  0  0
   -1.4392    2.6749   -1.2498 C   0  0  0  1  0  0  0  0  0  0  0  0
    2.6464    1.2810   -2.8747 H   0  0  0  1  0  0  0  0  0  0  0  0
    1.2215    2.2649   -1.1811 H   0  0  0  1  0  0  0  0  0  0  0  0
   -2.1204    1.6944   -3.6579 H   0  0  0  1  0  0  0  0  0  0  0  0
   -0.6934    0.7088   -5.3545 H   0  0  0  1  0  0  0  0  0  0  0  0
   -2.3820    2.1694   -1.2731 H   0  0  0  1  0  0  0  0  0  0  0  0
   -0.9766    2.5243   -0.2968 H   0  0  0  1  0  0  0  0  0  0  0  0
  1  4  1  0  0  0  0
  2  4  1  0  0  0  0
  2  5  2  0  0  0  0
  2  6  1  0  0  0  0
  3  4  1  0  0  0  0
  3  7  1  0  0  0  0
  3  8  1  0  0  0  0
  4 29  1  0  0  0  0
  6  9  1  0  0  0  0
  6 12  1  0  0  0  0
  8 10  1  0  0  0  0
  8 11  2  0  0  0  0
  9 13  1  0  0  0  0
  9 14  1  0  0  0  0
  9 15  1  0  0  0  0
 10 16  1  0  0  0  0
 10 17  1  0  0  0  0
 10 18  1  0  0  0  0
 19 20  1  0  0  0  0
 20 21  1  0  0  0  0
 20 22  1  0  0  0  0
 20 23  1  0  0  0  0
 23 24  4  0  0  0  0
 23 28  4  0  0  0  0
 24 25  4  0  0  0  0
 24 30  1  0  0  0  0
 25 26  4  0  0  0  0
 25 31  1  0  0  0  0
 26 27  4  0  0  0  0
 26 29  1  0  0  0  0
 27 28  4  0  0  0  0
 27 32  1  0  0  0  0
 28 33  1  0  0  0  0
 29 34  1  0  0  0  0
 29 35  1  0  0  0  0
M  END
> <BCLConfClusterSize>
1

> <ConfClashScore>
0 

> <ConfOneFourInteractionScore>
-0.960318 

> <ConfScore>
0.360737 

> <ConfScorePBest>
0.00504272 

> <ConfTolerance>
0.376263 

> <RosettaParamsInstructions>
M  ROOT 3
M  POLY_N_BB 3
M  POLY_CA_BB 4
M  POLY_C_BB 2
M  POLY_O_BB 5
M  POLY_IGNORE 9 10 11 12 13 14 15 16 17 18 
M  POLY_UPPER 6
M  POLY_LOWER 8
M  POLY_CHG 0
M  POLY_PROPERTIES ALPHA_AA D_AA PROTEIN AROMATIC POLYMER 
M  END

$$$$



 35 35  0  0  0  0  0  0  0  0999 V2000
    0.0182    2.8702    0.2658 H   0  0  0  1  0  0  0  0  0  0  0  0
   -0.8827    1.0131    0.6229 C   0  0  0  1  0  0  0  0  0  0  0  0
   -1.8201    3.2357    1.1277 N   0  0  0  1  0  0  0  0  0  0  0  0
   -0.9711    2.4687    0.1963 C   0  0  0  1  0  0  0  0  0  0  0  0
   -0.4789    0.7280    1.7493 O   0  0  0  1  0  0  0  0  0  0  0  0
   -1.3400    0.1024   -0.2431 N   0  0  0  1  0  0  0  0  0  0  0  0
   -2.5896    3.7267    0.7711 H   0  0  0  1  0  0  0  0  0  0  0  0
   -1.5763    3.2842    2.4404 C   0  0  0  1  0  0  0  0  0  0  0  0
   -1.5044   -1.2982    0.1161 C   0  0  0  1  0  0  0  0  0  0  0  0
   -2.5083    4.1931    3.2386 C   0  0  0  1  0  0  0  0  0  0  0  0
   -0.6334    2.7109    2.9825 O   0  0  0  1  0  0  0  0  0  0  0  0
   -1.5726    0.3883   -1.1511 H   0  0  0  1  0  0  0  0  0  0  0  0
   -0.5976   -1.8282   -0.0884 H   0  0  0  1  0  0  0  0  0  0  0  0
   -2.3020   -1.7221   -0.4575 H   0  0  0  1  0  0  0  0  0  0  0  0
   -1.7343   -1.3743    1.1583 H   0  0  0  1  0  0  0  0  0  0  0  0
   -3.5099    3.8224    3.1745 H   0  0  0  1  0  0  0  0  0  0  0  0
   -2.4688    5.1844    2.8377 H   0  0  0  1  0  0  0  0  0  0  0  0
   -2.1991    4.2094    4.2628 H   0  0  0  1  0  0  0  0  0  0  0  0
    3.1925    0.6208   -5.2323 F   0  0  0  1  0  0  0  0  0  0  0  0
    1.9265    0.2008   -5.2601 C   0  0  0  1  0  0  0  0  0  0  0  0
    1.5025    0.3775   -6.5124 F   0  0  0  1  0  0  0  0  0  0  0  0
    1.9660   -1.1174   -5.0614 F   0  0  0  1  0  0  0  0  0  0  0  0
    1.0563    0.9143   -4.2467 C   0  0  0  1  0  0  0  0  0  0  0  0
    1.6119    1.3440   -3.0516 C   0  0  0  1  0  0  0  0  0  0  0  0
    0.8085    1.9122   -2.0811 C   0  0  0  1  0  0  0  0  0  0  0  0
   -0.5517    2.0575   -2.3048 C   0  0  0  1  0  0  0  0  0  0  0  0
   -1.1055    1.6291   -3.4965 C   0  0  0  1  0  0  0  0  0  0  0  0
   -0.3000    1.0591   -4.4700 C   0  0  0  1  0  0  0  0  0  0  0  0
   -1.4293    2.6837   -1.2469 C   0  0  0  1  0  0  0  0  0  0  0  0
    2.6331    1.2387   -2.8853 H   0  0  0  1  0  0  0  0  0  0  0  0
    1.2246    2.2309   -1.1828 H   0  0  0  1  0  0  0  0  0  0  0  0
   -2.1267    1.7343   -3.6628 H   0  0  0  1  0  0  0  0  0  0  0  0
   -0.7161    0.7404   -5.3682 H   0  0  0  1  0  0  0  0  0  0  0  0
   -1.4642    3.7376   -1.4285 H   0  0  0  1  0  0  0  0  0  0  0  0
   -2.4116    2.2714   -1.3463 H   0  0  0  1  0  0  0  0  0  0  0  0
  1  4  1  0  0  0  0
  2  4  1  0  0  0  0
  2  5  2  0  0  0  0
  2  6  1  0  0  0  0
  3  4  1  0  0  0  0
  3  7  1  0  0  0  0
  3  8  1  0  0  0  0
  4 29  1  0  0  0  0
  6  9  1  0  0  0  0
  6 12  1  0  0  0  0
  8 10  1  0  0  0  0
  8 11  2  0  0  0  0
  9 13  1  0  0  0  0
  9 14  1  0  0  0  0
  9 15  1  0  0  0  0
 10 16  1  0  0  0  0
 10 17  1  0  0  0  0
 10 18  1  0  0  0  0
 19 20  1  0  0  0  0
 20 21  1  0  0  0  0
 20 22  1  0  0  0  0
 20 23  1  0  0  0  0
 23 24  4  0  0  0  0
 23 28  4  0  0  0  0
 24 25  4  0  0  0  0
 24 30  1  0  0  0  0
 25 26  4  0  0  0  0
 25 31  1  0  0  0  0
 26 27  4  0  0  0  0
 26 29  1  0  0  0  0
 27 28  4  0  0  0  0
 27 32  1  0  0  0  0
 28 33  1  0  0  0  0
 29 34  1  0  0  0  0
 29 35  1  0  0  0  0
M  END
> <BCLConfClusterSize>
1

> <ConfClashScore>
0 

> <ConfOneFourInteractionScore>
-0.9451 

> <ConfScore>
0.361578 

> <ConfScorePBest>
0.00501424 

> <ConfTolerance>
0.497454 

> <RosettaParamsInstructions>
M  ROOT 3
M  POLY_N_BB 3
M  POLY_CA_BB 4
M  POLY_C_BB 2
M  POLY_O_BB 5
M  POLY_IGNORE 9 10 11 12 13 14 15 16 17 18 
M  POLY_UPPER 6
M  POLY_LOWER 8
M  POLY_CHG 0
M  POLY_PROPERTIES ALPHA_AA D_AA PROTEIN AROMATIC POLYMER 
M  END

$$$$



 35 35  0  0  0  0  0  0  0  0999 V2000
   -1.4929    1.1695    0.1701 H   0  0  0  1  0  0  0  0  0  0  0  0
   -2.7753    0.5124   -1.3575 C   0  0  0  1  0  0  0  0  0  0  0  0
   -3.2155    2.2812    0.3515 N   0  0  0  1  0  0  0  0  0  0  0  0
   -2.2040    1.6264   -0.4860 C   0  0  0  1  0  0  0  0  0  0  0  0
   -2.8961    0.6826   -2.5609 O   0  0  0  1  0  0  0  0  0  0  0  0
   -3.0413   -0.6500   -0.7522 N   0  0  0  1  0  0  0  0  0  0  0  0
   -3.3569    3.2461    0.2550 H   0  0  0  1  0  0  0  0  0  0  0  0
   -3.9535    1.6047    1.2447 C   0  0  0  1  0  0  0  0  0  0  0  0
   -3.6473   -1.7714   -1.4544 C   0  0  0  1  0  0  0  0  0  0  0  0
   -4.9772    2.4701    1.9762 C   0  0  0  1  0  0  0  0  0  0  0  0
   -3.8424    0.4017    1.4774 O   0  0  0  1  0  0  0  0  0  0  0  0
   -2.8205   -0.7501    0.1974 H   0  0  0  1  0  0  0  0  0  0  0  0
   -4.3529   -1.4051   -2.1706 H   0  0  0  1  0  0  0  0  0  0  0  0
   -4.1485   -2.4034   -0.7513 H   0  0  0  1  0  0  0  0  0  0  0  0
   -2.8861   -2.3301   -1.9576 H   0  0  0  1  0  0  0  0  0  0  0  0
   -5.7012    2.8343    1.2776 H   0  0  0  1  0  0  0  0  0  0  0  0
   -4.4797    3.2974    2.4377 H   0  0  0  1  0  0  0  0  0  0  0  0
   -5.4679    1.8851    2.7257 H   0  0  0  1  0  0  0  0  0  0  0  0
    1.1978   -0.4763   -6.1511 F   0  0  0  1  0  0  0  0  0  0  0  0
    1.9258    0.1933   -5.2557 C   0  0  0  1  0  0  0  0  0  0  0  0
    2.7446   -0.7000   -4.6981 F   0  0  0  1  0  0  0  0  0  0  0  0
    2.7017    1.0280   -5.9533 F   0  0  0  1  0  0  0  0  0  0  0  0
    1.0705    0.9133   -4.2344 C   0  0  0  1  0  0  0  0  0  0  0  0
    1.4985    0.9909   -2.9182 C   0  0  0  1  0  0  0  0  0  0  0  0
    0.6840    1.5632   -1.9594 C   0  0  0  1  0  0  0  0  0  0  0  0
   -0.5586    2.0644   -2.3148 C   0  0  0  1  0  0  0  0  0  0  0  0
   -0.9852    1.9869   -3.6271 C   0  0  0  1  0  0  0  0  0  0  0  0
   -0.1684    1.4130   -4.5889 C   0  0  0  1  0  0  0  0  0  0  0  0
   -1.4468    2.6952   -1.2685 C   0  0  0  1  0  0  0  0  0  0  0  0
    2.4324    0.6185   -2.6522 H   0  0  0  1  0  0  0  0  0  0  0  0
    1.0033    1.6178   -0.9711 H   0  0  0  1  0  0  0  0  0  0  0  0
   -1.9191    2.3593   -3.8931 H   0  0  0  1  0  0  0  0  0  0  0  0
   -0.4878    1.3584   -5.5771 H   0  0  0  1  0  0  0  0  0  0  0  0
   -0.8430    3.2635   -0.5922 H   0  0  0  1  0  0  0  0  0  0  0  0
   -2.1502    3.3424   -1.7494 H   0  0  0  1  0  0  0  0  0  0  0  0
  1  4  1  0  0  0  0
  2  4  1  0  0  0  0
  2  5  2  0  0  0  0
  2  6  1  0  0  0  0
  3  4  1  0  0  0  0
  3  7  1  0  0  0  0
  3  8  1  0  0  0  0
  4 29  1  0  0  0  0
  6  9  1  0  0  0  0
  6 12  1  0  0  0  0
  8 10  1  0  0  0  0
  8 11  2  0  0  0  0
  9 13  1  0  0  0  0
  9 14  1  0  0  0  0
  9 15  1  0  0  0  0
 10 16  1  0  0  0  0
 10 17  1  0  0  0  0
 10 18  1  0  0  0  0
 19 20  1  0  0  0  0
 20 21  1  0  0  0  0
 20 22  1  0  0  0  0
 20 23  1  0  0  0  0
 23 24  4  0  0  0  0
 23 28  4  0  0  0  0
 24 25  4  0  0  0  0
 24 30  1  0  0  0  0
 25 26  4  0  0  0  0
 25 31  1  0  0  0  0
 26 27  4  0  0  0  0
 26 29  1  0  0  0  0
 27 28  4  0  0  0  0
 27 32  1  0  0  0  0
 28 33  1  0  0  0  0
 29 34  1  0  0  0  0
 29 35  1  0  0  0  0
M  END
> <BCLConfClusterSize>
1

> <ConfClashScore>
0.000641899 

> <ConfOneFourInteractionScore>
-0.96821 

> <ConfScore>
0.363737 

> <ConfScorePBest>
0.00498576 

> <ConfTolerance>
0.47646 

> <RosettaParamsInstructions>
M  ROOT 3
M  POLY_N_BB 3
M  POLY_CA_BB 4
M  POLY_C_BB 2
M  POLY_O_BB 5
M  POLY_IGNORE 9 10 11 12 13 14 15 16 17 18 
M  POLY_UPPER 6
M  POLY_LOWER 8
M  POLY_CHG 0
M  POLY_PROPERTIES ALPHA_AA D_AA PROTEIN AROMATIC POLYMER 
M  END

$$$$



 35 35  0  0  0  0  0  0  0  0999 V2000
   -2.5299    4.4838   -0.9258 H   0  0  0  1  0  0  0  0  0  0  0  0
   -1.9362    4.4432   -2.9801 C   0  0  0  1  0  0  0  0  0  0  0  0
   -0.5063    4.9446   -1.1166 N   0  0  0  1  0  0  0  0  0  0  0  0
   -1.6796    4.1676   -1.4931 C   0  0  0  1  0  0  0  0  0  0  0  0
   -3.0900    4.5217   -3.3986 O   0  0  0  1  0  0  0  0  0  0  0  0
   -0.8630    4.6722   -3.7445 N   0  0  0  1  0  0  0  0  0  0  0  0
    0.3593    4.4905   -1.0468 H   0  0  0  1  0  0  0  0  0  0  0  0
   -0.5695    6.2604   -0.8618 C   0  0  0  1  0  0  0  0  0  0  0  0
   -1.0191    4.9026   -5.1730 C   0  0  0  1  0  0  0  0  0  0  0  0
    0.7282    7.0063   -0.6483 C   0  0  0  1  0  0  0  0  0  0  0  0
   -1.6496    6.8448   -0.8033 O   0  0  0  1  0  0  0  0  0  0  0  0
    0.0303    4.6849   -3.3419 H   0  0  0  1  0  0  0  0  0  0  0  0
   -2.0601    4.9307   -5.4186 H   0  0  0  1  0  0  0  0  0  0  0  0
   -0.5462    4.1107   -5.7154 H   0  0  0  1  0  0  0  0  0  0  0  0
   -0.5657    5.8356   -5.4351 H   0  0  0  1  0  0  0  0  0  0  0  0
    1.5487    6.3890   -0.9496 H   0  0  0  1  0  0  0  0  0  0  0  0
    0.8305    7.2544    0.3875 H   0  0  0  1  0  0  0  0  0  0  0  0
    0.7240    7.9032   -1.2317 H   0  0  0  1  0  0  0  0  0  0  0  0
    3.1237    0.7771   -5.3753 F   0  0  0  1  0  0  0  0  0  0  0  0
    1.9264    0.1986   -5.2673 C   0  0  0  1  0  0  0  0  0  0  0  0
    1.3701    0.1911   -6.4796 F   0  0  0  1  0  0  0  0  0  0  0  0
    2.1309   -1.0719   -4.9169 F   0  0  0  1  0  0  0  0  0  0  0  0
    1.0588    0.9133   -4.2498 C   0  0  0  1  0  0  0  0  0  0  0  0
    1.6219    1.3559   -3.0629 C   0  0  0  1  0  0  0  0  0  0  0  0
    0.8230    1.9247   -2.0891 C   0  0  0  1  0  0  0  0  0  0  0  0
   -0.5404    2.0575   -2.3012 C   0  0  0  1  0  0  0  0  0  0  0  0
   -1.1017    1.6161   -3.4846 C   0  0  0  1  0  0  0  0  0  0  0  0
   -0.3006    1.0456   -4.4615 C   0  0  0  1  0  0  0  0  0  0  0  0
   -1.4622    2.6757   -1.2768 C   0  0  0  1  0  0  0  0  0  0  0  0
    2.6454    1.2600   -2.9054 H   0  0  0  1  0  0  0  0  0  0  0  0
    1.2448    2.2532   -1.1970 H   0  0  0  1  0  0  0  0  0  0  0  0
   -2.1252    1.7120   -3.6421 H   0  0  0  1  0  0  0  0  0  0  0  0
   -0.7224    0.7172   -5.3535 H   0  0  0  1  0  0  0  0  0  0  0  0
   -2.4101    2.1822   -1.3298 H   0  0  0  1  0  0  0  0  0  0  0  0
   -1.0378    2.5308   -0.3053 H   0  0  0  1  0  0  0  0  0  0  0  0
  1  4  1  0  0  0  0
  2  4  1  0  0  0  0
  2  5  2  0  0  0  0
  2  6  1  0  0  0  0
  3  4  1  0  0  0  0
  3  7  1  0  0  0  0
  3  8  1  0  0  0  0
  4 29  1  0  0  0  0
  6  9  1  0  0  0  0
  6 12  1  0  0  0  0
  8 10  1  0  0  0  0
  8 11  2  0  0  0  0
  9 13  1  0  0  0  0
  9 14  1  0  0  0  0
  9 15  1  0  0  0  0
 10 16  1  0  0  0  0
 10 17  1  0  0  0  0
 10 18  1  0  0  0  0
 19 20  1  0  0  0  0
 20 21  1  0  0  0  0
 20 22  1  0  0  0  0
 20 23  1  0  0  0  0
 23 24  4  0  0  0  0
 23 28  4  0  0  0  0
 24 25  4  0  0  0  0
 24 30  1  0  0  0  0
 25 26  4  0  0  0  0
 25 31  1  0  0  0  0
 26 27  4  0  0  0  0
 26 29  1  0  0  0  0
 27 28  4  0  0  0  0
 27 32  1  0  0  0  0
 28 33  1  0  0  0  0
 29 34  1  0  0  0  0
 29 35  1  0  0  0  0
M  END
> <BCLConfClusterSize>
1

> <ConfClashScore>
0 

> <ConfOneFourInteractionScore>
-0.957074 

> <ConfScore>
0.363873 

> <ConfScorePBest>
0.00495728 

> <ConfTolerance>
0.48469 

> <RosettaParamsInstructions>
M  ROOT 3
M  POLY_N_BB 3
M  POLY_CA_BB 4
M  POLY_C_BB 2
M  POLY_O_BB 5
M  POLY_IGNORE 9 10 11 12 13 14 15 16 17 18 
M  POLY_UPPER 6
M  POLY_LOWER 8
M  POLY_CHG 0
M  POLY_PROPERTIES ALPHA_AA D_AA PROTEIN AROMATIC POLYMER 
M  END

$$$$



 35 35  0  0  0  0  0  0  0  0999 V2000
   -0.8359    4.6840   -1.5555 H   0  0  0  1  0  0  0  0  0  0  0  0
    0.3596    3.9622    0.0159 C   0  0  0  1  0  0  0  0  0  0  0  0
   -1.9831    4.6130    0.1643 N   0  0  0  1  0  0  0  0  0  0  0  0
   -0.9651    4.0282   -0.7199 C   0  0  0  1  0  0  0  0  0  0  0  0
    1.3969    3.8234   -0.6111 O   0  0  0  1  0  0  0  0  0  0  0  0
    0.3236    4.1486    1.3396 N   0  0  0  1  0  0  0  0  0  0  0  0
   -2.8176    4.1139    0.2866 H   0  0  0  1  0  0  0  0  0  0  0  0
   -1.8555    5.7834    0.8193 C   0  0  0  1  0  0  0  0  0  0  0  0
    1.5323    4.2807    2.1392 C   0  0  0  1  0  0  0  0  0  0  0  0
   -2.9870    6.0659    1.7885 C   0  0  0  1  0  0  0  0  0  0  0  0
   -0.9228    6.5716    0.6695 O   0  0  0  1  0  0  0  0  0  0  0  0
   -0.5470    4.1980    1.7868 H   0  0  0  1  0  0  0  0  0  0  0  0
    2.3616    4.4998    1.4995 H   0  0  0  1  0  0  0  0  0  0  0  0
    1.7167    3.3648    2.6606 H   0  0  0  1  0  0  0  0  0  0  0  0
    1.4075    5.0749    2.8454 H   0  0  0  1  0  0  0  0  0  0  0  0
   -3.0510    5.2726    2.5037 H   0  0  0  1  0  0  0  0  0  0  0  0
   -3.9088    6.1353    1.2497 H   0  0  0  1  0  0  0  0  0  0  0  0
   -2.7994    6.9890    2.2960 H   0  0  0  1  0  0  0  0  0  0  0  0
    2.7574   -0.6837   -4.6925 F   0  0  0  1  0  0  0  0  0  0  0  0
    1.9287    0.1972   -5.2559 C   0  0  0  1  0  0  0  0  0  0  0  0
    2.6950    1.0340   -5.9573 F   0  0  0  1  0  0  0  0  0  0  0  0
    1.2079   -0.4851   -6.1467 F   0  0  0  1  0  0  0  0  0  0  0  0
    1.0661    0.9147   -4.2389 C   0  0  0  1  0  0  0  0  0  0  0  0
    1.5522    1.1244   -2.9577 C   0  0  0  1  0  0  0  0  0  0  0  0
    0.7400    1.6940   -1.9953 C   0  0  0  1  0  0  0  0  0  0  0  0
   -0.5586    2.0605   -2.3125 C   0  0  0  1  0  0  0  0  0  0  0  0
   -1.0430    1.8514   -3.5899 C   0  0  0  1  0  0  0  0  0  0  0  0
   -0.2287    1.2801   -4.5553 C   0  0  0  1  0  0  0  0  0  0  0  0
   -1.4447    2.6884   -1.2627 C   0  0  0  1  0  0  0  0  0  0  0  0
    2.5278    0.8531   -2.7207 H   0  0  0  1  0  0  0  0  0  0  0  0
    1.1033    1.8476   -1.0330 H   0  0  0  1  0  0  0  0  0  0  0  0
   -2.0187    2.1227   -3.8269 H   0  0  0  1  0  0  0  0  0  0  0  0
   -0.5920    1.1265   -5.5176 H   0  0  0  1  0  0  0  0  0  0  0  0
   -2.4135    2.8343   -1.6928 H   0  0  0  1  0  0  0  0  0  0  0  0
   -1.5175    2.0065   -0.4414 H   0  0  0  1  0  0  0  0  0  0  0  0
  1  4  1  0  0  0  0
  2  4  1  0  0  0  0
  2  5  2  0  0  0  0
  2  6  1  0  0  0  0
  3  4  1  0  0  0  0
  3  7  1  0  0  0  0
  3  8  1  0  0  0  0
  4 29  1  0  0  0  0
  6  9  1  0  0  0  0
  6 12  1  0  0  0  0
  8 10  1  0  0  0  0
  8 11  2  0  0  0  0
  9 13  1  0  0  0  0
  9 14  1  0  0  0  0
  9 15  1  0  0  0  0
 10 16  1  0  0  0  0
 10 17  1  0  0  0  0
 10 18  1  0  0  0  0
 19 20  1  0  0  0  0
 20 21  1  0  0  0  0
 20 22  1  0  0  0  0
 20 23  1  0  0  0  0
 23 24  4  0  0  0  0
 23 28  4  0  0  0  0
 24 25  4  0  0  0  0
 24 30  1  0  0  0  0
 25 26  4  0  0  0  0
 25 31  1  0  0  0  0
 26 27  4  0  0  0  0
 26 29  1  0  0  0  0
 27 28  4  0  0  0  0
 27 32  1  0  0  0  0
 28 33  1  0  0  0  0
 29 34  1  0  0  0  0
 29 35  1  0  0  0  0
M  END
> <BCLConfClusterSize>
1

> <ConfClashScore>
0 

> <ConfOneFourInteractionScore>
-0.956443 

> <ConfScore>
0.364622 

> <ConfScorePBest>
0.0049288 

> <ConfTolerance>
0.471036 

> <RosettaParamsInstructions>
M  ROOT 3
M  POLY_N_BB 3
M  POLY_CA_BB 4
M  POLY_C_BB 2
M  POLY_O_BB 5
M  POLY_IGNORE 9 10 11 12 13 14 15 16 17 18 
M  POLY_UPPER 6
M  POLY_LOWER 8
M  POLY_CHG 0
M  POLY_PROPERTIES ALPHA_AA D_AA PROTEIN AROMATIC POLYMER 
M  END

$$$$



 35 35  0  0  0  0  0  0  0  0999 V2000
   -0.7712    4.2441   -0.0309 H   0  0  0  1  0  0  0  0  0  0  0  0
   -2.5191    4.9652   -1.0307 C   0  0  0  1  0  0  0  0  0  0  0  0
   -0.3296    4.7719   -1.9976 N   0  0  0  1  0  0  0  0  0  0  0  0
   -1.2080    4.1694   -1.0049 C   0  0  0  1  0  0  0  0  0  0  0  0
   -2.5058    6.1586   -1.3276 O   0  0  0  1  0  0  0  0  0  0  0  0
   -3.6447    4.2795   -0.8045 N   0  0  0  1  0  0  0  0  0  0  0  0
   -0.0926    4.2383   -2.7847 H   0  0  0  1  0  0  0  0  0  0  0  0
    0.1739    6.0059   -1.9038 C   0  0  0  1  0  0  0  0  0  0  0  0
   -4.9382    4.8868   -1.0802 C   0  0  0  1  0  0  0  0  0  0  0  0
    0.8053    6.5932   -3.1724 C   0  0  0  1  0  0  0  0  0  0  0  0
    0.0809    6.6960   -0.8895 O   0  0  0  1  0  0  0  0  0  0  0  0
   -3.5985    3.3662   -0.4523 H   0  0  0  1  0  0  0  0  0  0  0  0
   -4.8072    5.7264   -1.7304 H   0  0  0  1  0  0  0  0  0  0  0  0
   -5.3819    5.2124   -0.1626 H   0  0  0  1  0  0  0  0  0  0  0  0
   -5.5764    4.1681   -1.5502 H   0  0  0  1  0  0  0  0  0  0  0  0
    0.7832    5.8622   -3.9536 H   0  0  0  1  0  0  0  0  0  0  0  0
    1.8193    6.8691   -2.9710 H   0  0  0  1  0  0  0  0  0  0  0  0
    0.2537    7.4578   -3.4777 H   0  0  0  1  0  0  0  0  0  0  0  0
    1.1576   -0.3785   -6.2071 F   0  0  0  1  0  0  0  0  0  0  0  0
    1.9131    0.1936   -5.2680 C   0  0  0  1  0  0  0  0  0  0  0  0
    2.6671   -0.7786   -4.7527 F   0  0  0  1  0  0  0  0  0  0  0  0
    2.7473    1.0138   -5.9084 F   0  0  0  1  0  0  0  0  0  0  0  0
    1.0889    0.9091   -4.2157 C   0  0  0  1  0  0  0  0  0  0  0  0
    1.5150    1.0031   -2.8999 C   0  0  0  1  0  0  0  0  0  0  0  0
    0.6947    1.5778   -1.9475 C   0  0  0  1  0  0  0  0  0  0  0  0
   -0.5517    2.0649   -2.3088 C   0  0  0  1  0  0  0  0  0  0  0  0
   -0.9764    1.9711   -3.6207 C   0  0  0  1  0  0  0  0  0  0  0  0
   -0.1539    1.3948   -4.5761 C   0  0  0  1  0  0  0  0  0  0  0  0
   -1.4887    2.7079   -1.3138 C   0  0  0  1  0  0  0  0  0  0  0  0
    2.4518    0.6413   -2.6295 H   0  0  0  1  0  0  0  0  0  0  0  0
    1.0127    1.6447   -0.9595 H   0  0  0  1  0  0  0  0  0  0  0  0
   -1.9131    2.3330   -3.8911 H   0  0  0  1  0  0  0  0  0  0  0  0
   -0.4719    1.3279   -5.5641 H   0  0  0  1  0  0  0  0  0  0  0  0
   -2.4827    2.6379   -1.7035 H   0  0  0  1  0  0  0  0  0  0  0  0
   -1.4248    2.1587   -0.3977 H   0  0  0  1  0  0  0  0  0  0  0  0
  1  4  1  0  0  0  0
  2  4  1  0  0  0  0
  2  5  2  0  0  0  0
  2  6  1  0  0  0  0
  3  4  1  0  0  0  0
  3  7  1  0  0  0  0
  3  8  1  0  0  0  0
  4 29  1  0  0  0  0
  6  9  1  0  0  0  0
  6 12  1  0  0  0  0
  8 10  1  0  0  0  0
  8 11  2  0  0  0  0
  9 13  1  0  0  0  0
  9 14  1  0  0  0  0
  9 15  1  0  0  0  0
 10 16  1  0  0  0  0
 10 17  1  0  0  0  0
 10 18  1  0  0  0  0
 19 20  1  0  0  0  0
 20 21  1  0  0  0  0
 20 22  1  0  0  0  0
 20 23  1  0  0  0  0
 23 24  4  0  0  0  0
 23 28  4  0  0  0  0
 24 25  4  0  0  0  0
 24 30  1  0  0  0  0
 25 26  4  0  0  0  0
 25 31  1  0  0  0  0
 26 27  4  0  0  0  0
 26 29  1  0  0  0  0
 27 28  4  0  0  0  0
 27 32  1  0  0  0  0
 28 33  1  0  0  0  0
 29 34  1  0  0  0  0
 29 35  1  0  0  0  0
M  END
> <BCLConfClusterSize>
1

> <ConfClashScore>
0 

> <ConfOneFourInteractionScore>
-0.947226 

> <ConfScore>
0.364652 

> <ConfScorePBest>
0.00490032 

> <ConfTolerance>
0.740266 

> <RosettaParamsInstructions>
M  ROOT 3
M  POLY_N_BB 3
M  POLY_CA_BB 4
M  POLY_C_BB 2
M  POLY_O_BB 5
M  POLY_IGNORE 9 10 11 12 13 14 15 16 17 18 
M  POLY_UPPER 6
M  POLY_LOWER 8
M  POLY_CHG 0
M  POLY_PROPERTIES ALPHA_AA D_AA PROTEIN AROMATIC POLYMER 
M  END

$$$$



 35 35  0  0  0  0  0  0  0  0999 V2000
   -0.1922    4.3813   -1.2297 H   0  0  0  1  0  0  0  0  0  0  0  0
   -1.4945    4.4951    0.4208 C   0  0  0  1  0  0  0  0  0  0  0  0
   -2.0217    4.9477   -1.9920 N   0  0  0  1  0  0  0  0  0  0  0  0
   -1.2269    4.1850   -1.0405 C   0  0  0  1  0  0  0  0  0  0  0  0
   -1.1194    3.7332    1.3105 O   0  0  0  1  0  0  0  0  0  0  0  0
   -2.0740    5.6718    0.6810 N   0  0  0  1  0  0  0  0  0  0  0  0
   -2.7191    4.4687   -2.4866 H   0  0  0  1  0  0  0  0  0  0  0  0
   -1.8715    6.2571   -2.2431 C   0  0  0  1  0  0  0  0  0  0  0  0
   -2.4225    6.0849    2.0323 C   0  0  0  1  0  0  0  0  0  0  0  0
   -2.6555    6.8569   -3.3941 C   0  0  0  1  0  0  0  0  0  0  0  0
   -1.1216    6.9517   -1.5621 O   0  0  0  1  0  0  0  0  0  0  0  0
   -2.2710    6.2771   -0.0641 H   0  0  0  1  0  0  0  0  0  0  0  0
   -2.4240    5.2313    2.6775 H   0  0  0  1  0  0  0  0  0  0  0  0
   -3.3951    6.5309    2.0290 H   0  0  0  1  0  0  0  0  0  0  0  0
   -1.7045    6.7961    2.3839 H   0  0  0  1  0  0  0  0  0  0  0  0
   -2.0564    7.5920   -3.8896 H   0  0  0  1  0  0  0  0  0  0  0  0
   -3.5453    7.3169   -3.0178 H   0  0  0  1  0  0  0  0  0  0  0  0
   -2.9180    6.0850   -4.0870 H   0  0  0  1  0  0  0  0  0  0  0  0
    1.7833   -1.1331   -5.2046 F   0  0  0  1  0  0  0  0  0  0  0  0
    1.9152    0.1931   -5.2662 C   0  0  0  1  0  0  0  0  0  0  0  0
    3.2200    0.4438   -5.1478 F   0  0  0  1  0  0  0  0  0  0  0  0
    1.5783    0.5445   -6.5078 F   0  0  0  1  0  0  0  0  0  0  0  0
    1.0885    0.9084   -4.2156 C   0  0  0  1  0  0  0  0  0  0  0  0
    1.4924    0.9681   -2.8909 C   0  0  0  1  0  0  0  0  0  0  0  0
    0.6682    1.5444   -1.9427 C   0  0  0  1  0  0  0  0  0  0  0  0
   -0.5597    2.0673   -2.3172 C   0  0  0  1  0  0  0  0  0  0  0  0
   -0.9622    2.0076   -3.6380 C   0  0  0  1  0  0  0  0  0  0  0  0
   -0.1358    1.4297   -4.5892 C   0  0  0  1  0  0  0  0  0  0  0  0
   -1.4582    2.7024   -1.2824 C   0  0  0  1  0  0  0  0  0  0  0  0
    2.4154    0.5795   -2.6105 H   0  0  0  1  0  0  0  0  0  0  0  0
    0.9694    1.5857   -0.9481 H   0  0  0  1  0  0  0  0  0  0  0  0
   -1.8851    2.3963   -3.9184 H   0  0  0  1  0  0  0  0  0  0  0  0
   -0.4370    1.3885   -5.5837 H   0  0  0  1  0  0  0  0  0  0  0  0
   -2.4714    2.5742   -1.6017 H   0  0  0  1  0  0  0  0  0  0  0  0
   -1.3082    2.1893   -0.3555 H   0  0  0  1  0  0  0  0  0  0  0  0
  1  4  1  0  0  0  0
  2  4  1  0  0  0  0
  2  5  2  0  0  0  0
  2  6  1  0  0  0  0
  3  4  1  0  0  0  0
  3  7  1  0  0  0  0
  3  8  1  0  0  0  0
  4 29  1  0  0  0  0
  6  9  1  0  0  0  0
  6 12  1  0  0  0  0
  8 10  1  0  0  0  0
  8 11  2  0  0  0  0
  9 13  1  0  0  0  0
  9 14  1  0  0  0  0
  9 15  1  0  0  0  0
 10 16  1  0  0  0  0
 10 17  1  0  0  0  0
 10 18  1  0  0  0  0
 19 20  1  0  0  0  0
 20 21  1  0  0  0  0
 20 22  1  0  0  0  0
 20 23  1  0  0  0  0
 23 24  4  0  0  0  0
 23 28  4  0  0  0  0
 24 25  4  0  0  0  0
 24 30  1  0  0  0  0
 25 26  4  0  0  0  0
 25 31  1  0  0  0  0
 26 27  4  0  0  0  0
 26 29  1  0  0  0  0
 27 28  4  0  0  0  0
 27 32  1  0  0  0  0
 28 33  1  0  0  0  0
 29 34  1  0  0  0  0
 29 35  1  0  0  0  0
M  END
> <BCLConfClusterSize>
1

> <ConfClashScore>
0.00156135 

> <ConfOneFourInteractionScore>
-0.948834 

> <ConfScore>
0.372455 

> <ConfScorePBest>
0.00487184 

> <ConfTolerance>
0.48764 

> <RosettaParamsInstructions>
M  ROOT 3
M  POLY_N_BB 3
M  POLY_CA_BB 4
M  POLY_C_BB 2
M  POLY_O_BB 5
M  POLY_IGNORE 9 10 11 12 13 14 15 16 17 18 
M  POLY_UPPER 6
M  POLY_LOWER 8
M  POLY_CHG 0
M  POLY_PROPERTIES ALPHA_AA D_AA PROTEIN AROMATIC POLYMER 
M  END

$$$$



 35 35  0  0  0  0  0  0  0  0999 V2000
   -2.9160    2.1154    0.1580 H   0  0  0  1  0  0  0  0  0  0  0  0
   -1.4255    0.6098    0.1426 C   0  0  0  1  0  0  0  0  0  0  0  0
   -3.1724    0.9885   -1.5576 N   0  0  0  1  0  0  0  0  0  0  0  0
   -2.3091    1.6257   -0.5746 C   0  0  0  1  0  0  0  0  0  0  0  0
   -1.7890   -0.5638    0.2860 O   0  0  0  1  0  0  0  0  0  0  0  0
   -0.2162    1.0377    0.5206 N   0  0  0  1  0  0  0  0  0  0  0  0
   -2.8467    0.1929   -2.0282 H   0  0  0  1  0  0  0  0  0  0  0  0
   -4.3937    1.4503   -1.8410 C   0  0  0  1  0  0  0  0  0  0  0  0
    0.7552    0.2194    1.2310 C   0  0  0  1  0  0  0  0  0  0  0  0
   -5.0418    0.8761   -3.0804 C   0  0  0  1  0  0  0  0  0  0  0  0
   -4.9698    2.2890   -1.1494 O   0  0  0  1  0  0  0  0  0  0  0  0
    0.0316    1.9611    0.3055 H   0  0  0  1  0  0  0  0  0  0  0  0
    1.0474   -0.6045    0.6141 H   0  0  0  1  0  0  0  0  0  0  0  0
    0.3172   -0.1498    2.1348 H   0  0  0  1  0  0  0  0  0  0  0  0
    1.6152    0.8109    1.4665 H   0  0  0  1  0  0  0  0  0  0  0  0
   -4.4470    1.1141   -3.9374 H   0  0  0  1  0  0  0  0  0  0  0  0
   -6.0195    1.2947   -3.1978 H   0  0  0  1  0  0  0  0  0  0  0  0
   -5.1176   -0.1867   -2.9832 H   0  0  0  1  0  0  0  0  0  0  0  0
    2.7580   -0.6830   -4.6924 F   0  0  0  1  0  0  0  0  0  0  0  0
    1.9287    0.1972   -5.2559 C   0  0  0  1  0  0  0  0  0  0  0  0
    2.6943    1.0341   -5.9579 F   0  0  0  1  0  0  0  0  0  0  0  0
    1.2079   -0.4858   -6.1461 F   0  0  0  1  0  0  0  0  0  0  0  0
    1.0661    0.9147   -4.2389 C   0  0  0  1  0  0  0  0  0  0  0  0
    1.5522    1.1245   -2.9578 C   0  0  0  1  0  0  0  0  0  0  0  0
    0.7401    1.6942   -1.9953 C   0  0  0  1  0  0  0  0  0  0  0  0
   -0.5586    2.0605   -2.3125 C   0  0  0  1  0  0  0  0  0  0  0  0
   -1.0431    1.8513   -3.5899 C   0  0  0  1  0  0  0  0  0  0  0  0
   -0.2288    1.2800   -4.5553 C   0  0  0  1  0  0  0  0  0  0  0  0
   -1.4447    2.6884   -1.2627 C   0  0  0  1  0  0  0  0  0  0  0  0
    2.5279    0.8533   -2.7208 H   0  0  0  1  0  0  0  0  0  0  0  0
    1.1034    1.8479   -1.0331 H   0  0  0  1  0  0  0  0  0  0  0  0
   -2.0188    2.1225   -3.8268 H   0  0  0  1  0  0  0  0  0  0  0  0
   -0.5921    1.1263   -5.5175 H   0  0  0  1  0  0  0  0  0  0  0  0
   -0.8325    3.1711   -0.5299 H   0  0  0  1  0  0  0  0  0  0  0  0
   -2.0818    3.4113   -1.7281 H   0  0  0  1  0  0  0  0  0  0  0  0
  1  4  1  0  0  0  0
  2  4  1  0  0  0  0
  2  5  2  0  0  0  0
  2  6  1  0  0  0  0
  3  4  1  0  0  0  0
  3  7  1  0  0  0  0
  3  8  1  0  0  0  0
  4 29  1  0  0  0  0
  6  9  1  0  0  0  0
  6 12  1  0  0  0  0
  8 10  1  0  0  0  0
  8 11  2  0  0  0  0
  9 13  1  0  0  0  0
  9 14  1  0  0  0  0
  9 15  1  0  0  0  0
 10 16  1  0  0  0  0
 10 17  1  0  0  0  0
 10 18  1  0  0  0  0
 19 20  1  0  0  0  0
 20 21  1  0  0  0  0
 20 22  1  0  0  0  0
 20 23  1  0  0  0  0
 23 24  4  0  0  0  0
 23 28  4  0  0  0  0
 24 25  4  0  0  0  0
 24 30  1  0  0  0  0
 25 26  4  0  0  0  0
 25 31  1  0  0  0  0
 26 27  4  0  0  0  0
 26 29  1  0  0  0  0
 27 28  4  0  0  0  0
 27 32  1  0  0  0  0
 28 33  1  0  0  0  0
 29 34  1  0  0  0  0
 29 35  1  0  0  0  0
M  END
> <BCLConfClusterSize>
1

> <ConfClashScore>
0 

> <ConfOneFourInteractionScore>
-0.927466 

> <ConfScore>
0.372582 

> <ConfScorePBest>
0.00484336 

> <ConfTolerance>
0.542124 

> <RosettaParamsInstructions>
M  ROOT 3
M  POLY_N_BB 3
M  POLY_CA_BB 4
M  POLY_C_BB 2
M  POLY_O_BB 5
M  POLY_IGNORE 9 10 11 12 13 14 15 16 17 18 
M  POLY_UPPER 6
M  POLY_LOWER 8
M  POLY_CHG 0
M  POLY_PROPERTIES ALPHA_AA D_AA PROTEIN AROMATIC POLYMER 
M  END

$$$$



 35 35  0  0  0  0  0  0  0  0999 V2000
   -2.4642    1.0390   -0.6830 H   0  0  0  1  0  0  0  0  0  0  0  0
   -3.2317    2.6192    0.4519 C   0  0  0  1  0  0  0  0  0  0  0  0
   -1.0666    1.4381    0.7589 N   0  0  0  1  0  0  0  0  0  0  0  0
   -2.0600    1.9050   -0.2016 C   0  0  0  1  0  0  0  0  0  0  0  0
   -4.0996    3.1256   -0.2424 O   0  0  0  1  0  0  0  0  0  0  0  0
   -3.2926    2.5800    1.7901 N   0  0  0  1  0  0  0  0  0  0  0  0
   -0.8537    0.4821    0.7922 H   0  0  0  1  0  0  0  0  0  0  0  0
   -0.4366    2.2685    1.5947 C   0  0  0  1  0  0  0  0  0  0  0  0
   -4.3579    3.2295    2.5391 C   0  0  0  1  0  0  0  0  0  0  0  0
    0.4742    1.5813    2.6136 C   0  0  0  1  0  0  0  0  0  0  0  0
   -0.4918    3.4938    1.5319 O   0  0  0  1  0  0  0  0  0  0  0  0
   -2.5954    2.0972    2.2813 H   0  0  0  1  0  0  0  0  0  0  0  0
   -5.3059    2.8737    2.1933 H   0  0  0  1  0  0  0  0  0  0  0  0
   -4.3005    4.2882    2.3952 H   0  0  0  1  0  0  0  0  0  0  0  0
   -4.2506    3.0041    3.5796 H   0  0  0  1  0  0  0  0  0  0  0  0
    0.5329    0.5360    2.3925 H   0  0  0  1  0  0  0  0  0  0  0  0
    0.0742    1.7156    3.5969 H   0  0  0  1  0  0  0  0  0  0  0  0
    1.4527    2.0115    2.5642 H   0  0  0  1  0  0  0  0  0  0  0  0
    2.6684    1.0544   -5.9776 F   0  0  0  1  0  0  0  0  0  0  0  0
    1.9250    0.2063   -5.2648 C   0  0  0  1  0  0  0  0  0  0  0  0
    1.2107   -0.4950   -6.1465 F   0  0  0  1  0  0  0  0  0  0  0  0
    2.7749   -0.6545   -4.7034 F   0  0  0  1  0  0  0  0  0  0  0  0
    1.0563    0.9124   -4.2450 C   0  0  0  1  0  0  0  0  0  0  0  0
    1.6155    1.3404   -3.0510 C   0  0  0  1  0  0  0  0  0  0  0  0
    0.8140    1.9017   -2.0747 C   0  0  0  1  0  0  0  0  0  0  0  0
   -0.5479    2.0416   -2.2917 C   0  0  0  1  0  0  0  0  0  0  0  0
   -1.1052    1.6149   -3.4823 C   0  0  0  1  0  0  0  0  0  0  0  0
   -0.3017    1.0519   -4.4615 C   0  0  0  1  0  0  0  0  0  0  0  0
   -1.4399    2.7430   -1.2948 C   0  0  0  1  0  0  0  0  0  0  0  0
    2.6379    1.2391   -2.8897 H   0  0  0  1  0  0  0  0  0  0  0  0
    1.2329    2.2191   -1.1773 H   0  0  0  1  0  0  0  0  0  0  0  0
   -2.1276    1.7162   -3.6435 H   0  0  0  1  0  0  0  0  0  0  0  0
   -0.7205    0.7345   -5.3589 H   0  0  0  1  0  0  0  0  0  0  0  0
   -0.8551    3.5042   -0.8220 H   0  0  0  1  0  0  0  0  0  0  0  0
   -2.2392    3.1958   -1.8435 H   0  0  0  1  0  0  0  0  0  0  0  0
  1  4  1  0  0  0  0
  2  4  1  0  0  0  0
  2  5  2  0  0  0  0
  2  6  1  0  0  0  0
  3  4  1  0  0  0  0
  3  7  1  0  0  0  0
  3  8  1  0  0  0  0
  4 29  1  0  0  0  0
  6  9  1  0  0  0  0
  6 12  1  0  0  0  0
  8 10  1  0  0  0  0
  8 11  2  0  0  0  0
  9 13  1  0  0  0  0
  9 14  1  0  0  0  0
  9 15  1  0  0  0  0
 10 16  1  0  0  0  0
 10 17  1  0  0  0  0
 10 18  1  0  0  0  0
 19 20  1  0  0  0  0
 20 21  1  0  0  0  0
 20 22  1  0  0  0  0
 20 23  1  0  0  0  0
 23 24  4  0  0  0  0
 23 28  4  0  0  0  0
 24 25  4  0  0  0  0
 24 30  1  0  0  0  0
 25 26  4  0  0  0  0
 25 31  1  0  0  0  0
 26 27  4  0  0  0  0
 26 29  1  0  0  0  0
 27 28  4  0  0  0  0
 27 32  1  0  0  0  0
 28 33  1  0  0  0  0
 29 34  1  0  0  0  0
 29 35  1  0  0  0  0
M  END
> <BCLConfClusterSize>
1

> <ConfClashScore>
0 

> <ConfOneFourInteractionScore>
-0.953847 

> <ConfScore>
0.372785 

> <ConfScorePBest>
0.00481488 

> <ConfTolerance>
0.442101 

> <RosettaParamsInstructions>
M  ROOT 3
M  POLY_N_BB 3
M  POLY_CA_BB 4
M  POLY_C_BB 2
M  POLY_O_BB 5
M  POLY_IGNORE 9 10 11 12 13 14 15 16 17 18 
M  POLY_UPPER 6
M  POLY_LOWER 8
M  POLY_CHG 0
M  POLY_PROPERTIES ALPHA_AA D_AA PROTEIN AROMATIC POLYMER 
M  END

$$$$



 35 35  0  0  0  0  0  0  0  0999 V2000
   -0.1270    4.3701   -0.9282 H   0  0  0  1  0  0  0  0  0  0  0  0
   -1.9360    4.9033   -0.0047 C   0  0  0  1  0  0  0  0  0  0  0  0
   -1.4165    4.8815   -2.4486 N   0  0  0  1  0  0  0  0  0  0  0  0
   -1.1671    4.2491   -1.1482 C   0  0  0  1  0  0  0  0  0  0  0  0
   -3.1456    5.1102   -0.0895 O   0  0  0  1  0  0  0  0  0  0  0  0
   -1.2405    5.1520    1.1140 N   0  0  0  1  0  0  0  0  0  0  0  0
   -0.6526    5.1018   -3.0217 H   0  0  0  1  0  0  0  0  0  0  0  0
   -2.6487    5.1676   -2.8784 C   0  0  0  1  0  0  0  0  0  0  0  0
   -1.8168    5.8620    2.2460 C   0  0  0  1  0  0  0  0  0  0  0  0
   -2.7285    6.0179   -4.1314 C   0  0  0  1  0  0  0  0  0  0  0  0
   -3.6653    4.7752   -2.3074 O   0  0  0  1  0  0  0  0  0  0  0  0
   -0.3116    4.8449    1.1715 H   0  0  0  1  0  0  0  0  0  0  0  0
   -2.3462    6.7233    1.8955 H   0  0  0  1  0  0  0  0  0  0  0  0
   -1.0354    6.1695    2.9092 H   0  0  0  1  0  0  0  0  0  0  0  0
   -2.4926    5.2154    2.7657 H   0  0  0  1  0  0  0  0  0  0  0  0
   -3.1682    5.4475   -4.9227 H   0  0  0  1  0  0  0  0  0  0  0  0
   -1.7440    6.3243   -4.4174 H   0  0  0  1  0  0  0  0  0  0  0  0
   -3.3294    6.8818   -3.9382 H   0  0  0  1  0  0  0  0  0  0  0  0
    1.2056   -0.3989   -6.2054 F   0  0  0  1  0  0  0  0  0  0  0  0
    1.9288    0.1998   -5.2575 C   0  0  0  1  0  0  0  0  0  0  0  0
    2.6895   -0.7510   -4.7127 F   0  0  0  1  0  0  0  0  0  0  0  0
    2.7613    1.0277   -5.8900 F   0  0  0  1  0  0  0  0  0  0  0  0
    1.0687    0.9118   -4.2345 C   0  0  0  1  0  0  0  0  0  0  0  0
    1.4995    0.9953   -2.9196 C   0  0  0  1  0  0  0  0  0  0  0  0
    0.6815    1.5600   -1.9591 C   0  0  0  1  0  0  0  0  0  0  0  0
   -0.5672    2.0476   -2.3117 C   0  0  0  1  0  0  0  0  0  0  0  0
   -0.9966    1.9642   -3.6227 C   0  0  0  1  0  0  0  0  0  0  0  0
   -0.1764    1.3979   -4.5861 C   0  0  0  1  0  0  0  0  0  0  0  0
   -1.4098    2.7541   -1.2761 C   0  0  0  1  0  0  0  0  0  0  0  0
    2.4380    0.6331   -2.6558 H   0  0  0  1  0  0  0  0  0  0  0  0
    1.0030    1.6190   -0.9718 H   0  0  0  1  0  0  0  0  0  0  0  0
   -1.9351    2.3264   -3.8865 H   0  0  0  1  0  0  0  0  0  0  0  0
   -0.4980    1.3389   -5.5734 H   0  0  0  1  0  0  0  0  0  0  0  0
   -2.4385    2.6074   -1.5315 H   0  0  0  1  0  0  0  0  0  0  0  0
   -1.2102    2.3048   -0.3257 H   0  0  0  1  0  0  0  0  0  0  0  0
  1  4  1  0  0  0  0
  2  4  1  0  0  0  0
  2  5  2  0  0  0  0
  2  6  1  0  0  0  0
  3  4  1  0  0  0  0
  3  7  1  0  0  0  0
  3  8  1  0  0  0  0
  4 29  1  0  0  0  0
  6  9  1  0  0  0  0
  6 12  1  0  0  0  0
  8 10  1  0  0  0  0
  8 11  2  0  0  0  0
  9 13  1  0  0  0  0
  9 14  1  0  0  0  0
  9 15  1  0  0  0  0
 10 16  1  0  0  0  0
 10 17  1  0  0  0  0
 10 18  1  0  0  0  0
 19 20  1  0  0  0  0
 20 21  1  0  0  0  0
 20 22  1  0  0  0  0
 20 23  1  0  0  0  0
 23 24  4  0  0  0  0
 23 28  4  0  0  0  0
 24 25  4  0  0  0  0
 24 30  1  0  0  0  0
 25 26  4  0  0  0  0
 25 31  1  0  0  0  0
 26 27  4  0  0  0  0
 26 29  1  0  0  0  0
 27 28  4  0  0  0  0
 27 32  1  0  0  0  0
 28 33  1  0  0  0  0
 29 34  1  0  0  0  0
 29 35  1  0  0  0  0
M  END
> <BCLConfClusterSize>
1

> <ConfClashScore>
0 

> <ConfOneFourInteractionScore>
-0.987258 

> <ConfScore>
0.37643 

> <ConfScorePBest>
0.00478639 

> <ConfTolerance>
0.424762 

> <RosettaParamsInstructions>
M  ROOT 3
M  POLY_N_BB 3
M  POLY_CA_BB 4
M  POLY_C_BB 2
M  POLY_O_BB 5
M  POLY_IGNORE 9 10 11 12 13 14 15 16 17 18 
M  POLY_UPPER 6
M  POLY_LOWER 8
M  POLY_CHG 0
M  POLY_PROPERTIES ALPHA_AA D_AA PROTEIN AROMATIC POLYMER 
M  END

$$$$



 35 35  0  0  0  0  0  0  0  0999 V2000
   -1.9300    4.5198   -0.3777 H   0  0  0  1  0  0  0  0  0  0  0  0
   -1.4445    4.9800   -2.3608 C   0  0  0  1  0  0  0  0  0  0  0  0
    0.1080    4.4124   -0.5060 N   0  0  0  1  0  0  0  0  0  0  0  0
   -1.2055    4.1802   -1.0880 C   0  0  0  1  0  0  0  0  0  0  0  0
   -0.8510    6.0374   -2.5671 O   0  0  0  1  0  0  0  0  0  0  0  0
   -2.2599    4.4244   -3.2677 N   0  0  0  1  0  0  0  0  0  0  0  0
    0.2218    4.1448    0.4299 H   0  0  0  1  0  0  0  0  0  0  0  0
    1.1947    4.9581   -1.1128 C   0  0  0  1  0  0  0  0  0  0  0  0
   -2.4599    5.0028   -4.5986 C   0  0  0  1  0  0  0  0  0  0  0  0
    2.4756    5.0629   -0.3164 C   0  0  0  1  0  0  0  0  0  0  0  0
    1.1410    5.3517   -2.2637 O   0  0  0  1  0  0  0  0  0  0  0  0
   -2.7391    3.6026   -3.0323 H   0  0  0  1  0  0  0  0  0  0  0  0
   -1.5342    5.4017   -4.9575 H   0  0  0  1  0  0  0  0  0  0  0  0
   -3.1870    5.7858   -4.5414 H   0  0  0  1  0  0  0  0  0  0  0  0
   -2.8047    4.2436   -5.2691 H   0  0  0  1  0  0  0  0  0  0  0  0
    2.5593    4.2205    0.3379 H   0  0  0  1  0  0  0  0  0  0  0  0
    2.4633    5.9633    0.2615 H   0  0  0  1  0  0  0  0  0  0  0  0
    3.3108    5.0792   -0.9852 H   0  0  0  1  0  0  0  0  0  0  0  0
    1.2188   -0.6065   -6.0557 F   0  0  0  1  0  0  0  0  0  0  0  0
    1.9229    0.2041   -5.2637 C   0  0  0  1  0  0  0  0  0  0  0  0
    2.8318   -0.5895   -4.6949 F   0  0  0  1  0  0  0  0  0  0  0  0
    2.6053    1.0257   -6.0439 F   0  0  0  1  0  0  0  0  0  0  0  0
    1.0708    0.9190   -4.2360 C   0  0  0  1  0  0  0  0  0  0  0  0
    1.4966    0.9786   -2.9181 C   0  0  0  1  0  0  0  0  0  0  0  0
    0.6843    1.5462   -1.9546 C   0  0  0  1  0  0  0  0  0  0  0  0
   -0.5537    2.0606   -2.3069 C   0  0  0  1  0  0  0  0  0  0  0  0
   -0.9781    2.0010   -3.6209 C   0  0  0  1  0  0  0  0  0  0  0  0
   -0.1636    1.4318   -4.5874 C   0  0  0  1  0  0  0  0  0  0  0  0
   -1.4817    2.6974   -1.2996 C   0  0  0  1  0  0  0  0  0  0  0  0
    2.4272    0.5963   -2.6545 H   0  0  0  1  0  0  0  0  0  0  0  0
    1.0020    1.5873   -0.9652 H   0  0  0  1  0  0  0  0  0  0  0  0
   -1.9086    2.3833   -3.8846 H   0  0  0  1  0  0  0  0  0  0  0  0
   -0.4813    1.3907   -5.5768 H   0  0  0  1  0  0  0  0  0  0  0  0
   -2.4882    2.5843   -1.6446 H   0  0  0  1  0  0  0  0  0  0  0  0
   -1.3661    2.1925   -0.3633 H   0  0  0  1  0  0  0  0  0  0  0  0
  1  4  1  0  0  0  0
  2  4  1  0  0  0  0
  2  5  2  0  0  0  0
  2  6  1  0  0  0  0
  3  4  1  0  0  0  0
  3  7  1  0  0  0  0
  3  8  1  0  0  0  0
  4 29  1  0  0  0  0
  6  9  1  0  0  0  0
  6 12  1  0  0  0  0
  8 10  1  0  0  0  0
  8 11  2  0  0  0  0
  9 13  1  0  0  0  0
  9 14  1  0  0  0  0
  9 15  1  0  0  0  0
 10 16  1  0  0  0  0
 10 17  1  0  0  0  0
 10 18  1  0  0  0  0
 19 20  1  0  0  0  0
 20 21  1  0  0  0  0
 20 22  1  0  0  0  0
 20 23  1  0  0  0  0
 23 24  4  0  0  0  0
 23 28  4  0  0  0  0
 24 25  4  0  0  0  0
 24 30  1  0  0  0  0
 25 26  4  0  0  0  0
 25 31  1  0  0  0  0
 26 27  4  0  0  0  0
 26 29  1  0  0  0  0
 27 28  4  0  0  0  0
 27 32  1  0  0  0  0
 28 33  1  0  0  0  0
 29 34  1  0  0  0  0
 29 35  1  0  0  0  0
M  END
> <BCLConfClusterSize>
1

> <ConfClashScore>
0.00490346 

> <ConfOneFourInteractionScore>
-0.924221 

> <ConfScore>
0.377377 

> <ConfScorePBest>
0.00475791 

> <ConfTolerance>
0.427898 

> <RosettaParamsInstructions>
M  ROOT 3
M  POLY_N_BB 3
M  POLY_CA_BB 4
M  POLY_C_BB 2
M  POLY_O_BB 5
M  POLY_IGNORE 9 10 11 12 13 14 15 16 17 18 
M  POLY_UPPER 6
M  POLY_LOWER 8
M  POLY_CHG 0
M  POLY_PROPERTIES ALPHA_AA D_AA PROTEIN AROMATIC POLYMER 
M  END

$$$$



 35 35  0  0  0  0  0  0  0  0999 V2000
   -2.1199    0.7723   -0.6400 H   0  0  0  1  0  0  0  0  0  0  0  0
   -3.0837    2.1777    0.5912 C   0  0  0  1  0  0  0  0  0  0  0  0
   -0.7383    1.4302    0.7361 N   0  0  0  1  0  0  0  0  0  0  0  0
   -1.8571    1.6905   -0.1575 C   0  0  0  1  0  0  0  0  0  0  0  0
   -3.0635    3.2404    1.1928 O   0  0  0  1  0  0  0  0  0  0  0  0
   -4.1685    1.4027    0.4544 N   0  0  0  1  0  0  0  0  0  0  0  0
   -0.1061    2.1546    0.9258 H   0  0  0  1  0  0  0  0  0  0  0  0
   -0.5430    0.2380    1.3068 C   0  0  0  1  0  0  0  0  0  0  0  0
   -5.3962    1.7340    1.1597 C   0  0  0  1  0  0  0  0  0  0  0  0
    0.6193    0.1546    2.2769 C   0  0  0  1  0  0  0  0  0  0  0  0
   -1.2507   -0.7407    1.0725 O   0  0  0  1  0  0  0  0  0  0  0  0
   -4.1342    0.6111   -0.1223 H   0  0  0  1  0  0  0  0  0  0  0  0
   -5.3483    1.3526    2.1583 H   0  0  0  1  0  0  0  0  0  0  0  0
   -6.2291    1.2960    0.6505 H   0  0  0  1  0  0  0  0  0  0  0  0
   -5.5144    2.7970    1.1894 H   0  0  0  1  0  0  0  0  0  0  0  0
    1.5394    0.2667    1.7425 H   0  0  0  1  0  0  0  0  0  0  0  0
    0.6060   -0.7959    2.7681 H   0  0  0  1  0  0  0  0  0  0  0  0
    0.5326    0.9340    3.0048 H   0  0  0  1  0  0  0  0  0  0  0  0
    3.2152    0.4748   -5.1579 F   0  0  0  1  0  0  0  0  0  0  0  0
    1.9144    0.2012   -5.2720 C   0  0  0  1  0  0  0  0  0  0  0  0
    1.5724    0.5292   -6.5190 F   0  0  0  1  0  0  0  0  0  0  0  0
    1.8033   -1.1254   -5.1908 F   0  0  0  1  0  0  0  0  0  0  0  0
    1.0765    0.9189   -4.2321 C   0  0  0  1  0  0  0  0  0  0  0  0
    1.6176    1.3369   -3.0262 C   0  0  0  1  0  0  0  0  0  0  0  0
    0.8035    1.9015   -2.0624 C   0  0  0  1  0  0  0  0  0  0  0  0
   -0.5529    2.0547   -2.3036 C   0  0  0  1  0  0  0  0  0  0  0  0
   -1.0922    1.6379   -3.5059 C   0  0  0  1  0  0  0  0  0  0  0  0
   -0.2760    1.0716   -4.4727 C   0  0  0  1  0  0  0  0  0  0  0  0
   -1.4420    2.6769   -1.2530 C   0  0  0  1  0  0  0  0  0  0  0  0
    2.6359    1.2257   -2.8467 H   0  0  0  1  0  0  0  0  0  0  0  0
    1.2087    2.2114   -1.1561 H   0  0  0  1  0  0  0  0  0  0  0  0
   -2.1105    1.7491   -3.6854 H   0  0  0  1  0  0  0  0  0  0  0  0
   -0.6812    0.7617   -5.3790 H   0  0  0  1  0  0  0  0  0  0  0  0
   -0.9144    3.4891   -0.7980 H   0  0  0  1  0  0  0  0  0  0  0  0
   -2.3251    3.0474   -1.7302 H   0  0  0  1  0  0  0  0  0  0  0  0
  1  4  1  0  0  0  0
  2  4  1  0  0  0  0
  2  5  2  0  0  0  0
  2  6  1  0  0  0  0
  3  4  1  0  0  0  0
  3  7  1  0  0  0  0
  3  8  1  0  0  0  0
  4 29  1  0  0  0  0
  6  9  1  0  0  0  0
  6 12  1  0  0  0  0
  8 10  1  0  0  0  0
  8 11  2  0  0  0  0
  9 13  1  0  0  0  0
  9 14  1  0  0  0  0
  9 15  1  0  0  0  0
 10 16  1  0  0  0  0
 10 17  1  0  0  0  0
 10 18  1  0  0  0  0
 19 20  1  0  0  0  0
 20 21  1  0  0  0  0
 20 22  1  0  0  0  0
 20 23  1  0  0  0  0
 23 24  4  0  0  0  0
 23 28  4  0  0  0  0
 24 25  4  0  0  0  0
 24 30  1  0  0  0  0
 25 26  4  0  0  0  0
 25 31  1  0  0  0  0
 26 27  4  0  0  0  0
 26 29  1  0  0  0  0
 27 28  4  0  0  0  0
 27 32  1  0  0  0  0
 28 33  1  0  0  0  0
 29 34  1  0  0  0  0
 29 35  1  0  0  0  0
M  END
> <BCLConfClusterSize>
1

> <ConfClashScore>
0 

> <ConfOneFourInteractionScore>
-0.974251 

> <ConfScore>
0.377453 

> <ConfScorePBest>
0.00472943 

> <ConfTolerance>
0.475152 

> <RosettaParamsInstructions>
M  ROOT 3
M  POLY_N_BB 3
M  POLY_CA_BB 4
M  POLY_C_BB 2
M  POLY_O_BB 5
M  POLY_IGNORE 9 10 11 12 13 14 15 16 17 18 
M  POLY_UPPER 6
M  POLY_LOWER 8
M  POLY_CHG 0
M  POLY_PROPERTIES ALPHA_AA D_AA PROTEIN AROMATIC POLYMER 
M  END

$$$$



 35 35  0  0  0  0  0  0  0  0999 V2000
   -0.0094    4.1648   -0.7940 H   0  0  0  1  0  0  0  0  0  0  0  0
   -1.7326    4.6216    0.3228 C   0  0  0  1  0  0  0  0  0  0  0  0
   -1.3774    4.9915   -2.0937 N   0  0  0  1  0  0  0  0  0  0  0  0
   -1.0670    4.1361   -0.9539 C   0  0  0  1  0  0  0  0  0  0  0  0
   -1.3631    5.6551    0.8781 O   0  0  0  1  0  0  0  0  0  0  0  0
   -2.7859    3.9158    0.7481 N   0  0  0  1  0  0  0  0  0  0  0  0
   -0.6402    5.2344   -2.6920 H   0  0  0  1  0  0  0  0  0  0  0  0
   -2.5952    5.4707   -2.3845 C   0  0  0  1  0  0  0  0  0  0  0  0
   -3.4619    4.2080    2.0033 C   0  0  0  1  0  0  0  0  0  0  0  0
   -2.6889    6.3195   -3.6485 C   0  0  0  1  0  0  0  0  0  0  0  0
   -3.5852    5.2506   -1.6885 O   0  0  0  1  0  0  0  0  0  0  0  0
   -3.1140    3.1761    0.1952 H   0  0  0  1  0  0  0  0  0  0  0  0
   -4.1375    5.0258    1.8632 H   0  0  0  1  0  0  0  0  0  0  0  0
   -2.7371    4.4676    2.7464 H   0  0  0  1  0  0  0  0  0  0  0  0
   -4.0081    3.3453    2.3232 H   0  0  0  1  0  0  0  0  0  0  0  0
   -2.8759    7.3386   -3.3813 H   0  0  0  1  0  0  0  0  0  0  0  0
   -3.4885    5.9592   -4.2613 H   0  0  0  1  0  0  0  0  0  0  0  0
   -1.7678    6.2562   -4.1894 H   0  0  0  1  0  0  0  0  0  0  0  0
    1.3260    0.0874   -6.4449 F   0  0  0  1  0  0  0  0  0  0  0  0
    1.9250    0.1951   -5.2577 C   0  0  0  1  0  0  0  0  0  0  0  0
    2.2330   -1.0470   -4.8816 F   0  0  0  1  0  0  0  0  0  0  0  0
    3.0840    0.8167   -5.4793 F   0  0  0  1  0  0  0  0  0  0  0  0
    1.0668    0.9141   -4.2380 C   0  0  0  1  0  0  0  0  0  0  0  0
    1.5371    1.0793   -2.9445 C   0  0  0  1  0  0  0  0  0  0  0  0
    0.7259    1.6503   -1.9821 C   0  0  0  1  0  0  0  0  0  0  0  0
   -0.5558    2.0626   -2.3114 C   0  0  0  1  0  0  0  0  0  0  0  0
   -1.0246    1.8978   -3.6011 C   0  0  0  1  0  0  0  0  0  0  0  0
   -0.2112    1.3252   -4.5665 C   0  0  0  1  0  0  0  0  0  0  0  0
   -1.4407    2.6919   -1.2615 C   0  0  0  1  0  0  0  0  0  0  0  0
    2.5002    0.7737   -2.6983 H   0  0  0  1  0  0  0  0  0  0  0  0
    1.0773    1.7706   -1.0107 H   0  0  0  1  0  0  0  0  0  0  0  0
   -1.9877    2.2034   -3.8473 H   0  0  0  1  0  0  0  0  0  0  0  0
   -0.5626    1.2049   -5.5380 H   0  0  0  1  0  0  0  0  0  0  0  0
   -2.4521    2.6688   -1.6100 H   0  0  0  1  0  0  0  0  0  0  0  0
   -1.3601    2.1200   -0.3608 H   0  0  0  1  0  0  0  0  0  0  0  0
  1  4  1  0  0  0  0
  2  4  1  0  0  0  0
  2  5  2  0  0  0  0
  2  6  1  0  0  0  0
  3  4  1  0  0  0  0
  3  7  1  0  0  0  0
  3  8  1  0  0  0  0
  4 29  1  0  0  0  0
  6  9  1  0  0  0  0
  6 12  1  0  0  0  0
  8 10  1  0  0  0  0
  8 11  2  0  0  0  0
  9 13  1  0  0  0  0
  9 14  1  0  0  0  0
  9 15  1  0  0  0  0
 10 16  1  0  0  0  0
 10 17  1  0  0  0  0
 10 18  1  0  0  0  0
 19 20  1  0  0  0  0
 20 21  1  0  0  0  0
 20 22  1  0  0  0  0
 20 23  1  0  0  0  0
 23 24  4  0  0  0  0
 23 28  4  0  0  0  0
 24 25  4  0  0  0  0
 24 30  1  0  0  0  0
 25 26  4  0  0  0  0
 25 31  1  0  0  0  0
 26 27  4  0  0  0  0
 26 29  1  0  0  0  0
 27 28  4  0  0  0  0
 27 32  1  0  0  0  0
 28 33  1  0  0  0  0
 29 34  1  0  0  0  0
 29 35  1  0  0  0  0
M  END
> <BCLConfClusterSize>
1

> <ConfClashScore>
0 

> <ConfOneFourInteractionScore>
-0.927621 

> <ConfScore>
0.3797 

> <ConfScorePBest>
0.00470095 

> <ConfTolerance>
0.484117 

> <RosettaParamsInstructions>
M  ROOT 3
M  POLY_N_BB 3
M  POLY_CA_BB 4
M  POLY_C_BB 2
M  POLY_O_BB 5
M  POLY_IGNORE 9 10 11 12 13 14 15 16 17 18 
M  POLY_UPPER 6
M  POLY_LOWER 8
M  POLY_CHG 0
M  POLY_PROPERTIES ALPHA_AA D_AA PROTEIN AROMATIC POLYMER 
M  END

$$$$



 35 35  0  0  0  0  0  0  0  0999 V2000
   -0.0277    4.1727   -0.5503 H   0  0  0  1  0  0  0  0  0  0  0  0
   -1.9845    4.7058    0.1127 C   0  0  0  1  0  0  0  0  0  0  0  0
   -1.1062    4.9211   -2.1649 N   0  0  0  1  0  0  0  0  0  0  0  0
   -1.0248    4.1436   -0.9375 C   0  0  0  1  0  0  0  0  0  0  0  0
   -2.3973    3.9953    1.0277 O   0  0  0  1  0  0  0  0  0  0  0  0
   -2.2437    6.0121   -0.0088 N   0  0  0  1  0  0  0  0  0  0  0  0
   -1.9820    5.2445   -2.4627 H   0  0  0  1  0  0  0  0  0  0  0  0
    0.0124    5.2203   -2.9278 C   0  0  0  1  0  0  0  0  0  0  0  0
   -3.1083    6.7229    0.9213 C   0  0  0  1  0  0  0  0  0  0  0  0
   -0.1574    6.0118   -4.1940 C   0  0  0  1  0  0  0  0  0  0  0  0
    1.1000    4.8299   -2.5443 O   0  0  0  1  0  0  0  0  0  0  0  0
   -1.8373    6.5080   -0.7500 H   0  0  0  1  0  0  0  0  0  0  0  0
   -4.1229    6.4192    0.7690 H   0  0  0  1  0  0  0  0  0  0  0  0
   -3.0226    7.7762    0.7537 H   0  0  0  1  0  0  0  0  0  0  0  0
   -2.8151    6.4959    1.9250 H   0  0  0  1  0  0  0  0  0  0  0  0
   -0.7789    5.4681   -4.8745 H   0  0  0  1  0  0  0  0  0  0  0  0
    0.8002    6.1784   -4.6414 H   0  0  0  1  0  0  0  0  0  0  0  0
   -0.6145    6.9525   -3.9678 H   0  0  0  1  0  0  0  0  0  0  0  0
    1.4380    0.2848   -6.4957 F   0  0  0  1  0  0  0  0  0  0  0  0
    1.9260    0.1957   -5.2571 C   0  0  0  1  0  0  0  0  0  0  0  0
    2.0450   -1.1071   -4.9963 F   0  0  0  1  0  0  0  0  0  0  0  0
    3.1670    0.6813   -5.3089 F   0  0  0  1  0  0  0  0  0  0  0  0
    1.0636    0.9144   -4.2408 C   0  0  0  1  0  0  0  0  0  0  0  0
    1.5468    1.1185   -2.9576 C   0  0  0  1  0  0  0  0  0  0  0  0
    0.7345    1.6893   -1.9961 C   0  0  0  1  0  0  0  0  0  0  0  0
   -0.5616    2.0626   -2.3162 C   0  0  0  1  0  0  0  0  0  0  0  0
   -1.0432    1.8590   -3.5955 C   0  0  0  1  0  0  0  0  0  0  0  0
   -0.2286    1.2866   -4.5600 C   0  0  0  1  0  0  0  0  0  0  0  0
   -1.4043    2.6872   -1.2294 C   0  0  0  1  0  0  0  0  0  0  0  0
    2.5205    0.8422   -2.7185 H   0  0  0  1  0  0  0  0  0  0  0  0
    1.0956    1.8388   -1.0323 H   0  0  0  1  0  0  0  0  0  0  0  0
   -2.0169    2.1354   -3.8346 H   0  0  0  1  0  0  0  0  0  0  0  0
   -0.5898    1.1372   -5.5238 H   0  0  0  1  0  0  0  0  0  0  0  0
   -2.4296    2.6569   -1.5337 H   0  0  0  1  0  0  0  0  0  0  0  0
   -1.2809    2.1168   -0.3325 H   0  0  0  1  0  0  0  0  0  0  0  0
  1  4  1  0  0  0  0
  2  4  1  0  0  0  0
  2  5  2  0  0  0  0
  2  6  1  0  0  0  0
  3  4  1  0  0  0  0
  3  7  1  0  0  0  0
  3  8  1  0  0  0  0
  4 29  1  0  0  0  0
  6  9  1  0  0  0  0
  6 12  1  0  0  0  0
  8 10  1  0  0  0  0
  8 11  2  0  0  0  0
  9 13  1  0  0  0  0
  9 14  1  0  0  0  0
  9 15  1  0  0  0  0
 10 16  1  0  0  0  0
 10 17  1  0  0  0  0
 10 18  1  0  0  0  0
 19 20  1  0  0  0  0
 20 21  1  0  0  0  0
 20 22  1  0  0  0  0
 20 23  1  0  0  0  0
 23 24  4  0  0  0  0
 23 28  4  0  0  0  0
 24 25  4  0  0  0  0
 24 30  1  0  0  0  0
 25 26  4  0  0  0  0
 25 31  1  0  0  0  0
 26 27  4  0  0  0  0
 26 29  1  0  0  0  0
 27 28  4  0  0  0  0
 27 32  1  0  0  0  0
 28 33  1  0  0  0  0
 29 34  1  0  0  0  0
 29 35  1  0  0  0  0
M  END
> <BCLConfClusterSize>
1

> <ConfClashScore>
0 

> <ConfOneFourInteractionScore>
-0.94194 

> <ConfScore>
0.380197 

> <ConfScorePBest>
0.00467247 

> <ConfTolerance>
0.503864 

> <RosettaParamsInstructions>
M  ROOT 3
M  POLY_N_BB 3
M  POLY_CA_BB 4
M  POLY_C_BB 2
M  POLY_O_BB 5
M  POLY_IGNORE 9 10 11 12 13 14 15 16 17 18 
M  POLY_UPPER 6
M  POLY_LOWER 8
M  POLY_CHG 0
M  POLY_PROPERTIES ALPHA_AA D_AA PROTEIN AROMATIC POLYMER 
M  END

$$$$



 35 35  0  0  0  0  0  0  0  0999 V2000
   -2.5601    1.9816    0.4656 H   0  0  0  1  0  0  0  0  0  0  0  0
   -0.5795    1.2360    0.6843 C   0  0  0  1  0  0  0  0  0  0  0  0
   -2.2839    0.3503   -0.8087 N   0  0  0  1  0  0  0  0  0  0  0  0
   -1.7967    1.5807   -0.1681 C   0  0  0  1  0  0  0  0  0  0  0  0
    0.3020    2.0604    0.8716 O   0  0  0  1  0  0  0  0  0  0  0  0
   -0.6195    0.0264    1.2532 N   0  0  0  1  0  0  0  0  0  0  0  0
   -1.7908   -0.4888   -0.6941 H   0  0  0  1  0  0  0  0  0  0  0  0
   -3.3973    0.3738   -1.5467 C   0  0  0  1  0  0  0  0  0  0  0  0
    0.3809   -0.4720    2.1852 C   0  0  0  1  0  0  0  0  0  0  0  0
   -3.7749   -0.9675   -2.1780 C   0  0  0  1  0  0  0  0  0  0  0  0
   -4.1273    1.3440   -1.6666 O   0  0  0  1  0  0  0  0  0  0  0  0
   -1.3703   -0.5618    1.0282 H   0  0  0  1  0  0  0  0  0  0  0  0
    0.8453    0.3521    2.6852 H   0  0  0  1  0  0  0  0  0  0  0  0
    1.1221   -1.0273    1.6492 H   0  0  0  1  0  0  0  0  0  0  0  0
   -0.0892   -1.1074    2.9065 H   0  0  0  1  0  0  0  0  0  0  0  0
   -4.6898   -1.3193   -1.7489 H   0  0  0  1  0  0  0  0  0  0  0  0
   -2.9978   -1.6795   -1.9937 H   0  0  0  1  0  0  0  0  0  0  0  0
   -3.9012   -0.8418   -3.2331 H   0  0  0  1  0  0  0  0  0  0  0  0
    2.7801    1.0128   -5.8592 F   0  0  0  1  0  0  0  0  0  0  0  0
    1.9153    0.1886   -5.2653 C   0  0  0  1  0  0  0  0  0  0  0  0
    1.1543   -0.3229   -6.2341 F   0  0  0  1  0  0  0  0  0  0  0  0
    2.6134   -0.8033   -4.7519 F   0  0  0  1  0  0  0  0  0  0  0  0
    1.0795    0.9162   -4.2332 C   0  0  0  1  0  0  0  0  0  0  0  0
    1.6273    1.3675   -3.0425 C   0  0  0  1  0  0  0  0  0  0  0  0
    0.8156    1.9416   -2.0823 C   0  0  0  1  0  0  0  0  0  0  0  0
   -0.5452    2.0709   -2.3121 C   0  0  0  1  0  0  0  0  0  0  0  0
   -1.0912    1.6209   -3.4994 C   0  0  0  1  0  0  0  0  0  0  0  0
   -0.2774    1.0452   -4.4625 C   0  0  0  1  0  0  0  0  0  0  0  0
   -1.4532    2.6133   -1.2337 C   0  0  0  1  0  0  0  0  0  0  0  0
    2.6489    1.2741   -2.8716 H   0  0  0  1  0  0  0  0  0  0  0  0
    1.2259    2.2765   -1.1873 H   0  0  0  1  0  0  0  0  0  0  0  0
   -2.1129    1.7143   -3.6702 H   0  0  0  1  0  0  0  0  0  0  0  0
   -0.6877    0.7102   -5.3575 H   0  0  0  1  0  0  0  0  0  0  0  0
   -0.9652    3.4404   -0.7618 H   0  0  0  1  0  0  0  0  0  0  0  0
   -2.3617    2.9473   -1.6897 H   0  0  0  1  0  0  0  0  0  0  0  0
  1  4  1  0  0  0  0
  2  4  1  0  0  0  0
  2  5  2  0  0  0  0
  2  6  1  0  0  0  0
  3  4  1  0  0  0  0
  3  7  1  0  0  0  0
  3  8  1  0  0  0  0
  4 29  1  0  0  0  0
  6  9  1  0  0  0  0
  6 12  1  0  0  0  0
  8 10  1  0  0  0  0
  8 11  2  0  0  0  0
  9 13  1  0  0  0  0
  9 14  1  0  0  0  0
  9 15  1  0  0  0  0
 10 16  1  0  0  0  0
 10 17  1  0  0  0  0
 10 18  1  0  0  0  0
 19 20  1  0  0  0  0
 20 21  1  0  0  0  0
 20 22  1  0  0  0  0
 20 23  1  0  0  0  0
 23 24  4  0  0  0  0
 23 28  4  0  0  0  0
 24 25  4  0  0  0  0
 24 30  1  0  0  0  0
 25 26  4  0  0  0  0
 25 31  1  0  0  0  0
 26 27  4  0  0  0  0
 26 29  1  0  0  0  0
 27 28  4  0  0  0  0
 27 32  1  0  0  0  0
 28 33  1  0  0  0  0
 29 34  1  0  0  0  0
 29 35  1  0  0  0  0
M  END
> <BCLConfClusterSize>
1

> <ConfClashScore>
0 

> <ConfOneFourInteractionScore>
-0.932227 

> <ConfScore>
0.380932 

> <ConfScorePBest>
0.00464399 

> <ConfTolerance>
0.660889 

> <RosettaParamsInstructions>
M  ROOT 3
M  POLY_N_BB 3
M  POLY_CA_BB 4
M  POLY_C_BB 2
M  POLY_O_BB 5
M  POLY_IGNORE 9 10 11 12 13 14 15 16 17 18 
M  POLY_UPPER 6
M  POLY_LOWER 8
M  POLY_CHG 0
M  POLY_PROPERTIES ALPHA_AA D_AA PROTEIN AROMATIC POLYMER 
M  END

$$$$



 35 35  0  0  0  0  0  0  0  0999 V2000
   -1.0324    4.6530   -1.9325 H   0  0  0  1  0  0  0  0  0  0  0  0
    0.2530    4.3669   -0.2908 C   0  0  0  1  0  0  0  0  0  0  0  0
   -2.1451    4.7981   -0.1945 N   0  0  0  1  0  0  0  0  0  0  0  0
   -1.0832    4.1592   -0.9846 C   0  0  0  1  0  0  0  0  0  0  0  0
    1.1182    3.4931   -0.3240 O   0  0  0  1  0  0  0  0  0  0  0  0
    0.4174    5.5752    0.2550 N   0  0  0  1  0  0  0  0  0  0  0  0
   -2.8046    5.3729   -0.6362 H   0  0  0  1  0  0  0  0  0  0  0  0
   -2.2135    4.5961    1.1301 C   0  0  0  1  0  0  0  0  0  0  0  0
    1.6779    5.9951    0.8487 C   0  0  0  1  0  0  0  0  0  0  0  0
   -3.3918    5.2545    1.8409 C   0  0  0  1  0  0  0  0  0  0  0  0
   -1.3883    3.9260    1.7489 O   0  0  0  1  0  0  0  0  0  0  0  0
   -0.3372    6.2005    0.2556 H   0  0  0  1  0  0  0  0  0  0  0  0
    2.0010    5.2614    1.5574 H   0  0  0  1  0  0  0  0  0  0  0  0
    1.5434    6.9340    1.3440 H   0  0  0  1  0  0  0  0  0  0  0  0
    2.4163    6.0987    0.0813 H   0  0  0  1  0  0  0  0  0  0  0  0
   -3.6535    6.1601    1.3347 H   0  0  0  1  0  0  0  0  0  0  0  0
   -3.1193    5.4769    2.8514 H   0  0  0  1  0  0  0  0  0  0  0  0
   -4.2290    4.5882    1.8352 H   0  0  0  1  0  0  0  0  0  0  0  0
    1.6477   -1.0884   -5.3679 F   0  0  0  1  0  0  0  0  0  0  0  0
    1.9112    0.1894   -5.2604 C   0  0  0  1  0  0  0  0  0  0  0  0
    3.2105    0.2496   -5.0502 F   0  0  0  1  0  0  0  0  0  0  0  0
    1.7651    0.6754   -6.4757 F   0  0  0  1  0  0  0  0  0  0  0  0
    1.0833    0.9077   -4.2128 C   0  0  0  1  0  0  0  0  0  0  0  0
    1.4803    0.9622   -2.8858 C   0  0  0  1  0  0  0  0  0  0  0  0
    0.6546    1.5417   -1.9409 C   0  0  0  1  0  0  0  0  0  0  0  0
   -0.5680    2.0730   -2.3210 C   0  0  0  1  0  0  0  0  0  0  0  0
   -0.9636    2.0185   -3.6442 C   0  0  0  1  0  0  0  0  0  0  0  0
   -0.1356    1.4374   -4.5920 C   0  0  0  1  0  0  0  0  0  0  0  0
   -1.4285    2.6996   -1.2494 C   0  0  0  1  0  0  0  0  0  0  0  0
    2.3993    0.5672   -2.6012 H   0  0  0  1  0  0  0  0  0  0  0  0
    0.9506    1.5790   -0.9446 H   0  0  0  1  0  0  0  0  0  0  0  0
   -1.8826    2.4135   -3.9287 H   0  0  0  1  0  0  0  0  0  0  0  0
   -0.4317    1.4001   -5.5883 H   0  0  0  1  0  0  0  0  0  0  0  0
   -2.4516    2.6421   -1.5572 H   0  0  0  1  0  0  0  0  0  0  0  0
   -1.2971    2.1485   -0.3417 H   0  0  0  1  0  0  0  0  0  0  0  0
  1  4  1  0  0  0  0
  2  4  1  0  0  0  0
  2  5  2  0  0  0  0
  2  6  1  0  0  0  0
  3  4  1  0  0  0  0
  3  7  1  0  0  0  0
  3  8  1  0  0  0  0
  4 29  1  0  0  0  0
  6  9  1  0  0  0  0
  6 12  1  0  0  0  0
  8 10  1  0  0  0  0
  8 11  2  0  0  0  0
  9 13  1  0  0  0  0
  9 14  1  0  0  0  0
  9 15  1  0  0  0  0
 10 16  1  0  0  0  0
 10 17  1  0  0  0  0
 10 18  1  0  0  0  0
 19 20  1  0  0  0  0
 20 21  1  0  0  0  0
 20 22  1  0  0  0  0
 20 23  1  0  0  0  0
 23 24  4  0  0  0  0
 23 28  4  0  0  0  0
 24 25  4  0  0  0  0
 24 30  1  0  0  0  0
 25 26  4  0  0  0  0
 25 31  1  0  0  0  0
 26 27  4  0  0  0  0
 26 29  1  0  0  0  0
 27 28  4  0  0  0  0
 27 32  1  0  0  0  0
 28 33  1  0  0  0  0
 29 34  1  0  0  0  0
 29 35  1  0  0  0  0
M  END
> <BCLConfClusterSize>
1

> <ConfClashScore>
0 

> <ConfOneFourInteractionScore>
-0.957364 

> <ConfScore>
0.383559 

> <ConfScorePBest>
0.00461551 

> <ConfTolerance>
0.370328 

> <RosettaParamsInstructions>
M  ROOT 3
M  POLY_N_BB 3
M  POLY_CA_BB 4
M  POLY_C_BB 2
M  POLY_O_BB 5
M  POLY_IGNORE 9 10 11 12 13 14 15 16 17 18 
M  POLY_UPPER 6
M  POLY_LOWER 8
M  POLY_CHG 0
M  POLY_PROPERTIES ALPHA_AA D_AA PROTEIN AROMATIC POLYMER 
M  END

$$$$



 35 35  0  0  0  0  0  0  0  0999 V2000
   -1.7084    4.3086    0.0338 H   0  0  0  1  0  0  0  0  0  0  0  0
   -0.5654    5.0142   -1.5834 C   0  0  0  1  0  0  0  0  0  0  0  0
    0.1965    3.5660    0.2601 N   0  0  0  1  0  0  0  0  0  0  0  0
   -0.9273    3.9262   -0.5895 C   0  0  0  1  0  0  0  0  0  0  0  0
   -1.4470    5.6609   -2.1246 O   0  0  0  1  0  0  0  0  0  0  0  0
    0.7369    5.2670   -1.7526 N   0  0  0  1  0  0  0  0  0  0  0  0
    0.4681    2.6278    0.3399 H   0  0  0  1  0  0  0  0  0  0  0  0
    0.8661    4.5208    0.9386 C   0  0  0  1  0  0  0  0  0  0  0  0
    1.2153    6.3425   -2.6083 C   0  0  0  1  0  0  0  0  0  0  0  0
    1.9803    4.0847    1.8701 C   0  0  0  1  0  0  0  0  0  0  0  0
    0.5829    5.7108    0.8073 O   0  0  0  1  0  0  0  0  0  0  0  0
    1.3918    4.7085   -1.2839 H   0  0  0  1  0  0  0  0  0  0  0  0
    1.9058    6.9520   -2.0636 H   0  0  0  1  0  0  0  0  0  0  0  0
    0.3867    6.9400   -2.9266 H   0  0  0  1  0  0  0  0  0  0  0  0
    1.7051    5.9263   -3.4637 H   0  0  0  1  0  0  0  0  0  0  0  0
    2.9121    4.4782    1.5210 H   0  0  0  1  0  0  0  0  0  0  0  0
    2.0299    3.0161    1.8906 H   0  0  0  1  0  0  0  0  0  0  0  0
    1.7851    4.4523    2.8558 H   0  0  0  1  0  0  0  0  0  0  0  0
    1.4649    0.3417   -6.5042 F   0  0  0  1  0  0  0  0  0  0  0  0
    1.9232    0.1962   -5.2598 C   0  0  0  1  0  0  0  0  0  0  0  0
    1.9895   -1.1176   -5.0383 F   0  0  0  1  0  0  0  0  0  0  0  0
    3.1818    0.6371   -5.2714 F   0  0  0  1  0  0  0  0  0  0  0  0
    1.0664    0.9142   -4.2383 C   0  0  0  1  0  0  0  0  0  0  0  0
    1.5604    1.1263   -2.9606 C   0  0  0  1  0  0  0  0  0  0  0  0
    0.7538    1.6965   -1.9938 C   0  0  0  1  0  0  0  0  0  0  0  0
   -0.5473    2.0611   -2.3032 C   0  0  0  1  0  0  0  0  0  0  0  0
   -1.0397    1.8496   -3.5772 C   0  0  0  1  0  0  0  0  0  0  0  0
   -0.2309    1.2778   -4.5470 C   0  0  0  1  0  0  0  0  0  0  0  0
   -1.4730    2.6930   -1.2907 C   0  0  0  1  0  0  0  0  0  0  0  0
    2.5378    0.8565   -2.7295 H   0  0  0  1  0  0  0  0  0  0  0  0
    1.1231    1.8519   -1.0341 H   0  0  0  1  0  0  0  0  0  0  0  0
   -2.0171    2.1194   -3.8083 H   0  0  0  1  0  0  0  0  0  0  0  0
   -0.6002    1.1223   -5.5067 H   0  0  0  1  0  0  0  0  0  0  0  0
   -2.3738    2.9721   -1.7961 H   0  0  0  1  0  0  0  0  0  0  0  0
   -1.6951    1.9597   -0.5437 H   0  0  0  1  0  0  0  0  0  0  0  0
  1  4  1  0  0  0  0
  2  4  1  0  0  0  0
  2  5  2  0  0  0  0
  2  6  1  0  0  0  0
  3  4  1  0  0  0  0
  3  7  1  0  0  0  0
  3  8  1  0  0  0  0
  4 29  1  0  0  0  0
  6  9  1  0  0  0  0
  6 12  1  0  0  0  0
  8 10  1  0  0  0  0
  8 11  2  0  0  0  0
  9 13  1  0  0  0  0
  9 14  1  0  0  0  0
  9 15  1  0  0  0  0
 10 16  1  0  0  0  0
 10 17  1  0  0  0  0
 10 18  1  0  0  0  0
 19 20  1  0  0  0  0
 20 21  1  0  0  0  0
 20 22  1  0  0  0  0
 20 23  1  0  0  0  0
 23 24  4  0  0  0  0
 23 28  4  0  0  0  0
 24 25  4  0  0  0  0
 24 30  1  0  0  0  0
 25 26  4  0  0  0  0
 25 31  1  0  0  0  0
 26 27  4  0  0  0  0
 26 29  1  0  0  0  0
 27 28  4  0  0  0  0
 27 32  1  0  0  0  0
 28 33  1  0  0  0  0
 29 34  1  0  0  0  0
 29 35  1  0  0  0  0
M  END
> <BCLConfClusterSize>
1

> <ConfClashScore>
0 

> <ConfOneFourInteractionScore>
-0.957074 

> <ConfScore>
0.385811 

> <ConfScorePBest>
0.00458703 

> <ConfTolerance>
0.453912 

> <RosettaParamsInstructions>
M  ROOT 3
M  POLY_N_BB 3
M  POLY_CA_BB 4
M  POLY_C_BB 2
M  POLY_O_BB 5
M  POLY_IGNORE 9 10 11 12 13 14 15 16 17 18 
M  POLY_UPPER 6
M  POLY_LOWER 8
M  POLY_CHG 0
M  POLY_PROPERTIES ALPHA_AA D_AA PROTEIN AROMATIC POLYMER 
M  END

$$$$



 35 35  0  0  0  0  0  0  0  0999 V2000
   -1.4473    4.6104   -2.1549 H   0  0  0  1  0  0  0  0  0  0  0  0
    0.1317    4.5944   -0.7669 C   0  0  0  1  0  0  0  0  0  0  0  0
   -2.2788    4.7766   -0.2797 N   0  0  0  1  0  0  0  0  0  0  0  0
   -1.2793    4.2138   -1.1754 C   0  0  0  1  0  0  0  0  0  0  0  0
    0.5700    4.2397    0.3263 O   0  0  0  1  0  0  0  0  0  0  0  0
    0.8707    5.2412   -1.6788 N   0  0  0  1  0  0  0  0  0  0  0  0
   -2.2620    4.5230    0.6668 H   0  0  0  1  0  0  0  0  0  0  0  0
   -3.2277    5.6352   -0.7069 C   0  0  0  1  0  0  0  0  0  0  0  0
    2.2396    5.6849   -1.4047 C   0  0  0  1  0  0  0  0  0  0  0  0
   -4.3711    5.9544    0.2294 C   0  0  0  1  0  0  0  0  0  0  0  0
   -3.1667    6.1440   -1.8231 O   0  0  0  1  0  0  0  0  0  0  0  0
    0.4818    5.4237   -2.5596 H   0  0  0  1  0  0  0  0  0  0  0  0
    2.2402    6.7347   -1.1981 H   0  0  0  1  0  0  0  0  0  0  0  0
    2.8552    5.4892   -2.2578 H   0  0  0  1  0  0  0  0  0  0  0  0
    2.6234    5.1548   -0.5582 H   0  0  0  1  0  0  0  0  0  0  0  0
   -5.2967    5.6745   -0.2288 H   0  0  0  1  0  0  0  0  0  0  0  0
   -4.3793    7.0040    0.4371 H   0  0  0  1  0  0  0  0  0  0  0  0
   -4.2466    5.4105    1.1424 H   0  0  0  1  0  0  0  0  0  0  0  0
    1.2136   -0.2688   -6.2855 F   0  0  0  1  0  0  0  0  0  0  0  0
    1.9256    0.1941   -5.2565 C   0  0  0  1  0  0  0  0  0  0  0  0
    2.5612   -0.8585   -4.7395 F   0  0  0  1  0  0  0  0  0  0  0  0
    2.8680    0.9804   -5.7782 F   0  0  0  1  0  0  0  0  0  0  0  0
    1.0693    0.9137   -4.2357 C   0  0  0  1  0  0  0  0  0  0  0  0
    1.5121    1.0203   -2.9264 C   0  0  0  1  0  0  0  0  0  0  0  0
    0.6987    1.5920   -1.9663 C   0  0  0  1  0  0  0  0  0  0  0  0
   -0.5576    2.0637   -2.3136 C   0  0  0  1  0  0  0  0  0  0  0  0
   -0.9989    1.9574   -3.6191 C   0  0  0  1  0  0  0  0  0  0  0  0
   -0.1833    1.3840   -4.5821 C   0  0  0  1  0  0  0  0  0  0  0  0
   -1.4447    2.6939   -1.2661 C   0  0  0  1  0  0  0  0  0  0  0  0
    2.4563    0.6700   -2.6666 H   0  0  0  1  0  0  0  0  0  0  0  0
    1.0293    1.6684   -0.9832 H   0  0  0  1  0  0  0  0  0  0  0  0
   -1.9431    2.3077   -3.8788 H   0  0  0  1  0  0  0  0  0  0  0  0
   -0.5139    1.3077   -5.5652 H   0  0  0  1  0  0  0  0  0  0  0  0
   -2.4641    2.4760   -1.5072 H   0  0  0  1  0  0  0  0  0  0  0  0
   -1.2037    2.2678   -0.3146 H   0  0  0  1  0  0  0  0  0  0  0  0
  1  4  1  0  0  0  0
  2  4  1  0  0  0  0
  2  5  2  0  0  0  0
  2  6  1  0  0  0  0
  3  4  1  0  0  0  0
  3  7  1  0  0  0  0
  3  8  1  0  0  0  0
  4 29  1  0  0  0  0
  6  9  1  0  0  0  0
  6 12  1  0  0  0  0
  8 10  1  0  0  0  0
  8 11  2  0  0  0  0
  9 13  1  0  0  0  0
  9 14  1  0  0  0  0
  9 15  1  0  0  0  0
 10 16  1  0  0  0  0
 10 17  1  0  0  0  0
 10 18  1  0  0  0  0
 19 20  1  0  0  0  0
 20 21  1  0  0  0  0
 20 22  1  0  0  0  0
 20 23  1  0  0  0  0
 23 24  4  0  0  0  0
 23 28  4  0  0  0  0
 24 25  4  0  0  0  0
 24 30  1  0  0  0  0
 25 26  4  0  0  0  0
 25 31  1  0  0  0  0
 26 27  4  0  0  0  0
 26 29  1  0  0  0  0
 27 28  4  0  0  0  0
 27 32  1  0  0  0  0
 28 33  1  0  0  0  0
 29 34  1  0  0  0  0
 29 35  1  0  0  0  0
M  END
> <BCLConfClusterSize>
1

> <ConfClashScore>
0 

> <ConfOneFourInteractionScore>
-0.978127 

> <ConfScore>
0.386414 

> <ConfScorePBest>
0.00455855 

> <ConfTolerance>
0.391015 

> <RosettaParamsInstructions>
M  ROOT 3
M  POLY_N_BB 3
M  POLY_CA_BB 4
M  POLY_C_BB 2
M  POLY_O_BB 5
M  POLY_IGNORE 9 10 11 12 13 14 15 16 17 18 
M  POLY_UPPER 6
M  POLY_LOWER 8
M  POLY_CHG 0
M  POLY_PROPERTIES ALPHA_AA D_AA PROTEIN AROMATIC POLYMER 
M  END

$$$$



 35 35  0  0  0  0  0  0  0  0999 V2000
   -0.8031    1.3641    0.2332 H   0  0  0  1  0  0  0  0  0  0  0  0
   -2.0430    2.7614    1.1993 C   0  0  0  1  0  0  0  0  0  0  0  0
    0.2908    3.0888    0.4822 N   0  0  0  1  0  0  0  0  0  0  0  0
   -0.9731    2.4181    0.1612 C   0  0  0  1  0  0  0  0  0  0  0  0
   -3.0805    2.1181    1.2395 O   0  0  0  1  0  0  0  0  0  0  0  0
   -1.7394    3.7200    2.0852 N   0  0  0  1  0  0  0  0  0  0  0  0
    0.5863    3.8562   -0.0508 H   0  0  0  1  0  0  0  0  0  0  0  0
    1.0478    2.6515    1.5099 C   0  0  0  1  0  0  0  0  0  0  0  0
   -2.6368    4.0885    3.1700 C   0  0  0  1  0  0  0  0  0  0  0  0
    2.4658    3.1762    1.6244 C   0  0  0  1  0  0  0  0  0  0  0  0
    0.6030    1.8507    2.3311 O   0  0  0  1  0  0  0  0  0  0  0  0
   -0.8833    4.1892    1.9996 H   0  0  0  1  0  0  0  0  0  0  0  0
   -2.4856    5.1166    3.4250 H   0  0  0  1  0  0  0  0  0  0  0  0
   -2.4343    3.4761    4.0237 H   0  0  0  1  0  0  0  0  0  0  0  0
   -3.6503    3.9437    2.8589 H   0  0  0  1  0  0  0  0  0  0  0  0
    3.1331    2.3626    1.8186 H   0  0  0  1  0  0  0  0  0  0  0  0
    2.5211    3.8817    2.4270 H   0  0  0  1  0  0  0  0  0  0  0  0
    2.7440    3.6545    0.7086 H   0  0  0  1  0  0  0  0  0  0  0  0
    1.1831   -0.3979   -6.1887 F   0  0  0  1  0  0  0  0  0  0  0  0
    1.9312    0.1987   -5.2590 C   0  0  0  1  0  0  0  0  0  0  0  0
    2.6642   -0.7603   -4.6911 F   0  0  0  1  0  0  0  0  0  0  0  0
    2.7723    1.0153   -5.8948 F   0  0  0  1  0  0  0  0  0  0  0  0
    1.0737    0.9157   -4.2374 C   0  0  0  1  0  0  0  0  0  0  0  0
    1.5056    1.0017   -2.9229 C   0  0  0  1  0  0  0  0  0  0  0  0
    0.6898    1.5711   -1.9635 C   0  0  0  1  0  0  0  0  0  0  0  0
   -0.5579    2.0611   -2.3165 C   0  0  0  1  0  0  0  0  0  0  0  0
   -0.9883    1.9753   -3.6270 C   0  0  0  1  0  0  0  0  0  0  0  0
   -0.1703    1.4042   -4.5895 C   0  0  0  1  0  0  0  0  0  0  0  0
   -1.4474    2.6888   -1.2695 C   0  0  0  1  0  0  0  0  0  0  0  0
    2.4434    0.6377   -2.6588 H   0  0  0  1  0  0  0  0  0  0  0  0
    1.0121    1.6320   -0.9766 H   0  0  0  1  0  0  0  0  0  0  0  0
   -1.9261    2.3393   -3.8912 H   0  0  0  1  0  0  0  0  0  0  0  0
   -0.4927    1.3434   -5.5764 H   0  0  0  1  0  0  0  0  0  0  0  0
   -1.4655    3.7468   -1.4279 H   0  0  0  1  0  0  0  0  0  0  0  0
   -2.4357    2.2939   -1.3811 H   0  0  0  1  0  0  0  0  0  0  0  0
  1  4  1  0  0  0  0
  2  4  1  0  0  0  0
  2  5  2  0  0  0  0
  2  6  1  0  0  0  0
  3  4  1  0  0  0  0
  3  7  1  0  0  0  0
  3  8  1  0  0  0  0
  4 29  1  0  0  0  0
  6  9  1  0  0  0  0
  6 12  1  0  0  0  0
  8 10  1  0  0  0  0
  8 11  2  0  0  0  0
  9 13  1  0  0  0  0
  9 14  1  0  0  0  0
  9 15  1  0  0  0  0
 10 16  1  0  0  0  0
 10 17  1  0  0  0  0
 10 18  1  0  0  0  0
 19 20  1  0  0  0  0
 20 21  1  0  0  0  0
 20 22  1  0  0  0  0
 20 23  1  0  0  0  0
 23 24  4  0  0  0  0
 23 28  4  0  0  0  0
 24 25  4  0  0  0  0
 24 30  1  0  0  0  0
 25 26  4  0  0  0  0
 25 31  1  0  0  0  0
 26 27  4  0  0  0  0
 26 29  1  0  0  0  0
 27 28  4  0  0  0  0
 27 32  1  0  0  0  0
 28 33  1  0  0  0  0
 29 34  1  0  0  0  0
 29 35  1  0  0  0  0
M  END
> <BCLConfClusterSize>
1

> <ConfClashScore>
0 

> <ConfOneFourInteractionScore>
-0.930333 

> <ConfScore>
0.389569 

> <ConfScorePBest>
0.00453007 

> <ConfTolerance>
0.494445 

> <RosettaParamsInstructions>
M  ROOT 3
M  POLY_N_BB 3
M  POLY_CA_BB 4
M  POLY_C_BB 2
M  POLY_O_BB 5
M  POLY_IGNORE 9 10 11 12 13 14 15 16 17 18 
M  POLY_UPPER 6
M  POLY_LOWER 8
M  POLY_CHG 0
M  POLY_PROPERTIES ALPHA_AA D_AA PROTEIN AROMATIC POLYMER 
M  END

$$$$



 35 35  0  0  0  0  0  0  0  0999 V2000
   -1.9858    4.5644   -0.4774 H   0  0  0  1  0  0  0  0  0  0  0  0
   -2.2085    4.6893   -2.5710 C   0  0  0  1  0  0  0  0  0  0  0  0
   -0.0714    4.6680   -1.2413 N   0  0  0  1  0  0  0  0  0  0  0  0
   -1.4542    4.2140   -1.3374 C   0  0  0  1  0  0  0  0  0  0  0  0
   -2.8690    3.8991   -3.2442 O   0  0  0  1  0  0  0  0  0  0  0  0
   -2.1560    6.0083   -2.7851 N   0  0  0  1  0  0  0  0  0  0  0  0
    0.3879    4.5435   -0.3846 H   0  0  0  1  0  0  0  0  0  0  0  0
    0.6152    5.2400   -2.2316 C   0  0  0  1  0  0  0  0  0  0  0  0
   -2.7847    6.6345   -3.9395 C   0  0  0  1  0  0  0  0  0  0  0  0
    2.0445    5.6900   -1.9505 C   0  0  0  1  0  0  0  0  0  0  0  0
    0.1641    5.4269   -3.3609 O   0  0  0  1  0  0  0  0  0  0  0  0
   -1.6777    6.5730   -2.1427 H   0  0  0  1  0  0  0  0  0  0  0  0
   -2.4372    6.1631   -4.8350 H   0  0  0  1  0  0  0  0  0  0  0  0
   -2.5319    7.6740   -3.9628 H   0  0  0  1  0  0  0  0  0  0  0  0
   -3.8469    6.5267   -3.8690 H   0  0  0  1  0  0  0  0  0  0  0  0
    2.4590    6.1339   -2.8314 H   0  0  0  1  0  0  0  0  0  0  0  0
    2.6350    4.8442   -1.6659 H   0  0  0  1  0  0  0  0  0  0  0  0
    2.0427    6.4076   -1.1568 H   0  0  0  1  0  0  0  0  0  0  0  0
    1.2918    0.0668   -6.4246 F   0  0  0  1  0  0  0  0  0  0  0  0
    1.9310    0.1986   -5.2610 C   0  0  0  1  0  0  0  0  0  0  0  0
    2.2400   -1.0348   -4.8577 F   0  0  0  1  0  0  0  0  0  0  0  0
    3.0776    0.8320   -5.5112 F   0  0  0  1  0  0  0  0  0  0  0  0
    1.0727    0.9157   -4.2374 C   0  0  0  1  0  0  0  0  0  0  0  0
    1.5424    1.0738   -2.9428 C   0  0  0  1  0  0  0  0  0  0  0  0
    0.7318    1.6422   -1.9783 C   0  0  0  1  0  0  0  0  0  0  0  0
   -0.5488    2.0590   -2.3067 C   0  0  0  1  0  0  0  0  0  0  0  0
   -1.0169    1.9013   -3.5975 C   0  0  0  1  0  0  0  0  0  0  0  0
   -0.2042    1.3313   -4.5650 C   0  0  0  1  0  0  0  0  0  0  0  0
   -1.4775    2.6917   -1.2974 C   0  0  0  1  0  0  0  0  0  0  0  0
    2.5046    0.7647   -2.6972 H   0  0  0  1  0  0  0  0  0  0  0  0
    1.0826    1.7571   -1.0060 H   0  0  0  1  0  0  0  0  0  0  0  0
   -1.9791    2.2103   -3.8430 H   0  0  0  1  0  0  0  0  0  0  0  0
   -0.5551    1.2163   -5.5372 H   0  0  0  1  0  0  0  0  0  0  0  0
   -2.4751    2.3610   -1.4984 H   0  0  0  1  0  0  0  0  0  0  0  0
   -1.1856    2.3722   -0.3189 H   0  0  0  1  0  0  0  0  0  0  0  0
  1  4  1  0  0  0  0
  2  4  1  0  0  0  0
  2  5  2  0  0  0  0
  2  6  1  0  0  0  0
  3  4  1  0  0  0  0
  3  7  1  0  0  0  0
  3  8  1  0  0  0  0
  4 29  1  0  0  0  0
  6  9  1  0  0  0  0
  6 12  1  0  0  0  0
  8 10  1  0  0  0  0
  8 11  2  0  0  0  0
  9 13  1  0  0  0  0
  9 14  1  0  0  0  0
  9 15  1  0  0  0  0
 10 16  1  0  0  0  0
 10 17  1  0  0  0  0
 10 18  1  0  0  0  0
 19 20  1  0  0  0  0
 20 21  1  0  0  0  0
 20 22  1  0  0  0  0
 20 23  1  0  0  0  0
 23 24  4  0  0  0  0
 23 28  4  0  0  0  0
 24 25  4  0  0  0  0
 24 30  1  0  0  0  0
 25 26  4  0  0  0  0
 25 31  1  0  0  0  0
 26 27  4  0  0  0  0
 26 29  1  0  0  0  0
 27 28  4  0  0  0  0
 27 32  1  0  0  0  0
 28 33  1  0  0  0  0
 29 34  1  0  0  0  0
 29 35  1  0  0  0  0
M  END
> <BCLConfClusterSize>
1

> <ConfClashScore>
0 

> <ConfOneFourInteractionScore>
-0.966825 

> <ConfScore>
0.390596 

> <ConfScorePBest>
0.00450159 

> <ConfTolerance>
0.376507 

> <RosettaParamsInstructions>
M  ROOT 3
M  POLY_N_BB 3
M  POLY_CA_BB 4
M  POLY_C_BB 2
M  POLY_O_BB 5
M  POLY_IGNORE 9 10 11 12 13 14 15 16 17 18 
M  POLY_UPPER 6
M  POLY_LOWER 8
M  POLY_CHG 0
M  POLY_PROPERTIES ALPHA_AA D_AA PROTEIN AROMATIC POLYMER 
M  END

$$$$



 35 35  0  0  0  0  0  0  0  0999 V2000
   -2.2859    4.4691   -0.6441 H   0  0  0  1  0  0  0  0  0  0  0  0
   -2.3323    4.5428   -2.7164 C   0  0  0  1  0  0  0  0  0  0  0  0
   -0.3831    4.9704   -1.2046 N   0  0  0  1  0  0  0  0  0  0  0  0
   -1.6159    4.1758   -1.4251 C   0  0  0  1  0  0  0  0  0  0  0  0
   -1.7420    4.4520   -3.7921 O   0  0  0  1  0  0  0  0  0  0  0  0
   -3.6245    4.8723   -2.6160 N   0  0  0  1  0  0  0  0  0  0  0  0
    0.4586    4.4993   -1.0314 H   0  0  0  1  0  0  0  0  0  0  0  0
   -0.3802    6.3193   -1.2341 C   0  0  0  1  0  0  0  0  0  0  0  0
   -4.4177    5.0946   -3.8166 C   0  0  0  1  0  0  0  0  0  0  0  0
    0.9212    7.0361   -0.9314 C   0  0  0  1  0  0  0  0  0  0  0  0
   -1.4002    6.9503   -1.4982 O   0  0  0  1  0  0  0  0  0  0  0  0
   -4.0384    4.9643   -1.7325 H   0  0  0  1  0  0  0  0  0  0  0  0
   -4.1608    4.3639   -4.5548 H   0  0  0  1  0  0  0  0  0  0  0  0
   -4.2180    6.0736   -4.1995 H   0  0  0  1  0  0  0  0  0  0  0  0
   -5.4573    5.0098   -3.5777 H   0  0  0  1  0  0  0  0  0  0  0  0
    0.9739    7.2542    0.1149 H   0  0  0  1  0  0  0  0  0  0  0  0
    0.9634    7.9488   -1.4882 H   0  0  0  1  0  0  0  0  0  0  0  0
    1.7449    6.4112   -1.2071 H   0  0  0  1  0  0  0  0  0  0  0  0
    2.9000    0.9656   -5.7479 F   0  0  0  1  0  0  0  0  0  0  0  0
    1.9151    0.2019   -5.2719 C   0  0  0  1  0  0  0  0  0  0  0  0
    1.2011   -0.1874   -6.3292 F   0  0  0  1  0  0  0  0  0  0  0  0
    2.4953   -0.8970   -4.7877 F   0  0  0  1  0  0  0  0  0  0  0  0
    1.0733    0.9193   -4.2348 C   0  0  0  1  0  0  0  0  0  0  0  0
    1.6188    1.3710   -3.0432 C   0  0  0  1  0  0  0  0  0  0  0  0
    0.8035    1.9344   -2.0798 C   0  0  0  1  0  0  0  0  0  0  0  0
   -0.5588    2.0527   -2.3073 C   0  0  0  1  0  0  0  0  0  0  0  0
   -1.1025    1.6023   -3.4954 C   0  0  0  1  0  0  0  0  0  0  0  0
   -0.2850    1.0371   -4.4618 C   0  0  0  1  0  0  0  0  0  0  0  0
   -1.4028    2.6812   -1.2237 C   0  0  0  1  0  0  0  0  0  0  0  0
    2.6414    1.2860   -2.8741 H   0  0  0  1  0  0  0  0  0  0  0  0
    1.2120    2.2697   -1.1841 H   0  0  0  1  0  0  0  0  0  0  0  0
   -2.1251    1.6873   -3.6645 H   0  0  0  1  0  0  0  0  0  0  0  0
   -0.6936    0.7019   -5.3574 H   0  0  0  1  0  0  0  0  0  0  0  0
   -2.3581    2.1994   -1.2135 H   0  0  0  1  0  0  0  0  0  0  0  0
   -0.9165    2.5303   -0.2827 H   0  0  0  1  0  0  0  0  0  0  0  0
  1  4  1  0  0  0  0
  2  4  1  0  0  0  0
  2  5  2  0  0  0  0
  2  6  1  0  0  0  0
  3  4  1  0  0  0  0
  3  7  1  0  0  0  0
  3  8  1  0  0  0  0
  4 29  1  0  0  0  0
  6  9  1  0  0  0  0
  6 12  1  0  0  0  0
  8 10  1  0  0  0  0
  8 11  2  0  0  0  0
  9 13  1  0  0  0  0
  9 14  1  0  0  0  0
  9 15  1  0  0  0  0
 10 16  1  0  0  0  0
 10 17  1  0  0  0  0
 10 18  1  0  0  0  0
 19 20  1  0  0  0  0
 20 21  1  0  0  0  0
 20 22  1  0  0  0  0
 20 23  1  0  0  0  0
 23 24  4  0  0  0  0
 23 28  4  0  0  0  0
 24 25  4  0  0  0  0
 24 30  1  0  0  0  0
 25 26  4  0  0  0  0
 25 31  1  0  0  0  0
 26 27  4  0  0  0  0
 26 29  1  0  0  0  0
 27 28  4  0  0  0  0
 27 32  1  0  0  0  0
 28 33  1  0  0  0  0
 29 34  1  0  0  0  0
 29 35  1  0  0  0  0
M  END
> <BCLConfClusterSize>
1

> <ConfClashScore>
0 

> <ConfOneFourInteractionScore>
-0.982563 

> <ConfScore>
0.393197 

> <ConfScorePBest>
0.00447311 

> <ConfTolerance>
0.555465 

> <RosettaParamsInstructions>
M  ROOT 3
M  POLY_N_BB 3
M  POLY_CA_BB 4
M  POLY_C_BB 2
M  POLY_O_BB 5
M  POLY_IGNORE 9 10 11 12 13 14 15 16 17 18 
M  POLY_UPPER 6
M  POLY_LOWER 8
M  POLY_CHG 0
M  POLY_PROPERTIES ALPHA_AA D_AA PROTEIN AROMATIC POLYMER 
M  END

$$$$



 35 35  0  0  0  0  0  0  0  0999 V2000
   -3.0523    2.3114    0.0155 H   0  0  0  1  0  0  0  0  0  0  0  0
   -1.5035    1.0536    0.6618 C   0  0  0  1  0  0  0  0  0  0  0  0
   -2.9447    0.7822   -1.3576 N   0  0  0  1  0  0  0  0  0  0  0  0
   -2.2851    1.7319   -0.4542 C   0  0  0  1  0  0  0  0  0  0  0  0
   -0.3830    1.4471    0.9822 O   0  0  0  1  0  0  0  0  0  0  0  0
   -2.1366    0.0774    1.3210 N   0  0  0  1  0  0  0  0  0  0  0  0
   -3.8917    0.8976   -1.5817 H   0  0  0  1  0  0  0  0  0  0  0  0
   -2.2500   -0.2495   -1.8803 C   0  0  0  1  0  0  0  0  0  0  0  0
   -1.5654   -0.6975    2.4124 C   0  0  0  1  0  0  0  0  0  0  0  0
   -3.0578   -1.2434   -2.6922 C   0  0  0  1  0  0  0  0  0  0  0  0
   -1.0386   -0.3915   -1.7193 O   0  0  0  1  0  0  0  0  0  0  0  0
   -3.0544   -0.1320    1.0485 H   0  0  0  1  0  0  0  0  0  0  0  0
   -0.7826   -0.1358    2.8777 H   0  0  0  1  0  0  0  0  0  0  0  0
   -1.1673   -1.6136    2.0288 H   0  0  0  1  0  0  0  0  0  0  0  0
   -2.3265   -0.9129    3.1330 H   0  0  0  1  0  0  0  0  0  0  0  0
   -3.5377   -1.9365   -2.0333 H   0  0  0  1  0  0  0  0  0  0  0  0
   -2.4071   -1.7741   -3.3555 H   0  0  0  1  0  0  0  0  0  0  0  0
   -3.7984   -0.7208   -3.2607 H   0  0  0  1  0  0  0  0  0  0  0  0
    1.8288   -1.1345   -5.1678 F   0  0  0  1  0  0  0  0  0  0  0  0
    1.9152    0.1932   -5.2663 C   0  0  0  1  0  0  0  0  0  0  0  0
    3.2132    0.4894   -5.1839 F   0  0  0  1  0  0  0  0  0  0  0  0
    1.5399    0.5007   -6.5085 F   0  0  0  1  0  0  0  0  0  0  0  0
    1.0884    0.9086   -4.2158 C   0  0  0  1  0  0  0  0  0  0  0  0
    1.4946    0.9727   -2.8920 C   0  0  0  1  0  0  0  0  0  0  0  0
    0.6705    1.5488   -1.9436 C   0  0  0  1  0  0  0  0  0  0  0  0
   -0.5596    2.0671   -2.3170 C   0  0  0  1  0  0  0  0  0  0  0  0
   -0.9645    2.0030   -3.6369 C   0  0  0  1  0  0  0  0  0  0  0  0
   -0.1382    1.4253   -4.5883 C   0  0  0  1  0  0  0  0  0  0  0  0
   -1.4581    2.7019   -1.2821 C   0  0  0  1  0  0  0  0  0  0  0  0
    2.4193    0.5875   -2.6124 H   0  0  0  1  0  0  0  0  0  0  0  0
    0.9735    1.5933   -0.9497 H   0  0  0  1  0  0  0  0  0  0  0  0
   -1.8891    2.3883   -3.9165 H   0  0  0  1  0  0  0  0  0  0  0  0
   -0.4411    1.3808   -5.5822 H   0  0  0  1  0  0  0  0  0  0  0  0
   -0.8431    3.2662   -0.6126 H   0  0  0  1  0  0  0  0  0  0  0  0
   -2.1318    3.3606   -1.7892 H   0  0  0  1  0  0  0  0  0  0  0  0
  1  4  1  0  0  0  0
  2  4  1  0  0  0  0
  2  5  2  0  0  0  0
  2  6  1  0  0  0  0
  3  4  1  0  0  0  0
  3  7  1  0  0  0  0
  3  8  1  0  0  0  0
  4 29  1  0  0  0  0
  6  9  1  0  0  0  0
  6 12  1  0  0  0  0
  8 10  1  0  0  0  0
  8 11  2  0  0  0  0
  9 13  1  0  0  0  0
  9 14  1  0  0  0  0
  9 15  1  0  0  0  0
 10 16  1  0  0  0  0
 10 17  1  0  0  0  0
 10 18  1  0  0  0  0
 19 20  1  0  0  0  0
 20 21  1  0  0  0  0
 20 22  1  0  0  0  0
 20 23  1  0  0  0  0
 23 24  4  0  0  0  0
 23 28  4  0  0  0  0
 24 25  4  0  0  0  0
 24 30  1  0  0  0  0
 25 26  4  0  0  0  0
 25 31  1  0  0  0  0
 26 27  4  0  0  0  0
 26 29  1  0  0  0  0
 27 28  4  0  0  0  0
 27 32  1  0  0  0  0
 28 33  1  0  0  0  0
 29 34  1  0  0  0  0
 29 35  1  0  0  0  0
M  END
> <BCLConfClusterSize>
1

> <ConfClashScore>
0 

> <ConfOneFourInteractionScore>
-0.966825 

> <ConfScore>
0.393404 

> <ConfScorePBest>
0.00444463 

> <ConfTolerance>
0.488731 

> <RosettaParamsInstructions>
M  ROOT 3
M  POLY_N_BB 3
M  POLY_CA_BB 4
M  POLY_C_BB 2
M  POLY_O_BB 5
M  POLY_IGNORE 9 10 11 12 13 14 15 16 17 18 
M  POLY_UPPER 6
M  POLY_LOWER 8
M  POLY_CHG 0
M  POLY_PROPERTIES ALPHA_AA D_AA PROTEIN AROMATIC POLYMER 
M  END

$$$$



 35 35  0  0  0  0  0  0  0  0999 V2000
   -2.0206    2.3652    0.7494 H   0  0  0  1  0  0  0  0  0  0  0  0
   -0.7449    0.7752    0.2369 C   0  0  0  1  0  0  0  0  0  0  0  0
   -3.0935    1.0823   -0.4492 N   0  0  0  1  0  0  0  0  0  0  0  0
   -1.8482    1.7564   -0.1134 C   0  0  0  1  0  0  0  0  0  0  0  0
    0.1899    1.1175    0.9445 O   0  0  0  1  0  0  0  0  0  0  0  0
   -0.9396   -0.4692   -0.2124 N   0  0  0  1  0  0  0  0  0  0  0  0
   -3.5210    1.2792   -1.3088 H   0  0  0  1  0  0  0  0  0  0  0  0
   -3.6742    0.2044    0.3737 C   0  0  0  1  0  0  0  0  0  0  0  0
    0.0177   -1.5541   -0.0556 C   0  0  0  1  0  0  0  0  0  0  0  0
   -4.9887   -0.3790   -0.1068 C   0  0  0  1  0  0  0  0  0  0  0  0
   -3.1893   -0.1214    1.4540 O   0  0  0  1  0  0  0  0  0  0  0  0
   -1.7805   -0.6629   -0.6769 H   0  0  0  1  0  0  0  0  0  0  0  0
    0.6325   -1.3670    0.7999 H   0  0  0  1  0  0  0  0  0  0  0  0
    0.6321   -1.6163   -0.9294 H   0  0  0  1  0  0  0  0  0  0  0  0
   -0.5078   -2.4765    0.0780 H   0  0  0  1  0  0  0  0  0  0  0  0
   -5.3098   -1.1421    0.5710 H   0  0  0  1  0  0  0  0  0  0  0  0
   -4.8565   -0.8005   -1.0814 H   0  0  0  1  0  0  0  0  0  0  0  0
   -5.7274    0.3940   -0.1492 H   0  0  0  1  0  0  0  0  0  0  0  0
    3.1755    0.6690   -5.2807 F   0  0  0  1  0  0  0  0  0  0  0  0
    1.9264    0.2008   -5.2602 C   0  0  0  1  0  0  0  0  0  0  0  0
    1.4633    0.3198   -6.5055 F   0  0  0  1  0  0  0  0  0  0  0  0
    2.0218   -1.1076   -5.0205 F   0  0  0  1  0  0  0  0  0  0  0  0
    1.0561    0.9143   -4.2469 C   0  0  0  1  0  0  0  0  0  0  0  0
    1.6128    1.3486   -3.0540 C   0  0  0  1  0  0  0  0  0  0  0  0
    0.8097    1.9169   -2.0833 C   0  0  0  1  0  0  0  0  0  0  0  0
   -0.5515    2.0574   -2.3046 C   0  0  0  1  0  0  0  0  0  0  0  0
   -1.1064    1.6243   -3.4940 C   0  0  0  1  0  0  0  0  0  0  0  0
   -0.3011    1.0543   -4.4677 C   0  0  0  1  0  0  0  0  0  0  0  0
   -1.4287    2.6837   -1.2465 C   0  0  0  1  0  0  0  0  0  0  0  0
    2.6346    1.2469   -2.8895 H   0  0  0  1  0  0  0  0  0  0  0  0
    1.2266    2.2392   -1.1867 H   0  0  0  1  0  0  0  0  0  0  0  0
   -2.1282    1.7261   -3.6585 H   0  0  0  1  0  0  0  0  0  0  0  0
   -0.7181    0.7321   -5.3643 H   0  0  0  1  0  0  0  0  0  0  0  0
   -0.8943    3.5063   -0.8191 H   0  0  0  1  0  0  0  0  0  0  0  0
   -2.3160    3.0437   -1.7240 H   0  0  0  1  0  0  0  0  0  0  0  0
  1  4  1  0  0  0  0
  2  4  1  0  0  0  0
  2  5  2  0  0  0  0
  2  6  1  0  0  0  0
  3  4  1  0  0  0  0
  3  7  1  0  0  0  0
  3  8  1  0  0  0  0
  4 29  1  0  0  0  0
  6  9  1  0  0  0  0
  6 12  1  0  0  0  0
  8 10  1  0  0  0  0
  8 11  2  0  0  0  0
  9 13  1  0  0  0  0
  9 14  1  0  0  0  0
  9 15  1  0  0  0  0
 10 16  1  0  0  0  0
 10 17  1  0  0  0  0
 10 18  1  0  0  0  0
 19 20  1  0  0  0  0
 20 21  1  0  0  0  0
 20 22  1  0  0  0  0
 20 23  1  0  0  0  0
 23 24  4  0  0  0  0
 23 28  4  0  0  0  0
 24 25  4  0  0  0  0
 24 30  1  0  0  0  0
 25 26  4  0  0  0  0
 25 31  1  0  0  0  0
 26 27  4  0  0  0  0
 26 29  1  0  0  0  0
 27 28  4  0  0  0  0
 27 32  1  0  0  0  0
 28 33  1  0  0  0  0
 29 34  1  0  0  0  0
 29 35  1  0  0  0  0
M  END
> <BCLConfClusterSize>
1

> <ConfClashScore>
0 

> <ConfOneFourInteractionScore>
-0.942345 

> <ConfScore>
0.395696 

> <ConfScorePBest>
0.00441614 

> <ConfTolerance>
0.682079 

> <RosettaParamsInstructions>
M  ROOT 3
M  POLY_N_BB 3
M  POLY_CA_BB 4
M  POLY_C_BB 2
M  POLY_O_BB 5
M  POLY_IGNORE 9 10 11 12 13 14 15 16 17 18 
M  POLY_UPPER 6
M  POLY_LOWER 8
M  POLY_CHG 0
M  POLY_PROPERTIES ALPHA_AA D_AA PROTEIN AROMATIC POLYMER 
M  END

$$$$



 35 35  0  0  0  0  0  0  0  0999 V2000
   -2.9784    1.9547   -0.0232 H   0  0  0  1  0  0  0  0  0  0  0  0
   -1.2105    1.7120    1.0898 C   0  0  0  1  0  0  0  0  0  0  0  0
   -2.0069    0.2996   -0.7647 N   0  0  0  1  0  0  0  0  0  0  0  0
   -1.9701    1.6674   -0.2373 C   0  0  0  1  0  0  0  0  0  0  0  0
   -1.6720    1.1554    2.0742 O   0  0  0  1  0  0  0  0  0  0  0  0
   -0.0078    2.3039    1.0778 N   0  0  0  1  0  0  0  0  0  0  0  0
   -2.6252    0.1369   -1.5074 H   0  0  0  1  0  0  0  0  0  0  0  0
   -1.2931   -0.7500   -0.3478 C   0  0  0  1  0  0  0  0  0  0  0  0
    0.8384    2.4950    2.2462 C   0  0  0  1  0  0  0  0  0  0  0  0
   -1.6562   -2.0834   -0.9720 C   0  0  0  1  0  0  0  0  0  0  0  0
   -0.3954   -0.6600    0.4879 O   0  0  0  1  0  0  0  0  0  0  0  0
    0.3269    2.6326    0.2173 H   0  0  0  1  0  0  0  0  0  0  0  0
    1.4227    1.6141    2.4121 H   0  0  0  1  0  0  0  0  0  0  0  0
    0.2258    2.6829    3.1031 H   0  0  0  1  0  0  0  0  0  0  0  0
    1.4890    3.3286    2.0826 H   0  0  0  1  0  0  0  0  0  0  0  0
   -2.6904   -2.2916   -0.7932 H   0  0  0  1  0  0  0  0  0  0  0  0
   -1.0568   -2.8556   -0.5369 H   0  0  0  1  0  0  0  0  0  0  0  0
   -1.4776   -2.0438   -2.0262 H   0  0  0  1  0  0  0  0  0  0  0  0
    3.2081    0.5633   -5.1787 F   0  0  0  1  0  0  0  0  0  0  0  0
    1.9267    0.2007   -5.2599 C   0  0  0  1  0  0  0  0  0  0  0  0
    1.5500    0.4416   -6.5166 F   0  0  0  1  0  0  0  0  0  0  0  0
    1.9034   -1.1243   -5.1103 F   0  0  0  1  0  0  0  0  0  0  0  0
    1.0566    0.9144   -4.2465 C   0  0  0  1  0  0  0  0  0  0  0  0
    1.6107    1.3379   -3.0485 C   0  0  0  1  0  0  0  0  0  0  0  0
    0.8070    1.9061   -2.0782 C   0  0  0  1  0  0  0  0  0  0  0  0
   -0.5521    2.0575   -2.3051 C   0  0  0  1  0  0  0  0  0  0  0  0
   -1.1043    1.6352   -3.4996 C   0  0  0  1  0  0  0  0  0  0  0  0
   -0.2985    1.0653   -4.4729 C   0  0  0  1  0  0  0  0  0  0  0  0
   -1.4299    2.6838   -1.2474 C   0  0  0  1  0  0  0  0  0  0  0  0
    2.6311    1.2280   -2.8798 H   0  0  0  1  0  0  0  0  0  0  0  0
    1.2220    2.2202   -1.1778 H   0  0  0  1  0  0  0  0  0  0  0  0
   -2.1247    1.7451   -3.6683 H   0  0  0  1  0  0  0  0  0  0  0  0
   -0.7135    0.7512   -5.3733 H   0  0  0  1  0  0  0  0  0  0  0  0
   -0.8567    3.4170   -0.7195 H   0  0  0  1  0  0  0  0  0  0  0  0
   -2.2588    3.1580   -1.7299 H   0  0  0  1  0  0  0  0  0  0  0  0
  1  4  1  0  0  0  0
  2  4  1  0  0  0  0
  2  5  2  0  0  0  0
  2  6  1  0  0  0  0
  3  4  1  0  0  0  0
  3  7  1  0  0  0  0
  3  8  1  0  0  0  0
  4 29  1  0  0  0  0
  6  9  1  0  0  0  0
  6 12  1  0  0  0  0
  8 10  1  0  0  0  0
  8 11  2  0  0  0  0
  9 13  1  0  0  0  0
  9 14  1  0  0  0  0
  9 15  1  0  0  0  0
 10 16  1  0  0  0  0
 10 17  1  0  0  0  0
 10 18  1  0  0  0  0
 19 20  1  0  0  0  0
 20 21  1  0  0  0  0
 20 22  1  0  0  0  0
 20 23  1  0  0  0  0
 23 24  4  0  0  0  0
 23 28  4  0  0  0  0
 24 25  4  0  0  0  0
 24 30  1  0  0  0  0
 25 26  4  0  0  0  0
 25 31  1  0  0  0  0
 26 27  4  0  0  0  0
 26 29  1  0  0  0  0
 27 28  4  0  0  0  0
 27 32  1  0  0  0  0
 28 33  1  0  0  0  0
 29 34  1  0  0  0  0
 29 35  1  0  0  0  0
M  END
> <BCLConfClusterSize>
1

> <ConfClashScore>
0 

> <ConfOneFourInteractionScore>
-0.90437 

> <ConfScore>
0.39744 

> <ConfScorePBest>
0.00438766 

> <ConfTolerance>
0.347983 

> <RosettaParamsInstructions>
M  ROOT 3
M  POLY_N_BB 3
M  POLY_CA_BB 4
M  POLY_C_BB 2
M  POLY_O_BB 5
M  POLY_IGNORE 9 10 11 12 13 14 15 16 17 18 
M  POLY_UPPER 6
M  POLY_LOWER 8
M  POLY_CHG 0
M  POLY_PROPERTIES ALPHA_AA D_AA PROTEIN AROMATIC POLYMER 
M  END

$$$$



 35 35  0  0  0  0  0  0  0  0999 V2000
   -2.6767    1.0069   -0.7488 H   0  0  0  1  0  0  0  0  0  0  0  0
   -2.8485    2.4714    0.7881 C   0  0  0  1  0  0  0  0  0  0  0  0
   -0.9560    0.9646    0.4195 N   0  0  0  1  0  0  0  0  0  0  0  0
   -2.0323    1.6911   -0.2375 C   0  0  0  1  0  0  0  0  0  0  0  0
   -2.9142    2.1036    1.9600 O   0  0  0  1  0  0  0  0  0  0  0  0
   -3.4063    3.6129    0.3603 N   0  0  0  1  0  0  0  0  0  0  0  0
   -0.5301    1.3612    1.2080 H   0  0  0  1  0  0  0  0  0  0  0  0
   -0.5284   -0.2243   -0.0150 C   0  0  0  1  0  0  0  0  0  0  0  0
   -4.2647    4.4597    1.1764 C   0  0  0  1  0  0  0  0  0  0  0  0
    0.5408   -0.9260    0.8320 C   0  0  0  1  0  0  0  0  0  0  0  0
   -1.0033   -0.7927   -0.9946 O   0  0  0  1  0  0  0  0  0  0  0  0
   -3.2248    3.8953   -0.5604 H   0  0  0  1  0  0  0  0  0  0  0  0
   -5.1830    3.9487    1.3780 H   0  0  0  1  0  0  0  0  0  0  0  0
   -4.4708    5.3692    0.6517 H   0  0  0  1  0  0  0  0  0  0  0  0
   -3.7713    4.6835    2.0990 H   0  0  0  1  0  0  0  0  0  0  0  0
    0.3017   -0.8188    1.8695 H   0  0  0  1  0  0  0  0  0  0  0  0
    1.4957   -0.4835    0.6388 H   0  0  0  1  0  0  0  0  0  0  0  0
    0.5708   -1.9651    0.5787 H   0  0  0  1  0  0  0  0  0  0  0  0
    3.2000    0.4812   -5.1757 F   0  0  0  1  0  0  0  0  0  0  0  0
    1.9138    0.2160   -5.2808 C   0  0  0  1  0  0  0  0  0  0  0  0
    1.5474    0.4679   -6.5103 F   0  0  0  1  0  0  0  0  0  0  0  0
    1.8518   -1.1109   -5.1619 F   0  0  0  1  0  0  0  0  0  0  0  0
    1.0757    0.9279   -4.2370 C   0  0  0  1  0  0  0  0  0  0  0  0
    1.6178    1.3439   -3.0309 C   0  0  0  1  0  0  0  0  0  0  0  0
    0.8038    1.9029   -2.0638 C   0  0  0  1  0  0  0  0  0  0  0  0
   -0.5535    2.0525   -2.3019 C   0  0  0  1  0  0  0  0  0  0  0  0
   -1.0938    1.6376   -3.5044 C   0  0  0  1  0  0  0  0  0  0  0  0
   -0.2777    1.0769   -4.4745 C   0  0  0  1  0  0  0  0  0  0  0  0
   -1.4425    2.6687   -1.2477 C   0  0  0  1  0  0  0  0  0  0  0  0
    2.6368    1.2354   -2.8538 H   0  0  0  1  0  0  0  0  0  0  0  0
    1.2098    2.2114   -1.1574 H   0  0  0  1  0  0  0  0  0  0  0  0
   -2.1129    1.7462   -3.6815 H   0  0  0  1  0  0  0  0  0  0  0  0
   -0.6837    0.7685   -5.3810 H   0  0  0  1  0  0  0  0  0  0  0  0
   -0.8647    3.3908   -0.7096 H   0  0  0  1  0  0  0  0  0  0  0  0
   -2.2533    3.1587   -1.7449 H   0  0  0  1  0  0  0  0  0  0  0  0
  1  4  1  0  0  0  0
  2  4  1  0  0  0  0
  2  5  2  0  0  0  0
  2  6  1  0  0  0  0
  3  4  1  0  0  0  0
  3  7  1  0  0  0  0
  3  8  1  0  0  0  0
  4 29  1  0  0  0  0
  6  9  1  0  0  0  0
  6 12  1  0  0  0  0
  8 10  1  0  0  0  0
  8 11  2  0  0  0  0
  9 13  1  0  0  0  0
  9 14  1  0  0  0  0
  9 15  1  0  0  0  0
 10 16  1  0  0  0  0
 10 17  1  0  0  0  0
 10 18  1  0  0  0  0
 19 20  1  0  0  0  0
 20 21  1  0  0  0  0
 20 22  1  0  0  0  0
 20 23  1  0  0  0  0
 23 24  4  0  0  0  0
 23 28  4  0  0  0  0
 24 25  4  0  0  0  0
 24 30  1  0  0  0  0
 25 26  4  0  0  0  0
 25 31  1  0  0  0  0
 26 27  4  0  0  0  0
 26 29  1  0  0  0  0
 27 28  4  0  0  0  0
 27 32  1  0  0  0  0
 28 33  1  0  0  0  0
 29 34  1  0  0  0  0
 29 35  1  0  0  0  0
M  END
> <BCLConfClusterSize>
1

> <ConfClashScore>
5.31313e-06 

> <ConfOneFourInteractionScore>
-0.937179 

> <ConfScore>
0.401716 

> <ConfScorePBest>
0.00435918 

> <ConfTolerance>
0.568136 

> <RosettaParamsInstructions>
M  ROOT 3
M  POLY_N_BB 3
M  POLY_CA_BB 4
M  POLY_C_BB 2
M  POLY_O_BB 5
M  POLY_IGNORE 9 10 11 12 13 14 15 16 17 18 
M  POLY_UPPER 6
M  POLY_LOWER 8
M  POLY_CHG 0
M  POLY_PROPERTIES ALPHA_AA D_AA PROTEIN AROMATIC POLYMER 
M  END

$$$$



 35 35  0  0  0  0  0  0  0  0999 V2000
   -0.9427    1.3268    0.3962 H   0  0  0  1  0  0  0  0  0  0  0  0
   -2.3021    0.2903   -0.8398 C   0  0  0  1  0  0  0  0  0  0  0  0
   -2.7959    2.1886    0.6922 N   0  0  0  1  0  0  0  0  0  0  0  0
   -1.8117    1.5661   -0.1805 C   0  0  0  1  0  0  0  0  0  0  0  0
   -1.5188   -0.5757   -1.1977 O   0  0  0  1  0  0  0  0  0  0  0  0
   -3.6280    0.1366   -0.9213 N   0  0  0  1  0  0  0  0  0  0  0  0
   -3.7225    1.8764    0.6255 H   0  0  0  1  0  0  0  0  0  0  0  0
   -2.5315    3.1537    1.5775 C   0  0  0  1  0  0  0  0  0  0  0  0
   -4.2407   -1.1078   -1.3618 C   0  0  0  1  0  0  0  0  0  0  0  0
   -3.6731    3.5307    2.5015 C   0  0  0  1  0  0  0  0  0  0  0  0
   -1.4381    3.7121    1.6530 O   0  0  0  1  0  0  0  0  0  0  0  0
   -4.2073    0.8880   -0.6760 H   0  0  0  1  0  0  0  0  0  0  0  0
   -3.6395   -1.5501   -2.1286 H   0  0  0  1  0  0  0  0  0  0  0  0
   -5.2185   -0.9069   -1.7469 H   0  0  0  1  0  0  0  0  0  0  0  0
   -4.3144   -1.7815   -0.5337 H   0  0  0  1  0  0  0  0  0  0  0  0
   -3.2858    3.7617    3.4719 H   0  0  0  1  0  0  0  0  0  0  0  0
   -4.3566    2.7109    2.5764 H   0  0  0  1  0  0  0  0  0  0  0  0
   -4.1824    4.3856    2.1083 H   0  0  0  1  0  0  0  0  0  0  0  0
    3.1901    0.6202   -5.2366 F   0  0  0  1  0  0  0  0  0  0  0  0
    1.9258    0.1945   -5.2560 C   0  0  0  1  0  0  0  0  0  0  0  0
    1.4977    0.3549   -6.5091 F   0  0  0  1  0  0  0  0  0  0  0  0
    1.9715   -1.1211   -5.0422 F   0  0  0  1  0  0  0  0  0  0  0  0
    1.0553    0.9161   -4.2486 C   0  0  0  1  0  0  0  0  0  0  0  0
    1.6095    1.3511   -3.0548 C   0  0  0  1  0  0  0  0  0  0  0  0
    0.8055    1.9270   -2.0892 C   0  0  0  1  0  0  0  0  0  0  0  0
   -0.5539    2.0744   -2.3167 C   0  0  0  1  0  0  0  0  0  0  0  0
   -1.1063    1.6406   -3.5070 C   0  0  0  1  0  0  0  0  0  0  0  0
   -0.3001    1.0630   -4.4756 C   0  0  0  1  0  0  0  0  0  0  0  0
   -1.4108    2.6236   -1.2006 C   0  0  0  1  0  0  0  0  0  0  0  0
    2.6300    1.2442   -2.8857 H   0  0  0  1  0  0  0  0  0  0  0  0
    1.2205    2.2498   -1.1919 H   0  0  0  1  0  0  0  0  0  0  0  0
   -2.1268    1.7475   -3.6761 H   0  0  0  1  0  0  0  0  0  0  0  0
   -0.7152    0.7402   -5.3729 H   0  0  0  1  0  0  0  0  0  0  0  0
   -0.8625    3.3921   -0.6970 H   0  0  0  1  0  0  0  0  0  0  0  0
   -2.2996    3.0399   -1.6269 H   0  0  0  1  0  0  0  0  0  0  0  0
  1  4  1  0  0  0  0
  2  4  1  0  0  0  0
  2  5  2  0  0  0  0
  2  6  1  0  0  0  0
  3  4  1  0  0  0  0
  3  7  1  0  0  0  0
  3  8  1  0  0  0  0
  4 29  1  0  0  0  0
  6  9  1  0  0  0  0
  6 12  1  0  0  0  0
  8 10  1  0  0  0  0
  8 11  2  0  0  0  0
  9 13  1  0  0  0  0
  9 14  1  0  0  0  0
  9 15  1  0  0  0  0
 10 16  1  0  0  0  0
 10 17  1  0  0  0  0
 10 18  1  0  0  0  0
 19 20  1  0  0  0  0
 20 21  1  0  0  0  0
 20 22  1  0  0  0  0
 20 23  1  0  0  0  0
 23 24  4  0  0  0  0
 23 28  4  0  0  0  0
 24 25  4  0  0  0  0
 24 30  1  0  0  0  0
 25 26  4  0  0  0  0
 25 31  1  0  0  0  0
 26 27  4  0  0  0  0
 26 29  1  0  0  0  0
 27 28  4  0  0  0  0
 27 32  1  0  0  0  0
 28 33  1  0  0  0  0
 29 34  1  0  0  0  0
 29 35  1  0  0  0  0
M  END
> <BCLConfClusterSize>
1

> <ConfClashScore>
0 

> <ConfOneFourInteractionScore>
-0.961138 

> <ConfScore>
0.406275 

> <ConfScorePBest>
0.0043307 

> <ConfTolerance>
0.439183 

> <RosettaParamsInstructions>
M  ROOT 3
M  POLY_N_BB 3
M  POLY_CA_BB 4
M  POLY_C_BB 2
M  POLY_O_BB 5
M  POLY_IGNORE 9 10 11 12 13 14 15 16 17 18 
M  POLY_UPPER 6
M  POLY_LOWER 8
M  POLY_CHG 0
M  POLY_PROPERTIES ALPHA_AA D_AA PROTEIN AROMATIC POLYMER 
M  END

$$$$



 35 35  0  0  0  0  0  0  0  0999 V2000
   -1.2079    1.4029    0.4660 H   0  0  0  1  0  0  0  0  0  0  0  0
   -2.4094    0.3575   -1.0005 C   0  0  0  1  0  0  0  0  0  0  0  0
   -3.1220    2.2290    0.4695 N   0  0  0  1  0  0  0  0  0  0  0  0
   -1.9806    1.6553   -0.2298 C   0  0  0  1  0  0  0  0  0  0  0  0
   -1.6251   -0.5774   -1.1551 O   0  0  0  1  0  0  0  0  0  0  0  0
   -3.6861    0.2954   -1.3934 N   0  0  0  1  0  0  0  0  0  0  0  0
   -3.2877    3.1919    0.3939 H   0  0  0  1  0  0  0  0  0  0  0  0
   -3.9510    1.4883    1.2106 C   0  0  0  1  0  0  0  0  0  0  0  0
   -4.1574   -0.9405   -2.0003 C   0  0  0  1  0  0  0  0  0  0  0  0
   -5.1123    2.2230    1.8921 C   0  0  0  1  0  0  0  0  0  0  0  0
   -3.8644    0.2663    1.2981 O   0  0  0  1  0  0  0  0  0  0  0  0
   -4.2873    1.0603   -1.2759 H   0  0  0  1  0  0  0  0  0  0  0  0
   -3.7060   -1.7757   -1.5067 H   0  0  0  1  0  0  0  0  0  0  0  0
   -3.8914   -0.9527   -3.0367 H   0  0  0  1  0  0  0  0  0  0  0  0
   -5.2213   -1.0019   -1.9039 H   0  0  0  1  0  0  0  0  0  0  0  0
   -5.8398    2.4998    1.1579 H   0  0  0  1  0  0  0  0  0  0  0  0
   -4.7424    3.1024    2.3766 H   0  0  0  1  0  0  0  0  0  0  0  0
   -5.5648    1.5792    2.6172 H   0  0  0  1  0  0  0  0  0  0  0  0
    3.1641    0.6962   -5.3096 F   0  0  0  1  0  0  0  0  0  0  0  0
    1.9263    0.2009   -5.2603 C   0  0  0  1  0  0  0  0  0  0  0  0
    1.4414    0.2853   -6.5001 F   0  0  0  1  0  0  0  0  0  0  0  0
    2.0549   -1.1003   -4.9973 F   0  0  0  1  0  0  0  0  0  0  0  0
    1.0559    0.9143   -4.2470 C   0  0  0  1  0  0  0  0  0  0  0  0
    1.6132    1.3511   -3.0553 C   0  0  0  1  0  0  0  0  0  0  0  0
    0.8103    1.9194   -2.0845 C   0  0  0  1  0  0  0  0  0  0  0  0
   -0.5514    2.0574   -2.3045 C   0  0  0  1  0  0  0  0  0  0  0  0
   -1.1068    1.6218   -3.4927 C   0  0  0  1  0  0  0  0  0  0  0  0
   -0.3017    1.0519   -4.4665 C   0  0  0  1  0  0  0  0  0  0  0  0
   -1.4284    2.6837   -1.2462 C   0  0  0  1  0  0  0  0  0  0  0  0
    2.6354    1.2512   -2.8918 H   0  0  0  1  0  0  0  0  0  0  0  0
    1.2277    2.2435   -1.1887 H   0  0  0  1  0  0  0  0  0  0  0  0
   -2.1290    1.7217   -3.6562 H   0  0  0  1  0  0  0  0  0  0  0  0
   -0.7192    0.7278   -5.3623 H   0  0  0  1  0  0  0  0  0  0  0  0
   -0.8531    3.4127   -0.7147 H   0  0  0  1  0  0  0  0  0  0  0  0
   -2.2545    3.1632   -1.7285 H   0  0  0  1  0  0  0  0  0  0  0  0
  1  4  1  0  0  0  0
  2  4  1  0  0  0  0
  2  5  2  0  0  0  0
  2  6  1  0  0  0  0
  3  4  1  0  0  0  0
  3  7  1  0  0  0  0
  3  8  1  0  0  0  0
  4 29  1  0  0  0  0
  6  9  1  0  0  0  0
  6 12  1  0  0  0  0
  8 10  1  0  0  0  0
  8 11  2  0  0  0  0
  9 13  1  0  0  0  0
  9 14  1  0  0  0  0
  9 15  1  0  0  0  0
 10 16  1  0  0  0  0
 10 17  1  0  0  0  0
 10 18  1  0  0  0  0
 19 20  1  0  0  0  0
 20 21  1  0  0  0  0
 20 22  1  0  0  0  0
 20 23  1  0  0  0  0
 23 24  4  0  0  0  0
 23 28  4  0  0  0  0
 24 25  4  0  0  0  0
 24 30  1  0  0  0  0
 25 26  4  0  0  0  0
 25 31  1  0  0  0  0
 26 27  4  0  0  0  0
 26 29  1  0  0  0  0
 27 28  4  0  0  0  0
 27 32  1  0  0  0  0
 28 33  1  0  0  0  0
 29 34  1  0  0  0  0
 29 35  1  0  0  0  0
M  END
> <BCLConfClusterSize>
1

> <ConfClashScore>
0 

> <ConfOneFourInteractionScore>
-0.942345 

> <ConfScore>
0.406975 

> <ConfScorePBest>
0.00430222 

> <ConfTolerance>
0.470667 

> <RosettaParamsInstructions>
M  ROOT 3
M  POLY_N_BB 3
M  POLY_CA_BB 4
M  POLY_C_BB 2
M  POLY_O_BB 5
M  POLY_IGNORE 9 10 11 12 13 14 15 16 17 18 
M  POLY_UPPER 6
M  POLY_LOWER 8
M  POLY_CHG 0
M  POLY_PROPERTIES ALPHA_AA D_AA PROTEIN AROMATIC POLYMER 
M  END

$$$$



 35 35  0  0  0  0  0  0  0  0999 V2000
   -1.1870    0.8945   -0.1926 H   0  0  0  1  0  0  0  0  0  0  0  0
   -3.2401    1.0069   -0.5271 C   0  0  0  1  0  0  0  0  0  0  0  0
   -1.9509    2.2404    1.1562 N   0  0  0  1  0  0  0  0  0  0  0  0
   -1.9175    1.6763   -0.2060 C   0  0  0  1  0  0  0  0  0  0  0  0
   -3.8258    0.3233    0.3111 O   0  0  0  1  0  0  0  0  0  0  0  0
   -3.7658    1.2758   -1.7302 N   0  0  0  1  0  0  0  0  0  0  0  0
   -1.2022    2.0839    1.7688 H   0  0  0  1  0  0  0  0  0  0  0  0
   -3.0087    2.9705    1.5602 C   0  0  0  1  0  0  0  0  0  0  0  0
   -5.0989    0.8617   -2.1745 C   0  0  0  1  0  0  0  0  0  0  0  0
   -2.9475    3.3759    3.0201 C   0  0  0  1  0  0  0  0  0  0  0  0
   -3.9516    3.2953    0.8398 O   0  0  0  1  0  0  0  0  0  0  0  0
   -3.2171    1.7881   -2.3602 H   0  0  0  1  0  0  0  0  0  0  0  0
   -5.8281    1.1769   -1.4577 H   0  0  0  1  0  0  0  0  0  0  0  0
   -5.1284   -0.2037   -2.2681 H   0  0  0  1  0  0  0  0  0  0  0  0
   -5.3138    1.3096   -3.1221 H   0  0  0  1  0  0  0  0  0  0  0  0
   -3.8927    3.1848    3.4837 H   0  0  0  1  0  0  0  0  0  0  0  0
   -2.7200    4.4190    3.0911 H   0  0  0  1  0  0  0  0  0  0  0  0
   -2.1866    2.8098    3.5155 H   0  0  0  1  0  0  0  0  0  0  0  0
    3.1701    0.6494   -5.3141 F   0  0  0  1  0  0  0  0  0  0  0  0
    1.9141    0.2014   -5.2724 C   0  0  0  1  0  0  0  0  0  0  0  0
    1.4275    0.3408   -6.5066 F   0  0  0  1  0  0  0  0  0  0  0  0
    1.9929   -1.1108   -5.0479 F   0  0  0  1  0  0  0  0  0  0  0  0
    1.0757    0.9193   -4.2329 C   0  0  0  1  0  0  0  0  0  0  0  0
    1.6211    1.3560   -3.0357 C   0  0  0  1  0  0  0  0  0  0  0  0
    0.8078    1.9201   -2.0710 C   0  0  0  1  0  0  0  0  0  0  0  0
   -0.5522    2.0542   -2.3028 C   0  0  0  1  0  0  0  0  0  0  0  0
   -1.0959    1.6188   -3.4965 C   0  0  0  1  0  0  0  0  0  0  0  0
   -0.2804    1.0529   -4.4642 C   0  0  0  1  0  0  0  0  0  0  0  0
   -1.4406    2.6760   -1.2513 C   0  0  0  1  0  0  0  0  0  0  0  0
    2.6422    1.2591   -2.8634 H   0  0  0  1  0  0  0  0  0  0  0  0
    1.2163    2.2441   -1.1712 H   0  0  0  1  0  0  0  0  0  0  0  0
   -2.1169    1.7157   -3.6688 H   0  0  0  1  0  0  0  0  0  0  0  0
   -0.6890    0.7289   -5.3640 H   0  0  0  1  0  0  0  0  0  0  0  0
   -0.8922    3.4504   -0.7567 H   0  0  0  1  0  0  0  0  0  0  0  0
   -2.2968    3.0977   -1.7349 H   0  0  0  1  0  0  0  0  0  0  0  0
  1  4  1  0  0  0  0
  2  4  1  0  0  0  0
  2  5  2  0  0  0  0
  2  6  1  0  0  0  0
  3  4  1  0  0  0  0
  3  7  1  0  0  0  0
  3  8  1  0  0  0  0
  4 29  1  0  0  0  0
  6  9  1  0  0  0  0
  6 12  1  0  0  0  0
  8 10  1  0  0  0  0
  8 11  2  0  0  0  0
  9 13  1  0  0  0  0
  9 14  1  0  0  0  0
  9 15  1  0  0  0  0
 10 16  1  0  0  0  0
 10 17  1  0  0  0  0
 10 18  1  0  0  0  0
 19 20  1  0  0  0  0
 20 21  1  0  0  0  0
 20 22  1  0  0  0  0
 20 23  1  0  0  0  0
 23 24  4  0  0  0  0
 23 28  4  0  0  0  0
 24 25  4  0  0  0  0
 24 30  1  0  0  0  0
 25 26  4  0  0  0  0
 25 31  1  0  0  0  0
 26 27  4  0  0  0  0
 26 29  1  0  0  0  0
 27 28  4  0  0  0  0
 27 32  1  0  0  0  0
 28 33  1  0  0  0  0
 29 34  1  0  0  0  0
 29 35  1  0  0  0  0
M  END
> <BCLConfClusterSize>
1

> <ConfClashScore>
0 

> <ConfOneFourInteractionScore>
-0.919941 

> <ConfScore>
0.408991 

> <ConfScorePBest>
0.00427374 

> <ConfTolerance>
0.421401 

> <RosettaParamsInstructions>
M  ROOT 3
M  POLY_N_BB 3
M  POLY_CA_BB 4
M  POLY_C_BB 2
M  POLY_O_BB 5
M  POLY_IGNORE 9 10 11 12 13 14 15 16 17 18 
M  POLY_UPPER 6
M  POLY_LOWER 8
M  POLY_CHG 0
M  POLY_PROPERTIES ALPHA_AA D_AA PROTEIN AROMATIC POLYMER 
M  END

$$$$



 35 35  0  0  0  0  0  0  0  0999 V2000
   -1.5763    4.4995   -0.1552 H   0  0  0  1  0  0  0  0  0  0  0  0
   -1.9181    4.9621   -2.1770 C   0  0  0  1  0  0  0  0  0  0  0  0
    0.2680    4.5187   -1.0967 N   0  0  0  1  0  0  0  0  0  0  0  0
   -1.1680    4.2024   -1.0986 C   0  0  0  1  0  0  0  0  0  0  0  0
   -1.3117    5.5891   -3.0319 O   0  0  0  1  0  0  0  0  0  0  0  0
   -3.2461    4.8066   -2.1499 N   0  0  0  1  0  0  0  0  0  0  0  0
    0.7065    4.7212   -0.2440 H   0  0  0  1  0  0  0  0  0  0  0  0
    1.0119    4.5401   -2.2420 C   0  0  0  1  0  0  0  0  0  0  0  0
   -4.1838    5.4974   -3.0225 C   0  0  0  1  0  0  0  0  0  0  0  0
    2.4388    5.0305   -2.0916 C   0  0  0  1  0  0  0  0  0  0  0  0
    0.5445    4.1678   -3.3969 O   0  0  0  1  0  0  0  0  0  0  0  0
   -3.6156    4.1803   -1.4929 H   0  0  0  1  0  0  0  0  0  0  0  0
   -5.1821    5.1941   -2.7855 H   0  0  0  1  0  0  0  0  0  0  0  0
   -3.9692    5.2521   -4.0417 H   0  0  0  1  0  0  0  0  0  0  0  0
   -4.0894    6.5539   -2.8820 H   0  0  0  1  0  0  0  0  0  0  0  0
    2.4664    6.0929   -2.2162 H   0  0  0  1  0  0  0  0  0  0  0  0
    3.0546    4.5684   -2.8347 H   0  0  0  1  0  0  0  0  0  0  0  0
    2.8023    4.7762   -1.1179 H   0  0  0  1  0  0  0  0  0  0  0  0
    1.1853   -0.2353   -6.2943 F   0  0  0  1  0  0  0  0  0  0  0  0
    1.9159    0.1934   -5.2636 C   0  0  0  1  0  0  0  0  0  0  0  0
    2.5347   -0.8815   -4.7726 F   0  0  0  1  0  0  0  0  0  0  0  0
    2.8693    0.9704   -5.7793 F   0  0  0  1  0  0  0  0  0  0  0  0
    1.0829    0.9114   -4.2199 C   0  0  0  1  0  0  0  0  0  0  0  0
    1.5102    1.0311   -2.9066 C   0  0  0  1  0  0  0  0  0  0  0  0
    0.6830    1.6068   -1.9607 C   0  0  0  1  0  0  0  0  0  0  0  0
   -0.5715    2.0694   -2.3263 C   0  0  0  1  0  0  0  0  0  0  0  0
   -0.9973    1.9499   -3.6357 C   0  0  0  1  0  0  0  0  0  0  0  0
   -0.1680    1.3725   -4.5846 C   0  0  0  1  0  0  0  0  0  0  0  0
   -1.3795    2.6775   -1.2316 C   0  0  0  1  0  0  0  0  0  0  0  0
    2.4530    0.6877   -2.6331 H   0  0  0  1  0  0  0  0  0  0  0  0
    1.0019    1.6930   -0.9746 H   0  0  0  1  0  0  0  0  0  0  0  0
   -1.9402    2.2933   -3.9092 H   0  0  0  1  0  0  0  0  0  0  0  0
   -0.4869    1.2863   -5.5707 H   0  0  0  1  0  0  0  0  0  0  0  0
   -2.4148    2.4932   -1.4297 H   0  0  0  1  0  0  0  0  0  0  0  0
   -1.1047    2.2136   -0.3074 H   0  0  0  1  0  0  0  0  0  0  0  0
  1  4  1  0  0  0  0
  2  4  1  0  0  0  0
  2  5  2  0  0  0  0
  2  6  1  0  0  0  0
  3  4  1  0  0  0  0
  3  7  1  0  0  0  0
  3  8  1  0  0  0  0
  4 29  1  0  0  0  0
  6  9  1  0  0  0  0
  6 12  1  0  0  0  0
  8 10  1  0  0  0  0
  8 11  2  0  0  0  0
  9 13  1  0  0  0  0
  9 14  1  0  0  0  0
  9 15  1  0  0  0  0
 10 16  1  0  0  0  0
 10 17  1  0  0  0  0
 10 18  1  0  0  0  0
 19 20  1  0  0  0  0
 20 21  1  0  0  0  0
 20 22  1  0  0  0  0
 20 23  1  0  0  0  0
 23 24  4  0  0  0  0
 23 28  4  0  0  0  0
 24 25  4  0  0  0  0
 24 30  1  0  0  0  0
 25 26  4  0  0  0  0
 25 31  1  0  0  0  0
 26 27  4  0  0  0  0
 26 29  1  0  0  0  0
 27 28  4  0  0  0  0
 27 32  1  0  0  0  0
 28 33  1  0  0  0  0
 29 34  1  0  0  0  0
 29 35  1  0  0  0  0
M  END
> <BCLConfClusterSize>
1

> <ConfClashScore>
0 

> <ConfOneFourInteractionScore>
-0.953061 

> <ConfScore>
0.409254 

> <ConfScorePBest>
0.00424526 

> <ConfTolerance>
0.652093 

> <RosettaParamsInstructions>
M  ROOT 3
M  POLY_N_BB 3
M  POLY_CA_BB 4
M  POLY_C_BB 2
M  POLY_O_BB 5
M  POLY_IGNORE 9 10 11 12 13 14 15 16 17 18 
M  POLY_UPPER 6
M  POLY_LOWER 8
M  POLY_CHG 0
M  POLY_PROPERTIES ALPHA_AA D_AA PROTEIN AROMATIC POLYMER 
M  END

$$$$



 35 35  0  0  0  0  0  0  0  0999 V2000
   -0.3693    4.5121   -1.2519 H   0  0  0  1  0  0  0  0  0  0  0  0
   -2.0720    4.8890   -0.0957 C   0  0  0  1  0  0  0  0  0  0  0  0
   -1.9593    4.7178   -2.5494 N   0  0  0  1  0  0  0  0  0  0  0  0
   -1.3984    4.2204   -1.2788 C   0  0  0  1  0  0  0  0  0  0  0  0
   -2.2912    4.2730    0.9358 O   0  0  0  1  0  0  0  0  0  0  0  0
   -2.3254    6.1993   -0.2183 N   0  0  0  1  0  0  0  0  0  0  0  0
   -1.3905    5.2554   -3.1392 H   0  0  0  1  0  0  0  0  0  0  0  0
   -3.2250    4.4589   -2.9267 C   0  0  0  1  0  0  0  0  0  0  0  0
   -2.8810    6.9889    0.8705 C   0  0  0  1  0  0  0  0  0  0  0  0
   -3.5936    4.8873   -4.3338 C   0  0  0  1  0  0  0  0  0  0  0  0
   -4.0446    3.9107   -2.1909 O   0  0  0  1  0  0  0  0  0  0  0  0
   -2.1297    6.6411   -1.0709 H   0  0  0  1  0  0  0  0  0  0  0  0
   -3.3853    7.8437    0.4707 H   0  0  0  1  0  0  0  0  0  0  0  0
   -2.0912    7.3108    1.5165 H   0  0  0  1  0  0  0  0  0  0  0  0
   -3.5753    6.3926    1.4250 H   0  0  0  1  0  0  0  0  0  0  0  0
   -3.9882    4.0498   -4.8703 H   0  0  0  1  0  0  0  0  0  0  0  0
   -2.7218    5.2528   -4.8350 H   0  0  0  1  0  0  0  0  0  0  0  0
   -4.3309    5.6614   -4.2891 H   0  0  0  1  0  0  0  0  0  0  0  0
    1.1951   -0.2270   -6.3113 F   0  0  0  1  0  0  0  0  0  0  0  0
    1.9099    0.1877   -5.2639 C   0  0  0  1  0  0  0  0  0  0  0  0
    2.5478   -0.8824   -4.7873 F   0  0  0  1  0  0  0  0  0  0  0  0
    2.8661    0.9639   -5.7757 F   0  0  0  1  0  0  0  0  0  0  0  0
    1.0815    0.9078   -4.2180 C   0  0  0  1  0  0  0  0  0  0  0  0
    1.5135    1.0281   -2.9063 C   0  0  0  1  0  0  0  0  0  0  0  0
    0.6905    1.6059   -1.9581 C   0  0  0  1  0  0  0  0  0  0  0  0
   -0.5647    2.0698   -2.3197 C   0  0  0  1  0  0  0  0  0  0  0  0
   -0.9952    1.9498   -3.6275 C   0  0  0  1  0  0  0  0  0  0  0  0
   -0.1700    1.3704   -4.5787 C   0  0  0  1  0  0  0  0  0  0  0  0
   -1.4209    2.6978   -1.2455 C   0  0  0  1  0  0  0  0  0  0  0  0
    2.4568    0.6837   -2.6358 H   0  0  0  1  0  0  0  0  0  0  0  0
    1.0129    1.6925   -0.9732 H   0  0  0  1  0  0  0  0  0  0  0  0
   -1.9385    2.2942   -3.8981 H   0  0  0  1  0  0  0  0  0  0  0  0
   -0.4924    1.2837   -5.5637 H   0  0  0  1  0  0  0  0  0  0  0  0
   -2.4303    2.3691   -1.3790 H   0  0  0  1  0  0  0  0  0  0  0  0
   -1.0626    2.3727   -0.2911 H   0  0  0  1  0  0  0  0  0  0  0  0
  1  4  1  0  0  0  0
  2  4  1  0  0  0  0
  2  5  2  0  0  0  0
  2  6  1  0  0  0  0
  3  4  1  0  0  0  0
  3  7  1  0  0  0  0
  3  8  1  0  0  0  0
  4 29  1  0  0  0  0
  6  9  1  0  0  0  0
  6 12  1  0  0  0  0
  8 10  1  0  0  0  0
  8 11  2  0  0  0  0
  9 13  1  0  0  0  0
  9 14  1  0  0  0  0
  9 15  1  0  0  0  0
 10 16  1  0  0  0  0
 10 17  1  0  0  0  0
 10 18  1  0  0  0  0
 19 20  1  0  0  0  0
 20 21  1  0  0  0  0
 20 22  1  0  0  0  0
 20 23  1  0  0  0  0
 23 24  4  0  0  0  0
 23 28  4  0  0  0  0
 24 25  4  0  0  0  0
 24 30  1  0  0  0  0
 25 26  4  0  0  0  0
 25 31  1  0  0  0  0
 26 27  4  0  0  0  0
 26 29  1  0  0  0  0
 27 28  4  0  0  0  0
 27 32  1  0  0  0  0
 28 33  1  0  0  0  0
 29 34  1  0  0  0  0
 29 35  1  0  0  0  0
M  END
> <BCLConfClusterSize>
1

> <ConfClashScore>
0 

> <ConfOneFourInteractionScore>
-0.972271 

> <ConfScore>
0.410902 

> <ConfScorePBest>
0.00421678 

> <ConfTolerance>
0.331 

> <RosettaParamsInstructions>
M  ROOT 3
M  POLY_N_BB 3
M  POLY_CA_BB 4
M  POLY_C_BB 2
M  POLY_O_BB 5
M  POLY_IGNORE 9 10 11 12 13 14 15 16 17 18 
M  POLY_UPPER 6
M  POLY_LOWER 8
M  POLY_CHG 0
M  POLY_PROPERTIES ALPHA_AA D_AA PROTEIN AROMATIC POLYMER 
M  END

$$$$



 35 35  0  0  0  0  0  0  0  0999 V2000
   -3.3022    1.6965   -1.7018 H   0  0  0  1  0  0  0  0  0  0  0  0
   -3.3065    2.1923    0.3683 C   0  0  0  1  0  0  0  0  0  0  0  0
   -2.1549    0.3422   -0.6129 N   0  0  0  1  0  0  0  0  0  0  0  0
   -2.6071    1.6977   -0.8883 C   0  0  0  1  0  0  0  0  0  0  0  0
   -4.1997    3.0203    0.2968 O   0  0  0  1  0  0  0  0  0  0  0  0
   -2.9215    1.5858    1.4996 N   0  0  0  1  0  0  0  0  0  0  0  0
   -1.3309    0.2139   -0.0981 H   0  0  0  1  0  0  0  0  0  0  0  0
   -2.8240   -0.7335   -1.0375 C   0  0  0  1  0  0  0  0  0  0  0  0
   -3.5623    1.7549    2.7952 C   0  0  0  1  0  0  0  0  0  0  0  0
   -2.1464   -2.0684   -0.7962 C   0  0  0  1  0  0  0  0  0  0  0  0
   -3.9187   -0.6651   -1.5900 O   0  0  0  1  0  0  0  0  0  0  0  0
   -2.1504    0.9830    1.4507 H   0  0  0  1  0  0  0  0  0  0  0  0
   -2.8558    1.5507    3.5725 H   0  0  0  1  0  0  0  0  0  0  0  0
   -4.3868    1.0778    2.8762 H   0  0  0  1  0  0  0  0  0  0  0  0
   -3.9153    2.7606    2.8897 H   0  0  0  1  0  0  0  0  0  0  0  0
   -1.6089   -2.0341    0.1283 H   0  0  0  1  0  0  0  0  0  0  0  0
   -1.4662   -2.2727   -1.5966 H   0  0  0  1  0  0  0  0  0  0  0  0
   -2.8859   -2.8403   -0.7502 H   0  0  0  1  0  0  0  0  0  0  0  0
    2.8437   -0.5948   -4.7187 F   0  0  0  1  0  0  0  0  0  0  0  0
    1.9139    0.1906   -5.2651 C   0  0  0  1  0  0  0  0  0  0  0  0
    2.5627    1.0277   -6.0760 F   0  0  0  1  0  0  0  0  0  0  0  0
    1.1766   -0.5949   -6.0512 F   0  0  0  1  0  0  0  0  0  0  0  0
    1.0826    0.9164   -4.2254 C   0  0  0  1  0  0  0  0  0  0  0  0
    1.5672    1.1606   -2.9498 C   0  0  0  1  0  0  0  0  0  0  0  0
    0.7479    1.7385   -1.9984 C   0  0  0  1  0  0  0  0  0  0  0  0
   -0.5565    2.0787   -2.3212 C   0  0  0  1  0  0  0  0  0  0  0  0
   -1.0395    1.8351   -3.5930 C   0  0  0  1  0  0  0  0  0  0  0  0
   -0.2180    1.2556   -4.5474 C   0  0  0  1  0  0  0  0  0  0  0  0
   -1.4456    2.6225   -1.2279 C   0  0  0  1  0  0  0  0  0  0  0  0
    2.5471    0.9091   -2.7087 H   0  0  0  1  0  0  0  0  0  0  0  0
    1.1102    1.9181   -1.0402 H   0  0  0  1  0  0  0  0  0  0  0  0
   -2.0194    2.0867   -3.8341 H   0  0  0  1  0  0  0  0  0  0  0  0
   -0.5803    1.0760   -5.5056 H   0  0  0  1  0  0  0  0  0  0  0  0
   -0.8546    2.7645   -0.3474 H   0  0  0  1  0  0  0  0  0  0  0  0
   -1.8418    3.5636   -1.5477 H   0  0  0  1  0  0  0  0  0  0  0  0
  1  4  1  0  0  0  0
  2  4  1  0  0  0  0
  2  5  2  0  0  0  0
  2  6  1  0  0  0  0
  3  4  1  0  0  0  0
  3  7  1  0  0  0  0
  3  8  1  0  0  0  0
  4 29  1  0  0  0  0
  6  9  1  0  0  0  0
  6 12  1  0  0  0  0
  8 10  1  0  0  0  0
  8 11  2  0  0  0  0
  9 13  1  0  0  0  0
  9 14  1  0  0  0  0
  9 15  1  0  0  0  0
 10 16  1  0  0  0  0
 10 17  1  0  0  0  0
 10 18  1  0  0  0  0
 19 20  1  0  0  0  0
 20 21  1  0  0  0  0
 20 22  1  0  0  0  0
 20 23  1  0  0  0  0
 23 24  4  0  0  0  0
 23 28  4  0  0  0  0
 24 25  4  0  0  0  0
 24 30  1  0  0  0  0
 25 26  4  0  0  0  0
 25 31  1  0  0  0  0
 26 27  4  0  0  0  0
 26 29  1  0  0  0  0
 27 28  4  0  0  0  0
 27 32  1  0  0  0  0
 28 33  1  0  0  0  0
 29 34  1  0  0  0  0
 29 35  1  0  0  0  0
M  END
> <BCLConfClusterSize>
1

> <ConfClashScore>
0 

> <ConfOneFourInteractionScore>
-0.94165 

> <ConfScore>
0.411896 

> <ConfScorePBest>
0.0041883 

> <ConfTolerance>
0.59422 

> <RosettaParamsInstructions>
M  ROOT 3
M  POLY_N_BB 3
M  POLY_CA_BB 4
M  POLY_C_BB 2
M  POLY_O_BB 5
M  POLY_IGNORE 9 10 11 12 13 14 15 16 17 18 
M  POLY_UPPER 6
M  POLY_LOWER 8
M  POLY_CHG 0
M  POLY_PROPERTIES ALPHA_AA D_AA PROTEIN AROMATIC POLYMER 
M  END

$$$$



 35 35  0  0  0  0  0  0  0  0999 V2000
   -1.3335    0.9328   -0.0642 H   0  0  0  1  0  0  0  0  0  0  0  0
   -3.1363    0.7669   -1.1331 C   0  0  0  1  0  0  0  0  0  0  0  0
   -2.7262    2.1987    0.7946 N   0  0  0  1  0  0  0  0  0  0  0  0
   -2.1046    1.5974   -0.3938 C   0  0  0  1  0  0  0  0  0  0  0  0
   -4.0540    1.3232   -1.7349 O   0  0  0  1  0  0  0  0  0  0  0  0
   -2.9383   -0.5554   -1.1604 N   0  0  0  1  0  0  0  0  0  0  0  0
   -3.4877    2.7990    0.6528 H   0  0  0  1  0  0  0  0  0  0  0  0
   -2.3319    1.9888    2.0515 C   0  0  0  1  0  0  0  0  0  0  0  0
   -3.7624   -1.4488   -1.9620 C   0  0  0  1  0  0  0  0  0  0  0  0
   -3.1176    2.7557    3.1128 C   0  0  0  1  0  0  0  0  0  0  0  0
   -1.3635    1.2947    2.3580 O   0  0  0  1  0  0  0  0  0  0  0  0
   -2.2134   -0.9363   -0.6221 H   0  0  0  1  0  0  0  0  0  0  0  0
   -4.1125   -2.2552   -1.3520 H   0  0  0  1  0  0  0  0  0  0  0  0
   -3.1813   -1.8399   -2.7708 H   0  0  0  1  0  0  0  0  0  0  0  0
   -4.5991   -0.9078   -2.3522 H   0  0  0  1  0  0  0  0  0  0  0  0
   -2.9304    3.8040    3.0078 H   0  0  0  1  0  0  0  0  0  0  0  0
   -2.8096    2.4344    4.0858 H   0  0  0  1  0  0  0  0  0  0  0  0
   -4.1633    2.5662    2.9885 H   0  0  0  1  0  0  0  0  0  0  0  0
    2.7787    0.9764   -5.8827 F   0  0  0  1  0  0  0  0  0  0  0  0
    1.9133    0.2079   -5.2709 C   0  0  0  1  0  0  0  0  0  0  0  0
    1.2101   -0.3453   -6.2379 F   0  0  0  1  0  0  0  0  0  0  0  0
    2.6205   -0.7889   -4.7852 F   0  0  0  1  0  0  0  0  0  0  0  0
    1.0743    0.9241   -4.2307 C   0  0  0  1  0  0  0  0  0  0  0  0
    1.6203    1.3637   -3.0347 C   0  0  0  1  0  0  0  0  0  0  0  0
    0.8068    1.9262   -2.0693 C   0  0  0  1  0  0  0  0  0  0  0  0
   -0.5540    2.0557   -2.2989 C   0  0  0  1  0  0  0  0  0  0  0  0
   -1.0983    1.6173   -3.4913 C   0  0  0  1  0  0  0  0  0  0  0  0
   -0.2826    1.0531   -4.4598 C   0  0  0  1  0  0  0  0  0  0  0  0
   -1.4426    2.6756   -1.2465 C   0  0  0  1  0  0  0  0  0  0  0  0
    2.6419    1.2702   -2.8640 H   0  0  0  1  0  0  0  0  0  0  0  0
    1.2158    2.2523   -1.1704 H   0  0  0  1  0  0  0  0  0  0  0  0
   -2.1199    1.7108   -3.6620 H   0  0  0  1  0  0  0  0  0  0  0  0
   -0.6916    0.7270   -5.3586 H   0  0  0  1  0  0  0  0  0  0  0  0
   -0.8521    3.3076   -0.6167 H   0  0  0  1  0  0  0  0  0  0  0  0
   -2.2011    3.2581   -1.7266 H   0  0  0  1  0  0  0  0  0  0  0  0
  1  4  1  0  0  0  0
  2  4  1  0  0  0  0
  2  5  2  0  0  0  0
  2  6  1  0  0  0  0
  3  4  1  0  0  0  0
  3  7  1  0  0  0  0
  3  8  1  0  0  0  0
  4 29  1  0  0  0  0
  6  9  1  0  0  0  0
  6 12  1  0  0  0  0
  8 10  1  0  0  0  0
  8 11  2  0  0  0  0
  9 13  1  0  0  0  0
  9 14  1  0  0  0  0
  9 15  1  0  0  0  0
 10 16  1  0  0  0  0
 10 17  1  0  0  0  0
 10 18  1  0  0  0  0
 19 20  1  0  0  0  0
 20 21  1  0  0  0  0
 20 22  1  0  0  0  0
 20 23  1  0  0  0  0
 23 24  4  0  0  0  0
 23 28  4  0  0  0  0
 24 25  4  0  0  0  0
 24 30  1  0  0  0  0
 25 26  4  0  0  0  0
 25 31  1  0  0  0  0
 26 27  4  0  0  0  0
 26 29  1  0  0  0  0
 27 28  4  0  0  0  0
 27 32  1  0  0  0  0
 28 33  1  0  0  0  0
 29 34  1  0  0  0  0
 29 35  1  0  0  0  0
M  END
> <BCLConfClusterSize>
1

> <ConfClashScore>
0 

> <ConfOneFourInteractionScore>
-0.97615 

> <ConfScore>
0.411979 

> <ConfScorePBest>
0.00415982 

> <ConfTolerance>
0.537552 

> <RosettaParamsInstructions>
M  ROOT 3
M  POLY_N_BB 3
M  POLY_CA_BB 4
M  POLY_C_BB 2
M  POLY_O_BB 5
M  POLY_IGNORE 9 10 11 12 13 14 15 16 17 18 
M  POLY_UPPER 6
M  POLY_LOWER 8
M  POLY_CHG 0
M  POLY_PROPERTIES ALPHA_AA D_AA PROTEIN AROMATIC POLYMER 
M  END

$$$$



 35 35  0  0  0  0  0  0  0  0999 V2000
   -0.8119    4.6892   -1.4527 H   0  0  0  1  0  0  0  0  0  0  0  0
   -2.5744    4.7137   -0.3076 C   0  0  0  1  0  0  0  0  0  0  0  0
   -2.3829    4.3656   -2.7413 N   0  0  0  1  0  0  0  0  0  0  0  0
   -1.7427    4.1615   -1.4505 C   0  0  0  1  0  0  0  0  0  0  0  0
   -2.6371    4.1004    0.7568 O   0  0  0  1  0  0  0  0  0  0  0  0
   -3.1417    5.9129   -0.4979 N   0  0  0  1  0  0  0  0  0  0  0  0
   -2.9155    3.6275   -3.1046 H   0  0  0  1  0  0  0  0  0  0  0  0
   -2.2994    5.4815   -3.4673 C   0  0  0  1  0  0  0  0  0  0  0  0
   -3.7279    6.6766    0.5919 C   0  0  0  1  0  0  0  0  0  0  0  0
   -2.8266    5.3856   -4.8857 C   0  0  0  1  0  0  0  0  0  0  0  0
   -1.8280    6.5308   -3.0310 O   0  0  0  1  0  0  0  0  0  0  0  0
   -3.1622    6.2881   -1.4030 H   0  0  0  1  0  0  0  0  0  0  0  0
   -4.2132    6.0105    1.2743 H   0  0  0  1  0  0  0  0  0  0  0  0
   -4.4439    7.3674    0.1982 H   0  0  0  1  0  0  0  0  0  0  0  0
   -2.9579    7.2139    1.1051 H   0  0  0  1  0  0  0  0  0  0  0  0
   -3.6388    4.6897   -4.9187 H   0  0  0  1  0  0  0  0  0  0  0  0
   -2.0444    5.0514   -5.5349 H   0  0  0  1  0  0  0  0  0  0  0  0
   -3.1687    6.3480   -5.2047 H   0  0  0  1  0  0  0  0  0  0  0  0
    2.3846    1.0193   -6.2076 F   0  0  0  1  0  0  0  0  0  0  0  0
    1.9242    0.1995   -5.2612 C   0  0  0  1  0  0  0  0  0  0  0  0
    1.2703   -0.7739   -5.8970 F   0  0  0  1  0  0  0  0  0  0  0  0
    2.9953   -0.3700   -4.7070 F   0  0  0  1  0  0  0  0  0  0  0  0
    1.0569    0.9142   -4.2462 C   0  0  0  1  0  0  0  0  0  0  0  0
    1.6072    1.3134   -3.0382 C   0  0  0  1  0  0  0  0  0  0  0  0
    0.8043    1.8823   -2.0676 C   0  0  0  1  0  0  0  0  0  0  0  0
   -0.5501    2.0586   -2.3042 C   0  0  0  1  0  0  0  0  0  0  0  0
   -1.0986    1.6606   -3.5087 C   0  0  0  1  0  0  0  0  0  0  0  0
   -0.2936    1.0900   -4.4823 C   0  0  0  1  0  0  0  0  0  0  0  0
   -1.4270    2.6856   -1.2462 C   0  0  0  1  0  0  0  0  0  0  0  0
    2.6241    1.1849   -2.8622 H   0  0  0  1  0  0  0  0  0  0  0  0
    1.2163    2.1782   -1.1597 H   0  0  0  1  0  0  0  0  0  0  0  0
   -2.1155    1.7891   -3.6847 H   0  0  0  1  0  0  0  0  0  0  0  0
   -0.7057    0.7942   -5.3901 H   0  0  0  1  0  0  0  0  0  0  0  0
   -2.3530    2.1499   -1.2249 H   0  0  0  1  0  0  0  0  0  0  0  0
   -0.9323    2.5814   -0.3032 H   0  0  0  1  0  0  0  0  0  0  0  0
  1  4  1  0  0  0  0
  2  4  1  0  0  0  0
  2  5  2  0  0  0  0
  2  6  1  0  0  0  0
  3  4  1  0  0  0  0
  3  7  1  0  0  0  0
  3  8  1  0  0  0  0
  4 29  1  0  0  0  0
  6  9  1  0  0  0  0
  6 12  1  0  0  0  0
  8 10  1  0  0  0  0
  8 11  2  0  0  0  0
  9 13  1  0  0  0  0
  9 14  1  0  0  0  0
  9 15  1  0  0  0  0
 10 16  1  0  0  0  0
 10 17  1  0  0  0  0
 10 18  1  0  0  0  0
 19 20  1  0  0  0  0
 20 21  1  0  0  0  0
 20 22  1  0  0  0  0
 20 23  1  0  0  0  0
 23 24  4  0  0  0  0
 23 28  4  0  0  0  0
 24 25  4  0  0  0  0
 24 30  1  0  0  0  0
 25 26  4  0  0  0  0
 25 31  1  0  0  0  0
 26 27  4  0  0  0  0
 26 29  1  0  0  0  0
 27 28  4  0  0  0  0
 27 32  1  0  0  0  0
 28 33  1  0  0  0  0
 29 34  1  0  0  0  0
 29 35  1  0  0  0  0
M  END
> <BCLConfClusterSize>
1

> <ConfClashScore>
0 

> <ConfOneFourInteractionScore>
-0.979134 

> <ConfScore>
0.412626 

> <ConfScorePBest>
0.00413134 

> <ConfTolerance>
0.474692 

> <RosettaParamsInstructions>
M  ROOT 3
M  POLY_N_BB 3
M  POLY_CA_BB 4
M  POLY_C_BB 2
M  POLY_O_BB 5
M  POLY_IGNORE 9 10 11 12 13 14 15 16 17 18 
M  POLY_UPPER 6
M  POLY_LOWER 8
M  POLY_CHG 0
M  POLY_PROPERTIES ALPHA_AA D_AA PROTEIN AROMATIC POLYMER 
M  END

$$$$



 35 35  0  0  0  0  0  0  0  0999 V2000
   -3.2161    1.5790   -1.5953 H   0  0  0  1  0  0  0  0  0  0  0  0
   -3.3554    2.3780    0.3586 C   0  0  0  1  0  0  0  0  0  0  0  0
   -1.8841    0.5204   -0.4240 N   0  0  0  1  0  0  0  0  0  0  0  0
   -2.5473    1.7656   -0.7811 C   0  0  0  1  0  0  0  0  0  0  0  0
   -4.0209    3.3859    0.1773 O   0  0  0  1  0  0  0  0  0  0  0  0
   -3.3335    1.6789    1.4984 N   0  0  0  1  0  0  0  0  0  0  0  0
   -2.2119   -0.3294   -0.7857 H   0  0  0  1  0  0  0  0  0  0  0  0
   -0.7894    0.5339    0.4268 C   0  0  0  1  0  0  0  0  0  0  0  0
   -4.0252    2.1802    2.6765 C   0  0  0  1  0  0  0  0  0  0  0  0
   -0.0618   -0.7522    0.7014 C   0  0  0  1  0  0  0  0  0  0  0  0
   -0.4519    1.5944    0.9265 O   0  0  0  1  0  0  0  0  0  0  0  0
   -2.8505    0.8271    1.5404 H   0  0  0  1  0  0  0  0  0  0  0  0
   -3.3768    2.8354    3.2197 H   0  0  0  1  0  0  0  0  0  0  0  0
   -4.3063    1.3583    3.3014 H   0  0  0  1  0  0  0  0  0  0  0  0
   -4.9013    2.7153    2.3747 H   0  0  0  1  0  0  0  0  0  0  0  0
    0.9868   -0.5579    0.7881 H   0  0  0  1  0  0  0  0  0  0  0  0
   -0.2320   -1.4368   -0.1032 H   0  0  0  1  0  0  0  0  0  0  0  0
   -0.4222   -1.1777    1.6146 H   0  0  0  1  0  0  0  0  0  0  0  0
    1.5088   -1.0623   -5.4684 F   0  0  0  1  0  0  0  0  0  0  0  0
    1.9150    0.1922   -5.2656 C   0  0  0  1  0  0  0  0  0  0  0  0
    3.2058    0.1175   -4.9376 F   0  0  0  1  0  0  0  0  0  0  0  0
    1.8656    0.7983   -6.4554 F   0  0  0  1  0  0  0  0  0  0  0  0
    1.0890    0.9075   -4.2145 C   0  0  0  1  0  0  0  0  0  0  0  0
    1.4828    0.9489   -2.8861 C   0  0  0  1  0  0  0  0  0  0  0  0
    0.6584    1.5262   -1.9388 C   0  0  0  1  0  0  0  0  0  0  0  0
   -0.5598    2.0683   -2.3178 C   0  0  0  1  0  0  0  0  0  0  0  0
   -0.9522    2.0269   -3.6424 C   0  0  0  1  0  0  0  0  0  0  0  0
   -0.1255    1.4480   -4.5926 C   0  0  0  1  0  0  0  0  0  0  0  0
   -1.4586    2.7045   -1.2839 C   0  0  0  1  0  0  0  0  0  0  0  0
    2.3985    0.5458   -2.6022 H   0  0  0  1  0  0  0  0  0  0  0  0
    0.9519    1.5537   -0.9415 H   0  0  0  1  0  0  0  0  0  0  0  0
   -1.8679    2.4301   -3.9262 H   0  0  0  1  0  0  0  0  0  0  0  0
   -0.4192    1.4205   -5.5899 H   0  0  0  1  0  0  0  0  0  0  0  0
   -0.8587    3.0073   -0.4513 H   0  0  0  1  0  0  0  0  0  0  0  0
   -1.9243    3.5636   -1.7199 H   0  0  0  1  0  0  0  0  0  0  0  0
  1  4  1  0  0  0  0
  2  4  1  0  0  0  0
  2  5  2  0  0  0  0
  2  6  1  0  0  0  0
  3  4  1  0  0  0  0
  3  7  1  0  0  0  0
  3  8  1  0  0  0  0
  4 29  1  0  0  0  0
  6  9  1  0  0  0  0
  6 12  1  0  0  0  0
  8 10  1  0  0  0  0
  8 11  2  0  0  0  0
  9 13  1  0  0  0  0
  9 14  1  0  0  0  0
  9 15  1  0  0  0  0
 10 16  1  0  0  0  0
 10 17  1  0  0  0  0
 10 18  1  0  0  0  0
 19 20  1  0  0  0  0
 20 21  1  0  0  0  0
 20 22  1  0  0  0  0
 20 23  1  0  0  0  0
 23 24  4  0  0  0  0
 23 28  4  0  0  0  0
 24 25  4  0  0  0  0
 24 30  1  0  0  0  0
 25 26  4  0  0  0  0
 25 31  1  0  0  0  0
 26 27  4  0  0  0  0
 26 29  1  0  0  0  0
 27 28  4  0  0  0  0
 27 32  1  0  0  0  0
 28 33  1  0  0  0  0
 29 34  1  0  0  0  0
 29 35  1  0  0  0  0
M  END
> <BCLConfClusterSize>
1

> <ConfClashScore>
0 

> <ConfOneFourInteractionScore>
-0.926524 

> <ConfScore>
0.414298 

> <ConfScorePBest>
0.00410286 

> <ConfTolerance>
0.460066 

> <RosettaParamsInstructions>
M  ROOT 3
M  POLY_N_BB 3
M  POLY_CA_BB 4
M  POLY_C_BB 2
M  POLY_O_BB 5
M  POLY_IGNORE 9 10 11 12 13 14 15 16 17 18 
M  POLY_UPPER 6
M  POLY_LOWER 8
M  POLY_CHG 0
M  POLY_PROPERTIES ALPHA_AA D_AA PROTEIN AROMATIC POLYMER 
M  END

$$$$



 35 35  0  0  0  0  0  0  0  0999 V2000
   -1.8747    4.3903   -0.1623 H   0  0  0  1  0  0  0  0  0  0  0  0
   -1.7534    4.9506   -2.1894 C   0  0  0  1  0  0  0  0  0  0  0  0
    0.1272    4.3754   -0.6898 N   0  0  0  1  0  0  0  0  0  0  0  0
   -1.2805    4.1215   -1.0106 C   0  0  0  1  0  0  0  0  0  0  0  0
   -2.6241    5.8087   -2.0534 O   0  0  0  1  0  0  0  0  0  0  0  0
   -1.1123    4.7561   -3.3467 N   0  0  0  1  0  0  0  0  0  0  0  0
    0.6927    3.6237   -0.4149 H   0  0  0  1  0  0  0  0  0  0  0  0
    0.6661    5.5960   -0.7593 C   0  0  0  1  0  0  0  0  0  0  0  0
   -1.5633    5.3528   -4.5951 C   0  0  0  1  0  0  0  0  0  0  0  0
    2.0942    5.7147   -0.2639 C   0  0  0  1  0  0  0  0  0  0  0  0
    0.0579    6.5730   -1.1944 O   0  0  0  1  0  0  0  0  0  0  0  0
   -0.3109    4.1921   -3.3545 H   0  0  0  1  0  0  0  0  0  0  0  0
   -2.6329    5.3569   -4.6231 H   0  0  0  1  0  0  0  0  0  0  0  0
   -1.1873    4.7828   -5.4189 H   0  0  0  1  0  0  0  0  0  0  0  0
   -1.2012    6.3575   -4.6611 H   0  0  0  1  0  0  0  0  0  0  0  0
    2.7350    5.1125   -0.8734 H   0  0  0  1  0  0  0  0  0  0  0  0
    2.1486    5.3790    0.7507 H   0  0  0  1  0  0  0  0  0  0  0  0
    2.4069    6.7366   -0.3192 H   0  0  0  1  0  0  0  0  0  0  0  0
    1.5395   -1.0786   -5.4287 F   0  0  0  1  0  0  0  0  0  0  0  0
    1.9250    0.1863   -5.2513 C   0  0  0  1  0  0  0  0  0  0  0  0
    3.2110    0.1382   -4.9003 F   0  0  0  1  0  0  0  0  0  0  0  0
    1.8873    0.7603   -6.4545 F   0  0  0  1  0  0  0  0  0  0  0  0
    1.0727    0.9153   -4.2338 C   0  0  0  1  0  0  0  0  0  0  0  0
    1.4761    0.9551   -2.9081 C   0  0  0  1  0  0  0  0  0  0  0  0
    0.6610    1.5363   -1.9551 C   0  0  0  1  0  0  0  0  0  0  0  0
   -0.5572    2.0840   -2.3256 C   0  0  0  1  0  0  0  0  0  0  0  0
   -0.9592    2.0443   -3.6474 C   0  0  0  1  0  0  0  0  0  0  0  0
   -0.1419    1.4614   -4.6034 C   0  0  0  1  0  0  0  0  0  0  0  0
   -1.4575    2.6263   -1.2408 C   0  0  0  1  0  0  0  0  0  0  0  0
    2.3919    0.5477   -2.6307 H   0  0  0  1  0  0  0  0  0  0  0  0
    0.9618    1.5626   -0.9599 H   0  0  0  1  0  0  0  0  0  0  0  0
   -1.8750    2.4517   -3.9248 H   0  0  0  1  0  0  0  0  0  0  0  0
   -0.4427    1.4351   -5.5986 H   0  0  0  1  0  0  0  0  0  0  0  0
   -2.4743    2.4425   -1.5186 H   0  0  0  1  0  0  0  0  0  0  0  0
   -1.2383    2.1129   -0.3280 H   0  0  0  1  0  0  0  0  0  0  0  0
  1  4  1  0  0  0  0
  2  4  1  0  0  0  0
  2  5  2  0  0  0  0
  2  6  1  0  0  0  0
  3  4  1  0  0  0  0
  3  7  1  0  0  0  0
  3  8  1  0  0  0  0
  4 29  1  0  0  0  0
  6  9  1  0  0  0  0
  6 12  1  0  0  0  0
  8 10  1  0  0  0  0
  8 11  2  0  0  0  0
  9 13  1  0  0  0  0
  9 14  1  0  0  0  0
  9 15  1  0  0  0  0
 10 16  1  0  0  0  0
 10 17  1  0  0  0  0
 10 18  1  0  0  0  0
 19 20  1  0  0  0  0
 20 21  1  0  0  0  0
 20 22  1  0  0  0  0
 20 23  1  0  0  0  0
 23 24  4  0  0  0  0
 23 28  4  0  0  0  0
 24 25  4  0  0  0  0
 24 30  1  0  0  0  0
 25 26  4  0  0  0  0
 25 31  1  0  0  0  0
 26 27  4  0  0  0  0
 26 29  1  0  0  0  0
 27 28  4  0  0  0  0
 27 32  1  0  0  0  0
 28 33  1  0  0  0  0
 29 34  1  0  0  0  0
 29 35  1  0  0  0  0
M  END
> <BCLConfClusterSize>
1

> <ConfClashScore>
0.000212485 

> <ConfOneFourInteractionScore>
-0.950605 

> <ConfScore>
0.417862 

> <ConfScorePBest>
0.00407438 

> <ConfTolerance>
0.614867 

> <RosettaParamsInstructions>
M  ROOT 3
M  POLY_N_BB 3
M  POLY_CA_BB 4
M  POLY_C_BB 2
M  POLY_O_BB 5
M  POLY_IGNORE 9 10 11 12 13 14 15 16 17 18 
M  POLY_UPPER 6
M  POLY_LOWER 8
M  POLY_CHG 0
M  POLY_PROPERTIES ALPHA_AA D_AA PROTEIN AROMATIC POLYMER 
M  END

$$$$



 35 35  0  0  0  0  0  0  0  0999 V2000
   -1.6109    4.4498   -2.3917 H   0  0  0  1  0  0  0  0  0  0  0  0
    0.0643    4.7104   -1.1479 C   0  0  0  1  0  0  0  0  0  0  0  0
   -2.3127    4.8455   -0.4952 N   0  0  0  1  0  0  0  0  0  0  0  0
   -1.3478    4.2070   -1.3833 C   0  0  0  1  0  0  0  0  0  0  0  0
    0.5188    5.6235   -1.8197 O   0  0  0  1  0  0  0  0  0  0  0  0
    0.6983    4.1384   -0.1150 N   0  0  0  1  0  0  0  0  0  0  0  0
   -3.1413    4.3592   -0.3017 H   0  0  0  1  0  0  0  0  0  0  0  0
   -2.1506    6.0551    0.0798 C   0  0  0  1  0  0  0  0  0  0  0  0
    2.0374    4.5719    0.2503 C   0  0  0  1  0  0  0  0  0  0  0  0
   -3.2256    6.5430    1.0244 C   0  0  0  1  0  0  0  0  0  0  0  0
   -1.1583    6.7428   -0.1557 O   0  0  0  1  0  0  0  0  0  0  0  0
    0.2586    3.4265    0.3951 H   0  0  0  1  0  0  0  0  0  0  0  0
    1.9732    5.4060    0.9174 H   0  0  0  1  0  0  0  0  0  0  0  0
    2.5714    4.8605   -0.6308 H   0  0  0  1  0  0  0  0  0  0  0  0
    2.5529    3.7681    0.7332 H   0  0  0  1  0  0  0  0  0  0  0  0
   -2.8346    6.5848    2.0195 H   0  0  0  1  0  0  0  0  0  0  0  0
   -4.0571    5.8701    0.9961 H   0  0  0  1  0  0  0  0  0  0  0  0
   -3.5460    7.5193    0.7260 H   0  0  0  1  0  0  0  0  0  0  0  0
    3.1722    0.6773   -5.2894 F   0  0  0  1  0  0  0  0  0  0  0  0
    1.9263    0.2008   -5.2602 C   0  0  0  1  0  0  0  0  0  0  0  0
    1.4566    0.3094   -6.5040 F   0  0  0  1  0  0  0  0  0  0  0  0
    2.0318   -1.1055   -5.0134 F   0  0  0  1  0  0  0  0  0  0  0  0
    1.0560    0.9143   -4.2470 C   0  0  0  1  0  0  0  0  0  0  0  0
    1.6129    1.3494   -3.0544 C   0  0  0  1  0  0  0  0  0  0  0  0
    0.8098    1.9177   -2.0836 C   0  0  0  1  0  0  0  0  0  0  0  0
   -0.5514    2.0574   -2.3046 C   0  0  0  1  0  0  0  0  0  0  0  0
   -1.1065    1.6236   -3.4936 C   0  0  0  1  0  0  0  0  0  0  0  0
   -0.3013    1.0536   -4.4674 C   0  0  0  1  0  0  0  0  0  0  0  0
   -1.4286    2.6837   -1.2464 C   0  0  0  1  0  0  0  0  0  0  0  0
    2.6349    1.2483   -2.8902 H   0  0  0  1  0  0  0  0  0  0  0  0
    1.2269    2.2405   -1.1873 H   0  0  0  1  0  0  0  0  0  0  0  0
   -2.1285    1.7247   -3.6578 H   0  0  0  1  0  0  0  0  0  0  0  0
   -0.7184    0.7308   -5.3637 H   0  0  0  1  0  0  0  0  0  0  0  0
   -2.4405    2.3630   -1.3811 H   0  0  0  1  0  0  0  0  0  0  0  0
   -1.0873    2.3906   -0.2756 H   0  0  0  1  0  0  0  0  0  0  0  0
  1  4  1  0  0  0  0
  2  4  1  0  0  0  0
  2  5  2  0  0  0  0
  2  6  1  0  0  0  0
  3  4  1  0  0  0  0
  3  7  1  0  0  0  0
  3  8  1  0  0  0  0
  4 29  1  0  0  0  0
  6  9  1  0  0  0  0
  6 12  1  0  0  0  0
  8 10  1  0  0  0  0
  8 11  2  0  0  0  0
  9 13  1  0  0  0  0
  9 14  1  0  0  0  0
  9 15  1  0  0  0  0
 10 16  1  0  0  0  0
 10 17  1  0  0  0  0
 10 18  1  0  0  0  0
 19 20  1  0  0  0  0
 20 21  1  0  0  0  0
 20 22  1  0  0  0  0
 20 23  1  0  0  0  0
 23 24  4  0  0  0  0
 23 28  4  0  0  0  0
 24 25  4  0  0  0  0
 24 30  1  0  0  0  0
 25 26  4  0  0  0  0
 25 31  1  0  0  0  0
 26 27  4  0  0  0  0
 26 29  1  0  0  0  0
 27 28  4  0  0  0  0
 27 32  1  0  0  0  0
 28 33  1  0  0  0  0
 29 34  1  0  0  0  0
 29 35  1  0  0  0  0
M  END
> <BCLConfClusterSize>
1

> <ConfClashScore>
0 

> <ConfOneFourInteractionScore>
-0.945493 

> <ConfScore>
0.418573 

> <ConfScorePBest>
0.00404589 

> <ConfTolerance>
0.42753 

> <RosettaParamsInstructions>
M  ROOT 3
M  POLY_N_BB 3
M  POLY_CA_BB 4
M  POLY_C_BB 2
M  POLY_O_BB 5
M  POLY_IGNORE 9 10 11 12 13 14 15 16 17 18 
M  POLY_UPPER 6
M  POLY_LOWER 8
M  POLY_CHG 0
M  POLY_PROPERTIES ALPHA_AA D_AA PROTEIN AROMATIC POLYMER 
M  END

$$$$



 35 35  0  0  0  0  0  0  0  0999 V2000
   -1.8621    4.4949   -0.2362 H   0  0  0  1  0  0  0  0  0  0  0  0
   -1.6933    4.9123   -2.3132 C   0  0  0  1  0  0  0  0  0  0  0  0
    0.1548    4.4341   -0.7079 N   0  0  0  1  0  0  0  0  0  0  0  0
   -1.2379    4.1835   -1.0476 C   0  0  0  1  0  0  0  0  0  0  0  0
   -0.9247    5.0727   -3.2487 O   0  0  0  1  0  0  0  0  0  0  0  0
   -2.9849    5.2584   -2.3251 N   0  0  0  1  0  0  0  0  0  0  0  0
    0.7367    4.8527   -1.3761 H   0  0  0  1  0  0  0  0  0  0  0  0
    0.6687    4.1127    0.4858 C   0  0  0  1  0  0  0  0  0  0  0  0
   -3.6413    5.7712   -3.5185 C   0  0  0  1  0  0  0  0  0  0  0  0
    2.1351    4.4446    0.6826 C   0  0  0  1  0  0  0  0  0  0  0  0
    0.0091    3.5817    1.3779 O   0  0  0  1  0  0  0  0  0  0  0  0
   -3.5077    5.1635   -1.5017 H   0  0  0  1  0  0  0  0  0  0  0  0
   -3.1428    6.6593   -3.8467 H   0  0  0  1  0  0  0  0  0  0  0  0
   -4.6626    5.9981   -3.2940 H   0  0  0  1  0  0  0  0  0  0  0  0
   -3.6011    5.0333   -4.2923 H   0  0  0  1  0  0  0  0  0  0  0  0
    2.7250    3.8798   -0.0087 H   0  0  0  1  0  0  0  0  0  0  0  0
    2.4251    4.1986    1.6827 H   0  0  0  1  0  0  0  0  0  0  0  0
    2.2899    5.4896    0.5126 H   0  0  0  1  0  0  0  0  0  0  0  0
    1.2525   -0.1051   -6.3695 F   0  0  0  1  0  0  0  0  0  0  0  0
    1.9253    0.1945   -5.2571 C   0  0  0  1  0  0  0  0  0  0  0  0
    2.4122   -0.9578   -4.7941 F   0  0  0  1  0  0  0  0  0  0  0  0
    2.9781    0.9177   -5.6408 F   0  0  0  1  0  0  0  0  0  0  0  0
    1.0682    0.9139   -4.2367 C   0  0  0  1  0  0  0  0  0  0  0  0
    1.5234    1.0461   -2.9340 C   0  0  0  1  0  0  0  0  0  0  0  0
    0.7110    1.6175   -1.9729 C   0  0  0  1  0  0  0  0  0  0  0  0
   -0.5568    2.0632   -2.3127 C   0  0  0  1  0  0  0  0  0  0  0  0
   -1.0105    1.9314   -3.6115 C   0  0  0  1  0  0  0  0  0  0  0  0
   -0.1959    1.3583   -4.5756 C   0  0  0  1  0  0  0  0  0  0  0  0
   -1.4429    2.6931   -1.2640 C   0  0  0  1  0  0  0  0  0  0  0  0
    2.4761    0.7153   -2.6800 H   0  0  0  1  0  0  0  0  0  0  0  0
    1.0509    1.7130   -0.9947 H   0  0  0  1  0  0  0  0  0  0  0  0
   -1.9632    2.2621   -3.8655 H   0  0  0  1  0  0  0  0  0  0  0  0
   -0.5358    1.2628   -5.5538 H   0  0  0  1  0  0  0  0  0  0  0  0
   -2.4607    2.5388   -1.5560 H   0  0  0  1  0  0  0  0  0  0  0  0
   -1.2587    2.1961   -0.3345 H   0  0  0  1  0  0  0  0  0  0  0  0
  1  4  1  0  0  0  0
  2  4  1  0  0  0  0
  2  5  2  0  0  0  0
  2  6  1  0  0  0  0
  3  4  1  0  0  0  0
  3  7  1  0  0  0  0
  3  8  1  0  0  0  0
  4 29  1  0  0  0  0
  6  9  1  0  0  0  0
  6 12  1  0  0  0  0
  8 10  1  0  0  0  0
  8 11  2  0  0  0  0
  9 13  1  0  0  0  0
  9 14  1  0  0  0  0
  9 15  1  0  0  0  0
 10 16  1  0  0  0  0
 10 17  1  0  0  0  0
 10 18  1  0  0  0  0
 19 20  1  0  0  0  0
 20 21  1  0  0  0  0
 20 22  1  0  0  0  0
 20 23  1  0  0  0  0
 23 24  4  0  0  0  0
 23 28  4  0  0  0  0
 24 25  4  0  0  0  0
 24 30  1  0  0  0  0
 25 26  4  0  0  0  0
 25 31  1  0  0  0  0
 26 27  4  0  0  0  0
 26 29  1  0  0  0  0
 27 28  4  0  0  0  0
 27 32  1  0  0  0  0
 28 33  1  0  0  0  0
 29 34  1  0  0  0  0
 29 35  1  0  0  0  0
M  END
> <BCLConfClusterSize>
1

> <ConfClashScore>
0 

> <ConfOneFourInteractionScore>
-0.980789 

> <ConfScore>
0.418936 

> <ConfScorePBest>
0.00401741 

> <ConfTolerance>
0.610367 

> <RosettaParamsInstructions>
M  ROOT 3
M  POLY_N_BB 3
M  POLY_CA_BB 4
M  POLY_C_BB 2
M  POLY_O_BB 5
M  POLY_IGNORE 9 10 11 12 13 14 15 16 17 18 
M  POLY_UPPER 6
M  POLY_LOWER 8
M  POLY_CHG 0
M  POLY_PROPERTIES ALPHA_AA D_AA PROTEIN AROMATIC POLYMER 
M  END

$$$$



 35 35  0  0  0  0  0  0  0  0999 V2000
   -1.3138    1.3282    0.3459 H   0  0  0  1  0  0  0  0  0  0  0  0
   -2.7432    0.5450   -0.9886 C   0  0  0  1  0  0  0  0  0  0  0  0
   -3.0302    2.4584    0.5432 N   0  0  0  1  0  0  0  0  0  0  0  0
   -2.0852    1.7177   -0.2850 C   0  0  0  1  0  0  0  0  0  0  0  0
   -2.3520    0.1654   -2.0913 O   0  0  0  1  0  0  0  0  0  0  0  0
   -3.6992   -0.0952   -0.3071 N   0  0  0  1  0  0  0  0  0  0  0  0
   -2.6990    2.9182    1.3428 H   0  0  0  1  0  0  0  0  0  0  0  0
   -4.3315    2.5317    0.2497 C   0  0  0  1  0  0  0  0  0  0  0  0
   -4.2774   -1.3480   -0.7697 C   0  0  0  1  0  0  0  0  0  0  0  0
   -5.2202    3.2497    1.2733 C   0  0  0  1  0  0  0  0  0  0  0  0
   -4.8657    2.0818   -0.7505 O   0  0  0  1  0  0  0  0  0  0  0  0
   -4.0217    0.2928    0.5331 H   0  0  0  1  0  0  0  0  0  0  0  0
   -4.7818   -1.1869   -1.6995 H   0  0  0  1  0  0  0  0  0  0  0  0
   -4.9757   -1.7080   -0.0432 H   0  0  0  1  0  0  0  0  0  0  0  0
   -3.5000   -2.0704   -0.9064 H   0  0  0  1  0  0  0  0  0  0  0  0
   -4.6088    3.6713    2.0437 H   0  0  0  1  0  0  0  0  0  0  0  0
   -5.9044    2.5493    1.7047 H   0  0  0  1  0  0  0  0  0  0  0  0
   -5.7671    4.0294    0.7857 H   0  0  0  1  0  0  0  0  0  0  0  0
    1.5321    0.4268   -6.5130 F   0  0  0  1  0  0  0  0  0  0  0  0
    1.9245    0.1963   -5.2589 C   0  0  0  1  0  0  0  0  0  0  0  0
    1.9066   -1.1280   -5.1001 F   0  0  0  1  0  0  0  0  0  0  0  0
    3.2052    0.5630   -5.1950 F   0  0  0  1  0  0  0  0  0  0  0  0
    1.0640    0.9144   -4.2405 C   0  0  0  1  0  0  0  0  0  0  0  0
    1.5618    1.1459   -2.9676 C   0  0  0  1  0  0  0  0  0  0  0  0
    0.7530    1.7161   -2.0027 C   0  0  0  1  0  0  0  0  0  0  0  0
   -0.5540    2.0614   -2.3091 C   0  0  0  1  0  0  0  0  0  0  0  0
   -1.0501    1.8305   -3.5783 C   0  0  0  1  0  0  0  0  0  0  0  0
   -0.2392    1.2586   -4.5462 C   0  0  0  1  0  0  0  0  0  0  0  0
   -1.4365    2.6899   -1.2567 C   0  0  0  1  0  0  0  0  0  0  0  0
    2.5436    0.8906   -2.7388 H   0  0  0  1  0  0  0  0  0  0  0  0
    1.1252    1.8862   -1.0466 H   0  0  0  1  0  0  0  0  0  0  0  0
   -2.0320    2.0858   -3.8071 H   0  0  0  1  0  0  0  0  0  0  0  0
   -0.6114    1.0886   -5.5023 H   0  0  0  1  0  0  0  0  0  0  0  0
   -0.8390    3.3734   -0.6902 H   0  0  0  1  0  0  0  0  0  0  0  0
   -2.2157    3.2263   -1.7567 H   0  0  0  1  0  0  0  0  0  0  0  0
  1  4  1  0  0  0  0
  2  4  1  0  0  0  0
  2  5  2  0  0  0  0
  2  6  1  0  0  0  0
  3  4  1  0  0  0  0
  3  7  1  0  0  0  0
  3  8  1  0  0  0  0
  4 29  1  0  0  0  0
  6  9  1  0  0  0  0
  6 12  1  0  0  0  0
  8 10  1  0  0  0  0
  8 11  2  0  0  0  0
  9 13  1  0  0  0  0
  9 14  1  0  0  0  0
  9 15  1  0  0  0  0
 10 16  1  0  0  0  0
 10 17  1  0  0  0  0
 10 18  1  0  0  0  0
 19 20  1  0  0  0  0
 20 21  1  0  0  0  0
 20 22  1  0  0  0  0
 20 23  1  0  0  0  0
 23 24  4  0  0  0  0
 23 28  4  0  0  0  0
 24 25  4  0  0  0  0
 24 30  1  0  0  0  0
 25 26  4  0  0  0  0
 25 31  1  0  0  0  0
 26 27  4  0  0  0  0
 26 29  1  0  0  0  0
 27 28  4  0  0  0  0
 27 32  1  0  0  0  0
 28 33  1  0  0  0  0
 29 34  1  0  0  0  0
 29 35  1  0  0  0  0
M  END
> <BCLConfClusterSize>
1

> <ConfClashScore>
0 

> <ConfOneFourInteractionScore>
-0.94644 

> <ConfScore>
0.421884 

> <ConfScorePBest>
0.00398893 

> <ConfTolerance>
0.357216 

> <RosettaParamsInstructions>
M  ROOT 3
M  POLY_N_BB 3
M  POLY_CA_BB 4
M  POLY_C_BB 2
M  POLY_O_BB 5
M  POLY_IGNORE 9 10 11 12 13 14 15 16 17 18 
M  POLY_UPPER 6
M  POLY_LOWER 8
M  POLY_CHG 0
M  POLY_PROPERTIES ALPHA_AA D_AA PROTEIN AROMATIC POLYMER 
M  END

$$$$



 35 35  0  0  0  0  0  0  0  0999 V2000
   -0.4038    4.5072   -1.0926 H   0  0  0  1  0  0  0  0  0  0  0  0
   -2.1909    4.7385   -0.0180 C   0  0  0  1  0  0  0  0  0  0  0  0
   -1.8917    4.7004   -2.4958 N   0  0  0  1  0  0  0  0  0  0  0  0
   -1.4229    4.2033   -1.2110 C   0  0  0  1  0  0  0  0  0  0  0  0
   -1.5936    5.0161    1.0212 O   0  0  0  1  0  0  0  0  0  0  0  0
   -3.4972    4.9640   -0.1941 N   0  0  0  1  0  0  0  0  0  0  0  0
   -2.8402    4.9246   -2.5987 H   0  0  0  1  0  0  0  0  0  0  0  0
   -1.0741    4.8617   -3.5401 C   0  0  0  1  0  0  0  0  0  0  0  0
   -4.3219    5.5958    0.8260 C   0  0  0  1  0  0  0  0  0  0  0  0
   -1.7045    5.4560   -4.7846 C   0  0  0  1  0  0  0  0  0  0  0  0
    0.1167    4.5537   -3.5124 O   0  0  0  1  0  0  0  0  0  0  0  0
   -3.9139    4.6946   -1.0392 H   0  0  0  1  0  0  0  0  0  0  0  0
   -4.6589    4.8559    1.5217 H   0  0  0  1  0  0  0  0  0  0  0  0
   -5.1671    6.0610    0.3633 H   0  0  0  1  0  0  0  0  0  0  0  0
   -3.7459    6.3347    1.3428 H   0  0  0  1  0  0  0  0  0  0  0  0
   -1.9774    6.4732   -4.5958 H   0  0  0  1  0  0  0  0  0  0  0  0
   -2.5778    4.8950   -5.0444 H   0  0  0  1  0  0  0  0  0  0  0  0
   -1.0030    5.4191   -5.5918 H   0  0  0  1  0  0  0  0  0  0  0  0
    3.2216    0.4880   -5.1144 F   0  0  0  1  0  0  0  0  0  0  0  0
    1.9269    0.2006   -5.2596 C   0  0  0  1  0  0  0  0  0  0  0  0
    1.6132    0.5187   -6.5165 F   0  0  0  1  0  0  0  0  0  0  0  0
    1.8271   -1.1265   -5.1740 F   0  0  0  1  0  0  0  0  0  0  0  0
    1.0571    0.9145   -4.2462 C   0  0  0  1  0  0  0  0  0  0  0  0
    1.6090    1.3292   -3.0441 C   0  0  0  1  0  0  0  0  0  0  0  0
    0.8049    1.8974   -2.0742 C   0  0  0  1  0  0  0  0  0  0  0  0
   -0.5525    2.0575   -2.3055 C   0  0  0  1  0  0  0  0  0  0  0  0
   -1.1026    1.6440   -3.5040 C   0  0  0  1  0  0  0  0  0  0  0  0
   -0.2963    1.0741   -4.4769 C   0  0  0  1  0  0  0  0  0  0  0  0
   -1.4307    2.6838   -1.2482 C   0  0  0  1  0  0  0  0  0  0  0  0
    2.6281    1.2128   -2.8722 H   0  0  0  1  0  0  0  0  0  0  0  0
    1.2182    2.2049   -1.1708 H   0  0  0  1  0  0  0  0  0  0  0  0
   -2.1216    1.7604   -3.6760 H   0  0  0  1  0  0  0  0  0  0  0  0
   -0.7097    0.7666   -5.3803 H   0  0  0  1  0  0  0  0  0  0  0  0
   -2.4366    2.3631   -1.4222 H   0  0  0  1  0  0  0  0  0  0  0  0
   -1.1026    2.3286   -0.2937 H   0  0  0  1  0  0  0  0  0  0  0  0
  1  4  1  0  0  0  0
  2  4  1  0  0  0  0
  2  5  2  0  0  0  0
  2  6  1  0  0  0  0
  3  4  1  0  0  0  0
  3  7  1  0  0  0  0
  3  8  1  0  0  0  0
  4 29  1  0  0  0  0
  6  9  1  0  0  0  0
  6 12  1  0  0  0  0
  8 10  1  0  0  0  0
  8 11  2  0  0  0  0
  9 13  1  0  0  0  0
  9 14  1  0  0  0  0
  9 15  1  0  0  0  0
 10 16  1  0  0  0  0
 10 17  1  0  0  0  0
 10 18  1  0  0  0  0
 19 20  1  0  0  0  0
 20 21  1  0  0  0  0
 20 22  1  0  0  0  0
 20 23  1  0  0  0  0
 23 24  4  0  0  0  0
 23 28  4  0  0  0  0
 24 25  4  0  0  0  0
 24 30  1  0  0  0  0
 25 26  4  0  0  0  0
 25 31  1  0  0  0  0
 26 27  4  0  0  0  0
 26 29  1  0  0  0  0
 27 28  4  0  0  0  0
 27 32  1  0  0  0  0
 28 33  1  0  0  0  0
 29 34  1  0  0  0  0
 29 35  1  0  0  0  0
M  END
> <BCLConfClusterSize>
1

> <ConfClashScore>
0 

> <ConfOneFourInteractionScore>
-0.965014 

> <ConfScore>
0.423019 

> <ConfScorePBest>
0.00396045 

> <ConfTolerance>
0.659666 

> <RosettaParamsInstructions>
M  ROOT 3
M  POLY_N_BB 3
M  POLY_CA_BB 4
M  POLY_C_BB 2
M  POLY_O_BB 5
M  POLY_IGNORE 9 10 11 12 13 14 15 16 17 18 
M  POLY_UPPER 6
M  POLY_LOWER 8
M  POLY_CHG 0
M  POLY_PROPERTIES ALPHA_AA D_AA PROTEIN AROMATIC POLYMER 
M  END

$$$$



 35 35  0  0  0  0  0  0  0  0999 V2000
   -2.3797    2.3749    0.5798 H   0  0  0  1  0  0  0  0  0  0  0  0
   -0.3204    2.1359    0.9171 C   0  0  0  1  0  0  0  0  0  0  0  0
   -1.8506    0.5183   -0.1304 N   0  0  0  1  0  0  0  0  0  0  0  0
   -1.5588    1.9446    0.0451 C   0  0  0  1  0  0  0  0  0  0  0  0
    0.3639    1.1634    1.2315 O   0  0  0  1  0  0  0  0  0  0  0  0
    0.0080    3.3940    1.2297 N   0  0  0  1  0  0  0  0  0  0  0  0
   -2.1543    0.2021   -1.0069 H   0  0  0  1  0  0  0  0  0  0  0  0
   -1.7169   -0.3650    0.8630 C   0  0  0  1  0  0  0  0  0  0  0  0
    1.1807    3.6610    2.0491 C   0  0  0  1  0  0  0  0  0  0  0  0
   -1.8199   -1.8487    0.4872 C   0  0  0  1  0  0  0  0  0  0  0  0
   -1.4439   -0.0429    2.0185 O   0  0  0  1  0  0  0  0  0  0  0  0
   -0.5422    4.1377    0.9063 H   0  0  0  1  0  0  0  0  0  0  0  0
    1.8644    2.8415    1.9719 H   0  0  0  1  0  0  0  0  0  0  0  0
    0.8825    3.7815    3.0696 H   0  0  0  1  0  0  0  0  0  0  0  0
    1.6574    4.5562    1.7081 H   0  0  0  1  0  0  0  0  0  0  0  0
   -1.2927   -2.0228   -0.4275 H   0  0  0  1  0  0  0  0  0  0  0  0
   -2.8488   -2.1140    0.3616 H   0  0  0  1  0  0  0  0  0  0  0  0
   -1.3899   -2.4441    1.2653 H   0  0  0  1  0  0  0  0  0  0  0  0
    1.1849   -0.2007   -6.3123 F   0  0  0  1  0  0  0  0  0  0  0  0
    1.9144    0.1936   -5.2672 C   0  0  0  1  0  0  0  0  0  0  0  0
    2.5054   -0.9029   -4.7901 F   0  0  0  1  0  0  0  0  0  0  0  0
    2.8890    0.9592   -5.7597 F   0  0  0  1  0  0  0  0  0  0  0  0
    1.0866    0.9103   -4.2185 C   0  0  0  1  0  0  0  0  0  0  0  0
    1.5223    1.0319   -2.9081 C   0  0  0  1  0  0  0  0  0  0  0  0
    0.7000    1.6063   -1.9572 C   0  0  0  1  0  0  0  0  0  0  0  0
   -0.5580    2.0657   -2.3147 C   0  0  0  1  0  0  0  0  0  0  0  0
   -0.9921    1.9444   -3.6212 C   0  0  0  1  0  0  0  0  0  0  0  0
   -0.1677    1.3684   -4.5751 C   0  0  0  1  0  0  0  0  0  0  0  0
   -1.4546    2.6988   -1.2772 C   0  0  0  1  0  0  0  0  0  0  0  0
    2.4676    0.6909   -2.6406 H   0  0  0  1  0  0  0  0  0  0  0  0
    1.0252    1.6939   -0.9732 H   0  0  0  1  0  0  0  0  0  0  0  0
   -1.9375    2.2855   -3.8887 H   0  0  0  1  0  0  0  0  0  0  0  0
   -0.4929    1.2808   -5.5591 H   0  0  0  1  0  0  0  0  0  0  0  0
   -1.0784    3.6787   -1.0695 H   0  0  0  1  0  0  0  0  0  0  0  0
   -2.4379    2.7743   -1.6924 H   0  0  0  1  0  0  0  0  0  0  0  0
  1  4  1  0  0  0  0
  2  4  1  0  0  0  0
  2  5  2  0  0  0  0
  2  6  1  0  0  0  0
  3  4  1  0  0  0  0
  3  7  1  0  0  0  0
  3  8  1  0  0  0  0
  4 29  1  0  0  0  0
  6  9  1  0  0  0  0
  6 12  1  0  0  0  0
  8 10  1  0  0  0  0
  8 11  2  0  0  0  0
  9 13  1  0  0  0  0
  9 14  1  0  0  0  0
  9 15  1  0  0  0  0
 10 16  1  0  0  0  0
 10 17  1  0  0  0  0
 10 18  1  0  0  0  0
 19 20  1  0  0  0  0
 20 21  1  0  0  0  0
 20 22  1  0  0  0  0
 20 23  1  0  0  0  0
 23 24  4  0  0  0  0
 23 28  4  0  0  0  0
 24 25  4  0  0  0  0
 24 30  1  0  0  0  0
 25 26  4  0  0  0  0
 25 31  1  0  0  0  0
 26 27  4  0  0  0  0
 26 29  1  0  0  0  0
 27 28  4  0  0  0  0
 27 32  1  0  0  0  0
 28 33  1  0  0  0  0
 29 34  1  0  0  0  0
 29 35  1  0  0  0  0
M  END
> <BCLConfClusterSize>
1

> <ConfClashScore>
0 

> <ConfOneFourInteractionScore>
-0.977982 

> <ConfScore>
0.42488 

> <ConfScorePBest>
0.00393197 

> <ConfTolerance>
0.639858 

> <RosettaParamsInstructions>
M  ROOT 3
M  POLY_N_BB 3
M  POLY_CA_BB 4
M  POLY_C_BB 2
M  POLY_O_BB 5
M  POLY_IGNORE 9 10 11 12 13 14 15 16 17 18 
M  POLY_UPPER 6
M  POLY_LOWER 8
M  POLY_CHG 0
M  POLY_PROPERTIES ALPHA_AA D_AA PROTEIN AROMATIC POLYMER 
M  END

$$$$



 35 35  0  0  0  0  0  0  0  0999 V2000
   -1.3478    0.8436   -0.1833 H   0  0  0  1  0  0  0  0  0  0  0  0
   -3.3845    1.3584   -0.5344 C   0  0  0  1  0  0  0  0  0  0  0  0
   -1.8947    2.3652    1.1254 N   0  0  0  1  0  0  0  0  0  0  0  0
   -1.9473    1.7299   -0.1828 C   0  0  0  1  0  0  0  0  0  0  0  0
   -4.2111    1.1920    0.3612 O   0  0  0  1  0  0  0  0  0  0  0  0
   -3.6949    1.3150   -1.8345 N   0  0  0  1  0  0  0  0  0  0  0  0
   -1.6736    3.3172    1.1981 H   0  0  0  1  0  0  0  0  0  0  0  0
   -2.1569    1.6265    2.2692 C   0  0  0  1  0  0  0  0  0  0  0  0
   -5.0048    0.8927   -2.3073 C   0  0  0  1  0  0  0  0  0  0  0  0
   -1.8108    2.2140    3.6187 C   0  0  0  1  0  0  0  0  0  0  0  0
   -2.6594    0.5242    2.1479 O   0  0  0  1  0  0  0  0  0  0  0  0
   -3.0166    1.5768   -2.4916 H   0  0  0  1  0  0  0  0  0  0  0  0
   -5.0434    0.9752   -3.3734 H   0  0  0  1  0  0  0  0  0  0  0  0
   -5.7583    1.5166   -1.8740 H   0  0  0  1  0  0  0  0  0  0  0  0
   -5.1758   -0.1243   -2.0221 H   0  0  0  1  0  0  0  0  0  0  0  0
   -2.2495    3.1857    3.7083 H   0  0  0  1  0  0  0  0  0  0  0  0
   -0.7477    2.2930    3.7110 H   0  0  0  1  0  0  0  0  0  0  0  0
   -2.1902    1.5789    4.3917 H   0  0  0  1  0  0  0  0  0  0  0  0
    1.4920    0.4095   -6.5177 F   0  0  0  1  0  0  0  0  0  0  0  0
    1.9081    0.1930   -5.2688 C   0  0  0  1  0  0  0  0  0  0  0  0
    1.9391   -1.1297   -5.0989 F   0  0  0  1  0  0  0  0  0  0  0  0
    3.1878    0.5771   -5.2521 F   0  0  0  1  0  0  0  0  0  0  0  0
    1.0768    0.9127   -4.2249 C   0  0  0  1  0  0  0  0  0  0  0  0
    1.5592    1.1449   -2.9463 C   0  0  0  1  0  0  0  0  0  0  0  0
    0.7396    1.7174   -1.9919 C   0  0  0  1  0  0  0  0  0  0  0  0
   -0.5630    2.0643   -2.3148 C   0  0  0  1  0  0  0  0  0  0  0  0
   -1.0439    1.8327   -3.5897 C   0  0  0  1  0  0  0  0  0  0  0  0
   -0.2221    1.2586   -4.5470 C   0  0  0  1  0  0  0  0  0  0  0  0
   -1.4137    2.6920   -1.2360 C   0  0  0  1  0  0  0  0  0  0  0  0
    2.5378    0.8883   -2.7051 H   0  0  0  1  0  0  0  0  0  0  0  0
    1.1002    1.8879   -1.0315 H   0  0  0  1  0  0  0  0  0  0  0  0
   -2.0225    2.0893   -3.8308 H   0  0  0  1  0  0  0  0  0  0  0  0
   -0.5828    1.0881   -5.5074 H   0  0  0  1  0  0  0  0  0  0  0  0
   -0.8222    3.4317   -0.7379 H   0  0  0  1  0  0  0  0  0  0  0  0
   -2.2509    3.1625   -1.7078 H   0  0  0  1  0  0  0  0  0  0  0  0
  1  4  1  0  0  0  0
  2  4  1  0  0  0  0
  2  5  2  0  0  0  0
  2  6  1  0  0  0  0
  3  4  1  0  0  0  0
  3  7  1  0  0  0  0
  3  8  1  0  0  0  0
  4 29  1  0  0  0  0
  6  9  1  0  0  0  0
  6 12  1  0  0  0  0
  8 10  1  0  0  0  0
  8 11  2  0  0  0  0
  9 13  1  0  0  0  0
  9 14  1  0  0  0  0
  9 15  1  0  0  0  0
 10 16  1  0  0  0  0
 10 17  1  0  0  0  0
 10 18  1  0  0  0  0
 19 20  1  0  0  0  0
 20 21  1  0  0  0  0
 20 22  1  0  0  0  0
 20 23  1  0  0  0  0
 23 24  4  0  0  0  0
 23 28  4  0  0  0  0
 24 25  4  0  0  0  0
 24 30  1  0  0  0  0
 25 26  4  0  0  0  0
 25 31  1  0  0  0  0
 26 27  4  0  0  0  0
 26 29  1  0  0  0  0
 27 28  4  0  0  0  0
 27 32  1  0  0  0  0
 28 33  1  0  0  0  0
 29 34  1  0  0  0  0
 29 35  1  0  0  0  0
M  END
> <BCLConfClusterSize>
1

> <ConfClashScore>
0 

> <ConfOneFourInteractionScore>
-0.947371 

> <ConfScore>
0.425646 

> <ConfScorePBest>
0.00390349 

> <ConfTolerance>
0.448287 

> <RosettaParamsInstructions>
M  ROOT 3
M  POLY_N_BB 3
M  POLY_CA_BB 4
M  POLY_C_BB 2
M  POLY_O_BB 5
M  POLY_IGNORE 9 10 11 12 13 14 15 16 17 18 
M  POLY_UPPER 6
M  POLY_LOWER 8
M  POLY_CHG 0
M  POLY_PROPERTIES ALPHA_AA D_AA PROTEIN AROMATIC POLYMER 
M  END

$$$$



 35 35  0  0  0  0  0  0  0  0999 V2000
   -0.8075    4.6818   -1.5686 H   0  0  0  1  0  0  0  0  0  0  0  0
   -2.3977    4.7190   -0.1732 C   0  0  0  1  0  0  0  0  0  0  0  0
   -2.5666    4.3434   -2.6027 N   0  0  0  1  0  0  0  0  0  0  0  0
   -1.7322    4.1631   -1.4241 C   0  0  0  1  0  0  0  0  0  0  0  0
   -1.7233    5.2242    0.7229 O   0  0  0  1  0  0  0  0  0  0  0  0
   -3.7345    4.6856   -0.1891 N   0  0  0  1  0  0  0  0  0  0  0  0
   -2.8715    3.5510   -3.0920 H   0  0  0  1  0  0  0  0  0  0  0  0
   -2.9350    5.5636   -3.0451 C   0  0  0  1  0  0  0  0  0  0  0  0
   -4.4949    5.3748    0.8428 C   0  0  0  1  0  0  0  0  0  0  0  0
   -3.7177    5.6456   -4.3412 C   0  0  0  1  0  0  0  0  0  0  0  0
   -2.6457    6.5813   -2.4173 O   0  0  0  1  0  0  0  0  0  0  0  0
   -4.2030    4.1961   -0.8970 H   0  0  0  1  0  0  0  0  0  0  0  0
   -4.2925    6.4244    0.7946 H   0  0  0  1  0  0  0  0  0  0  0  0
   -4.2112    5.0008    1.8043 H   0  0  0  1  0  0  0  0  0  0  0  0
   -5.5401    5.2059    0.6880 H   0  0  0  1  0  0  0  0  0  0  0  0
   -3.7941    4.6702   -4.7746 H   0  0  0  1  0  0  0  0  0  0  0  0
   -3.2130    6.2993   -5.0216 H   0  0  0  1  0  0  0  0  0  0  0  0
   -4.6981    6.0249   -4.1422 H   0  0  0  1  0  0  0  0  0  0  0  0
    1.4784   -1.0341   -5.5231 F   0  0  0  1  0  0  0  0  0  0  0  0
    1.9285    0.1925   -5.2529 C   0  0  0  1  0  0  0  0  0  0  0  0
    3.1905    0.0453   -4.8468 F   0  0  0  1  0  0  0  0  0  0  0  0
    1.9841    0.8353   -6.4201 F   0  0  0  1  0  0  0  0  0  0  0  0
    1.0714    0.9135   -4.2338 C   0  0  0  1  0  0  0  0  0  0  0  0
    1.4713    0.9477   -2.9069 C   0  0  0  1  0  0  0  0  0  0  0  0
    0.6520    1.5214   -1.9530 C   0  0  0  1  0  0  0  0  0  0  0  0
   -0.5670    2.0672   -2.3237 C   0  0  0  1  0  0  0  0  0  0  0  0
   -0.9656    2.0330   -3.6466 C   0  0  0  1  0  0  0  0  0  0  0  0
   -0.1441    1.4577   -4.6036 C   0  0  0  1  0  0  0  0  0  0  0  0
   -1.4204    2.6867   -1.2423 C   0  0  0  1  0  0  0  0  0  0  0  0
    2.3877    0.5418   -2.6293 H   0  0  0  1  0  0  0  0  0  0  0  0
    0.9502    1.5435   -0.9569 H   0  0  0  1  0  0  0  0  0  0  0  0
   -1.8820    2.4390   -3.9242 H   0  0  0  1  0  0  0  0  0  0  0  0
   -0.4423    1.4356   -5.5996 H   0  0  0  1  0  0  0  0  0  0  0  0
   -2.3484    2.1550   -1.2091 H   0  0  0  1  0  0  0  0  0  0  0  0
   -0.9082    2.5698   -0.3102 H   0  0  0  1  0  0  0  0  0  0  0  0
  1  4  1  0  0  0  0
  2  4  1  0  0  0  0
  2  5  2  0  0  0  0
  2  6  1  0  0  0  0
  3  4  1  0  0  0  0
  3  7  1  0  0  0  0
  3  8  1  0  0  0  0
  4 29  1  0  0  0  0
  6  9  1  0  0  0  0
  6 12  1  0  0  0  0
  8 10  1  0  0  0  0
  8 11  2  0  0  0  0
  9 13  1  0  0  0  0
  9 14  1  0  0  0  0
  9 15  1  0  0  0  0
 10 16  1  0  0  0  0
 10 17  1  0  0  0  0
 10 18  1  0  0  0  0
 19 20  1  0  0  0  0
 20 21  1  0  0  0  0
 20 22  1  0  0  0  0
 20 23  1  0  0  0  0
 23 24  4  0  0  0  0
 23 28  4  0  0  0  0
 24 25  4  0  0  0  0
 24 30  1  0  0  0  0
 25 26  4  0  0  0  0
 25 31  1  0  0  0  0
 26 27  4  0  0  0  0
 26 29  1  0  0  0  0
 27 28  4  0  0  0  0
 27 32  1  0  0  0  0
 28 33  1  0  0  0  0
 29 34  1  0  0  0  0
 29 35  1  0  0  0  0
M  END
> <BCLConfClusterSize>
1

> <ConfClashScore>
0 

> <ConfOneFourInteractionScore>
-0.956443 

> <ConfScore>
0.427412 

> <ConfScorePBest>
0.00387501 

> <ConfTolerance>
0.555196 

> <RosettaParamsInstructions>
M  ROOT 3
M  POLY_N_BB 3
M  POLY_CA_BB 4
M  POLY_C_BB 2
M  POLY_O_BB 5
M  POLY_IGNORE 9 10 11 12 13 14 15 16 17 18 
M  POLY_UPPER 6
M  POLY_LOWER 8
M  POLY_CHG 0
M  POLY_PROPERTIES ALPHA_AA D_AA PROTEIN AROMATIC POLYMER 
M  END

$$$$



 35 35  0  0  0  0  0  0  0  0999 V2000
   -0.4488    1.5936    0.3423 H   0  0  0  1  0  0  0  0  0  0  0  0
   -2.0422    0.3475   -0.2303 C   0  0  0  1  0  0  0  0  0  0  0  0
   -2.2044    2.3792    1.1038 N   0  0  0  1  0  0  0  0  0  0  0  0
   -1.4599    1.7258    0.0180 C   0  0  0  1  0  0  0  0  0  0  0  0
   -1.3074   -0.5740   -0.5822 O   0  0  0  1  0  0  0  0  0  0  0  0
   -3.3430    0.1862    0.0351 N   0  0  0  1  0  0  0  0  0  0  0  0
   -2.7251    3.1891    0.9212 H   0  0  0  1  0  0  0  0  0  0  0  0
   -2.1718    1.8553    2.3783 C   0  0  0  1  0  0  0  0  0  0  0  0
   -3.9959   -1.1124   -0.0376 C   0  0  0  1  0  0  0  0  0  0  0  0
   -2.8376    2.6774    3.4429 C   0  0  0  1  0  0  0  0  0  0  0  0
   -1.6262    0.7878    2.5852 O   0  0  0  1  0  0  0  0  0  0  0  0
   -3.8750    0.9696    0.2872 H   0  0  0  1  0  0  0  0  0  0  0  0
   -3.3091   -1.8750    0.2652 H   0  0  0  1  0  0  0  0  0  0  0  0
   -4.3124   -1.2965   -1.0430 H   0  0  0  1  0  0  0  0  0  0  0  0
   -4.8464   -1.1205    0.6117 H   0  0  0  1  0  0  0  0  0  0  0  0
   -3.8560    2.3669    3.5495 H   0  0  0  1  0  0  0  0  0  0  0  0
   -2.8071    3.7107    3.1666 H   0  0  0  1  0  0  0  0  0  0  0  0
   -2.3243    2.5409    4.3718 H   0  0  0  1  0  0  0  0  0  0  0  0
    3.0613   -0.2649   -4.7197 F   0  0  0  1  0  0  0  0  0  0  0  0
    1.9271    0.1920   -5.2533 C   0  0  0  1  0  0  0  0  0  0  0  0
    2.2835    0.9725   -6.2746 F   0  0  0  1  0  0  0  0  0  0  0  0
    1.3133   -0.8648   -5.7871 F   0  0  0  1  0  0  0  0  0  0  0  0
    1.0617    0.9167   -4.2437 C   0  0  0  1  0  0  0  0  0  0  0  0
    1.5788    1.2199   -2.9938 C   0  0  0  1  0  0  0  0  0  0  0  0
    0.7700    1.7969   -2.0329 C   0  0  0  1  0  0  0  0  0  0  0  0
   -0.5566    2.0772   -2.3207 C   0  0  0  1  0  0  0  0  0  0  0  0
   -1.0720    1.7748   -3.5670 C   0  0  0  1  0  0  0  0  0  0  0  0
   -0.2611    1.1961   -4.5308 C   0  0  0  1  0  0  0  0  0  0  0  0
   -1.4291    2.6220   -1.2147 C   0  0  0  1  0  0  0  0  0  0  0  0
    2.5753    1.0133   -2.7792 H   0  0  0  1  0  0  0  0  0  0  0  0
    1.1569    2.0207   -1.0939 H   0  0  0  1  0  0  0  0  0  0  0  0
   -2.0684    1.9814   -3.7816 H   0  0  0  1  0  0  0  0  0  0  0  0
   -0.6479    0.9723   -5.4699 H   0  0  0  1  0  0  0  0  0  0  0  0
   -1.0553    3.5828   -0.9280 H   0  0  0  1  0  0  0  0  0  0  0  0
   -2.4271    2.7236   -1.5869 H   0  0  0  1  0  0  0  0  0  0  0  0
  1  4  1  0  0  0  0
  2  4  1  0  0  0  0
  2  5  2  0  0  0  0
  2  6  1  0  0  0  0
  3  4  1  0  0  0  0
  3  7  1  0  0  0  0
  3  8  1  0  0  0  0
  4 29  1  0  0  0  0
  6  9  1  0  0  0  0
  6 12  1  0  0  0  0
  8 10  1  0  0  0  0
  8 11  2  0  0  0  0
  9 13  1  0  0  0  0
  9 14  1  0  0  0  0
  9 15  1  0  0  0  0
 10 16  1  0  0  0  0
 10 17  1  0  0  0  0
 10 18  1  0  0  0  0
 19 20  1  0  0  0  0
 20 21  1  0  0  0  0
 20 22  1  0  0  0  0
 20 23  1  0  0  0  0
 23 24  4  0  0  0  0
 23 28  4  0  0  0  0
 24 25  4  0  0  0  0
 24 30  1  0  0  0  0
 25 26  4  0  0  0  0
 25 31  1  0  0  0  0
 26 27  4  0  0  0  0
 26 29  1  0  0  0  0
 27 28  4  0  0  0  0
 27 32  1  0  0  0  0
 28 33  1  0  0  0  0
 29 34  1  0  0  0  0
 29 35  1  0  0  0  0
M  END
> <BCLConfClusterSize>
1

> <ConfClashScore>
0 

> <ConfOneFourInteractionScore>
-0.960318 

> <ConfScore>
0.429526 

> <ConfScorePBest>
0.00384653 

> <ConfTolerance>
0.565703 

> <RosettaParamsInstructions>
M  ROOT 3
M  POLY_N_BB 3
M  POLY_CA_BB 4
M  POLY_C_BB 2
M  POLY_O_BB 5
M  POLY_IGNORE 9 10 11 12 13 14 15 16 17 18 
M  POLY_UPPER 6
M  POLY_LOWER 8
M  POLY_CHG 0
M  POLY_PROPERTIES ALPHA_AA D_AA PROTEIN AROMATIC POLYMER 
M  END

$$$$



 35 35  0  0  0  0  0  0  0  0999 V2000
   -0.6428    4.6199   -1.5520 H   0  0  0  1  0  0  0  0  0  0  0  0
   -2.3132    4.8980   -0.3066 C   0  0  0  1  0  0  0  0  0  0  0  0
   -2.3530    4.4784   -2.7038 N   0  0  0  1  0  0  0  0  0  0  0  0
   -1.6226    4.1993   -1.4622 C   0  0  0  1  0  0  0  0  0  0  0  0
   -2.3170    6.1156   -0.2299 O   0  0  0  1  0  0  0  0  0  0  0  0
   -2.9647    4.0837    0.5305 N   0  0  0  1  0  0  0  0  0  0  0  0
   -2.6297    3.6990   -3.2295 H   0  0  0  1  0  0  0  0  0  0  0  0
   -2.6842    5.6759   -3.1997 C   0  0  0  1  0  0  0  0  0  0  0  0
   -3.5899    4.5644    1.7536 C   0  0  0  1  0  0  0  0  0  0  0  0
   -3.3339    5.7014   -4.5835 C   0  0  0  1  0  0  0  0  0  0  0  0
   -2.4108    6.7274   -2.6226 O   0  0  0  1  0  0  0  0  0  0  0  0
   -3.0232    3.1300    0.3128 H   0  0  0  1  0  0  0  0  0  0  0  0
   -2.9442    5.2720    2.2304 H   0  0  0  1  0  0  0  0  0  0  0  0
   -3.7638    3.7399    2.4129 H   0  0  0  1  0  0  0  0  0  0  0  0
   -4.5212    5.0349    1.5167 H   0  0  0  1  0  0  0  0  0  0  0  0
   -3.2913    4.7237   -5.0162 H   0  0  0  1  0  0  0  0  0  0  0  0
   -2.8096    6.3918   -5.2107 H   0  0  0  1  0  0  0  0  0  0  0  0
   -4.3553    6.0065   -4.4921 H   0  0  0  1  0  0  0  0  0  0  0  0
    1.2269   -0.1002   -6.3668 F   0  0  0  1  0  0  0  0  0  0  0  0
    1.9162    0.1984   -5.2643 C   0  0  0  1  0  0  0  0  0  0  0  0
    2.4071   -0.9678   -4.8418 F   0  0  0  1  0  0  0  0  0  0  0  0
    2.9550    0.9010   -5.6847 F   0  0  0  1  0  0  0  0  0  0  0  0
    1.0865    0.9141   -4.2164 C   0  0  0  1  0  0  0  0  0  0  0  0
    1.5295    1.0530   -2.9102 C   0  0  0  1  0  0  0  0  0  0  0  0
    0.7065    1.6257   -1.9588 C   0  0  0  1  0  0  0  0  0  0  0  0
   -0.5596    2.0658   -2.3118 C   0  0  0  1  0  0  0  0  0  0  0  0
   -1.0011    1.9272   -3.6142 C   0  0  0  1  0  0  0  0  0  0  0  0
   -0.1759    1.3529   -4.5685 C   0  0  0  1  0  0  0  0  0  0  0  0
   -1.4572    2.6970   -1.2739 C   0  0  0  1  0  0  0  0  0  0  0  0
    2.4809    0.7264   -2.6461 H   0  0  0  1  0  0  0  0  0  0  0  0
    1.0372    1.7263   -0.9779 H   0  0  0  1  0  0  0  0  0  0  0  0
   -1.9525    2.2538   -3.8782 H   0  0  0  1  0  0  0  0  0  0  0  0
   -0.5067    1.2523   -5.5494 H   0  0  0  1  0  0  0  0  0  0  0  0
   -2.4220    2.2381   -1.3335 H   0  0  0  1  0  0  0  0  0  0  0  0
   -1.0364    2.5193   -0.3063 H   0  0  0  1  0  0  0  0  0  0  0  0
  1  4  1  0  0  0  0
  2  4  1  0  0  0  0
  2  5  2  0  0  0  0
  2  6  1  0  0  0  0
  3  4  1  0  0  0  0
  3  7  1  0  0  0  0
  3  8  1  0  0  0  0
  4 29  1  0  0  0  0
  6  9  1  0  0  0  0
  6 12  1  0  0  0  0
  8 10  1  0  0  0  0
  8 11  2  0  0  0  0
  9 13  1  0  0  0  0
  9 14  1  0  0  0  0
  9 15  1  0  0  0  0
 10 16  1  0  0  0  0
 10 17  1  0  0  0  0
 10 18  1  0  0  0  0
 19 20  1  0  0  0  0
 20 21  1  0  0  0  0
 20 22  1  0  0  0  0
 20 23  1  0  0  0  0
 23 24  4  0  0  0  0
 23 28  4  0  0  0  0
 24 25  4  0  0  0  0
 24 30  1  0  0  0  0
 25 26  4  0  0  0  0
 25 31  1  0  0  0  0
 26 27  4  0  0  0  0
 26 29  1  0  0  0  0
 27 28  4  0  0  0  0
 27 32  1  0  0  0  0
 28 33  1  0  0  0  0
 29 34  1  0  0  0  0
 29 35  1  0  0  0  0
M  END
> <BCLConfClusterSize>
1

> <ConfClashScore>
0 

> <ConfOneFourInteractionScore>
-0.948666 

> <ConfScore>
0.430815 

> <ConfScorePBest>
0.00381805 

> <ConfTolerance>
0.681631 

> <RosettaParamsInstructions>
M  ROOT 3
M  POLY_N_BB 3
M  POLY_CA_BB 4
M  POLY_C_BB 2
M  POLY_O_BB 5
M  POLY_IGNORE 9 10 11 12 13 14 15 16 17 18 
M  POLY_UPPER 6
M  POLY_LOWER 8
M  POLY_CHG 0
M  POLY_PROPERTIES ALPHA_AA D_AA PROTEIN AROMATIC POLYMER 
M  END

$$$$



 35 35  0  0  0  0  0  0  0  0999 V2000
   -3.1947    2.8752   -2.4858 H   0  0  0  1  0  0  0  0  0  0  0  0
   -2.0105    4.5806   -2.8459 C   0  0  0  1  0  0  0  0  0  0  0  0
   -3.3729    4.1119   -0.8350 N   0  0  0  1  0  0  0  0  0  0  0  0
   -2.5681    3.5240   -1.9101 C   0  0  0  1  0  0  0  0  0  0  0  0
   -1.1238    5.3385   -2.4557 O   0  0  0  1  0  0  0  0  0  0  0  0
   -2.4673    4.5741   -4.1028 N   0  0  0  1  0  0  0  0  0  0  0  0
   -3.0861    3.9128    0.0808 H   0  0  0  1  0  0  0  0  0  0  0  0
   -4.4542    4.8892   -0.9618 C   0  0  0  1  0  0  0  0  0  0  0  0
   -2.0336    5.5487   -5.0926 C   0  0  0  1  0  0  0  0  0  0  0  0
   -5.2107    5.1756    0.3155 C   0  0  0  1  0  0  0  0  0  0  0  0
   -4.8247    5.3505   -2.0405 O   0  0  0  1  0  0  0  0  0  0  0  0
   -3.1168    3.8891   -4.3664 H   0  0  0  1  0  0  0  0  0  0  0  0
   -1.3264    6.2180   -4.6489 H   0  0  0  1  0  0  0  0  0  0  0  0
   -2.8796    6.1037   -5.4408 H   0  0  0  1  0  0  0  0  0  0  0  0
   -1.5760    5.0411   -5.9159 H   0  0  0  1  0  0  0  0  0  0  0  0
   -4.5264    5.2025    1.1376 H   0  0  0  1  0  0  0  0  0  0  0  0
   -5.9359    4.4063    0.4804 H   0  0  0  1  0  0  0  0  0  0  0  0
   -5.7053    6.1208    0.2324 H   0  0  0  1  0  0  0  0  0  0  0  0
    3.0810    0.8043   -5.4965 F   0  0  0  1  0  0  0  0  0  0  0  0
    1.9120    0.2011   -5.2738 C   0  0  0  1  0  0  0  0  0  0  0  0
    1.2999    0.1261   -6.4566 F   0  0  0  1  0  0  0  0  0  0  0  0
    2.1997   -1.0526   -4.9218 F   0  0  0  1  0  0  0  0  0  0  0  0
    1.0768    0.9197   -4.2322 C   0  0  0  1  0  0  0  0  0  0  0  0
    1.6285    1.3673   -3.0419 C   0  0  0  1  0  0  0  0  0  0  0  0
    0.8189    1.9320   -2.0744 C   0  0  0  1  0  0  0  0  0  0  0  0
   -0.5437    2.0556   -2.2964 C   0  0  0  1  0  0  0  0  0  0  0  0
   -1.0936    1.6092   -3.4832 C   0  0  0  1  0  0  0  0  0  0  0  0
   -0.2819    1.0429   -4.4537 C   0  0  0  1  0  0  0  0  0  0  0  0
   -1.4769    2.6690   -1.2793 C   0  0  0  1  0  0  0  0  0  0  0  0
    2.6515    1.2783   -2.8769 H   0  0  0  1  0  0  0  0  0  0  0  0
    1.2322    2.2642   -1.1797 H   0  0  0  1  0  0  0  0  0  0  0  0
   -2.1166    1.6983   -3.6482 H   0  0  0  1  0  0  0  0  0  0  0  0
   -0.6952    0.7107   -5.3484 H   0  0  0  1  0  0  0  0  0  0  0  0
   -1.9403    1.8809   -0.7234 H   0  0  0  1  0  0  0  0  0  0  0  0
   -0.9029    3.2832   -0.6174 H   0  0  0  1  0  0  0  0  0  0  0  0
  1  4  1  0  0  0  0
  2  4  1  0  0  0  0
  2  5  2  0  0  0  0
  2  6  1  0  0  0  0
  3  4  1  0  0  0  0
  3  7  1  0  0  0  0
  3  8  1  0  0  0  0
  4 29  1  0  0  0  0
  6  9  1  0  0  0  0
  6 12  1  0  0  0  0
  8 10  1  0  0  0  0
  8 11  2  0  0  0  0
  9 13  1  0  0  0  0
  9 14  1  0  0  0  0
  9 15  1  0  0  0  0
 10 16  1  0  0  0  0
 10 17  1  0  0  0  0
 10 18  1  0  0  0  0
 19 20  1  0  0  0  0
 20 21  1  0  0  0  0
 20 22  1  0  0  0  0
 20 23  1  0  0  0  0
 23 24  4  0  0  0  0
 23 28  4  0  0  0  0
 24 25  4  0  0  0  0
 24 30  1  0  0  0  0
 25 26  4  0  0  0  0
 25 31  1  0  0  0  0
 26 27  4  0  0  0  0
 26 29  1  0  0  0  0
 27 28  4  0  0  0  0
 27 32  1  0  0  0  0
 28 33  1  0  0  0  0
 29 34  1  0  0  0  0
 29 35  1  0  0  0  0
M  END
> <BCLConfClusterSize>
1

> <ConfClashScore>
0 

> <ConfOneFourInteractionScore>
-0.967818 

> <ConfScore>
0.430969 

> <ConfScorePBest>
0.00378957 

> <ConfTolerance>
0.588432 

> <RosettaParamsInstructions>
M  ROOT 3
M  POLY_N_BB 3
M  POLY_CA_BB 4
M  POLY_C_BB 2
M  POLY_O_BB 5
M  POLY_IGNORE 9 10 11 12 13 14 15 16 17 18 
M  POLY_UPPER 6
M  POLY_LOWER 8
M  POLY_CHG 0
M  POLY_PROPERTIES ALPHA_AA D_AA PROTEIN AROMATIC POLYMER 
M  END

$$$$



 35 35  0  0  0  0  0  0  0  0999 V2000
   -1.1294    1.0943    0.1062 H   0  0  0  1  0  0  0  0  0  0  0  0
   -2.9421    0.7060   -0.8847 C   0  0  0  1  0  0  0  0  0  0  0  0
   -2.5458    2.3551    0.9063 N   0  0  0  1  0  0  0  0  0  0  0  0
   -1.9635    1.6691   -0.2384 C   0  0  0  1  0  0  0  0  0  0  0  0
   -2.8905    0.4627   -2.0805 O   0  0  0  1  0  0  0  0  0  0  0  0
   -3.7920    0.0826   -0.0617 N   0  0  0  1  0  0  0  0  0  0  0  0
   -2.2176    2.1640    1.8097 H   0  0  0  1  0  0  0  0  0  0  0  0
   -3.5490    3.2647    0.7235 C   0  0  0  1  0  0  0  0  0  0  0  0
   -4.8220   -0.8231   -0.5483 C   0  0  0  1  0  0  0  0  0  0  0  0
   -3.9893    3.9463    2.0044 C   0  0  0  1  0  0  0  0  0  0  0  0
   -4.0262    3.4878   -0.3738 O   0  0  0  1  0  0  0  0  0  0  0  0
   -3.7188    0.2412    0.9026 H   0  0  0  1  0  0  0  0  0  0  0  0
   -5.1117   -0.5361   -1.5375 H   0  0  0  1  0  0  0  0  0  0  0  0
   -5.6723   -0.7769    0.0996 H   0  0  0  1  0  0  0  0  0  0  0  0
   -4.4393   -1.8222   -0.5646 H   0  0  0  1  0  0  0  0  0  0  0  0
   -4.7639    3.3711    2.4670 H   0  0  0  1  0  0  0  0  0  0  0  0
   -4.3585    4.9249    1.7787 H   0  0  0  1  0  0  0  0  0  0  0  0
   -3.1563    4.0239    2.6714 H   0  0  0  1  0  0  0  0  0  0  0  0
    3.2282    0.4691   -5.1177 F   0  0  0  1  0  0  0  0  0  0  0  0
    1.9277    0.2080   -5.2608 C   0  0  0  1  0  0  0  0  0  0  0  0
    1.6143    0.5020   -6.5236 F   0  0  0  1  0  0  0  0  0  0  0  0
    1.8240   -1.1190   -5.1761 F   0  0  0  1  0  0  0  0  0  0  0  0
    1.0572    0.9192   -4.2461 C   0  0  0  1  0  0  0  0  0  0  0  0
    1.6087    1.3319   -3.0431 C   0  0  0  1  0  0  0  0  0  0  0  0
    0.8040    1.8977   -2.0722 C   0  0  0  1  0  0  0  0  0  0  0  0
   -0.5534    2.0575   -2.3034 C   0  0  0  1  0  0  0  0  0  0  0  0
   -1.1030    1.6460   -3.5029 C   0  0  0  1  0  0  0  0  0  0  0  0
   -0.2962    1.0785   -4.4768 C   0  0  0  1  0  0  0  0  0  0  0  0
   -1.4322    2.6811   -1.2450 C   0  0  0  1  0  0  0  0  0  0  0  0
    2.6278    1.2157   -2.8712 H   0  0  0  1  0  0  0  0  0  0  0  0
    1.2170    2.2037   -1.1681 H   0  0  0  1  0  0  0  0  0  0  0  0
   -2.1221    1.7622   -3.6748 H   0  0  0  1  0  0  0  0  0  0  0  0
   -0.7092    0.7725   -5.3809 H   0  0  0  1  0  0  0  0  0  0  0  0
   -0.8613    3.4174   -0.7188 H   0  0  0  1  0  0  0  0  0  0  0  0
   -2.2640    3.1513   -1.7267 H   0  0  0  1  0  0  0  0  0  0  0  0
  1  4  1  0  0  0  0
  2  4  1  0  0  0  0
  2  5  2  0  0  0  0
  2  6  1  0  0  0  0
  3  4  1  0  0  0  0
  3  7  1  0  0  0  0
  3  8  1  0  0  0  0
  4 29  1  0  0  0  0
  6  9  1  0  0  0  0
  6 12  1  0  0  0  0
  8 10  1  0  0  0  0
  8 11  2  0  0  0  0
  9 13  1  0  0  0  0
  9 14  1  0  0  0  0
  9 15  1  0  0  0  0
 10 16  1  0  0  0  0
 10 17  1  0  0  0  0
 10 18  1  0  0  0  0
 19 20  1  0  0  0  0
 20 21  1  0  0  0  0
 20 22  1  0  0  0  0
 20 23  1  0  0  0  0
 23 24  4  0  0  0  0
 23 28  4  0  0  0  0
 24 25  4  0  0  0  0
 24 30  1  0  0  0  0
 25 26  4  0  0  0  0
 25 31  1  0  0  0  0
 26 27  4  0  0  0  0
 26 29  1  0  0  0  0
 27 28  4  0  0  0  0
 27 32  1  0  0  0  0
 28 33  1  0  0  0  0
 29 34  1  0  0  0  0
 29 35  1  0  0  0  0
M  END
> <BCLConfClusterSize>
1

> <ConfClashScore>
0 

> <ConfOneFourInteractionScore>
-0.956972 

> <ConfScore>
0.433384 

> <ConfScorePBest>
0.00376109 

> <ConfTolerance>
0.441855 

> <RosettaParamsInstructions>
M  ROOT 3
M  POLY_N_BB 3
M  POLY_CA_BB 4
M  POLY_C_BB 2
M  POLY_O_BB 5
M  POLY_IGNORE 9 10 11 12 13 14 15 16 17 18 
M  POLY_UPPER 6
M  POLY_LOWER 8
M  POLY_CHG 0
M  POLY_PROPERTIES ALPHA_AA D_AA PROTEIN AROMATIC POLYMER 
M  END

$$$$



 35 35  0  0  0  0  0  0  0  0999 V2000
   -3.1232    1.4383   -1.3471 H   0  0  0  1  0  0  0  0  0  0  0  0
   -3.1561    2.2449    0.5866 C   0  0  0  1  0  0  0  0  0  0  0  0
   -1.6741    0.4616   -0.2513 N   0  0  0  1  0  0  0  0  0  0  0  0
   -2.3927    1.6990   -0.6100 C   0  0  0  1  0  0  0  0  0  0  0  0
   -3.2769    3.4479    0.7500 O   0  0  0  1  0  0  0  0  0  0  0  0
   -3.7319    1.3139    1.3548 N   0  0  0  1  0  0  0  0  0  0  0  0
   -1.9371   -0.3794   -0.6803 H   0  0  0  1  0  0  0  0  0  0  0  0
   -0.6394    0.4470    0.6716 C   0  0  0  1  0  0  0  0  0  0  0  0
   -4.3374    1.6317    2.6394 C   0  0  0  1  0  0  0  0  0  0  0  0
   -0.0402   -0.8706    1.0764 C   0  0  0  1  0  0  0  0  0  0  0  0
   -0.2491    1.5072    1.1255 O   0  0  0  1  0  0  0  0  0  0  0  0
   -3.7465    0.3854    1.0418 H   0  0  0  1  0  0  0  0  0  0  0  0
   -3.6298    2.1549    3.2481 H   0  0  0  1  0  0  0  0  0  0  0  0
   -4.6289    0.7265    3.1297 H   0  0  0  1  0  0  0  0  0  0  0  0
   -5.1987    2.2475    2.4849 H   0  0  0  1  0  0  0  0  0  0  0  0
    0.2161   -0.8425    2.1148 H   0  0  0  1  0  0  0  0  0  0  0  0
    0.8402   -1.0548    0.4968 H   0  0  0  1  0  0  0  0  0  0  0  0
   -0.7503   -1.6526    0.9056 H   0  0  0  1  0  0  0  0  0  0  0  0
    1.2007   -0.3738   -6.2217 F   0  0  0  1  0  0  0  0  0  0  0  0
    1.9258    0.1938   -5.2562 C   0  0  0  1  0  0  0  0  0  0  0  0
    2.6550   -0.7830   -4.7145 F   0  0  0  1  0  0  0  0  0  0  0  0
    2.7873    1.0088   -5.8663 F   0  0  0  1  0  0  0  0  0  0  0  0
    1.0700    0.9136   -4.2350 C   0  0  0  1  0  0  0  0  0  0  0  0
    1.5052    1.0050   -2.9221 C   0  0  0  1  0  0  0  0  0  0  0  0
    0.6911    1.5770   -1.9626 C   0  0  0  1  0  0  0  0  0  0  0  0
   -0.5581    2.0640   -2.3142 C   0  0  0  1  0  0  0  0  0  0  0  0
   -0.9918    1.9728   -3.6233 C   0  0  0  1  0  0  0  0  0  0  0  0
   -0.1756    1.3992   -4.5858 C   0  0  0  1  0  0  0  0  0  0  0  0
   -1.4458    2.6945   -1.2673 C   0  0  0  1  0  0  0  0  0  0  0  0
    2.4441    0.6432   -2.6590 H   0  0  0  1  0  0  0  0  0  0  0  0
    1.0159    1.6419   -0.9768 H   0  0  0  1  0  0  0  0  0  0  0  0
   -1.9307    2.3346   -3.8864 H   0  0  0  1  0  0  0  0  0  0  0  0
   -0.5004    1.3343   -5.5716 H   0  0  0  1  0  0  0  0  0  0  0  0
   -0.8254    3.1257   -0.5096 H   0  0  0  1  0  0  0  0  0  0  0  0
   -2.0280    3.4625   -1.7321 H   0  0  0  1  0  0  0  0  0  0  0  0
  1  4  1  0  0  0  0
  2  4  1  0  0  0  0
  2  5  2  0  0  0  0
  2  6  1  0  0  0  0
  3  4  1  0  0  0  0
  3  7  1  0  0  0  0
  3  8  1  0  0  0  0
  4 29  1  0  0  0  0
  6  9  1  0  0  0  0
  6 12  1  0  0  0  0
  8 10  1  0  0  0  0
  8 11  2  0  0  0  0
  9 13  1  0  0  0  0
  9 14  1  0  0  0  0
  9 15  1  0  0  0  0
 10 16  1  0  0  0  0
 10 17  1  0  0  0  0
 10 18  1  0  0  0  0
 19 20  1  0  0  0  0
 20 21  1  0  0  0  0
 20 22  1  0  0  0  0
 20 23  1  0  0  0  0
 23 24  4  0  0  0  0
 23 28  4  0  0  0  0
 24 25  4  0  0  0  0
 24 30  1  0  0  0  0
 25 26  4  0  0  0  0
 25 31  1  0  0  0  0
 26 27  4  0  0  0  0
 26 29  1  0  0  0  0
 27 28  4  0  0  0  0
 27 32  1  0  0  0  0
 28 33  1  0  0  0  0
 29 34  1  0  0  0  0
 29 35  1  0  0  0  0
M  END
> <BCLConfClusterSize>
1

> <ConfClashScore>
0 

> <ConfOneFourInteractionScore>
-0.938304 

> <ConfScore>
0.435114 

> <ConfScorePBest>
0.00373261 

> <ConfTolerance>
0.48216 

> <RosettaParamsInstructions>
M  ROOT 3
M  POLY_N_BB 3
M  POLY_CA_BB 4
M  POLY_C_BB 2
M  POLY_O_BB 5
M  POLY_IGNORE 9 10 11 12 13 14 15 16 17 18 
M  POLY_UPPER 6
M  POLY_LOWER 8
M  POLY_CHG 0
M  POLY_PROPERTIES ALPHA_AA D_AA PROTEIN AROMATIC POLYMER 
M  END

$$$$



 35 35  0  0  0  0  0  0  0  0999 V2000
   -2.7391    1.0463   -1.0584 H   0  0  0  1  0  0  0  0  0  0  0  0
   -2.9827    2.2640    0.6537 C   0  0  0  1  0  0  0  0  0  0  0  0
   -1.1025    0.7474    0.1698 N   0  0  0  1  0  0  0  0  0  0  0  0
   -2.1087    1.6222   -0.4135 C   0  0  0  1  0  0  0  0  0  0  0  0
   -2.5330    3.1086    1.4127 O   0  0  0  1  0  0  0  0  0  0  0  0
   -4.2743    1.9173    0.6501 N   0  0  0  1  0  0  0  0  0  0  0  0
   -0.4064    1.1212    0.7496 H   0  0  0  1  0  0  0  0  0  0  0  0
   -1.1257   -0.5642   -0.0834 C   0  0  0  1  0  0  0  0  0  0  0  0
   -5.1295    2.4479    1.7012 C   0  0  0  1  0  0  0  0  0  0  0  0
   -0.1212   -1.4370    0.6695 C   0  0  0  1  0  0  0  0  0  0  0  0
   -1.8562   -1.0575   -0.9417 O   0  0  0  1  0  0  0  0  0  0  0  0
   -4.6346    1.3229   -0.0407 H   0  0  0  1  0  0  0  0  0  0  0  0
   -5.8780    1.7254    1.9514 H   0  0  0  1  0  0  0  0  0  0  0  0
   -5.6009    3.3452    1.3582 H   0  0  0  1  0  0  0  0  0  0  0  0
   -4.5386    2.6634    2.5668 H   0  0  0  1  0  0  0  0  0  0  0  0
    0.8635   -1.0377    0.5441 H   0  0  0  1  0  0  0  0  0  0  0  0
   -0.1537   -2.4336    0.2814 H   0  0  0  1  0  0  0  0  0  0  0  0
   -0.3705   -1.4506    1.7100 H   0  0  0  1  0  0  0  0  0  0  0  0
    1.2606   -0.8259   -5.8263 F   0  0  0  1  0  0  0  0  0  0  0  0
    1.9159    0.1915   -5.2645 C   0  0  0  1  0  0  0  0  0  0  0  0
    3.0412   -0.3210   -4.7639 F   0  0  0  1  0  0  0  0  0  0  0  0
    2.2838    0.9966   -6.2639 F   0  0  0  1  0  0  0  0  0  0  0  0
    1.0873    0.9080   -4.2163 C   0  0  0  1  0  0  0  0  0  0  0  0
    1.4814    0.9570   -2.8882 C   0  0  0  1  0  0  0  0  0  0  0  0
    0.6549    1.5351   -1.9431 C   0  0  0  1  0  0  0  0  0  0  0  0
   -0.5656    2.0705   -2.3241 C   0  0  0  1  0  0  0  0  0  0  0  0
   -0.9584    2.0215   -3.6483 C   0  0  0  1  0  0  0  0  0  0  0  0
   -0.1296    1.4419   -4.5963 C   0  0  0  1  0  0  0  0  0  0  0  0
   -1.4270    2.6953   -1.2522 C   0  0  0  1  0  0  0  0  0  0  0  0
    2.3989    0.5589   -2.6029 H   0  0  0  1  0  0  0  0  0  0  0  0
    0.9487    1.5683   -0.9461 H   0  0  0  1  0  0  0  0  0  0  0  0
   -1.8758    2.4196   -3.9336 H   0  0  0  1  0  0  0  0  0  0  0  0
   -0.4235    1.4086   -5.5934 H   0  0  0  1  0  0  0  0  0  0  0  0
   -0.8136    3.2998   -0.6173 H   0  0  0  1  0  0  0  0  0  0  0  0
   -2.1739    3.3064   -1.7144 H   0  0  0  1  0  0  0  0  0  0  0  0
  1  4  1  0  0  0  0
  2  4  1  0  0  0  0
  2  5  2  0  0  0  0
  2  6  1  0  0  0  0
  3  4  1  0  0  0  0
  3  7  1  0  0  0  0
  3  8  1  0  0  0  0
  4 29  1  0  0  0  0
  6  9  1  0  0  0  0
  6 12  1  0  0  0  0
  8 10  1  0  0  0  0
  8 11  2  0  0  0  0
  9 13  1  0  0  0  0
  9 14  1  0  0  0  0
  9 15  1  0  0  0  0
 10 16  1  0  0  0  0
 10 17  1  0  0  0  0
 10 18  1  0  0  0  0
 19 20  1  0  0  0  0
 20 21  1  0  0  0  0
 20 22  1  0  0  0  0
 20 23  1  0  0  0  0
 23 24  4  0  0  0  0
 23 28  4  0  0  0  0
 24 25  4  0  0  0  0
 24 30  1  0  0  0  0
 25 26  4  0  0  0  0
 25 31  1  0  0  0  0
 26 27  4  0  0  0  0
 26 29  1  0  0  0  0
 27 28  4  0  0  0  0
 27 32  1  0  0  0  0
 28 33  1  0  0  0  0
 29 34  1  0  0  0  0
 29 35  1  0  0  0  0
M  END
> <BCLConfClusterSize>
1

> <ConfClashScore>
0 

> <ConfOneFourInteractionScore>
-0.979134 

> <ConfScore>
0.436939 

> <ConfScorePBest>
0.00370413 

> <ConfTolerance>
0.625444 

> <RosettaParamsInstructions>
M  ROOT 3
M  POLY_N_BB 3
M  POLY_CA_BB 4
M  POLY_C_BB 2
M  POLY_O_BB 5
M  POLY_IGNORE 9 10 11 12 13 14 15 16 17 18 
M  POLY_UPPER 6
M  POLY_LOWER 8
M  POLY_CHG 0
M  POLY_PROPERTIES ALPHA_AA D_AA PROTEIN AROMATIC POLYMER 
M  END

$$$$



 35 35  0  0  0  0  0  0  0  0999 V2000
   -0.9458    4.7213   -1.5600 H   0  0  0  1  0  0  0  0  0  0  0  0
   -2.7504    4.6847   -0.4821 C   0  0  0  1  0  0  0  0  0  0  0  0
   -2.4350    4.1942   -2.8760 N   0  0  0  1  0  0  0  0  0  0  0  0
   -1.8345    4.1253   -1.5550 C   0  0  0  1  0  0  0  0  0  0  0  0
   -3.7140    5.3650   -0.7987 O   0  0  0  1  0  0  0  0  0  0  0  0
   -2.4925    4.3226    0.7791 N   0  0  0  1  0  0  0  0  0  0  0  0
   -1.9180    4.5858   -3.6107 H   0  0  0  1  0  0  0  0  0  0  0  0
   -3.6676    3.7423   -3.1241 C   0  0  0  1  0  0  0  0  0  0  0  0
   -3.2933    4.6993    1.9344 C   0  0  0  1  0  0  0  0  0  0  0  0
   -4.1895    3.9910   -4.5211 C   0  0  0  1  0  0  0  0  0  0  0  0
   -4.3491    3.1591   -2.2825 O   0  0  0  1  0  0  0  0  0  0  0  0
   -1.7050    3.7613    0.9374 H   0  0  0  1  0  0  0  0  0  0  0  0
   -4.1519    5.2493    1.6098 H   0  0  0  1  0  0  0  0  0  0  0  0
   -2.7075    5.3081    2.5910 H   0  0  0  1  0  0  0  0  0  0  0  0
   -3.6094    3.8177    2.4517 H   0  0  0  1  0  0  0  0  0  0  0  0
   -4.0711    5.0255   -4.7678 H   0  0  0  1  0  0  0  0  0  0  0  0
   -5.2263    3.7303   -4.5659 H   0  0  0  1  0  0  0  0  0  0  0  0
   -3.6405    3.3933   -5.2184 H   0  0  0  1  0  0  0  0  0  0  0  0
    1.2016   -0.4840   -6.1462 F   0  0  0  1  0  0  0  0  0  0  0  0
    1.9271    0.1931   -5.2545 C   0  0  0  1  0  0  0  0  0  0  0  0
    2.7506   -0.6936   -4.6933 F   0  0  0  1  0  0  0  0  0  0  0  0
    2.6970    1.0267   -5.9553 F   0  0  0  1  0  0  0  0  0  0  0  0
    1.0692    0.9138   -4.2358 C   0  0  0  1  0  0  0  0  0  0  0  0
    1.4937    0.9922   -2.9185 C   0  0  0  1  0  0  0  0  0  0  0  0
    0.6767    1.5651   -1.9622 C   0  0  0  1  0  0  0  0  0  0  0  0
   -0.5649    2.0661   -2.3212 C   0  0  0  1  0  0  0  0  0  0  0  0
   -0.9881    1.9879   -3.6346 C   0  0  0  1  0  0  0  0  0  0  0  0
   -0.1688    1.4133   -4.5939 C   0  0  0  1  0  0  0  0  0  0  0  0
   -1.4149    2.6869   -1.2380 C   0  0  0  1  0  0  0  0  0  0  0  0
    2.4269    0.6199   -2.6499 H   0  0  0  1  0  0  0  0  0  0  0  0
    0.9935    1.6203   -0.9732 H   0  0  0  1  0  0  0  0  0  0  0  0
   -1.9213    2.3601   -3.9033 H   0  0  0  1  0  0  0  0  0  0  0  0
   -0.4856    1.3581   -5.5829 H   0  0  0  1  0  0  0  0  0  0  0  0
   -2.2972    2.0940   -1.1155 H   0  0  0  1  0  0  0  0  0  0  0  0
   -0.8561    2.6884   -0.3255 H   0  0  0  1  0  0  0  0  0  0  0  0
  1  4  1  0  0  0  0
  2  4  1  0  0  0  0
  2  5  2  0  0  0  0
  2  6  1  0  0  0  0
  3  4  1  0  0  0  0
  3  7  1  0  0  0  0
  3  8  1  0  0  0  0
  4 29  1  0  0  0  0
  6  9  1  0  0  0  0
  6 12  1  0  0  0  0
  8 10  1  0  0  0  0
  8 11  2  0  0  0  0
  9 13  1  0  0  0  0
  9 14  1  0  0  0  0
  9 15  1  0  0  0  0
 10 16  1  0  0  0  0
 10 17  1  0  0  0  0
 10 18  1  0  0  0  0
 19 20  1  0  0  0  0
 20 21  1  0  0  0  0
 20 22  1  0  0  0  0
 20 23  1  0  0  0  0
 23 24  4  0  0  0  0
 23 28  4  0  0  0  0
 24 25  4  0  0  0  0
 24 30  1  0  0  0  0
 25 26  4  0  0  0  0
 25 31  1  0  0  0  0
 26 27  4  0  0  0  0
 26 29  1  0  0  0  0
 27 28  4  0  0  0  0
 27 32  1  0  0  0  0
 28 33  1  0  0  0  0
 29 34  1  0  0  0  0
 29 35  1  0  0  0  0
M  END
> <BCLConfClusterSize>
1

> <ConfClashScore>
0 

> <ConfOneFourInteractionScore>
-0.935823 

> <ConfScore>
0.437867 

> <ConfScorePBest>
0.00367564 

> <ConfTolerance>
0.662365 

> <RosettaParamsInstructions>
M  ROOT 3
M  POLY_N_BB 3
M  POLY_CA_BB 4
M  POLY_C_BB 2
M  POLY_O_BB 5
M  POLY_IGNORE 9 10 11 12 13 14 15 16 17 18 
M  POLY_UPPER 6
M  POLY_LOWER 8
M  POLY_CHG 0
M  POLY_PROPERTIES ALPHA_AA D_AA PROTEIN AROMATIC POLYMER 
M  END

$$$$



 35 35  0  0  0  0  0  0  0  0999 V2000
    0.0493    3.9186   -0.4269 H   0  0  0  1  0  0  0  0  0  0  0  0
   -1.7875    4.4234    0.5001 C   0  0  0  1  0  0  0  0  0  0  0  0
   -1.0521    5.0380   -1.7720 N   0  0  0  1  0  0  0  0  0  0  0  0
   -0.9717    4.0298   -0.7273 C   0  0  0  1  0  0  0  0  0  0  0  0
   -2.8957    4.9442    0.3854 O   0  0  0  1  0  0  0  0  0  0  0  0
   -1.2694    4.0897    1.6906 N   0  0  0  1  0  0  0  0  0  0  0  0
   -1.2699    4.7742   -2.6904 H   0  0  0  1  0  0  0  0  0  0  0  0
   -0.8298    6.3233   -1.4826 C   0  0  0  1  0  0  0  0  0  0  0  0
   -1.9455    4.3897    2.9447 C   0  0  0  1  0  0  0  0  0  0  0  0
   -0.7682    7.2691   -2.6751 C   0  0  0  1  0  0  0  0  0  0  0  0
   -0.6830    6.7318   -0.3419 O   0  0  0  1  0  0  0  0  0  0  0  0
   -0.4055    3.6278    1.7177 H   0  0  0  1  0  0  0  0  0  0  0  0
   -2.4793    5.3122    2.8510 H   0  0  0  1  0  0  0  0  0  0  0  0
   -1.2218    4.4747    3.7283 H   0  0  0  1  0  0  0  0  0  0  0  0
   -2.6321    3.6025    3.1766 H   0  0  0  1  0  0  0  0  0  0  0  0
   -0.4436    8.2350   -2.3485 H   0  0  0  1  0  0  0  0  0  0  0  0
   -1.7396    7.3500   -3.1164 H   0  0  0  1  0  0  0  0  0  0  0  0
   -0.0782    6.8868   -3.3980 H   0  0  0  1  0  0  0  0  0  0  0  0
    1.9985   -1.1187   -5.0282 F   0  0  0  1  0  0  0  0  0  0  0  0
    1.9283    0.1942   -5.2544 C   0  0  0  1  0  0  0  0  0  0  0  0
    3.1862    0.6377   -5.2691 F   0  0  0  1  0  0  0  0  0  0  0  0
    1.4679    0.3348   -6.4981 F   0  0  0  1  0  0  0  0  0  0  0  0
    1.0714    0.9137   -4.2339 C   0  0  0  1  0  0  0  0  0  0  0  0
    1.4961    0.9880   -2.9164 C   0  0  0  1  0  0  0  0  0  0  0  0
    0.6799    1.5598   -1.9587 C   0  0  0  1  0  0  0  0  0  0  0  0
   -0.5609    2.0637   -2.3164 C   0  0  0  1  0  0  0  0  0  0  0  0
   -0.9841    1.9895   -3.6300 C   0  0  0  1  0  0  0  0  0  0  0  0
   -0.1657    1.4161   -4.5907 C   0  0  0  1  0  0  0  0  0  0  0  0
   -1.4508    2.6939   -1.2713 C   0  0  0  1  0  0  0  0  0  0  0  0
    2.4286    0.6136   -2.6486 H   0  0  0  1  0  0  0  0  0  0  0  0
    0.9967    1.6120   -0.9695 H   0  0  0  1  0  0  0  0  0  0  0  0
   -1.9167    2.3639   -3.8977 H   0  0  0  1  0  0  0  0  0  0  0  0
   -0.4826    1.3639   -5.5799 H   0  0  0  1  0  0  0  0  0  0  0  0
   -2.4171    2.8421   -1.7064 H   0  0  0  1  0  0  0  0  0  0  0  0
   -1.5295    2.0123   -0.4502 H   0  0  0  1  0  0  0  0  0  0  0  0
  1  4  1  0  0  0  0
  2  4  1  0  0  0  0
  2  5  2  0  0  0  0
  2  6  1  0  0  0  0
  3  4  1  0  0  0  0
  3  7  1  0  0  0  0
  3  8  1  0  0  0  0
  4 29  1  0  0  0  0
  6  9  1  0  0  0  0
  6 12  1  0  0  0  0
  8 10  1  0  0  0  0
  8 11  2  0  0  0  0
  9 13  1  0  0  0  0
  9 14  1  0  0  0  0
  9 15  1  0  0  0  0
 10 16  1  0  0  0  0
 10 17  1  0  0  0  0
 10 18  1  0  0  0  0
 19 20  1  0  0  0  0
 20 21  1  0  0  0  0
 20 22  1  0  0  0  0
 20 23  1  0  0  0  0
 23 24  4  0  0  0  0
 23 28  4  0  0  0  0
 24 25  4  0  0  0  0
 24 30  1  0  0  0  0
 25 26  4  0  0  0  0
 25 31  1  0  0  0  0
 26 27  4  0  0  0  0
 26 29  1  0  0  0  0
 27 28  4  0  0  0  0
 27 32  1  0  0  0  0
 28 33  1  0  0  0  0
 29 34  1  0  0  0  0
 29 35  1  0  0  0  0
M  END
> <BCLConfClusterSize>
1

> <ConfClashScore>
0 

> <ConfOneFourInteractionScore>
-0.985807 

> <ConfScore>
0.446723 

> <ConfScorePBest>
0.00364716 

> <ConfTolerance>
0.612781 

> <RosettaParamsInstructions>
M  ROOT 3
M  POLY_N_BB 3
M  POLY_CA_BB 4
M  POLY_C_BB 2
M  POLY_O_BB 5
M  POLY_IGNORE 9 10 11 12 13 14 15 16 17 18 
M  POLY_UPPER 6
M  POLY_LOWER 8
M  POLY_CHG 0
M  POLY_PROPERTIES ALPHA_AA D_AA PROTEIN AROMATIC POLYMER 
M  END

$$$$



 35 35  0  0  0  0  0  0  0  0999 V2000
   -1.2915    4.6679   -2.0011 H   0  0  0  1  0  0  0  0  0  0  0  0
    0.1402    4.4662   -0.4748 C   0  0  0  1  0  0  0  0  0  0  0  0
   -2.3020    4.7293   -0.2042 N   0  0  0  1  0  0  0  0  0  0  0  0
   -1.2376    4.1873   -1.0465 C   0  0  0  1  0  0  0  0  0  0  0  0
    1.0667    4.7658   -1.2268 O   0  0  0  1  0  0  0  0  0  0  0  0
    0.2541    4.4522    0.8604 N   0  0  0  1  0  0  0  0  0  0  0  0
   -2.0863    5.0065    0.7107 H   0  0  0  1  0  0  0  0  0  0  0  0
   -3.5588    4.8600   -0.6382 C   0  0  0  1  0  0  0  0  0  0  0  0
    1.4861    4.6958    1.5934 C   0  0  0  1  0  0  0  0  0  0  0  0
   -4.5697    5.2779    0.3992 C   0  0  0  1  0  0  0  0  0  0  0  0
   -3.8884    4.6570   -1.8038 O   0  0  0  1  0  0  0  0  0  0  0  0
   -0.5538    4.2636    1.3821 H   0  0  0  1  0  0  0  0  0  0  0  0
    2.2114    3.9548    1.3291 H   0  0  0  1  0  0  0  0  0  0  0  0
    1.2916    4.6452    2.6443 H   0  0  0  1  0  0  0  0  0  0  0  0
    1.8620    5.6666    1.3460 H   0  0  0  1  0  0  0  0  0  0  0  0
   -5.5222    5.4200   -0.0672 H   0  0  0  1  0  0  0  0  0  0  0  0
   -4.2555    6.1938    0.8543 H   0  0  0  1  0  0  0  0  0  0  0  0
   -4.6489    4.5164    1.1466 H   0  0  0  1  0  0  0  0  0  0  0  0
    1.2228   -0.0595   -6.3800 F   0  0  0  1  0  0  0  0  0  0  0  0
    1.9143    0.1941   -5.2676 C   0  0  0  1  0  0  0  0  0  0  0  0
    2.3746   -0.9821   -4.8385 F   0  0  0  1  0  0  0  0  0  0  0  0
    2.9824    0.8984   -5.6443 F   0  0  0  1  0  0  0  0  0  0  0  0
    1.0859    0.9111   -4.2195 C   0  0  0  1  0  0  0  0  0  0  0  0
    1.5322    1.0550   -2.9150 C   0  0  0  1  0  0  0  0  0  0  0  0
    0.7106    1.6286   -1.9630 C   0  0  0  1  0  0  0  0  0  0  0  0
   -0.5575    2.0649   -2.3139 C   0  0  0  1  0  0  0  0  0  0  0  0
   -1.0023    1.9213   -3.6145 C   0  0  0  1  0  0  0  0  0  0  0  0
   -0.1785    1.3461   -4.5694 C   0  0  0  1  0  0  0  0  0  0  0  0
   -1.4537    2.6971   -1.2753 C   0  0  0  1  0  0  0  0  0  0  0  0
    2.4851    0.7313   -2.6526 H   0  0  0  1  0  0  0  0  0  0  0  0
    1.0438    1.7329   -0.9834 H   0  0  0  1  0  0  0  0  0  0  0  0
   -1.9552    2.2450   -3.8769 H   0  0  0  1  0  0  0  0  0  0  0  0
   -0.5117    1.2418   -5.5491 H   0  0  0  1  0  0  0  0  0  0  0  0
   -2.4682    2.5542   -1.5837 H   0  0  0  1  0  0  0  0  0  0  0  0
   -1.2885    2.1932   -0.3459 H   0  0  0  1  0  0  0  0  0  0  0  0
  1  4  1  0  0  0  0
  2  4  1  0  0  0  0
  2  5  2  0  0  0  0
  2  6  1  0  0  0  0
  3  4  1  0  0  0  0
  3  7  1  0  0  0  0
  3  8  1  0  0  0  0
  4 29  1  0  0  0  0
  6  9  1  0  0  0  0
  6 12  1  0  0  0  0
  8 10  1  0  0  0  0
  8 11  2  0  0  0  0
  9 13  1  0  0  0  0
  9 14  1  0  0  0  0
  9 15  1  0  0  0  0
 10 16  1  0  0  0  0
 10 17  1  0  0  0  0
 10 18  1  0  0  0  0
 19 20  1  0  0  0  0
 20 21  1  0  0  0  0
 20 22  1  0  0  0  0
 20 23  1  0  0  0  0
 23 24  4  0  0  0  0
 23 28  4  0  0  0  0
 24 25  4  0  0  0  0
 24 30  1  0  0  0  0
 25 26  4  0  0  0  0
 25 31  1  0  0  0  0
 26 27  4  0  0  0  0
 26 29  1  0  0  0  0
 27 28  4  0  0  0  0
 27 32  1  0  0  0  0
 28 33  1  0  0  0  0
 29 34  1  0  0  0  0
 29 35  1  0  0  0  0
M  END
> <BCLConfClusterSize>
1

> <ConfClashScore>
0 

> <ConfOneFourInteractionScore>
-0.962347 

> <ConfScore>
0.447041 

> <ConfScorePBest>
0.00361868 

> <ConfTolerance>
0.572524 

> <RosettaParamsInstructions>
M  ROOT 3
M  POLY_N_BB 3
M  POLY_CA_BB 4
M  POLY_C_BB 2
M  POLY_O_BB 5
M  POLY_IGNORE 9 10 11 12 13 14 15 16 17 18 
M  POLY_UPPER 6
M  POLY_LOWER 8
M  POLY_CHG 0
M  POLY_PROPERTIES ALPHA_AA D_AA PROTEIN AROMATIC POLYMER 
M  END

$$$$



 35 35  0  0  0  0  0  0  0  0999 V2000
   -0.1607    4.3348   -0.9593 H   0  0  0  1  0  0  0  0  0  0  0  0
   -1.8429    4.6239    0.2864 C   0  0  0  1  0  0  0  0  0  0  0  0
   -1.7439    4.9795   -2.1198 N   0  0  0  1  0  0  0  0  0  0  0  0
   -1.2169    4.1772   -1.0260 C   0  0  0  1  0  0  0  0  0  0  0  0
   -2.4959    3.8330    0.9495 O   0  0  0  1  0  0  0  0  0  0  0  0
   -1.5662    5.8673    0.6935 N   0  0  0  1  0  0  0  0  0  0  0  0
   -1.1218    5.3325   -2.7898 H   0  0  0  1  0  0  0  0  0  0  0  0
   -3.0461    5.2517   -2.2423 C   0  0  0  1  0  0  0  0  0  0  0  0
   -2.0065    6.3792    1.9827 C   0  0  0  1  0  0  0  0  0  0  0  0
   -3.4297    6.1169   -3.4270 C   0  0  0  1  0  0  0  0  0  0  0  0
   -3.8943    4.8359   -1.4544 O   0  0  0  1  0  0  0  0  0  0  0  0
   -1.0491    6.4542    0.1032 H   0  0  0  1  0  0  0  0  0  0  0  0
   -2.9645    5.9672    2.2224 H   0  0  0  1  0  0  0  0  0  0  0  0
   -2.0785    7.4458    1.9370 H   0  0  0  1  0  0  0  0  0  0  0  0
   -1.3001    6.1009    2.7368 H   0  0  0  1  0  0  0  0  0  0  0  0
   -4.4817    6.3109   -3.4019 H   0  0  0  1  0  0  0  0  0  0  0  0
   -3.1827    5.6076   -4.3351 H   0  0  0  1  0  0  0  0  0  0  0  0
   -2.8953    7.0427   -3.3801 H   0  0  0  1  0  0  0  0  0  0  0  0
    1.6040   -1.0935   -5.3748 F   0  0  0  1  0  0  0  0  0  0  0  0
    1.9281    0.1929   -5.2538 C   0  0  0  1  0  0  0  0  0  0  0  0
    3.2223    0.2229   -4.9472 F   0  0  0  1  0  0  0  0  0  0  0  0
    1.8204    0.7223   -6.4758 F   0  0  0  1  0  0  0  0  0  0  0  0
    1.0730    0.9129   -4.2322 C   0  0  0  1  0  0  0  0  0  0  0  0
    1.4783    0.9505   -2.9071 C   0  0  0  1  0  0  0  0  0  0  0  0
    0.6612    1.5232   -1.9507 C   0  0  0  1  0  0  0  0  0  0  0  0
   -0.5610    2.0648   -2.3173 C   0  0  0  1  0  0  0  0  0  0  0  0
   -0.9649    2.0272   -3.6385 C   0  0  0  1  0  0  0  0  0  0  0  0
   -0.1457    1.4529   -4.5979 C   0  0  0  1  0  0  0  0  0  0  0  0
   -1.4517    2.6960   -1.2734 C   0  0  0  1  0  0  0  0  0  0  0  0
    2.3970    0.5478   -2.6327 H   0  0  0  1  0  0  0  0  0  0  0  0
    0.9634    1.5478   -0.9559 H   0  0  0  1  0  0  0  0  0  0  0  0
   -1.8837    2.4300   -3.9129 H   0  0  0  1  0  0  0  0  0  0  0  0
   -0.4479    1.4283   -5.5927 H   0  0  0  1  0  0  0  0  0  0  0  0
   -2.4672    2.5706   -1.5865 H   0  0  0  1  0  0  0  0  0  0  0  0
   -1.2961    2.1784   -0.3500 H   0  0  0  1  0  0  0  0  0  0  0  0
  1  4  1  0  0  0  0
  2  4  1  0  0  0  0
  2  5  2  0  0  0  0
  2  6  1  0  0  0  0
  3  4  1  0  0  0  0
  3  7  1  0  0  0  0
  3  8  1  0  0  0  0
  4 29  1  0  0  0  0
  6  9  1  0  0  0  0
  6 12  1  0  0  0  0
  8 10  1  0  0  0  0
  8 11  2  0  0  0  0
  9 13  1  0  0  0  0
  9 14  1  0  0  0  0
  9 15  1  0  0  0  0
 10 16  1  0  0  0  0
 10 17  1  0  0  0  0
 10 18  1  0  0  0  0
 19 20  1  0  0  0  0
 20 21  1  0  0  0  0
 20 22  1  0  0  0  0
 20 23  1  0  0  0  0
 23 24  4  0  0  0  0
 23 28  4  0  0  0  0
 24 25  4  0  0  0  0
 24 30  1  0  0  0  0
 25 26  4  0  0  0  0
 25 31  1  0  0  0  0
 26 27  4  0  0  0  0
 26 29  1  0  0  0  0
 27 28  4  0  0  0  0
 27 32  1  0  0  0  0
 28 33  1  0  0  0  0
 29 34  1  0  0  0  0
 29 35  1  0  0  0  0
M  END
> <BCLConfClusterSize>
1

> <ConfClashScore>
0 

> <ConfOneFourInteractionScore>
-0.972663 

> <ConfScore>
0.453635 

> <ConfScorePBest>
0.0035902 

> <ConfTolerance>
0.543994 

> <RosettaParamsInstructions>
M  ROOT 3
M  POLY_N_BB 3
M  POLY_CA_BB 4
M  POLY_C_BB 2
M  POLY_O_BB 5
M  POLY_IGNORE 9 10 11 12 13 14 15 16 17 18 
M  POLY_UPPER 6
M  POLY_LOWER 8
M  POLY_CHG 0
M  POLY_PROPERTIES ALPHA_AA D_AA PROTEIN AROMATIC POLYMER 
M  END

$$$$



 35 35  0  0  0  0  0  0  0  0999 V2000
   -2.0241    4.3960   -2.3896 H   0  0  0  1  0  0  0  0  0  0  0  0
   -0.2032    4.9281   -1.4842 C   0  0  0  1  0  0  0  0  0  0  0  0
   -2.4348    4.8365   -0.4270 N   0  0  0  1  0  0  0  0  0  0  0  0
   -1.5646    4.2124   -1.4409 C   0  0  0  1  0  0  0  0  0  0  0  0
    0.3837    5.2080   -0.4530 O   0  0  0  1  0  0  0  0  0  0  0  0
    0.3002    5.1245   -2.7408 N   0  0  0  1  0  0  0  0  0  0  0  0
   -3.3407    5.0901   -0.7016 H   0  0  0  1  0  0  0  0  0  0  0  0
   -2.0732    5.0878    0.8666 C   0  0  0  1  0  0  0  0  0  0  0  0
    1.5346    5.8579   -2.9779 C   0  0  0  1  0  0  0  0  0  0  0  0
   -3.1151    5.8400    1.6459 C   0  0  0  1  0  0  0  0  0  0  0  0
   -1.0006    4.7249    1.3208 O   0  0  0  1  0  0  0  0  0  0  0  0
   -0.1874    4.7586   -3.5081 H   0  0  0  1  0  0  0  0  0  0  0  0
    1.5625    6.7230   -2.3488 H   0  0  0  1  0  0  0  0  0  0  0  0
    1.5776    6.1612   -4.0031 H   0  0  0  1  0  0  0  0  0  0  0  0
    2.3712    5.2287   -2.7562 H   0  0  0  1  0  0  0  0  0  0  0  0
   -3.9868    5.9740    1.0401 H   0  0  0  1  0  0  0  0  0  0  0  0
   -2.7272    6.7963    1.9287 H   0  0  0  1  0  0  0  0  0  0  0  0
   -3.3730    5.2854    2.5239 H   0  0  0  1  0  0  0  0  0  0  0  0
    2.3068   -1.0152   -4.8447 F   0  0  0  1  0  0  0  0  0  0  0  0
    1.9271    0.1958   -5.2563 C   0  0  0  1  0  0  0  0  0  0  0  0
    3.0476    0.8606   -5.5423 F   0  0  0  1  0  0  0  0  0  0  0  0
    1.2938    0.0145   -6.4159 F   0  0  0  1  0  0  0  0  0  0  0  0
    1.0712    0.9139   -4.2340 C   0  0  0  1  0  0  0  0  0  0  0  0
    1.5215    1.0319   -2.9283 C   0  0  0  1  0  0  0  0  0  0  0  0
    0.7093    1.6022   -1.9663 C   0  0  0  1  0  0  0  0  0  0  0  0
   -0.5533    2.0610   -2.3082 C   0  0  0  1  0  0  0  0  0  0  0  0
   -1.0020    1.9433   -3.6101 C   0  0  0  1  0  0  0  0  0  0  0  0
   -0.1877    1.3714   -4.5751 C   0  0  0  1  0  0  0  0  0  0  0  0
   -1.4825    2.6979   -1.3021 C   0  0  0  1  0  0  0  0  0  0  0  0
    2.4703    0.6913   -2.6726 H   0  0  0  1  0  0  0  0  0  0  0  0
    1.0455    1.6871   -0.9858 H   0  0  0  1  0  0  0  0  0  0  0  0
   -1.9508    2.2839   -3.8657 H   0  0  0  1  0  0  0  0  0  0  0  0
   -0.5239    1.2865   -5.5555 H   0  0  0  1  0  0  0  0  0  0  0  0
   -2.4624    2.2899   -1.4375 H   0  0  0  1  0  0  0  0  0  0  0  0
   -1.1313    2.4646   -0.3187 H   0  0  0  1  0  0  0  0  0  0  0  0
  1  4  1  0  0  0  0
  2  4  1  0  0  0  0
  2  5  2  0  0  0  0
  2  6  1  0  0  0  0
  3  4  1  0  0  0  0
  3  7  1  0  0  0  0
  3  8  1  0  0  0  0
  4 29  1  0  0  0  0
  6  9  1  0  0  0  0
  6 12  1  0  0  0  0
  8 10  1  0  0  0  0
  8 11  2  0  0  0  0
  9 13  1  0  0  0  0
  9 14  1  0  0  0  0
  9 15  1  0  0  0  0
 10 16  1  0  0  0  0
 10 17  1  0  0  0  0
 10 18  1  0  0  0  0
 19 20  1  0  0  0  0
 20 21  1  0  0  0  0
 20 22  1  0  0  0  0
 20 23  1  0  0  0  0
 23 24  4  0  0  0  0
 23 28  4  0  0  0  0
 24 25  4  0  0  0  0
 24 30  1  0  0  0  0
 25 26  4  0  0  0  0
 25 31  1  0  0  0  0
 26 27  4  0  0  0  0
 26 29  1  0  0  0  0
 27 28  4  0  0  0  0
 27 32  1  0  0  0  0
 28 33  1  0  0  0  0
 29 34  1  0  0  0  0
 29 35  1  0  0  0  0
M  END
> <BCLConfClusterSize>
1

> <ConfClashScore>
0 

> <ConfOneFourInteractionScore>
-0.987258 

> <ConfScore>
0.465096 

> <ConfScorePBest>
0.00356172 

> <ConfTolerance>
0.445886 

> <RosettaParamsInstructions>
M  ROOT 3
M  POLY_N_BB 3
M  POLY_CA_BB 4
M  POLY_C_BB 2
M  POLY_O_BB 5
M  POLY_IGNORE 9 10 11 12 13 14 15 16 17 18 
M  POLY_UPPER 6
M  POLY_LOWER 8
M  POLY_CHG 0
M  POLY_PROPERTIES ALPHA_AA D_AA PROTEIN AROMATIC POLYMER 
M  END

$$$$



 35 35  0  0  0  0  0  0  0  0999 V2000
   -2.0722    4.3597   -2.2453 H   0  0  0  1  0  0  0  0  0  0  0  0
   -0.4472    4.9102   -1.0362 C   0  0  0  1  0  0  0  0  0  0  0  0
   -2.8004    4.4855   -0.3382 N   0  0  0  1  0  0  0  0  0  0  0  0
   -1.7358    4.1164   -1.2591 C   0  0  0  1  0  0  0  0  0  0  0  0
    0.5383    4.3860   -0.5406 O   0  0  0  1  0  0  0  0  0  0  0  0
   -0.4384    6.1672   -1.4925 N   0  0  0  1  0  0  0  0  0  0  0  0
   -3.0663    3.8679    0.3747 H   0  0  0  1  0  0  0  0  0  0  0  0
   -3.4221    5.6763   -0.4638 C   0  0  0  1  0  0  0  0  0  0  0  0
    0.8059    6.9175   -1.4110 C   0  0  0  1  0  0  0  0  0  0  0  0
   -4.4826    5.9244    0.5912 C   0  0  0  1  0  0  0  0  0  0  0  0
   -3.1768    6.5053   -1.3388 O   0  0  0  1  0  0  0  0  0  0  0  0
   -1.2469    6.5716   -1.8710 H   0  0  0  1  0  0  0  0  0  0  0  0
    1.6305    6.2374   -1.3625 H   0  0  0  1  0  0  0  0  0  0  0  0
    0.7963    7.5293   -0.5332 H   0  0  0  1  0  0  0  0  0  0  0  0
    0.9057    7.5374   -2.2774 H   0  0  0  1  0  0  0  0  0  0  0  0
   -5.4487    5.9334    0.1313 H   0  0  0  1  0  0  0  0  0  0  0  0
   -4.3031    6.8684    1.0619 H   0  0  0  1  0  0  0  0  0  0  0  0
   -4.4444    5.1465    1.3248 H   0  0  0  1  0  0  0  0  0  0  0  0
    1.4112    0.3211   -6.4967 F   0  0  0  1  0  0  0  0  0  0  0  0
    1.9113    0.1899   -5.2668 C   0  0  0  1  0  0  0  0  0  0  0  0
    1.9909   -1.1213   -5.0347 F   0  0  0  1  0  0  0  0  0  0  0  0
    3.1668    0.6360   -5.3247 F   0  0  0  1  0  0  0  0  0  0  0  0
    1.0847    0.9154   -4.2232 C   0  0  0  1  0  0  0  0  0  0  0  0
    1.5635    1.1334   -2.9407 C   0  0  0  1  0  0  0  0  0  0  0  0
    0.7469    1.7120   -1.9874 C   0  0  0  1  0  0  0  0  0  0  0  0
   -0.5489    2.0792   -2.3151 C   0  0  0  1  0  0  0  0  0  0  0  0
   -1.0261    1.8619   -3.5939 C   0  0  0  1  0  0  0  0  0  0  0  0
   -0.2074    1.2816   -4.5501 C   0  0  0  1  0  0  0  0  0  0  0  0
   -1.4772    2.6280   -1.2576 C   0  0  0  1  0  0  0  0  0  0  0  0
    2.5370    0.8615   -2.6958 H   0  0  0  1  0  0  0  0  0  0  0  0
    1.1048    1.8718   -1.0241 H   0  0  0  1  0  0  0  0  0  0  0  0
   -1.9996    2.1337   -3.8387 H   0  0  0  1  0  0  0  0  0  0  0  0
   -0.5652    1.1217   -5.5134 H   0  0  0  1  0  0  0  0  0  0  0  0
   -2.4216    2.1389   -1.3754 H   0  0  0  1  0  0  0  0  0  0  0  0
   -1.0611    2.3764   -0.3045 H   0  0  0  1  0  0  0  0  0  0  0  0
  1  4  1  0  0  0  0
  2  4  1  0  0  0  0
  2  5  2  0  0  0  0
  2  6  1  0  0  0  0
  3  4  1  0  0  0  0
  3  7  1  0  0  0  0
  3  8  1  0  0  0  0
  4 29  1  0  0  0  0
  6  9  1  0  0  0  0
  6 12  1  0  0  0  0
  8 10  1  0  0  0  0
  8 11  2  0  0  0  0
  9 13  1  0  0  0  0
  9 14  1  0  0  0  0
  9 15  1  0  0  0  0
 10 16  1  0  0  0  0
 10 17  1  0  0  0  0
 10 18  1  0  0  0  0
 19 20  1  0  0  0  0
 20 21  1  0  0  0  0
 20 22  1  0  0  0  0
 20 23  1  0  0  0  0
 23 24  4  0  0  0  0
 23 28  4  0  0  0  0
 24 25  4  0  0  0  0
 24 30  1  0  0  0  0
 25 26  4  0  0  0  0
 25 31  1  0  0  0  0
 26 27  4  0  0  0  0
 26 29  1  0  0  0  0
 27 28  4  0  0  0  0
 27 32  1  0  0  0  0
 28 33  1  0  0  0  0
 29 34  1  0  0  0  0
 29 35  1  0  0  0  0
M  END
> <BCLConfClusterSize>
1

> <ConfClashScore>
0 

> <ConfOneFourInteractionScore>
-0.979134 

> <ConfScore>
0.466288 

> <ConfScorePBest>
0.00353324 

> <ConfTolerance>
0.637181 

> <RosettaParamsInstructions>
M  ROOT 3
M  POLY_N_BB 3
M  POLY_CA_BB 4
M  POLY_C_BB 2
M  POLY_O_BB 5
M  POLY_IGNORE 9 10 11 12 13 14 15 16 17 18 
M  POLY_UPPER 6
M  POLY_LOWER 8
M  POLY_CHG 0
M  POLY_PROPERTIES ALPHA_AA D_AA PROTEIN AROMATIC POLYMER 
M  END

$$$$



 35 35  0  0  0  0  0  0  0  0999 V2000
   -1.9701    4.5879   -0.5249 H   0  0  0  1  0  0  0  0  0  0  0  0
   -2.4399    4.7158   -2.5606 C   0  0  0  1  0  0  0  0  0  0  0  0
   -0.1936    4.7896   -1.5532 N   0  0  0  1  0  0  0  0  0  0  0  0
   -1.5491    4.2190   -1.4368 C   0  0  0  1  0  0  0  0  0  0  0  0
   -3.3500    4.0178   -3.0051 O   0  0  0  1  0  0  0  0  0  0  0  0
   -2.2343    5.9753   -2.9697 N   0  0  0  1  0  0  0  0  0  0  0  0
    0.4753    4.3142   -2.0890 H   0  0  0  1  0  0  0  0  0  0  0  0
    0.1538    5.9320   -0.9537 C   0  0  0  1  0  0  0  0  0  0  0  0
   -3.0712    6.6123   -3.9755 C   0  0  0  1  0  0  0  0  0  0  0  0
    1.6178    6.3268   -0.9587 C   0  0  0  1  0  0  0  0  0  0  0  0
   -0.6436    6.6845   -0.3968 O   0  0  0  1  0  0  0  0  0  0  0  0
   -1.4947    6.4851   -2.5779 H   0  0  0  1  0  0  0  0  0  0  0  0
   -3.1699    5.9639   -4.8209 H   0  0  0  1  0  0  0  0  0  0  0  0
   -2.6206    7.5328   -4.2831 H   0  0  0  1  0  0  0  0  0  0  0  0
   -4.0384    6.8087   -3.5621 H   0  0  0  1  0  0  0  0  0  0  0  0
    1.8260    6.9371   -0.1049 H   0  0  0  1  0  0  0  0  0  0  0  0
    1.8359    6.8757   -1.8509 H   0  0  0  1  0  0  0  0  0  0  0  0
    2.2245    5.4461   -0.9238 H   0  0  0  1  0  0  0  0  0  0  0  0
    1.1984   -0.5418   -6.1003 F   0  0  0  1  0  0  0  0  0  0  0  0
    1.9248    0.1940   -5.2571 C   0  0  0  1  0  0  0  0  0  0  0  0
    2.8032   -0.6391   -4.6970 F   0  0  0  1  0  0  0  0  0  0  0  0
    2.6349    1.0341   -6.0111 F   0  0  0  1  0  0  0  0  0  0  0  0
    1.0725    0.9131   -4.2325 C   0  0  0  1  0  0  0  0  0  0  0  0
    1.4993    0.9805   -2.9154 C   0  0  0  1  0  0  0  0  0  0  0  0
    0.6870    1.5520   -1.9542 C   0  0  0  1  0  0  0  0  0  0  0  0
   -0.5522    2.0625   -2.3082 C   0  0  0  1  0  0  0  0  0  0  0  0
   -0.9776    1.9953   -3.6215 C   0  0  0  1  0  0  0  0  0  0  0  0
   -0.1631    1.4221   -4.5856 C   0  0  0  1  0  0  0  0  0  0  0  0
   -1.4802    2.7034   -1.3035 C   0  0  0  1  0  0  0  0  0  0  0  0
    2.4307    0.6011   -2.6505 H   0  0  0  1  0  0  0  0  0  0  0  0
    1.0055    1.5990   -0.9653 H   0  0  0  1  0  0  0  0  0  0  0  0
   -1.9090    2.3747   -3.8864 H   0  0  0  1  0  0  0  0  0  0  0  0
   -0.4816    1.3752   -5.5745 H   0  0  0  1  0  0  0  0  0  0  0  0
   -2.4629    2.3041   -1.4445 H   0  0  0  1  0  0  0  0  0  0  0  0
   -1.1350    2.4634   -0.3195 H   0  0  0  1  0  0  0  0  0  0  0  0
  1  4  1  0  0  0  0
  2  4  1  0  0  0  0
  2  5  2  0  0  0  0
  2  6  1  0  0  0  0
  3  4  1  0  0  0  0
  3  7  1  0  0  0  0
  3  8  1  0  0  0  0
  4 29  1  0  0  0  0
  6  9  1  0  0  0  0
  6 12  1  0  0  0  0
  8 10  1  0  0  0  0
  8 11  2  0  0  0  0
  9 13  1  0  0  0  0
  9 14  1  0  0  0  0
  9 15  1  0  0  0  0
 10 16  1  0  0  0  0
 10 17  1  0  0  0  0
 10 18  1  0  0  0  0
 19 20  1  0  0  0  0
 20 21  1  0  0  0  0
 20 22  1  0  0  0  0
 20 23  1  0  0  0  0
 23 24  4  0  0  0  0
 23 28  4  0  0  0  0
 24 25  4  0  0  0  0
 24 30  1  0  0  0  0
 25 26  4  0  0  0  0
 25 31  1  0  0  0  0
 26 27  4  0  0  0  0
 26 29  1  0  0  0  0
 27 28  4  0  0  0  0
 27 32  1  0  0  0  0
 28 33  1  0  0  0  0
 29 34  1  0  0  0  0
 29 35  1  0  0  0  0
M  END
> <BCLConfClusterSize>
1

> <ConfClashScore>
0 

> <ConfOneFourInteractionScore>
-0.931578 

> <ConfScore>
0.466592 

> <ConfScorePBest>
0.00350476 

> <ConfTolerance>
0.602848 

> <RosettaParamsInstructions>
M  ROOT 3
M  POLY_N_BB 3
M  POLY_CA_BB 4
M  POLY_C_BB 2
M  POLY_O_BB 5
M  POLY_IGNORE 9 10 11 12 13 14 15 16 17 18 
M  POLY_UPPER 6
M  POLY_LOWER 8
M  POLY_CHG 0
M  POLY_PROPERTIES ALPHA_AA D_AA PROTEIN AROMATIC POLYMER 
M  END

$$$$



 35 35  0  0  0  0  0  0  0  0999 V2000
   -1.8397    4.6398   -1.9072 H   0  0  0  1  0  0  0  0  0  0  0  0
    0.1532    4.6503   -1.2383 C   0  0  0  1  0  0  0  0  0  0  0  0
   -1.8866    4.6449    0.1523 N   0  0  0  1  0  0  0  0  0  0  0  0
   -1.2895    4.1999   -1.1018 C   0  0  0  1  0  0  0  0  0  0  0  0
    0.6298    4.8379   -2.3470 O   0  0  0  1  0  0  0  0  0  0  0  0
    0.8150    4.9044   -0.1043 N   0  0  0  1  0  0  0  0  0  0  0  0
   -1.3404    5.2082    0.7395 H   0  0  0  1  0  0  0  0  0  0  0  0
   -3.1221    4.3425    0.5610 C   0  0  0  1  0  0  0  0  0  0  0  0
    2.2071    5.3285   -0.0950 C   0  0  0  1  0  0  0  0  0  0  0  0
   -3.5332    4.9218    1.9006 C   0  0  0  1  0  0  0  0  0  0  0  0
   -3.8913    3.6405   -0.0941 O   0  0  0  1  0  0  0  0  0  0  0  0
    0.3462    4.8014    0.7501 H   0  0  0  1  0  0  0  0  0  0  0  0
    2.3448    6.1176   -0.8044 H   0  0  0  1  0  0  0  0  0  0  0  0
    2.8334    4.5012   -0.3560 H   0  0  0  1  0  0  0  0  0  0  0  0
    2.4665    5.6785    0.8823 H   0  0  0  1  0  0  0  0  0  0  0  0
   -2.7811    5.6023    2.2414 H   0  0  0  1  0  0  0  0  0  0  0  0
   -3.6462    4.1302    2.6117 H   0  0  0  1  0  0  0  0  0  0  0  0
   -4.4624    5.4416    1.7942 H   0  0  0  1  0  0  0  0  0  0  0  0
    1.4788    0.4141   -6.5098 F   0  0  0  1  0  0  0  0  0  0  0  0
    1.9151    0.1959   -5.2680 C   0  0  0  1  0  0  0  0  0  0  0  0
    1.9150   -1.1274   -5.1000 F   0  0  0  1  0  0  0  0  0  0  0  0
    3.1950    0.5752   -5.2495 F   0  0  0  1  0  0  0  0  0  0  0  0
    1.0813    0.9140   -4.2250 C   0  0  0  1  0  0  0  0  0  0  0  0
    1.5622    1.1472   -2.9459 C   0  0  0  1  0  0  0  0  0  0  0  0
    0.7405    1.7180   -1.9923 C   0  0  0  1  0  0  0  0  0  0  0  0
   -0.5626    2.0622   -2.3163 C   0  0  0  1  0  0  0  0  0  0  0  0
   -1.0419    1.8296   -3.5916 C   0  0  0  1  0  0  0  0  0  0  0  0
   -0.2180    1.2571   -4.5482 C   0  0  0  1  0  0  0  0  0  0  0  0
   -1.4155    2.6882   -1.2383 C   0  0  0  1  0  0  0  0  0  0  0  0
    2.5411    0.8927   -2.7039 H   0  0  0  1  0  0  0  0  0  0  0  0
    1.0999    1.8893   -1.0315 H   0  0  0  1  0  0  0  0  0  0  0  0
   -2.0208    2.0841   -3.8336 H   0  0  0  1  0  0  0  0  0  0  0  0
   -0.5774    1.0858   -5.5089 H   0  0  0  1  0  0  0  0  0  0  0  0
   -2.4387    2.4603   -1.4530 H   0  0  0  1  0  0  0  0  0  0  0  0
   -1.1403    2.2482   -0.3026 H   0  0  0  1  0  0  0  0  0  0  0  0
  1  4  1  0  0  0  0
  2  4  1  0  0  0  0
  2  5  2  0  0  0  0
  2  6  1  0  0  0  0
  3  4  1  0  0  0  0
  3  7  1  0  0  0  0
  3  8  1  0  0  0  0
  4 29  1  0  0  0  0
  6  9  1  0  0  0  0
  6 12  1  0  0  0  0
  8 10  1  0  0  0  0
  8 11  2  0  0  0  0
  9 13  1  0  0  0  0
  9 14  1  0  0  0  0
  9 15  1  0  0  0  0
 10 16  1  0  0  0  0
 10 17  1  0  0  0  0
 10 18  1  0  0  0  0
 19 20  1  0  0  0  0
 20 21  1  0  0  0  0
 20 22  1  0  0  0  0
 20 23  1  0  0  0  0
 23 24  4  0  0  0  0
 23 28  4  0  0  0  0
 24 25  4  0  0  0  0
 24 30  1  0  0  0  0
 25 26  4  0  0  0  0
 25 31  1  0  0  0  0
 26 27  4  0  0  0  0
 26 29  1  0  0  0  0
 27 28  4  0  0  0  0
 27 32  1  0  0  0  0
 28 33  1  0  0  0  0
 29 34  1  0  0  0  0
 29 35  1  0  0  0  0
M  END
> <BCLConfClusterSize>
1

> <ConfClashScore>
0 

> <ConfOneFourInteractionScore>
-0.951423 

> <ConfScore>
0.467395 

> <ConfScorePBest>
0.00347628 

> <ConfTolerance>
0.741562 

> <RosettaParamsInstructions>
M  ROOT 3
M  POLY_N_BB 3
M  POLY_CA_BB 4
M  POLY_C_BB 2
M  POLY_O_BB 5
M  POLY_IGNORE 9 10 11 12 13 14 15 16 17 18 
M  POLY_UPPER 6
M  POLY_LOWER 8
M  POLY_CHG 0
M  POLY_PROPERTIES ALPHA_AA D_AA PROTEIN AROMATIC POLYMER 
M  END

$$$$



 35 35  0  0  0  0  0  0  0  0999 V2000
   -3.0810    3.2859   -2.3851 H   0  0  0  1  0  0  0  0  0  0  0  0
   -3.6827    3.3769   -0.3683 C   0  0  0  1  0  0  0  0  0  0  0  0
   -3.3665    1.3471   -1.7358 N   0  0  0  1  0  0  0  0  0  0  0  0
   -2.9149    2.7132   -1.4967 C   0  0  0  1  0  0  0  0  0  0  0  0
   -4.8820    3.1786   -0.2494 O   0  0  0  1  0  0  0  0  0  0  0  0
   -2.9690    4.0942    0.5060 N   0  0  0  1  0  0  0  0  0  0  0  0
   -2.6660    0.6762   -1.8754 H   0  0  0  1  0  0  0  0  0  0  0  0
   -4.6248    0.9071   -1.7860 C   0  0  0  1  0  0  0  0  0  0  0  0
   -3.5098    4.5177    1.7890 C   0  0  0  1  0  0  0  0  0  0  0  0
   -4.7962   -0.5995   -1.7907 C   0  0  0  1  0  0  0  0  0  0  0  0
   -5.5965    1.6602   -1.8265 O   0  0  0  1  0  0  0  0  0  0  0  0
   -2.0499    4.3434    0.2747 H   0  0  0  1  0  0  0  0  0  0  0  0
   -2.7099    4.6518    2.4870 H   0  0  0  1  0  0  0  0  0  0  0  0
   -4.1820    3.7708    2.1565 H   0  0  0  1  0  0  0  0  0  0  0  0
   -4.0349    5.4419    1.6669 H   0  0  0  1  0  0  0  0  0  0  0  0
   -4.6862   -0.9684   -2.7890 H   0  0  0  1  0  0  0  0  0  0  0  0
   -5.7700   -0.8485   -1.4239 H   0  0  0  1  0  0  0  0  0  0  0  0
   -4.0533   -1.0446   -1.1624 H   0  0  0  1  0  0  0  0  0  0  0  0
    2.8391    1.0049   -5.8065 F   0  0  0  1  0  0  0  0  0  0  0  0
    1.9249    0.2006   -5.2612 C   0  0  0  1  0  0  0  0  0  0  0  0
    1.2196   -0.3034   -6.2751 F   0  0  0  1  0  0  0  0  0  0  0  0
    2.5966   -0.8213   -4.7289 F   0  0  0  1  0  0  0  0  0  0  0  0
    1.0552    0.9141   -4.2475 C   0  0  0  1  0  0  0  0  0  0  0  0
    1.6151    1.3587   -3.0599 C   0  0  0  1  0  0  0  0  0  0  0  0
    0.8133    1.9273   -2.0883 C   0  0  0  1  0  0  0  0  0  0  0  0
   -0.5499    2.0578   -2.3034 C   0  0  0  1  0  0  0  0  0  0  0  0
   -1.1080    1.6144   -3.4875 C   0  0  0  1  0  0  0  0  0  0  0  0
   -0.3040    1.0441   -4.4622 C   0  0  0  1  0  0  0  0  0  0  0  0
   -1.4257    2.6843   -1.2443 C   0  0  0  1  0  0  0  0  0  0  0  0
    2.6384    1.2645   -2.9001 H   0  0  0  1  0  0  0  0  0  0  0  0
    1.2327    2.2572   -1.1956 H   0  0  0  1  0  0  0  0  0  0  0  0
   -2.1313    1.7086   -3.6473 H   0  0  0  1  0  0  0  0  0  0  0  0
   -0.7234    0.7142   -5.3548 H   0  0  0  1  0  0  0  0  0  0  0  0
   -1.2655    2.1434   -0.3352 H   0  0  0  1  0  0  0  0  0  0  0  0
   -1.1025    3.6967   -1.1193 H   0  0  0  1  0  0  0  0  0  0  0  0
  1  4  1  0  0  0  0
  2  4  1  0  0  0  0
  2  5  2  0  0  0  0
  2  6  1  0  0  0  0
  3  4  1  0  0  0  0
  3  7  1  0  0  0  0
  3  8  1  0  0  0  0
  4 29  1  0  0  0  0
  6  9  1  0  0  0  0
  6 12  1  0  0  0  0
  8 10  1  0  0  0  0
  8 11  2  0  0  0  0
  9 13  1  0  0  0  0
  9 14  1  0  0  0  0
  9 15  1  0  0  0  0
 10 16  1  0  0  0  0
 10 17  1  0  0  0  0
 10 18  1  0  0  0  0
 19 20  1  0  0  0  0
 20 21  1  0  0  0  0
 20 22  1  0  0  0  0
 20 23  1  0  0  0  0
 23 24  4  0  0  0  0
 23 28  4  0  0  0  0
 24 25  4  0  0  0  0
 24 30  1  0  0  0  0
 25 26  4  0  0  0  0
 25 31  1  0  0  0  0
 26 27  4  0  0  0  0
 26 29  1  0  0  0  0
 27 28  4  0  0  0  0
 27 32  1  0  0  0  0
 28 33  1  0  0  0  0
 29 34  1  0  0  0  0
 29 35  1  0  0  0  0
M  END
> <BCLConfClusterSize>
1

> <ConfClashScore>
0 

> <ConfOneFourInteractionScore>
-0.941225 

> <ConfScore>
0.471422 

> <ConfScorePBest>
0.0034478 

> <ConfTolerance>
0.805239 

> <RosettaParamsInstructions>
M  ROOT 3
M  POLY_N_BB 3
M  POLY_CA_BB 4
M  POLY_C_BB 2
M  POLY_O_BB 5
M  POLY_IGNORE 9 10 11 12 13 14 15 16 17 18 
M  POLY_UPPER 6
M  POLY_LOWER 8
M  POLY_CHG 0
M  POLY_PROPERTIES ALPHA_AA D_AA PROTEIN AROMATIC POLYMER 
M  END

$$$$



 35 35  0  0  0  0  0  0  0  0999 V2000
   -2.6147    2.1714    0.4015 H   0  0  0  1  0  0  0  0  0  0  0  0
   -0.6200    1.6994    0.8877 C   0  0  0  1  0  0  0  0  0  0  0  0
   -2.1097    0.4642   -0.6402 N   0  0  0  1  0  0  0  0  0  0  0  0
   -1.7621    1.7745   -0.1088 C   0  0  0  1  0  0  0  0  0  0  0  0
   -0.3347    0.6245    1.4129 O   0  0  0  1  0  0  0  0  0  0  0  0
    0.0852    2.8189    1.0815 N   0  0  0  1  0  0  0  0  0  0  0  0
   -1.5734   -0.3042   -0.3533 H   0  0  0  1  0  0  0  0  0  0  0  0
   -3.1111    0.2433   -1.4924 C   0  0  0  1  0  0  0  0  0  0  0  0
    1.2321    2.8702    1.9759 C   0  0  0  1  0  0  0  0  0  0  0  0
   -3.2740   -1.1859   -1.9581 C   0  0  0  1  0  0  0  0  0  0  0  0
   -3.8643    1.1326   -1.8857 O   0  0  0  1  0  0  0  0  0  0  0  0
   -0.1795    3.6332    0.6047 H   0  0  0  1  0  0  0  0  0  0  0  0
    0.9304    3.2710    2.9210 H   0  0  0  1  0  0  0  0  0  0  0  0
    1.9892    3.4945    1.5493 H   0  0  0  1  0  0  0  0  0  0  0  0
    1.6200    1.8827    2.1150 H   0  0  0  1  0  0  0  0  0  0  0  0
   -2.3377   -1.6973   -1.8757 H   0  0  0  1  0  0  0  0  0  0  0  0
   -3.5959   -1.1938   -2.9785 H   0  0  0  1  0  0  0  0  0  0  0  0
   -4.0037   -1.6781   -1.3495 H   0  0  0  1  0  0  0  0  0  0  0  0
    1.1652   -0.3296   -6.2391 F   0  0  0  1  0  0  0  0  0  0  0  0
    1.9145    0.1932   -5.2669 C   0  0  0  1  0  0  0  0  0  0  0  0
    2.6223   -0.8164   -4.7579 F   0  0  0  1  0  0  0  0  0  0  0  0
    2.7917    1.0005   -5.8647 F   0  0  0  1  0  0  0  0  0  0  0  0
    1.0872    0.9097   -4.2176 C   0  0  0  1  0  0  0  0  0  0  0  0
    1.5135    1.0124   -2.9026 C   0  0  0  1  0  0  0  0  0  0  0  0
    0.6908    1.5875   -1.9524 C   0  0  0  1  0  0  0  0  0  0  0  0
   -0.5583    2.0664   -2.3155 C   0  0  0  1  0  0  0  0  0  0  0  0
   -0.9832    1.9639   -3.6266 C   0  0  0  1  0  0  0  0  0  0  0  0
   -0.1583    1.3872   -4.5797 C   0  0  0  1  0  0  0  0  0  0  0  0
   -1.4555    2.7003   -1.2788 C   0  0  0  1  0  0  0  0  0  0  0  0
    2.4523    0.6567   -2.6309 H   0  0  0  1  0  0  0  0  0  0  0  0
    1.0090    1.6609   -0.9650 H   0  0  0  1  0  0  0  0  0  0  0  0
   -1.9220    2.3196   -3.8982 H   0  0  0  1  0  0  0  0  0  0  0  0
   -0.4765    1.3138   -5.5671 H   0  0  0  1  0  0  0  0  0  0  0  0
   -0.9729    3.5776   -0.9014 H   0  0  0  1  0  0  0  0  0  0  0  0
   -2.3776    2.9735   -1.7476 H   0  0  0  1  0  0  0  0  0  0  0  0
  1  4  1  0  0  0  0
  2  4  1  0  0  0  0
  2  5  2  0  0  0  0
  2  6  1  0  0  0  0
  3  4  1  0  0  0  0
  3  7  1  0  0  0  0
  3  8  1  0  0  0  0
  4 29  1  0  0  0  0
  6  9  1  0  0  0  0
  6 12  1  0  0  0  0
  8 10  1  0  0  0  0
  8 11  2  0  0  0  0
  9 13  1  0  0  0  0
  9 14  1  0  0  0  0
  9 15  1  0  0  0  0
 10 16  1  0  0  0  0
 10 17  1  0  0  0  0
 10 18  1  0  0  0  0
 19 20  1  0  0  0  0
 20 21  1  0  0  0  0
 20 22  1  0  0  0  0
 20 23  1  0  0  0  0
 23 24  4  0  0  0  0
 23 28  4  0  0  0  0
 24 25  4  0  0  0  0
 24 30  1  0  0  0  0
 25 26  4  0  0  0  0
 25 31  1  0  0  0  0
 26 27  4  0  0  0  0
 26 29  1  0  0  0  0
 27 28  4  0  0  0  0
 27 32  1  0  0  0  0
 28 33  1  0  0  0  0
 29 34  1  0  0  0  0
 29 35  1  0  0  0  0
M  END
> <BCLConfClusterSize>
1

> <ConfClashScore>
0 

> <ConfOneFourInteractionScore>
-0.929354 

> <ConfScore>
0.472509 

> <ConfScorePBest>
0.00341932 

> <ConfTolerance>
0.645119 

> <RosettaParamsInstructions>
M  ROOT 3
M  POLY_N_BB 3
M  POLY_CA_BB 4
M  POLY_C_BB 2
M  POLY_O_BB 5
M  POLY_IGNORE 9 10 11 12 13 14 15 16 17 18 
M  POLY_UPPER 6
M  POLY_LOWER 8
M  POLY_CHG 0
M  POLY_PROPERTIES ALPHA_AA D_AA PROTEIN AROMATIC POLYMER 
M  END

$$$$



 35 35  0  0  0  0  0  0  0  0999 V2000
   -3.0611    2.3864   -0.0664 H   0  0  0  1  0  0  0  0  0  0  0  0
   -1.7130    0.9101    0.4860 C   0  0  0  1  0  0  0  0  0  0  0  0
   -3.1644    0.9840   -1.5526 N   0  0  0  1  0  0  0  0  0  0  0  0
   -2.3580    1.7723   -0.5893 C   0  0  0  1  0  0  0  0  0  0  0  0
   -0.5603    0.5070    0.3386 O   0  0  0  1  0  0  0  0  0  0  0  0
   -2.4244    0.7026    1.5992 N   0  0  0  1  0  0  0  0  0  0  0  0
   -3.3185    1.3478   -2.4494 H   0  0  0  1  0  0  0  0  0  0  0  0
   -3.6863   -0.2005   -1.2413 C   0  0  0  1  0  0  0  0  0  0  0  0
   -1.9840   -0.0972    2.7324 C   0  0  0  1  0  0  0  0  0  0  0  0
   -4.4205   -0.9727   -2.3318 C   0  0  0  1  0  0  0  0  0  0  0  0
   -3.6118   -0.7112   -0.1245 O   0  0  0  1  0  0  0  0  0  0  0  0
   -3.3089    1.1206    1.6561 H   0  0  0  1  0  0  0  0  0  0  0  0
   -1.9104   -1.1234    2.4383 H   0  0  0  1  0  0  0  0  0  0  0  0
   -2.6912   -0.0050    3.5301 H   0  0  0  1  0  0  0  0  0  0  0  0
   -1.0266    0.2486    3.0621 H   0  0  0  1  0  0  0  0  0  0  0  0
   -5.3632   -0.5056   -2.5272 H   0  0  0  1  0  0  0  0  0  0  0  0
   -4.5819   -1.9798   -2.0084 H   0  0  0  1  0  0  0  0  0  0  0  0
   -3.8317   -0.9745   -3.2253 H   0  0  0  1  0  0  0  0  0  0  0  0
    1.7490    0.6731   -6.4977 F   0  0  0  1  0  0  0  0  0  0  0  0
    1.9265    0.2034   -5.2617 C   0  0  0  1  0  0  0  0  0  0  0  0
    1.6779   -1.1058   -5.3213 F   0  0  0  1  0  0  0  0  0  0  0  0
    3.2284    0.3249   -4.9994 F   0  0  0  1  0  0  0  0  0  0  0  0
    1.0605    0.9125   -4.2417 C   0  0  0  1  0  0  0  0  0  0  0  0
    1.5761    1.1944   -2.9862 C   0  0  0  1  0  0  0  0  0  0  0  0
    0.7665    1.7566   -2.0172 C   0  0  0  1  0  0  0  0  0  0  0  0
   -0.5593    2.0435   -2.3024 C   0  0  0  1  0  0  0  0  0  0  0  0
   -1.0731    1.7624   -3.5543 C   0  0  0  1  0  0  0  0  0  0  0  0
   -0.2614    1.1985   -4.5262 C   0  0  0  1  0  0  0  0  0  0  0  0
   -1.4063    2.7508   -1.2710 C   0  0  0  1  0  0  0  0  0  0  0  0
    2.5718    0.9829   -2.7734 H   0  0  0  1  0  0  0  0  0  0  0  0
    1.1521    1.9644   -1.0739 H   0  0  0  1  0  0  0  0  0  0  0  0
   -2.0689    1.9739   -3.7670 H   0  0  0  1  0  0  0  0  0  0  0  0
   -0.6471    0.9908   -5.4695 H   0  0  0  1  0  0  0  0  0  0  0  0
   -0.7672    3.1899   -0.5337 H   0  0  0  1  0  0  0  0  0  0  0  0
   -1.9768    3.5178   -1.7517 H   0  0  0  1  0  0  0  0  0  0  0  0
  1  4  1  0  0  0  0
  2  4  1  0  0  0  0
  2  5  2  0  0  0  0
  2  6  1  0  0  0  0
  3  4  1  0  0  0  0
  3  7  1  0  0  0  0
  3  8  1  0  0  0  0
  4 29  1  0  0  0  0
  6  9  1  0  0  0  0
  6 12  1  0  0  0  0
  8 10  1  0  0  0  0
  8 11  2  0  0  0  0
  9 13  1  0  0  0  0
  9 14  1  0  0  0  0
  9 15  1  0  0  0  0
 10 16  1  0  0  0  0
 10 17  1  0  0  0  0
 10 18  1  0  0  0  0
 19 20  1  0  0  0  0
 20 21  1  0  0  0  0
 20 22  1  0  0  0  0
 20 23  1  0  0  0  0
 23 24  4  0  0  0  0
 23 28  4  0  0  0  0
 24 25  4  0  0  0  0
 24 30  1  0  0  0  0
 25 26  4  0  0  0  0
 25 31  1  0  0  0  0
 26 27  4  0  0  0  0
 26 29  1  0  0  0  0
 27 28  4  0  0  0  0
 27 32  1  0  0  0  0
 28 33  1  0  0  0  0
 29 34  1  0  0  0  0
 29 35  1  0  0  0  0
M  END
> <BCLConfClusterSize>
1

> <ConfClashScore>
0 

> <ConfOneFourInteractionScore>
-0.970872 

> <ConfScore>
0.474713 

> <ConfScorePBest>
0.00339084 

> <ConfTolerance>
0.607729 

> <RosettaParamsInstructions>
M  ROOT 3
M  POLY_N_BB 3
M  POLY_CA_BB 4
M  POLY_C_BB 2
M  POLY_O_BB 5
M  POLY_IGNORE 9 10 11 12 13 14 15 16 17 18 
M  POLY_UPPER 6
M  POLY_LOWER 8
M  POLY_CHG 0
M  POLY_PROPERTIES ALPHA_AA D_AA PROTEIN AROMATIC POLYMER 
M  END

$$$$



 35 35  0  0  0  0  0  0  0  0999 V2000
   -1.4854    0.8039   -0.1678 H   0  0  0  1  0  0  0  0  0  0  0  0
   -3.2225    0.8539   -1.3791 C   0  0  0  1  0  0  0  0  0  0  0  0
   -2.8281    2.1150    0.7074 N   0  0  0  1  0  0  0  0  0  0  0  0
   -2.2007    1.5376   -0.4760 C   0  0  0  1  0  0  0  0  0  0  0  0
   -4.1516    1.5042   -1.8553 O   0  0  0  1  0  0  0  0  0  0  0  0
   -2.9977   -0.4330   -1.6795 N   0  0  0  1  0  0  0  0  0  0  0  0
   -2.3935    1.9597    1.5719 H   0  0  0  1  0  0  0  0  0  0  0  0
   -3.9487    2.8384    0.7015 C   0  0  0  1  0  0  0  0  0  0  0  0
   -3.8728   -1.1894   -2.5627 C   0  0  0  1  0  0  0  0  0  0  0  0
   -4.5003    3.2062    2.0604 C   0  0  0  1  0  0  0  0  0  0  0  0
   -4.5118    3.1930   -0.3334 O   0  0  0  1  0  0  0  0  0  0  0  0
   -2.2171   -0.8801   -1.2908 H   0  0  0  1  0  0  0  0  0  0  0  0
   -3.7243   -2.2367   -2.4014 H   0  0  0  1  0  0  0  0  0  0  0  0
   -3.6454   -0.9498   -3.5804 H   0  0  0  1  0  0  0  0  0  0  0  0
   -4.8920   -0.9379   -2.3557 H   0  0  0  1  0  0  0  0  0  0  0  0
   -3.9024    2.7528    2.8232 H   0  0  0  1  0  0  0  0  0  0  0  0
   -5.5081    2.8565    2.1425 H   0  0  0  1  0  0  0  0  0  0  0  0
   -4.4806    4.2697    2.1771 H   0  0  0  1  0  0  0  0  0  0  0  0
    1.5135    0.3962   -6.5100 F   0  0  0  1  0  0  0  0  0  0  0  0
    1.9219    0.1904   -5.2567 C   0  0  0  1  0  0  0  0  0  0  0  0
    1.9194   -1.1312   -5.0761 F   0  0  0  1  0  0  0  0  0  0  0  0
    3.1993    0.5711   -5.2130 F   0  0  0  1  0  0  0  0  0  0  0  0
    1.0652    0.9164   -4.2408 C   0  0  0  1  0  0  0  0  0  0  0  0
    1.5630    1.1469   -2.9677 C   0  0  0  1  0  0  0  0  0  0  0  0
    0.7571    1.7246   -2.0049 C   0  0  0  1  0  0  0  0  0  0  0  0
   -0.5471    2.0784   -2.3136 C   0  0  0  1  0  0  0  0  0  0  0  0
   -1.0433    1.8486   -3.5829 C   0  0  0  1  0  0  0  0  0  0  0  0
   -0.2352    1.2692   -4.5487 C   0  0  0  1  0  0  0  0  0  0  0  0
   -1.4628    2.6261   -1.2444 C   0  0  0  1  0  0  0  0  0  0  0  0
    2.5428    0.8852   -2.7372 H   0  0  0  1  0  0  0  0  0  0  0  0
    1.1293    1.8939   -1.0486 H   0  0  0  1  0  0  0  0  0  0  0  0
   -2.0230    2.1103   -3.8134 H   0  0  0  1  0  0  0  0  0  0  0  0
   -0.6074    1.0999   -5.5050 H   0  0  0  1  0  0  0  0  0  0  0  0
   -0.8768    3.1940   -0.5523 H   0  0  0  1  0  0  0  0  0  0  0  0
   -2.1850    3.2644   -1.7089 H   0  0  0  1  0  0  0  0  0  0  0  0
  1  4  1  0  0  0  0
  2  4  1  0  0  0  0
  2  5  2  0  0  0  0
  2  6  1  0  0  0  0
  3  4  1  0  0  0  0
  3  7  1  0  0  0  0
  3  8  1  0  0  0  0
  4 29  1  0  0  0  0
  6  9  1  0  0  0  0
  6 12  1  0  0  0  0
  8 10  1  0  0  0  0
  8 11  2  0  0  0  0
  9 13  1  0  0  0  0
  9 14  1  0  0  0  0
  9 15  1  0  0  0  0
 10 16  1  0  0  0  0
 10 17  1  0  0  0  0
 10 18  1  0  0  0  0
 19 20  1  0  0  0  0
 20 21  1  0  0  0  0
 20 22  1  0  0  0  0
 20 23  1  0  0  0  0
 23 24  4  0  0  0  0
 23 28  4  0  0  0  0
 24 25  4  0  0  0  0
 24 30  1  0  0  0  0
 25 26  4  0  0  0  0
 25 31  1  0  0  0  0
 26 27  4  0  0  0  0
 26 29  1  0  0  0  0
 27 28  4  0  0  0  0
 27 32  1  0  0  0  0
 28 33  1  0  0  0  0
 29 34  1  0  0  0  0
 29 35  1  0  0  0  0
M  END
> <BCLConfClusterSize>
1

> <ConfClashScore>
0 

> <ConfOneFourInteractionScore>
-0.983211 

> <ConfScore>
0.477685 

> <ConfScorePBest>
0.00336236 

> <ConfTolerance>
0.657191 

> <RosettaParamsInstructions>
M  ROOT 3
M  POLY_N_BB 3
M  POLY_CA_BB 4
M  POLY_C_BB 2
M  POLY_O_BB 5
M  POLY_IGNORE 9 10 11 12 13 14 15 16 17 18 
M  POLY_UPPER 6
M  POLY_LOWER 8
M  POLY_CHG 0
M  POLY_PROPERTIES ALPHA_AA D_AA PROTEIN AROMATIC POLYMER 
M  END

$$$$



 35 35  0  0  0  0  0  0  0  0999 V2000
   -1.9839    0.8498   -0.3623 H   0  0  0  1  0  0  0  0  0  0  0  0
   -3.3912    1.1669   -1.8913 C   0  0  0  1  0  0  0  0  0  0  0  0
   -3.3260    2.2918    0.2684 N   0  0  0  1  0  0  0  0  0  0  0  0
   -2.4957    1.6894   -0.7842 C   0  0  0  1  0  0  0  0  0  0  0  0
   -4.2108    1.9154   -2.4213 O   0  0  0  1  0  0  0  0  0  0  0  0
   -3.1764   -0.0889   -2.2979 N   0  0  0  1  0  0  0  0  0  0  0  0
   -3.1135    3.1867    0.6067 H   0  0  0  1  0  0  0  0  0  0  0  0
   -4.3745    1.6192    0.7670 C   0  0  0  1  0  0  0  0  0  0  0  0
   -3.9384   -0.6973   -3.3781 C   0  0  0  1  0  0  0  0  0  0  0  0
   -5.1861    2.2769    1.8633 C   0  0  0  1  0  0  0  0  0  0  0  0
   -4.6698    0.5009    0.3477 O   0  0  0  1  0  0  0  0  0  0  0  0
   -2.4816   -0.6178   -1.8529 H   0  0  0  1  0  0  0  0  0  0  0  0
   -4.3926   -1.6014   -3.0297 H   0  0  0  1  0  0  0  0  0  0  0  0
   -3.2840   -0.9191   -4.1951 H   0  0  0  1  0  0  0  0  0  0  0  0
   -4.6991   -0.0189   -3.7038 H   0  0  0  1  0  0  0  0  0  0  0  0
   -6.1534    2.5349    1.4857 H   0  0  0  1  0  0  0  0  0  0  0  0
   -4.6852    3.1622    2.1952 H   0  0  0  1  0  0  0  0  0  0  0  0
   -5.2931    1.5982    2.6835 H   0  0  0  1  0  0  0  0  0  0  0  0
    2.5223    1.0430   -6.1089 F   0  0  0  1  0  0  0  0  0  0  0  0
    1.9133    0.2006   -5.2726 C   0  0  0  1  0  0  0  0  0  0  0  0
    1.1886   -0.6212   -6.0334 F   0  0  0  1  0  0  0  0  0  0  0  0
    2.8752   -0.5454   -4.7279 F   0  0  0  1  0  0  0  0  0  0  0  0
    1.0760    0.9188   -4.2324 C   0  0  0  1  0  0  0  0  0  0  0  0
    1.6189    1.3413   -3.0289 C   0  0  0  1  0  0  0  0  0  0  0  0
    0.8057    1.9062   -2.0646 C   0  0  0  1  0  0  0  0  0  0  0  0
   -0.5517    2.0552   -2.3029 C   0  0  0  1  0  0  0  0  0  0  0  0
   -1.0928    1.6339   -3.5028 C   0  0  0  1  0  0  0  0  0  0  0  0
   -0.2774    1.0673   -4.4701 C   0  0  0  1  0  0  0  0  0  0  0  0
   -1.4399    2.6777   -1.2517 C   0  0  0  1  0  0  0  0  0  0  0  0
    2.6380    1.2333   -2.8517 H   0  0  0  1  0  0  0  0  0  0  0  0
    1.2123    2.2195   -1.1601 H   0  0  0  1  0  0  0  0  0  0  0  0
   -2.1119    1.7419   -3.6801 H   0  0  0  1  0  0  0  0  0  0  0  0
   -0.6840    0.7540   -5.3746 H   0  0  0  1  0  0  0  0  0  0  0  0
   -0.8405    2.9724   -0.4158 H   0  0  0  1  0  0  0  0  0  0  0  0
   -1.9233    3.5380   -1.6656 H   0  0  0  1  0  0  0  0  0  0  0  0
  1  4  1  0  0  0  0
  2  4  1  0  0  0  0
  2  5  2  0  0  0  0
  2  6  1  0  0  0  0
  3  4  1  0  0  0  0
  3  7  1  0  0  0  0
  3  8  1  0  0  0  0
  4 29  1  0  0  0  0
  6  9  1  0  0  0  0
  6 12  1  0  0  0  0
  8 10  1  0  0  0  0
  8 11  2  0  0  0  0
  9 13  1  0  0  0  0
  9 14  1  0  0  0  0
  9 15  1  0  0  0  0
 10 16  1  0  0  0  0
 10 17  1  0  0  0  0
 10 18  1  0  0  0  0
 19 20  1  0  0  0  0
 20 21  1  0  0  0  0
 20 22  1  0  0  0  0
 20 23  1  0  0  0  0
 23 24  4  0  0  0  0
 23 28  4  0  0  0  0
 24 25  4  0  0  0  0
 24 30  1  0  0  0  0
 25 26  4  0  0  0  0
 25 31  1  0  0  0  0
 26 27  4  0  0  0  0
 26 29  1  0  0  0  0
 27 28  4  0  0  0  0
 27 32  1  0  0  0  0
 28 33  1  0  0  0  0
 29 34  1  0  0  0  0
 29 35  1  0  0  0  0
M  END
> <BCLConfClusterSize>
1

> <ConfClashScore>
0 

> <ConfOneFourInteractionScore>
-0.981931 

> <ConfScore>
0.480899 

> <ConfScorePBest>
0.00333388 

> <ConfTolerance>
0.823324 

> <RosettaParamsInstructions>
M  ROOT 3
M  POLY_N_BB 3
M  POLY_CA_BB 4
M  POLY_C_BB 2
M  POLY_O_BB 5
M  POLY_IGNORE 9 10 11 12 13 14 15 16 17 18 
M  POLY_UPPER 6
M  POLY_LOWER 8
M  POLY_CHG 0
M  POLY_PROPERTIES ALPHA_AA D_AA PROTEIN AROMATIC POLYMER 
M  END

$$$$



 35 35  0  0  0  0  0  0  0  0999 V2000
   -2.3093    0.7267   -1.0978 H   0  0  0  1  0  0  0  0  0  0  0  0
   -3.7563    2.1356   -0.4214 C   0  0  0  1  0  0  0  0  0  0  0  0
   -1.7747    1.3819    0.7985 N   0  0  0  1  0  0  0  0  0  0  0  0
   -2.3103    1.6362   -0.5341 C   0  0  0  1  0  0  0  0  0  0  0  0
   -4.3664    2.0117    0.6393 O   0  0  0  1  0  0  0  0  0  0  0  0
   -4.2592    2.7707   -1.4853 N   0  0  0  1  0  0  0  0  0  0  0  0
   -1.0041    1.9146    1.0864 H   0  0  0  1  0  0  0  0  0  0  0  0
   -2.2575    0.4735    1.6599 C   0  0  0  1  0  0  0  0  0  0  0  0
   -5.6105    3.3107   -1.5014 C   0  0  0  1  0  0  0  0  0  0  0  0
   -1.4756    0.3062    2.9470 C   0  0  0  1  0  0  0  0  0  0  0  0
   -3.2671   -0.1893    1.4367 O   0  0  0  1  0  0  0  0  0  0  0  0
   -3.6983    2.8762   -2.2820 H   0  0  0  1  0  0  0  0  0  0  0  0
   -6.2312    2.7397   -0.8428 H   0  0  0  1  0  0  0  0  0  0  0  0
   -6.0032    3.2591   -2.4953 H   0  0  0  1  0  0  0  0  0  0  0  0
   -5.5907    4.3304   -1.1777 H   0  0  0  1  0  0  0  0  0  0  0  0
   -0.4335    0.2140    2.7224 H   0  0  0  1  0  0  0  0  0  0  0  0
   -1.8098   -0.5741    3.4552 H   0  0  0  1  0  0  0  0  0  0  0  0
   -1.6313    1.1604    3.5722 H   0  0  0  1  0  0  0  0  0  0  0  0
    2.7359    1.0234   -5.9248 F   0  0  0  1  0  0  0  0  0  0  0  0
    1.9116    0.2007   -5.2738 C   0  0  0  1  0  0  0  0  0  0  0  0
    1.1648   -0.3931   -6.2061 F   0  0  0  1  0  0  0  0  0  0  0  0
    2.6779   -0.7540   -4.7448 F   0  0  0  1  0  0  0  0  0  0  0  0
    1.0770    0.9195   -4.2320 C   0  0  0  1  0  0  0  0  0  0  0  0
    1.6276    1.3608   -3.0388 C   0  0  0  1  0  0  0  0  0  0  0  0
    0.8181    1.9258   -2.0715 C   0  0  0  1  0  0  0  0  0  0  0  0
   -0.5435    2.0560   -2.2964 C   0  0  0  1  0  0  0  0  0  0  0  0
   -1.0923    1.6159   -3.4861 C   0  0  0  1  0  0  0  0  0  0  0  0
   -0.2806    1.0493   -4.4564 C   0  0  0  1  0  0  0  0  0  0  0  0
   -1.4765    2.6700   -1.2796 C   0  0  0  1  0  0  0  0  0  0  0  0
    2.6498    1.2668   -2.8716 H   0  0  0  1  0  0  0  0  0  0  0  0
    1.2306    2.2532   -1.1747 H   0  0  0  1  0  0  0  0  0  0  0  0
   -2.1145    1.7099   -3.6533 H   0  0  0  1  0  0  0  0  0  0  0  0
   -0.6931    0.7218   -5.3532 H   0  0  0  1  0  0  0  0  0  0  0  0
   -0.8928    3.2148   -0.5672 H   0  0  0  1  0  0  0  0  0  0  0  0
   -2.1387    3.3406   -1.7863 H   0  0  0  1  0  0  0  0  0  0  0  0
  1  4  1  0  0  0  0
  2  4  1  0  0  0  0
  2  5  2  0  0  0  0
  2  6  1  0  0  0  0
  3  4  1  0  0  0  0
  3  7  1  0  0  0  0
  3  8  1  0  0  0  0
  4 29  1  0  0  0  0
  6  9  1  0  0  0  0
  6 12  1  0  0  0  0
  8 10  1  0  0  0  0
  8 11  2  0  0  0  0
  9 13  1  0  0  0  0
  9 14  1  0  0  0  0
  9 15  1  0  0  0  0
 10 16  1  0  0  0  0
 10 17  1  0  0  0  0
 10 18  1  0  0  0  0
 19 20  1  0  0  0  0
 20 21  1  0  0  0  0
 20 22  1  0  0  0  0
 20 23  1  0  0  0  0
 23 24  4  0  0  0  0
 23 28  4  0  0  0  0
 24 25  4  0  0  0  0
 24 30  1  0  0  0  0
 25 26  4  0  0  0  0
 25 31  1  0  0  0  0
 26 27  4  0  0  0  0
 26 29  1  0  0  0  0
 27 28  4  0  0  0  0
 27 32  1  0  0  0  0
 28 33  1  0  0  0  0
 29 34  1  0  0  0  0
 29 35  1  0  0  0  0
M  END
> <BCLConfClusterSize>
1

> <ConfClashScore>
0 

> <ConfOneFourInteractionScore>
-0.947371 

> <ConfScore>
0.481036 

> <ConfScorePBest>
0.0033054 

> <ConfTolerance>
0.774839 

> <RosettaParamsInstructions>
M  ROOT 3
M  POLY_N_BB 3
M  POLY_CA_BB 4
M  POLY_C_BB 2
M  POLY_O_BB 5
M  POLY_IGNORE 9 10 11 12 13 14 15 16 17 18 
M  POLY_UPPER 6
M  POLY_LOWER 8
M  POLY_CHG 0
M  POLY_PROPERTIES ALPHA_AA D_AA PROTEIN AROMATIC POLYMER 
M  END

$$$$



 35 35  0  0  0  0  0  0  0  0999 V2000
   -0.0632    2.6294    0.3406 H   0  0  0  1  0  0  0  0  0  0  0  0
   -1.6235    3.8807    0.9894 C   0  0  0  1  0  0  0  0  0  0  0  0
    0.1207    4.4579   -0.6101 N   0  0  0  1  0  0  0  0  0  0  0  0
   -0.7105    3.3570   -0.1027 C   0  0  0  1  0  0  0  0  0  0  0  0
   -1.8837    3.1739    1.9619 O   0  0  0  1  0  0  0  0  0  0  0  0
   -2.0389    5.1464    0.8722 N   0  0  0  1  0  0  0  0  0  0  0  0
    0.2200    4.5679   -1.5788 H   0  0  0  1  0  0  0  0  0  0  0  0
    0.7457    5.3138    0.2034 C   0  0  0  1  0  0  0  0  0  0  0  0
   -2.8001    5.8701    1.8794 C   0  0  0  1  0  0  0  0  0  0  0  0
    1.6142    6.3542   -0.4766 C   0  0  0  1  0  0  0  0  0  0  0  0
    0.6355    5.2758    1.4282 O   0  0  0  1  0  0  0  0  0  0  0  0
   -1.8137    5.6225    0.0457 H   0  0  0  1  0  0  0  0  0  0  0  0
   -3.7777    5.4432    1.9634 H   0  0  0  1  0  0  0  0  0  0  0  0
   -2.8833    6.8977    1.5932 H   0  0  0  1  0  0  0  0  0  0  0  0
   -2.2991    5.8015    2.8224 H   0  0  0  1  0  0  0  0  0  0  0  0
    1.4651    7.3050   -0.0089 H   0  0  0  1  0  0  0  0  0  0  0  0
    1.3478    6.4201   -1.5108 H   0  0  0  1  0  0  0  0  0  0  0  0
    2.6426    6.0717   -0.3900 H   0  0  0  1  0  0  0  0  0  0  0  0
    2.9181    0.9528   -5.7270 F   0  0  0  1  0  0  0  0  0  0  0  0
    1.9135    0.2015   -5.2729 C   0  0  0  1  0  0  0  0  0  0  0  0
    1.2033   -0.1578   -6.3434 F   0  0  0  1  0  0  0  0  0  0  0  0
    2.4671   -0.9158   -4.7997 F   0  0  0  1  0  0  0  0  0  0  0  0
    1.0749    0.9195   -4.2337 C   0  0  0  1  0  0  0  0  0  0  0  0
    1.6238    1.3708   -3.0435 C   0  0  0  1  0  0  0  0  0  0  0  0
    0.8114    1.9348   -2.0780 C   0  0  0  1  0  0  0  0  0  0  0  0
   -0.5513    2.0541   -2.3020 C   0  0  0  1  0  0  0  0  0  0  0  0
   -1.0984    1.6041   -3.4887 C   0  0  0  1  0  0  0  0  0  0  0  0
   -0.2838    1.0383   -4.4571 C   0  0  0  1  0  0  0  0  0  0  0  0
   -1.4388    2.6757   -1.2497 C   0  0  0  1  0  0  0  0  0  0  0  0
    2.6468    1.2850   -2.8770 H   0  0  0  1  0  0  0  0  0  0  0  0
    1.2225    2.2698   -1.1834 H   0  0  0  1  0  0  0  0  0  0  0  0
   -2.1214    1.6899   -3.6552 H   0  0  0  1  0  0  0  0  0  0  0  0
   -0.6950    0.7034   -5.3518 H   0  0  0  1  0  0  0  0  0  0  0  0
   -2.0568    3.4062   -1.7286 H   0  0  0  1  0  0  0  0  0  0  0  0
   -2.0534    1.9028   -0.8376 H   0  0  0  1  0  0  0  0  0  0  0  0
  1  4  1  0  0  0  0
  2  4  1  0  0  0  0
  2  5  2  0  0  0  0
  2  6  1  0  0  0  0
  3  4  1  0  0  0  0
  3  7  1  0  0  0  0
  3  8  1  0  0  0  0
  4 29  1  0  0  0  0
  6  9  1  0  0  0  0
  6 12  1  0  0  0  0
  8 10  1  0  0  0  0
  8 11  2  0  0  0  0
  9 13  1  0  0  0  0
  9 14  1  0  0  0  0
  9 15  1  0  0  0  0
 10 16  1  0  0  0  0
 10 17  1  0  0  0  0
 10 18  1  0  0  0  0
 19 20  1  0  0  0  0
 20 21  1  0  0  0  0
 20 22  1  0  0  0  0
 20 23  1  0  0  0  0
 23 24  4  0  0  0  0
 23 28  4  0  0  0  0
 24 25  4  0  0  0  0
 24 30  1  0  0  0  0
 25 26  4  0  0  0  0
 25 31  1  0  0  0  0
 26 27  4  0  0  0  0
 26 29  1  0  0  0  0
 27 28  4  0  0  0  0
 27 32  1  0  0  0  0
 28 33  1  0  0  0  0
 29 34  1  0  0  0  0
 29 35  1  0  0  0  0
M  END
> <BCLConfClusterSize>
1

> <ConfClashScore>
0 

> <ConfOneFourInteractionScore>
-0.949001 

> <ConfScore>
0.486797 

> <ConfScorePBest>
0.00327691 

> <ConfTolerance>
0.746611 

> <RosettaParamsInstructions>
M  ROOT 3
M  POLY_N_BB 3
M  POLY_CA_BB 4
M  POLY_C_BB 2
M  POLY_O_BB 5
M  POLY_IGNORE 9 10 11 12 13 14 15 16 17 18 
M  POLY_UPPER 6
M  POLY_LOWER 8
M  POLY_CHG 0
M  POLY_PROPERTIES ALPHA_AA D_AA PROTEIN AROMATIC POLYMER 
M  END

$$$$



 35 35  0  0  0  0  0  0  0  0999 V2000
   -3.3587    2.5136   -2.0400 H   0  0  0  1  0  0  0  0  0  0  0  0
   -2.5152    4.2567   -2.8589 C   0  0  0  1  0  0  0  0  0  0  0  0
   -3.3916    3.9575   -0.5705 N   0  0  0  1  0  0  0  0  0  0  0  0
   -2.7288    3.3067   -1.6950 C   0  0  0  1  0  0  0  0  0  0  0  0
   -3.4709    4.6016   -3.5518 O   0  0  0  1  0  0  0  0  0  0  0  0
   -1.2806    4.7451   -3.0194 N   0  0  0  1  0  0  0  0  0  0  0  0
   -3.5498    3.4211    0.2343 H   0  0  0  1  0  0  0  0  0  0  0  0
   -3.7987    5.2276   -0.5550 C   0  0  0  1  0  0  0  0  0  0  0  0
   -0.9789    5.7966   -3.9803 C   0  0  0  1  0  0  0  0  0  0  0  0
   -4.3783    5.7387    0.7667 C   0  0  0  1  0  0  0  0  0  0  0  0
   -3.7488    6.0063   -1.4929 O   0  0  0  1  0  0  0  0  0  0  0  0
   -0.5536    4.3826   -2.4712 H   0  0  0  1  0  0  0  0  0  0  0  0
   -1.7443    5.8280   -4.7274 H   0  0  0  1  0  0  0  0  0  0  0  0
   -0.0360    5.5955   -4.4443 H   0  0  0  1  0  0  0  0  0  0  0  0
   -0.9348    6.7389   -3.4753 H   0  0  0  1  0  0  0  0  0  0  0  0
   -5.4369    5.5828    0.7765 H   0  0  0  1  0  0  0  0  0  0  0  0
   -4.1710    6.7837    0.8664 H   0  0  0  1  0  0  0  0  0  0  0  0
   -3.9322    5.2068    1.5809 H   0  0  0  1  0  0  0  0  0  0  0  0
    3.1442    0.7374   -5.3553 F   0  0  0  1  0  0  0  0  0  0  0  0
    1.9262    0.2013   -5.2606 C   0  0  0  1  0  0  0  0  0  0  0  0
    1.4090    0.2315   -6.4898 F   0  0  0  1  0  0  0  0  0  0  0  0
    2.1073   -1.0885   -4.9622 F   0  0  0  1  0  0  0  0  0  0  0  0
    1.0557    0.9145   -4.2472 C   0  0  0  1  0  0  0  0  0  0  0  0
    1.6139    1.3548   -3.0572 C   0  0  0  1  0  0  0  0  0  0  0  0
    0.8111    1.9229   -2.0861 C   0  0  0  1  0  0  0  0  0  0  0  0
   -0.5512    2.0574   -2.3042 C   0  0  0  1  0  0  0  0  0  0  0  0
   -1.1075    1.6183   -3.4908 C   0  0  0  1  0  0  0  0  0  0  0  0
   -0.3026    1.0485   -4.4649 C   0  0  0  1  0  0  0  0  0  0  0  0
   -1.4281    2.6835   -1.2457 C   0  0  0  1  0  0  0  0  0  0  0  0
    2.6366    1.2576   -2.8951 H   0  0  0  1  0  0  0  0  0  0  0  0
    1.2291    2.2496   -1.1916 H   0  0  0  1  0  0  0  0  0  0  0  0
   -2.1302    1.7155   -3.6529 H   0  0  0  1  0  0  0  0  0  0  0  0
   -0.7207    0.7218   -5.3593 H   0  0  0  1  0  0  0  0  0  0  0  0
   -1.6675    1.9199   -0.5355 H   0  0  0  1  0  0  0  0  0  0  0  0
   -0.8547    3.4495   -0.7669 H   0  0  0  1  0  0  0  0  0  0  0  0
  1  4  1  0  0  0  0
  2  4  1  0  0  0  0
  2  5  2  0  0  0  0
  2  6  1  0  0  0  0
  3  4  1  0  0  0  0
  3  7  1  0  0  0  0
  3  8  1  0  0  0  0
  4 29  1  0  0  0  0
  6  9  1  0  0  0  0
  6 12  1  0  0  0  0
  8 10  1  0  0  0  0
  8 11  2  0  0  0  0
  9 13  1  0  0  0  0
  9 14  1  0  0  0  0
  9 15  1  0  0  0  0
 10 16  1  0  0  0  0
 10 17  1  0  0  0  0
 10 18  1  0  0  0  0
 19 20  1  0  0  0  0
 20 21  1  0  0  0  0
 20 22  1  0  0  0  0
 20 23  1  0  0  0  0
 23 24  4  0  0  0  0
 23 28  4  0  0  0  0
 24 25  4  0  0  0  0
 24 30  1  0  0  0  0
 25 26  4  0  0  0  0
 25 31  1  0  0  0  0
 26 27  4  0  0  0  0
 26 29  1  0  0  0  0
 27 28  4  0  0  0  0
 27 32  1  0  0  0  0
 28 33  1  0  0  0  0
 29 34  1  0  0  0  0
 29 35  1  0  0  0  0
M  END
> <BCLConfClusterSize>
1

> <ConfClashScore>
0.000872764 

> <ConfOneFourInteractionScore>
-0.942676 

> <ConfScore>
0.489761 

> <ConfScorePBest>
0.00324843 

> <ConfTolerance>
0.614946 

> <RosettaParamsInstructions>
M  ROOT 3
M  POLY_N_BB 3
M  POLY_CA_BB 4
M  POLY_C_BB 2
M  POLY_O_BB 5
M  POLY_IGNORE 9 10 11 12 13 14 15 16 17 18 
M  POLY_UPPER 6
M  POLY_LOWER 8
M  POLY_CHG 0
M  POLY_PROPERTIES ALPHA_AA D_AA PROTEIN AROMATIC POLYMER 
M  END

$$$$



 35 35  0  0  0  0  0  0  0  0999 V2000
   -1.6440    4.5503   -0.2486 H   0  0  0  1  0  0  0  0  0  0  0  0
   -0.5180    4.9041   -2.0213 C   0  0  0  1  0  0  0  0  0  0  0  0
    0.3070    3.8528    0.0143 N   0  0  0  1  0  0  0  0  0  0  0  0
   -0.8918    4.0427   -0.8155 C   0  0  0  1  0  0  0  0  0  0  0  0
    0.5364    4.7353   -2.6141 O   0  0  0  1  0  0  0  0  0  0  0  0
   -1.4414    5.7787   -2.4347 N   0  0  0  1  0  0  0  0  0  0  0  0
    0.5822    2.9412    0.2460 H   0  0  0  1  0  0  0  0  0  0  0  0
    1.0341    4.8797    0.4634 C   0  0  0  1  0  0  0  0  0  0  0  0
   -1.2706    6.5789   -3.6382 C   0  0  0  1  0  0  0  0  0  0  0  0
    2.1021    4.5708    1.5131 C   0  0  0  1  0  0  0  0  0  0  0  0
    0.8147    6.0415    0.1242 O   0  0  0  1  0  0  0  0  0  0  0  0
   -2.2616    5.8844   -1.9089 H   0  0  0  1  0  0  0  0  0  0  0  0
   -2.1385    7.1861   -3.7894 H   0  0  0  1  0  0  0  0  0  0  0  0
   -1.1369    5.9323   -4.4801 H   0  0  0  1  0  0  0  0  0  0  0  0
   -0.4109    7.2066   -3.5298 H   0  0  0  1  0  0  0  0  0  0  0  0
    3.0723    4.6461    1.0684 H   0  0  0  1  0  0  0  0  0  0  0  0
    1.9575    3.5789    1.8874 H   0  0  0  1  0  0  0  0  0  0  0  0
    2.0237    5.2713    2.3181 H   0  0  0  1  0  0  0  0  0  0  0  0
    2.4681    1.0387   -6.1497 F   0  0  0  1  0  0  0  0  0  0  0  0
    1.9133    0.2005   -5.2725 C   0  0  0  1  0  0  0  0  0  0  0  0
    1.2011   -0.6709   -5.9887 F   0  0  0  1  0  0  0  0  0  0  0  0
    2.9166   -0.4920   -4.7317 F   0  0  0  1  0  0  0  0  0  0  0  0
    1.0763    0.9187   -4.2321 C   0  0  0  1  0  0  0  0  0  0  0  0
    1.6177    1.3350   -3.0259 C   0  0  0  1  0  0  0  0  0  0  0  0
    0.8044    1.9001   -2.0618 C   0  0  0  1  0  0  0  0  0  0  0  0
   -0.5518    2.0554   -2.3031 C   0  0  0  1  0  0  0  0  0  0  0  0
   -1.0915    1.6402   -3.5058 C   0  0  0  1  0  0  0  0  0  0  0  0
   -0.2759    1.0735   -4.4729 C   0  0  0  1  0  0  0  0  0  0  0  0
   -1.4402    2.6781   -1.2522 C   0  0  0  1  0  0  0  0  0  0  0  0
    2.6359    1.2222   -2.8463 H   0  0  0  1  0  0  0  0  0  0  0  0
    1.2098    2.2088   -1.1553 H   0  0  0  1  0  0  0  0  0  0  0  0
   -2.1096    1.7530   -3.6854 H   0  0  0  1  0  0  0  0  0  0  0  0
   -0.6814    0.7648   -5.3794 H   0  0  0  1  0  0  0  0  0  0  0  0
   -2.4228    2.8077   -1.6554 H   0  0  0  1  0  0  0  0  0  0  0  0
   -1.4855    2.0299   -0.4022 H   0  0  0  1  0  0  0  0  0  0  0  0
  1  4  1  0  0  0  0
  2  4  1  0  0  0  0
  2  5  2  0  0  0  0
  2  6  1  0  0  0  0
  3  4  1  0  0  0  0
  3  7  1  0  0  0  0
  3  8  1  0  0  0  0
  4 29  1  0  0  0  0
  6  9  1  0  0  0  0
  6 12  1  0  0  0  0
  8 10  1  0  0  0  0
  8 11  2  0  0  0  0
  9 13  1  0  0  0  0
  9 14  1  0  0  0  0
  9 15  1  0  0  0  0
 10 16  1  0  0  0  0
 10 17  1  0  0  0  0
 10 18  1  0  0  0  0
 19 20  1  0  0  0  0
 20 21  1  0  0  0  0
 20 22  1  0  0  0  0
 20 23  1  0  0  0  0
 23 24  4  0  0  0  0
 23 28  4  0  0  0  0
 24 25  4  0  0  0  0
 24 30  1  0  0  0  0
 25 26  4  0  0  0  0
 25 31  1  0  0  0  0
 26 27  4  0  0  0  0
 26 29  1  0  0  0  0
 27 28  4  0  0  0  0
 27 32  1  0  0  0  0
 28 33  1  0  0  0  0
 29 34  1  0  0  0  0
 29 35  1  0  0  0  0
M  END
> <BCLConfClusterSize>
1

> <ConfClashScore>
0 

> <ConfOneFourInteractionScore>
-0.982563 

> <ConfScore>
0.494153 

> <ConfScorePBest>
0.00321995 

> <ConfTolerance>
0.745726 

> <RosettaParamsInstructions>
M  ROOT 3
M  POLY_N_BB 3
M  POLY_CA_BB 4
M  POLY_C_BB 2
M  POLY_O_BB 5
M  POLY_IGNORE 9 10 11 12 13 14 15 16 17 18 
M  POLY_UPPER 6
M  POLY_LOWER 8
M  POLY_CHG 0
M  POLY_PROPERTIES ALPHA_AA D_AA PROTEIN AROMATIC POLYMER 
M  END

$$$$



 35 35  0  0  0  0  0  0  0  0999 V2000
   -0.7870    4.4676   -2.1587 H   0  0  0  1  0  0  0  0  0  0  0  0
   -0.3631    4.7220   -0.1223 C   0  0  0  1  0  0  0  0  0  0  0  0
   -2.5715    4.8751   -1.2078 N   0  0  0  1  0  0  0  0  0  0  0  0
   -1.2590    4.2022   -1.2358 C   0  0  0  1  0  0  0  0  0  0  0  0
   -0.4238    5.8897    0.2304 O   0  0  0  1  0  0  0  0  0  0  0  0
    0.3966    3.7911    0.4648 N   0  0  0  1  0  0  0  0  0  0  0  0
   -2.9770    5.1909   -2.0423 H   0  0  0  1  0  0  0  0  0  0  0  0
   -3.2086    5.0549   -0.0473 C   0  0  0  1  0  0  0  0  0  0  0  0
    1.2645    4.0942    1.5930 C   0  0  0  1  0  0  0  0  0  0  0  0
   -4.6215    5.5959   -0.1484 C   0  0  0  1  0  0  0  0  0  0  0  0
   -2.6979    4.8032    1.0433 O   0  0  0  1  0  0  0  0  0  0  0  0
    0.3680    2.8730    0.1234 H   0  0  0  1  0  0  0  0  0  0  0  0
    1.5976    5.1088    1.5249 H   0  0  0  1  0  0  0  0  0  0  0  0
    2.1106    3.4395    1.5778 H   0  0  0  1  0  0  0  0  0  0  0  0
    0.7233    3.9573    2.5058 H   0  0  0  1  0  0  0  0  0  0  0  0
   -5.3104    4.7817   -0.2350 H   0  0  0  1  0  0  0  0  0  0  0  0
   -4.7018    6.2239   -1.0110 H   0  0  0  1  0  0  0  0  0  0  0  0
   -4.8494    6.1637    0.7294 H   0  0  0  1  0  0  0  0  0  0  0  0
    1.5990    0.5089   -6.5148 F   0  0  0  1  0  0  0  0  0  0  0  0
    1.9243    0.1966   -5.2592 C   0  0  0  1  0  0  0  0  0  0  0  0
    1.8251   -1.1305   -5.1676 F   0  0  0  1  0  0  0  0  0  0  0  0
    3.2211    0.4848   -5.1263 F   0  0  0  1  0  0  0  0  0  0  0  0
    1.0631    0.9144   -4.2412 C   0  0  0  1  0  0  0  0  0  0  0  0
    1.5677    1.1638   -2.9744 C   0  0  0  1  0  0  0  0  0  0  0  0
    0.7596    1.7338   -2.0088 C   0  0  0  1  0  0  0  0  0  0  0  0
   -0.5536    2.0611   -2.3085 C   0  0  0  1  0  0  0  0  0  0  0  0
   -1.0565    1.8124   -3.5716 C   0  0  0  1  0  0  0  0  0  0  0  0
   -0.2463    1.2406   -4.5402 C   0  0  0  1  0  0  0  0  0  0  0  0
   -1.4353    2.6895   -1.2554 C   0  0  0  1  0  0  0  0  0  0  0  0
    2.5541    0.9220   -2.7506 H   0  0  0  1  0  0  0  0  0  0  0  0
    1.1369    1.9173   -1.0571 H   0  0  0  1  0  0  0  0  0  0  0  0
   -2.0429    2.0542   -3.7954 H   0  0  0  1  0  0  0  0  0  0  0  0
   -0.6236    1.0572   -5.4918 H   0  0  0  1  0  0  0  0  0  0  0  0
   -2.4577    2.4582   -1.4703 H   0  0  0  1  0  0  0  0  0  0  0  0
   -1.1734    2.2933   -0.2966 H   0  0  0  1  0  0  0  0  0  0  0  0
  1  4  1  0  0  0  0
  2  4  1  0  0  0  0
  2  5  2  0  0  0  0
  2  6  1  0  0  0  0
  3  4  1  0  0  0  0
  3  7  1  0  0  0  0
  3  8  1  0  0  0  0
  4 29  1  0  0  0  0
  6  9  1  0  0  0  0
  6 12  1  0  0  0  0
  8 10  1  0  0  0  0
  8 11  2  0  0  0  0
  9 13  1  0  0  0  0
  9 14  1  0  0  0  0
  9 15  1  0  0  0  0
 10 16  1  0  0  0  0
 10 17  1  0  0  0  0
 10 18  1  0  0  0  0
 19 20  1  0  0  0  0
 20 21  1  0  0  0  0
 20 22  1  0  0  0  0
 20 23  1  0  0  0  0
 23 24  4  0  0  0  0
 23 28  4  0  0  0  0
 24 25  4  0  0  0  0
 24 30  1  0  0  0  0
 25 26  4  0  0  0  0
 25 31  1  0  0  0  0
 26 27  4  0  0  0  0
 26 29  1  0  0  0  0
 27 28  4  0  0  0  0
 27 32  1  0  0  0  0
 28 33  1  0  0  0  0
 29 34  1  0  0  0  0
 29 35  1  0  0  0  0
M  END
> <BCLConfClusterSize>
1

> <ConfClashScore>
1.4281e-05 

> <ConfOneFourInteractionScore>
-0.926255 

> <ConfScore>
0.496127 

> <ConfScorePBest>
0.00319147 

> <ConfTolerance>
0.492609 

> <RosettaParamsInstructions>
M  ROOT 3
M  POLY_N_BB 3
M  POLY_CA_BB 4
M  POLY_C_BB 2
M  POLY_O_BB 5
M  POLY_IGNORE 9 10 11 12 13 14 15 16 17 18 
M  POLY_UPPER 6
M  POLY_LOWER 8
M  POLY_CHG 0
M  POLY_PROPERTIES ALPHA_AA D_AA PROTEIN AROMATIC POLYMER 
M  END

$$$$



 35 35  0  0  0  0  0  0  0  0999 V2000
   -0.6755    4.5693   -1.7819 H   0  0  0  1  0  0  0  0  0  0  0  0
   -0.1498    4.3212    0.2384 C   0  0  0  1  0  0  0  0  0  0  0  0
   -2.3640    4.8596   -0.6226 N   0  0  0  1  0  0  0  0  0  0  0  0
   -1.1199    4.1325   -0.9121 C   0  0  0  1  0  0  0  0  0  0  0  0
    1.0029    3.9246    0.1626 O   0  0  0  1  0  0  0  0  0  0  0  0
   -0.6027    5.0181    1.2897 N   0  0  0  1  0  0  0  0  0  0  0  0
   -3.1740    4.3648   -0.3786 H   0  0  0  1  0  0  0  0  0  0  0  0
   -2.3929    6.1935   -0.6913 C   0  0  0  1  0  0  0  0  0  0  0  0
    0.2810    5.5057    2.3382 C   0  0  0  1  0  0  0  0  0  0  0  0
   -3.7101    6.8441   -0.3157 C   0  0  0  1  0  0  0  0  0  0  0  0
   -1.4311    6.8621   -1.0324 O   0  0  0  1  0  0  0  0  0  0  0  0
   -1.5623    5.2059    1.3547 H   0  0  0  1  0  0  0  0  0  0  0  0
    0.9111    6.2758    1.9447 H   0  0  0  1  0  0  0  0  0  0  0  0
    0.8856    4.6997    2.6982 H   0  0  0  1  0  0  0  0  0  0  0  0
   -0.3041    5.9003    3.1425 H   0  0  0  1  0  0  0  0  0  0  0  0
   -3.5708    7.4596    0.5484 H   0  0  0  1  0  0  0  0  0  0  0  0
   -4.4335    6.0857   -0.1003 H   0  0  0  1  0  0  0  0  0  0  0  0
   -4.0554    7.4460   -1.1302 H   0  0  0  1  0  0  0  0  0  0  0  0
    1.8010   -1.1142   -5.1794 F   0  0  0  1  0  0  0  0  0  0  0  0
    1.9357    0.2107   -5.2593 C   0  0  0  1  0  0  0  0  0  0  0  0
    3.2206    0.4185   -5.0871 F   0  0  0  1  0  0  0  0  0  0  0  0
    1.6235    0.5048   -6.4977 F   0  0  0  1  0  0  0  0  0  0  0  0
    1.0741    0.9240   -4.2385 C   0  0  0  1  0  0  0  0  0  0  0  0
    1.4847    0.9762   -2.9155 C   0  0  0  1  0  0  0  0  0  0  0  0
    0.6631    1.5424   -1.9590 C   0  0  0  1  0  0  0  0  0  0  0  0
   -0.5689    2.0628   -2.3234 C   0  0  0  1  0  0  0  0  0  0  0  0
   -0.9780    2.0106   -3.6425 C   0  0  0  1  0  0  0  0  0  0  0  0
   -0.1543    1.4429   -4.6020 C   0  0  0  1  0  0  0  0  0  0  0  0
   -1.4243    2.6751   -1.2396 C   0  0  0  1  0  0  0  0  0  0  0  0
    2.4107    0.5894   -2.6426 H   0  0  0  1  0  0  0  0  0  0  0  0
    0.9693    1.5780   -0.9657 H   0  0  0  1  0  0  0  0  0  0  0  0
   -1.9041    2.3974   -3.9153 H   0  0  0  1  0  0  0  0  0  0  0  0
   -0.4605    1.4073   -5.5952 H   0  0  0  1  0  0  0  0  0  0  0  0
   -2.4461    2.6132   -1.5510 H   0  0  0  1  0  0  0  0  0  0  0  0
   -1.2875    2.1008   -0.3472 H   0  0  0  1  0  0  0  0  0  0  0  0
  1  4  1  0  0  0  0
  2  4  1  0  0  0  0
  2  5  2  0  0  0  0
  2  6  1  0  0  0  0
  3  4  1  0  0  0  0
  3  7  1  0  0  0  0
  3  8  1  0  0  0  0
  4 29  1  0  0  0  0
  6  9  1  0  0  0  0
  6 12  1  0  0  0  0
  8 10  1  0  0  0  0
  8 11  2  0  0  0  0
  9 13  1  0  0  0  0
  9 14  1  0  0  0  0
  9 15  1  0  0  0  0
 10 16  1  0  0  0  0
 10 17  1  0  0  0  0
 10 18  1  0  0  0  0
 19 20  1  0  0  0  0
 20 21  1  0  0  0  0
 20 22  1  0  0  0  0
 20 23  1  0  0  0  0
 23 24  4  0  0  0  0
 23 28  4  0  0  0  0
 24 25  4  0  0  0  0
 24 30  1  0  0  0  0
 25 26  4  0  0  0  0
 25 31  1  0  0  0  0
 26 27  4  0  0  0  0
 26 29  1  0  0  0  0
 27 28  4  0  0  0  0
 27 32  1  0  0  0  0
 28 33  1  0  0  0  0
 29 34  1  0  0  0  0
 29 35  1  0  0  0  0
M  END
> <BCLConfClusterSize>
1

> <ConfClashScore>
0 

> <ConfOneFourInteractionScore>
-0.948834 

> <ConfScore>
0.498223 

> <ConfScorePBest>
0.00316299 

> <ConfTolerance>
0.703214 

> <RosettaParamsInstructions>
M  ROOT 3
M  POLY_N_BB 3
M  POLY_CA_BB 4
M  POLY_C_BB 2
M  POLY_O_BB 5
M  POLY_IGNORE 9 10 11 12 13 14 15 16 17 18 
M  POLY_UPPER 6
M  POLY_LOWER 8
M  POLY_CHG 0
M  POLY_PROPERTIES ALPHA_AA D_AA PROTEIN AROMATIC POLYMER 
M  END

$$$$



 35 35  0  0  0  0  0  0  0  0999 V2000
   -3.1320    1.4960   -1.6177 H   0  0  0  1  0  0  0  0  0  0  0  0
   -3.3666    2.3026    0.3099 C   0  0  0  1  0  0  0  0  0  0  0  0
   -1.8799    0.4404   -0.3584 N   0  0  0  1  0  0  0  0  0  0  0  0
   -2.4988    1.7008   -0.7799 C   0  0  0  1  0  0  0  0  0  0  0  0
   -3.3049    3.5041    0.5676 O   0  0  0  1  0  0  0  0  0  0  0  0
   -4.2320    1.4482    0.8731 N   0  0  0  1  0  0  0  0  0  0  0  0
   -1.6853   -0.2282   -1.0480 H   0  0  0  1  0  0  0  0  0  0  0  0
   -1.5649    0.1459    0.9032 C   0  0  0  1  0  0  0  0  0  0  0  0
   -5.2158    1.9299    1.8294 C   0  0  0  1  0  0  0  0  0  0  0  0
   -0.8678   -1.1918    1.1532 C   0  0  0  1  0  0  0  0  0  0  0  0
   -1.8867    0.8646    1.8485 O   0  0  0  1  0  0  0  0  0  0  0  0
   -4.2017    0.4969    0.6399 H   0  0  0  1  0  0  0  0  0  0  0  0
   -5.7509    1.0994    2.2403 H   0  0  0  1  0  0  0  0  0  0  0  0
   -5.9013    2.5864    1.3355 H   0  0  0  1  0  0  0  0  0  0  0  0
   -4.7191    2.4583    2.6162 H   0  0  0  1  0  0  0  0  0  0  0  0
   -0.8333   -1.3855    2.2049 H   0  0  0  1  0  0  0  0  0  0  0  0
    0.1285   -1.1524    0.7651 H   0  0  0  1  0  0  0  0  0  0  0  0
   -1.4109   -1.9735    0.6644 H   0  0  0  1  0  0  0  0  0  0  0  0
    3.1994    0.5975   -5.2101 F   0  0  0  1  0  0  0  0  0  0  0  0
    1.9266    0.2008   -5.2600 C   0  0  0  1  0  0  0  0  0  0  0  0
    1.5217    0.4041   -6.5146 F   0  0  0  1  0  0  0  0  0  0  0  0
    1.9401   -1.1208   -5.0813 F   0  0  0  1  0  0  0  0  0  0  0  0
    1.0564    0.9144   -4.2467 C   0  0  0  1  0  0  0  0  0  0  0  0
    1.6114    1.3415   -3.0504 C   0  0  0  1  0  0  0  0  0  0  0  0
    0.8079    1.9098   -2.0799 C   0  0  0  1  0  0  0  0  0  0  0  0
   -0.5519    2.0575   -2.3049 C   0  0  0  1  0  0  0  0  0  0  0  0
   -1.1050    1.6315   -3.4977 C   0  0  0  1  0  0  0  0  0  0  0  0
   -0.2994    1.0615   -4.4711 C   0  0  0  1  0  0  0  0  0  0  0  0
   -1.4295    2.6837   -1.2471 C   0  0  0  1  0  0  0  0  0  0  0  0
    2.6323    1.2345   -2.8831 H   0  0  0  1  0  0  0  0  0  0  0  0
    1.2236    2.2267   -1.1808 H   0  0  0  1  0  0  0  0  0  0  0  0
   -2.1259    1.7386   -3.6649 H   0  0  0  1  0  0  0  0  0  0  0  0
   -0.7151    0.7447   -5.3702 H   0  0  0  1  0  0  0  0  0  0  0  0
   -0.8241    2.9669   -0.4115 H   0  0  0  1  0  0  0  0  0  0  0  0
   -1.9047    3.5517   -1.6543 H   0  0  0  1  0  0  0  0  0  0  0  0
  1  4  1  0  0  0  0
  2  4  1  0  0  0  0
  2  5  2  0  0  0  0
  2  6  1  0  0  0  0
  3  4  1  0  0  0  0
  3  7  1  0  0  0  0
  3  8  1  0  0  0  0
  4 29  1  0  0  0  0
  6  9  1  0  0  0  0
  6 12  1  0  0  0  0
  8 10  1  0  0  0  0
  8 11  2  0  0  0  0
  9 13  1  0  0  0  0
  9 14  1  0  0  0  0
  9 15  1  0  0  0  0
 10 16  1  0  0  0  0
 10 17  1  0  0  0  0
 10 18  1  0  0  0  0
 19 20  1  0  0  0  0
 20 21  1  0  0  0  0
 20 22  1  0  0  0  0
 20 23  1  0  0  0  0
 23 24  4  0  0  0  0
 23 28  4  0  0  0  0
 24 25  4  0  0  0  0
 24 30  1  0  0  0  0
 25 26  4  0  0  0  0
 25 31  1  0  0  0  0
 26 27  4  0  0  0  0
 26 29  1  0  0  0  0
 27 28  4  0  0  0  0
 27 32  1  0  0  0  0
 28 33  1  0  0  0  0
 29 34  1  0  0  0  0
 29 35  1  0  0  0  0
M  END
> <BCLConfClusterSize>
1

> <ConfClashScore>
0 

> <ConfOneFourInteractionScore>
-0.976539 

> <ConfScore>
0.500803 

> <ConfScorePBest>
0.00313451 

> <ConfTolerance>
0.505816 

> <RosettaParamsInstructions>
M  ROOT 3
M  POLY_N_BB 3
M  POLY_CA_BB 4
M  POLY_C_BB 2
M  POLY_O_BB 5
M  POLY_IGNORE 9 10 11 12 13 14 15 16 17 18 
M  POLY_UPPER 6
M  POLY_LOWER 8
M  POLY_CHG 0
M  POLY_PROPERTIES ALPHA_AA D_AA PROTEIN AROMATIC POLYMER 
M  END

$$$$



 35 35  0  0  0  0  0  0  0  0999 V2000
   -3.4240    3.0992   -0.7229 H   0  0  0  1  0  0  0  0  0  0  0  0
   -3.4753    1.4112   -1.9686 C   0  0  0  1  0  0  0  0  0  0  0  0
   -3.0951    3.7877   -2.6308 N   0  0  0  1  0  0  0  0  0  0  0  0
   -2.9137    2.7719   -1.6046 C   0  0  0  1  0  0  0  0  0  0  0  0
   -3.5904    1.0760   -3.1465 O   0  0  0  1  0  0  0  0  0  0  0  0
   -3.7347    0.6158   -0.9253 N   0  0  0  1  0  0  0  0  0  0  0  0
   -2.9218    3.5514   -3.5660 H   0  0  0  1  0  0  0  0  0  0  0  0
   -3.5047    5.0781   -2.3315 C   0  0  0  1  0  0  0  0  0  0  0  0
   -4.1290   -0.7818   -1.0209 C   0  0  0  1  0  0  0  0  0  0  0  0
   -3.7550    6.0442   -3.4552 C   0  0  0  1  0  0  0  0  0  0  0  0
   -3.6487    5.3868   -1.1626 O   0  0  0  1  0  0  0  0  0  0  0  0
   -3.6530    1.0033   -0.0289 H   0  0  0  1  0  0  0  0  0  0  0  0
   -4.8552   -0.8956   -1.7984 H   0  0  0  1  0  0  0  0  0  0  0  0
   -4.5514   -1.0974   -0.0898 H   0  0  0  1  0  0  0  0  0  0  0  0
   -3.2705   -1.3799   -1.2447 H   0  0  0  1  0  0  0  0  0  0  0  0
   -4.5802    5.7014   -4.0438 H   0  0  0  1  0  0  0  0  0  0  0  0
   -2.8817    6.1098   -4.0700 H   0  0  0  1  0  0  0  0  0  0  0  0
   -3.9812    7.0091   -3.0520 H   0  0  0  1  0  0  0  0  0  0  0  0
    1.4588    0.3005   -6.5069 F   0  0  0  1  0  0  0  0  0  0  0  0
    1.9179    0.1925   -5.2589 C   0  0  0  1  0  0  0  0  0  0  0  0
    2.0501   -1.1115   -5.0106 F   0  0  0  1  0  0  0  0  0  0  0  0
    3.1635    0.6673   -5.2999 F   0  0  0  1  0  0  0  0  0  0  0  0
    1.0606    0.9128   -4.2394 C   0  0  0  1  0  0  0  0  0  0  0  0
    1.5500    1.1183   -2.9588 C   0  0  0  1  0  0  0  0  0  0  0  0
    0.7423    1.6906   -1.9941 C   0  0  0  1  0  0  0  0  0  0  0  0
   -0.5551    2.0639   -2.3085 C   0  0  0  1  0  0  0  0  0  0  0  0
   -1.0428    1.8590   -3.5853 C   0  0  0  1  0  0  0  0  0  0  0  0
   -0.2330    1.2850   -4.5530 C   0  0  0  1  0  0  0  0  0  0  0  0
   -1.4362    2.6947   -1.2563 C   0  0  0  1  0  0  0  0  0  0  0  0
    2.5247    0.8419   -2.7239 H   0  0  0  1  0  0  0  0  0  0  0  0
    1.1081    1.8411   -1.0323 H   0  0  0  1  0  0  0  0  0  0  0  0
   -2.0175    2.1354   -3.8202 H   0  0  0  1  0  0  0  0  0  0  0  0
   -0.5988    1.1345   -5.5148 H   0  0  0  1  0  0  0  0  0  0  0  0
   -1.3384    2.1225   -0.3575 H   0  0  0  1  0  0  0  0  0  0  0  0
   -1.0849    3.6909   -1.0855 H   0  0  0  1  0  0  0  0  0  0  0  0
  1  4  1  0  0  0  0
  2  4  1  0  0  0  0
  2  5  2  0  0  0  0
  2  6  1  0  0  0  0
  3  4  1  0  0  0  0
  3  7  1  0  0  0  0
  3  8  1  0  0  0  0
  4 29  1  0  0  0  0
  6  9  1  0  0  0  0
  6 12  1  0  0  0  0
  8 10  1  0  0  0  0
  8 11  2  0  0  0  0
  9 13  1  0  0  0  0
  9 14  1  0  0  0  0
  9 15  1  0  0  0  0
 10 16  1  0  0  0  0
 10 17  1  0  0  0  0
 10 18  1  0  0  0  0
 19 20  1  0  0  0  0
 20 21  1  0  0  0  0
 20 22  1  0  0  0  0
 20 23  1  0  0  0  0
 23 24  4  0  0  0  0
 23 28  4  0  0  0  0
 24 25  4  0  0  0  0
 24 30  1  0  0  0  0
 25 26  4  0  0  0  0
 25 31  1  0  0  0  0
 26 27  4  0  0  0  0
 26 29  1  0  0  0  0
 27 28  4  0  0  0  0
 27 32  1  0  0  0  0
 28 33  1  0  0  0  0
 29 34  1  0  0  0  0
 29 35  1  0  0  0  0
M  END
> <BCLConfClusterSize>
1

> <ConfClashScore>
2.14872e-05 

> <ConfOneFourInteractionScore>
-0.979817 

> <ConfScore>
0.50922 

> <ConfScorePBest>
0.00310603 

> <ConfTolerance>
0.945816 

> <RosettaParamsInstructions>
M  ROOT 3
M  POLY_N_BB 3
M  POLY_CA_BB 4
M  POLY_C_BB 2
M  POLY_O_BB 5
M  POLY_IGNORE 9 10 11 12 13 14 15 16 17 18 
M  POLY_UPPER 6
M  POLY_LOWER 8
M  POLY_CHG 0
M  POLY_PROPERTIES ALPHA_AA D_AA PROTEIN AROMATIC POLYMER 
M  END

$$$$



 35 35  0  0  0  0  0  0  0  0999 V2000
   -3.3682    3.1712   -0.6450 H   0  0  0  1  0  0  0  0  0  0  0  0
   -3.4850    1.3720   -1.7256 C   0  0  0  1  0  0  0  0  0  0  0  0
   -3.1525    3.6391   -2.6370 N   0  0  0  1  0  0  0  0  0  0  0  0
   -2.8968    2.7542   -1.5103 C   0  0  0  1  0  0  0  0  0  0  0  0
   -3.6222    0.6088   -0.7707 O   0  0  0  1  0  0  0  0  0  0  0  0
   -3.9104    1.0837   -2.9602 N   0  0  0  1  0  0  0  0  0  0  0  0
   -2.3923    4.0621   -3.0882 H   0  0  0  1  0  0  0  0  0  0  0  0
   -4.3876    3.8950   -3.0775 C   0  0  0  1  0  0  0  0  0  0  0  0
   -4.4804   -0.2105   -3.3036 C   0  0  0  1  0  0  0  0  0  0  0  0
   -4.4888    4.9019   -4.2068 C   0  0  0  1  0  0  0  0  0  0  0  0
   -5.3888    3.3588   -2.6102 O   0  0  0  1  0  0  0  0  0  0  0  0
   -3.8356    1.7677   -3.6580 H   0  0  0  1  0  0  0  0  0  0  0  0
   -4.9088   -0.6553   -2.4298 H   0  0  0  1  0  0  0  0  0  0  0  0
   -3.7117   -0.8480   -3.6877 H   0  0  0  1  0  0  0  0  0  0  0  0
   -5.2400   -0.0798   -4.0459 H   0  0  0  1  0  0  0  0  0  0  0  0
   -3.6916    5.6110   -4.1255 H   0  0  0  1  0  0  0  0  0  0  0  0
   -5.4273    5.4122   -4.1462 H   0  0  0  1  0  0  0  0  0  0  0  0
   -4.4188    4.3930   -5.1454 H   0  0  0  1  0  0  0  0  0  0  0  0
    3.1885    0.0332   -4.8427 F   0  0  0  1  0  0  0  0  0  0  0  0
    1.9319    0.2065   -5.2562 C   0  0  0  1  0  0  0  0  0  0  0  0
    1.9981    0.8347   -6.4311 F   0  0  0  1  0  0  0  0  0  0  0  0
    1.4831   -1.0168   -5.5401 F   0  0  0  1  0  0  0  0  0  0  0  0
    1.0596    0.9190   -4.2439 C   0  0  0  1  0  0  0  0  0  0  0  0
    1.5904    1.2708   -3.0126 C   0  0  0  1  0  0  0  0  0  0  0  0
    0.7795    1.8369   -2.0470 C   0  0  0  1  0  0  0  0  0  0  0  0
   -0.5631    2.0577   -2.3116 C   0  0  0  1  0  0  0  0  0  0  0  0
   -1.0921    1.7069   -3.5393 C   0  0  0  1  0  0  0  0  0  0  0  0
   -0.2791    1.1392   -4.5079 C   0  0  0  1  0  0  0  0  0  0  0  0
   -1.4026    2.6843   -1.2235 C   0  0  0  1  0  0  0  0  0  0  0  0
    2.5986    1.1088   -2.8154 H   0  0  0  1  0  0  0  0  0  0  0  0
    1.1767    2.0971   -1.1218 H   0  0  0  1  0  0  0  0  0  0  0  0
   -2.1003    1.8689   -3.7365 H   0  0  0  1  0  0  0  0  0  0  0  0
   -0.6763    0.8789   -5.4332 H   0  0  0  1  0  0  0  0  0  0  0  0
   -1.2645    2.1127   -0.3296 H   0  0  0  1  0  0  0  0  0  0  0  0
   -1.0494    3.6822   -1.0675 H   0  0  0  1  0  0  0  0  0  0  0  0
  1  4  1  0  0  0  0
  2  4  1  0  0  0  0
  2  5  2  0  0  0  0
  2  6  1  0  0  0  0
  3  4  1  0  0  0  0
  3  7  1  0  0  0  0
  3  8  1  0  0  0  0
  4 29  1  0  0  0  0
  6  9  1  0  0  0  0
  6 12  1  0  0  0  0
  8 10  1  0  0  0  0
  8 11  2  0  0  0  0
  9 13  1  0  0  0  0
  9 14  1  0  0  0  0
  9 15  1  0  0  0  0
 10 16  1  0  0  0  0
 10 17  1  0  0  0  0
 10 18  1  0  0  0  0
 19 20  1  0  0  0  0
 20 21  1  0  0  0  0
 20 22  1  0  0  0  0
 20 23  1  0  0  0  0
 23 24  4  0  0  0  0
 23 28  4  0  0  0  0
 24 25  4  0  0  0  0
 24 30  1  0  0  0  0
 25 26  4  0  0  0  0
 25 31  1  0  0  0  0
 26 27  4  0  0  0  0
 26 29  1  0  0  0  0
 27 28  4  0  0  0  0
 27 32  1  0  0  0  0
 28 33  1  0  0  0  0
 29 34  1  0  0  0  0
 29 35  1  0  0  0  0
M  END
> <BCLConfClusterSize>
1

> <ConfClashScore>
0.00113649 

> <ConfOneFourInteractionScore>
-0.943163 

> <ConfScore>
0.512779 

> <ConfScorePBest>
0.00307755 

> <ConfTolerance>
0.552315 

> <RosettaParamsInstructions>
M  ROOT 3
M  POLY_N_BB 3
M  POLY_CA_BB 4
M  POLY_C_BB 2
M  POLY_O_BB 5
M  POLY_IGNORE 9 10 11 12 13 14 15 16 17 18 
M  POLY_UPPER 6
M  POLY_LOWER 8
M  POLY_CHG 0
M  POLY_PROPERTIES ALPHA_AA D_AA PROTEIN AROMATIC POLYMER 
M  END

$$$$



 35 35  0  0  0  0  0  0  0  0999 V2000
   -0.6890    4.5618   -1.8471 H   0  0  0  1  0  0  0  0  0  0  0  0
   -1.4555    4.7521    0.1154 C   0  0  0  1  0  0  0  0  0  0  0  0
   -2.7479    4.5820   -2.0520 N   0  0  0  1  0  0  0  0  0  0  0  0
   -1.5424    4.2038   -1.3101 C   0  0  0  1  0  0  0  0  0  0  0  0
   -2.4019    5.3508    0.6241 O   0  0  0  1  0  0  0  0  0  0  0  0
   -0.3391    4.4663    0.7939 N   0  0  0  1  0  0  0  0  0  0  0  0
   -2.6534    4.9219   -2.9662 H   0  0  0  1  0  0  0  0  0  0  0  0
   -3.9715    4.4794   -1.5254 C   0  0  0  1  0  0  0  0  0  0  0  0
   -0.1467    4.8689    2.1791 C   0  0  0  1  0  0  0  0  0  0  0  0
   -5.1318    4.7587   -2.4607 C   0  0  0  1  0  0  0  0  0  0  0  0
   -4.1636    4.1006   -0.3708 O   0  0  0  1  0  0  0  0  0  0  0  0
    0.3743    3.9686    0.3426 H   0  0  0  1  0  0  0  0  0  0  0  0
   -1.0874    5.1534    2.6023 H   0  0  0  1  0  0  0  0  0  0  0  0
    0.5276    5.6987    2.2187 H   0  0  0  1  0  0  0  0  0  0  0  0
    0.2611    4.0504    2.7347 H   0  0  0  1  0  0  0  0  0  0  0  0
   -4.8846    5.5794   -3.1013 H   0  0  0  1  0  0  0  0  0  0  0  0
   -6.0011    5.0037   -1.8870 H   0  0  0  1  0  0  0  0  0  0  0  0
   -5.3285    3.8902   -3.0539 H   0  0  0  1  0  0  0  0  0  0  0  0
    1.2101   -0.4720   -6.1623 F   0  0  0  1  0  0  0  0  0  0  0  0
    1.9255    0.2053   -5.2626 C   0  0  0  1  0  0  0  0  0  0  0  0
    2.7145   -0.7126   -4.7019 F   0  0  0  1  0  0  0  0  0  0  0  0
    2.7315    1.0097   -5.9243 F   0  0  0  1  0  0  0  0  0  0  0  0
    1.0696    0.9203   -4.2383 C   0  0  0  1  0  0  0  0  0  0  0  0
    1.5007    0.9986   -2.9231 C   0  0  0  1  0  0  0  0  0  0  0  0
    0.6861    1.5662   -1.9616 C   0  0  0  1  0  0  0  0  0  0  0  0
   -0.5598    2.0619   -2.3132 C   0  0  0  1  0  0  0  0  0  0  0  0
   -0.9895    1.9837   -3.6245 C   0  0  0  1  0  0  0  0  0  0  0  0
   -0.1726    1.4145   -4.5890 C   0  0  0  1  0  0  0  0  0  0  0  0
   -1.4481    2.6875   -1.2640 C   0  0  0  1  0  0  0  0  0  0  0  0
    2.4371    0.6304   -2.6600 H   0  0  0  1  0  0  0  0  0  0  0  0
    1.0078    1.6214   -0.9742 H   0  0  0  1  0  0  0  0  0  0  0  0
   -1.9258    2.3519   -3.8876 H   0  0  0  1  0  0  0  0  0  0  0  0
   -0.4944    1.3593   -5.5764 H   0  0  0  1  0  0  0  0  0  0  0  0
   -2.4344    2.2915   -1.3877 H   0  0  0  1  0  0  0  0  0  0  0  0
   -1.0696    2.4094   -0.3026 H   0  0  0  1  0  0  0  0  0  0  0  0
  1  4  1  0  0  0  0
  2  4  1  0  0  0  0
  2  5  2  0  0  0  0
  2  6  1  0  0  0  0
  3  4  1  0  0  0  0
  3  7  1  0  0  0  0
  3  8  1  0  0  0  0
  4 29  1  0  0  0  0
  6  9  1  0  0  0  0
  6 12  1  0  0  0  0
  8 10  1  0  0  0  0
  8 11  2  0  0  0  0
  9 13  1  0  0  0  0
  9 14  1  0  0  0  0
  9 15  1  0  0  0  0
 10 16  1  0  0  0  0
 10 17  1  0  0  0  0
 10 18  1  0  0  0  0
 19 20  1  0  0  0  0
 20 21  1  0  0  0  0
 20 22  1  0  0  0  0
 20 23  1  0  0  0  0
 23 24  4  0  0  0  0
 23 28  4  0  0  0  0
 24 25  4  0  0  0  0
 24 30  1  0  0  0  0
 25 26  4  0  0  0  0
 25 31  1  0  0  0  0
 26 27  4  0  0  0  0
 26 29  1  0  0  0  0
 27 28  4  0  0  0  0
 27 32  1  0  0  0  0
 28 33  1  0  0  0  0
 29 34  1  0  0  0  0
 29 35  1  0  0  0  0
M  END
> <BCLConfClusterSize>
1

> <ConfClashScore>
0 

> <ConfOneFourInteractionScore>
-0.953206 

> <ConfScore>
0.515194 

> <ConfScorePBest>
0.00304907 

> <ConfTolerance>
0.755976 

> <RosettaParamsInstructions>
M  ROOT 3
M  POLY_N_BB 3
M  POLY_CA_BB 4
M  POLY_C_BB 2
M  POLY_O_BB 5
M  POLY_IGNORE 9 10 11 12 13 14 15 16 17 18 
M  POLY_UPPER 6
M  POLY_LOWER 8
M  POLY_CHG 0
M  POLY_PROPERTIES ALPHA_AA D_AA PROTEIN AROMATIC POLYMER 
M  END

$$$$



 35 35  0  0  0  0  0  0  0  0999 V2000
   -0.2655    4.3889   -1.0822 H   0  0  0  1  0  0  0  0  0  0  0  0
    0.0698    3.2599    0.6503 C   0  0  0  1  0  0  0  0  0  0  0  0
   -1.9046    4.6452    0.1442 N   0  0  0  1  0  0  0  0  0  0  0  0
   -0.8595    3.7792   -0.4339 C   0  0  0  1  0  0  0  0  0  0  0  0
    0.7667    4.0408    1.2798 O   0  0  0  1  0  0  0  0  0  0  0  0
    0.0100    1.9513    0.9194 N   0  0  0  1  0  0  0  0  0  0  0  0
   -2.8548    4.4511    0.0032 H   0  0  0  1  0  0  0  0  0  0  0  0
   -1.5202    5.6979    0.8628 C   0  0  0  1  0  0  0  0  0  0  0  0
    0.8412    1.3285    1.9388 C   0  0  0  1  0  0  0  0  0  0  0  0
   -2.5899    6.5282    1.5450 C   0  0  0  1  0  0  0  0  0  0  0  0
   -0.3472    6.0387    1.0072 O   0  0  0  1  0  0  0  0  0  0  0  0
   -0.6153    1.3924    0.4125 H   0  0  0  1  0  0  0  0  0  0  0  0
    1.0483    0.3161    1.6613 H   0  0  0  1  0  0  0  0  0  0  0  0
    0.3259    1.3428    2.8764 H   0  0  0  1  0  0  0  0  0  0  0  0
    1.7605    1.8688    2.0281 H   0  0  0  1  0  0  0  0  0  0  0  0
   -3.3650    6.7579    0.8441 H   0  0  0  1  0  0  0  0  0  0  0  0
   -2.1577    7.4369    1.9089 H   0  0  0  1  0  0  0  0  0  0  0  0
   -3.0018    5.9758    2.3636 H   0  0  0  1  0  0  0  0  0  0  0  0
    2.1016   -1.0942   -4.9611 F   0  0  0  1  0  0  0  0  0  0  0  0
    1.9269    0.1951   -5.2560 C   0  0  0  1  0  0  0  0  0  0  0  0
    3.1478    0.7219   -5.3626 F   0  0  0  1  0  0  0  0  0  0  0  0
    1.3969    0.2299   -6.4793 F   0  0  0  1  0  0  0  0  0  0  0  0
    1.0724    0.9136   -4.2329 C   0  0  0  1  0  0  0  0  0  0  0  0
    1.5074    1.0001   -2.9195 C   0  0  0  1  0  0  0  0  0  0  0  0
    0.6943    1.5708   -1.9586 C   0  0  0  1  0  0  0  0  0  0  0  0
   -0.5539    2.0615   -2.3090 C   0  0  0  1  0  0  0  0  0  0  0  0
   -0.9874    1.9752   -3.6184 C   0  0  0  1  0  0  0  0  0  0  0  0
   -0.1721    1.4028   -4.5824 C   0  0  0  1  0  0  0  0  0  0  0  0
   -1.4832    2.7005   -1.3043 C   0  0  0  1  0  0  0  0  0  0  0  0
    2.4455    0.6355   -2.6573 H   0  0  0  1  0  0  0  0  0  0  0  0
    1.0190    1.6321   -0.9724 H   0  0  0  1  0  0  0  0  0  0  0  0
   -1.9255    2.3397   -3.8806 H   0  0  0  1  0  0  0  0  0  0  0  0
   -0.4968    1.3415   -5.5685 H   0  0  0  1  0  0  0  0  0  0  0  0
   -2.2980    3.1397   -1.8411 H   0  0  0  1  0  0  0  0  0  0  0  0
   -1.8536    1.9301   -0.6607 H   0  0  0  1  0  0  0  0  0  0  0  0
  1  4  1  0  0  0  0
  2  4  1  0  0  0  0
  2  5  2  0  0  0  0
  2  6  1  0  0  0  0
  3  4  1  0  0  0  0
  3  7  1  0  0  0  0
  3  8  1  0  0  0  0
  4 29  1  0  0  0  0
  6  9  1  0  0  0  0
  6 12  1  0  0  0  0
  8 10  1  0  0  0  0
  8 11  2  0  0  0  0
  9 13  1  0  0  0  0
  9 14  1  0  0  0  0
  9 15  1  0  0  0  0
 10 16  1  0  0  0  0
 10 17  1  0  0  0  0
 10 18  1  0  0  0  0
 19 20  1  0  0  0  0
 20 21  1  0  0  0  0
 20 22  1  0  0  0  0
 20 23  1  0  0  0  0
 23 24  4  0  0  0  0
 23 28  4  0  0  0  0
 24 25  4  0  0  0  0
 24 30  1  0  0  0  0
 25 26  4  0  0  0  0
 25 31  1  0  0  0  0
 26 27  4  0  0  0  0
 26 29  1  0  0  0  0
 27 28  4  0  0  0  0
 27 32  1  0  0  0  0
 28 33  1  0  0  0  0
 29 34  1  0  0  0  0
 29 35  1  0  0  0  0
M  END
> <BCLConfClusterSize>
1

> <ConfClashScore>
0 

> <ConfOneFourInteractionScore>
-0.948737 

> <ConfScore>
0.523672 

> <ConfScorePBest>
0.00302059 

> <ConfTolerance>
0.473894 

> <RosettaParamsInstructions>
M  ROOT 3
M  POLY_N_BB 3
M  POLY_CA_BB 4
M  POLY_C_BB 2
M  POLY_O_BB 5
M  POLY_IGNORE 9 10 11 12 13 14 15 16 17 18 
M  POLY_UPPER 6
M  POLY_LOWER 8
M  POLY_CHG 0
M  POLY_PROPERTIES ALPHA_AA D_AA PROTEIN AROMATIC POLYMER 
M  END

$$$$



 35 35  0  0  0  0  0  0  0  0999 V2000
   -1.4226    4.5876   -2.0338 H   0  0  0  1  0  0  0  0  0  0  0  0
   -0.0022    4.5769   -0.4844 C   0  0  0  1  0  0  0  0  0  0  0  0
   -2.4233    4.6458   -0.2245 N   0  0  0  1  0  0  0  0  0  0  0  0
   -1.3317    4.1376   -1.0673 C   0  0  0  1  0  0  0  0  0  0  0  0
    0.3688    5.7425   -0.6142 O   0  0  0  1  0  0  0  0  0  0  0  0
    0.6721    3.6693    0.2297 N   0  0  0  1  0  0  0  0  0  0  0  0
   -3.2869    4.8490   -0.6407 H   0  0  0  1  0  0  0  0  0  0  0  0
   -2.2791    4.8405    1.0894 C   0  0  0  1  0  0  0  0  0  0  0  0
    1.9018    3.9318    0.9625 C   0  0  0  1  0  0  0  0  0  0  0  0
   -3.3976    5.6065    1.7685 C   0  0  0  1  0  0  0  0  0  0  0  0
   -1.3079    4.4318    1.7245 O   0  0  0  1  0  0  0  0  0  0  0  0
    0.3109    2.7589    0.2621 H   0  0  0  1  0  0  0  0  0  0  0  0
    2.4879    3.0377    1.0084 H   0  0  0  1  0  0  0  0  0  0  0  0
    1.6636    4.2532    1.9548 H   0  0  0  1  0  0  0  0  0  0  0  0
    2.4579    4.6972    0.4628 H   0  0  0  1  0  0  0  0  0  0  0  0
   -3.0728    5.9311    2.7349 H   0  0  0  1  0  0  0  0  0  0  0  0
   -4.2518    4.9708    1.8745 H   0  0  0  1  0  0  0  0  0  0  0  0
   -3.6577    6.4582    1.1753 H   0  0  0  1  0  0  0  0  0  0  0  0
    1.5085   -1.0720   -5.4511 F   0  0  0  1  0  0  0  0  0  0  0  0
    1.9125    0.1855   -5.2629 C   0  0  0  1  0  0  0  0  0  0  0  0
    3.2048    0.1173   -4.9392 F   0  0  0  1  0  0  0  0  0  0  0  0
    1.8571    0.7781   -6.4564 F   0  0  0  1  0  0  0  0  0  0  0  0
    1.0889    0.9097   -4.2161 C   0  0  0  1  0  0  0  0  0  0  0  0
    1.4823    0.9567   -2.8877 C   0  0  0  1  0  0  0  0  0  0  0  0
    0.6598    1.5423   -1.9438 C   0  0  0  1  0  0  0  0  0  0  0  0
   -0.5560    2.0874   -2.3263 C   0  0  0  1  0  0  0  0  0  0  0  0
   -0.9480    2.0404   -3.6508 C   0  0  0  1  0  0  0  0  0  0  0  0
   -0.1233    1.4531   -4.5976 C   0  0  0  1  0  0  0  0  0  0  0  0
   -1.4647    2.6347   -1.2511 C   0  0  0  1  0  0  0  0  0  0  0  0
    2.3963    0.5514   -2.6013 H   0  0  0  1  0  0  0  0  0  0  0  0
    0.9531    1.5741   -0.9465 H   0  0  0  1  0  0  0  0  0  0  0  0
   -1.8620    2.4457   -3.9372 H   0  0  0  1  0  0  0  0  0  0  0  0
   -0.4166    1.4214   -5.5949 H   0  0  0  1  0  0  0  0  0  0  0  0
   -2.4774    2.4122   -1.5154 H   0  0  0  1  0  0  0  0  0  0  0  0
   -1.2237    2.1557   -0.3252 H   0  0  0  1  0  0  0  0  0  0  0  0
  1  4  1  0  0  0  0
  2  4  1  0  0  0  0
  2  5  2  0  0  0  0
  2  6  1  0  0  0  0
  3  4  1  0  0  0  0
  3  7  1  0  0  0  0
  3  8  1  0  0  0  0
  4 29  1  0  0  0  0
  6  9  1  0  0  0  0
  6 12  1  0  0  0  0
  8 10  1  0  0  0  0
  8 11  2  0  0  0  0
  9 13  1  0  0  0  0
  9 14  1  0  0  0  0
  9 15  1  0  0  0  0
 10 16  1  0  0  0  0
 10 17  1  0  0  0  0
 10 18  1  0  0  0  0
 19 20  1  0  0  0  0
 20 21  1  0  0  0  0
 20 22  1  0  0  0  0
 20 23  1  0  0  0  0
 23 24  4  0  0  0  0
 23 28  4  0  0  0  0
 24 25  4  0  0  0  0
 24 30  1  0  0  0  0
 25 26  4  0  0  0  0
 25 31  1  0  0  0  0
 26 27  4  0  0  0  0
 26 29  1  0  0  0  0
 27 28  4  0  0  0  0
 27 32  1  0  0  0  0
 28 33  1  0  0  0  0
 29 34  1  0  0  0  0
 29 35  1  0  0  0  0
M  END
> <BCLConfClusterSize>
1

> <ConfClashScore>
0 

> <ConfOneFourInteractionScore>
-0.927621 

> <ConfScore>
0.527321 

> <ConfScorePBest>
0.00299211 

> <ConfTolerance>
0.678186 

> <RosettaParamsInstructions>
M  ROOT 3
M  POLY_N_BB 3
M  POLY_CA_BB 4
M  POLY_C_BB 2
M  POLY_O_BB 5
M  POLY_IGNORE 9 10 11 12 13 14 15 16 17 18 
M  POLY_UPPER 6
M  POLY_LOWER 8
M  POLY_CHG 0
M  POLY_PROPERTIES ALPHA_AA D_AA PROTEIN AROMATIC POLYMER 
M  END

$$$$



 35 35  0  0  0  0  0  0  0  0999 V2000
   -0.4214    1.9847    0.4057 H   0  0  0  1  0  0  0  0  0  0  0  0
   -1.7645    0.4412   -0.1482 C   0  0  0  1  0  0  0  0  0  0  0  0
   -2.3238    2.5130    1.0162 N   0  0  0  1  0  0  0  0  0  0  0  0
   -1.4240    1.9210    0.0375 C   0  0  0  1  0  0  0  0  0  0  0  0
   -1.5367   -0.1244   -1.2165 O   0  0  0  1  0  0  0  0  0  0  0  0
   -2.2287   -0.1678    0.9482 N   0  0  0  1  0  0  0  0  0  0  0  0
   -1.9475    3.0743    1.7259 H   0  0  0  1  0  0  0  0  0  0  0  0
   -3.6869    2.3116    0.9797 C   0  0  0  1  0  0  0  0  0  0  0  0
   -2.6440   -1.5626    0.9458 C   0  0  0  1  0  0  0  0  0  0  0  0
   -4.4709    2.9234    2.1038 C   0  0  0  1  0  0  0  0  0  0  0  0
   -4.1847    1.6707    0.0734 O   0  0  0  1  0  0  0  0  0  0  0  0
   -2.2914    0.3430    1.7822 H   0  0  0  1  0  0  0  0  0  0  0  0
   -1.7840   -2.1915    1.0445 H   0  0  0  1  0  0  0  0  0  0  0  0
   -3.1439   -1.7841    0.0261 H   0  0  0  1  0  0  0  0  0  0  0  0
   -3.3095   -1.7377    1.7652 H   0  0  0  1  0  0  0  0  0  0  0  0
   -3.8027    3.2212    2.8846 H   0  0  0  1  0  0  0  0  0  0  0  0
   -5.1670    2.2057    2.4848 H   0  0  0  1  0  0  0  0  0  0  0  0
   -5.0019    3.7796    1.7433 H   0  0  0  1  0  0  0  0  0  0  0  0
    2.0232    0.8858   -6.4130 F   0  0  0  1  0  0  0  0  0  0  0  0
    1.9204    0.2068   -5.2692 C   0  0  0  1  0  0  0  0  0  0  0  0
    1.3860   -0.9637   -5.6211 F   0  0  0  1  0  0  0  0  0  0  0  0
    3.1425   -0.0688   -4.8630 F   0  0  0  1  0  0  0  0  0  0  0  0
    1.0854    0.9219   -4.2252 C   0  0  0  1  0  0  0  0  0  0  0  0
    1.6108    1.2733   -2.9914 C   0  0  0  1  0  0  0  0  0  0  0  0
    0.7953    1.8372   -2.0285 C   0  0  0  1  0  0  0  0  0  0  0  0
   -0.5466    2.0563   -2.2982 C   0  0  0  1  0  0  0  0  0  0  0  0
   -1.0703    1.7059   -3.5283 C   0  0  0  1  0  0  0  0  0  0  0  0
   -0.2526    1.1403   -4.4942 C   0  0  0  1  0  0  0  0  0  0  0  0
   -1.4846    2.6740   -1.2882 C   0  0  0  1  0  0  0  0  0  0  0  0
    2.6184    1.1127   -2.7904 H   0  0  0  1  0  0  0  0  0  0  0  0
    1.1885    2.0972   -1.1015 H   0  0  0  1  0  0  0  0  0  0  0  0
   -2.0779    1.8666   -3.7293 H   0  0  0  1  0  0  0  0  0  0  0  0
   -0.6458    0.8804   -5.4213 H   0  0  0  1  0  0  0  0  0  0  0  0
   -1.2033    3.6935   -1.1257 H   0  0  0  1  0  0  0  0  0  0  0  0
   -2.4841    2.6354   -1.6681 H   0  0  0  1  0  0  0  0  0  0  0  0
  1  4  1  0  0  0  0
  2  4  1  0  0  0  0
  2  5  2  0  0  0  0
  2  6  1  0  0  0  0
  3  4  1  0  0  0  0
  3  7  1  0  0  0  0
  3  8  1  0  0  0  0
  4 29  1  0  0  0  0
  6  9  1  0  0  0  0
  6 12  1  0  0  0  0
  8 10  1  0  0  0  0
  8 11  2  0  0  0  0
  9 13  1  0  0  0  0
  9 14  1  0  0  0  0
  9 15  1  0  0  0  0
 10 16  1  0  0  0  0
 10 17  1  0  0  0  0
 10 18  1  0  0  0  0
 19 20  1  0  0  0  0
 20 21  1  0  0  0  0
 20 22  1  0  0  0  0
 20 23  1  0  0  0  0
 23 24  4  0  0  0  0
 23 28  4  0  0  0  0
 24 25  4  0  0  0  0
 24 30  1  0  0  0  0
 25 26  4  0  0  0  0
 25 31  1  0  0  0  0
 26 27  4  0  0  0  0
 26 29  1  0  0  0  0
 27 28  4  0  0  0  0
 27 32  1  0  0  0  0
 28 33  1  0  0  0  0
 29 34  1  0  0  0  0
 29 35  1  0  0  0  0
M  END
> <BCLConfClusterSize>
1

> <ConfClashScore>
0 

> <ConfOneFourInteractionScore>
-0.938696 

> <ConfScore>
0.529246 

> <ConfScorePBest>
0.00296363 

> <ConfTolerance>
0.50914 

> <RosettaParamsInstructions>
M  ROOT 3
M  POLY_N_BB 3
M  POLY_CA_BB 4
M  POLY_C_BB 2
M  POLY_O_BB 5
M  POLY_IGNORE 9 10 11 12 13 14 15 16 17 18 
M  POLY_UPPER 6
M  POLY_LOWER 8
M  POLY_CHG 0
M  POLY_PROPERTIES ALPHA_AA D_AA PROTEIN AROMATIC POLYMER 
M  END

$$$$



 35 35  0  0  0  0  0  0  0  0999 V2000
   -2.1765    4.4081   -2.1920 H   0  0  0  1  0  0  0  0  0  0  0  0
   -0.2475    4.9194   -1.5488 C   0  0  0  1  0  0  0  0  0  0  0  0
   -2.3008    4.6699   -0.1542 N   0  0  0  1  0  0  0  0  0  0  0  0
   -1.5696    4.1988   -1.3360 C   0  0  0  1  0  0  0  0  0  0  0  0
    0.2045    5.6345   -0.6678 O   0  0  0  1  0  0  0  0  0  0  0  0
    0.4056    4.6572   -2.6859 N   0  0  0  1  0  0  0  0  0  0  0  0
   -1.8760    5.3298    0.4328 H   0  0  0  1  0  0  0  0  0  0  0  0
   -3.5255    4.2307    0.1493 C   0  0  0  1  0  0  0  0  0  0  0  0
    1.6827    5.2416   -3.0671 C   0  0  0  1  0  0  0  0  0  0  0  0
   -4.0967    4.7275    1.4631 C   0  0  0  1  0  0  0  0  0  0  0  0
   -4.1641    3.4716   -0.5780 O   0  0  0  1  0  0  0  0  0  0  0  0
   -0.0069    4.0237   -3.3096 H   0  0  0  1  0  0  0  0  0  0  0  0
    1.5126    6.1225   -3.6502 H   0  0  0  1  0  0  0  0  0  0  0  0
    2.2403    4.5341   -3.6445 H   0  0  0  1  0  0  0  0  0  0  0  0
    2.2342    5.4980   -2.1867 H   0  0  0  1  0  0  0  0  0  0  0  0
   -3.3012    4.8885    2.1603 H   0  0  0  1  0  0  0  0  0  0  0  0
   -4.7731    3.9976    1.8564 H   0  0  0  1  0  0  0  0  0  0  0  0
   -4.6190    5.6470    1.2997 H   0  0  0  1  0  0  0  0  0  0  0  0
    1.4229    0.3041   -6.4881 F   0  0  0  1  0  0  0  0  0  0  0  0
    1.9324    0.1982   -5.2596 C   0  0  0  1  0  0  0  0  0  0  0  0
    2.0137   -1.1067   -4.9954 F   0  0  0  1  0  0  0  0  0  0  0  0
    3.1786    0.6705   -5.3082 F   0  0  0  1  0  0  0  0  0  0  0  0
    1.0694    0.9156   -4.2401 C   0  0  0  1  0  0  0  0  0  0  0  0
    1.5548    1.1204   -2.9579 C   0  0  0  1  0  0  0  0  0  0  0  0
    0.7430    1.6890   -1.9945 C   0  0  0  1  0  0  0  0  0  0  0  0
   -0.5545    2.0594   -2.3118 C   0  0  0  1  0  0  0  0  0  0  0  0
   -1.0382    1.8551   -3.5903 C   0  0  0  1  0  0  0  0  0  0  0  0
   -0.2243    1.2848   -4.5566 C   0  0  0  1  0  0  0  0  0  0  0  0
   -1.4401    2.6862   -1.2610 C   0  0  0  1  0  0  0  0  0  0  0  0
    2.5296    0.8462   -2.7208 H   0  0  0  1  0  0  0  0  0  0  0  0
    1.1058    1.8390   -1.0315 H   0  0  0  1  0  0  0  0  0  0  0  0
   -2.0130    2.1293   -3.8273 H   0  0  0  1  0  0  0  0  0  0  0  0
   -0.5871    1.1348   -5.5197 H   0  0  0  1  0  0  0  0  0  0  0  0
   -2.4190    2.2658   -1.3608 H   0  0  0  1  0  0  0  0  0  0  0  0
   -1.0403    2.4364   -0.3005 H   0  0  0  1  0  0  0  0  0  0  0  0
  1  4  1  0  0  0  0
  2  4  1  0  0  0  0
  2  5  2  0  0  0  0
  2  6  1  0  0  0  0
  3  4  1  0  0  0  0
  3  7  1  0  0  0  0
  3  8  1  0  0  0  0
  4 29  1  0  0  0  0
  6  9  1  0  0  0  0
  6 12  1  0  0  0  0
  8 10  1  0  0  0  0
  8 11  2  0  0  0  0
  9 13  1  0  0  0  0
  9 14  1  0  0  0  0
  9 15  1  0  0  0  0
 10 16  1  0  0  0  0
 10 17  1  0  0  0  0
 10 18  1  0  0  0  0
 19 20  1  0  0  0  0
 20 21  1  0  0  0  0
 20 22  1  0  0  0  0
 20 23  1  0  0  0  0
 23 24  4  0  0  0  0
 23 28  4  0  0  0  0
 24 25  4  0  0  0  0
 24 30  1  0  0  0  0
 25 26  4  0  0  0  0
 25 31  1  0  0  0  0
 26 27  4  0  0  0  0
 26 29  1  0  0  0  0
 27 28  4  0  0  0  0
 27 32  1  0  0  0  0
 28 33  1  0  0  0  0
 29 34  1  0  0  0  0
 29 35  1  0  0  0  0
M  END
> <BCLConfClusterSize>
1

> <ConfClashScore>
0 

> <ConfOneFourInteractionScore>
-0.983961 

> <ConfScore>
0.531627 

> <ConfScorePBest>
0.00293515 

> <ConfTolerance>
0.704667 

> <RosettaParamsInstructions>
M  ROOT 3
M  POLY_N_BB 3
M  POLY_CA_BB 4
M  POLY_C_BB 2
M  POLY_O_BB 5
M  POLY_IGNORE 9 10 11 12 13 14 15 16 17 18 
M  POLY_UPPER 6
M  POLY_LOWER 8
M  POLY_CHG 0
M  POLY_PROPERTIES ALPHA_AA D_AA PROTEIN AROMATIC POLYMER 
M  END

$$$$



 35 35  0  0  0  0  0  0  0  0999 V2000
   -0.3952    4.4887   -1.5679 H   0  0  0  1  0  0  0  0  0  0  0  0
   -0.0364    3.8510    0.4029 C   0  0  0  1  0  0  0  0  0  0  0  0
   -2.0827    4.9221   -0.4687 N   0  0  0  1  0  0  0  0  0  0  0  0
   -0.9654    4.0386   -0.7823 C   0  0  0  1  0  0  0  0  0  0  0  0
    0.5091    2.7642    0.5880 O   0  0  0  1  0  0  0  0  0  0  0  0
    0.2096    4.9307    1.1525 N   0  0  0  1  0  0  0  0  0  0  0  0
   -2.2746    5.6501   -1.0961 H   0  0  0  1  0  0  0  0  0  0  0  0
   -2.8681    4.8132    0.6146 C   0  0  0  1  0  0  0  0  0  0  0  0
    1.1674    4.9146    2.2481 C   0  0  0  1  0  0  0  0  0  0  0  0
   -3.9834    5.8346    0.7250 C   0  0  0  1  0  0  0  0  0  0  0  0
   -2.7087    3.9483    1.4719 O   0  0  0  1  0  0  0  0  0  0  0  0
   -0.2717    5.7617    0.9573 H   0  0  0  1  0  0  0  0  0  0  0  0
    1.9570    4.2288    2.0222 H   0  0  0  1  0  0  0  0  0  0  0  0
    0.6752    4.6077    3.1473 H   0  0  0  1  0  0  0  0  0  0  0  0
    1.5741    5.8954    2.3804 H   0  0  0  1  0  0  0  0  0  0  0  0
   -3.5628    6.8142    0.8166 H   0  0  0  1  0  0  0  0  0  0  0  0
   -4.5788    5.6202    1.5878 H   0  0  0  1  0  0  0  0  0  0  0  0
   -4.5955    5.7900   -0.1514 H   0  0  0  1  0  0  0  0  0  0  0  0
    1.1943   -0.4769   -6.1496 F   0  0  0  1  0  0  0  0  0  0  0  0
    1.9247    0.1941   -5.2573 C   0  0  0  1  0  0  0  0  0  0  0  0
    2.7470   -0.6976   -4.7024 F   0  0  0  1  0  0  0  0  0  0  0  0
    2.6951    1.0282   -5.9568 F   0  0  0  1  0  0  0  0  0  0  0  0
    1.0721    0.9132   -4.2329 C   0  0  0  1  0  0  0  0  0  0  0  0
    1.5033    0.9887   -2.9176 C   0  0  0  1  0  0  0  0  0  0  0  0
    0.6913    1.5601   -1.9561 C   0  0  0  1  0  0  0  0  0  0  0  0
   -0.5519    2.0624   -2.3079 C   0  0  0  1  0  0  0  0  0  0  0  0
   -0.9816    1.9870   -3.6193 C   0  0  0  1  0  0  0  0  0  0  0  0
   -0.1674    1.4140   -4.5838 C   0  0  0  1  0  0  0  0  0  0  0  0
   -1.4798    2.7028   -1.3027 C   0  0  0  1  0  0  0  0  0  0  0  0
    2.4376    0.6155   -2.6543 H   0  0  0  1  0  0  0  0  0  0  0  0
    1.0130    1.6132   -0.9685 H   0  0  0  1  0  0  0  0  0  0  0  0
   -1.9159    2.3603   -3.8826 H   0  0  0  1  0  0  0  0  0  0  0  0
   -0.4891    1.3609   -5.5713 H   0  0  0  1  0  0  0  0  0  0  0  0
   -2.4296    2.8619   -1.7691 H   0  0  0  1  0  0  0  0  0  0  0  0
   -1.5961    2.0363   -0.4737 H   0  0  0  1  0  0  0  0  0  0  0  0
  1  4  1  0  0  0  0
  2  4  1  0  0  0  0
  2  5  2  0  0  0  0
  2  6  1  0  0  0  0
  3  4  1  0  0  0  0
  3  7  1  0  0  0  0
  3  8  1  0  0  0  0
  4 29  1  0  0  0  0
  6  9  1  0  0  0  0
  6 12  1  0  0  0  0
  8 10  1  0  0  0  0
  8 11  2  0  0  0  0
  9 13  1  0  0  0  0
  9 14  1  0  0  0  0
  9 15  1  0  0  0  0
 10 16  1  0  0  0  0
 10 17  1  0  0  0  0
 10 18  1  0  0  0  0
 19 20  1  0  0  0  0
 20 21  1  0  0  0  0
 20 22  1  0  0  0  0
 20 23  1  0  0  0  0
 23 24  4  0  0  0  0
 23 28  4  0  0  0  0
 24 25  4  0  0  0  0
 24 30  1  0  0  0  0
 25 26  4  0  0  0  0
 25 31  1  0  0  0  0
 26 27  4  0  0  0  0
 26 29  1  0  0  0  0
 27 28  4  0  0  0  0
 27 32  1  0  0  0  0
 28 33  1  0  0  0  0
 29 34  1  0  0  0  0
 29 35  1  0  0  0  0
M  END
> <BCLConfClusterSize>
1

> <ConfClashScore>
0 

> <ConfOneFourInteractionScore>
-0.949684 

> <ConfScore>
0.533377 

> <ConfScorePBest>
0.00290666 

> <ConfTolerance>
0.451455 

> <RosettaParamsInstructions>
M  ROOT 3
M  POLY_N_BB 3
M  POLY_CA_BB 4
M  POLY_C_BB 2
M  POLY_O_BB 5
M  POLY_IGNORE 9 10 11 12 13 14 15 16 17 18 
M  POLY_UPPER 6
M  POLY_LOWER 8
M  POLY_CHG 0
M  POLY_PROPERTIES ALPHA_AA D_AA PROTEIN AROMATIC POLYMER 
M  END

$$$$



 35 35  0  0  0  0  0  0  0  0999 V2000
    0.1507    2.9462    0.1168 H   0  0  0  1  0  0  0  0  0  0  0  0
   -1.4068    4.2360    0.7411 C   0  0  0  1  0  0  0  0  0  0  0  0
    0.1223    4.5995   -1.1225 N   0  0  0  1  0  0  0  0  0  0  0  0
   -0.5732    3.5780   -0.3540 C   0  0  0  1  0  0  0  0  0  0  0  0
   -2.2165    5.1114    0.4769 O   0  0  0  1  0  0  0  0  0  0  0  0
   -1.2630    3.7404    1.9748 N   0  0  0  1  0  0  0  0  0  0  0  0
   -0.2362    4.8597   -1.9967 H   0  0  0  1  0  0  0  0  0  0  0  0
    1.2326    5.1948   -0.6777 C   0  0  0  1  0  0  0  0  0  0  0  0
   -1.9069    4.3405    3.1337 C   0  0  0  1  0  0  0  0  0  0  0  0
    1.8040    6.2767   -1.5734 C   0  0  0  1  0  0  0  0  0  0  0  0
    1.7668    4.9001    0.3788 O   0  0  0  1  0  0  0  0  0  0  0  0
   -0.7044    2.9454    2.1030 H   0  0  0  1  0  0  0  0  0  0  0  0
   -1.4028    4.0279    4.0242 H   0  0  0  1  0  0  0  0  0  0  0  0
   -2.9295    4.0282    3.1747 H   0  0  0  1  0  0  0  0  0  0  0  0
   -1.8619    5.4066    3.0542 H   0  0  0  1  0  0  0  0  0  0  0  0
    1.1168    7.0951   -1.6278 H   0  0  0  1  0  0  0  0  0  0  0  0
    1.9639    5.8798   -2.5541 H   0  0  0  1  0  0  0  0  0  0  0  0
    2.7343    6.6187   -1.1704 H   0  0  0  1  0  0  0  0  0  0  0  0
    1.2219   -0.2864   -6.2874 F   0  0  0  1  0  0  0  0  0  0  0  0
    1.9200    0.1885   -5.2545 C   0  0  0  1  0  0  0  0  0  0  0  0
    2.5963   -0.8413   -4.7429 F   0  0  0  1  0  0  0  0  0  0  0  0
    2.8476    0.9819   -5.7918 F   0  0  0  1  0  0  0  0  0  0  0  0
    1.0658    0.9109   -4.2338 C   0  0  0  1  0  0  0  0  0  0  0  0
    1.5086    1.0159   -2.9244 C   0  0  0  1  0  0  0  0  0  0  0  0
    0.6967    1.5903   -1.9646 C   0  0  0  1  0  0  0  0  0  0  0  0
   -0.5579    2.0663   -2.3123 C   0  0  0  1  0  0  0  0  0  0  0  0
   -0.9991    1.9616   -3.6179 C   0  0  0  1  0  0  0  0  0  0  0  0
   -0.1851    1.3855   -4.5807 C   0  0  0  1  0  0  0  0  0  0  0  0
   -1.4432    2.6994   -1.2650 C   0  0  0  1  0  0  0  0  0  0  0  0
    2.4514    0.6625   -2.6643 H   0  0  0  1  0  0  0  0  0  0  0  0
    1.0272    1.6655   -0.9814 H   0  0  0  1  0  0  0  0  0  0  0  0
   -1.9420    2.3150   -3.8780 H   0  0  0  1  0  0  0  0  0  0  0  0
   -0.5156    1.3104   -5.5639 H   0  0  0  1  0  0  0  0  0  0  0  0
   -2.1896    3.3012   -1.7401 H   0  0  0  1  0  0  0  0  0  0  0  0
   -1.9166    1.9358   -0.6839 H   0  0  0  1  0  0  0  0  0  0  0  0
  1  4  1  0  0  0  0
  2  4  1  0  0  0  0
  2  5  2  0  0  0  0
  2  6  1  0  0  0  0
  3  4  1  0  0  0  0
  3  7  1  0  0  0  0
  3  8  1  0  0  0  0
  4 29  1  0  0  0  0
  6  9  1  0  0  0  0
  6 12  1  0  0  0  0
  8 10  1  0  0  0  0
  8 11  2  0  0  0  0
  9 13  1  0  0  0  0
  9 14  1  0  0  0  0
  9 15  1  0  0  0  0
 10 16  1  0  0  0  0
 10 17  1  0  0  0  0
 10 18  1  0  0  0  0
 19 20  1  0  0  0  0
 20 21  1  0  0  0  0
 20 22  1  0  0  0  0
 20 23  1  0  0  0  0
 23 24  4  0  0  0  0
 23 28  4  0  0  0  0
 24 25  4  0  0  0  0
 24 30  1  0  0  0  0
 25 26  4  0  0  0  0
 25 31  1  0  0  0  0
 26 27  4  0  0  0  0
 26 29  1  0  0  0  0
 27 28  4  0  0  0  0
 27 32  1  0  0  0  0
 28 33  1  0  0  0  0
 29 34  1  0  0  0  0
 29 35  1  0  0  0  0
M  END
> <BCLConfClusterSize>
1

> <ConfClashScore>
0 

> <ConfOneFourInteractionScore>
-0.978366 

> <ConfScore>
0.537651 

> <ConfScorePBest>
0.00287818 

> <ConfTolerance>
0.746155 

> <RosettaParamsInstructions>
M  ROOT 3
M  POLY_N_BB 3
M  POLY_CA_BB 4
M  POLY_C_BB 2
M  POLY_O_BB 5
M  POLY_IGNORE 9 10 11 12 13 14 15 16 17 18 
M  POLY_UPPER 6
M  POLY_LOWER 8
M  POLY_CHG 0
M  POLY_PROPERTIES ALPHA_AA D_AA PROTEIN AROMATIC POLYMER 
M  END

$$$$



 35 35  0  0  0  0  0  0  0  0999 V2000
   -1.5820    0.9141   -0.1278 H   0  0  0  1  0  0  0  0  0  0  0  0
   -3.3077    0.9912   -1.3346 C   0  0  0  1  0  0  0  0  0  0  0  0
   -2.8427    2.3404    0.6862 N   0  0  0  1  0  0  0  0  0  0  0  0
   -2.2549    1.6691   -0.4771 C   0  0  0  1  0  0  0  0  0  0  0  0
   -3.3231    1.1803   -2.5497 O   0  0  0  1  0  0  0  0  0  0  0  0
   -4.1302    0.1372   -0.7161 N   0  0  0  1  0  0  0  0  0  0  0  0
   -3.7810    2.6224    0.6655 H   0  0  0  1  0  0  0  0  0  0  0  0
   -2.0987    2.5693    1.7790 C   0  0  0  1  0  0  0  0  0  0  0  0
   -5.2041   -0.5523   -1.4155 C   0  0  0  1  0  0  0  0  0  0  0  0
   -2.7732    3.1916    2.9805 C   0  0  0  1  0  0  0  0  0  0  0  0
   -0.9026    2.2824    1.8051 O   0  0  0  1  0  0  0  0  0  0  0  0
   -4.0055   -0.0302    0.2414 H   0  0  0  1  0  0  0  0  0  0  0  0
   -5.9468   -0.8639   -0.7111 H   0  0  0  1  0  0  0  0  0  0  0  0
   -4.8087   -1.4096   -1.9192 H   0  0  0  1  0  0  0  0  0  0  0  0
   -5.6464    0.1095   -2.1305 H   0  0  0  1  0  0  0  0  0  0  0  0
   -3.2412    4.1095    2.6919 H   0  0  0  1  0  0  0  0  0  0  0  0
   -2.0431    3.3865    3.7380 H   0  0  0  1  0  0  0  0  0  0  0  0
   -3.5129    2.5190    3.3621 H   0  0  0  1  0  0  0  0  0  0  0  0
    1.5316    0.4261   -6.5130 F   0  0  0  1  0  0  0  0  0  0  0  0
    1.9245    0.1963   -5.2589 C   0  0  0  1  0  0  0  0  0  0  0  0
    1.9073   -1.1280   -5.0996 F   0  0  0  1  0  0  0  0  0  0  0  0
    3.2050    0.5636   -5.1955 F   0  0  0  1  0  0  0  0  0  0  0  0
    1.0640    0.9144   -4.2405 C   0  0  0  1  0  0  0  0  0  0  0  0
    1.5617    1.1458   -2.9676 C   0  0  0  1  0  0  0  0  0  0  0  0
    0.7530    1.7160   -2.0026 C   0  0  0  1  0  0  0  0  0  0  0  0
   -0.5540    2.0614   -2.3091 C   0  0  0  1  0  0  0  0  0  0  0  0
   -1.0501    1.8306   -3.5783 C   0  0  0  1  0  0  0  0  0  0  0  0
   -0.2392    1.2587   -4.5463 C   0  0  0  1  0  0  0  0  0  0  0  0
   -1.4365    2.6899   -1.2567 C   0  0  0  1  0  0  0  0  0  0  0  0
    2.5435    0.8903   -2.7387 H   0  0  0  1  0  0  0  0  0  0  0  0
    1.1251    1.8859   -1.0465 H   0  0  0  1  0  0  0  0  0  0  0  0
   -2.0319    2.0861   -3.8072 H   0  0  0  1  0  0  0  0  0  0  0  0
   -0.6113    1.0888   -5.5024 H   0  0  0  1  0  0  0  0  0  0  0  0
   -0.8169    3.2266   -0.5689 H   0  0  0  1  0  0  0  0  0  0  0  0
   -2.1085    3.3697   -1.7374 H   0  0  0  1  0  0  0  0  0  0  0  0
  1  4  1  0  0  0  0
  2  4  1  0  0  0  0
  2  5  2  0  0  0  0
  2  6  1  0  0  0  0
  3  4  1  0  0  0  0
  3  7  1  0  0  0  0
  3  8  1  0  0  0  0
  4 29  1  0  0  0  0
  6  9  1  0  0  0  0
  6 12  1  0  0  0  0
  8 10  1  0  0  0  0
  8 11  2  0  0  0  0
  9 13  1  0  0  0  0
  9 14  1  0  0  0  0
  9 15  1  0  0  0  0
 10 16  1  0  0  0  0
 10 17  1  0  0  0  0
 10 18  1  0  0  0  0
 19 20  1  0  0  0  0
 20 21  1  0  0  0  0
 20 22  1  0  0  0  0
 20 23  1  0  0  0  0
 23 24  4  0  0  0  0
 23 28  4  0  0  0  0
 24 25  4  0  0  0  0
 24 30  1  0  0  0  0
 25 26  4  0  0  0  0
 25 31  1  0  0  0  0
 26 27  4  0  0  0  0
 26 29  1  0  0  0  0
 27 28  4  0  0  0  0
 27 32  1  0  0  0  0
 28 33  1  0  0  0  0
 29 34  1  0  0  0  0
 29 35  1  0  0  0  0
M  END
> <BCLConfClusterSize>
1

> <ConfClashScore>
0 

> <ConfOneFourInteractionScore>
-0.979783 

> <ConfScore>
0.543007 

> <ConfScorePBest>
0.0028497 

> <ConfTolerance>
0.862339 

> <RosettaParamsInstructions>
M  ROOT 3
M  POLY_N_BB 3
M  POLY_CA_BB 4
M  POLY_C_BB 2
M  POLY_O_BB 5
M  POLY_IGNORE 9 10 11 12 13 14 15 16 17 18 
M  POLY_UPPER 6
M  POLY_LOWER 8
M  POLY_CHG 0
M  POLY_PROPERTIES ALPHA_AA D_AA PROTEIN AROMATIC POLYMER 
M  END

$$$$



 35 35  0  0  0  0  0  0  0  0999 V2000
   -2.9994    3.4772   -2.5011 H   0  0  0  1  0  0  0  0  0  0  0  0
   -3.7560    3.2554   -0.5197 C   0  0  0  1  0  0  0  0  0  0  0  0
   -3.3662    1.4609   -2.1404 N   0  0  0  1  0  0  0  0  0  0  0  0
   -2.9146    2.7725   -1.7004 C   0  0  0  1  0  0  0  0  0  0  0  0
   -3.4481    4.2585    0.1053 O   0  0  0  1  0  0  0  0  0  0  0  0
   -4.8803    2.5742   -0.2745 N   0  0  0  1  0  0  0  0  0  0  0  0
   -3.8847    1.3927   -2.9693 H   0  0  0  1  0  0  0  0  0  0  0  0
   -3.0960    0.3355   -1.4470 C   0  0  0  1  0  0  0  0  0  0  0  0
   -5.7822    3.0085    0.7819 C   0  0  0  1  0  0  0  0  0  0  0  0
   -3.7077   -0.9646   -1.9316 C   0  0  0  1  0  0  0  0  0  0  0  0
   -2.3752    0.3608   -0.4507 O   0  0  0  1  0  0  0  0  0  0  0  0
   -5.0974    1.7808   -0.8073 H   0  0  0  1  0  0  0  0  0  0  0  0
   -6.3628    2.1759    1.1205 H   0  0  0  1  0  0  0  0  0  0  0  0
   -6.4345    3.7677    0.4038 H   0  0  0  1  0  0  0  0  0  0  0  0
   -5.2123    3.4010    1.5980 H   0  0  0  1  0  0  0  0  0  0  0  0
   -4.1294   -0.8201   -2.9043 H   0  0  0  1  0  0  0  0  0  0  0  0
   -4.4751   -1.2724   -1.2525 H   0  0  0  1  0  0  0  0  0  0  0  0
   -2.9500   -1.7186   -1.9800 H   0  0  0  1  0  0  0  0  0  0  0  0
    1.6466    0.6114   -6.5097 F   0  0  0  1  0  0  0  0  0  0  0  0
    1.9138    0.1971   -5.2700 C   0  0  0  1  0  0  0  0  0  0  0  0
    1.7121   -1.1215   -5.2660 F   0  0  0  1  0  0  0  0  0  0  0  0
    3.2232    0.3754   -5.0907 F   0  0  0  1  0  0  0  0  0  0  0  0
    1.0815    0.9152   -4.2257 C   0  0  0  1  0  0  0  0  0  0  0  0
    1.5816    1.1904   -2.9624 C   0  0  0  1  0  0  0  0  0  0  0  0
    0.7638    1.7596   -2.0046 C   0  0  0  1  0  0  0  0  0  0  0  0
   -0.5548    2.0601   -2.3086 C   0  0  0  1  0  0  0  0  0  0  0  0
   -1.0532    1.7856   -3.5681 C   0  0  0  1  0  0  0  0  0  0  0  0
   -0.2332    1.2147   -4.5290 C   0  0  0  1  0  0  0  0  0  0  0  0
   -1.4474    2.6875   -1.2641 C   0  0  0  1  0  0  0  0  0  0  0  0
    2.5720    0.9687   -2.7355 H   0  0  0  1  0  0  0  0  0  0  0  0
    1.1377    1.9625   -1.0556 H   0  0  0  1  0  0  0  0  0  0  0  0
   -2.0437    2.0073   -3.7951 H   0  0  0  1  0  0  0  0  0  0  0  0
   -0.6072    1.0119   -5.4779 H   0  0  0  1  0  0  0  0  0  0  0  0
   -1.3911    2.1007   -0.3711 H   0  0  0  1  0  0  0  0  0  0  0  0
   -1.0938    3.6773   -1.0639 H   0  0  0  1  0  0  0  0  0  0  0  0
  1  4  1  0  0  0  0
  2  4  1  0  0  0  0
  2  5  2  0  0  0  0
  2  6  1  0  0  0  0
  3  4  1  0  0  0  0
  3  7  1  0  0  0  0
  3  8  1  0  0  0  0
  4 29  1  0  0  0  0
  6  9  1  0  0  0  0
  6 12  1  0  0  0  0
  8 10  1  0  0  0  0
  8 11  2  0  0  0  0
  9 13  1  0  0  0  0
  9 14  1  0  0  0  0
  9 15  1  0  0  0  0
 10 16  1  0  0  0  0
 10 17  1  0  0  0  0
 10 18  1  0  0  0  0
 19 20  1  0  0  0  0
 20 21  1  0  0  0  0
 20 22  1  0  0  0  0
 20 23  1  0  0  0  0
 23 24  4  0  0  0  0
 23 28  4  0  0  0  0
 24 25  4  0  0  0  0
 24 30  1  0  0  0  0
 25 26  4  0  0  0  0
 25 31  1  0  0  0  0
 26 27  4  0  0  0  0
 26 29  1  0  0  0  0
 27 28  4  0  0  0  0
 27 32  1  0  0  0  0
 28 33  1  0  0  0  0
 29 34  1  0  0  0  0
 29 35  1  0  0  0  0
M  END
> <BCLConfClusterSize>
1

> <ConfClashScore>
0 

> <ConfOneFourInteractionScore>
-0.932601 

> <ConfScore>
0.543193 

> <ConfScorePBest>
0.00282122 

> <ConfTolerance>
0.606276 

> <RosettaParamsInstructions>
M  ROOT 3
M  POLY_N_BB 3
M  POLY_CA_BB 4
M  POLY_C_BB 2
M  POLY_O_BB 5
M  POLY_IGNORE 9 10 11 12 13 14 15 16 17 18 
M  POLY_UPPER 6
M  POLY_LOWER 8
M  POLY_CHG 0
M  POLY_PROPERTIES ALPHA_AA D_AA PROTEIN AROMATIC POLYMER 
M  END

$$$$



 35 35  0  0  0  0  0  0  0  0999 V2000
   -2.3439    1.9096    0.5120 H   0  0  0  1  0  0  0  0  0  0  0  0
   -0.3446    2.4967    0.9831 C   0  0  0  1  0  0  0  0  0  0  0  0
   -1.0285    0.4975   -0.2633 N   0  0  0  1  0  0  0  0  0  0  0  0
   -1.3835    1.8743    0.0417 C   0  0  0  1  0  0  0  0  0  0  0  0
   -0.6840    3.3725    1.7770 O   0  0  0  1  0  0  0  0  0  0  0  0
    0.8883    1.9801    0.9459 N   0  0  0  1  0  0  0  0  0  0  0  0
   -0.2229    0.1280    0.1549 H   0  0  0  1  0  0  0  0  0  0  0  0
   -1.7376   -0.3036   -1.0853 C   0  0  0  1  0  0  0  0  0  0  0  0
    1.9722    2.4954    1.7691 C   0  0  0  1  0  0  0  0  0  0  0  0
   -1.2531   -1.7263   -1.2867 C   0  0  0  1  0  0  0  0  0  0  0  0
   -2.7476    0.1056   -1.6557 O   0  0  0  1  0  0  0  0  0  0  0  0
    1.0682    1.2284    0.3435 H   0  0  0  1  0  0  0  0  0  0  0  0
    1.5934    3.2487    2.4278 H   0  0  0  1  0  0  0  0  0  0  0  0
    2.7272    2.9187    1.1401 H   0  0  0  1  0  0  0  0  0  0  0  0
    2.3930    1.6975    2.3446 H   0  0  0  1  0  0  0  0  0  0  0  0
   -1.8183   -2.1887   -2.0688 H   0  0  0  1  0  0  0  0  0  0  0  0
   -1.3821   -2.2785   -0.3794 H   0  0  0  1  0  0  0  0  0  0  0  0
   -0.2171   -1.7155   -1.5540 H   0  0  0  1  0  0  0  0  0  0  0  0
    3.2117    0.5466   -5.1639 F   0  0  0  1  0  0  0  0  0  0  0  0
    1.9268    0.2007   -5.2598 C   0  0  0  1  0  0  0  0  0  0  0  0
    1.5639    0.4593   -6.5171 F   0  0  0  1  0  0  0  0  0  0  0  0
    1.8859   -1.1254   -5.1244 F   0  0  0  1  0  0  0  0  0  0  0  0
    1.0567    0.9144   -4.2465 C   0  0  0  1  0  0  0  0  0  0  0  0
    1.6104    1.3360   -3.0476 C   0  0  0  1  0  0  0  0  0  0  0  0
    0.8066    1.9043   -2.0774 C   0  0  0  1  0  0  0  0  0  0  0  0
   -0.5521    2.0575   -2.3052 C   0  0  0  1  0  0  0  0  0  0  0  0
   -1.1040    1.6371   -3.5005 C   0  0  0  1  0  0  0  0  0  0  0  0
   -0.2980    1.0671   -4.4737 C   0  0  0  1  0  0  0  0  0  0  0  0
   -1.4301    2.6838   -1.2476 C   0  0  0  1  0  0  0  0  0  0  0  0
    2.6304    1.2247   -2.8782 H   0  0  0  1  0  0  0  0  0  0  0  0
    1.2212    2.2169   -1.1763 H   0  0  0  1  0  0  0  0  0  0  0  0
   -2.1240    1.7484   -3.6699 H   0  0  0  1  0  0  0  0  0  0  0  0
   -0.7127    0.7545   -5.3748 H   0  0  0  1  0  0  0  0  0  0  0  0
   -1.0868    3.6778   -1.0503 H   0  0  0  1  0  0  0  0  0  0  0  0
   -2.4384    2.7182   -1.6040 H   0  0  0  1  0  0  0  0  0  0  0  0
  1  4  1  0  0  0  0
  2  4  1  0  0  0  0
  2  5  2  0  0  0  0
  2  6  1  0  0  0  0
  3  4  1  0  0  0  0
  3  7  1  0  0  0  0
  3  8  1  0  0  0  0
  4 29  1  0  0  0  0
  6  9  1  0  0  0  0
  6 12  1  0  0  0  0
  8 10  1  0  0  0  0
  8 11  2  0  0  0  0
  9 13  1  0  0  0  0
  9 14  1  0  0  0  0
  9 15  1  0  0  0  0
 10 16  1  0  0  0  0
 10 17  1  0  0  0  0
 10 18  1  0  0  0  0
 19 20  1  0  0  0  0
 20 21  1  0  0  0  0
 20 22  1  0  0  0  0
 20 23  1  0  0  0  0
 23 24  4  0  0  0  0
 23 28  4  0  0  0  0
 24 25  4  0  0  0  0
 24 30  1  0  0  0  0
 25 26  4  0  0  0  0
 25 31  1  0  0  0  0
 26 27  4  0  0  0  0
 26 29  1  0  0  0  0
 27 28  4  0  0  0  0
 27 32  1  0  0  0  0
 28 33  1  0  0  0  0
 29 34  1  0  0  0  0
 29 35  1  0  0  0  0
M  END
> <BCLConfClusterSize>
1

> <ConfClashScore>
0 

> <ConfOneFourInteractionScore>
-0.939096 

> <ConfScore>
0.546341 

> <ConfScorePBest>
0.00279274 

> <ConfTolerance>
0.793592 

> <RosettaParamsInstructions>
M  ROOT 3
M  POLY_N_BB 3
M  POLY_CA_BB 4
M  POLY_C_BB 2
M  POLY_O_BB 5
M  POLY_IGNORE 9 10 11 12 13 14 15 16 17 18 
M  POLY_UPPER 6
M  POLY_LOWER 8
M  POLY_CHG 0
M  POLY_PROPERTIES ALPHA_AA D_AA PROTEIN AROMATIC POLYMER 
M  END

$$$$



 35 35  0  0  0  0  0  0  0  0999 V2000
   -2.0835    4.6443   -1.6025 H   0  0  0  1  0  0  0  0  0  0  0  0
    0.0010    4.6509   -1.8425 C   0  0  0  1  0  0  0  0  0  0  0  0
   -1.2920    4.5358    0.2928 N   0  0  0  1  0  0  0  0  0  0  0  0
   -1.2476    4.1812   -1.1213 C   0  0  0  1  0  0  0  0  0  0  0  0
    0.1274    4.4760   -3.0446 O   0  0  0  1  0  0  0  0  0  0  0  0
    0.8692    5.3270   -1.0776 N   0  0  0  1  0  0  0  0  0  0  0  0
   -1.2130    3.8086    0.9450 H   0  0  0  1  0  0  0  0  0  0  0  0
   -1.4323    5.7774    0.7660 C   0  0  0  1  0  0  0  0  0  0  0  0
    2.0137    6.0740   -1.5774 C   0  0  0  1  0  0  0  0  0  0  0  0
   -1.6068    5.8942    2.2677 C   0  0  0  1  0  0  0  0  0  0  0  0
   -1.4231    6.7724    0.0461 O   0  0  0  1  0  0  0  0  0  0  0  0
    0.7223    5.3176   -0.1087 H   0  0  0  1  0  0  0  0  0  0  0  0
    1.6773    6.8357   -2.2494 H   0  0  0  1  0  0  0  0  0  0  0  0
    2.6750    5.4099   -2.0937 H   0  0  0  1  0  0  0  0  0  0  0  0
    2.5305    6.5258   -0.7565 H   0  0  0  1  0  0  0  0  0  0  0  0
   -1.5763    6.9254    2.5517 H   0  0  0  1  0  0  0  0  0  0  0  0
   -0.8179    5.3653    2.7604 H   0  0  0  1  0  0  0  0  0  0  0  0
   -2.5494    5.4743    2.5507 H   0  0  0  1  0  0  0  0  0  0  0  0
    2.9366    0.9413   -5.7041 F   0  0  0  1  0  0  0  0  0  0  0  0
    1.9135    0.2015   -5.2729 C   0  0  0  1  0  0  0  0  0  0  0  0
    1.2104   -0.1300   -6.3569 F   0  0  0  1  0  0  0  0  0  0  0  0
    2.4416   -0.9319   -4.8091 F   0  0  0  1  0  0  0  0  0  0  0  0
    1.0749    0.9195   -4.2337 C   0  0  0  1  0  0  0  0  0  0  0  0
    1.6239    1.3712   -3.0436 C   0  0  0  1  0  0  0  0  0  0  0  0
    0.8114    1.9352   -2.0782 C   0  0  0  1  0  0  0  0  0  0  0  0
   -0.5514    2.0541   -2.3020 C   0  0  0  1  0  0  0  0  0  0  0  0
   -1.0985    1.6037   -3.4885 C   0  0  0  1  0  0  0  0  0  0  0  0
   -0.2839    1.0380   -4.4570 C   0  0  0  1  0  0  0  0  0  0  0  0
   -1.4389    2.6757   -1.2496 C   0  0  0  1  0  0  0  0  0  0  0  0
    2.6469    1.2856   -2.8773 H   0  0  0  1  0  0  0  0  0  0  0  0
    1.2226    2.2704   -1.1837 H   0  0  0  1  0  0  0  0  0  0  0  0
   -2.1216    1.6892   -3.6549 H   0  0  0  1  0  0  0  0  0  0  0  0
   -0.6951    0.7027   -5.3515 H   0  0  0  1  0  0  0  0  0  0  0  0
   -2.4593    2.4827   -1.5074 H   0  0  0  1  0  0  0  0  0  0  0  0
   -1.2170    2.2225   -0.3061 H   0  0  0  1  0  0  0  0  0  0  0  0
  1  4  1  0  0  0  0
  2  4  1  0  0  0  0
  2  5  2  0  0  0  0
  2  6  1  0  0  0  0
  3  4  1  0  0  0  0
  3  7  1  0  0  0  0
  3  8  1  0  0  0  0
  4 29  1  0  0  0  0
  6  9  1  0  0  0  0
  6 12  1  0  0  0  0
  8 10  1  0  0  0  0
  8 11  2  0  0  0  0
  9 13  1  0  0  0  0
  9 14  1  0  0  0  0
  9 15  1  0  0  0  0
 10 16  1  0  0  0  0
 10 17  1  0  0  0  0
 10 18  1  0  0  0  0
 19 20  1  0  0  0  0
 20 21  1  0  0  0  0
 20 22  1  0  0  0  0
 20 23  1  0  0  0  0
 23 24  4  0  0  0  0
 23 28  4  0  0  0  0
 24 25  4  0  0  0  0
 24 30  1  0  0  0  0
 25 26  4  0  0  0  0
 25 31  1  0  0  0  0
 26 27  4  0  0  0  0
 26 29  1  0  0  0  0
 27 28  4  0  0  0  0
 27 32  1  0  0  0  0
 28 33  1  0  0  0  0
 29 34  1  0  0  0  0
 29 35  1  0  0  0  0
M  END
> <BCLConfClusterSize>
1

> <ConfClashScore>
0 

> <ConfOneFourInteractionScore>
-0.942345 

> <ConfScore>
0.548823 

> <ConfScorePBest>
0.00276426 

> <ConfTolerance>
0.94281 

> <RosettaParamsInstructions>
M  ROOT 3
M  POLY_N_BB 3
M  POLY_CA_BB 4
M  POLY_C_BB 2
M  POLY_O_BB 5
M  POLY_IGNORE 9 10 11 12 13 14 15 16 17 18 
M  POLY_UPPER 6
M  POLY_LOWER 8
M  POLY_CHG 0
M  POLY_PROPERTIES ALPHA_AA D_AA PROTEIN AROMATIC POLYMER 
M  END

$$$$



 35 35  0  0  0  0  0  0  0  0999 V2000
   -1.7038    0.7594   -0.4248 H   0  0  0  1  0  0  0  0  0  0  0  0
   -2.8593    2.0836    0.7287 C   0  0  0  1  0  0  0  0  0  0  0  0
   -0.4133    1.7642    0.8277 N   0  0  0  1  0  0  0  0  0  0  0  0
   -1.5905    1.7488   -0.0334 C   0  0  0  1  0  0  0  0  0  0  0  0
   -3.8137    2.5999    0.1682 O   0  0  0  1  0  0  0  0  0  0  0  0
   -2.8998    1.7025    2.0099 N   0  0  0  1  0  0  0  0  0  0  0  0
    0.2773    1.0813    0.6971 H   0  0  0  1  0  0  0  0  0  0  0  0
   -0.2438    2.6771    1.7885 C   0  0  0  1  0  0  0  0  0  0  0  0
   -4.0719    1.9931    2.8220 C   0  0  0  1  0  0  0  0  0  0  0  0
    0.9786    2.4948    2.6594 C   0  0  0  1  0  0  0  0  0  0  0  0
   -1.0206    3.6113    1.9678 O   0  0  0  1  0  0  0  0  0  0  0  0
   -2.1385    1.2265    2.4028 H   0  0  0  1  0  0  0  0  0  0  0  0
   -4.1625    1.2582    3.5944 H   0  0  0  1  0  0  0  0  0  0  0  0
   -4.9465    1.9723    2.2059 H   0  0  0  1  0  0  0  0  0  0  0  0
   -3.9686    2.9626    3.2629 H   0  0  0  1  0  0  0  0  0  0  0  0
    0.8987    1.5743    3.1990 H   0  0  0  1  0  0  0  0  0  0  0  0
    1.0481    3.3084    3.3509 H   0  0  0  1  0  0  0  0  0  0  0  0
    1.8541    2.4728    2.0447 H   0  0  0  1  0  0  0  0  0  0  0  0
    1.1920   -0.2063   -6.3111 F   0  0  0  1  0  0  0  0  0  0  0  0
    1.9167    0.1929   -5.2646 C   0  0  0  1  0  0  0  0  0  0  0  0
    2.5085   -0.9008   -4.7820 F   0  0  0  1  0  0  0  0  0  0  0  0
    2.8914    0.9592   -5.7559 F   0  0  0  1  0  0  0  0  0  0  0  0
    1.0835    0.9110   -4.2211 C   0  0  0  1  0  0  0  0  0  0  0  0
    1.5129    1.0352   -2.9089 C   0  0  0  1  0  0  0  0  0  0  0  0
    0.6858    1.6107   -1.9629 C   0  0  0  1  0  0  0  0  0  0  0  0
   -0.5708    2.0686   -2.3272 C   0  0  0  1  0  0  0  0  0  0  0  0
   -0.9987    1.9447   -3.6355 C   0  0  0  1  0  0  0  0  0  0  0  0
   -0.1694    1.3675   -4.5845 C   0  0  0  1  0  0  0  0  0  0  0  0
   -1.3895    2.6852   -1.2177 C   0  0  0  1  0  0  0  0  0  0  0  0
    2.4572    0.6953   -2.6363 H   0  0  0  1  0  0  0  0  0  0  0  0
    1.0063    1.7003   -0.9775 H   0  0  0  1  0  0  0  0  0  0  0  0
   -1.9431    2.2846   -3.9081 H   0  0  0  1  0  0  0  0  0  0  0  0
   -0.4900    1.2779   -5.5698 H   0  0  0  1  0  0  0  0  0  0  0  0
   -0.8887    3.5662   -0.8741 H   0  0  0  1  0  0  0  0  0  0  0  0
   -2.3494    2.9498   -1.6094 H   0  0  0  1  0  0  0  0  0  0  0  0
  1  4  1  0  0  0  0
  2  4  1  0  0  0  0
  2  5  2  0  0  0  0
  2  6  1  0  0  0  0
  3  4  1  0  0  0  0
  3  7  1  0  0  0  0
  3  8  1  0  0  0  0
  4 29  1  0  0  0  0
  6  9  1  0  0  0  0
  6 12  1  0  0  0  0
  8 10  1  0  0  0  0
  8 11  2  0  0  0  0
  9 13  1  0  0  0  0
  9 14  1  0  0  0  0
  9 15  1  0  0  0  0
 10 16  1  0  0  0  0
 10 17  1  0  0  0  0
 10 18  1  0  0  0  0
 19 20  1  0  0  0  0
 20 21  1  0  0  0  0
 20 22  1  0  0  0  0
 20 23  1  0  0  0  0
 23 24  4  0  0  0  0
 23 28  4  0  0  0  0
 24 25  4  0  0  0  0
 24 30  1  0  0  0  0
 25 26  4  0  0  0  0
 25 31  1  0  0  0  0
 26 27  4  0  0  0  0
 26 29  1  0  0  0  0
 27 28  4  0  0  0  0
 27 32  1  0  0  0  0
 28 33  1  0  0  0  0
 29 34  1  0  0  0  0
 29 35  1  0  0  0  0
M  END
> <BCLConfClusterSize>
1

> <ConfClashScore>
0 

> <ConfOneFourInteractionScore>
-0.949684 

> <ConfScore>
0.555987 

> <ConfScorePBest>
0.00273578 

> <ConfTolerance>
0.718797 

> <RosettaParamsInstructions>
M  ROOT 3
M  POLY_N_BB 3
M  POLY_CA_BB 4
M  POLY_C_BB 2
M  POLY_O_BB 5
M  POLY_IGNORE 9 10 11 12 13 14 15 16 17 18 
M  POLY_UPPER 6
M  POLY_LOWER 8
M  POLY_CHG 0
M  POLY_PROPERTIES ALPHA_AA D_AA PROTEIN AROMATIC POLYMER 
M  END

$$$$



 35 35  0  0  0  0  0  0  0  0999 V2000
   -1.3896    0.9159   -0.0585 H   0  0  0  1  0  0  0  0  0  0  0  0
   -3.2509    0.9819   -1.1095 C   0  0  0  1  0  0  0  0  0  0  0  0
   -2.6910    2.2746    0.8332 N   0  0  0  1  0  0  0  0  0  0  0  0
   -2.1050    1.6579   -0.3460 C   0  0  0  1  0  0  0  0  0  0  0  0
   -3.4728   -0.2095   -0.9693 O   0  0  0  1  0  0  0  0  0  0  0  0
   -4.0029    1.8123   -1.8397 N   0  0  0  1  0  0  0  0  0  0  0  0
   -2.9940    3.2059    0.7985 H   0  0  0  1  0  0  0  0  0  0  0  0
   -2.8172    1.5742    1.9640 C   0  0  0  1  0  0  0  0  0  0  0  0
   -5.0913    1.4001   -2.7134 C   0  0  0  1  0  0  0  0  0  0  0  0
   -3.5828    2.2904    3.0781 C   0  0  0  1  0  0  0  0  0  0  0  0
   -2.4394    0.4235    2.1106 O   0  0  0  1  0  0  0  0  0  0  0  0
   -3.8063    2.7707   -1.7822 H   0  0  0  1  0  0  0  0  0  0  0  0
   -5.0706    0.3369   -2.8325 H   0  0  0  1  0  0  0  0  0  0  0  0
   -4.9781    1.8681   -3.6690 H   0  0  0  1  0  0  0  0  0  0  0  0
   -6.0255    1.6922   -2.2811 H   0  0  0  1  0  0  0  0  0  0  0  0
   -3.7423    3.3118    2.8022 H   0  0  0  1  0  0  0  0  0  0  0  0
   -3.0144    2.2504    3.9837 H   0  0  0  1  0  0  0  0  0  0  0  0
   -4.5271    1.8099    3.2275 H   0  0  0  1  0  0  0  0  0  0  0  0
    2.4518    1.0217   -6.1736 F   0  0  0  1  0  0  0  0  0  0  0  0
    1.9191    0.2030   -5.2648 C   0  0  0  1  0  0  0  0  0  0  0  0
    1.2684   -0.7466   -5.9388 F   0  0  0  1  0  0  0  0  0  0  0  0
    2.9556   -0.4184   -4.7007 F   0  0  0  1  0  0  0  0  0  0  0  0
    1.0531    0.9167   -4.2480 C   0  0  0  1  0  0  0  0  0  0  0  0
    1.6066    1.3205   -3.0429 C   0  0  0  1  0  0  0  0  0  0  0  0
    0.8053    1.8885   -2.0705 C   0  0  0  1  0  0  0  0  0  0  0  0
   -0.5507    2.0593   -2.3022 C   0  0  0  1  0  0  0  0  0  0  0  0
   -1.1023    1.6566   -3.5038 C   0  0  0  1  0  0  0  0  0  0  0  0
   -0.2989    1.0869   -4.4792 C   0  0  0  1  0  0  0  0  0  0  0  0
   -1.4258    2.6853   -1.2421 C   0  0  0  1  0  0  0  0  0  0  0  0
    2.6246    1.1961   -2.8706 H   0  0  0  1  0  0  0  0  0  0  0  0
    1.2197    2.1878   -1.1648 H   0  0  0  1  0  0  0  0  0  0  0  0
   -2.1204    1.7810   -3.6761 H   0  0  0  1  0  0  0  0  0  0  0  0
   -0.7134    0.7877   -5.3849 H   0  0  0  1  0  0  0  0  0  0  0  0
   -0.8193    3.3215   -0.6319 H   0  0  0  1  0  0  0  0  0  0  0  0
   -2.1817    3.2685   -1.7253 H   0  0  0  1  0  0  0  0  0  0  0  0
  1  4  1  0  0  0  0
  2  4  1  0  0  0  0
  2  5  2  0  0  0  0
  2  6  1  0  0  0  0
  3  4  1  0  0  0  0
  3  7  1  0  0  0  0
  3  8  1  0  0  0  0
  4 29  1  0  0  0  0
  6  9  1  0  0  0  0
  6 12  1  0  0  0  0
  8 10  1  0  0  0  0
  8 11  2  0  0  0  0
  9 13  1  0  0  0  0
  9 14  1  0  0  0  0
  9 15  1  0  0  0  0
 10 16  1  0  0  0  0
 10 17  1  0  0  0  0
 10 18  1  0  0  0  0
 19 20  1  0  0  0  0
 20 21  1  0  0  0  0
 20 22  1  0  0  0  0
 20 23  1  0  0  0  0
 23 24  4  0  0  0  0
 23 28  4  0  0  0  0
 24 25  4  0  0  0  0
 24 30  1  0  0  0  0
 25 26  4  0  0  0  0
 25 31  1  0  0  0  0
 26 27  4  0  0  0  0
 26 29  1  0  0  0  0
 27 28  4  0  0  0  0
 27 32  1  0  0  0  0
 28 33  1  0  0  0  0
 29 34  1  0  0  0  0
 29 35  1  0  0  0  0
M  END
> <BCLConfClusterSize>
1

> <ConfClashScore>
0 

> <ConfOneFourInteractionScore>
-0.940804 

> <ConfScore>
0.566468 

> <ConfScorePBest>
0.0027073 

> <ConfTolerance>
0.889845 

> <RosettaParamsInstructions>
M  ROOT 3
M  POLY_N_BB 3
M  POLY_CA_BB 4
M  POLY_C_BB 2
M  POLY_O_BB 5
M  POLY_IGNORE 9 10 11 12 13 14 15 16 17 18 
M  POLY_UPPER 6
M  POLY_LOWER 8
M  POLY_CHG 0
M  POLY_PROPERTIES ALPHA_AA D_AA PROTEIN AROMATIC POLYMER 
M  END

$$$$



 35 35  0  0  0  0  0  0  0  0999 V2000
   -3.0476    1.3137   -1.3292 H   0  0  0  1  0  0  0  0  0  0  0  0
   -3.3429    2.4853    0.4360 C   0  0  0  1  0  0  0  0  0  0  0  0
   -1.6197    0.6575    0.0665 N   0  0  0  1  0  0  0  0  0  0  0  0
   -2.4200    1.7546   -0.5830 C   0  0  0  1  0  0  0  0  0  0  0  0
   -4.5533    2.2671    0.4528 O   0  0  0  1  0  0  0  0  0  0  0  0
   -2.6924    3.2796    1.3221 N   0  0  0  1  0  0  0  0  0  0  0  0
   -1.8912   -0.2734   -0.0752 H   0  0  0  1  0  0  0  0  0  0  0  0
   -0.5262    0.9149    0.8481 C   0  0  0  1  0  0  0  0  0  0  0  0
   -3.3999    4.0212    2.3819 C   0  0  0  1  0  0  0  0  0  0  0  0
    0.2205   -0.2989    1.3532 C   0  0  0  1  0  0  0  0  0  0  0  0
   -0.1455    2.0964    1.1427 O   0  0  0  1  0  0  0  0  0  0  0  0
   -1.7183    3.3635    1.2556 H   0  0  0  1  0  0  0  0  0  0  0  0
   -2.8077    4.0225    3.2731 H   0  0  0  1  0  0  0  0  0  0  0  0
   -4.3402    3.5504    2.5795 H   0  0  0  1  0  0  0  0  0  0  0  0
   -3.5651    5.0289    2.0622 H   0  0  0  1  0  0  0  0  0  0  0  0
    0.7084   -0.0600    2.2750 H   0  0  0  1  0  0  0  0  0  0  0  0
    0.9510   -0.5946    0.6294 H   0  0  0  1  0  0  0  0  0  0  0  0
   -0.4695   -1.1010    1.5125 H   0  0  0  1  0  0  0  0  0  0  0  0
    1.6887   -1.1207   -5.3053 F   0  0  0  1  0  0  0  0  0  0  0  0
    1.9068    0.1951   -5.2728 C   0  0  0  1  0  0  0  0  0  0  0  0
    3.2165    0.3123   -5.0483 F   0  0  0  1  0  0  0  0  0  0  0  0
    1.7128    0.6572   -6.4908 F   0  0  0  1  0  0  0  0  0  0  0  0
    1.0832    0.9093   -4.2192 C   0  0  0  1  0  0  0  0  0  0  0  0
    1.4855    0.9585   -2.8935 C   0  0  0  1  0  0  0  0  0  0  0  0
    0.6636    1.5343   -1.9430 C   0  0  0  1  0  0  0  0  0  0  0  0
   -0.5603    2.0673   -2.3162 C   0  0  0  1  0  0  0  0  0  0  0  0
   -0.9612    2.0182   -3.6379 C   0  0  0  1  0  0  0  0  0  0  0  0
   -0.1372    1.4407   -4.5913 C   0  0  0  1  0  0  0  0  0  0  0  0
   -1.4563    2.7019   -1.2789 C   0  0  0  1  0  0  0  0  0  0  0  0
    2.4055    0.5622   -2.6141 H   0  0  0  1  0  0  0  0  0  0  0  0
    0.9636    1.5677   -0.9478 H   0  0  0  1  0  0  0  0  0  0  0  0
   -1.8813    2.4145   -3.9172 H   0  0  0  1  0  0  0  0  0  0  0  0
   -0.4372    1.4074   -5.5866 H   0  0  0  1  0  0  0  0  0  0  0  0
   -0.8328    3.1462   -0.5314 H   0  0  0  1  0  0  0  0  0  0  0  0
   -2.0327    3.4631   -1.7618 H   0  0  0  1  0  0  0  0  0  0  0  0
  1  4  1  0  0  0  0
  2  4  1  0  0  0  0
  2  5  2  0  0  0  0
  2  6  1  0  0  0  0
  3  4  1  0  0  0  0
  3  7  1  0  0  0  0
  3  8  1  0  0  0  0
  4 29  1  0  0  0  0
  6  9  1  0  0  0  0
  6 12  1  0  0  0  0
  8 10  1  0  0  0  0
  8 11  2  0  0  0  0
  9 13  1  0  0  0  0
  9 14  1  0  0  0  0
  9 15  1  0  0  0  0
 10 16  1  0  0  0  0
 10 17  1  0  0  0  0
 10 18  1  0  0  0  0
 19 20  1  0  0  0  0
 20 21  1  0  0  0  0
 20 22  1  0  0  0  0
 20 23  1  0  0  0  0
 23 24  4  0  0  0  0
 23 28  4  0  0  0  0
 24 25  4  0  0  0  0
 24 30  1  0  0  0  0
 25 26  4  0  0  0  0
 25 31  1  0  0  0  0
 26 27  4  0  0  0  0
 26 29  1  0  0  0  0
 27 28  4  0  0  0  0
 27 32  1  0  0  0  0
 28 33  1  0  0  0  0
 29 34  1  0  0  0  0
 29 35  1  0  0  0  0
M  END
> <BCLConfClusterSize>
1

> <ConfClashScore>
0 

> <ConfOneFourInteractionScore>
-0.950934 

> <ConfScore>
0.570465 

> <ConfScorePBest>
0.00267882 

> <ConfTolerance>
0.852867 

> <RosettaParamsInstructions>
M  ROOT 3
M  POLY_N_BB 3
M  POLY_CA_BB 4
M  POLY_C_BB 2
M  POLY_O_BB 5
M  POLY_IGNORE 9 10 11 12 13 14 15 16 17 18 
M  POLY_UPPER 6
M  POLY_LOWER 8
M  POLY_CHG 0
M  POLY_PROPERTIES ALPHA_AA D_AA PROTEIN AROMATIC POLYMER 
M  END

$$$$



 35 35  0  0  0  0  0  0  0  0999 V2000
   -3.1357    2.3006   -2.4547 H   0  0  0  1  0  0  0  0  0  0  0  0
   -2.8188    4.3657   -2.6583 C   0  0  0  1  0  0  0  0  0  0  0  0
   -3.7980    3.1942   -0.7173 N   0  0  0  1  0  0  0  0  0  0  0  0
   -2.8158    3.0954   -1.8137 C   0  0  0  1  0  0  0  0  0  0  0  0
   -3.8570    4.9952   -2.8543 O   0  0  0  1  0  0  0  0  0  0  0  0
   -1.6248    4.7949   -3.0909 N   0  0  0  1  0  0  0  0  0  0  0  0
   -4.4159    2.4531   -0.5462 H   0  0  0  1  0  0  0  0  0  0  0  0
   -3.8468    4.2920    0.0426 C   0  0  0  1  0  0  0  0  0  0  0  0
   -1.4870    6.1326   -3.6473 C   0  0  0  1  0  0  0  0  0  0  0  0
   -4.9498    4.3347    1.1036 C   0  0  0  1  0  0  0  0  0  0  0  0
   -3.0904    5.2584   -0.0370 O   0  0  0  1  0  0  0  0  0  0  0  0
   -0.8432    4.2068   -3.0324 H   0  0  0  1  0  0  0  0  0  0  0  0
   -0.6738    6.1482   -4.3425 H   0  0  0  1  0  0  0  0  0  0  0  0
   -1.2945    6.8288   -2.8579 H   0  0  0  1  0  0  0  0  0  0  0  0
   -2.3914    6.4042   -4.1505 H   0  0  0  1  0  0  0  0  0  0  0  0
   -4.5911    4.8480    1.9712 H   0  0  0  1  0  0  0  0  0  0  0  0
   -5.2273    3.3361    1.3696 H   0  0  0  1  0  0  0  0  0  0  0  0
   -5.8017    4.8498    0.7115 H   0  0  0  1  0  0  0  0  0  0  0  0
    1.2673   -0.7896   -5.8712 F   0  0  0  1  0  0  0  0  0  0  0  0
    1.9266    0.1931   -5.2550 C   0  0  0  1  0  0  0  0  0  0  0  0
    3.0089   -0.3672   -4.7127 F   0  0  0  1  0  0  0  0  0  0  0  0
    2.3682    1.0060   -6.2156 F   0  0  0  1  0  0  0  0  0  0  0  0
    1.0721    0.9132   -4.2330 C   0  0  0  1  0  0  0  0  0  0  0  0
    1.4816    0.9565   -2.9093 C   0  0  0  1  0  0  0  0  0  0  0  0
    0.6656    1.5292   -1.9521 C   0  0  0  1  0  0  0  0  0  0  0  0
   -0.5599    2.0650   -2.3163 C   0  0  0  1  0  0  0  0  0  0  0  0
   -0.9680    2.0217   -3.6361 C   0  0  0  1  0  0  0  0  0  0  0  0
   -0.1497    1.4473   -4.5963 C   0  0  0  1  0  0  0  0  0  0  0  0
   -1.4496    2.6962   -1.2716 C   0  0  0  1  0  0  0  0  0  0  0  0
    2.4028    0.5581   -2.6366 H   0  0  0  1  0  0  0  0  0  0  0  0
    0.9709    1.5581   -0.9583 H   0  0  0  1  0  0  0  0  0  0  0  0
   -1.8892    2.4200   -3.9088 H   0  0  0  1  0  0  0  0  0  0  0  0
   -0.4551    1.4184   -5.5900 H   0  0  0  1  0  0  0  0  0  0  0  0
   -1.5905    1.9951   -0.4757 H   0  0  0  1  0  0  0  0  0  0  0  0
   -0.9637    3.5717   -0.8945 H   0  0  0  1  0  0  0  0  0  0  0  0
  1  4  1  0  0  0  0
  2  4  1  0  0  0  0
  2  5  2  0  0  0  0
  2  6  1  0  0  0  0
  3  4  1  0  0  0  0
  3  7  1  0  0  0  0
  3  8  1  0  0  0  0
  4 29  1  0  0  0  0
  6  9  1  0  0  0  0
  6 12  1  0  0  0  0
  8 10  1  0  0  0  0
  8 11  2  0  0  0  0
  9 13  1  0  0  0  0
  9 14  1  0  0  0  0
  9 15  1  0  0  0  0
 10 16  1  0  0  0  0
 10 17  1  0  0  0  0
 10 18  1  0  0  0  0
 19 20  1  0  0  0  0
 20 21  1  0  0  0  0
 20 22  1  0  0  0  0
 20 23  1  0  0  0  0
 23 24  4  0  0  0  0
 23 28  4  0  0  0  0
 24 25  4  0  0  0  0
 24 30  1  0  0  0  0
 25 26  4  0  0  0  0
 25 31  1  0  0  0  0
 26 27  4  0  0  0  0
 26 29  1  0  0  0  0
 27 28  4  0  0  0  0
 27 32  1  0  0  0  0
 28 33  1  0  0  0  0
 29 34  1  0  0  0  0
 29 35  1  0  0  0  0
M  END
> <BCLConfClusterSize>
1

> <ConfClashScore>
0 

> <ConfOneFourInteractionScore>
-0.918814 

> <ConfScore>
0.578801 

> <ConfScorePBest>
0.00265034 

> <ConfTolerance>
0.930988 

> <RosettaParamsInstructions>
M  ROOT 3
M  POLY_N_BB 3
M  POLY_CA_BB 4
M  POLY_C_BB 2
M  POLY_O_BB 5
M  POLY_IGNORE 9 10 11 12 13 14 15 16 17 18 
M  POLY_UPPER 6
M  POLY_LOWER 8
M  POLY_CHG 0
M  POLY_PROPERTIES ALPHA_AA D_AA PROTEIN AROMATIC POLYMER 
M  END

$$$$



 35 35  0  0  0  0  0  0  0  0999 V2000
   -2.6789    4.3746   -1.4057 H   0  0  0  1  0  0  0  0  0  0  0  0
   -1.1141    4.6534   -2.7971 C   0  0  0  1  0  0  0  0  0  0  0  0
   -0.9870    4.8364   -0.3150 N   0  0  0  1  0  0  0  0  0  0  0  0
   -1.6274    4.1805   -1.4452 C   0  0  0  1  0  0  0  0  0  0  0  0
   -1.8863    4.7620   -3.7372 O   0  0  0  1  0  0  0  0  0  0  0  0
    0.1722    5.0136   -2.8609 N   0  0  0  1  0  0  0  0  0  0  0  0
   -0.2145    5.4098   -0.5020 H   0  0  0  1  0  0  0  0  0  0  0  0
   -1.3745    4.7153    0.9639 C   0  0  0  1  0  0  0  0  0  0  0  0
    0.7396    5.4773   -4.1182 C   0  0  0  1  0  0  0  0  0  0  0  0
   -0.5664    5.5056    1.9747 C   0  0  0  1  0  0  0  0  0  0  0  0
   -2.3205    4.0140    1.3124 O   0  0  0  1  0  0  0  0  0  0  0  0
    0.7338    4.9653   -2.0593 H   0  0  0  1  0  0  0  0  0  0  0  0
    0.0023    6.0322   -4.6598 H   0  0  0  1  0  0  0  0  0  0  0  0
    1.0511    4.6355   -4.7006 H   0  0  0  1  0  0  0  0  0  0  0  0
    1.5827    6.1052   -3.9187 H   0  0  0  1  0  0  0  0  0  0  0  0
   -1.2055    5.8260    2.7708 H   0  0  0  1  0  0  0  0  0  0  0  0
   -0.1362    6.3608    1.4968 H   0  0  0  1  0  0  0  0  0  0  0  0
    0.2127    4.8876    2.3697 H   0  0  0  1  0  0  0  0  0  0  0  0
    3.0294    0.8881   -5.5601 F   0  0  0  1  0  0  0  0  0  0  0  0
    1.9259    0.2008   -5.2605 C   0  0  0  1  0  0  0  0  0  0  0  0
    1.2928   -0.0137   -6.4194 F   0  0  0  1  0  0  0  0  0  0  0  0
    2.3350   -0.9939   -4.8315 F   0  0  0  1  0  0  0  0  0  0  0  0
    1.0554    0.9141   -4.2472 C   0  0  0  1  0  0  0  0  0  0  0  0
    1.6156    1.3631   -3.0614 C   0  0  0  1  0  0  0  0  0  0  0  0
    0.8134    1.9316   -2.0900 C   0  0  0  1  0  0  0  0  0  0  0  0
   -0.5504    2.0576   -2.3037 C   0  0  0  1  0  0  0  0  0  0  0  0
   -1.1088    1.6099   -3.4860 C   0  0  0  1  0  0  0  0  0  0  0  0
   -0.3044    1.0398   -4.4604 C   0  0  0  1  0  0  0  0  0  0  0  0
   -1.4267    2.6841   -1.2449 C   0  0  0  1  0  0  0  0  0  0  0  0
    2.6394    1.2722   -2.9027 H   0  0  0  1  0  0  0  0  0  0  0  0
    1.2330    2.2648   -1.1987 H   0  0  0  1  0  0  0  0  0  0  0  0
   -2.1326    1.7008   -3.6447 H   0  0  0  1  0  0  0  0  0  0  0  0
   -0.7241    0.7066   -5.3517 H   0  0  0  1  0  0  0  0  0  0  0  0
   -2.3837    2.2060   -1.2682 H   0  0  0  1  0  0  0  0  0  0  0  0
   -0.9719    2.5264   -0.2893 H   0  0  0  1  0  0  0  0  0  0  0  0
  1  4  1  0  0  0  0
  2  4  1  0  0  0  0
  2  5  2  0  0  0  0
  2  6  1  0  0  0  0
  3  4  1  0  0  0  0
  3  7  1  0  0  0  0
  3  8  1  0  0  0  0
  4 29  1  0  0  0  0
  6  9  1  0  0  0  0
  6 12  1  0  0  0  0
  8 10  1  0  0  0  0
  8 11  2  0  0  0  0
  9 13  1  0  0  0  0
  9 14  1  0  0  0  0
  9 15  1  0  0  0  0
 10 16  1  0  0  0  0
 10 17  1  0  0  0  0
 10 18  1  0  0  0  0
 19 20  1  0  0  0  0
 20 21  1  0  0  0  0
 20 22  1  0  0  0  0
 20 23  1  0  0  0  0
 23 24  4  0  0  0  0
 23 28  4  0  0  0  0
 24 25  4  0  0  0  0
 24 30  1  0  0  0  0
 25 26  4  0  0  0  0
 25 31  1  0  0  0  0
 26 27  4  0  0  0  0
 26 29  1  0  0  0  0
 27 28  4  0  0  0  0
 27 32  1  0  0  0  0
 28 33  1  0  0  0  0
 29 34  1  0  0  0  0
 29 35  1  0  0  0  0
M  END
> <BCLConfClusterSize>
1

> <ConfClashScore>
0 

> <ConfOneFourInteractionScore>
-0.951423 

> <ConfScore>
0.585653 

> <ConfScorePBest>
0.00262186 

> <ConfTolerance>
0.897338 

> <RosettaParamsInstructions>
M  ROOT 3
M  POLY_N_BB 3
M  POLY_CA_BB 4
M  POLY_C_BB 2
M  POLY_O_BB 5
M  POLY_IGNORE 9 10 11 12 13 14 15 16 17 18 
M  POLY_UPPER 6
M  POLY_LOWER 8
M  POLY_CHG 0
M  POLY_PROPERTIES ALPHA_AA D_AA PROTEIN AROMATIC POLYMER 
M  END

$$$$



 35 35  0  0  0  0  0  0  0  0999 V2000
   -1.5149    3.1710    0.7958 H   0  0  0  1  0  0  0  0  0  0  0  0
    0.4753    3.4875    0.1306 C   0  0  0  1  0  0  0  0  0  0  0  0
   -0.6242    1.3152    0.5657 N   0  0  0  1  0  0  0  0  0  0  0  0
   -0.8308    2.6910    0.1276 C   0  0  0  1  0  0  0  0  0  0  0  0
    0.7476    4.2131   -0.8133 O   0  0  0  1  0  0  0  0  0  0  0  0
    1.2272    3.4078    1.2336 N   0  0  0  1  0  0  0  0  0  0  0  0
    0.2877    1.0482    0.8059 H   0  0  0  1  0  0  0  0  0  0  0  0
   -1.5885    0.3875    0.6645 C   0  0  0  1  0  0  0  0  0  0  0  0
    2.3447    4.3071    1.4792 C   0  0  0  1  0  0  0  0  0  0  0  0
   -1.1236   -0.9786    1.1640 C   0  0  0  1  0  0  0  0  0  0  0  0
   -2.7533    0.5715    0.3147 O   0  0  0  1  0  0  0  0  0  0  0  0
    1.0184    2.7200    1.8997 H   0  0  0  1  0  0  0  0  0  0  0  0
    2.1022    5.2849    1.1188 H   0  0  0  1  0  0  0  0  0  0  0  0
    3.2128    3.9444    0.9694 H   0  0  0  1  0  0  0  0  0  0  0  0
    2.5409    4.3531    2.5301 H   0  0  0  1  0  0  0  0  0  0  0  0
   -1.3594   -1.7249    0.4344 H   0  0  0  1  0  0  0  0  0  0  0  0
   -1.6198   -1.2096    2.0834 H   0  0  0  1  0  0  0  0  0  0  0  0
   -0.0658   -0.9584    1.3242 H   0  0  0  1  0  0  0  0  0  0  0  0
    1.6563   -1.1092   -5.3203 F   0  0  0  1  0  0  0  0  0  0  0  0
    1.9281    0.1932   -5.2541 C   0  0  0  1  0  0  0  0  0  0  0  0
    3.2282    0.2886   -4.9884 F   0  0  0  1  0  0  0  0  0  0  0  0
    1.7627    0.6723   -6.4876 F   0  0  0  1  0  0  0  0  0  0  0  0
    1.0728    0.9131   -4.2326 C   0  0  0  1  0  0  0  0  0  0  0  0
    1.4800    0.9539   -2.9081 C   0  0  0  1  0  0  0  0  0  0  0  0
    0.6630    1.5265   -1.9515 C   0  0  0  1  0  0  0  0  0  0  0  0
   -0.5610    2.0646   -2.3173 C   0  0  0  1  0  0  0  0  0  0  0  0
   -0.9667    2.0238   -3.6378 C   0  0  0  1  0  0  0  0  0  0  0  0
   -0.1476    1.4497   -4.5974 C   0  0  0  1  0  0  0  0  0  0  0  0
   -1.4516    2.6956   -1.2732 C   0  0  0  1  0  0  0  0  0  0  0  0
    2.4000    0.5538   -2.6343 H   0  0  0  1  0  0  0  0  0  0  0  0
    0.9666    1.5535   -0.9572 H   0  0  0  1  0  0  0  0  0  0  0  0
   -1.8868    2.4240   -3.9116 H   0  0  0  1  0  0  0  0  0  0  0  0
   -0.4512    1.4226   -5.5917 H   0  0  0  1  0  0  0  0  0  0  0  0
   -1.6439    3.7092   -1.5572 H   0  0  0  1  0  0  0  0  0  0  0  0
   -2.3734    2.1533   -1.2390 H   0  0  0  1  0  0  0  0  0  0  0  0
  1  4  1  0  0  0  0
  2  4  1  0  0  0  0
  2  5  2  0  0  0  0
  2  6  1  0  0  0  0
  3  4  1  0  0  0  0
  3  7  1  0  0  0  0
  3  8  1  0  0  0  0
  4 29  1  0  0  0  0
  6  9  1  0  0  0  0
  6 12  1  0  0  0  0
  8 10  1  0  0  0  0
  8 11  2  0  0  0  0
  9 13  1  0  0  0  0
  9 14  1  0  0  0  0
  9 15  1  0  0  0  0
 10 16  1  0  0  0  0
 10 17  1  0  0  0  0
 10 18  1  0  0  0  0
 19 20  1  0  0  0  0
 20 21  1  0  0  0  0
 20 22  1  0  0  0  0
 20 23  1  0  0  0  0
 23 24  4  0  0  0  0
 23 28  4  0  0  0  0
 24 25  4  0  0  0  0
 24 30  1  0  0  0  0
 25 26  4  0  0  0  0
 25 31  1  0  0  0  0
 26 27  4  0  0  0  0
 26 29  1  0  0  0  0
 27 28  4  0  0  0  0
 27 32  1  0  0  0  0
 28 33  1  0  0  0  0
 29 34  1  0  0  0  0
 29 35  1  0  0  0  0
M  END
> <BCLConfClusterSize>
1

> <ConfClashScore>
0 

> <ConfOneFourInteractionScore>
-0.962628 

> <ConfScore>
0.586387 

> <ConfScorePBest>
0.00259338 

> <ConfTolerance>
0.96139 

> <RosettaParamsInstructions>
M  ROOT 3
M  POLY_N_BB 3
M  POLY_CA_BB 4
M  POLY_C_BB 2
M  POLY_O_BB 5
M  POLY_IGNORE 9 10 11 12 13 14 15 16 17 18 
M  POLY_UPPER 6
M  POLY_LOWER 8
M  POLY_CHG 0
M  POLY_PROPERTIES ALPHA_AA D_AA PROTEIN AROMATIC POLYMER 
M  END

$$$$



 35 35  0  0  0  0  0  0  0  0999 V2000
   -2.5417    3.4115   -2.8863 H   0  0  0  1  0  0  0  0  0  0  0  0
   -2.6039    4.8806   -1.3654 C   0  0  0  1  0  0  0  0  0  0  0  0
   -3.8535    2.7578   -1.4274 N   0  0  0  1  0  0  0  0  0  0  0  0
   -2.6227    3.4280   -1.8195 C   0  0  0  1  0  0  0  0  0  0  0  0
   -2.2217    5.7590   -2.1371 O   0  0  0  1  0  0  0  0  0  0  0  0
   -3.0972    5.1388   -0.1460 N   0  0  0  1  0  0  0  0  0  0  0  0
   -3.8194    1.9864   -0.8239 H   0  0  0  1  0  0  0  0  0  0  0  0
   -5.0415    3.1962   -1.8931 C   0  0  0  1  0  0  0  0  0  0  0  0
   -3.0833    6.4461    0.5008 C   0  0  0  1  0  0  0  0  0  0  0  0
   -6.2880    2.4490   -1.4759 C   0  0  0  1  0  0  0  0  0  0  0  0
   -5.1111    4.1741   -2.6349 O   0  0  0  1  0  0  0  0  0  0  0  0
   -3.4972    4.3930    0.3482 H   0  0  0  1  0  0  0  0  0  0  0  0
   -2.3997    7.0907   -0.0112 H   0  0  0  1  0  0  0  0  0  0  0  0
   -2.7750    6.3365    1.5195 H   0  0  0  1  0  0  0  0  0  0  0  0
   -4.0652    6.8702    0.4684 H   0  0  0  1  0  0  0  0  0  0  0  0
   -6.4860    2.6345   -0.4408 H   0  0  0  1  0  0  0  0  0  0  0  0
   -6.1426    1.4000   -1.6286 H   0  0  0  1  0  0  0  0  0  0  0  0
   -7.1175    2.7839   -2.0630 H   0  0  0  1  0  0  0  0  0  0  0  0
    3.0976    0.7858   -5.4415 F   0  0  0  1  0  0  0  0  0  0  0  0
    1.9261    0.2096   -5.2642 C   0  0  0  1  0  0  0  0  0  0  0  0
    1.3645    0.1127   -6.4602 F   0  0  0  1  0  0  0  0  0  0  0  0
    2.2018   -1.0452   -4.9062 F   0  0  0  1  0  0  0  0  0  0  0  0
    1.0554    0.9196   -4.2489 C   0  0  0  1  0  0  0  0  0  0  0  0
    1.6143    1.3609   -3.0596 C   0  0  0  1  0  0  0  0  0  0  0  0
    0.8116    1.9262   -2.0868 C   0  0  0  1  0  0  0  0  0  0  0  0
   -0.5515    2.0567   -2.3024 C   0  0  0  1  0  0  0  0  0  0  0  0
   -1.1086    1.6167   -3.4883 C   0  0  0  1  0  0  0  0  0  0  0  0
   -0.3037    1.0498   -4.4641 C   0  0  0  1  0  0  0  0  0  0  0  0
   -1.4284    2.6797   -1.2420 C   0  0  0  1  0  0  0  0  0  0  0  0
    2.6376    1.2667   -2.8994 H   0  0  0  1  0  0  0  0  0  0  0  0
    1.2302    2.2536   -1.1928 H   0  0  0  1  0  0  0  0  0  0  0  0
   -2.1318    1.7110   -3.6485 H   0  0  0  1  0  0  0  0  0  0  0  0
   -0.7224    0.7223   -5.3580 H   0  0  0  1  0  0  0  0  0  0  0  0
   -1.7904    1.9037   -0.6005 H   0  0  0  1  0  0  0  0  0  0  0  0
   -0.8383    3.3674   -0.6730 H   0  0  0  1  0  0  0  0  0  0  0  0
  1  4  1  0  0  0  0
  2  4  1  0  0  0  0
  2  5  2  0  0  0  0
  2  6  1  0  0  0  0
  3  4  1  0  0  0  0
  3  7  1  0  0  0  0
  3  8  1  0  0  0  0
  4 29  1  0  0  0  0
  6  9  1  0  0  0  0
  6 12  1  0  0  0  0
  8 10  1  0  0  0  0
  8 11  2  0  0  0  0
  9 13  1  0  0  0  0
  9 14  1  0  0  0  0
  9 15  1  0  0  0  0
 10 16  1  0  0  0  0
 10 17  1  0  0  0  0
 10 18  1  0  0  0  0
 19 20  1  0  0  0  0
 20 21  1  0  0  0  0
 20 22  1  0  0  0  0
 20 23  1  0  0  0  0
 23 24  4  0  0  0  0
 23 28  4  0  0  0  0
 24 25  4  0  0  0  0
 24 30  1  0  0  0  0
 25 26  4  0  0  0  0
 25 31  1  0  0  0  0
 26 27  4  0  0  0  0
 26 29  1  0  0  0  0
 27 28  4  0  0  0  0
 27 32  1  0  0  0  0
 28 33  1  0  0  0  0
 29 34  1  0  0  0  0
 29 35  1  0  0  0  0
M  END
> <BCLConfClusterSize>
1

> <ConfClashScore>
0 

> <ConfOneFourInteractionScore>
-0.941392 

> <ConfScore>
0.588702 

> <ConfScorePBest>
0.0025649 

> <ConfTolerance>
1.15289 

> <RosettaParamsInstructions>
M  ROOT 3
M  POLY_N_BB 3
M  POLY_CA_BB 4
M  POLY_C_BB 2
M  POLY_O_BB 5
M  POLY_IGNORE 9 10 11 12 13 14 15 16 17 18 
M  POLY_UPPER 6
M  POLY_LOWER 8
M  POLY_CHG 0
M  POLY_PROPERTIES ALPHA_AA D_AA PROTEIN AROMATIC POLYMER 
M  END

$$$$



 35 35  0  0  0  0  0  0  0  0999 V2000
   -0.2025    4.3997   -1.1115 H   0  0  0  1  0  0  0  0  0  0  0  0
   -1.8747    4.6507    0.1750 C   0  0  0  1  0  0  0  0  0  0  0  0
   -1.8292    4.8571   -2.3102 N   0  0  0  1  0  0  0  0  0  0  0  0
   -1.2528    4.1985   -1.1475 C   0  0  0  1  0  0  0  0  0  0  0  0
   -2.7024    5.5485    0.1979 O   0  0  0  1  0  0  0  0  0  0  0  0
   -1.5042    3.9338    1.2414 N   0  0  0  1  0  0  0  0  0  0  0  0
   -2.7648    4.6775   -2.5400 H   0  0  0  1  0  0  0  0  0  0  0  0
   -1.1273    5.6978   -3.0753 C   0  0  0  1  0  0  0  0  0  0  0  0
   -1.8807    4.3055    2.5970 C   0  0  0  1  0  0  0  0  0  0  0  0
   -1.7656    6.2052   -4.3537 C   0  0  0  1  0  0  0  0  0  0  0  0
    0.0081    6.0863   -2.8050 O   0  0  0  1  0  0  0  0  0  0  0  0
   -0.9601    3.1301    1.1051 H   0  0  0  1  0  0  0  0  0  0  0  0
   -1.7076    3.4796    3.2550 H   0  0  0  1  0  0  0  0  0  0  0  0
   -2.9178    4.5678    2.6197 H   0  0  0  1  0  0  0  0  0  0  0  0
   -1.2936    5.1423    2.9133 H   0  0  0  1  0  0  0  0  0  0  0  0
   -1.4162    7.1955   -4.5588 H   0  0  0  1  0  0  0  0  0  0  0  0
   -2.8294    6.2190   -4.2397 H   0  0  0  1  0  0  0  0  0  0  0  0
   -1.5017    5.5590   -5.1647 H   0  0  0  1  0  0  0  0  0  0  0  0
    2.0838   -1.0997   -4.9700 F   0  0  0  1  0  0  0  0  0  0  0  0
    1.9284    0.1945   -5.2545 C   0  0  0  1  0  0  0  0  0  0  0  0
    3.1568    0.7070   -5.3420 F   0  0  0  1  0  0  0  0  0  0  0  0
    1.4129    0.2474   -6.4833 F   0  0  0  1  0  0  0  0  0  0  0  0
    1.0710    0.9138   -4.2343 C   0  0  0  1  0  0  0  0  0  0  0  0
    1.5013    0.9993   -2.9193 C   0  0  0  1  0  0  0  0  0  0  0  0
    0.6854    1.5709   -1.9612 C   0  0  0  1  0  0  0  0  0  0  0  0
   -0.5608    2.0634   -2.3161 C   0  0  0  1  0  0  0  0  0  0  0  0
   -0.9896    1.9780   -3.6272 C   0  0  0  1  0  0  0  0  0  0  0  0
   -0.1715    1.4048   -4.5883 C   0  0  0  1  0  0  0  0  0  0  0  0
   -1.4504    2.6934   -1.2706 C   0  0  0  1  0  0  0  0  0  0  0  0
    2.4379    0.6335   -2.6537 H   0  0  0  1  0  0  0  0  0  0  0  0
    1.0065    1.6315   -0.9739 H   0  0  0  1  0  0  0  0  0  0  0  0
   -1.9262    2.3438   -3.8928 H   0  0  0  1  0  0  0  0  0  0  0  0
   -0.4927    1.3442   -5.5756 H   0  0  0  1  0  0  0  0  0  0  0  0
   -2.4705    2.5041   -1.5326 H   0  0  0  1  0  0  0  0  0  0  0  0
   -1.2353    2.2430   -0.3242 H   0  0  0  1  0  0  0  0  0  0  0  0
  1  4  1  0  0  0  0
  2  4  1  0  0  0  0
  2  5  2  0  0  0  0
  2  6  1  0  0  0  0
  3  4  1  0  0  0  0
  3  7  1  0  0  0  0
  3  8  1  0  0  0  0
  4 29  1  0  0  0  0
  6  9  1  0  0  0  0
  6 12  1  0  0  0  0
  8 10  1  0  0  0  0
  8 11  2  0  0  0  0
  9 13  1  0  0  0  0
  9 14  1  0  0  0  0
  9 15  1  0  0  0  0
 10 16  1  0  0  0  0
 10 17  1  0  0  0  0
 10 18  1  0  0  0  0
 19 20  1  0  0  0  0
 20 21  1  0  0  0  0
 20 22  1  0  0  0  0
 20 23  1  0  0  0  0
 23 24  4  0  0  0  0
 23 28  4  0  0  0  0
 24 25  4  0  0  0  0
 24 30  1  0  0  0  0
 25 26  4  0  0  0  0
 25 31  1  0  0  0  0
 26 27  4  0  0  0  0
 26 29  1  0  0  0  0
 27 28  4  0  0  0  0
 27 32  1  0  0  0  0
 28 33  1  0  0  0  0
 29 34  1  0  0  0  0
 29 35  1  0  0  0  0
M  END
> <BCLConfClusterSize>
1

> <ConfClashScore>
0 

> <ConfOneFourInteractionScore>
-0.981931 

> <ConfScore>
0.589161 

> <ConfScorePBest>
0.00253641 

> <ConfTolerance>
1.04822 

> <RosettaParamsInstructions>
M  ROOT 3
M  POLY_N_BB 3
M  POLY_CA_BB 4
M  POLY_C_BB 2
M  POLY_O_BB 5
M  POLY_IGNORE 9 10 11 12 13 14 15 16 17 18 
M  POLY_UPPER 6
M  POLY_LOWER 8
M  POLY_CHG 0
M  POLY_PROPERTIES ALPHA_AA D_AA PROTEIN AROMATIC POLYMER 
M  END

$$$$



 35 35  0  0  0  0  0  0  0  0999 V2000
   -3.0971    3.8908   -0.9279 H   0  0  0  1  0  0  0  0  0  0  0  0
   -3.7863    2.3695   -2.1614 C   0  0  0  1  0  0  0  0  0  0  0  0
   -2.4047    4.3192   -2.8063 N   0  0  0  1  0  0  0  0  0  0  0  0
   -2.7019    3.3375   -1.7541 C   0  0  0  1  0  0  0  0  0  0  0  0
   -4.6973    2.7164   -2.8972 O   0  0  0  1  0  0  0  0  0  0  0  0
   -3.6406    1.1066   -1.7464 N   0  0  0  1  0  0  0  0  0  0  0  0
   -1.9447    5.1494   -2.5622 H   0  0  0  1  0  0  0  0  0  0  0  0
   -2.7427    4.1177   -4.0948 C   0  0  0  1  0  0  0  0  0  0  0  0
   -4.6266    0.0514   -1.9265 C   0  0  0  1  0  0  0  0  0  0  0  0
   -2.5926    5.3568   -4.9681 C   0  0  0  1  0  0  0  0  0  0  0  0
   -3.1345    3.0591   -4.5511 O   0  0  0  1  0  0  0  0  0  0  0  0
   -2.8072    0.8742   -1.2862 H   0  0  0  1  0  0  0  0  0  0  0  0
   -4.9570    0.0413   -2.9442 H   0  0  0  1  0  0  0  0  0  0  0  0
   -5.4619    0.2304   -1.2823 H   0  0  0  1  0  0  0  0  0  0  0  0
   -4.1857   -0.8933   -1.6855 H   0  0  0  1  0  0  0  0  0  0  0  0
   -3.0453    6.1946   -4.4802 H   0  0  0  1  0  0  0  0  0  0  0  0
   -3.0735    5.1900   -5.9093 H   0  0  0  1  0  0  0  0  0  0  0  0
   -1.5536    5.5563   -5.1282 H   0  0  0  1  0  0  0  0  0  0  0  0
    3.1883    0.6414   -5.2721 F   0  0  0  1  0  0  0  0  0  0  0  0
    1.9263    0.2085   -5.2623 C   0  0  0  1  0  0  0  0  0  0  0  0
    1.4745    0.3158   -6.5127 F   0  0  0  1  0  0  0  0  0  0  0  0
    2.0061   -1.1051   -5.0316 F   0  0  0  1  0  0  0  0  0  0  0  0
    1.0557    0.9193   -4.2474 C   0  0  0  1  0  0  0  0  0  0  0  0
    1.6120    1.3505   -3.0531 C   0  0  0  1  0  0  0  0  0  0  0  0
    0.8086    1.9162   -2.0811 C   0  0  0  1  0  0  0  0  0  0  0  0
   -0.5525    2.0573   -2.3025 C   0  0  0  1  0  0  0  0  0  0  0  0
   -1.1070    1.6273   -3.4932 C   0  0  0  1  0  0  0  0  0  0  0  0
   -0.3014    1.0599   -4.4682 C   0  0  0  1  0  0  0  0  0  0  0  0
   -1.4301    2.6808   -1.2430 C   0  0  0  1  0  0  0  0  0  0  0  0
    2.6338    1.2484   -2.8886 H   0  0  0  1  0  0  0  0  0  0  0  0
    1.2253    2.2361   -1.1836 H   0  0  0  1  0  0  0  0  0  0  0  0
   -2.1288    1.7295   -3.6578 H   0  0  0  1  0  0  0  0  0  0  0  0
   -0.7181    0.7401   -5.3658 H   0  0  0  1  0  0  0  0  0  0  0  0
   -1.7097    1.9130   -0.5522 H   0  0  0  1  0  0  0  0  0  0  0  0
   -0.8549    3.4263   -0.7348 H   0  0  0  1  0  0  0  0  0  0  0  0
  1  4  1  0  0  0  0
  2  4  1  0  0  0  0
  2  5  2  0  0  0  0
  2  6  1  0  0  0  0
  3  4  1  0  0  0  0
  3  7  1  0  0  0  0
  3  8  1  0  0  0  0
  4 29  1  0  0  0  0
  6  9  1  0  0  0  0
  6 12  1  0  0  0  0
  8 10  1  0  0  0  0
  8 11  2  0  0  0  0
  9 13  1  0  0  0  0
  9 14  1  0  0  0  0
  9 15  1  0  0  0  0
 10 16  1  0  0  0  0
 10 17  1  0  0  0  0
 10 18  1  0  0  0  0
 19 20  1  0  0  0  0
 20 21  1  0  0  0  0
 20 22  1  0  0  0  0
 20 23  1  0  0  0  0
 23 24  4  0  0  0  0
 23 28  4  0  0  0  0
 24 25  4  0  0  0  0
 24 30  1  0  0  0  0
 25 26  4  0  0  0  0
 25 31  1  0  0  0  0
 26 27  4  0  0  0  0
 26 29  1  0  0  0  0
 27 28  4  0  0  0  0
 27 32  1  0  0  0  0
 28 33  1  0  0  0  0
 29 34  1  0  0  0  0
 29 35  1  0  0  0  0
M  END
> <BCLConfClusterSize>
1

> <ConfClashScore>
0.00367568 

> <ConfOneFourInteractionScore>
-0.910466 

> <ConfScore>
0.589297 

> <ConfScorePBest>
0.00250793 

> <ConfTolerance>
0.627858 

> <RosettaParamsInstructions>
M  ROOT 3
M  POLY_N_BB 3
M  POLY_CA_BB 4
M  POLY_C_BB 2
M  POLY_O_BB 5
M  POLY_IGNORE 9 10 11 12 13 14 15 16 17 18 
M  POLY_UPPER 6
M  POLY_LOWER 8
M  POLY_CHG 0
M  POLY_PROPERTIES ALPHA_AA D_AA PROTEIN AROMATIC POLYMER 
M  END

$$$$



 35 35  0  0  0  0  0  0  0  0999 V2000
   -2.2453    0.8544   -0.8715 H   0  0  0  1  0  0  0  0  0  0  0  0
   -3.8494    1.9083   -1.6998 C   0  0  0  1  0  0  0  0  0  0  0  0
   -2.9631    2.1088    0.5869 N   0  0  0  1  0  0  0  0  0  0  0  0
   -2.6023    1.8618   -0.8215 C   0  0  0  1  0  0  0  0  0  0  0  0
   -3.7926    2.4170   -2.8183 O   0  0  0  1  0  0  0  0  0  0  0  0
   -4.9433    1.3026   -1.2257 N   0  0  0  1  0  0  0  0  0  0  0  0
   -2.5989    1.5183    1.2790 H   0  0  0  1  0  0  0  0  0  0  0  0
   -3.7692    3.1097    0.9522 C   0  0  0  1  0  0  0  0  0  0  0  0
   -6.2450    1.3046   -1.8765 C   0  0  0  1  0  0  0  0  0  0  0  0
   -4.1973    3.1928    2.4132 C   0  0  0  1  0  0  0  0  0  0  0  0
   -4.1880    3.9705    0.1794 O   0  0  0  1  0  0  0  0  0  0  0  0
   -4.8623    0.8210   -0.3760 H   0  0  0  1  0  0  0  0  0  0  0  0
   -6.6686    2.2858   -1.8247 H   0  0  0  1  0  0  0  0  0  0  0  0
   -6.8918    0.6105   -1.3818 H   0  0  0  1  0  0  0  0  0  0  0  0
   -6.1315    1.0190   -2.9014 H   0  0  0  1  0  0  0  0  0  0  0  0
   -4.4338    2.2130    2.7723 H   0  0  0  1  0  0  0  0  0  0  0  0
   -5.0595    3.8208    2.4968 H   0  0  0  1  0  0  0  0  0  0  0  0
   -3.3989    3.6028    2.9957 H   0  0  0  1  0  0  0  0  0  0  0  0
    2.4091    1.0436   -6.1888 F   0  0  0  1  0  0  0  0  0  0  0  0
    1.9137    0.2064   -5.2757 C   0  0  0  1  0  0  0  0  0  0  0  0
    1.2183   -0.7111   -5.9495 F   0  0  0  1  0  0  0  0  0  0  0  0
    2.9593   -0.4309   -4.7472 F   0  0  0  1  0  0  0  0  0  0  0  0
    1.0771    0.9168   -4.2297 C   0  0  0  1  0  0  0  0  0  0  0  0
    1.6186    1.3221   -3.0197 C   0  0  0  1  0  0  0  0  0  0  0  0
    0.8054    1.8799   -2.0512 C   0  0  0  1  0  0  0  0  0  0  0  0
   -0.5504    2.0390   -2.2918 C   0  0  0  1  0  0  0  0  0  0  0  0
   -1.0900    1.6349   -3.4983 C   0  0  0  1  0  0  0  0  0  0  0  0
   -0.2747    1.0754   -4.4697 C   0  0  0  1  0  0  0  0  0  0  0  0
   -1.4529    2.7378   -1.3025 C   0  0  0  1  0  0  0  0  0  0  0  0
    2.6365    1.2064   -2.8406 H   0  0  0  1  0  0  0  0  0  0  0  0
    1.2109    2.1803   -1.1418 H   0  0  0  1  0  0  0  0  0  0  0  0
   -2.1080    1.7505   -3.6773 H   0  0  0  1  0  0  0  0  0  0  0  0
   -0.6802    0.7750   -5.3791 H   0  0  0  1  0  0  0  0  0  0  0  0
   -0.8684    3.0285   -0.4547 H   0  0  0  1  0  0  0  0  0  0  0  0
   -1.8613    3.6090   -1.7705 H   0  0  0  1  0  0  0  0  0  0  0  0
  1  4  1  0  0  0  0
  2  4  1  0  0  0  0
  2  5  2  0  0  0  0
  2  6  1  0  0  0  0
  3  4  1  0  0  0  0
  3  7  1  0  0  0  0
  3  8  1  0  0  0  0
  4 29  1  0  0  0  0
  6  9  1  0  0  0  0
  6 12  1  0  0  0  0
  8 10  1  0  0  0  0
  8 11  2  0  0  0  0
  9 13  1  0  0  0  0
  9 14  1  0  0  0  0
  9 15  1  0  0  0  0
 10 16  1  0  0  0  0
 10 17  1  0  0  0  0
 10 18  1  0  0  0  0
 19 20  1  0  0  0  0
 20 21  1  0  0  0  0
 20 22  1  0  0  0  0
 20 23  1  0  0  0  0
 23 24  4  0  0  0  0
 23 28  4  0  0  0  0
 24 25  4  0  0  0  0
 24 30  1  0  0  0  0
 25 26  4  0  0  0  0
 25 31  1  0  0  0  0
 26 27  4  0  0  0  0
 26 29  1  0  0  0  0
 27 28  4  0  0  0  0
 27 32  1  0  0  0  0
 28 33  1  0  0  0  0
 29 34  1  0  0  0  0
 29 35  1  0  0  0  0
M  END
> <BCLConfClusterSize>
1

> <ConfClashScore>
0 

> <ConfOneFourInteractionScore>
-0.968859 

> <ConfScore>
0.608549 

> <ConfScorePBest>
0.00247945 

> <ConfTolerance>
1.19243 

> <RosettaParamsInstructions>
M  ROOT 3
M  POLY_N_BB 3
M  POLY_CA_BB 4
M  POLY_C_BB 2
M  POLY_O_BB 5
M  POLY_IGNORE 9 10 11 12 13 14 15 16 17 18 
M  POLY_UPPER 6
M  POLY_LOWER 8
M  POLY_CHG 0
M  POLY_PROPERTIES ALPHA_AA D_AA PROTEIN AROMATIC POLYMER 
M  END

$$$$



 35 35  0  0  0  0  0  0  0  0999 V2000
   -2.2017    2.1709    0.5834 H   0  0  0  1  0  0  0  0  0  0  0  0
   -1.4950    0.3759   -0.1867 C   0  0  0  1  0  0  0  0  0  0  0  0
   -3.6234    1.5698   -0.7598 N   0  0  0  1  0  0  0  0  0  0  0  0
   -2.1959    1.7162   -0.3852 C   0  0  0  1  0  0  0  0  0  0  0  0
   -0.2978    0.3204    0.0923 O   0  0  0  1  0  0  0  0  0  0  0  0
   -2.2710   -0.7151   -0.2452 N   0  0  0  1  0  0  0  0  0  0  0  0
   -4.2937    1.7373   -0.0648 H   0  0  0  1  0  0  0  0  0  0  0  0
   -4.0662    1.2252   -1.9786 C   0  0  0  1  0  0  0  0  0  0  0  0
   -1.8314   -2.0677    0.0633 C   0  0  0  1  0  0  0  0  0  0  0  0
   -5.5780    1.2811   -2.1746 C   0  0  0  1  0  0  0  0  0  0  0  0
   -3.3167    0.8836   -2.8913 O   0  0  0  1  0  0  0  0  0  0  0  0
   -3.2048   -0.5929   -0.5162 H   0  0  0  1  0  0  0  0  0  0  0  0
   -1.9697   -2.6925   -0.7943 H   0  0  0  1  0  0  0  0  0  0  0  0
   -2.4059   -2.4516    0.8803 H   0  0  0  1  0  0  0  0  0  0  0  0
   -0.7955   -2.0535    0.3306 H   0  0  0  1  0  0  0  0  0  0  0  0
   -5.8684    0.5683   -2.9179 H   0  0  0  1  0  0  0  0  0  0  0  0
   -5.8601    2.2629   -2.4929 H   0  0  0  1  0  0  0  0  0  0  0  0
   -6.0660    1.0513   -1.2505 H   0  0  0  1  0  0  0  0  0  0  0  0
    2.7633   -0.6662   -4.7102 F   0  0  0  1  0  0  0  0  0  0  0  0
    1.9126    0.1948   -5.2715 C   0  0  0  1  0  0  0  0  0  0  0  0
    2.6526    1.0521   -5.9763 F   0  0  0  1  0  0  0  0  0  0  0  0
    1.1706   -0.4941   -6.1396 F   0  0  0  1  0  0  0  0  0  0  0  0
    1.0831    0.9112   -4.2266 C   0  0  0  1  0  0  0  0  0  0  0  0
    1.5618    1.1295   -2.9441 C   0  0  0  1  0  0  0  0  0  0  0  0
    0.7423    1.7002   -1.9885 C   0  0  0  1  0  0  0  0  0  0  0  0
   -0.5564    2.0592   -2.3140 C   0  0  0  1  0  0  0  0  0  0  0  0
   -1.0335    1.8415   -3.5927 C   0  0  0  1  0  0  0  0  0  0  0  0
   -0.2118    1.2691   -4.5512 C   0  0  0  1  0  0  0  0  0  0  0  0
   -1.4505    2.6883   -1.2718 C   0  0  0  1  0  0  0  0  0  0  0  0
    2.5375    0.8639   -2.7009 H   0  0  0  1  0  0  0  0  0  0  0  0
    1.1001    1.8603   -1.0252 H   0  0  0  1  0  0  0  0  0  0  0  0
   -2.0092    2.1072   -3.8358 H   0  0  0  1  0  0  0  0  0  0  0  0
   -0.5697    1.1091   -5.5145 H   0  0  0  1  0  0  0  0  0  0  0  0
   -0.8426    3.3070   -0.6453 H   0  0  0  1  0  0  0  0  0  0  0  0
   -2.1730    3.2935   -1.7785 H   0  0  0  1  0  0  0  0  0  0  0  0
  1  4  1  0  0  0  0
  2  4  1  0  0  0  0
  2  5  2  0  0  0  0
  2  6  1  0  0  0  0
  3  4  1  0  0  0  0
  3  7  1  0  0  0  0
  3  8  1  0  0  0  0
  4 29  1  0  0  0  0
  6  9  1  0  0  0  0
  6 12  1  0  0  0  0
  8 10  1  0  0  0  0
  8 11  2  0  0  0  0
  9 13  1  0  0  0  0
  9 14  1  0  0  0  0
  9 15  1  0  0  0  0
 10 16  1  0  0  0  0
 10 17  1  0  0  0  0
 10 18  1  0  0  0  0
 19 20  1  0  0  0  0
 20 21  1  0  0  0  0
 20 22  1  0  0  0  0
 20 23  1  0  0  0  0
 23 24  4  0  0  0  0
 23 28  4  0  0  0  0
 24 25  4  0  0  0  0
 24 30  1  0  0  0  0
 25 26  4  0  0  0  0
 25 31  1  0  0  0  0
 26 27  4  0  0  0  0
 26 29  1  0  0  0  0
 27 28  4  0  0  0  0
 27 32  1  0  0  0  0
 28 33  1  0  0  0  0
 29 34  1  0  0  0  0
 29 35  1  0  0  0  0
M  END
> <BCLConfClusterSize>
1

> <ConfClashScore>
0 

> <ConfOneFourInteractionScore>
-0.939357 

> <ConfScore>
0.624234 

> <ConfScorePBest>
0.00245097 

> <ConfTolerance>
0.623358 

> <RosettaParamsInstructions>
M  ROOT 3
M  POLY_N_BB 3
M  POLY_CA_BB 4
M  POLY_C_BB 2
M  POLY_O_BB 5
M  POLY_IGNORE 9 10 11 12 13 14 15 16 17 18 
M  POLY_UPPER 6
M  POLY_LOWER 8
M  POLY_CHG 0
M  POLY_PROPERTIES ALPHA_AA D_AA PROTEIN AROMATIC POLYMER 
M  END

$$$$



 35 35  0  0  0  0  0  0  0  0999 V2000
   -3.1637    2.2309   -0.1395 H   0  0  0  1  0  0  0  0  0  0  0  0
   -1.5483    1.3088    0.8424 C   0  0  0  1  0  0  0  0  0  0  0  0
   -2.6799    0.5775   -1.2661 N   0  0  0  1  0  0  0  0  0  0  0  0
   -2.2729    1.7203   -0.4405 C   0  0  0  1  0  0  0  0  0  0  0  0
   -2.0909    0.5949    1.6716 O   0  0  0  1  0  0  0  0  0  0  0  0
   -0.2714    1.6995    0.9554 N   0  0  0  1  0  0  0  0  0  0  0  0
   -3.4076    0.6959   -1.9118 H   0  0  0  1  0  0  0  0  0  0  0  0
   -2.0930   -0.6187   -1.1682 C   0  0  0  1  0  0  0  0  0  0  0  0
    0.6359    1.2856    2.0153 C   0  0  0  1  0  0  0  0  0  0  0  0
   -2.6220   -1.7484   -2.0302 C   0  0  0  1  0  0  0  0  0  0  0  0
   -1.1474   -0.8598   -0.4195 O   0  0  0  1  0  0  0  0  0  0  0  0
    0.0777    2.3100    0.2729 H   0  0  0  1  0  0  0  0  0  0  0  0
    0.5440    1.9544    2.8456 H   0  0  0  1  0  0  0  0  0  0  0  0
    1.6419    1.3055    1.6514 H   0  0  0  1  0  0  0  0  0  0  0  0
    0.3889    0.2927    2.3284 H   0  0  0  1  0  0  0  0  0  0  0  0
   -3.4968   -2.1648   -1.5760 H   0  0  0  1  0  0  0  0  0  0  0  0
   -1.8730   -2.5069   -2.1227 H   0  0  0  1  0  0  0  0  0  0  0  0
   -2.8695   -1.3707   -3.0003 H   0  0  0  1  0  0  0  0  0  0  0  0
    2.6738   -0.7684   -4.7496 F   0  0  0  1  0  0  0  0  0  0  0  0
    1.9138    0.1970   -5.2696 C   0  0  0  1  0  0  0  0  0  0  0  0
    2.7440    1.0185   -5.9140 F   0  0  0  1  0  0  0  0  0  0  0  0
    1.1614   -0.3834   -6.2054 F   0  0  0  1  0  0  0  0  0  0  0  0
    1.0861    0.9132   -4.2205 C   0  0  0  1  0  0  0  0  0  0  0  0
    1.5589    1.1094   -2.9323 C   0  0  0  1  0  0  0  0  0  0  0  0
    0.7407    1.6799   -1.9755 C   0  0  0  1  0  0  0  0  0  0  0  0
   -0.5506    2.0608   -2.3053 C   0  0  0  1  0  0  0  0  0  0  0  0
   -1.0218    1.8651   -3.5898 C   0  0  0  1  0  0  0  0  0  0  0  0
   -0.2015    1.2929   -4.5495 C   0  0  0  1  0  0  0  0  0  0  0  0
   -1.4881    2.6939   -1.3044 C   0  0  0  1  0  0  0  0  0  0  0  0
    2.5291    0.8273   -2.6857 H   0  0  0  1  0  0  0  0  0  0  0  0
    1.0940    1.8234   -1.0079 H   0  0  0  1  0  0  0  0  0  0  0  0
   -1.9920    2.1471   -3.8362 H   0  0  0  1  0  0  0  0  0  0  0  0
   -0.5548    1.1494   -5.5171 H   0  0  0  1  0  0  0  0  0  0  0  0
   -0.9074    3.3163   -0.6561 H   0  0  0  1  0  0  0  0  0  0  0  0
   -2.1893    3.2958   -1.8438 H   0  0  0  1  0  0  0  0  0  0  0  0
  1  4  1  0  0  0  0
  2  4  1  0  0  0  0
  2  5  2  0  0  0  0
  2  6  1  0  0  0  0
  3  4  1  0  0  0  0
  3  7  1  0  0  0  0
  3  8  1  0  0  0  0
  4 29  1  0  0  0  0
  6  9  1  0  0  0  0
  6 12  1  0  0  0  0
  8 10  1  0  0  0  0
  8 11  2  0  0  0  0
  9 13  1  0  0  0  0
  9 14  1  0  0  0  0
  9 15  1  0  0  0  0
 10 16  1  0  0  0  0
 10 17  1  0  0  0  0
 10 18  1  0  0  0  0
 19 20  1  0  0  0  0
 20 21  1  0  0  0  0
 20 22  1  0  0  0  0
 20 23  1  0  0  0  0
 23 24  4  0  0  0  0
 23 28  4  0  0  0  0
 24 25  4  0  0  0  0
 24 30  1  0  0  0  0
 25 26  4  0  0  0  0
 25 31  1  0  0  0  0
 26 27  4  0  0  0  0
 26 29  1  0  0  0  0
 27 28  4  0  0  0  0
 27 32  1  0  0  0  0
 28 33  1  0  0  0  0
 29 34  1  0  0  0  0
 29 35  1  0  0  0  0
M  END
> <BCLConfClusterSize>
1

> <ConfClashScore>
0.00161978 

> <ConfOneFourInteractionScore>
-0.908174 

> <ConfScore>
0.629069 

> <ConfScorePBest>
0.00242249 

> <ConfTolerance>
0.504499 

> <RosettaParamsInstructions>
M  ROOT 3
M  POLY_N_BB 3
M  POLY_CA_BB 4
M  POLY_C_BB 2
M  POLY_O_BB 5
M  POLY_IGNORE 9 10 11 12 13 14 15 16 17 18 
M  POLY_UPPER 6
M  POLY_LOWER 8
M  POLY_CHG 0
M  POLY_PROPERTIES ALPHA_AA D_AA PROTEIN AROMATIC POLYMER 
M  END

$$$$



 35 35  0  0  0  0  0  0  0  0999 V2000
   -1.7004    1.8102    0.6065 H   0  0  0  1  0  0  0  0  0  0  0  0
   -2.0039    0.2843   -0.8099 C   0  0  0  1  0  0  0  0  0  0  0  0
   -3.5765    2.0889   -0.1979 N   0  0  0  1  0  0  0  0  0  0  0  0
   -2.1727    1.7229   -0.3496 C   0  0  0  1  0  0  0  0  0  0  0  0
   -2.6428   -0.1440   -1.7586 O   0  0  0  1  0  0  0  0  0  0  0  0
   -1.0613   -0.4046   -0.1577 N   0  0  0  1  0  0  0  0  0  0  0  0
   -3.8519    3.0052   -0.4098 H   0  0  0  1  0  0  0  0  0  0  0  0
   -4.5291    1.1907    0.2331 C   0  0  0  1  0  0  0  0  0  0  0  0
   -0.6144   -1.7181   -0.5971 C   0  0  0  1  0  0  0  0  0  0  0  0
   -5.9318    1.7165    0.3269 C   0  0  0  1  0  0  0  0  0  0  0  0
   -4.2106    0.0499    0.5107 O   0  0  0  1  0  0  0  0  0  0  0  0
   -0.6575   -0.0113    0.6439 H   0  0  0  1  0  0  0  0  0  0  0  0
   -1.4370   -2.2496   -1.0279 H   0  0  0  1  0  0  0  0  0  0  0  0
   -0.2366   -2.2649    0.2415 H   0  0  0  1  0  0  0  0  0  0  0  0
    0.1591   -1.6054   -1.3277 H   0  0  0  1  0  0  0  0  0  0  0  0
   -5.9598    2.5395    1.0101 H   0  0  0  1  0  0  0  0  0  0  0  0
   -6.5805    0.9408    0.6765 H   0  0  0  1  0  0  0  0  0  0  0  0
   -6.2549    2.0441   -0.6391 H   0  0  0  1  0  0  0  0  0  0  0  0
    1.4149    0.2643   -6.4911 F   0  0  0  1  0  0  0  0  0  0  0  0
    1.9233    0.1959   -5.2595 C   0  0  0  1  0  0  0  0  0  0  0  0
    2.0647   -1.1020   -4.9861 F   0  0  0  1  0  0  0  0  0  0  0  0
    3.1565    0.6981   -5.3362 F   0  0  0  1  0  0  0  0  0  0  0  0
    1.0670    0.9142   -4.2377 C   0  0  0  1  0  0  0  0  0  0  0  0
    1.5547    1.1108   -2.9551 C   0  0  0  1  0  0  0  0  0  0  0  0
    0.7475    1.6810   -1.9889 C   0  0  0  1  0  0  0  0  0  0  0  0
   -0.5478    2.0612   -2.3037 C   0  0  0  1  0  0  0  0  0  0  0  0
   -1.0339    1.8651   -3.5825 C   0  0  0  1  0  0  0  0  0  0  0  0
   -0.2245    1.2932   -4.5517 C   0  0  0  1  0  0  0  0  0  0  0  0
   -1.4737    2.6940   -1.2920 C   0  0  0  1  0  0  0  0  0  0  0  0
    2.5279    0.8292   -2.7199 H   0  0  0  1  0  0  0  0  0  0  0  0
    1.1120    1.8249   -1.0255 H   0  0  0  1  0  0  0  0  0  0  0  0
   -2.0070    2.1467   -3.8177 H   0  0  0  1  0  0  0  0  0  0  0  0
   -0.5890    1.1494   -5.5151 H   0  0  0  1  0  0  0  0  0  0  0  0
   -0.8990    3.3739   -0.6984 H   0  0  0  1  0  0  0  0  0  0  0  0
   -2.2265    3.2349   -1.8265 H   0  0  0  1  0  0  0  0  0  0  0  0
  1  4  1  0  0  0  0
  2  4  1  0  0  0  0
  2  5  2  0  0  0  0
  2  6  1  0  0  0  0
  3  4  1  0  0  0  0
  3  7  1  0  0  0  0
  3  8  1  0  0  0  0
  4 29  1  0  0  0  0
  6  9  1  0  0  0  0
  6 12  1  0  0  0  0
  8 10  1  0  0  0  0
  8 11  2  0  0  0  0
  9 13  1  0  0  0  0
  9 14  1  0  0  0  0
  9 15  1  0  0  0  0
 10 16  1  0  0  0  0
 10 17  1  0  0  0  0
 10 18  1  0  0  0  0
 19 20  1  0  0  0  0
 20 21  1  0  0  0  0
 20 22  1  0  0  0  0
 20 23  1  0  0  0  0
 23 24  4  0  0  0  0
 23 28  4  0  0  0  0
 24 25  4  0  0  0  0
 24 30  1  0  0  0  0
 25 26  4  0  0  0  0
 25 31  1  0  0  0  0
 26 27  4  0  0  0  0
 26 29  1  0  0  0  0
 27 28  4  0  0  0  0
 27 32  1  0  0  0  0
 28 33  1  0  0  0  0
 29 34  1  0  0  0  0
 29 35  1  0  0  0  0
M  END
> <BCLConfClusterSize>
1

> <ConfClashScore>
0 

> <ConfOneFourInteractionScore>
-0.960785 

> <ConfScore>
0.633207 

> <ConfScorePBest>
0.00239401 

> <ConfTolerance>
1.06371 

> <RosettaParamsInstructions>
M  ROOT 3
M  POLY_N_BB 3
M  POLY_CA_BB 4
M  POLY_C_BB 2
M  POLY_O_BB 5
M  POLY_IGNORE 9 10 11 12 13 14 15 16 17 18 
M  POLY_UPPER 6
M  POLY_LOWER 8
M  POLY_CHG 0
M  POLY_PROPERTIES ALPHA_AA D_AA PROTEIN AROMATIC POLYMER 
M  END

$$$$



 35 35  0  0  0  0  0  0  0  0999 V2000
    0.0292    3.1916    0.0937 H   0  0  0  1  0  0  0  0  0  0  0  0
   -1.7638    4.0322    0.8205 C   0  0  0  1  0  0  0  0  0  0  0  0
   -0.4150    4.7978   -1.1259 N   0  0  0  1  0  0  0  0  0  0  0  0
   -0.8378    3.6603   -0.3227 C   0  0  0  1  0  0  0  0  0  0  0  0
   -2.7906    3.3915    1.0400 O   0  0  0  1  0  0  0  0  0  0  0  0
   -1.3548    5.0265    1.6158 N   0  0  0  1  0  0  0  0  0  0  0  0
    0.5463    4.9126   -1.2782 H   0  0  0  1  0  0  0  0  0  0  0  0
   -1.2385    5.6975   -1.6713 C   0  0  0  1  0  0  0  0  0  0  0  0
   -2.1451    5.4942    2.7447 C   0  0  0  1  0  0  0  0  0  0  0  0
   -0.5693    6.8513   -2.3924 C   0  0  0  1  0  0  0  0  0  0  0  0
   -2.4537    5.6126   -1.6037 O   0  0  0  1  0  0  0  0  0  0  0  0
   -0.4929    5.4552    1.4318 H   0  0  0  1  0  0  0  0  0  0  0  0
   -3.1848    5.3503    2.5369 H   0  0  0  1  0  0  0  0  0  0  0  0
   -1.9546    6.5347    2.9064 H   0  0  0  1  0  0  0  0  0  0  0  0
   -1.8769    4.9416    3.6208 H   0  0  0  1  0  0  0  0  0  0  0  0
   -0.8966    7.7767   -1.9665 H   0  0  0  1  0  0  0  0  0  0  0  0
   -0.8314    6.8237   -3.4294 H   0  0  0  1  0  0  0  0  0  0  0  0
    0.4926    6.7678   -2.2900 H   0  0  0  1  0  0  0  0  0  0  0  0
    3.2113    0.4900   -5.1761 F   0  0  0  1  0  0  0  0  0  0  0  0
    1.9125    0.2008   -5.2732 C   0  0  0  1  0  0  0  0  0  0  0  0
    1.5532    0.5130   -6.5193 F   0  0  0  1  0  0  0  0  0  0  0  0
    1.8172   -1.1260   -5.1781 F   0  0  0  1  0  0  0  0  0  0  0  0
    1.0780    0.9192   -4.2308 C   0  0  0  1  0  0  0  0  0  0  0  0
    1.6232    1.3381   -3.0271 C   0  0  0  1  0  0  0  0  0  0  0  0
    0.8124    1.9032   -2.0609 C   0  0  0  1  0  0  0  0  0  0  0  0
   -0.5449    2.0559   -2.2976 C   0  0  0  1  0  0  0  0  0  0  0  0
   -1.0882    1.6382   -3.4977 C   0  0  0  1  0  0  0  0  0  0  0  0
   -0.2752    1.0714   -4.4669 C   0  0  0  1  0  0  0  0  0  0  0  0
   -1.4789    2.6713   -1.2825 C   0  0  0  1  0  0  0  0  0  0  0  0
    2.6422    1.2272   -2.8511 H   0  0  0  1  0  0  0  0  0  0  0  0
    1.2206    2.2138   -1.1563 H   0  0  0  1  0  0  0  0  0  0  0  0
   -2.1072    1.7491   -3.6737 H   0  0  0  1  0  0  0  0  0  0  0  0
   -0.6835    0.7608   -5.3716 H   0  0  0  1  0  0  0  0  0  0  0  0
   -2.2539    3.1826   -1.8144 H   0  0  0  1  0  0  0  0  0  0  0  0
   -1.9057    1.8790   -0.7037 H   0  0  0  1  0  0  0  0  0  0  0  0
  1  4  1  0  0  0  0
  2  4  1  0  0  0  0
  2  5  2  0  0  0  0
  2  6  1  0  0  0  0
  3  4  1  0  0  0  0
  3  7  1  0  0  0  0
  3  8  1  0  0  0  0
  4 29  1  0  0  0  0
  6  9  1  0  0  0  0
  6 12  1  0  0  0  0
  8 10  1  0  0  0  0
  8 11  2  0  0  0  0
  9 13  1  0  0  0  0
  9 14  1  0  0  0  0
  9 15  1  0  0  0  0
 10 16  1  0  0  0  0
 10 17  1  0  0  0  0
 10 18  1  0  0  0  0
 19 20  1  0  0  0  0
 20 21  1  0  0  0  0
 20 22  1  0  0  0  0
 20 23  1  0  0  0  0
 23 24  4  0  0  0  0
 23 28  4  0  0  0  0
 24 25  4  0  0  0  0
 24 30  1  0  0  0  0
 25 26  4  0  0  0  0
 25 31  1  0  0  0  0
 26 27  4  0  0  0  0
 26 29  1  0  0  0  0
 27 28  4  0  0  0  0
 27 32  1  0  0  0  0
 28 33  1  0  0  0  0
 29 34  1  0  0  0  0
 29 35  1  0  0  0  0
M  END
> <BCLConfClusterSize>
1

> <ConfClashScore>
0 

> <ConfOneFourInteractionScore>
-0.965222 

> <ConfScore>
0.638978 

> <ConfScorePBest>
0.00236553 

> <ConfTolerance>
1.15879 

> <RosettaParamsInstructions>
M  ROOT 3
M  POLY_N_BB 3
M  POLY_CA_BB 4
M  POLY_C_BB 2
M  POLY_O_BB 5
M  POLY_IGNORE 9 10 11 12 13 14 15 16 17 18 
M  POLY_UPPER 6
M  POLY_LOWER 8
M  POLY_CHG 0
M  POLY_PROPERTIES ALPHA_AA D_AA PROTEIN AROMATIC POLYMER 
M  END

$$$$



 35 35  0  0  0  0  0  0  0  0999 V2000
   -0.1591    4.2873   -0.7950 H   0  0  0  1  0  0  0  0  0  0  0  0
   -2.0203    4.7941    0.0295 C   0  0  0  1  0  0  0  0  0  0  0  0
   -1.3483    4.9711   -2.3279 N   0  0  0  1  0  0  0  0  0  0  0  0
   -1.1826    4.1970   -1.0935 C   0  0  0  1  0  0  0  0  0  0  0  0
   -1.7067    4.5978    1.1921 O   0  0  0  1  0  0  0  0  0  0  0  0
   -3.0317    5.5911   -0.3313 N   0  0  0  1  0  0  0  0  0  0  0  0
   -2.2543    5.1877   -2.6324 H   0  0  0  1  0  0  0  0  0  0  0  0
   -0.3070    5.3913   -3.0520 C   0  0  0  1  0  0  0  0  0  0  0  0
   -3.9197    6.2093    0.6419 C   0  0  0  1  0  0  0  0  0  0  0  0
    1.0461    4.8471   -2.6374 C   0  0  0  1  0  0  0  0  0  0  0  0
   -0.4186    6.1633   -3.9901 O   0  0  0  1  0  0  0  0  0  0  0  0
   -3.1800    5.7650   -1.2843 H   0  0  0  1  0  0  0  0  0  0  0  0
   -4.8418    6.4727    0.1673 H   0  0  0  1  0  0  0  0  0  0  0  0
   -3.4578    7.0899    1.0369 H   0  0  0  1  0  0  0  0  0  0  0  0
   -4.1124    5.5197    1.4370 H   0  0  0  1  0  0  0  0  0  0  0  0
    0.9119    3.9467   -2.0750 H   0  0  0  1  0  0  0  0  0  0  0  0
    1.5523    5.5718   -2.0345 H   0  0  0  1  0  0  0  0  0  0  0  0
    1.6291    4.6386   -3.5101 H   0  0  0  1  0  0  0  0  0  0  0  0
    1.1403   -0.4076   -6.1743 F   0  0  0  1  0  0  0  0  0  0  0  0
    1.9174    0.1874   -5.2677 C   0  0  0  1  0  0  0  0  0  0  0  0
    2.6960   -0.7426   -4.7337 F   0  0  0  1  0  0  0  0  0  0  0  0
    2.7050    1.0353   -5.9195 F   0  0  0  1  0  0  0  0  0  0  0  0
    1.0906    0.9052   -4.2190 C   0  0  0  1  0  0  0  0  0  0  0  0
    1.5103    0.9964   -2.9010 C   0  0  0  1  0  0  0  0  0  0  0  0
    0.6873    1.5734   -1.9523 C   0  0  0  1  0  0  0  0  0  0  0  0
   -0.5553    2.0657   -2.3196 C   0  0  0  1  0  0  0  0  0  0  0  0
   -0.9736    1.9747   -3.6337 C   0  0  0  1  0  0  0  0  0  0  0  0
   -0.1484    1.3960   -4.5854 C   0  0  0  1  0  0  0  0  0  0  0  0
   -1.4527    2.7016   -1.2843 C   0  0  0  1  0  0  0  0  0  0  0  0
    2.4442    0.6307   -2.6261 H   0  0  0  1  0  0  0  0  0  0  0  0
    1.0005    1.6382   -0.9626 H   0  0  0  1  0  0  0  0  0  0  0  0
   -1.9075    2.3404   -3.9086 H   0  0  0  1  0  0  0  0  0  0  0  0
   -0.4616    1.3312   -5.5750 H   0  0  0  1  0  0  0  0  0  0  0  0
   -2.4698    2.5757   -1.5917 H   0  0  0  1  0  0  0  0  0  0  0  0
   -1.2982    2.2056   -0.3489 H   0  0  0  1  0  0  0  0  0  0  0  0
  1  4  1  0  0  0  0
  2  4  1  0  0  0  0
  2  5  2  0  0  0  0
  2  6  1  0  0  0  0
  3  4  1  0  0  0  0
  3  7  1  0  0  0  0
  3  8  1  0  0  0  0
  4 29  1  0  0  0  0
  6  9  1  0  0  0  0
  6 12  1  0  0  0  0
  8 10  1  0  0  0  0
  8 11  2  0  0  0  0
  9 13  1  0  0  0  0
  9 14  1  0  0  0  0
  9 15  1  0  0  0  0
 10 16  1  0  0  0  0
 10 17  1  0  0  0  0
 10 18  1  0  0  0  0
 19 20  1  0  0  0  0
 20 21  1  0  0  0  0
 20 22  1  0  0  0  0
 20 23  1  0  0  0  0
 23 24  4  0  0  0  0
 23 28  4  0  0  0  0
 24 25  4  0  0  0  0
 24 30  1  0  0  0  0
 25 26  4  0  0  0  0
 25 31  1  0  0  0  0
 26 27  4  0  0  0  0
 26 29  1  0  0  0  0
 27 28  4  0  0  0  0
 27 32  1  0  0  0  0
 28 33  1  0  0  0  0
 29 34  1  0  0  0  0
 29 35  1  0  0  0  0
M  END
> <BCLConfClusterSize>
1

> <ConfClashScore>
0 

> <ConfOneFourInteractionScore>
-0.946346 

> <ConfScore>
0.662749 

> <ConfScorePBest>
0.00233705 

> <ConfTolerance>
1.1538 

> <RosettaParamsInstructions>
M  ROOT 3
M  POLY_N_BB 3
M  POLY_CA_BB 4
M  POLY_C_BB 2
M  POLY_O_BB 5
M  POLY_IGNORE 9 10 11 12 13 14 15 16 17 18 
M  POLY_UPPER 6
M  POLY_LOWER 8
M  POLY_CHG 0
M  POLY_PROPERTIES ALPHA_AA D_AA PROTEIN AROMATIC POLYMER 
M  END

$$$$



 35 35  0  0  0  0  0  0  0  0999 V2000
   -2.3924    2.3339    0.5707 H   0  0  0  1  0  0  0  0  0  0  0  0
   -0.3986    1.8956    0.9504 C   0  0  0  1  0  0  0  0  0  0  0  0
   -2.0391    0.5008   -0.2700 N   0  0  0  1  0  0  0  0  0  0  0  0
   -1.5947    1.8689    0.0299 C   0  0  0  1  0  0  0  0  0  0  0  0
   -0.2070    2.8396    1.7153 O   0  0  0  1  0  0  0  0  0  0  0  0
    0.3772    0.8063    0.9468 N   0  0  0  1  0  0  0  0  0  0  0  0
   -2.0759    0.2098   -1.2050 H   0  0  0  1  0  0  0  0  0  0  0  0
   -2.3959   -0.3630    0.6910 C   0  0  0  1  0  0  0  0  0  0  0  0
    1.5025    0.6502    1.8563 C   0  0  0  1  0  0  0  0  0  0  0  0
   -2.4321    0.1360    2.1177 C   0  0  0  1  0  0  0  0  0  0  0  0
   -2.6859   -1.5279    0.4225 O   0  0  0  1  0  0  0  0  0  0  0  0
    0.1810    0.0881    0.3095 H   0  0  0  1  0  0  0  0  0  0  0  0
    1.4005    1.3357    2.6716 H   0  0  0  1  0  0  0  0  0  0  0  0
    2.4140    0.8516    1.3333 H   0  0  0  1  0  0  0  0  0  0  0  0
    1.5204   -0.3512    2.2327 H   0  0  0  1  0  0  0  0  0  0  0  0
   -1.5396   -0.1664    2.6246 H   0  0  0  1  0  0  0  0  0  0  0  0
   -3.2832   -0.2764    2.6181 H   0  0  0  1  0  0  0  0  0  0  0  0
   -2.4990    1.2039    2.1202 H   0  0  0  1  0  0  0  0  0  0  0  0
    3.1530    0.7199   -5.3358 F   0  0  0  1  0  0  0  0  0  0  0  0
    1.9262    0.2009   -5.2604 C   0  0  0  1  0  0  0  0  0  0  0  0
    1.4224    0.2541   -6.4944 F   0  0  0  1  0  0  0  0  0  0  0  0
    2.0848   -1.0926   -4.9770 F   0  0  0  1  0  0  0  0  0  0  0  0
    1.0558    0.9143   -4.2471 C   0  0  0  1  0  0  0  0  0  0  0  0
    1.6136    1.3531   -3.0564 C   0  0  0  1  0  0  0  0  0  0  0  0
    0.8108    1.9214   -2.0854 C   0  0  0  1  0  0  0  0  0  0  0  0
   -0.5512    2.0574   -2.3044 C   0  0  0  1  0  0  0  0  0  0  0  0
   -1.1072    1.6198   -3.4916 C   0  0  0  1  0  0  0  0  0  0  0  0
   -0.3022    1.0498   -4.4656 C   0  0  0  1  0  0  0  0  0  0  0  0
   -1.4282    2.6837   -1.2460 C   0  0  0  1  0  0  0  0  0  0  0  0
    2.6361    1.2548   -2.8936 H   0  0  0  1  0  0  0  0  0  0  0  0
    1.2286    2.2471   -1.1904 H   0  0  0  1  0  0  0  0  0  0  0  0
   -2.1297    1.7182   -3.6543 H   0  0  0  1  0  0  0  0  0  0  0  0
   -0.7200    0.7242   -5.3605 H   0  0  0  1  0  0  0  0  0  0  0  0
   -1.0019    3.6287   -0.9809 H   0  0  0  1  0  0  0  0  0  0  0  0
   -2.3990    2.8360   -1.6695 H   0  0  0  1  0  0  0  0  0  0  0  0
  1  4  1  0  0  0  0
  2  4  1  0  0  0  0
  2  5  2  0  0  0  0
  2  6  1  0  0  0  0
  3  4  1  0  0  0  0
  3  7  1  0  0  0  0
  3  8  1  0  0  0  0
  4 29  1  0  0  0  0
  6  9  1  0  0  0  0
  6 12  1  0  0  0  0
  8 10  1  0  0  0  0
  8 11  2  0  0  0  0
  9 13  1  0  0  0  0
  9 14  1  0  0  0  0
  9 15  1  0  0  0  0
 10 16  1  0  0  0  0
 10 17  1  0  0  0  0
 10 18  1  0  0  0  0
 19 20  1  0  0  0  0
 20 21  1  0  0  0  0
 20 22  1  0  0  0  0
 20 23  1  0  0  0  0
 23 24  4  0  0  0  0
 23 28  4  0  0  0  0
 24 25  4  0  0  0  0
 24 30  1  0  0  0  0
 25 26  4  0  0  0  0
 25 31  1  0  0  0  0
 26 27  4  0  0  0  0
 26 29  1  0  0  0  0
 27 28  4  0  0  0  0
 27 32  1  0  0  0  0
 28 33  1  0  0  0  0
 29 34  1  0  0  0  0
 29 35  1  0  0  0  0
M  END
> <BCLConfClusterSize>
1

> <ConfClashScore>
0 

> <ConfOneFourInteractionScore>
-0.931937 

> <ConfScore>
0.669624 

> <ConfScorePBest>
0.00230857 

> <ConfTolerance>
1.02845 

> <RosettaParamsInstructions>
M  ROOT 3
M  POLY_N_BB 3
M  POLY_CA_BB 4
M  POLY_C_BB 2
M  POLY_O_BB 5
M  POLY_IGNORE 9 10 11 12 13 14 15 16 17 18 
M  POLY_UPPER 6
M  POLY_LOWER 8
M  POLY_CHG 0
M  POLY_PROPERTIES ALPHA_AA D_AA PROTEIN AROMATIC POLYMER 
M  END

$$$$



 35 35  0  0  0  0  0  0  0  0999 V2000
   -2.6813    2.1055    0.2779 H   0  0  0  1  0  0  0  0  0  0  0  0
   -0.8564    2.7020    1.1412 C   0  0  0  1  0  0  0  0  0  0  0  0
   -1.3347    0.6174   -0.1587 N   0  0  0  1  0  0  0  0  0  0  0  0
   -1.6449    2.0262    0.0238 C   0  0  0  1  0  0  0  0  0  0  0  0
   -1.2223    2.6246    2.3130 O   0  0  0  1  0  0  0  0  0  0  0  0
    0.2865    3.2977    0.7842 N   0  0  0  1  0  0  0  0  0  0  0  0
   -1.4444    0.2202   -1.0479 H   0  0  0  1  0  0  0  0  0  0  0  0
   -0.9061   -0.1533    0.8422 C   0  0  0  1  0  0  0  0  0  0  0  0
    1.1954    3.8828    1.7586 C   0  0  0  1  0  0  0  0  0  0  0  0
   -0.6972   -1.6166    0.5039 C   0  0  0  1  0  0  0  0  0  0  0  0
   -0.6887    0.2777    1.9738 O   0  0  0  1  0  0  0  0  0  0  0  0
    0.5200    3.3417   -0.1665 H   0  0  0  1  0  0  0  0  0  0  0  0
    1.9470    4.4500    1.2503 H   0  0  0  1  0  0  0  0  0  0  0  0
    1.6598    3.1033    2.3257 H   0  0  0  1  0  0  0  0  0  0  0  0
    0.6478    4.5252    2.4161 H   0  0  0  1  0  0  0  0  0  0  0  0
   -0.9145   -1.7784   -0.5312 H   0  0  0  1  0  0  0  0  0  0  0  0
   -1.3489   -2.2174    1.1031 H   0  0  0  1  0  0  0  0  0  0  0  0
    0.3193   -1.8864    0.7012 H   0  0  0  1  0  0  0  0  0  0  0  0
    3.1321   -0.0924   -4.8534 F   0  0  0  1  0  0  0  0  0  0  0  0
    1.9211    0.2138   -5.2724 C   0  0  0  1  0  0  0  0  0  0  0  0
    2.0697    0.9163   -6.3858 F   0  0  0  1  0  0  0  0  0  0  0  0
    1.3791   -0.9442   -5.6602 F   0  0  0  1  0  0  0  0  0  0  0  0
    1.0832    0.9200   -4.2246 C   0  0  0  1  0  0  0  0  0  0  0  0
    1.6012    1.2490   -2.9816 C   0  0  0  1  0  0  0  0  0  0  0  0
    0.7822    1.8050   -2.0170 C   0  0  0  1  0  0  0  0  0  0  0  0
   -0.5557    2.0387   -2.2942 C   0  0  0  1  0  0  0  0  0  0  0  0
   -1.0720    1.7106   -3.5336 C   0  0  0  1  0  0  0  0  0  0  0  0
   -0.2508    1.1530   -4.5012 C   0  0  0  1  0  0  0  0  0  0  0  0
   -1.4580    2.7387   -1.3057 C   0  0  0  1  0  0  0  0  0  0  0  0
    2.6059    1.0774   -2.7748 H   0  0  0  1  0  0  0  0  0  0  0  0
    1.1698    2.0481   -1.0830 H   0  0  0  1  0  0  0  0  0  0  0  0
   -2.0767    1.8822   -3.7403 H   0  0  0  1  0  0  0  0  0  0  0  0
   -0.6384    0.9099   -5.4351 H   0  0  0  1  0  0  0  0  0  0  0  0
   -1.0433    3.7049   -1.1070 H   0  0  0  1  0  0  0  0  0  0  0  0
   -2.4209    2.8498   -1.7589 H   0  0  0  1  0  0  0  0  0  0  0  0
  1  4  1  0  0  0  0
  2  4  1  0  0  0  0
  2  5  2  0  0  0  0
  2  6  1  0  0  0  0
  3  4  1  0  0  0  0
  3  7  1  0  0  0  0
  3  8  1  0  0  0  0
  4 29  1  0  0  0  0
  6  9  1  0  0  0  0
  6 12  1  0  0  0  0
  8 10  1  0  0  0  0
  8 11  2  0  0  0  0
  9 13  1  0  0  0  0
  9 14  1  0  0  0  0
  9 15  1  0  0  0  0
 10 16  1  0  0  0  0
 10 17  1  0  0  0  0
 10 18  1  0  0  0  0
 19 20  1  0  0  0  0
 20 21  1  0  0  0  0
 20 22  1  0  0  0  0
 20 23  1  0  0  0  0
 23 24  4  0  0  0  0
 23 28  4  0  0  0  0
 24 25  4  0  0  0  0
 24 30  1  0  0  0  0
 25 26  4  0  0  0  0
 25 31  1  0  0  0  0
 26 27  4  0  0  0  0
 26 29  1  0  0  0  0
 27 28  4  0  0  0  0
 27 32  1  0  0  0  0
 28 33  1  0  0  0  0
 29 34  1  0  0  0  0
 29 35  1  0  0  0  0
M  END
> <BCLConfClusterSize>
1

> <ConfClashScore>
3.53988e-05 

> <ConfOneFourInteractionScore>
-0.922241 

> <ConfScore>
0.703896 

> <ConfScorePBest>
0.00228009 

> <ConfTolerance>
0.919377 

> <RosettaParamsInstructions>
M  ROOT 3
M  POLY_N_BB 3
M  POLY_CA_BB 4
M  POLY_C_BB 2
M  POLY_O_BB 5
M  POLY_IGNORE 9 10 11 12 13 14 15 16 17 18 
M  POLY_UPPER 6
M  POLY_LOWER 8
M  POLY_CHG 0
M  POLY_PROPERTIES ALPHA_AA D_AA PROTEIN AROMATIC POLYMER 
M  END

$$$$



 35 35  0  0  0  0  0  0  0  0999 V2000
   -3.1566    2.4105   -2.4373 H   0  0  0  1  0  0  0  0  0  0  0  0
   -2.5479    4.3880   -2.7671 C   0  0  0  1  0  0  0  0  0  0  0  0
   -3.7342    3.4676   -0.7910 N   0  0  0  1  0  0  0  0  0  0  0  0
   -2.7638    3.2014   -1.8331 C   0  0  0  1  0  0  0  0  0  0  0  0
   -1.9836    5.3999   -2.3807 O   0  0  0  1  0  0  0  0  0  0  0  0
   -2.9290    4.2190   -4.0412 N   0  0  0  1  0  0  0  0  0  0  0  0
   -3.8457    4.3876   -0.4724 H   0  0  0  1  0  0  0  0  0  0  0  0
   -4.4823    2.5024   -0.2490 C   0  0  0  1  0  0  0  0  0  0  0  0
   -2.7141    5.1831   -5.1100 C   0  0  0  1  0  0  0  0  0  0  0  0
   -5.3617    2.9242    0.9121 C   0  0  0  1  0  0  0  0  0  0  0  0
   -4.4719    1.3500   -0.6493 O   0  0  0  1  0  0  0  0  0  0  0  0
   -3.3868    3.3833   -4.2701 H   0  0  0  1  0  0  0  0  0  0  0  0
   -3.4935    5.0898   -5.8371 H   0  0  0  1  0  0  0  0  0  0  0  0
   -1.7687    4.9952   -5.5747 H   0  0  0  1  0  0  0  0  0  0  0  0
   -2.7220    6.1730   -4.7039 H   0  0  0  1  0  0  0  0  0  0  0  0
   -5.2122    3.9643    1.1139 H   0  0  0  1  0  0  0  0  0  0  0  0
   -5.1053    2.3524    1.7794 H   0  0  0  1  0  0  0  0  0  0  0  0
   -6.3880    2.7535    0.6622 H   0  0  0  1  0  0  0  0  0  0  0  0
    1.2014   -0.2386   -6.2864 F   0  0  0  1  0  0  0  0  0  0  0  0
    1.9314    0.1988   -5.2589 C   0  0  0  1  0  0  0  0  0  0  0  0
    2.5212   -0.8745   -4.7302 F   0  0  0  1  0  0  0  0  0  0  0  0
    2.8947    0.9723   -5.7613 F   0  0  0  1  0  0  0  0  0  0  0  0
    1.0730    0.9158   -4.2379 C   0  0  0  1  0  0  0  0  0  0  0  0
    1.5163    1.0249   -2.9290 C   0  0  0  1  0  0  0  0  0  0  0  0
    0.7013    1.5941   -1.9688 C   0  0  0  1  0  0  0  0  0  0  0  0
   -0.5571    2.0607   -2.3156 C   0  0  0  1  0  0  0  0  0  0  0  0
   -0.9989    1.9517   -3.6206 C   0  0  0  1  0  0  0  0  0  0  0  0
   -0.1817    1.3809   -4.5839 C   0  0  0  1  0  0  0  0  0  0  0  0
   -1.4460    2.6881   -1.2679 C   0  0  0  1  0  0  0  0  0  0  0  0
    2.4620    0.6786   -2.6696 H   0  0  0  1  0  0  0  0  0  0  0  0
    1.0322    1.6724   -0.9860 H   0  0  0  1  0  0  0  0  0  0  0  0
   -1.9446    2.2981   -3.8800 H   0  0  0  1  0  0  0  0  0  0  0  0
   -0.5126    1.3026   -5.5667 H   0  0  0  1  0  0  0  0  0  0  0  0
   -1.6594    1.9546   -0.5187 H   0  0  0  1  0  0  0  0  0  0  0  0
   -0.9225    3.5094   -0.8247 H   0  0  0  1  0  0  0  0  0  0  0  0
  1  4  1  0  0  0  0
  2  4  1  0  0  0  0
  2  5  2  0  0  0  0
  2  6  1  0  0  0  0
  3  4  1  0  0  0  0
  3  7  1  0  0  0  0
  3  8  1  0  0  0  0
  4 29  1  0  0  0  0
  6  9  1  0  0  0  0
  6 12  1  0  0  0  0
  8 10  1  0  0  0  0
  8 11  2  0  0  0  0
  9 13  1  0  0  0  0
  9 14  1  0  0  0  0
  9 15  1  0  0  0  0
 10 16  1  0  0  0  0
 10 17  1  0  0  0  0
 10 18  1  0  0  0  0
 19 20  1  0  0  0  0
 20 21  1  0  0  0  0
 20 22  1  0  0  0  0
 20 23  1  0  0  0  0
 23 24  4  0  0  0  0
 23 28  4  0  0  0  0
 24 25  4  0  0  0  0
 24 30  1  0  0  0  0
 25 26  4  0  0  0  0
 25 31  1  0  0  0  0
 26 27  4  0  0  0  0
 26 29  1  0  0  0  0
 27 28  4  0  0  0  0
 27 32  1  0  0  0  0
 28 33  1  0  0  0  0
 29 34  1  0  0  0  0
 29 35  1  0  0  0  0
M  END
> <BCLConfClusterSize>
1

> <ConfClashScore>
0 

> <ConfOneFourInteractionScore>
-0.964662 

> <ConfScore>
0.723964 

> <ConfScorePBest>
0.00225161 

> <ConfTolerance>
1.52473 

> <RosettaParamsInstructions>
M  ROOT 3
M  POLY_N_BB 3
M  POLY_CA_BB 4
M  POLY_C_BB 2
M  POLY_O_BB 5
M  POLY_IGNORE 9 10 11 12 13 14 15 16 17 18 
M  POLY_UPPER 6
M  POLY_LOWER 8
M  POLY_CHG 0
M  POLY_PROPERTIES ALPHA_AA D_AA PROTEIN AROMATIC POLYMER 
M  END

$$$$



 35 35  0  0  0  0  0  0  0  0999 V2000
   -2.2760    4.6073   -1.0359 H   0  0  0  1  0  0  0  0  0  0  0  0
   -3.6133    3.5042   -2.2304 C   0  0  0  1  0  0  0  0  0  0  0  0
   -1.3996    4.4757   -2.8926 N   0  0  0  1  0  0  0  0  0  0  0  0
   -2.1940    3.8852   -1.8213 C   0  0  0  1  0  0  0  0  0  0  0  0
   -3.8227    2.5653   -2.9971 O   0  0  0  1  0  0  0  0  0  0  0  0
   -4.6055    4.1871   -1.6419 N   0  0  0  1  0  0  0  0  0  0  0  0
   -0.5827    4.9544   -2.6398 H   0  0  0  1  0  0  0  0  0  0  0  0
   -1.7013    4.4133   -4.1904 C   0  0  0  1  0  0  0  0  0  0  0  0
   -6.0233    3.9015   -1.8030 C   0  0  0  1  0  0  0  0  0  0  0  0
   -0.7020    5.0585   -5.1308 C   0  0  0  1  0  0  0  0  0  0  0  0
   -2.7204    3.8711   -4.6159 O   0  0  0  1  0  0  0  0  0  0  0  0
   -4.3573    4.9350   -1.0594 H   0  0  0  1  0  0  0  0  0  0  0  0
   -6.1447    3.0159   -2.3911 H   0  0  0  1  0  0  0  0  0  0  0  0
   -6.4990    4.7240   -2.2950 H   0  0  0  1  0  0  0  0  0  0  0  0
   -6.4688    3.7545   -0.8413 H   0  0  0  1  0  0  0  0  0  0  0  0
   -0.8657    6.1156   -5.1554 H   0  0  0  1  0  0  0  0  0  0  0  0
   -0.8264    4.6556   -6.1142 H   0  0  0  1  0  0  0  0  0  0  0  0
    0.2914    4.8595   -4.7863 H   0  0  0  1  0  0  0  0  0  0  0  0
    3.1125    0.7947   -5.3931 F   0  0  0  1  0  0  0  0  0  0  0  0
    1.9288    0.1940   -5.2597 C   0  0  0  1  0  0  0  0  0  0  0  0
    1.3672    0.1926   -6.4697 F   0  0  0  1  0  0  0  0  0  0  0  0
    2.1668   -1.0768   -4.9326 F   0  0  0  1  0  0  0  0  0  0  0  0
    1.0569    0.9100   -4.2469 C   0  0  0  1  0  0  0  0  0  0  0  0
    1.6154    1.3555   -3.0589 C   0  0  0  1  0  0  0  0  0  0  0  0
    0.8124    1.9257   -2.0891 C   0  0  0  1  0  0  0  0  0  0  0  0
   -0.5503    2.0569   -2.3064 C   0  0  0  1  0  0  0  0  0  0  0  0
   -1.1069    1.6127   -3.4909 C   0  0  0  1  0  0  0  0  0  0  0  0
   -0.3018    1.0408   -4.4637 C   0  0  0  1  0  0  0  0  0  0  0  0
   -1.4274    2.6852   -1.2493 C   0  0  0  1  0  0  0  0  0  0  0  0
    2.6384    1.2608   -2.8974 H   0  0  0  1  0  0  0  0  0  0  0  0
    1.2307    2.2563   -1.1961 H   0  0  0  1  0  0  0  0  0  0  0  0
   -2.1299    1.7074   -3.6524 H   0  0  0  1  0  0  0  0  0  0  0  0
   -0.7201    0.7102   -5.3567 H   0  0  0  1  0  0  0  0  0  0  0  0
   -2.1277    1.9572   -0.8965 H   0  0  0  1  0  0  0  0  0  0  0  0
   -0.8151    3.0152   -0.4363 H   0  0  0  1  0  0  0  0  0  0  0  0
  1  4  1  0  0  0  0
  2  4  1  0  0  0  0
  2  5  2  0  0  0  0
  2  6  1  0  0  0  0
  3  4  1  0  0  0  0
  3  7  1  0  0  0  0
  3  8  1  0  0  0  0
  4 29  1  0  0  0  0
  6  9  1  0  0  0  0
  6 12  1  0  0  0  0
  8 10  1  0  0  0  0
  8 11  2  0  0  0  0
  9 13  1  0  0  0  0
  9 14  1  0  0  0  0
  9 15  1  0  0  0  0
 10 16  1  0  0  0  0
 10 17  1  0  0  0  0
 10 18  1  0  0  0  0
 19 20  1  0  0  0  0
 20 21  1  0  0  0  0
 20 22  1  0  0  0  0
 20 23  1  0  0  0  0
 23 24  4  0  0  0  0
 23 28  4  0  0  0  0
 24 25  4  0  0  0  0
 24 30  1  0  0  0  0
 25 26  4  0  0  0  0
 25 31  1  0  0  0  0
 26 27  4  0  0  0  0
 26 29  1  0  0  0  0
 27 28  4  0  0  0  0
 27 32  1  0  0  0  0
 28 33  1  0  0  0  0
 29 34  1  0  0  0  0
 29 35  1  0  0  0  0
M  END
> <BCLConfClusterSize>
1

> <ConfClashScore>
0 

> <ConfOneFourInteractionScore>
-0.957335 

> <ConfScore>
0.72598 

> <ConfScorePBest>
0.00222313 

> <ConfTolerance>
0.94343 

> <RosettaParamsInstructions>
M  ROOT 3
M  POLY_N_BB 3
M  POLY_CA_BB 4
M  POLY_C_BB 2
M  POLY_O_BB 5
M  POLY_IGNORE 9 10 11 12 13 14 15 16 17 18 
M  POLY_UPPER 6
M  POLY_LOWER 8
M  POLY_CHG 0
M  POLY_PROPERTIES ALPHA_AA D_AA PROTEIN AROMATIC POLYMER 
M  END

$$$$



 35 35  0  0  0  0  0  0  0  0999 V2000
   -2.2402    4.5825   -0.7206 H   0  0  0  1  0  0  0  0  0  0  0  0
   -2.1526    4.6864   -2.8067 C   0  0  0  1  0  0  0  0  0  0  0  0
   -0.2866    4.9626   -1.2274 N   0  0  0  1  0  0  0  0  0  0  0  0
   -1.5548    4.2511   -1.4724 C   0  0  0  1  0  0  0  0  0  0  0  0
   -1.4546    4.7784   -3.8153 O   0  0  0  1  0  0  0  0  0  0  0  0
   -3.4800    4.8720   -2.8313 N   0  0  0  1  0  0  0  0  0  0  0  0
    0.5448    4.5827   -1.5808 H   0  0  0  1  0  0  0  0  0  0  0  0
   -0.2316    6.1072   -0.5404 C   0  0  0  1  0  0  0  0  0  0  0  0
   -4.3284    4.5710   -1.6878 C   0  0  0  1  0  0  0  0  0  0  0  0
    1.1408    6.6738   -0.1943 C   0  0  0  1  0  0  0  0  0  0  0  0
   -1.2235    6.7333   -0.1693 O   0  0  0  1  0  0  0  0  0  0  0  0
   -3.8935    5.2225   -3.6477 H   0  0  0  1  0  0  0  0  0  0  0  0
   -5.3459    4.7986   -1.9282 H   0  0  0  1  0  0  0  0  0  0  0  0
   -4.0197    5.1606   -0.8500 H   0  0  0  1  0  0  0  0  0  0  0  0
   -4.2434    3.5325   -1.4445 H   0  0  0  1  0  0  0  0  0  0  0  0
    1.5757    6.0987    0.5963 H   0  0  0  1  0  0  0  0  0  0  0  0
    1.0374    7.6912    0.1205 H   0  0  0  1  0  0  0  0  0  0  0  0
    1.7727    6.6293   -1.0566 H   0  0  0  1  0  0  0  0  0  0  0  0
    2.4349    1.0262   -6.1609 F   0  0  0  1  0  0  0  0  0  0  0  0
    1.9126    0.2049   -5.2729 C   0  0  0  1  0  0  0  0  0  0  0  0
    1.2897   -0.7463   -5.9182 F   0  0  0  1  0  0  0  0  0  0  0  0
    2.9743   -0.3837   -4.7208 F   0  0  0  1  0  0  0  0  0  0  0  0
    1.0496    0.9124   -4.2493 C   0  0  0  1  0  0  0  0  0  0  0  0
    1.6062    1.3073   -3.0427 C   0  0  0  1  0  0  0  0  0  0  0  0
    0.8076    1.8693   -2.0645 C   0  0  0  1  0  0  0  0  0  0  0  0
   -0.5487    2.0430   -2.2920 C   0  0  0  1  0  0  0  0  0  0  0  0
   -1.1034    1.6493   -3.4951 C   0  0  0  1  0  0  0  0  0  0  0  0
   -0.3028    1.0856   -4.4762 C   0  0  0  1  0  0  0  0  0  0  0  0
   -1.4349    2.7467   -1.2916 C   0  0  0  1  0  0  0  0  0  0  0  0
    2.6245    1.1806   -2.8735 H   0  0  0  1  0  0  0  0  0  0  0  0
    1.2244    2.1619   -1.1577 H   0  0  0  1  0  0  0  0  0  0  0  0
   -2.1217    1.7759   -3.6642 H   0  0  0  1  0  0  0  0  0  0  0  0
   -0.7196    0.7930   -5.3830 H   0  0  0  1  0  0  0  0  0  0  0  0
   -2.4159    2.3260   -1.3664 H   0  0  0  1  0  0  0  0  0  0  0  0
   -1.0407    2.5621   -0.3142 H   0  0  0  1  0  0  0  0  0  0  0  0
  1  4  1  0  0  0  0
  2  4  1  0  0  0  0
  2  5  2  0  0  0  0
  2  6  1  0  0  0  0
  3  4  1  0  0  0  0
  3  7  1  0  0  0  0
  3  8  1  0  0  0  0
  4 29  1  0  0  0  0
  6  9  1  0  0  0  0
  6 12  1  0  0  0  0
  8 10  1  0  0  0  0
  8 11  2  0  0  0  0
  9 13  1  0  0  0  0
  9 14  1  0  0  0  0
  9 15  1  0  0  0  0
 10 16  1  0  0  0  0
 10 17  1  0  0  0  0
 10 18  1  0  0  0  0
 19 20  1  0  0  0  0
 20 21  1  0  0  0  0
 20 22  1  0  0  0  0
 20 23  1  0  0  0  0
 23 24  4  0  0  0  0
 23 28  4  0  0  0  0
 24 25  4  0  0  0  0
 24 30  1  0  0  0  0
 25 26  4  0  0  0  0
 25 31  1  0  0  0  0
 26 27  4  0  0  0  0
 26 29  1  0  0  0  0
 27 28  4  0  0  0  0
 27 32  1  0  0  0  0
 28 33  1  0  0  0  0
 29 34  1  0  0  0  0
 29 35  1  0  0  0  0
M  END
> <BCLConfClusterSize>
1

> <ConfClashScore>
0 

> <ConfOneFourInteractionScore>
-0.976093 

> <ConfScore>
0.774998 

> <ConfScorePBest>
0.00219465 

> <ConfTolerance>
1.39556 

> <RosettaParamsInstructions>
M  ROOT 3
M  POLY_N_BB 3
M  POLY_CA_BB 4
M  POLY_C_BB 2
M  POLY_O_BB 5
M  POLY_IGNORE 9 10 11 12 13 14 15 16 17 18 
M  POLY_UPPER 6
M  POLY_LOWER 8
M  POLY_CHG 0
M  POLY_PROPERTIES ALPHA_AA D_AA PROTEIN AROMATIC POLYMER 
M  END

$$$$



 35 35  0  0  0  0  0  0  0  0999 V2000
   -3.3317    2.8082   -0.4151 H   0  0  0  1  0  0  0  0  0  0  0  0
   -2.4122    1.0385    0.2634 C   0  0  0  1  0  0  0  0  0  0  0  0
   -3.3346    1.4657   -1.9912 N   0  0  0  1  0  0  0  0  0  0  0  0
   -2.6811    2.0627   -0.8225 C   0  0  0  1  0  0  0  0  0  0  0  0
   -3.1638    0.9264    1.2306 O   0  0  0  1  0  0  0  0  0  0  0  0
   -1.3752    0.2185    0.0617 N   0  0  0  1  0  0  0  0  0  0  0  0
   -4.1034    1.9396   -2.3717 H   0  0  0  1  0  0  0  0  0  0  0  0
   -2.9610    0.3243   -2.5765 C   0  0  0  1  0  0  0  0  0  0  0  0
   -1.1139   -0.9292    0.9173 C   0  0  0  1  0  0  0  0  0  0  0  0
   -3.9043   -0.2126   -3.6353 C   0  0  0  1  0  0  0  0  0  0  0  0
   -1.9235   -0.2665   -2.2885 O   0  0  0  1  0  0  0  0  0  0  0  0
   -0.7702    0.3968   -0.6884 H   0  0  0  1  0  0  0  0  0  0  0  0
   -1.8862   -1.6577    0.7836 H   0  0  0  1  0  0  0  0  0  0  0  0
   -1.0941   -0.6144    1.9398 H   0  0  0  1  0  0  0  0  0  0  0  0
   -0.1692   -1.3596    0.6578 H   0  0  0  1  0  0  0  0  0  0  0  0
   -3.6772   -1.2403   -3.8280 H   0  0  0  1  0  0  0  0  0  0  0  0
   -3.7882    0.3531   -4.5361 H   0  0  0  1  0  0  0  0  0  0  0  0
   -4.9133   -0.1294   -3.2889 H   0  0  0  1  0  0  0  0  0  0  0  0
    1.1871   -0.3300   -6.2449 F   0  0  0  1  0  0  0  0  0  0  0  0
    1.9190    0.2043   -5.2657 C   0  0  0  1  0  0  0  0  0  0  0  0
    2.6311   -0.8125   -4.7775 F   0  0  0  1  0  0  0  0  0  0  0  0
    2.7850    0.9978   -5.8740 F   0  0  0  1  0  0  0  0  0  0  0  0
    1.0859    0.9115   -4.2147 C   0  0  0  1  0  0  0  0  0  0  0  0
    1.5096    1.0110   -2.8986 C   0  0  0  1  0  0  0  0  0  0  0  0
    0.6821    1.5773   -1.9473 C   0  0  0  1  0  0  0  0  0  0  0  0
   -0.5692    2.0505   -2.3103 C   0  0  0  1  0  0  0  0  0  0  0  0
   -0.9915    1.9511   -3.6226 C   0  0  0  1  0  0  0  0  0  0  0  0
   -0.1617    1.3833   -4.5768 C   0  0  0  1  0  0  0  0  0  0  0  0
   -1.4230    2.7591   -1.2854 C   0  0  0  1  0  0  0  0  0  0  0  0
    2.4500    0.6596   -2.6270 H   0  0  0  1  0  0  0  0  0  0  0  0
    0.9982    1.6484   -0.9591 H   0  0  0  1  0  0  0  0  0  0  0  0
   -1.9319    2.3025   -3.8942 H   0  0  0  1  0  0  0  0  0  0  0  0
   -0.4779    1.3122   -5.5650 H   0  0  0  1  0  0  0  0  0  0  0  0
   -0.8138    2.9267   -0.4220 H   0  0  0  1  0  0  0  0  0  0  0  0
   -1.7136    3.6992   -1.7056 H   0  0  0  1  0  0  0  0  0  0  0  0
  1  4  1  0  0  0  0
  2  4  1  0  0  0  0
  2  5  2  0  0  0  0
  2  6  1  0  0  0  0
  3  4  1  0  0  0  0
  3  7  1  0  0  0  0
  3  8  1  0  0  0  0
  4 29  1  0  0  0  0
  6  9  1  0  0  0  0
  6 12  1  0  0  0  0
  8 10  1  0  0  0  0
  8 11  2  0  0  0  0
  9 13  1  0  0  0  0
  9 14  1  0  0  0  0
  9 15  1  0  0  0  0
 10 16  1  0  0  0  0
 10 17  1  0  0  0  0
 10 18  1  0  0  0  0
 19 20  1  0  0  0  0
 20 21  1  0  0  0  0
 20 22  1  0  0  0  0
 20 23  1  0  0  0  0
 23 24  4  0  0  0  0
 23 28  4  0  0  0  0
 24 25  4  0  0  0  0
 24 30  1  0  0  0  0
 25 26  4  0  0  0  0
 25 31  1  0  0  0  0
 26 27  4  0  0  0  0
 26 29  1  0  0  0  0
 27 28  4  0  0  0  0
 27 32  1  0  0  0  0
 28 33  1  0  0  0  0
 29 34  1  0  0  0  0
 29 35  1  0  0  0  0
M  END
> <BCLConfClusterSize>
1

> <ConfClashScore>
0.00268593 

> <ConfOneFourInteractionScore>
-0.917907 

> <ConfScore>
0.902709 

> <ConfScorePBest>
0.00216617 

> <ConfTolerance>
2.32757 

> <RosettaParamsInstructions>
M  ROOT 3
M  POLY_N_BB 3
M  POLY_CA_BB 4
M  POLY_C_BB 2
M  POLY_O_BB 5
M  POLY_IGNORE 9 10 11 12 13 14 15 16 17 18 
M  POLY_UPPER 6
M  POLY_LOWER 8
M  POLY_CHG 0
M  POLY_PROPERTIES ALPHA_AA D_AA PROTEIN AROMATIC POLYMER 
M  END

$$$$
