


 32 32  0  0  0  0  0  0  0  0999 V2000
   -2.9256    1.9951    2.5437 H   0  0  0  1  0  0  0  0  0  0  0  0
   -1.3022    0.6730    2.7890 C   0  0  0  1  0  0  0  0  0  0  0  0
   -1.5806    2.8214    3.8576 N   0  0  0  1  0  0  0  0  0  0  0  0
   -1.8634    2.0886    2.6325 C   0  0  0  1  0  0  0  0  0  0  0  0
   -1.8306   -0.3296    2.3449 O   0  0  0  1  0  0  0  0  0  0  0  0
   -0.1562    0.6264    3.4700 N   0  0  0  1  0  0  0  0  0  0  0  0
   -1.0204    3.6240    3.8100 H   0  0  0  1  0  0  0  0  0  0  0  0
   -2.0583    2.4379    5.0450 C   0  0  0  1  0  0  0  0  0  0  0  0
    0.6305   -0.5770    3.6957 C   0  0  0  1  0  0  0  0  0  0  0  0
   -1.5707    3.2275    6.2330 C   0  0  0  1  0  0  0  0  0  0  0  0
   -2.8450    1.5044    5.1795 O   0  0  0  1  0  0  0  0  0  0  0  0
    0.1815    1.4657    3.8467 H   0  0  0  1  0  0  0  0  0  0  0  0
    0.4504   -1.2750    2.9050 H   0  0  0  1  0  0  0  0  0  0  0  0
    0.3495   -1.0165    4.6300 H   0  0  0  1  0  0  0  0  0  0  0  0
    1.6700   -0.3243    3.7182 H   0  0  0  1  0  0  0  0  0  0  0  0
   -1.7703    4.2671    6.0773 H   0  0  0  1  0  0  0  0  0  0  0  0
   -0.5174    3.0805    6.3506 H   0  0  0  1  0  0  0  0  0  0  0  0
   -2.0783    2.8952    7.1144 H   0  0  0  1  0  0  0  0  0  0  0  0
   -3.8810    7.6803    0.4549 F   0  0  0  1  0  0  0  0  0  0  0  0
   -3.2894    6.4885    0.6638 C   0  0  0  1  0  0  0  0  0  0  0  0
   -2.0335    6.4309    1.2477 C   0  0  0  1  0  0  0  0  0  0  0  0
   -1.4240    5.2083    1.4572 C   0  0  0  1  0  0  0  0  0  0  0  0
   -2.0710    4.0392    1.0883 C   0  0  0  1  0  0  0  0  0  0  0  0
   -3.3233    4.0964    0.5060 C   0  0  0  1  0  0  0  0  0  0  0  0
   -3.9344    5.3227    0.2959 C   0  0  0  1  0  0  0  0  0  0  0  0
   -1.3626    2.7301    1.3451 C   0  0  0  1  0  0  0  0  0  0  0  0
   -1.5498    7.3078    1.5282 H   0  0  0  1  0  0  0  0  0  0  0  0
   -0.4801    5.1654    1.8917 H   0  0  0  1  0  0  0  0  0  0  0  0
   -3.8069    3.2194    0.2255 H   0  0  0  1  0  0  0  0  0  0  0  0
   -4.8783    5.3657   -0.1385 H   0  0  0  1  0  0  0  0  0  0  0  0
   -1.5467    2.0653    0.5272 H   0  0  0  1  0  0  0  0  0  0  0  0
   -0.3113    2.9107    1.4290 H   0  0  0  1  0  0  0  0  0  0  0  0
  1  4  1  0  0  0  0
  2  4  1  0  0  0  0
  2  5  2  0  0  0  0
  2  6  1  0  0  0  0
  3  4  1  0  0  0  0
  3  7  1  0  0  0  0
  3  8  1  0  0  0  0
  4 26  1  0  0  0  0
  6  9  1  0  0  0  0
  6 12  1  0  0  0  0
  8 10  1  0  0  0  0
  8 11  2  0  0  0  0
  9 13  1  0  0  0  0
  9 14  1  0  0  0  0
  9 15  1  0  0  0  0
 10 16  1  0  0  0  0
 10 17  1  0  0  0  0
 10 18  1  0  0  0  0
 19 20  1  0  0  0  0
 20 21  4  0  0  0  0
 20 25  4  0  0  0  0
 21 22  4  0  0  0  0
 21 27  1  0  0  0  0
 22 23  4  0  0  0  0
 22 28  1  0  0  0  0
 23 24  4  0  0  0  0
 23 26  1  0  0  0  0
 24 25  4  0  0  0  0
 24 29  1  0  0  0  0
 25 30  1  0  0  0  0
 26 31  1  0  0  0  0
 26 32  1  0  0  0  0
M  END
> <BCLConfClusterSize>
1

> <ConfClashScore>
0 

> <ConfOneFourInteractionScore>
-0.94165 

> <ConfScore>
-0.307138 

> <ConfScorePBest>
0.00783383 

> <ConfTolerance>
0.143744 

> <RosettaParamsInstructions>
M  ROOT 3
M  POLY_N_BB 3
M  POLY_CA_BB 4
M  POLY_C_BB 2
M  POLY_O_BB 5
M  POLY_IGNORE 9 10 11 12 13 14 15 16 17 18 
M  POLY_UPPER 6
M  POLY_LOWER 8
M  POLY_CHG 0
M  POLY_PROPERTIES ALPHA_AA L_AA PROTEIN AROMATIC POLYMER 
M  END

$$$$



 32 32  0  0  0  0  0  0  0  0999 V2000
   -2.8275    1.9052    2.6880 H   0  0  0  1  0  0  0  0  0  0  0  0
   -1.0395    0.7560    2.7869 C   0  0  0  1  0  0  0  0  0  0  0  0
   -1.3739    2.9330    3.7726 N   0  0  0  1  0  0  0  0  0  0  0  0
   -1.7718    2.0781    2.6643 C   0  0  0  1  0  0  0  0  0  0  0  0
   -1.4369   -0.2534    2.1981 O   0  0  0  1  0  0  0  0  0  0  0  0
    0.0499    0.7643    3.5665 N   0  0  0  1  0  0  0  0  0  0  0  0
   -1.0044    3.8232    3.5953 H   0  0  0  1  0  0  0  0  0  0  0  0
   -1.5125    2.5027    5.0438 C   0  0  0  1  0  0  0  0  0  0  0  0
    0.7640   -0.4745    3.8376 C   0  0  0  1  0  0  0  0  0  0  0  0
   -0.9158    3.3794    6.1451 C   0  0  0  1  0  0  0  0  0  0  0  0
   -2.0174    1.4178    5.3204 O   0  0  0  1  0  0  0  0  0  0  0  0
    0.3667    1.6063    3.9552 H   0  0  0  1  0  0  0  0  0  0  0  0
    0.6743   -1.1298    2.9965 H   0  0  0  1  0  0  0  0  0  0  0  0
    0.3453   -0.9453    4.7024 H   0  0  0  1  0  0  0  0  0  0  0  0
    1.7973   -0.2592    4.0131 H   0  0  0  1  0  0  0  0  0  0  0  0
   -1.4436    4.3093    6.1868 H   0  0  0  1  0  0  0  0  0  0  0  0
    0.1165    3.5647    5.9330 H   0  0  0  1  0  0  0  0  0  0  0  0
   -1.0026    2.8778    7.0863 H   0  0  0  1  0  0  0  0  0  0  0  0
   -3.8845    7.6787    0.4532 F   0  0  0  1  0  0  0  0  0  0  0  0
   -3.2894    6.4890    0.6638 C   0  0  0  1  0  0  0  0  0  0  0  0
   -2.0335    6.4359    1.2481 C   0  0  0  1  0  0  0  0  0  0  0  0
   -1.4204    5.2154    1.4594 C   0  0  0  1  0  0  0  0  0  0  0  0
   -2.0638    4.0439    1.0919 C   0  0  0  1  0  0  0  0  0  0  0  0
   -3.3161    4.0966    0.5093 C   0  0  0  1  0  0  0  0  0  0  0  0
   -3.9309    5.3208    0.2975 C   0  0  0  1  0  0  0  0  0  0  0  0
   -1.3950    2.7054    1.3285 C   0  0  0  1  0  0  0  0  0  0  0  0
   -1.5524    7.3147    1.5274 H   0  0  0  1  0  0  0  0  0  0  0  0
   -0.4764    5.1759    1.8940 H   0  0  0  1  0  0  0  0  0  0  0  0
   -3.7971    3.2178    0.2300 H   0  0  0  1  0  0  0  0  0  0  0  0
   -4.8749    5.3603   -0.1372 H   0  0  0  1  0  0  0  0  0  0  0  0
   -1.6841    2.0370    0.5447 H   0  0  0  1  0  0  0  0  0  0  0  0
   -0.3345    2.8458    1.3053 H   0  0  0  1  0  0  0  0  0  0  0  0
  1  4  1  0  0  0  0
  2  4  1  0  0  0  0
  2  5  2  0  0  0  0
  2  6  1  0  0  0  0
  3  4  1  0  0  0  0
  3  7  1  0  0  0  0
  3  8  1  0  0  0  0
  4 26  1  0  0  0  0
  6  9  1  0  0  0  0
  6 12  1  0  0  0  0
  8 10  1  0  0  0  0
  8 11  2  0  0  0  0
  9 13  1  0  0  0  0
  9 14  1  0  0  0  0
  9 15  1  0  0  0  0
 10 16  1  0  0  0  0
 10 17  1  0  0  0  0
 10 18  1  0  0  0  0
 19 20  1  0  0  0  0
 20 21  4  0  0  0  0
 20 25  4  0  0  0  0
 21 22  4  0  0  0  0
 21 27  1  0  0  0  0
 22 23  4  0  0  0  0
 22 28  1  0  0  0  0
 23 24  4  0  0  0  0
 23 26  1  0  0  0  0
 24 25  4  0  0  0  0
 24 29  1  0  0  0  0
 25 30  1  0  0  0  0
 26 31  1  0  0  0  0
 26 32  1  0  0  0  0
M  END
> <BCLConfClusterSize>
1

> <ConfClashScore>
0 

> <ConfOneFourInteractionScore>
-0.94165 

> <ConfScore>
-0.307138 

> <ConfScorePBest>
0.00780535 

> <ConfTolerance>
0.165197 

> <RosettaParamsInstructions>
M  ROOT 3
M  POLY_N_BB 3
M  POLY_CA_BB 4
M  POLY_C_BB 2
M  POLY_O_BB 5
M  POLY_IGNORE 9 10 11 12 13 14 15 16 17 18 
M  POLY_UPPER 6
M  POLY_LOWER 8
M  POLY_CHG 0
M  POLY_PROPERTIES ALPHA_AA L_AA PROTEIN AROMATIC POLYMER 
M  END

$$$$



 32 32  0  0  0  0  0  0  0  0999 V2000
   -0.2240    2.8345   -0.4246 H   0  0  0  1  0  0  0  0  0  0  0  0
    0.0759    0.9080    0.3651 C   0  0  0  1  0  0  0  0  0  0  0  0
   -1.9096    1.7373   -0.8590 N   0  0  0  1  0  0  0  0  0  0  0  0
   -0.8274    2.0882    0.0485 C   0  0  0  1  0  0  0  0  0  0  0  0
    1.2516    1.1009    0.6722 O   0  0  0  1  0  0  0  0  0  0  0  0
   -0.4962   -0.3064    0.3742 N   0  0  0  1  0  0  0  0  0  0  0  0
   -2.8296    1.8385   -0.5369 H   0  0  0  1  0  0  0  0  0  0  0  0
   -1.7288    1.2860   -2.1035 C   0  0  0  1  0  0  0  0  0  0  0  0
    0.2227   -1.5014    0.7901 C   0  0  0  1  0  0  0  0  0  0  0  0
   -2.9916    1.0551   -2.9105 C   0  0  0  1  0  0  0  0  0  0  0  0
   -0.6166    1.0659   -2.5813 O   0  0  0  1  0  0  0  0  0  0  0  0
   -1.4305   -0.3911    0.0908 H   0  0  0  1  0  0  0  0  0  0  0  0
    1.2735   -1.2999    0.8025 H   0  0  0  1  0  0  0  0  0  0  0  0
    0.0203   -2.2963    0.1031 H   0  0  0  1  0  0  0  0  0  0  0  0
   -0.0971   -1.7865    1.7706 H   0  0  0  1  0  0  0  0  0  0  0  0
   -3.5924    1.9404   -2.8947 H   0  0  0  1  0  0  0  0  0  0  0  0
   -3.5428    0.2427   -2.4851 H   0  0  0  1  0  0  0  0  0  0  0  0
   -2.7307    0.8194   -3.9210 H   0  0  0  1  0  0  0  0  0  0  0  0
   -3.8843    7.6784    0.4533 F   0  0  0  1  0  0  0  0  0  0  0  0
   -3.2892    6.4887    0.6639 C   0  0  0  1  0  0  0  0  0  0  0  0
   -2.0333    6.4356    1.2481 C   0  0  0  1  0  0  0  0  0  0  0  0
   -1.4202    5.2151    1.4594 C   0  0  0  1  0  0  0  0  0  0  0  0
   -2.0637    4.0436    1.0920 C   0  0  0  1  0  0  0  0  0  0  0  0
   -3.3160    4.0963    0.5094 C   0  0  0  1  0  0  0  0  0  0  0  0
   -3.9307    5.3205    0.2975 C   0  0  0  1  0  0  0  0  0  0  0  0
   -1.3968    2.7090    1.3279 C   0  0  0  1  0  0  0  0  0  0  0  0
   -1.5523    7.3143    1.5275 H   0  0  0  1  0  0  0  0  0  0  0  0
   -0.4762    5.1756    1.8941 H   0  0  0  1  0  0  0  0  0  0  0  0
   -3.7969    3.2175    0.2300 H   0  0  0  1  0  0  0  0  0  0  0  0
   -4.8747    5.3600   -0.1371 H   0  0  0  1  0  0  0  0  0  0  0  0
   -0.5968    2.8466    2.0250 H   0  0  0  1  0  0  0  0  0  0  0  0
   -2.1187    2.0359    1.7410 H   0  0  0  1  0  0  0  0  0  0  0  0
  1  4  1  0  0  0  0
  2  4  1  0  0  0  0
  2  5  2  0  0  0  0
  2  6  1  0  0  0  0
  3  4  1  0  0  0  0
  3  7  1  0  0  0  0
  3  8  1  0  0  0  0
  4 26  1  0  0  0  0
  6  9  1  0  0  0  0
  6 12  1  0  0  0  0
  8 10  1  0  0  0  0
  8 11  2  0  0  0  0
  9 13  1  0  0  0  0
  9 14  1  0  0  0  0
  9 15  1  0  0  0  0
 10 16  1  0  0  0  0
 10 17  1  0  0  0  0
 10 18  1  0  0  0  0
 19 20  1  0  0  0  0
 20 21  4  0  0  0  0
 20 25  4  0  0  0  0
 21 22  4  0  0  0  0
 21 27  1  0  0  0  0
 22 23  4  0  0  0  0
 22 28  1  0  0  0  0
 23 24  4  0  0  0  0
 23 26  1  0  0  0  0
 24 25  4  0  0  0  0
 24 29  1  0  0  0  0
 25 30  1  0  0  0  0
 26 31  1  0  0  0  0
 26 32  1  0  0  0  0
M  END
> <BCLConfClusterSize>
1

> <ConfClashScore>
0 

> <ConfOneFourInteractionScore>
-0.956443 

> <ConfScore>
-0.306225 

> <ConfScorePBest>
0.00777687 

> <ConfTolerance>
0.154482 

> <RosettaParamsInstructions>
M  ROOT 3
M  POLY_N_BB 3
M  POLY_CA_BB 4
M  POLY_C_BB 2
M  POLY_O_BB 5
M  POLY_IGNORE 9 10 11 12 13 14 15 16 17 18 
M  POLY_UPPER 6
M  POLY_LOWER 8
M  POLY_CHG 0
M  POLY_PROPERTIES ALPHA_AA L_AA PROTEIN AROMATIC POLYMER 
M  END

$$$$



 32 32  0  0  0  0  0  0  0  0999 V2000
   -2.6476    2.0622    2.8425 H   0  0  0  1  0  0  0  0  0  0  0  0
   -1.0787    0.6523    2.7104 C   0  0  0  1  0  0  0  0  0  0  0  0
   -0.9469    2.9181    3.6480 N   0  0  0  1  0  0  0  0  0  0  0  0
   -1.5953    2.0808    2.6499 C   0  0  0  1  0  0  0  0  0  0  0  0
    0.0081    0.4161    3.2315 O   0  0  0  1  0  0  0  0  0  0  0  0
   -1.8950   -0.3029    2.2563 N   0  0  0  1  0  0  0  0  0  0  0  0
   -0.0320    3.2283    3.4831 H   0  0  0  1  0  0  0  0  0  0  0  0
   -1.5607    3.2817    4.7910 C   0  0  0  1  0  0  0  0  0  0  0  0
   -1.4448   -1.6859    2.2062 C   0  0  0  1  0  0  0  0  0  0  0  0
   -0.6951    4.1265    5.7055 C   0  0  0  1  0  0  0  0  0  0  0  0
   -2.7034    2.9774    5.0930 O   0  0  0  1  0  0  0  0  0  0  0  0
   -2.7988   -0.0718    1.9562 H   0  0  0  1  0  0  0  0  0  0  0  0
   -0.4067   -1.7145    1.9484 H   0  0  0  1  0  0  0  0  0  0  0  0
   -2.0097   -2.2182    1.4697 H   0  0  0  1  0  0  0  0  0  0  0  0
   -1.5869   -2.1419    3.1637 H   0  0  0  1  0  0  0  0  0  0  0  0
   -0.4167    5.0282    5.2012 H   0  0  0  1  0  0  0  0  0  0  0  0
    0.1857    3.5788    5.9687 H   0  0  0  1  0  0  0  0  0  0  0  0
   -1.2434    4.3685    6.5918 H   0  0  0  1  0  0  0  0  0  0  0  0
   -3.8763    7.6788    0.4350 F   0  0  0  1  0  0  0  0  0  0  0  0
   -3.2865    6.4888    0.6583 C   0  0  0  1  0  0  0  0  0  0  0  0
   -2.0335    6.4362    1.2490 C   0  0  0  1  0  0  0  0  0  0  0  0
   -1.4258    5.2154    1.4734 C   0  0  0  1  0  0  0  0  0  0  0  0
   -2.0717    4.0431    1.1127 C   0  0  0  1  0  0  0  0  0  0  0  0
   -3.3210    4.0953    0.5237 C   0  0  0  1  0  0  0  0  0  0  0  0
   -3.9304    5.3199    0.2987 C   0  0  0  1  0  0  0  0  0  0  0  0
   -1.3785    2.7104    1.2703 C   0  0  0  1  0  0  0  0  0  0  0  0
   -1.5507    7.3155    1.5233 H   0  0  0  1  0  0  0  0  0  0  0  0
   -0.4841    5.1762    1.9129 H   0  0  0  1  0  0  0  0  0  0  0  0
   -3.8038    3.2159    0.2494 H   0  0  0  1  0  0  0  0  0  0  0  0
   -4.8721    5.3591   -0.1408 H   0  0  0  1  0  0  0  0  0  0  0  0
   -1.7562    2.0400    0.5268 H   0  0  0  1  0  0  0  0  0  0  0  0
   -0.3284    2.8531    1.1223 H   0  0  0  1  0  0  0  0  0  0  0  0
  1  4  1  0  0  0  0
  2  4  1  0  0  0  0
  2  5  2  0  0  0  0
  2  6  1  0  0  0  0
  3  4  1  0  0  0  0
  3  7  1  0  0  0  0
  3  8  1  0  0  0  0
  4 26  1  0  0  0  0
  6  9  1  0  0  0  0
  6 12  1  0  0  0  0
  8 10  1  0  0  0  0
  8 11  2  0  0  0  0
  9 13  1  0  0  0  0
  9 14  1  0  0  0  0
  9 15  1  0  0  0  0
 10 16  1  0  0  0  0
 10 17  1  0  0  0  0
 10 18  1  0  0  0  0
 19 20  1  0  0  0  0
 20 21  4  0  0  0  0
 20 25  4  0  0  0  0
 21 22  4  0  0  0  0
 21 27  1  0  0  0  0
 22 23  4  0  0  0  0
 22 28  1  0  0  0  0
 23 24  4  0  0  0  0
 23 26  1  0  0  0  0
 24 25  4  0  0  0  0
 24 29  1  0  0  0  0
 25 30  1  0  0  0  0
 26 31  1  0  0  0  0
 26 32  1  0  0  0  0
M  END
> <BCLConfClusterSize>
1

> <ConfClashScore>
0 

> <ConfOneFourInteractionScore>
-0.981931 

> <ConfScore>
-0.294649 

> <ConfScorePBest>
0.00774839 

> <ConfTolerance>
0.172386 

> <RosettaParamsInstructions>
M  ROOT 3
M  POLY_N_BB 3
M  POLY_CA_BB 4
M  POLY_C_BB 2
M  POLY_O_BB 5
M  POLY_IGNORE 9 10 11 12 13 14 15 16 17 18 
M  POLY_UPPER 6
M  POLY_LOWER 8
M  POLY_CHG 0
M  POLY_PROPERTIES ALPHA_AA L_AA PROTEIN AROMATIC POLYMER 
M  END

$$$$



 32 32  0  0  0  0  0  0  0  0999 V2000
    0.1879    3.0903   -0.0453 H   0  0  0  1  0  0  0  0  0  0  0  0
    0.2114    1.0156    0.4154 C   0  0  0  1  0  0  0  0  0  0  0  0
   -1.3308    2.1112   -1.0693 N   0  0  0  1  0  0  0  0  0  0  0  0
   -0.5294    2.3156    0.1281 C   0  0  0  1  0  0  0  0  0  0  0  0
   -0.2527   -0.0721    0.0760 O   0  0  0  1  0  0  0  0  0  0  0  0
    1.3848    1.1421    1.0536 N   0  0  0  1  0  0  0  0  0  0  0  0
   -2.0035    1.3986   -1.0723 H   0  0  0  1  0  0  0  0  0  0  0  0
   -1.1816    2.8602   -2.1630 C   0  0  0  1  0  0  0  0  0  0  0  0
    2.2781    0.0137    1.2691 C   0  0  0  1  0  0  0  0  0  0  0  0
   -2.1526    2.5692   -3.3030 C   0  0  0  1  0  0  0  0  0  0  0  0
   -0.3218    3.7343   -2.2641 O   0  0  0  1  0  0  0  0  0  0  0  0
    1.6495    2.0251    1.3861 H   0  0  0  1  0  0  0  0  0  0  0  0
    1.7242   -0.8990    1.1982 H   0  0  0  1  0  0  0  0  0  0  0  0
    2.7187    0.0885    2.2413 H   0  0  0  1  0  0  0  0  0  0  0  0
    3.0483    0.0218    0.5264 H   0  0  0  1  0  0  0  0  0  0  0  0
   -3.1546    2.7490   -2.9734 H   0  0  0  1  0  0  0  0  0  0  0  0
   -2.0541    1.5468   -3.6029 H   0  0  0  1  0  0  0  0  0  0  0  0
   -1.9302    3.2077   -4.1323 H   0  0  0  1  0  0  0  0  0  0  0  0
   -3.8843    7.6784    0.4533 F   0  0  0  1  0  0  0  0  0  0  0  0
   -3.2892    6.4887    0.6639 C   0  0  0  1  0  0  0  0  0  0  0  0
   -2.0333    6.4356    1.2481 C   0  0  0  1  0  0  0  0  0  0  0  0
   -1.4202    5.2151    1.4594 C   0  0  0  1  0  0  0  0  0  0  0  0
   -2.0637    4.0436    1.0920 C   0  0  0  1  0  0  0  0  0  0  0  0
   -3.3160    4.0963    0.5094 C   0  0  0  1  0  0  0  0  0  0  0  0
   -3.9307    5.3205    0.2975 C   0  0  0  1  0  0  0  0  0  0  0  0
   -1.3968    2.7090    1.3279 C   0  0  0  1  0  0  0  0  0  0  0  0
   -1.5523    7.3143    1.5275 H   0  0  0  1  0  0  0  0  0  0  0  0
   -0.4762    5.1756    1.8941 H   0  0  0  1  0  0  0  0  0  0  0  0
   -3.7969    3.2175    0.2300 H   0  0  0  1  0  0  0  0  0  0  0  0
   -4.8747    5.3600   -0.1371 H   0  0  0  1  0  0  0  0  0  0  0  0
   -0.7804    2.7742    2.2001 H   0  0  0  1  0  0  0  0  0  0  0  0
   -2.1488    1.9626    1.4770 H   0  0  0  1  0  0  0  0  0  0  0  0
  1  4  1  0  0  0  0
  2  4  1  0  0  0  0
  2  5  2  0  0  0  0
  2  6  1  0  0  0  0
  3  4  1  0  0  0  0
  3  7  1  0  0  0  0
  3  8  1  0  0  0  0
  4 26  1  0  0  0  0
  6  9  1  0  0  0  0
  6 12  1  0  0  0  0
  8 10  1  0  0  0  0
  8 11  2  0  0  0  0
  9 13  1  0  0  0  0
  9 14  1  0  0  0  0
  9 15  1  0  0  0  0
 10 16  1  0  0  0  0
 10 17  1  0  0  0  0
 10 18  1  0  0  0  0
 19 20  1  0  0  0  0
 20 21  4  0  0  0  0
 20 25  4  0  0  0  0
 21 22  4  0  0  0  0
 21 27  1  0  0  0  0
 22 23  4  0  0  0  0
 22 28  1  0  0  0  0
 23 24  4  0  0  0  0
 23 26  1  0  0  0  0
 24 25  4  0  0  0  0
 24 29  1  0  0  0  0
 25 30  1  0  0  0  0
 26 31  1  0  0  0  0
 26 32  1  0  0  0  0
M  END
> <BCLConfClusterSize>
1

> <ConfClashScore>
0 

> <ConfOneFourInteractionScore>
-0.990503 

> <ConfScore>
-0.286657 

> <ConfScorePBest>
0.00771991 

> <ConfTolerance>
0.138988 

> <RosettaParamsInstructions>
M  ROOT 3
M  POLY_N_BB 3
M  POLY_CA_BB 4
M  POLY_C_BB 2
M  POLY_O_BB 5
M  POLY_IGNORE 9 10 11 12 13 14 15 16 17 18 
M  POLY_UPPER 6
M  POLY_LOWER 8
M  POLY_CHG 0
M  POLY_PROPERTIES ALPHA_AA L_AA PROTEIN AROMATIC POLYMER 
M  END

$$$$



 32 32  0  0  0  0  0  0  0  0999 V2000
    0.3747    3.1073    0.2502 H   0  0  0  1  0  0  0  0  0  0  0  0
    0.3729    1.0606    0.7764 C   0  0  0  1  0  0  0  0  0  0  0  0
   -0.9730    2.1672   -1.0012 N   0  0  0  1  0  0  0  0  0  0  0  0
   -0.3446    2.3170    0.3028 C   0  0  0  1  0  0  0  0  0  0  0  0
   -0.0634   -0.0539    0.5373 O   0  0  0  1  0  0  0  0  0  0  0  0
    1.4926    1.3074    1.4581 N   0  0  0  1  0  0  0  0  0  0  0  0
   -1.7125    1.5348   -1.1180 H   0  0  0  1  0  0  0  0  0  0  0  0
   -0.5440    2.8902   -2.0396 C   0  0  0  1  0  0  0  0  0  0  0  0
    2.3338    0.2922    2.0743 C   0  0  0  1  0  0  0  0  0  0  0  0
   -1.2471    2.6314   -3.3579 C   0  0  0  1  0  0  0  0  0  0  0  0
    0.3556    3.7114   -1.9517 O   0  0  0  1  0  0  0  0  0  0  0  0
    1.7697    2.2428    1.5509 H   0  0  0  1  0  0  0  0  0  0  0  0
    1.7190   -0.4888    2.4704 H   0  0  0  1  0  0  0  0  0  0  0  0
    2.9034    0.7334    2.8654 H   0  0  0  1  0  0  0  0  0  0  0  0
    2.9975   -0.1144    1.3401 H   0  0  0  1  0  0  0  0  0  0  0  0
   -2.2657    2.9518   -3.2883 H   0  0  0  1  0  0  0  0  0  0  0  0
   -1.2169    1.5848   -3.5785 H   0  0  0  1  0  0  0  0  0  0  0  0
   -0.7550    3.1750   -4.1371 H   0  0  0  1  0  0  0  0  0  0  0  0
   -3.8565    7.6941    0.4672 F   0  0  0  1  0  0  0  0  0  0  0  0
   -3.2949    6.4853    0.6610 C   0  0  0  1  0  0  0  0  0  0  0  0
   -2.0390    6.4357    1.2455 C   0  0  0  1  0  0  0  0  0  0  0  0
   -1.4232    5.2167    1.4581 C   0  0  0  1  0  0  0  0  0  0  0  0
   -2.0640    4.0435    1.0918 C   0  0  0  1  0  0  0  0  0  0  0  0
   -3.3163    4.0927    0.5090 C   0  0  0  1  0  0  0  0  0  0  0  0
   -3.9338    5.3154    0.2958 C   0  0  0  1  0  0  0  0  0  0  0  0
   -1.3943    2.7106    1.3292 C   0  0  0  1  0  0  0  0  0  0  0  0
   -1.5599    7.3158    1.5240 H   0  0  0  1  0  0  0  0  0  0  0  0
   -0.4792    5.1798    1.8930 H   0  0  0  1  0  0  0  0  0  0  0  0
   -3.7954    3.2126    0.2305 H   0  0  0  1  0  0  0  0  0  0  0  0
   -4.8778    5.3524   -0.1391 H   0  0  0  1  0  0  0  0  0  0  0  0
   -0.9213    2.7451    2.2884 H   0  0  0  1  0  0  0  0  0  0  0  0
   -2.1527    1.9559    1.3318 H   0  0  0  1  0  0  0  0  0  0  0  0
  1  4  1  0  0  0  0
  2  4  1  0  0  0  0
  2  5  2  0  0  0  0
  2  6  1  0  0  0  0
  3  4  1  0  0  0  0
  3  7  1  0  0  0  0
  3  8  1  0  0  0  0
  4 26  1  0  0  0  0
  6  9  1  0  0  0  0
  6 12  1  0  0  0  0
  8 10  1  0  0  0  0
  8 11  2  0  0  0  0
  9 13  1  0  0  0  0
  9 14  1  0  0  0  0
  9 15  1  0  0  0  0
 10 16  1  0  0  0  0
 10 17  1  0  0  0  0
 10 18  1  0  0  0  0
 19 20  1  0  0  0  0
 20 21  4  0  0  0  0
 20 25  4  0  0  0  0
 21 22  4  0  0  0  0
 21 27  1  0  0  0  0
 22 23  4  0  0  0  0
 22 28  1  0  0  0  0
 23 24  4  0  0  0  0
 23 26  1  0  0  0  0
 24 25  4  0  0  0  0
 24 29  1  0  0  0  0
 25 30  1  0  0  0  0
 26 31  1  0  0  0  0
 26 32  1  0  0  0  0
M  END
> <BCLConfClusterSize>
1

> <ConfClashScore>
0 

> <ConfOneFourInteractionScore>
-0.978127 

> <ConfScore>
-0.286657 

> <ConfScorePBest>
0.00769143 

> <ConfTolerance>
0.170617 

> <RosettaParamsInstructions>
M  ROOT 3
M  POLY_N_BB 3
M  POLY_CA_BB 4
M  POLY_C_BB 2
M  POLY_O_BB 5
M  POLY_IGNORE 9 10 11 12 13 14 15 16 17 18 
M  POLY_UPPER 6
M  POLY_LOWER 8
M  POLY_CHG 0
M  POLY_PROPERTIES ALPHA_AA L_AA PROTEIN AROMATIC POLYMER 
M  END

$$$$



 32 32  0  0  0  0  0  0  0  0999 V2000
   -3.0131    1.8625    2.4792 H   0  0  0  1  0  0  0  0  0  0  0  0
   -1.2238    0.9725    3.1780 C   0  0  0  1  0  0  0  0  0  0  0  0
   -2.0412    3.2142    3.7051 N   0  0  0  1  0  0  0  0  0  0  0  0
   -2.0116    2.1800    2.6817 C   0  0  0  1  0  0  0  0  0  0  0  0
   -0.1853    1.1088    3.8193 O   0  0  0  1  0  0  0  0  0  0  0  0
   -1.7361   -0.2200    2.8700 N   0  0  0  1  0  0  0  0  0  0  0  0
   -1.1927    3.5645    4.0482 H   0  0  0  1  0  0  0  0  0  0  0  0
   -3.1808    3.7011    4.1914 C   0  0  0  1  0  0  0  0  0  0  0  0
   -1.0957   -1.4662    3.2633 C   0  0  0  1  0  0  0  0  0  0  0  0
   -3.1031    4.7353    5.3089 C   0  0  0  1  0  0  0  0  0  0  0  0
   -4.2956    3.3664    3.7929 O   0  0  0  1  0  0  0  0  0  0  0  0
   -2.5727   -0.2582    2.3611 H   0  0  0  1  0  0  0  0  0  0  0  0
   -0.0379   -1.3834    3.1250 H   0  0  0  1  0  0  0  0  0  0  0  0
   -1.4724   -2.2662    2.6607 H   0  0  0  1  0  0  0  0  0  0  0  0
   -1.3059   -1.6654    4.2933 H   0  0  0  1  0  0  0  0  0  0  0  0
   -2.7166    4.2759    6.1946 H   0  0  0  1  0  0  0  0  0  0  0  0
   -4.0813    5.1217    5.5057 H   0  0  0  1  0  0  0  0  0  0  0  0
   -2.4568    5.5343    5.0108 H   0  0  0  1  0  0  0  0  0  0  0  0
   -3.8641    7.6931    0.4856 F   0  0  0  1  0  0  0  0  0  0  0  0
   -3.2975    6.4848    0.6666 C   0  0  0  1  0  0  0  0  0  0  0  0
   -2.0385    6.4346    1.2447 C   0  0  0  1  0  0  0  0  0  0  0  0
   -1.4176    5.2160    1.4441 C   0  0  0  1  0  0  0  0  0  0  0  0
   -2.0561    4.0437    1.0710 C   0  0  0  1  0  0  0  0  0  0  0  0
   -3.3114    4.0934    0.4947 C   0  0  0  1  0  0  0  0  0  0  0  0
   -3.9340    5.3157    0.2947 C   0  0  0  1  0  0  0  0  0  0  0  0
   -1.4136    2.7136    1.3865 C   0  0  0  1  0  0  0  0  0  0  0  0
   -1.5612    7.3139    1.5283 H   0  0  0  1  0  0  0  0  0  0  0  0
   -0.4714    5.1788    1.8741 H   0  0  0  1  0  0  0  0  0  0  0  0
   -3.7887    3.2140    0.2111 H   0  0  0  1  0  0  0  0  0  0  0  0
   -4.8802    5.3530   -0.1353 H   0  0  0  1  0  0  0  0  0  0  0  0
   -1.6037    2.0238    0.5909 H   0  0  0  1  0  0  0  0  0  0  0  0
   -0.3578    2.8421    1.5033 H   0  0  0  1  0  0  0  0  0  0  0  0
  1  4  1  0  0  0  0
  2  4  1  0  0  0  0
  2  5  2  0  0  0  0
  2  6  1  0  0  0  0
  3  4  1  0  0  0  0
  3  7  1  0  0  0  0
  3  8  1  0  0  0  0
  4 26  1  0  0  0  0
  6  9  1  0  0  0  0
  6 12  1  0  0  0  0
  8 10  1  0  0  0  0
  8 11  2  0  0  0  0
  9 13  1  0  0  0  0
  9 14  1  0  0  0  0
  9 15  1  0  0  0  0
 10 16  1  0  0  0  0
 10 17  1  0  0  0  0
 10 18  1  0  0  0  0
 19 20  1  0  0  0  0
 20 21  4  0  0  0  0
 20 25  4  0  0  0  0
 21 22  4  0  0  0  0
 21 27  1  0  0  0  0
 22 23  4  0  0  0  0
 22 28  1  0  0  0  0
 23 24  4  0  0  0  0
 23 26  1  0  0  0  0
 24 25  4  0  0  0  0
 24 29  1  0  0  0  0
 25 30  1  0  0  0  0
 26 31  1  0  0  0  0
 26 32  1  0  0  0  0
M  END
> <BCLConfClusterSize>
1

> <ConfClashScore>
0 

> <ConfOneFourInteractionScore>
-0.967251 

> <ConfScore>
-0.285401 

> <ConfScorePBest>
0.00766295 

> <ConfTolerance>
0.257276 

> <RosettaParamsInstructions>
M  ROOT 3
M  POLY_N_BB 3
M  POLY_CA_BB 4
M  POLY_C_BB 2
M  POLY_O_BB 5
M  POLY_IGNORE 9 10 11 12 13 14 15 16 17 18 
M  POLY_UPPER 6
M  POLY_LOWER 8
M  POLY_CHG 0
M  POLY_PROPERTIES ALPHA_AA L_AA PROTEIN AROMATIC POLYMER 
M  END

$$$$



 32 32  0  0  0  0  0  0  0  0999 V2000
    0.1508    2.8667   -0.0700 H   0  0  0  1  0  0  0  0  0  0  0  0
    0.1841    0.8612    0.5518 C   0  0  0  1  0  0  0  0  0  0  0  0
   -1.4364    1.8980   -0.9769 N   0  0  0  1  0  0  0  0  0  0  0  0
   -0.5759    2.1292    0.2002 C   0  0  0  1  0  0  0  0  0  0  0  0
    1.3029    0.9005    1.0622 O   0  0  0  1  0  0  0  0  0  0  0  0
   -0.4770   -0.2611    0.2543 N   0  0  0  1  0  0  0  0  0  0  0  0
   -2.4075    1.9840   -0.8771 H   0  0  0  1  0  0  0  0  0  0  0  0
   -0.9373    1.5757   -2.1736 C   0  0  0  1  0  0  0  0  0  0  0  0
    0.0134   -1.5768    0.6368 C   0  0  0  1  0  0  0  0  0  0  0  0
   -1.9592    1.4001   -3.2924 C   0  0  0  1  0  0  0  0  0  0  0  0
    0.2664    1.4258   -2.3791 O   0  0  0  1  0  0  0  0  0  0  0  0
   -1.3215   -0.1960   -0.2386 H   0  0  0  1  0  0  0  0  0  0  0  0
    1.0831   -1.5804    0.6120 H   0  0  0  1  0  0  0  0  0  0  0  0
   -0.3615   -2.3095   -0.0470 H   0  0  0  1  0  0  0  0  0  0  0  0
   -0.3209   -1.8079    1.6266 H   0  0  0  1  0  0  0  0  0  0  0  0
   -2.9451    1.3862   -2.8767 H   0  0  0  1  0  0  0  0  0  0  0  0
   -1.7745    0.4777   -3.8024 H   0  0  0  1  0  0  0  0  0  0  0  0
   -1.8750    2.2131   -3.9829 H   0  0  0  1  0  0  0  0  0  0  0  0
   -3.8843    7.6784    0.4533 F   0  0  0  1  0  0  0  0  0  0  0  0
   -3.2892    6.4887    0.6639 C   0  0  0  1  0  0  0  0  0  0  0  0
   -2.0333    6.4356    1.2481 C   0  0  0  1  0  0  0  0  0  0  0  0
   -1.4202    5.2151    1.4594 C   0  0  0  1  0  0  0  0  0  0  0  0
   -2.0637    4.0436    1.0920 C   0  0  0  1  0  0  0  0  0  0  0  0
   -3.3160    4.0963    0.5094 C   0  0  0  1  0  0  0  0  0  0  0  0
   -3.9307    5.3205    0.2975 C   0  0  0  1  0  0  0  0  0  0  0  0
   -1.3968    2.7090    1.3279 C   0  0  0  1  0  0  0  0  0  0  0  0
   -1.5523    7.3143    1.5275 H   0  0  0  1  0  0  0  0  0  0  0  0
   -0.4762    5.1756    1.8941 H   0  0  0  1  0  0  0  0  0  0  0  0
   -3.7969    3.2175    0.2300 H   0  0  0  1  0  0  0  0  0  0  0  0
   -4.8747    5.3600   -0.1371 H   0  0  0  1  0  0  0  0  0  0  0  0
   -0.7483    2.8199    2.1718 H   0  0  0  1  0  0  0  0  0  0  0  0
   -2.1667    2.0029    1.5594 H   0  0  0  1  0  0  0  0  0  0  0  0
  1  4  1  0  0  0  0
  2  4  1  0  0  0  0
  2  5  2  0  0  0  0
  2  6  1  0  0  0  0
  3  4  1  0  0  0  0
  3  7  1  0  0  0  0
  3  8  1  0  0  0  0
  4 26  1  0  0  0  0
  6  9  1  0  0  0  0
  6 12  1  0  0  0  0
  8 10  1  0  0  0  0
  8 11  2  0  0  0  0
  9 13  1  0  0  0  0
  9 14  1  0  0  0  0
  9 15  1  0  0  0  0
 10 16  1  0  0  0  0
 10 17  1  0  0  0  0
 10 18  1  0  0  0  0
 19 20  1  0  0  0  0
 20 21  4  0  0  0  0
 20 25  4  0  0  0  0
 21 22  4  0  0  0  0
 21 27  1  0  0  0  0
 22 23  4  0  0  0  0
 22 28  1  0  0  0  0
 23 24  4  0  0  0  0
 23 26  1  0  0  0  0
 24 25  4  0  0  0  0
 24 29  1  0  0  0  0
 25 30  1  0  0  0  0
 26 31  1  0  0  0  0
 26 32  1  0  0  0  0
M  END
> <BCLConfClusterSize>
1

> <ConfClashScore>
0 

> <ConfOneFourInteractionScore>
-0.960318 

> <ConfScore>
-0.283278 

> <ConfScorePBest>
0.00763447 

> <ConfTolerance>
0.133244 

> <RosettaParamsInstructions>
M  ROOT 3
M  POLY_N_BB 3
M  POLY_CA_BB 4
M  POLY_C_BB 2
M  POLY_O_BB 5
M  POLY_IGNORE 9 10 11 12 13 14 15 16 17 18 
M  POLY_UPPER 6
M  POLY_LOWER 8
M  POLY_CHG 0
M  POLY_PROPERTIES ALPHA_AA L_AA PROTEIN AROMATIC POLYMER 
M  END

$$$$



 32 32  0  0  0  0  0  0  0  0999 V2000
   -2.5121    2.2903    3.0556 H   0  0  0  1  0  0  0  0  0  0  0  0
   -1.0274    0.8227    3.0435 C   0  0  0  1  0  0  0  0  0  0  0  0
   -0.7666    3.1972    3.6681 N   0  0  0  1  0  0  0  0  0  0  0  0
   -1.4775    2.2476    2.7859 C   0  0  0  1  0  0  0  0  0  0  0  0
   -1.7096   -0.1286    2.7002 O   0  0  0  1  0  0  0  0  0  0  0  0
    0.1490    0.6886    3.6626 N   0  0  0  1  0  0  0  0  0  0  0  0
   -0.1866    3.8755    3.2633 H   0  0  0  1  0  0  0  0  0  0  0  0
   -0.8913    3.1618    5.0404 C   0  0  0  1  0  0  0  0  0  0  0  0
    0.6788   -0.6370    3.9455 C   0  0  0  1  0  0  0  0  0  0  0  0
   -0.1264    4.2091    5.7960 C   0  0  0  1  0  0  0  0  0  0  0  0
   -1.5891    2.3164    5.5679 O   0  0  0  1  0  0  0  0  0  0  0  0
    0.6561    1.4845    3.9266 H   0  0  0  1  0  0  0  0  0  0  0  0
    0.0140   -1.1539    4.6057 H   0  0  0  1  0  0  0  0  0  0  0  0
    1.6398   -0.5456    4.4071 H   0  0  0  1  0  0  0  0  0  0  0  0
    0.7722   -1.1860    3.0319 H   0  0  0  1  0  0  0  0  0  0  0  0
    0.9082    4.1591    5.5275 H   0  0  0  1  0  0  0  0  0  0  0  0
   -0.2306    4.0377    6.8470 H   0  0  0  1  0  0  0  0  0  0  0  0
   -0.5115    5.1771    5.5520 H   0  0  0  1  0  0  0  0  0  0  0  0
   -3.8843    7.6784    0.4533 F   0  0  0  1  0  0  0  0  0  0  0  0
   -3.2892    6.4887    0.6639 C   0  0  0  1  0  0  0  0  0  0  0  0
   -2.0333    6.4356    1.2481 C   0  0  0  1  0  0  0  0  0  0  0  0
   -1.4202    5.2151    1.4594 C   0  0  0  1  0  0  0  0  0  0  0  0
   -2.0637    4.0436    1.0920 C   0  0  0  1  0  0  0  0  0  0  0  0
   -3.3160    4.0963    0.5094 C   0  0  0  1  0  0  0  0  0  0  0  0
   -3.9307    5.3205    0.2975 C   0  0  0  1  0  0  0  0  0  0  0  0
   -1.3968    2.7090    1.3279 C   0  0  0  1  0  0  0  0  0  0  0  0
   -1.5523    7.3143    1.5275 H   0  0  0  1  0  0  0  0  0  0  0  0
   -0.4762    5.1756    1.8941 H   0  0  0  1  0  0  0  0  0  0  0  0
   -3.7969    3.2175    0.2300 H   0  0  0  1  0  0  0  0  0  0  0  0
   -4.8747    5.3600   -0.1371 H   0  0  0  1  0  0  0  0  0  0  0  0
   -1.8743    1.9761    0.7118 H   0  0  0  1  0  0  0  0  0  0  0  0
   -0.3659    2.7901    1.0529 H   0  0  0  1  0  0  0  0  0  0  0  0
  1  4  1  0  0  0  0
  2  4  1  0  0  0  0
  2  5  2  0  0  0  0
  2  6  1  0  0  0  0
  3  4  1  0  0  0  0
  3  7  1  0  0  0  0
  3  8  1  0  0  0  0
  4 26  1  0  0  0  0
  6  9  1  0  0  0  0
  6 12  1  0  0  0  0
  8 10  1  0  0  0  0
  8 11  2  0  0  0  0
  9 13  1  0  0  0  0
  9 14  1  0  0  0  0
  9 15  1  0  0  0  0
 10 16  1  0  0  0  0
 10 17  1  0  0  0  0
 10 18  1  0  0  0  0
 19 20  1  0  0  0  0
 20 21  4  0  0  0  0
 20 25  4  0  0  0  0
 21 22  4  0  0  0  0
 21 27  1  0  0  0  0
 22 23  4  0  0  0  0
 22 28  1  0  0  0  0
 23 24  4  0  0  0  0
 23 26  1  0  0  0  0
 24 25  4  0  0  0  0
 24 29  1  0  0  0  0
 25 30  1  0  0  0  0
 26 31  1  0  0  0  0
 26 32  1  0  0  0  0
M  END
> <BCLConfClusterSize>
1

> <ConfClashScore>
0 

> <ConfOneFourInteractionScore>
-0.94165 

> <ConfScore>
-0.282847 

> <ConfScorePBest>
0.00760599 

> <ConfTolerance>
0.174806 

> <RosettaParamsInstructions>
M  ROOT 3
M  POLY_N_BB 3
M  POLY_CA_BB 4
M  POLY_C_BB 2
M  POLY_O_BB 5
M  POLY_IGNORE 9 10 11 12 13 14 15 16 17 18 
M  POLY_UPPER 6
M  POLY_LOWER 8
M  POLY_CHG 0
M  POLY_PROPERTIES ALPHA_AA L_AA PROTEIN AROMATIC POLYMER 
M  END

$$$$



 32 32  0  0  0  0  0  0  0  0999 V2000
   -3.0866    1.5000    1.6031 H   0  0  0  1  0  0  0  0  0  0  0  0
   -1.4538    0.3941    2.3243 C   0  0  0  1  0  0  0  0  0  0  0  0
   -2.6011    2.2596    3.4442 N   0  0  0  1  0  0  0  0  0  0  0  0
   -2.1965    1.7150    2.1568 C   0  0  0  1  0  0  0  0  0  0  0  0
   -1.4692   -0.5035    1.5034 O   0  0  0  1  0  0  0  0  0  0  0  0
   -0.7564    0.2556    3.4554 N   0  0  0  1  0  0  0  0  0  0  0  0
   -2.3062    3.1613    3.6901 H   0  0  0  1  0  0  0  0  0  0  0  0
   -3.3605    1.5731    4.3028 C   0  0  0  1  0  0  0  0  0  0  0  0
    0.0415   -0.9286    3.7367 C   0  0  0  1  0  0  0  0  0  0  0  0
   -3.5829    2.2259    5.6531 C   0  0  0  1  0  0  0  0  0  0  0  0
   -3.8561    0.4799    4.0327 O   0  0  0  1  0  0  0  0  0  0  0  0
   -0.7830    0.9764    4.1188 H   0  0  0  1  0  0  0  0  0  0  0  0
    0.4302   -1.3231    2.8212 H   0  0  0  1  0  0  0  0  0  0  0  0
   -0.5710   -1.6666    4.2112 H   0  0  0  1  0  0  0  0  0  0  0  0
    0.8519   -0.6667    4.3845 H   0  0  0  1  0  0  0  0  0  0  0  0
   -2.6641    2.2346    6.2014 H   0  0  0  1  0  0  0  0  0  0  0  0
   -4.3187    1.6734    6.1993 H   0  0  0  1  0  0  0  0  0  0  0  0
   -3.9230    3.2305    5.5117 H   0  0  0  1  0  0  0  0  0  0  0  0
   -3.8565    7.6941    0.4672 F   0  0  0  1  0  0  0  0  0  0  0  0
   -3.2949    6.4853    0.6610 C   0  0  0  1  0  0  0  0  0  0  0  0
   -2.0390    6.4357    1.2455 C   0  0  0  1  0  0  0  0  0  0  0  0
   -1.4232    5.2167    1.4581 C   0  0  0  1  0  0  0  0  0  0  0  0
   -2.0640    4.0435    1.0918 C   0  0  0  1  0  0  0  0  0  0  0  0
   -3.3163    4.0927    0.5090 C   0  0  0  1  0  0  0  0  0  0  0  0
   -3.9338    5.3154    0.2958 C   0  0  0  1  0  0  0  0  0  0  0  0
   -1.3943    2.7106    1.3292 C   0  0  0  1  0  0  0  0  0  0  0  0
   -1.5599    7.3158    1.5240 H   0  0  0  1  0  0  0  0  0  0  0  0
   -0.4792    5.1798    1.8930 H   0  0  0  1  0  0  0  0  0  0  0  0
   -3.7954    3.2126    0.2305 H   0  0  0  1  0  0  0  0  0  0  0  0
   -4.8778    5.3524   -0.1391 H   0  0  0  1  0  0  0  0  0  0  0  0
   -1.1981    2.2654    0.3762 H   0  0  0  1  0  0  0  0  0  0  0  0
   -0.4694    2.8916    1.8360 H   0  0  0  1  0  0  0  0  0  0  0  0
  1  4  1  0  0  0  0
  2  4  1  0  0  0  0
  2  5  2  0  0  0  0
  2  6  1  0  0  0  0
  3  4  1  0  0  0  0
  3  7  1  0  0  0  0
  3  8  1  0  0  0  0
  4 26  1  0  0  0  0
  6  9  1  0  0  0  0
  6 12  1  0  0  0  0
  8 10  1  0  0  0  0
  8 11  2  0  0  0  0
  9 13  1  0  0  0  0
  9 14  1  0  0  0  0
  9 15  1  0  0  0  0
 10 16  1  0  0  0  0
 10 17  1  0  0  0  0
 10 18  1  0  0  0  0
 19 20  1  0  0  0  0
 20 21  4  0  0  0  0
 20 25  4  0  0  0  0
 21 22  4  0  0  0  0
 21 27  1  0  0  0  0
 22 23  4  0  0  0  0
 22 28  1  0  0  0  0
 23 24  4  0  0  0  0
 23 26  1  0  0  0  0
 24 25  4  0  0  0  0
 24 29  1  0  0  0  0
 25 30  1  0  0  0  0
 26 31  1  0  0  0  0
 26 32  1  0  0  0  0
M  END
> <BCLConfClusterSize>
1

> <ConfClashScore>
0 

> <ConfOneFourInteractionScore>
-0.94165 

> <ConfScore>
-0.282813 

> <ConfScorePBest>
0.00757751 

> <ConfTolerance>
0.153474 

> <RosettaParamsInstructions>
M  ROOT 3
M  POLY_N_BB 3
M  POLY_CA_BB 4
M  POLY_C_BB 2
M  POLY_O_BB 5
M  POLY_IGNORE 9 10 11 12 13 14 15 16 17 18 
M  POLY_UPPER 6
M  POLY_LOWER 8
M  POLY_CHG 0
M  POLY_PROPERTIES ALPHA_AA L_AA PROTEIN AROMATIC POLYMER 
M  END

$$$$



 32 32  0  0  0  0  0  0  0  0999 V2000
   -0.0213    2.7401   -0.2721 H   0  0  0  1  0  0  0  0  0  0  0  0
   -0.2368    0.7301    0.3447 C   0  0  0  1  0  0  0  0  0  0  0  0
   -1.8312    2.0746   -1.0192 N   0  0  0  1  0  0  0  0  0  0  0  0
   -0.8226    2.1005    0.0341 C   0  0  0  1  0  0  0  0  0  0  0  0
    0.8458    0.6134    0.9173 O   0  0  0  1  0  0  0  0  0  0  0  0
   -0.9746   -0.3215   -0.0451 N   0  0  0  1  0  0  0  0  0  0  0  0
   -2.7535    2.3202   -0.7970 H   0  0  0  1  0  0  0  0  0  0  0  0
   -1.5414    1.7276   -2.2764 C   0  0  0  1  0  0  0  0  0  0  0  0
   -0.5179   -1.6939    0.1155 C   0  0  0  1  0  0  0  0  0  0  0  0
   -2.6879    1.8010   -3.2800 C   0  0  0  1  0  0  0  0  0  0  0  0
   -0.4003    1.4422   -2.6359 O   0  0  0  1  0  0  0  0  0  0  0  0
   -1.8514   -0.1593   -0.4518 H   0  0  0  1  0  0  0  0  0  0  0  0
   -0.8236   -2.2733   -0.7305 H   0  0  0  1  0  0  0  0  0  0  0  0
   -0.9437   -2.1095    1.0048 H   0  0  0  1  0  0  0  0  0  0  0  0
    0.5494   -1.7079    0.1902 H   0  0  0  1  0  0  0  0  0  0  0  0
   -3.4219    1.0609   -3.0385 H   0  0  0  1  0  0  0  0  0  0  0  0
   -2.3112    1.6212   -4.2653 H   0  0  0  1  0  0  0  0  0  0  0  0
   -3.1348    2.7724   -3.2403 H   0  0  0  1  0  0  0  0  0  0  0  0
   -3.8601    7.6920    0.4654 F   0  0  0  1  0  0  0  0  0  0  0  0
   -3.2947    6.4854    0.6611 C   0  0  0  1  0  0  0  0  0  0  0  0
   -2.0387    6.4406    1.2459 C   0  0  0  1  0  0  0  0  0  0  0  0
   -1.4191    5.2239    1.4605 C   0  0  0  1  0  0  0  0  0  0  0  0
   -2.0561    4.0481    1.0958 C   0  0  0  1  0  0  0  0  0  0  0  0
   -3.3084    4.0925    0.5127 C   0  0  0  1  0  0  0  0  0  0  0  0
   -3.9297    5.3128    0.2975 C   0  0  0  1  0  0  0  0  0  0  0  0
   -1.4317    2.6896    1.3105 C   0  0  0  1  0  0  0  0  0  0  0  0
   -1.5625    7.3226    1.5232 H   0  0  0  1  0  0  0  0  0  0  0  0
   -0.4751    5.1906    1.8956 H   0  0  0  1  0  0  0  0  0  0  0  0
   -3.7846    3.2104    0.2354 H   0  0  0  1  0  0  0  0  0  0  0  0
   -4.8738    5.3462   -0.1376 H   0  0  0  1  0  0  0  0  0  0  0  0
   -0.6593    2.7821    2.0452 H   0  0  0  1  0  0  0  0  0  0  0  0
   -2.1863    2.0205    1.6680 H   0  0  0  1  0  0  0  0  0  0  0  0
  1  4  1  0  0  0  0
  2  4  1  0  0  0  0
  2  5  2  0  0  0  0
  2  6  1  0  0  0  0
  3  4  1  0  0  0  0
  3  7  1  0  0  0  0
  3  8  1  0  0  0  0
  4 26  1  0  0  0  0
  6  9  1  0  0  0  0
  6 12  1  0  0  0  0
  8 10  1  0  0  0  0
  8 11  2  0  0  0  0
  9 13  1  0  0  0  0
  9 14  1  0  0  0  0
  9 15  1  0  0  0  0
 10 16  1  0  0  0  0
 10 17  1  0  0  0  0
 10 18  1  0  0  0  0
 19 20  1  0  0  0  0
 20 21  4  0  0  0  0
 20 25  4  0  0  0  0
 21 22  4  0  0  0  0
 21 27  1  0  0  0  0
 22 23  4  0  0  0  0
 22 28  1  0  0  0  0
 23 24  4  0  0  0  0
 23 26  1  0  0  0  0
 24 25  4  0  0  0  0
 24 29  1  0  0  0  0
 25 30  1  0  0  0  0
 26 31  1  0  0  0  0
 26 32  1  0  0  0  0
M  END
> <BCLConfClusterSize>
1

> <ConfClashScore>
0 

> <ConfOneFourInteractionScore>
-0.960318 

> <ConfScore>
-0.275997 

> <ConfScorePBest>
0.00754903 

> <ConfTolerance>
0.204512 

> <RosettaParamsInstructions>
M  ROOT 3
M  POLY_N_BB 3
M  POLY_CA_BB 4
M  POLY_C_BB 2
M  POLY_O_BB 5
M  POLY_IGNORE 9 10 11 12 13 14 15 16 17 18 
M  POLY_UPPER 6
M  POLY_LOWER 8
M  POLY_CHG 0
M  POLY_PROPERTIES ALPHA_AA L_AA PROTEIN AROMATIC POLYMER 
M  END

$$$$



 32 32  0  0  0  0  0  0  0  0999 V2000
    0.4506    3.1387    0.4137 H   0  0  0  1  0  0  0  0  0  0  0  0
    0.3279    1.0484    0.5814 C   0  0  0  1  0  0  0  0  0  0  0  0
   -0.8527    2.4936   -1.0411 N   0  0  0  1  0  0  0  0  0  0  0  0
   -0.3116    2.3955    0.3063 C   0  0  0  1  0  0  0  0  0  0  0  0
    1.2215    0.9254    1.4149 O   0  0  0  1  0  0  0  0  0  0  0  0
   -0.1458    0.0198   -0.1396 N   0  0  0  1  0  0  0  0  0  0  0  0
   -1.8070    2.6738   -1.1728 H   0  0  0  1  0  0  0  0  0  0  0  0
   -0.0435    2.3370   -2.1092 C   0  0  0  1  0  0  0  0  0  0  0  0
    0.3037   -1.3590   -0.0191 C   0  0  0  1  0  0  0  0  0  0  0  0
   -0.7129    2.4506   -3.4650 C   0  0  0  1  0  0  0  0  0  0  0  0
    1.1626    2.1157   -2.0091 O   0  0  0  1  0  0  0  0  0  0  0  0
   -0.8470    0.2120   -0.7967 H   0  0  0  1  0  0  0  0  0  0  0  0
   -0.4435   -2.0142   -0.4156 H   0  0  0  1  0  0  0  0  0  0  0  0
    0.4700   -1.5908    1.0122 H   0  0  0  1  0  0  0  0  0  0  0  0
    1.2151   -1.4859   -0.5652 H   0  0  0  1  0  0  0  0  0  0  0  0
   -1.4509    1.6824   -3.5645 H   0  0  0  1  0  0  0  0  0  0  0  0
    0.0216    2.3412   -4.2354 H   0  0  0  1  0  0  0  0  0  0  0  0
   -1.1816    3.4086   -3.5519 H   0  0  0  1  0  0  0  0  0  0  0  0
   -3.8843    7.6784    0.4533 F   0  0  0  1  0  0  0  0  0  0  0  0
   -3.2892    6.4887    0.6639 C   0  0  0  1  0  0  0  0  0  0  0  0
   -2.0333    6.4356    1.2481 C   0  0  0  1  0  0  0  0  0  0  0  0
   -1.4202    5.2151    1.4594 C   0  0  0  1  0  0  0  0  0  0  0  0
   -2.0637    4.0436    1.0920 C   0  0  0  1  0  0  0  0  0  0  0  0
   -3.3160    4.0963    0.5094 C   0  0  0  1  0  0  0  0  0  0  0  0
   -3.9307    5.3205    0.2975 C   0  0  0  1  0  0  0  0  0  0  0  0
   -1.3968    2.7090    1.3279 C   0  0  0  1  0  0  0  0  0  0  0  0
   -1.5523    7.3143    1.5275 H   0  0  0  1  0  0  0  0  0  0  0  0
   -0.4762    5.1756    1.8941 H   0  0  0  1  0  0  0  0  0  0  0  0
   -3.7969    3.2175    0.2300 H   0  0  0  1  0  0  0  0  0  0  0  0
   -4.8747    5.3600   -0.1371 H   0  0  0  1  0  0  0  0  0  0  0  0
   -0.9552    2.7166    2.3025 H   0  0  0  1  0  0  0  0  0  0  0  0
   -2.1419    1.9427    1.2794 H   0  0  0  1  0  0  0  0  0  0  0  0
  1  4  1  0  0  0  0
  2  4  1  0  0  0  0
  2  5  2  0  0  0  0
  2  6  1  0  0  0  0
  3  4  1  0  0  0  0
  3  7  1  0  0  0  0
  3  8  1  0  0  0  0
  4 26  1  0  0  0  0
  6  9  1  0  0  0  0
  6 12  1  0  0  0  0
  8 10  1  0  0  0  0
  8 11  2  0  0  0  0
  9 13  1  0  0  0  0
  9 14  1  0  0  0  0
  9 15  1  0  0  0  0
 10 16  1  0  0  0  0
 10 17  1  0  0  0  0
 10 18  1  0  0  0  0
 19 20  1  0  0  0  0
 20 21  4  0  0  0  0
 20 25  4  0  0  0  0
 21 22  4  0  0  0  0
 21 27  1  0  0  0  0
 22 23  4  0  0  0  0
 22 28  1  0  0  0  0
 23 24  4  0  0  0  0
 23 26  1  0  0  0  0
 24 25  4  0  0  0  0
 24 29  1  0  0  0  0
 25 30  1  0  0  0  0
 26 31  1  0  0  0  0
 26 32  1  0  0  0  0
M  END
> <BCLConfClusterSize>
1

> <ConfClashScore>
0 

> <ConfOneFourInteractionScore>
-0.960318 

> <ConfScore>
-0.274297 

> <ConfScorePBest>
0.00752055 

> <ConfTolerance>
0.154656 

> <RosettaParamsInstructions>
M  ROOT 3
M  POLY_N_BB 3
M  POLY_CA_BB 4
M  POLY_C_BB 2
M  POLY_O_BB 5
M  POLY_IGNORE 9 10 11 12 13 14 15 16 17 18 
M  POLY_UPPER 6
M  POLY_LOWER 8
M  POLY_CHG 0
M  POLY_PROPERTIES ALPHA_AA L_AA PROTEIN AROMATIC POLYMER 
M  END

$$$$



 32 32  0  0  0  0  0  0  0  0999 V2000
    0.2289    2.9829    0.0887 H   0  0  0  1  0  0  0  0  0  0  0  0
    0.2694    0.9721    0.7048 C   0  0  0  1  0  0  0  0  0  0  0  0
   -1.2551    2.0061   -0.9490 N   0  0  0  1  0  0  0  0  0  0  0  0
   -0.4921    2.2141    0.2726 C   0  0  0  1  0  0  0  0  0  0  0  0
    1.3156    1.0701    1.3448 O   0  0  0  1  0  0  0  0  0  0  0  0
   -0.3393   -0.1948    0.4082 N   0  0  0  1  0  0  0  0  0  0  0  0
   -2.1872    2.3070   -0.9815 H   0  0  0  1  0  0  0  0  0  0  0  0
   -0.7290    1.4193   -2.0279 C   0  0  0  1  0  0  0  0  0  0  0  0
    0.1845   -1.4466    0.9340 C   0  0  0  1  0  0  0  0  0  0  0  0
   -1.6352    1.3304   -3.2349 C   0  0  0  1  0  0  0  0  0  0  0  0
    0.4175    0.9738   -2.0561 O   0  0  0  1  0  0  0  0  0  0  0  0
   -1.1360   -0.1995   -0.1625 H   0  0  0  1  0  0  0  0  0  0  0  0
    0.1840   -1.4128    2.0035 H   0  0  0  1  0  0  0  0  0  0  0  0
    1.1849   -1.5900    0.5825 H   0  0  0  1  0  0  0  0  0  0  0  0
   -0.4302   -2.2573    0.6027 H   0  0  0  1  0  0  0  0  0  0  0  0
   -2.6071    1.6978   -2.9796 H   0  0  0  1  0  0  0  0  0  0  0  0
   -1.7110    0.3105   -3.5493 H   0  0  0  1  0  0  0  0  0  0  0  0
   -1.2287    1.9200   -4.0299 H   0  0  0  1  0  0  0  0  0  0  0  0
   -3.8641    7.6931    0.4856 F   0  0  0  1  0  0  0  0  0  0  0  0
   -3.2975    6.4848    0.6666 C   0  0  0  1  0  0  0  0  0  0  0  0
   -2.0385    6.4346    1.2447 C   0  0  0  1  0  0  0  0  0  0  0  0
   -1.4176    5.2160    1.4441 C   0  0  0  1  0  0  0  0  0  0  0  0
   -2.0561    4.0437    1.0710 C   0  0  0  1  0  0  0  0  0  0  0  0
   -3.3114    4.0934    0.4947 C   0  0  0  1  0  0  0  0  0  0  0  0
   -3.9340    5.3157    0.2947 C   0  0  0  1  0  0  0  0  0  0  0  0
   -1.4136    2.7136    1.3865 C   0  0  0  1  0  0  0  0  0  0  0  0
   -1.5612    7.3139    1.5283 H   0  0  0  1  0  0  0  0  0  0  0  0
   -0.4714    5.1788    1.8741 H   0  0  0  1  0  0  0  0  0  0  0  0
   -3.7887    3.2140    0.2111 H   0  0  0  1  0  0  0  0  0  0  0  0
   -4.8802    5.3530   -0.1353 H   0  0  0  1  0  0  0  0  0  0  0  0
   -0.8389    2.8171    2.2832 H   0  0  0  1  0  0  0  0  0  0  0  0
   -2.1866    1.9897    1.5393 H   0  0  0  1  0  0  0  0  0  0  0  0
  1  4  1  0  0  0  0
  2  4  1  0  0  0  0
  2  5  2  0  0  0  0
  2  6  1  0  0  0  0
  3  4  1  0  0  0  0
  3  7  1  0  0  0  0
  3  8  1  0  0  0  0
  4 26  1  0  0  0  0
  6  9  1  0  0  0  0
  6 12  1  0  0  0  0
  8 10  1  0  0  0  0
  8 11  2  0  0  0  0
  9 13  1  0  0  0  0
  9 14  1  0  0  0  0
  9 15  1  0  0  0  0
 10 16  1  0  0  0  0
 10 17  1  0  0  0  0
 10 18  1  0  0  0  0
 19 20  1  0  0  0  0
 20 21  4  0  0  0  0
 20 25  4  0  0  0  0
 21 22  4  0  0  0  0
 21 27  1  0  0  0  0
 22 23  4  0  0  0  0
 22 28  1  0  0  0  0
 23 24  4  0  0  0  0
 23 26  1  0  0  0  0
 24 25  4  0  0  0  0
 24 29  1  0  0  0  0
 25 30  1  0  0  0  0
 26 31  1  0  0  0  0
 26 32  1  0  0  0  0
M  END
> <BCLConfClusterSize>
1

> <ConfClashScore>
0 

> <ConfOneFourInteractionScore>
-0.960318 

> <ConfScore>
-0.272673 

> <ConfScorePBest>
0.00749207 

> <ConfTolerance>
0.193683 

> <RosettaParamsInstructions>
M  ROOT 3
M  POLY_N_BB 3
M  POLY_CA_BB 4
M  POLY_C_BB 2
M  POLY_O_BB 5
M  POLY_IGNORE 9 10 11 12 13 14 15 16 17 18 
M  POLY_UPPER 6
M  POLY_LOWER 8
M  POLY_CHG 0
M  POLY_PROPERTIES ALPHA_AA L_AA PROTEIN AROMATIC POLYMER 
M  END

$$$$



 32 32  0  0  0  0  0  0  0  0999 V2000
   -2.7516    1.8810    2.6781 H   0  0  0  1  0  0  0  0  0  0  0  0
   -1.0043    0.7195    2.8429 C   0  0  0  1  0  0  0  0  0  0  0  0
   -1.3786    3.0206    3.7262 N   0  0  0  1  0  0  0  0  0  0  0  0
   -1.6963    2.0571    2.6664 C   0  0  0  1  0  0  0  0  0  0  0  0
   -1.5844   -0.3353    2.5991 O   0  0  0  1  0  0  0  0  0  0  0  0
    0.2660    0.7723    3.2773 N   0  0  0  1  0  0  0  0  0  0  0  0
   -0.9511    3.8773    3.5169 H   0  0  0  1  0  0  0  0  0  0  0  0
   -1.6886    2.6969    4.9849 C   0  0  0  1  0  0  0  0  0  0  0  0
    1.1480   -0.3805    3.4210 C   0  0  0  1  0  0  0  0  0  0  0  0
   -1.5139    3.7997    6.0107 C   0  0  0  1  0  0  0  0  0  0  0  0
   -2.0882    1.5901    5.3069 O   0  0  0  1  0  0  0  0  0  0  0  0
    0.6272    1.6516    3.5156 H   0  0  0  1  0  0  0  0  0  0  0  0
    0.7802   -1.1883    2.8234 H   0  0  0  1  0  0  0  0  0  0  0  0
    1.1772   -0.6811    4.4474 H   0  0  0  1  0  0  0  0  0  0  0  0
    2.1335   -0.1178    3.0975 H   0  0  0  1  0  0  0  0  0  0  0  0
   -0.6857    3.5676    6.6472 H   0  0  0  1  0  0  0  0  0  0  0  0
   -2.4035    3.8831    6.5995 H   0  0  0  1  0  0  0  0  0  0  0  0
   -1.3292    4.7268    5.5095 H   0  0  0  1  0  0  0  0  0  0  0  0
   -3.8810    7.6803    0.4549 F   0  0  0  1  0  0  0  0  0  0  0  0
   -3.2894    6.4885    0.6638 C   0  0  0  1  0  0  0  0  0  0  0  0
   -2.0335    6.4309    1.2477 C   0  0  0  1  0  0  0  0  0  0  0  0
   -1.4240    5.2083    1.4572 C   0  0  0  1  0  0  0  0  0  0  0  0
   -2.0710    4.0392    1.0883 C   0  0  0  1  0  0  0  0  0  0  0  0
   -3.3233    4.0964    0.5060 C   0  0  0  1  0  0  0  0  0  0  0  0
   -3.9344    5.3227    0.2959 C   0  0  0  1  0  0  0  0  0  0  0  0
   -1.3626    2.7301    1.3451 C   0  0  0  1  0  0  0  0  0  0  0  0
   -1.5498    7.3078    1.5282 H   0  0  0  1  0  0  0  0  0  0  0  0
   -0.4801    5.1654    1.8917 H   0  0  0  1  0  0  0  0  0  0  0  0
   -3.8069    3.2194    0.2255 H   0  0  0  1  0  0  0  0  0  0  0  0
   -4.8783    5.3657   -0.1385 H   0  0  0  1  0  0  0  0  0  0  0  0
   -1.6207    2.0549    0.5563 H   0  0  0  1  0  0  0  0  0  0  0  0
   -0.3090    2.9157    1.3260 H   0  0  0  1  0  0  0  0  0  0  0  0
  1  4  1  0  0  0  0
  2  4  1  0  0  0  0
  2  5  2  0  0  0  0
  2  6  1  0  0  0  0
  3  4  1  0  0  0  0
  3  7  1  0  0  0  0
  3  8  1  0  0  0  0
  4 26  1  0  0  0  0
  6  9  1  0  0  0  0
  6 12  1  0  0  0  0
  8 10  1  0  0  0  0
  8 11  2  0  0  0  0
  9 13  1  0  0  0  0
  9 14  1  0  0  0  0
  9 15  1  0  0  0  0
 10 16  1  0  0  0  0
 10 17  1  0  0  0  0
 10 18  1  0  0  0  0
 19 20  1  0  0  0  0
 20 21  4  0  0  0  0
 20 25  4  0  0  0  0
 21 22  4  0  0  0  0
 21 27  1  0  0  0  0
 22 23  4  0  0  0  0
 22 28  1  0  0  0  0
 23 24  4  0  0  0  0
 23 26  1  0  0  0  0
 24 25  4  0  0  0  0
 24 29  1  0  0  0  0
 25 30  1  0  0  0  0
 26 31  1  0  0  0  0
 26 32  1  0  0  0  0
M  END
> <BCLConfClusterSize>
1

> <ConfClashScore>
0 

> <ConfOneFourInteractionScore>
-0.960318 

> <ConfScore>
-0.271759 

> <ConfScorePBest>
0.00746359 

> <ConfTolerance>
0.224884 

> <RosettaParamsInstructions>
M  ROOT 3
M  POLY_N_BB 3
M  POLY_CA_BB 4
M  POLY_C_BB 2
M  POLY_O_BB 5
M  POLY_IGNORE 9 10 11 12 13 14 15 16 17 18 
M  POLY_UPPER 6
M  POLY_LOWER 8
M  POLY_CHG 0
M  POLY_PROPERTIES ALPHA_AA L_AA PROTEIN AROMATIC POLYMER 
M  END

$$$$



 32 32  0  0  0  0  0  0  0  0999 V2000
   -0.1531    3.0959   -0.3099 H   0  0  0  1  0  0  0  0  0  0  0  0
    0.4003    1.2099    0.3879 C   0  0  0  1  0  0  0  0  0  0  0  0
   -1.6067    1.8155   -0.9552 N   0  0  0  1  0  0  0  0  0  0  0  0
   -0.6676    2.2392    0.0727 C   0  0  0  1  0  0  0  0  0  0  0  0
    1.5307    1.5487    0.7357 O   0  0  0  1  0  0  0  0  0  0  0  0
    0.0301   -0.0677    0.2624 N   0  0  0  1  0  0  0  0  0  0  0  0
   -2.5675    1.8993   -0.7815 H   0  0  0  1  0  0  0  0  0  0  0  0
   -1.1892    1.2974   -2.1717 C   0  0  0  1  0  0  0  0  0  0  0  0
    0.9765   -1.1666    0.3821 C   0  0  0  1  0  0  0  0  0  0  0  0
   -2.2204    0.9268   -3.2003 C   0  0  0  1  0  0  0  0  0  0  0  0
    0.0047    1.1595   -2.3668 O   0  0  0  1  0  0  0  0  0  0  0  0
   -0.9116   -0.2718    0.0835 H   0  0  0  1  0  0  0  0  0  0  0  0
    1.9500   -0.8331    0.0890 H   0  0  0  1  0  0  0  0  0  0  0  0
    0.6697   -1.9719   -0.2522 H   0  0  0  1  0  0  0  0  0  0  0  0
    1.0057   -1.5029    1.3974 H   0  0  0  1  0  0  0  0  0  0  0  0
   -2.8665    0.1722   -2.8025 H   0  0  0  1  0  0  0  0  0  0  0  0
   -1.7321    0.5526   -4.0758 H   0  0  0  1  0  0  0  0  0  0  0  0
   -2.7968    1.7915   -3.4548 H   0  0  0  1  0  0  0  0  0  0  0  0
   -3.8843    7.6784    0.4533 F   0  0  0  1  0  0  0  0  0  0  0  0
   -3.2892    6.4887    0.6639 C   0  0  0  1  0  0  0  0  0  0  0  0
   -2.0333    6.4356    1.2481 C   0  0  0  1  0  0  0  0  0  0  0  0
   -1.4202    5.2151    1.4594 C   0  0  0  1  0  0  0  0  0  0  0  0
   -2.0637    4.0436    1.0920 C   0  0  0  1  0  0  0  0  0  0  0  0
   -3.3160    4.0963    0.5094 C   0  0  0  1  0  0  0  0  0  0  0  0
   -3.9307    5.3205    0.2975 C   0  0  0  1  0  0  0  0  0  0  0  0
   -1.3968    2.7090    1.3279 C   0  0  0  1  0  0  0  0  0  0  0  0
   -1.5523    7.3143    1.5275 H   0  0  0  1  0  0  0  0  0  0  0  0
   -0.4762    5.1756    1.8941 H   0  0  0  1  0  0  0  0  0  0  0  0
   -3.7969    3.2175    0.2300 H   0  0  0  1  0  0  0  0  0  0  0  0
   -4.8747    5.3600   -0.1371 H   0  0  0  1  0  0  0  0  0  0  0  0
   -0.6924    2.8054    2.1275 H   0  0  0  1  0  0  0  0  0  0  0  0
   -2.1408    1.9870    1.5924 H   0  0  0  1  0  0  0  0  0  0  0  0
  1  4  1  0  0  0  0
  2  4  1  0  0  0  0
  2  5  2  0  0  0  0
  2  6  1  0  0  0  0
  3  4  1  0  0  0  0
  3  7  1  0  0  0  0
  3  8  1  0  0  0  0
  4 26  1  0  0  0  0
  6  9  1  0  0  0  0
  6 12  1  0  0  0  0
  8 10  1  0  0  0  0
  8 11  2  0  0  0  0
  9 13  1  0  0  0  0
  9 14  1  0  0  0  0
  9 15  1  0  0  0  0
 10 16  1  0  0  0  0
 10 17  1  0  0  0  0
 10 18  1  0  0  0  0
 19 20  1  0  0  0  0
 20 21  4  0  0  0  0
 20 25  4  0  0  0  0
 21 22  4  0  0  0  0
 21 27  1  0  0  0  0
 22 23  4  0  0  0  0
 22 28  1  0  0  0  0
 23 24  4  0  0  0  0
 23 26  1  0  0  0  0
 24 25  4  0  0  0  0
 24 29  1  0  0  0  0
 25 30  1  0  0  0  0
 26 31  1  0  0  0  0
 26 32  1  0  0  0  0
M  END
> <BCLConfClusterSize>
1

> <ConfClashScore>
0 

> <ConfOneFourInteractionScore>
-0.956443 

> <ConfScore>
-0.271018 

> <ConfScorePBest>
0.0074351 

> <ConfTolerance>
0.196156 

> <RosettaParamsInstructions>
M  ROOT 3
M  POLY_N_BB 3
M  POLY_CA_BB 4
M  POLY_C_BB 2
M  POLY_O_BB 5
M  POLY_IGNORE 9 10 11 12 13 14 15 16 17 18 
M  POLY_UPPER 6
M  POLY_LOWER 8
M  POLY_CHG 0
M  POLY_PROPERTIES ALPHA_AA L_AA PROTEIN AROMATIC POLYMER 
M  END

$$$$



 32 32  0  0  0  0  0  0  0  0999 V2000
    0.5355    3.1061    0.4978 H   0  0  0  1  0  0  0  0  0  0  0  0
    0.2528    1.0161    0.4720 C   0  0  0  1  0  0  0  0  0  0  0  0
   -0.8321    2.6970   -0.9953 N   0  0  0  1  0  0  0  0  0  0  0  0
   -0.2748    2.4297    0.3222 C   0  0  0  1  0  0  0  0  0  0  0  0
    1.2346    0.7719    1.1722 O   0  0  0  1  0  0  0  0  0  0  0  0
   -0.4175    0.0688   -0.2028 N   0  0  0  1  0  0  0  0  0  0  0  0
   -1.7961    2.8530   -1.0783 H   0  0  0  1  0  0  0  0  0  0  0  0
   -0.0753    2.7373   -2.0956 C   0  0  0  1  0  0  0  0  0  0  0  0
   -0.0336   -1.3343   -0.1609 C   0  0  0  1  0  0  0  0  0  0  0  0
   -0.8177    2.8665   -3.4236 C   0  0  0  1  0  0  0  0  0  0  0  0
    1.1532    2.6797   -2.1286 O   0  0  0  1  0  0  0  0  0  0  0  0
   -1.1923    0.3313   -0.7425 H   0  0  0  1  0  0  0  0  0  0  0  0
   -0.7437   -1.9154   -0.7114 H   0  0  0  1  0  0  0  0  0  0  0  0
   -0.0119   -1.6677    0.8556 H   0  0  0  1  0  0  0  0  0  0  0  0
    0.9368   -1.4515   -0.5961 H   0  0  0  1  0  0  0  0  0  0  0  0
   -1.4098    3.7578   -3.4166 H   0  0  0  1  0  0  0  0  0  0  0  0
   -1.4539    2.0171   -3.5605 H   0  0  0  1  0  0  0  0  0  0  0  0
   -0.1098    2.9153   -4.2245 H   0  0  0  1  0  0  0  0  0  0  0  0
   -3.8810    7.6803    0.4549 F   0  0  0  1  0  0  0  0  0  0  0  0
   -3.2894    6.4885    0.6638 C   0  0  0  1  0  0  0  0  0  0  0  0
   -2.0335    6.4309    1.2477 C   0  0  0  1  0  0  0  0  0  0  0  0
   -1.4240    5.2083    1.4572 C   0  0  0  1  0  0  0  0  0  0  0  0
   -2.0710    4.0392    1.0883 C   0  0  0  1  0  0  0  0  0  0  0  0
   -3.3233    4.0964    0.5060 C   0  0  0  1  0  0  0  0  0  0  0  0
   -3.9344    5.3227    0.2959 C   0  0  0  1  0  0  0  0  0  0  0  0
   -1.3626    2.7301    1.3451 C   0  0  0  1  0  0  0  0  0  0  0  0
   -1.5498    7.3078    1.5282 H   0  0  0  1  0  0  0  0  0  0  0  0
   -0.4801    5.1654    1.8917 H   0  0  0  1  0  0  0  0  0  0  0  0
   -3.8069    3.2194    0.2255 H   0  0  0  1  0  0  0  0  0  0  0  0
   -4.8783    5.3657   -0.1385 H   0  0  0  1  0  0  0  0  0  0  0  0
   -0.9153    2.7698    2.3163 H   0  0  0  1  0  0  0  0  0  0  0  0
   -2.0845    1.9409    1.3163 H   0  0  0  1  0  0  0  0  0  0  0  0
  1  4  1  0  0  0  0
  2  4  1  0  0  0  0
  2  5  2  0  0  0  0
  2  6  1  0  0  0  0
  3  4  1  0  0  0  0
  3  7  1  0  0  0  0
  3  8  1  0  0  0  0
  4 26  1  0  0  0  0
  6  9  1  0  0  0  0
  6 12  1  0  0  0  0
  8 10  1  0  0  0  0
  8 11  2  0  0  0  0
  9 13  1  0  0  0  0
  9 14  1  0  0  0  0
  9 15  1  0  0  0  0
 10 16  1  0  0  0  0
 10 17  1  0  0  0  0
 10 18  1  0  0  0  0
 19 20  1  0  0  0  0
 20 21  4  0  0  0  0
 20 25  4  0  0  0  0
 21 22  4  0  0  0  0
 21 27  1  0  0  0  0
 22 23  4  0  0  0  0
 22 28  1  0  0  0  0
 23 24  4  0  0  0  0
 23 26  1  0  0  0  0
 24 25  4  0  0  0  0
 24 29  1  0  0  0  0
 25 30  1  0  0  0  0
 26 31  1  0  0  0  0
 26 32  1  0  0  0  0
M  END
> <BCLConfClusterSize>
1

> <ConfClashScore>
0 

> <ConfOneFourInteractionScore>
-0.9468 

> <ConfScore>
-0.269301 

> <ConfScorePBest>
0.00740662 

> <ConfTolerance>
0.203125 

> <RosettaParamsInstructions>
M  ROOT 3
M  POLY_N_BB 3
M  POLY_CA_BB 4
M  POLY_C_BB 2
M  POLY_O_BB 5
M  POLY_IGNORE 9 10 11 12 13 14 15 16 17 18 
M  POLY_UPPER 6
M  POLY_LOWER 8
M  POLY_CHG 0
M  POLY_PROPERTIES ALPHA_AA L_AA PROTEIN AROMATIC POLYMER 
M  END

$$$$



 32 32  0  0  0  0  0  0  0  0999 V2000
   -3.0104    1.8924    2.4554 H   0  0  0  1  0  0  0  0  0  0  0  0
   -1.3975    0.5690    2.6865 C   0  0  0  1  0  0  0  0  0  0  0  0
   -1.6999    2.7515    3.7777 N   0  0  0  1  0  0  0  0  0  0  0  0
   -1.9502    1.9834    2.5671 C   0  0  0  1  0  0  0  0  0  0  0  0
   -1.7253   -0.3085    1.9168 O   0  0  0  1  0  0  0  0  0  0  0  0
   -0.5410    0.4108    3.6997 N   0  0  0  1  0  0  0  0  0  0  0  0
   -1.1068    3.5301    3.7296 H   0  0  0  1  0  0  0  0  0  0  0  0
   -2.2505    2.4319    4.9523 C   0  0  0  1  0  0  0  0  0  0  0  0
   -0.0134   -0.8924    4.0754 C   0  0  0  1  0  0  0  0  0  0  0  0
   -1.9884    3.4015    6.0882 C   0  0  0  1  0  0  0  0  0  0  0  0
   -2.9285    1.4217    5.1203 O   0  0  0  1  0  0  0  0  0  0  0  0
   -0.2583    1.1999    4.2075 H   0  0  0  1  0  0  0  0  0  0  0  0
   -0.8162   -1.5963    4.1447 H   0  0  0  1  0  0  0  0  0  0  0  0
    0.4784   -0.8181    5.0228 H   0  0  0  1  0  0  0  0  0  0  0  0
    0.6857   -1.2208    3.3349 H   0  0  0  1  0  0  0  0  0  0  0  0
   -1.0440    3.8814    5.9375 H   0  0  0  1  0  0  0  0  0  0  0  0
   -1.9732    2.8682    7.0157 H   0  0  0  1  0  0  0  0  0  0  0  0
   -2.7631    4.1392    6.1130 H   0  0  0  1  0  0  0  0  0  0  0  0
   -3.8878    7.6762    0.4515 F   0  0  0  1  0  0  0  0  0  0  0  0
   -3.2890    6.4887    0.6640 C   0  0  0  1  0  0  0  0  0  0  0  0
   -2.0330    6.4405    1.2486 C   0  0  0  1  0  0  0  0  0  0  0  0
   -1.4161    5.2223    1.4618 C   0  0  0  1  0  0  0  0  0  0  0  0
   -2.0557    4.0482    1.0959 C   0  0  0  1  0  0  0  0  0  0  0  0
   -3.3080    4.0960    0.5131 C   0  0  0  1  0  0  0  0  0  0  0  0
   -3.9267    5.3180    0.2992 C   0  0  0  1  0  0  0  0  0  0  0  0
   -1.4343    2.6881    1.3092 C   0  0  0  1  0  0  0  0  0  0  0  0
   -1.5548    7.3212    1.5267 H   0  0  0  1  0  0  0  0  0  0  0  0
   -0.4721    5.1864    1.8967 H   0  0  0  1  0  0  0  0  0  0  0  0
   -3.7862    3.2153    0.2349 H   0  0  0  1  0  0  0  0  0  0  0  0
   -4.8707    5.3538   -0.1357 H   0  0  0  1  0  0  0  0  0  0  0  0
   -1.6561    2.0755    0.4605 H   0  0  0  1  0  0  0  0  0  0  0  0
   -0.3746    2.8078    1.3962 H   0  0  0  1  0  0  0  0  0  0  0  0
  1  4  1  0  0  0  0
  2  4  1  0  0  0  0
  2  5  2  0  0  0  0
  2  6  1  0  0  0  0
  3  4  1  0  0  0  0
  3  7  1  0  0  0  0
  3  8  1  0  0  0  0
  4 26  1  0  0  0  0
  6  9  1  0  0  0  0
  6 12  1  0  0  0  0
  8 10  1  0  0  0  0
  8 11  2  0  0  0  0
  9 13  1  0  0  0  0
  9 14  1  0  0  0  0
  9 15  1  0  0  0  0
 10 16  1  0  0  0  0
 10 17  1  0  0  0  0
 10 18  1  0  0  0  0
 19 20  1  0  0  0  0
 20 21  4  0  0  0  0
 20 25  4  0  0  0  0
 21 22  4  0  0  0  0
 21 27  1  0  0  0  0
 22 23  4  0  0  0  0
 22 28  1  0  0  0  0
 23 24  4  0  0  0  0
 23 26  1  0  0  0  0
 24 25  4  0  0  0  0
 24 29  1  0  0  0  0
 25 30  1  0  0  0  0
 26 31  1  0  0  0  0
 26 32  1  0  0  0  0
M  END
> <BCLConfClusterSize>
1

> <ConfClashScore>
0 

> <ConfOneFourInteractionScore>
-0.94165 

> <ConfScore>
-0.266351 

> <ConfScorePBest>
0.00737814 

> <ConfTolerance>
0.188584 

> <RosettaParamsInstructions>
M  ROOT 3
M  POLY_N_BB 3
M  POLY_CA_BB 4
M  POLY_C_BB 2
M  POLY_O_BB 5
M  POLY_IGNORE 9 10 11 12 13 14 15 16 17 18 
M  POLY_UPPER 6
M  POLY_LOWER 8
M  POLY_CHG 0
M  POLY_PROPERTIES ALPHA_AA L_AA PROTEIN AROMATIC POLYMER 
M  END

$$$$



 32 32  0  0  0  0  0  0  0  0999 V2000
   -3.1603    1.7002    1.7855 H   0  0  0  1  0  0  0  0  0  0  0  0
   -1.6018    0.3667    2.2551 C   0  0  0  1  0  0  0  0  0  0  0  0
   -2.3000    2.3877    3.5372 N   0  0  0  1  0  0  0  0  0  0  0  0
   -2.1816    1.7671    2.2130 C   0  0  0  1  0  0  0  0  0  0  0  0
   -2.0441   -0.5293    1.5373 O   0  0  0  1  0  0  0  0  0  0  0  0
   -0.5895    0.1802    3.1169 N   0  0  0  1  0  0  0  0  0  0  0  0
   -1.7578    3.1894    3.6911 H   0  0  0  1  0  0  0  0  0  0  0  0
   -3.0629    1.9840    4.5570 C   0  0  0  1  0  0  0  0  0  0  0  0
    0.1353   -1.0694    3.2930 C   0  0  0  1  0  0  0  0  0  0  0  0
   -3.1133    2.9167    5.7514 C   0  0  0  1  0  0  0  0  0  0  0  0
   -3.6863    0.9354    4.5458 O   0  0  0  1  0  0  0  0  0  0  0  0
   -0.3182    0.9431    3.6690 H   0  0  0  1  0  0  0  0  0  0  0  0
   -0.5228   -1.8929    3.1097 H   0  0  0  1  0  0  0  0  0  0  0  0
    0.5080   -1.1271    4.2943 H   0  0  0  1  0  0  0  0  0  0  0  0
    0.9535   -1.1069    2.6046 H   0  0  0  1  0  0  0  0  0  0  0  0
   -2.2693    3.5739    5.7273 H   0  0  0  1  0  0  0  0  0  0  0  0
   -3.0917    2.3419    6.6537 H   0  0  0  1  0  0  0  0  0  0  0  0
   -4.0145    3.4925    5.7163 H   0  0  0  1  0  0  0  0  0  0  0  0
   -3.9083    7.6636    0.4412 F   0  0  0  1  0  0  0  0  0  0  0  0
   -3.2837    6.4919    0.6666 C   0  0  0  1  0  0  0  0  0  0  0  0
   -2.0279    6.4309    1.2503 C   0  0  0  1  0  0  0  0  0  0  0  0
   -1.4211    5.2067    1.4585 C   0  0  0  1  0  0  0  0  0  0  0  0
   -2.0707    4.0395    1.0884 C   0  0  0  1  0  0  0  0  0  0  0  0
   -3.3229    4.1000    0.5064 C   0  0  0  1  0  0  0  0  0  0  0  0
   -3.9314    5.3279    0.2977 C   0  0  0  1  0  0  0  0  0  0  0  0
   -1.3652    2.7286    1.3438 C   0  0  0  1  0  0  0  0  0  0  0  0
   -1.5422    7.3064    1.5317 H   0  0  0  1  0  0  0  0  0  0  0  0
   -0.4772    5.1613    1.8928 H   0  0  0  1  0  0  0  0  0  0  0  0
   -3.8085    3.2244    0.2251 H   0  0  0  1  0  0  0  0  0  0  0  0
   -4.8753    5.3734   -0.1366 H   0  0  0  1  0  0  0  0  0  0  0  0
   -1.1722    2.2568    0.4030 H   0  0  0  1  0  0  0  0  0  0  0  0
   -0.4384    2.9314    1.8385 H   0  0  0  1  0  0  0  0  0  0  0  0
  1  4  1  0  0  0  0
  2  4  1  0  0  0  0
  2  5  2  0  0  0  0
  2  6  1  0  0  0  0
  3  4  1  0  0  0  0
  3  7  1  0  0  0  0
  3  8  1  0  0  0  0
  4 26  1  0  0  0  0
  6  9  1  0  0  0  0
  6 12  1  0  0  0  0
  8 10  1  0  0  0  0
  8 11  2  0  0  0  0
  9 13  1  0  0  0  0
  9 14  1  0  0  0  0
  9 15  1  0  0  0  0
 10 16  1  0  0  0  0
 10 17  1  0  0  0  0
 10 18  1  0  0  0  0
 19 20  1  0  0  0  0
 20 21  4  0  0  0  0
 20 25  4  0  0  0  0
 21 22  4  0  0  0  0
 21 27  1  0  0  0  0
 22 23  4  0  0  0  0
 22 28  1  0  0  0  0
 23 24  4  0  0  0  0
 23 26  1  0  0  0  0
 24 25  4  0  0  0  0
 24 29  1  0  0  0  0
 25 30  1  0  0  0  0
 26 31  1  0  0  0  0
 26 32  1  0  0  0  0
M  END
> <BCLConfClusterSize>
1

> <ConfClashScore>
0 

> <ConfOneFourInteractionScore>
-0.960318 

> <ConfScore>
-0.265132 

> <ConfScorePBest>
0.00734966 

> <ConfTolerance>
0.20783 

> <RosettaParamsInstructions>
M  ROOT 3
M  POLY_N_BB 3
M  POLY_CA_BB 4
M  POLY_C_BB 2
M  POLY_O_BB 5
M  POLY_IGNORE 9 10 11 12 13 14 15 16 17 18 
M  POLY_UPPER 6
M  POLY_LOWER 8
M  POLY_CHG 0
M  POLY_PROPERTIES ALPHA_AA L_AA PROTEIN AROMATIC POLYMER 
M  END

$$$$



 32 32  0  0  0  0  0  0  0  0999 V2000
   -2.6615    2.0812    2.9257 H   0  0  0  1  0  0  0  0  0  0  0  0
   -0.9896    0.7717    2.8760 C   0  0  0  1  0  0  0  0  0  0  0  0
   -1.0239    3.0805    3.6986 N   0  0  0  1  0  0  0  0  0  0  0  0
   -1.6126    2.1659    2.7317 C   0  0  0  1  0  0  0  0  0  0  0  0
    0.2269    0.6556    3.0183 O   0  0  0  1  0  0  0  0  0  0  0  0
   -1.8377   -0.2678    2.9247 N   0  0  0  1  0  0  0  0  0  0  0  0
   -0.0562    3.2353    3.6989 H   0  0  0  1  0  0  0  0  0  0  0  0
   -1.8076    3.7157    4.5945 C   0  0  0  1  0  0  0  0  0  0  0  0
   -1.3767   -1.6415    3.0603 C   0  0  0  1  0  0  0  0  0  0  0  0
   -1.0333    4.5341    5.6093 C   0  0  0  1  0  0  0  0  0  0  0  0
   -3.0364    3.6583    4.6149 O   0  0  0  1  0  0  0  0  0  0  0  0
   -2.8007   -0.0956    2.8669 H   0  0  0  1  0  0  0  0  0  0  0  0
   -0.4093   -1.7394    2.6137 H   0  0  0  1  0  0  0  0  0  0  0  0
   -2.0641   -2.2982    2.5692 H   0  0  0  1  0  0  0  0  0  0  0  0
   -1.3179   -1.8969    4.0977 H   0  0  0  1  0  0  0  0  0  0  0  0
   -0.4414    3.8821    6.2171 H   0  0  0  1  0  0  0  0  0  0  0  0
   -1.7182    5.0746    6.2287 H   0  0  0  1  0  0  0  0  0  0  0  0
   -0.3937    5.2231    5.0983 H   0  0  0  1  0  0  0  0  0  0  0  0
   -3.8878    7.6762    0.4515 F   0  0  0  1  0  0  0  0  0  0  0  0
   -3.2890    6.4887    0.6640 C   0  0  0  1  0  0  0  0  0  0  0  0
   -2.0330    6.4405    1.2486 C   0  0  0  1  0  0  0  0  0  0  0  0
   -1.4161    5.2223    1.4618 C   0  0  0  1  0  0  0  0  0  0  0  0
   -2.0557    4.0482    1.0959 C   0  0  0  1  0  0  0  0  0  0  0  0
   -3.3080    4.0960    0.5131 C   0  0  0  1  0  0  0  0  0  0  0  0
   -3.9267    5.3180    0.2992 C   0  0  0  1  0  0  0  0  0  0  0  0
   -1.4343    2.6881    1.3092 C   0  0  0  1  0  0  0  0  0  0  0  0
   -1.5548    7.3212    1.5267 H   0  0  0  1  0  0  0  0  0  0  0  0
   -0.4721    5.1864    1.8967 H   0  0  0  1  0  0  0  0  0  0  0  0
   -3.7862    3.2153    0.2349 H   0  0  0  1  0  0  0  0  0  0  0  0
   -4.8707    5.3538   -0.1357 H   0  0  0  1  0  0  0  0  0  0  0  0
   -1.8898    1.9956    0.6326 H   0  0  0  1  0  0  0  0  0  0  0  0
   -0.3871    2.7556    1.1000 H   0  0  0  1  0  0  0  0  0  0  0  0
  1  4  1  0  0  0  0
  2  4  1  0  0  0  0
  2  5  2  0  0  0  0
  2  6  1  0  0  0  0
  3  4  1  0  0  0  0
  3  7  1  0  0  0  0
  3  8  1  0  0  0  0
  4 26  1  0  0  0  0
  6  9  1  0  0  0  0
  6 12  1  0  0  0  0
  8 10  1  0  0  0  0
  8 11  2  0  0  0  0
  9 13  1  0  0  0  0
  9 14  1  0  0  0  0
  9 15  1  0  0  0  0
 10 16  1  0  0  0  0
 10 17  1  0  0  0  0
 10 18  1  0  0  0  0
 19 20  1  0  0  0  0
 20 21  4  0  0  0  0
 20 25  4  0  0  0  0
 21 22  4  0  0  0  0
 21 27  1  0  0  0  0
 22 23  4  0  0  0  0
 22 28  1  0  0  0  0
 23 24  4  0  0  0  0
 23 26  1  0  0  0  0
 24 25  4  0  0  0  0
 24 29  1  0  0  0  0
 25 30  1  0  0  0  0
 26 31  1  0  0  0  0
 26 32  1  0  0  0  0
M  END
> <BCLConfClusterSize>
1

> <ConfClashScore>
0 

> <ConfOneFourInteractionScore>
-0.986627 

> <ConfScore>
-0.264596 

> <ConfScorePBest>
0.00732118 

> <ConfTolerance>
0.164859 

> <RosettaParamsInstructions>
M  ROOT 3
M  POLY_N_BB 3
M  POLY_CA_BB 4
M  POLY_C_BB 2
M  POLY_O_BB 5
M  POLY_IGNORE 9 10 11 12 13 14 15 16 17 18 
M  POLY_UPPER 6
M  POLY_LOWER 8
M  POLY_CHG 0
M  POLY_PROPERTIES ALPHA_AA L_AA PROTEIN AROMATIC POLYMER 
M  END

$$$$



 32 32  0  0  0  0  0  0  0  0999 V2000
   -2.7252    1.5366    2.4154 H   0  0  0  1  0  0  0  0  0  0  0  0
   -0.7674    0.7872    2.7313 C   0  0  0  1  0  0  0  0  0  0  0  0
   -1.6796    2.7776    3.7114 N   0  0  0  1  0  0  0  0  0  0  0  0
   -1.7380    1.9341    2.5270 C   0  0  0  1  0  0  0  0  0  0  0  0
   -0.8653   -0.2581    2.0822 O   0  0  0  1  0  0  0  0  0  0  0  0
    0.1818    0.9876    3.6468 N   0  0  0  1  0  0  0  0  0  0  0  0
   -1.4935    3.7355    3.6209 H   0  0  0  1  0  0  0  0  0  0  0  0
   -1.8837    2.2368    4.9496 C   0  0  0  1  0  0  0  0  0  0  0  0
    1.1038   -0.0306    4.1275 C   0  0  0  1  0  0  0  0  0  0  0  0
   -2.0379    3.2734    6.0455 C   0  0  0  1  0  0  0  0  0  0  0  0
   -1.9329    1.0299    5.1292 O   0  0  0  1  0  0  0  0  0  0  0  0
    0.2646    1.8882    4.0241 H   0  0  0  1  0  0  0  0  0  0  0  0
    1.8530    0.4263    4.7398 H   0  0  0  1  0  0  0  0  0  0  0  0
    1.5700   -0.5118    3.2933 H   0  0  0  1  0  0  0  0  0  0  0  0
    0.5663   -0.7550    4.7030 H   0  0  0  1  0  0  0  0  0  0  0  0
   -1.1272    3.8263    6.1449 H   0  0  0  1  0  0  0  0  0  0  0  0
   -2.2604    2.7838    6.9705 H   0  0  0  1  0  0  0  0  0  0  0  0
   -2.8349    3.9417    5.7943 H   0  0  0  1  0  0  0  0  0  0  0  0
   -3.9036    7.6620    0.4212 F   0  0  0  1  0  0  0  0  0  0  0  0
   -3.2808    6.4922    0.6612 C   0  0  0  1  0  0  0  0  0  0  0  0
   -2.0279    6.4362    1.2516 C   0  0  0  1  0  0  0  0  0  0  0  0
   -1.4229    5.2138    1.4747 C   0  0  0  1  0  0  0  0  0  0  0  0
   -2.0714    4.0434    1.1128 C   0  0  0  1  0  0  0  0  0  0  0  0
   -3.3206    4.0989    0.5241 C   0  0  0  1  0  0  0  0  0  0  0  0
   -3.9273    5.3251    0.3004 C   0  0  0  1  0  0  0  0  0  0  0  0
   -1.3811    2.7090    1.2690 C   0  0  0  1  0  0  0  0  0  0  0  0
   -1.5431    7.3142    1.5268 H   0  0  0  1  0  0  0  0  0  0  0  0
   -0.4811    5.1721    1.9140 H   0  0  0  1  0  0  0  0  0  0  0  0
   -3.8054    3.2209    0.2489 H   0  0  0  1  0  0  0  0  0  0  0  0
   -4.8691    5.3668   -0.1389 H   0  0  0  1  0  0  0  0  0  0  0  0
   -1.6376    2.1038    0.4247 H   0  0  0  1  0  0  0  0  0  0  0  0
   -0.3253    2.8824    1.2766 H   0  0  0  1  0  0  0  0  0  0  0  0
  1  4  1  0  0  0  0
  2  4  1  0  0  0  0
  2  5  2  0  0  0  0
  2  6  1  0  0  0  0
  3  4  1  0  0  0  0
  3  7  1  0  0  0  0
  3  8  1  0  0  0  0
  4 26  1  0  0  0  0
  6  9  1  0  0  0  0
  6 12  1  0  0  0  0
  8 10  1  0  0  0  0
  8 11  2  0  0  0  0
  9 13  1  0  0  0  0
  9 14  1  0  0  0  0
  9 15  1  0  0  0  0
 10 16  1  0  0  0  0
 10 17  1  0  0  0  0
 10 18  1  0  0  0  0
 19 20  1  0  0  0  0
 20 21  4  0  0  0  0
 20 25  4  0  0  0  0
 21 22  4  0  0  0  0
 21 27  1  0  0  0  0
 22 23  4  0  0  0  0
 22 28  1  0  0  0  0
 23 24  4  0  0  0  0
 23 26  1  0  0  0  0
 24 25  4  0  0  0  0
 24 29  1  0  0  0  0
 25 30  1  0  0  0  0
 26 31  1  0  0  0  0
 26 32  1  0  0  0  0
M  END
> <BCLConfClusterSize>
1

> <ConfClashScore>
0 

> <ConfOneFourInteractionScore>
-0.94165 

> <ConfScore>
-0.264079 

> <ConfScorePBest>
0.0072927 

> <ConfTolerance>
0.357404 

> <RosettaParamsInstructions>
M  ROOT 3
M  POLY_N_BB 3
M  POLY_CA_BB 4
M  POLY_C_BB 2
M  POLY_O_BB 5
M  POLY_IGNORE 9 10 11 12 13 14 15 16 17 18 
M  POLY_UPPER 6
M  POLY_LOWER 8
M  POLY_CHG 0
M  POLY_PROPERTIES ALPHA_AA L_AA PROTEIN AROMATIC POLYMER 
M  END

$$$$



 32 32  0  0  0  0  0  0  0  0999 V2000
   -2.7864    1.8323    2.6303 H   0  0  0  1  0  0  0  0  0  0  0  0
   -1.0300    0.6922    2.7924 C   0  0  0  1  0  0  0  0  0  0  0  0
   -1.4735    2.8955    3.7923 N   0  0  0  1  0  0  0  0  0  0  0  0
   -1.7361    2.0357    2.6478 C   0  0  0  1  0  0  0  0  0  0  0  0
    0.0528    0.6074    3.3703 O   0  0  0  1  0  0  0  0  0  0  0  0
   -1.6248   -0.3926    2.2712 N   0  0  0  1  0  0  0  0  0  0  0  0
   -0.6222    3.3807    3.8086 H   0  0  0  1  0  0  0  0  0  0  0  0
   -2.3055    3.0730    4.8224 C   0  0  0  1  0  0  0  0  0  0  0  0
   -1.1411   -1.7577    2.4146 C   0  0  0  1  0  0  0  0  0  0  0  0
   -1.9244    4.1720    5.7951 C   0  0  0  1  0  0  0  0  0  0  0  0
   -3.3206    2.3979    4.9877 O   0  0  0  1  0  0  0  0  0  0  0  0
   -2.4465   -0.2549    1.7553 H   0  0  0  1  0  0  0  0  0  0  0  0
   -0.0801   -1.7481    2.5521 H   0  0  0  1  0  0  0  0  0  0  0  0
   -1.3814   -2.3153    1.5336 H   0  0  0  1  0  0  0  0  0  0  0  0
   -1.6064   -2.2133    3.2636 H   0  0  0  1  0  0  0  0  0  0  0  0
   -2.1321    3.8520    6.7948 H   0  0  0  1  0  0  0  0  0  0  0  0
   -2.4917    5.0529    5.5778 H   0  0  0  1  0  0  0  0  0  0  0  0
   -0.8806    4.3867    5.6992 H   0  0  0  1  0  0  0  0  0  0  0  0
   -3.9116    7.6616    0.4395 F   0  0  0  1  0  0  0  0  0  0  0  0
   -3.2836    6.4921    0.6667 C   0  0  0  1  0  0  0  0  0  0  0  0
   -2.0277    6.4356    1.2507 C   0  0  0  1  0  0  0  0  0  0  0  0
   -1.4173    5.2135    1.4607 C   0  0  0  1  0  0  0  0  0  0  0  0
   -2.0634    4.0439    1.0921 C   0  0  0  1  0  0  0  0  0  0  0  0
   -3.3156    4.0999    0.5098 C   0  0  0  1  0  0  0  0  0  0  0  0
   -3.9277    5.3257    0.2993 C   0  0  0  1  0  0  0  0  0  0  0  0
   -1.3994    2.7076    1.3266 C   0  0  0  1  0  0  0  0  0  0  0  0
   -1.5447    7.3130    1.5309 H   0  0  0  1  0  0  0  0  0  0  0  0
   -0.4733    5.1715    1.8952 H   0  0  0  1  0  0  0  0  0  0  0  0
   -3.7986    3.2225    0.2296 H   0  0  0  1  0  0  0  0  0  0  0  0
   -4.8716    5.3677   -0.1352 H   0  0  0  1  0  0  0  0  0  0  0  0
   -1.6949    2.0491    0.5367 H   0  0  0  1  0  0  0  0  0  0  0  0
   -0.3402    2.8546    1.2915 H   0  0  0  1  0  0  0  0  0  0  0  0
  1  4  1  0  0  0  0
  2  4  1  0  0  0  0
  2  5  2  0  0  0  0
  2  6  1  0  0  0  0
  3  4  1  0  0  0  0
  3  7  1  0  0  0  0
  3  8  1  0  0  0  0
  4 26  1  0  0  0  0
  6  9  1  0  0  0  0
  6 12  1  0  0  0  0
  8 10  1  0  0  0  0
  8 11  2  0  0  0  0
  9 13  1  0  0  0  0
  9 14  1  0  0  0  0
  9 15  1  0  0  0  0
 10 16  1  0  0  0  0
 10 17  1  0  0  0  0
 10 18  1  0  0  0  0
 19 20  1  0  0  0  0
 20 21  4  0  0  0  0
 20 25  4  0  0  0  0
 21 22  4  0  0  0  0
 21 27  1  0  0  0  0
 22 23  4  0  0  0  0
 22 28  1  0  0  0  0
 23 24  4  0  0  0  0
 23 26  1  0  0  0  0
 24 25  4  0  0  0  0
 24 29  1  0  0  0  0
 25 30  1  0  0  0  0
 26 31  1  0  0  0  0
 26 32  1  0  0  0  0
M  END
> <BCLConfClusterSize>
1

> <ConfClashScore>
0 

> <ConfOneFourInteractionScore>
-0.985807 

> <ConfScore>
-0.26117 

> <ConfScorePBest>
0.00726422 

> <ConfTolerance>
0.185246 

> <RosettaParamsInstructions>
M  ROOT 3
M  POLY_N_BB 3
M  POLY_CA_BB 4
M  POLY_C_BB 2
M  POLY_O_BB 5
M  POLY_IGNORE 9 10 11 12 13 14 15 16 17 18 
M  POLY_UPPER 6
M  POLY_LOWER 8
M  POLY_CHG 0
M  POLY_PROPERTIES ALPHA_AA L_AA PROTEIN AROMATIC POLYMER 
M  END

$$$$



 32 32  0  0  0  0  0  0  0  0999 V2000
    0.3552    2.9325    0.1505 H   0  0  0  1  0  0  0  0  0  0  0  0
   -0.0124    0.8587    0.4305 C   0  0  0  1  0  0  0  0  0  0  0  0
   -1.2173    2.3662   -1.0816 N   0  0  0  1  0  0  0  0  0  0  0  0
   -0.4937    2.2818    0.1783 C   0  0  0  1  0  0  0  0  0  0  0  0
   -0.7025   -0.1168    0.1379 O   0  0  0  1  0  0  0  0  0  0  0  0
    1.2010    0.7928    0.9858 N   0  0  0  1  0  0  0  0  0  0  0  0
   -2.0718    1.8943   -1.1688 H   0  0  0  1  0  0  0  0  0  0  0  0
   -0.7466    3.0804   -2.1472 C   0  0  0  1  0  0  0  0  0  0  0  0
    1.8107   -0.4703    1.3740 C   0  0  0  1  0  0  0  0  0  0  0  0
   -1.5561    2.8899   -3.4046 C   0  0  0  1  0  0  0  0  0  0  0  0
    0.2373    3.7968   -2.0623 O   0  0  0  1  0  0  0  0  0  0  0  0
    1.6977    1.6239    1.1371 H   0  0  0  1  0  0  0  0  0  0  0  0
    1.8240   -1.1334    0.5343 H   0  0  0  1  0  0  0  0  0  0  0  0
    1.2436   -0.9110    2.1671 H   0  0  0  1  0  0  0  0  0  0  0  0
    2.8128   -0.2953    1.7058 H   0  0  0  1  0  0  0  0  0  0  0  0
   -2.0712    1.9532   -3.3593 H   0  0  0  1  0  0  0  0  0  0  0  0
   -0.9040    2.8975   -4.2529 H   0  0  0  1  0  0  0  0  0  0  0  0
   -2.2677    3.6840   -3.4941 H   0  0  0  1  0  0  0  0  0  0  0  0
   -3.8843    7.6784    0.4533 F   0  0  0  1  0  0  0  0  0  0  0  0
   -3.2892    6.4887    0.6639 C   0  0  0  1  0  0  0  0  0  0  0  0
   -2.0333    6.4356    1.2481 C   0  0  0  1  0  0  0  0  0  0  0  0
   -1.4202    5.2151    1.4594 C   0  0  0  1  0  0  0  0  0  0  0  0
   -2.0637    4.0436    1.0920 C   0  0  0  1  0  0  0  0  0  0  0  0
   -3.3160    4.0963    0.5094 C   0  0  0  1  0  0  0  0  0  0  0  0
   -3.9307    5.3205    0.2975 C   0  0  0  1  0  0  0  0  0  0  0  0
   -1.3968    2.7090    1.3279 C   0  0  0  1  0  0  0  0  0  0  0  0
   -1.5523    7.3143    1.5275 H   0  0  0  1  0  0  0  0  0  0  0  0
   -0.4762    5.1756    1.8941 H   0  0  0  1  0  0  0  0  0  0  0  0
   -3.7969    3.2175    0.2300 H   0  0  0  1  0  0  0  0  0  0  0  0
   -4.8747    5.3600   -0.1371 H   0  0  0  1  0  0  0  0  0  0  0  0
   -0.8066    2.7759    2.2179 H   0  0  0  1  0  0  0  0  0  0  0  0
   -2.1566    1.9669    1.4581 H   0  0  0  1  0  0  0  0  0  0  0  0
  1  4  1  0  0  0  0
  2  4  1  0  0  0  0
  2  5  2  0  0  0  0
  2  6  1  0  0  0  0
  3  4  1  0  0  0  0
  3  7  1  0  0  0  0
  3  8  1  0  0  0  0
  4 26  1  0  0  0  0
  6  9  1  0  0  0  0
  6 12  1  0  0  0  0
  8 10  1  0  0  0  0
  8 11  2  0  0  0  0
  9 13  1  0  0  0  0
  9 14  1  0  0  0  0
  9 15  1  0  0  0  0
 10 16  1  0  0  0  0
 10 17  1  0  0  0  0
 10 18  1  0  0  0  0
 19 20  1  0  0  0  0
 20 21  4  0  0  0  0
 20 25  4  0  0  0  0
 21 22  4  0  0  0  0
 21 27  1  0  0  0  0
 22 23  4  0  0  0  0
 22 28  1  0  0  0  0
 23 24  4  0  0  0  0
 23 26  1  0  0  0  0
 24 25  4  0  0  0  0
 24 29  1  0  0  0  0
 25 30  1  0  0  0  0
 26 31  1  0  0  0  0
 26 32  1  0  0  0  0
M  END
> <BCLConfClusterSize>
1

> <ConfClashScore>
0 

> <ConfOneFourInteractionScore>
-0.985807 

> <ConfScore>
-0.258028 

> <ConfScorePBest>
0.00723574 

> <ConfTolerance>
0.23578 

> <RosettaParamsInstructions>
M  ROOT 3
M  POLY_N_BB 3
M  POLY_CA_BB 4
M  POLY_C_BB 2
M  POLY_O_BB 5
M  POLY_IGNORE 9 10 11 12 13 14 15 16 17 18 
M  POLY_UPPER 6
M  POLY_LOWER 8
M  POLY_CHG 0
M  POLY_PROPERTIES ALPHA_AA L_AA PROTEIN AROMATIC POLYMER 
M  END

$$$$



 32 32  0  0  0  0  0  0  0  0999 V2000
   -3.0731    1.8899    2.3144 H   0  0  0  1  0  0  0  0  0  0  0  0
   -1.4607    0.5831    2.6812 C   0  0  0  1  0  0  0  0  0  0  0  0
   -1.8791    2.7945    3.7290 N   0  0  0  1  0  0  0  0  0  0  0  0
   -2.0282    1.9892    2.5220 C   0  0  0  1  0  0  0  0  0  0  0  0
   -0.6462    0.3205    3.5622 O   0  0  0  1  0  0  0  0  0  0  0  0
   -1.9081   -0.3288    1.8046 N   0  0  0  1  0  0  0  0  0  0  0  0
   -0.9864    3.0664    4.0282 H   0  0  0  1  0  0  0  0  0  0  0  0
   -2.9616    3.1637    4.4305 C   0  0  0  1  0  0  0  0  0  0  0  0
   -1.4220   -1.7004    1.7935 C   0  0  0  1  0  0  0  0  0  0  0  0
   -2.6875    3.9264    5.7120 C   0  0  0  1  0  0  0  0  0  0  0  0
   -4.1088    2.9091    4.0733 O   0  0  0  1  0  0  0  0  0  0  0  0
   -2.5859   -0.0619    1.1491 H   0  0  0  1  0  0  0  0  0  0  0  0
   -1.6049   -2.1519    2.7462 H   0  0  0  1  0  0  0  0  0  0  0  0
   -0.3710   -1.7045    1.5930 H   0  0  0  1  0  0  0  0  0  0  0  0
   -1.9328   -2.2534    1.0331 H   0  0  0  1  0  0  0  0  0  0  0  0
   -1.7191    3.6637    6.0838 H   0  0  0  1  0  0  0  0  0  0  0  0
   -3.4293    3.6761    6.4414 H   0  0  0  1  0  0  0  0  0  0  0  0
   -2.7206    4.9776    5.5152 H   0  0  0  1  0  0  0  0  0  0  0  0
   -3.8565    7.6941    0.4672 F   0  0  0  1  0  0  0  0  0  0  0  0
   -3.2949    6.4853    0.6610 C   0  0  0  1  0  0  0  0  0  0  0  0
   -2.0390    6.4357    1.2455 C   0  0  0  1  0  0  0  0  0  0  0  0
   -1.4232    5.2167    1.4581 C   0  0  0  1  0  0  0  0  0  0  0  0
   -2.0640    4.0435    1.0918 C   0  0  0  1  0  0  0  0  0  0  0  0
   -3.3163    4.0927    0.5090 C   0  0  0  1  0  0  0  0  0  0  0  0
   -3.9338    5.3154    0.2958 C   0  0  0  1  0  0  0  0  0  0  0  0
   -1.3943    2.7106    1.3292 C   0  0  0  1  0  0  0  0  0  0  0  0
   -1.5599    7.3158    1.5240 H   0  0  0  1  0  0  0  0  0  0  0  0
   -0.4792    5.1798    1.8930 H   0  0  0  1  0  0  0  0  0  0  0  0
   -3.7954    3.2126    0.2305 H   0  0  0  1  0  0  0  0  0  0  0  0
   -4.8778    5.3524   -0.1391 H   0  0  0  1  0  0  0  0  0  0  0  0
   -1.5013    2.1035    0.4547 H   0  0  0  1  0  0  0  0  0  0  0  0
   -0.3551    2.8706    1.5279 H   0  0  0  1  0  0  0  0  0  0  0  0
  1  4  1  0  0  0  0
  2  4  1  0  0  0  0
  2  5  2  0  0  0  0
  2  6  1  0  0  0  0
  3  4  1  0  0  0  0
  3  7  1  0  0  0  0
  3  8  1  0  0  0  0
  4 26  1  0  0  0  0
  6  9  1  0  0  0  0
  6 12  1  0  0  0  0
  8 10  1  0  0  0  0
  8 11  2  0  0  0  0
  9 13  1  0  0  0  0
  9 14  1  0  0  0  0
  9 15  1  0  0  0  0
 10 16  1  0  0  0  0
 10 17  1  0  0  0  0
 10 18  1  0  0  0  0
 19 20  1  0  0  0  0
 20 21  4  0  0  0  0
 20 25  4  0  0  0  0
 21 22  4  0  0  0  0
 21 27  1  0  0  0  0
 22 23  4  0  0  0  0
 22 28  1  0  0  0  0
 23 24  4  0  0  0  0
 23 26  1  0  0  0  0
 24 25  4  0  0  0  0
 24 29  1  0  0  0  0
 25 30  1  0  0  0  0
 26 31  1  0  0  0  0
 26 32  1  0  0  0  0
M  END
> <BCLConfClusterSize>
1

> <ConfClashScore>
0 

> <ConfOneFourInteractionScore>
-0.985807 

> <ConfScore>
-0.258028 

> <ConfScorePBest>
0.00720726 

> <ConfTolerance>
0.206265 

> <RosettaParamsInstructions>
M  ROOT 3
M  POLY_N_BB 3
M  POLY_CA_BB 4
M  POLY_C_BB 2
M  POLY_O_BB 5
M  POLY_IGNORE 9 10 11 12 13 14 15 16 17 18 
M  POLY_UPPER 6
M  POLY_LOWER 8
M  POLY_CHG 0
M  POLY_PROPERTIES ALPHA_AA L_AA PROTEIN AROMATIC POLYMER 
M  END

$$$$



 32 32  0  0  0  0  0  0  0  0999 V2000
   -0.0470    3.1101   -0.2543 H   0  0  0  1  0  0  0  0  0  0  0  0
    0.3982    1.1788    0.4208 C   0  0  0  1  0  0  0  0  0  0  0  0
   -1.5012    1.8581   -0.9731 N   0  0  0  1  0  0  0  0  0  0  0  0
   -0.6059    2.2680    0.0969 C   0  0  0  1  0  0  0  0  0  0  0  0
    1.5622    1.4449    0.6709 O   0  0  0  1  0  0  0  0  0  0  0  0
   -0.0792   -0.0758    0.4120 N   0  0  0  1  0  0  0  0  0  0  0  0
   -2.4544    1.7241   -0.7887 H   0  0  0  1  0  0  0  0  0  0  0  0
   -1.0280    1.6643   -2.2051 C   0  0  0  1  0  0  0  0  0  0  0  0
    0.7615   -1.2294    0.6953 C   0  0  0  1  0  0  0  0  0  0  0  0
   -2.0462    1.2294   -3.2410 C   0  0  0  1  0  0  0  0  0  0  0  0
    0.1557    1.8232   -2.5007 O   0  0  0  1  0  0  0  0  0  0  0  0
   -1.0268   -0.2199    0.2079 H   0  0  0  1  0  0  0  0  0  0  0  0
    1.3094   -1.0590    1.5984 H   0  0  0  1  0  0  0  0  0  0  0  0
    1.4455   -1.3792   -0.1138 H   0  0  0  1  0  0  0  0  0  0  0  0
    0.1476   -2.0984    0.8095 H   0  0  0  1  0  0  0  0  0  0  0  0
   -2.7435    0.5519   -2.7941 H   0  0  0  1  0  0  0  0  0  0  0  0
   -1.5448    0.7421   -4.0510 H   0  0  0  1  0  0  0  0  0  0  0  0
   -2.5690    2.0875   -3.6090 H   0  0  0  1  0  0  0  0  0  0  0  0
   -3.8531    7.6958    0.4688 F   0  0  0  1  0  0  0  0  0  0  0  0
   -3.2951    6.4852    0.6609 C   0  0  0  1  0  0  0  0  0  0  0  0
   -2.0392    6.4310    1.2451 C   0  0  0  1  0  0  0  0  0  0  0  0
   -1.4270    5.2099    1.4560 C   0  0  0  1  0  0  0  0  0  0  0  0
   -2.0714    4.0390    1.0881 C   0  0  0  1  0  0  0  0  0  0  0  0
   -3.3237    4.0928    0.5056 C   0  0  0  1  0  0  0  0  0  0  0  0
   -3.9375    5.3176    0.2942 C   0  0  0  1  0  0  0  0  0  0  0  0
   -1.3601    2.7318    1.3464 C   0  0  0  1  0  0  0  0  0  0  0  0
   -1.5575    7.3092    1.5248 H   0  0  0  1  0  0  0  0  0  0  0  0
   -0.4831    5.1696    1.8906 H   0  0  0  1  0  0  0  0  0  0  0  0
   -3.8053    3.2146    0.2260 H   0  0  0  1  0  0  0  0  0  0  0  0
   -4.8815    5.3580   -0.1404 H   0  0  0  1  0  0  0  0  0  0  0  0
   -0.6636    2.8638    2.1478 H   0  0  0  1  0  0  0  0  0  0  0  0
   -2.0802    1.9883    1.6177 H   0  0  0  1  0  0  0  0  0  0  0  0
  1  4  1  0  0  0  0
  2  4  1  0  0  0  0
  2  5  2  0  0  0  0
  2  6  1  0  0  0  0
  3  4  1  0  0  0  0
  3  7  1  0  0  0  0
  3  8  1  0  0  0  0
  4 26  1  0  0  0  0
  6  9  1  0  0  0  0
  6 12  1  0  0  0  0
  8 10  1  0  0  0  0
  8 11  2  0  0  0  0
  9 13  1  0  0  0  0
  9 14  1  0  0  0  0
  9 15  1  0  0  0  0
 10 16  1  0  0  0  0
 10 17  1  0  0  0  0
 10 18  1  0  0  0  0
 19 20  1  0  0  0  0
 20 21  4  0  0  0  0
 20 25  4  0  0  0  0
 21 22  4  0  0  0  0
 21 27  1  0  0  0  0
 22 23  4  0  0  0  0
 22 28  1  0  0  0  0
 23 24  4  0  0  0  0
 23 26  1  0  0  0  0
 24 25  4  0  0  0  0
 24 29  1  0  0  0  0
 25 30  1  0  0  0  0
 26 31  1  0  0  0  0
 26 32  1  0  0  0  0
M  END
> <BCLConfClusterSize>
1

> <ConfClashScore>
0 

> <ConfOneFourInteractionScore>
-0.956443 

> <ConfScore>
-0.256477 

> <ConfScorePBest>
0.00717878 

> <ConfTolerance>
0.190115 

> <RosettaParamsInstructions>
M  ROOT 3
M  POLY_N_BB 3
M  POLY_CA_BB 4
M  POLY_C_BB 2
M  POLY_O_BB 5
M  POLY_IGNORE 9 10 11 12 13 14 15 16 17 18 
M  POLY_UPPER 6
M  POLY_LOWER 8
M  POLY_CHG 0
M  POLY_PROPERTIES ALPHA_AA L_AA PROTEIN AROMATIC POLYMER 
M  END

$$$$



 32 32  0  0  0  0  0  0  0  0999 V2000
   -1.4712    2.1095   -0.7061 H   0  0  0  1  0  0  0  0  0  0  0  0
    0.4031    3.0363   -0.3892 C   0  0  0  1  0  0  0  0  0  0  0  0
   -0.2452    0.7889    0.3081 N   0  0  0  1  0  0  0  0  0  0  0  0
   -0.7357    2.1383    0.0704 C   0  0  0  1  0  0  0  0  0  0  0  0
    0.2249    3.9070   -1.2250 O   0  0  0  1  0  0  0  0  0  0  0  0
    1.5956    2.8044    0.1819 N   0  0  0  1  0  0  0  0  0  0  0  0
   -0.2461    0.4628    1.2323 H   0  0  0  1  0  0  0  0  0  0  0  0
    0.2062   -0.0387   -0.6386 C   0  0  0  1  0  0  0  0  0  0  0  0
    2.7651    3.6231   -0.1004 C   0  0  0  1  0  0  0  0  0  0  0  0
    0.5958   -1.4224   -0.1701 C   0  0  0  1  0  0  0  0  0  0  0  0
    0.3055    0.2866   -1.8210 O   0  0  0  1  0  0  0  0  0  0  0  0
    1.6816    2.0577    0.8108 H   0  0  0  1  0  0  0  0  0  0  0  0
    2.6505    4.0926   -1.0550 H   0  0  0  1  0  0  0  0  0  0  0  0
    3.6388    3.0055   -0.1096 H   0  0  0  1  0  0  0  0  0  0  0  0
    2.8660    4.3733    0.6559 H   0  0  0  1  0  0  0  0  0  0  0  0
   -0.2576   -1.9096    0.2533 H   0  0  0  1  0  0  0  0  0  0  0  0
    1.3653   -1.3448    0.5694 H   0  0  0  1  0  0  0  0  0  0  0  0
    0.9555   -1.9920   -1.0014 H   0  0  0  1  0  0  0  0  0  0  0  0
   -3.8843    7.6784    0.4533 F   0  0  0  1  0  0  0  0  0  0  0  0
   -3.2892    6.4887    0.6639 C   0  0  0  1  0  0  0  0  0  0  0  0
   -2.0333    6.4356    1.2481 C   0  0  0  1  0  0  0  0  0  0  0  0
   -1.4202    5.2151    1.4594 C   0  0  0  1  0  0  0  0  0  0  0  0
   -2.0637    4.0436    1.0920 C   0  0  0  1  0  0  0  0  0  0  0  0
   -3.3160    4.0963    0.5094 C   0  0  0  1  0  0  0  0  0  0  0  0
   -3.9307    5.3205    0.2975 C   0  0  0  1  0  0  0  0  0  0  0  0
   -1.3968    2.7090    1.3279 C   0  0  0  1  0  0  0  0  0  0  0  0
   -1.5523    7.3143    1.5275 H   0  0  0  1  0  0  0  0  0  0  0  0
   -0.4762    5.1756    1.8941 H   0  0  0  1  0  0  0  0  0  0  0  0
   -3.7969    3.2175    0.2300 H   0  0  0  1  0  0  0  0  0  0  0  0
   -4.8747    5.3600   -0.1371 H   0  0  0  1  0  0  0  0  0  0  0  0
   -0.6469    2.8315    2.0813 H   0  0  0  1  0  0  0  0  0  0  0  0
   -2.1359    2.0146    1.6692 H   0  0  0  1  0  0  0  0  0  0  0  0
  1  4  1  0  0  0  0
  2  4  1  0  0  0  0
  2  5  2  0  0  0  0
  2  6  1  0  0  0  0
  3  4  1  0  0  0  0
  3  7  1  0  0  0  0
  3  8  1  0  0  0  0
  4 26  1  0  0  0  0
  6  9  1  0  0  0  0
  6 12  1  0  0  0  0
  8 10  1  0  0  0  0
  8 11  2  0  0  0  0
  9 13  1  0  0  0  0
  9 14  1  0  0  0  0
  9 15  1  0  0  0  0
 10 16  1  0  0  0  0
 10 17  1  0  0  0  0
 10 18  1  0  0  0  0
 19 20  1  0  0  0  0
 20 21  4  0  0  0  0
 20 25  4  0  0  0  0
 21 22  4  0  0  0  0
 21 27  1  0  0  0  0
 22 23  4  0  0  0  0
 22 28  1  0  0  0  0
 23 24  4  0  0  0  0
 23 26  1  0  0  0  0
 24 25  4  0  0  0  0
 24 29  1  0  0  0  0
 25 30  1  0  0  0  0
 26 31  1  0  0  0  0
 26 32  1  0  0  0  0
M  END
> <BCLConfClusterSize>
1

> <ConfClashScore>
0 

> <ConfOneFourInteractionScore>
-0.960318 

> <ConfScore>
-0.254381 

> <ConfScorePBest>
0.0071503 

> <ConfTolerance>
0.137566 

> <RosettaParamsInstructions>
M  ROOT 3
M  POLY_N_BB 3
M  POLY_CA_BB 4
M  POLY_C_BB 2
M  POLY_O_BB 5
M  POLY_IGNORE 9 10 11 12 13 14 15 16 17 18 
M  POLY_UPPER 6
M  POLY_LOWER 8
M  POLY_CHG 0
M  POLY_PROPERTIES ALPHA_AA L_AA PROTEIN AROMATIC POLYMER 
M  END

$$$$



 32 32  0  0  0  0  0  0  0  0999 V2000
   -1.1401    2.8693    3.4270 H   0  0  0  1  0  0  0  0  0  0  0  0
   -3.0863    2.1139    3.0411 C   0  0  0  1  0  0  0  0  0  0  0  0
   -0.9807    0.8737    2.8798 N   0  0  0  1  0  0  0  0  0  0  0  0
   -1.5961    2.1841    2.7433 C   0  0  0  1  0  0  0  0  0  0  0  0
   -3.6827    3.0659    3.5427 O   0  0  0  1  0  0  0  0  0  0  0  0
   -3.6910    0.9586    2.7222 N   0  0  0  1  0  0  0  0  0  0  0  0
   -0.4547    0.5181    2.1333 H   0  0  0  1  0  0  0  0  0  0  0  0
   -1.1081    0.1340    3.9928 C   0  0  0  1  0  0  0  0  0  0  0  0
   -5.1238    0.8036    2.9245 C   0  0  0  1  0  0  0  0  0  0  0  0
   -0.3556   -1.1920    3.9966 C   0  0  0  1  0  0  0  0  0  0  0  0
   -1.7844    0.4871    4.9580 O   0  0  0  1  0  0  0  0  0  0  0  0
   -3.1664    0.2179    2.3524 H   0  0  0  1  0  0  0  0  0  0  0  0
   -5.4165    1.3187    3.8155 H   0  0  0  1  0  0  0  0  0  0  0  0
   -5.3599   -0.2357    3.0197 H   0  0  0  1  0  0  0  0  0  0  0  0
   -5.6484    1.2138    2.0869 H   0  0  0  1  0  0  0  0  0  0  0  0
    0.6901   -1.0088    4.1305 H   0  0  0  1  0  0  0  0  0  0  0  0
   -0.5131   -1.6938    3.0648 H   0  0  0  1  0  0  0  0  0  0  0  0
   -0.7156   -1.8038    4.7972 H   0  0  0  1  0  0  0  0  0  0  0  0
   -3.9116    7.6616    0.4395 F   0  0  0  1  0  0  0  0  0  0  0  0
   -3.2836    6.4921    0.6667 C   0  0  0  1  0  0  0  0  0  0  0  0
   -2.0277    6.4356    1.2507 C   0  0  0  1  0  0  0  0  0  0  0  0
   -1.4173    5.2135    1.4607 C   0  0  0  1  0  0  0  0  0  0  0  0
   -2.0634    4.0439    1.0921 C   0  0  0  1  0  0  0  0  0  0  0  0
   -3.3156    4.0999    0.5098 C   0  0  0  1  0  0  0  0  0  0  0  0
   -3.9277    5.3257    0.2993 C   0  0  0  1  0  0  0  0  0  0  0  0
   -1.3994    2.7076    1.3266 C   0  0  0  1  0  0  0  0  0  0  0  0
   -1.5447    7.3130    1.5309 H   0  0  0  1  0  0  0  0  0  0  0  0
   -0.4733    5.1715    1.8952 H   0  0  0  1  0  0  0  0  0  0  0  0
   -3.7986    3.2225    0.2296 H   0  0  0  1  0  0  0  0  0  0  0  0
   -4.8716    5.3677   -0.1352 H   0  0  0  1  0  0  0  0  0  0  0  0
   -1.8118    1.9974    0.6408 H   0  0  0  1  0  0  0  0  0  0  0  0
   -0.3502    2.8120    1.1447 H   0  0  0  1  0  0  0  0  0  0  0  0
  1  4  1  0  0  0  0
  2  4  1  0  0  0  0
  2  5  2  0  0  0  0
  2  6  1  0  0  0  0
  3  4  1  0  0  0  0
  3  7  1  0  0  0  0
  3  8  1  0  0  0  0
  4 26  1  0  0  0  0
  6  9  1  0  0  0  0
  6 12  1  0  0  0  0
  8 10  1  0  0  0  0
  8 11  2  0  0  0  0
  9 13  1  0  0  0  0
  9 14  1  0  0  0  0
  9 15  1  0  0  0  0
 10 16  1  0  0  0  0
 10 17  1  0  0  0  0
 10 18  1  0  0  0  0
 19 20  1  0  0  0  0
 20 21  4  0  0  0  0
 20 25  4  0  0  0  0
 21 22  4  0  0  0  0
 21 27  1  0  0  0  0
 22 23  4  0  0  0  0
 22 28  1  0  0  0  0
 23 24  4  0  0  0  0
 23 26  1  0  0  0  0
 24 25  4  0  0  0  0
 24 29  1  0  0  0  0
 25 30  1  0  0  0  0
 26 31  1  0  0  0  0
 26 32  1  0  0  0  0
M  END
> <BCLConfClusterSize>
1

> <ConfClashScore>
0 

> <ConfOneFourInteractionScore>
-0.960318 

> <ConfScore>
-0.254381 

> <ConfScorePBest>
0.00712182 

> <ConfTolerance>
0.140024 

> <RosettaParamsInstructions>
M  ROOT 3
M  POLY_N_BB 3
M  POLY_CA_BB 4
M  POLY_C_BB 2
M  POLY_O_BB 5
M  POLY_IGNORE 9 10 11 12 13 14 15 16 17 18 
M  POLY_UPPER 6
M  POLY_LOWER 8
M  POLY_CHG 0
M  POLY_PROPERTIES ALPHA_AA L_AA PROTEIN AROMATIC POLYMER 
M  END

$$$$



 32 32  0  0  0  0  0  0  0  0999 V2000
   -1.1396    2.8990    3.4157 H   0  0  0  1  0  0  0  0  0  0  0  0
   -2.9569    1.9082    3.1760 C   0  0  0  1  0  0  0  0  0  0  0  0
   -0.7001    0.9507    2.9136 N   0  0  0  1  0  0  0  0  0  0  0  0
   -1.5301    2.1624    2.7450 C   0  0  0  1  0  0  0  0  0  0  0  0
   -3.7201    2.8432    3.4147 O   0  0  0  1  0  0  0  0  0  0  0  0
   -3.3642    0.6341    3.2899 N   0  0  0  1  0  0  0  0  0  0  0  0
   -0.1887    0.6174    2.1470 H   0  0  0  1  0  0  0  0  0  0  0  0
   -0.6230    0.2943    4.0747 C   0  0  0  1  0  0  0  0  0  0  0  0
   -4.7582    0.2806    3.5131 C   0  0  0  1  0  0  0  0  0  0  0  0
    0.2597   -0.9386    4.0771 C   0  0  0  1  0  0  0  0  0  0  0  0
   -1.2176    0.6492    5.0792 O   0  0  0  1  0  0  0  0  0  0  0  0
   -2.6998   -0.0829    3.2203 H   0  0  0  1  0  0  0  0  0  0  0  0
   -5.2590    1.0918    3.9989 H   0  0  0  1  0  0  0  0  0  0  0  0
   -4.8102   -0.5916    4.1307 H   0  0  0  1  0  0  0  0  0  0  0  0
   -5.2302    0.0818    2.5736 H   0  0  0  1  0  0  0  0  0  0  0  0
    1.2727   -0.6529    3.8846 H   0  0  0  1  0  0  0  0  0  0  0  0
   -0.0706   -1.6149    3.3166 H   0  0  0  1  0  0  0  0  0  0  0  0
    0.1998   -1.4179    5.0319 H   0  0  0  1  0  0  0  0  0  0  0  0
   -3.8810    7.6803    0.4549 F   0  0  0  1  0  0  0  0  0  0  0  0
   -3.2894    6.4885    0.6638 C   0  0  0  1  0  0  0  0  0  0  0  0
   -2.0335    6.4309    1.2477 C   0  0  0  1  0  0  0  0  0  0  0  0
   -1.4240    5.2083    1.4572 C   0  0  0  1  0  0  0  0  0  0  0  0
   -2.0710    4.0392    1.0883 C   0  0  0  1  0  0  0  0  0  0  0  0
   -3.3233    4.0964    0.5060 C   0  0  0  1  0  0  0  0  0  0  0  0
   -3.9344    5.3227    0.2959 C   0  0  0  1  0  0  0  0  0  0  0  0
   -1.3626    2.7301    1.3451 C   0  0  0  1  0  0  0  0  0  0  0  0
   -1.5498    7.3078    1.5282 H   0  0  0  1  0  0  0  0  0  0  0  0
   -0.4801    5.1654    1.8917 H   0  0  0  1  0  0  0  0  0  0  0  0
   -3.8069    3.2194    0.2255 H   0  0  0  1  0  0  0  0  0  0  0  0
   -4.8783    5.3657   -0.1385 H   0  0  0  1  0  0  0  0  0  0  0  0
   -1.7387    2.0093    0.6494 H   0  0  0  1  0  0  0  0  0  0  0  0
   -0.3174    2.8812    1.1730 H   0  0  0  1  0  0  0  0  0  0  0  0
  1  4  1  0  0  0  0
  2  4  1  0  0  0  0
  2  5  2  0  0  0  0
  2  6  1  0  0  0  0
  3  4  1  0  0  0  0
  3  7  1  0  0  0  0
  3  8  1  0  0  0  0
  4 26  1  0  0  0  0
  6  9  1  0  0  0  0
  6 12  1  0  0  0  0
  8 10  1  0  0  0  0
  8 11  2  0  0  0  0
  9 13  1  0  0  0  0
  9 14  1  0  0  0  0
  9 15  1  0  0  0  0
 10 16  1  0  0  0  0
 10 17  1  0  0  0  0
 10 18  1  0  0  0  0
 19 20  1  0  0  0  0
 20 21  4  0  0  0  0
 20 25  4  0  0  0  0
 21 22  4  0  0  0  0
 21 27  1  0  0  0  0
 22 23  4  0  0  0  0
 22 28  1  0  0  0  0
 23 24  4  0  0  0  0
 23 26  1  0  0  0  0
 24 25  4  0  0  0  0
 24 29  1  0  0  0  0
 25 30  1  0  0  0  0
 26 31  1  0  0  0  0
 26 32  1  0  0  0  0
M  END
> <BCLConfClusterSize>
1

> <ConfClashScore>
0 

> <ConfOneFourInteractionScore>
-0.960318 

> <ConfScore>
-0.251388 

> <ConfScorePBest>
0.00709334 

> <ConfTolerance>
0.16117 

> <RosettaParamsInstructions>
M  ROOT 3
M  POLY_N_BB 3
M  POLY_CA_BB 4
M  POLY_C_BB 2
M  POLY_O_BB 5
M  POLY_IGNORE 9 10 11 12 13 14 15 16 17 18 
M  POLY_UPPER 6
M  POLY_LOWER 8
M  POLY_CHG 0
M  POLY_PROPERTIES ALPHA_AA L_AA PROTEIN AROMATIC POLYMER 
M  END

$$$$



 32 32  0  0  0  0  0  0  0  0999 V2000
   -3.1766    1.8674    2.1007 H   0  0  0  1  0  0  0  0  0  0  0  0
   -1.6971    0.3848    2.3348 C   0  0  0  1  0  0  0  0  0  0  0  0
   -1.9751    2.3659    3.7017 N   0  0  0  1  0  0  0  0  0  0  0  0
   -2.1365    1.8412    2.3503 C   0  0  0  1  0  0  0  0  0  0  0  0
   -2.1100   -0.3975    1.4798 O   0  0  0  1  0  0  0  0  0  0  0  0
   -0.8419    0.0233    3.3043 N   0  0  0  1  0  0  0  0  0  0  0  0
   -1.5329    3.2319    3.8231 H   0  0  0  1  0  0  0  0  0  0  0  0
   -2.4093    1.7068    4.7797 C   0  0  0  1  0  0  0  0  0  0  0  0
   -0.3680   -1.3446    3.4527 C   0  0  0  1  0  0  0  0  0  0  0  0
   -2.1044    2.3559    6.1157 C   0  0  0  1  0  0  0  0  0  0  0  0
   -3.0181    0.6423    4.7125 O   0  0  0  1  0  0  0  0  0  0  0  0
   -0.5256    0.7043    3.9341 H   0  0  0  1  0  0  0  0  0  0  0  0
   -0.8082   -1.9592    2.6954 H   0  0  0  1  0  0  0  0  0  0  0  0
   -0.6448   -1.7150    4.4177 H   0  0  0  1  0  0  0  0  0  0  0  0
    0.6972   -1.3655    3.3542 H   0  0  0  1  0  0  0  0  0  0  0  0
   -1.0447    2.4084    6.2537 H   0  0  0  1  0  0  0  0  0  0  0  0
   -2.5379    1.7738    6.9019 H   0  0  0  1  0  0  0  0  0  0  0  0
   -2.5156    3.3436    6.1342 H   0  0  0  1  0  0  0  0  0  0  0  0
   -3.8843    7.6784    0.4533 F   0  0  0  1  0  0  0  0  0  0  0  0
   -3.2892    6.4887    0.6639 C   0  0  0  1  0  0  0  0  0  0  0  0
   -2.0333    6.4356    1.2481 C   0  0  0  1  0  0  0  0  0  0  0  0
   -1.4202    5.2151    1.4594 C   0  0  0  1  0  0  0  0  0  0  0  0
   -2.0637    4.0436    1.0920 C   0  0  0  1  0  0  0  0  0  0  0  0
   -3.3160    4.0963    0.5094 C   0  0  0  1  0  0  0  0  0  0  0  0
   -3.9307    5.3205    0.2975 C   0  0  0  1  0  0  0  0  0  0  0  0
   -1.3968    2.7090    1.3279 C   0  0  0  1  0  0  0  0  0  0  0  0
   -1.5523    7.3143    1.5275 H   0  0  0  1  0  0  0  0  0  0  0  0
   -0.4762    5.1756    1.8941 H   0  0  0  1  0  0  0  0  0  0  0  0
   -3.7969    3.2175    0.2300 H   0  0  0  1  0  0  0  0  0  0  0  0
   -4.8747    5.3600   -0.1371 H   0  0  0  1  0  0  0  0  0  0  0  0
   -1.3553    2.1801    0.3988 H   0  0  0  1  0  0  0  0  0  0  0  0
   -0.4031    2.8832    1.6845 H   0  0  0  1  0  0  0  0  0  0  0  0
  1  4  1  0  0  0  0
  2  4  1  0  0  0  0
  2  5  2  0  0  0  0
  2  6  1  0  0  0  0
  3  4  1  0  0  0  0
  3  7  1  0  0  0  0
  3  8  1  0  0  0  0
  4 26  1  0  0  0  0
  6  9  1  0  0  0  0
  6 12  1  0  0  0  0
  8 10  1  0  0  0  0
  8 11  2  0  0  0  0
  9 13  1  0  0  0  0
  9 14  1  0  0  0  0
  9 15  1  0  0  0  0
 10 16  1  0  0  0  0
 10 17  1  0  0  0  0
 10 18  1  0  0  0  0
 19 20  1  0  0  0  0
 20 21  4  0  0  0  0
 20 25  4  0  0  0  0
 21 22  4  0  0  0  0
 21 27  1  0  0  0  0
 22 23  4  0  0  0  0
 22 28  1  0  0  0  0
 23 24  4  0  0  0  0
 23 26  1  0  0  0  0
 24 25  4  0  0  0  0
 24 29  1  0  0  0  0
 25 30  1  0  0  0  0
 26 31  1  0  0  0  0
 26 32  1  0  0  0  0
M  END
> <BCLConfClusterSize>
1

> <ConfClashScore>
0 

> <ConfOneFourInteractionScore>
-0.960318 

> <ConfScore>
-0.250081 

> <ConfScorePBest>
0.00706485 

> <ConfTolerance>
0.290404 

> <RosettaParamsInstructions>
M  ROOT 3
M  POLY_N_BB 3
M  POLY_CA_BB 4
M  POLY_C_BB 2
M  POLY_O_BB 5
M  POLY_IGNORE 9 10 11 12 13 14 15 16 17 18 
M  POLY_UPPER 6
M  POLY_LOWER 8
M  POLY_CHG 0
M  POLY_PROPERTIES ALPHA_AA L_AA PROTEIN AROMATIC POLYMER 
M  END

$$$$



 32 32  0  0  0  0  0  0  0  0999 V2000
   -0.0055    2.8098   -0.2637 H   0  0  0  1  0  0  0  0  0  0  0  0
    0.0486    0.8449    0.5053 C   0  0  0  1  0  0  0  0  0  0  0  0
   -1.6799    1.7929   -0.9313 N   0  0  0  1  0  0  0  0  0  0  0  0
   -0.7097    2.0983    0.1142 C   0  0  0  1  0  0  0  0  0  0  0  0
   -0.3588   -0.2633    0.1981 O   0  0  0  1  0  0  0  0  0  0  0  0
    1.1798    1.0409    1.2011 N   0  0  0  1  0  0  0  0  0  0  0  0
   -2.3518    1.0945   -0.7859 H   0  0  0  1  0  0  0  0  0  0  0  0
   -1.6545    2.4633   -2.0867 C   0  0  0  1  0  0  0  0  0  0  0  0
    1.9471   -0.0603    1.7636 C   0  0  0  1  0  0  0  0  0  0  0  0
   -2.6885    2.0451   -3.1138 C   0  0  0  1  0  0  0  0  0  0  0  0
   -0.8509    3.3652   -2.3203 O   0  0  0  1  0  0  0  0  0  0  0  0
    1.5000    1.9574    1.3349 H   0  0  0  1  0  0  0  0  0  0  0  0
    1.2788   -0.8173    2.1175 H   0  0  0  1  0  0  0  0  0  0  0  0
    2.5420    0.2988    2.5773 H   0  0  0  1  0  0  0  0  0  0  0  0
    2.5848   -0.4722    1.0095 H   0  0  0  1  0  0  0  0  0  0  0  0
   -3.5380    2.6926   -3.0495 H   0  0  0  1  0  0  0  0  0  0  0  0
   -2.9933    1.0374   -2.9229 H   0  0  0  1  0  0  0  0  0  0  0  0
   -2.2641    2.1103   -4.0938 H   0  0  0  1  0  0  0  0  0  0  0  0
   -3.8565    7.6941    0.4672 F   0  0  0  1  0  0  0  0  0  0  0  0
   -3.2949    6.4853    0.6610 C   0  0  0  1  0  0  0  0  0  0  0  0
   -2.0390    6.4357    1.2455 C   0  0  0  1  0  0  0  0  0  0  0  0
   -1.4232    5.2167    1.4581 C   0  0  0  1  0  0  0  0  0  0  0  0
   -2.0640    4.0435    1.0918 C   0  0  0  1  0  0  0  0  0  0  0  0
   -3.3163    4.0927    0.5090 C   0  0  0  1  0  0  0  0  0  0  0  0
   -3.9338    5.3154    0.2958 C   0  0  0  1  0  0  0  0  0  0  0  0
   -1.3943    2.7106    1.3292 C   0  0  0  1  0  0  0  0  0  0  0  0
   -1.5599    7.3158    1.5240 H   0  0  0  1  0  0  0  0  0  0  0  0
   -0.4792    5.1798    1.8930 H   0  0  0  1  0  0  0  0  0  0  0  0
   -3.7954    3.2126    0.2305 H   0  0  0  1  0  0  0  0  0  0  0  0
   -4.8778    5.3524   -0.1391 H   0  0  0  1  0  0  0  0  0  0  0  0
   -0.6558    2.8436    2.0920 H   0  0  0  1  0  0  0  0  0  0  0  0
   -2.1397    2.0226    1.6697 H   0  0  0  1  0  0  0  0  0  0  0  0
  1  4  1  0  0  0  0
  2  4  1  0  0  0  0
  2  5  2  0  0  0  0
  2  6  1  0  0  0  0
  3  4  1  0  0  0  0
  3  7  1  0  0  0  0
  3  8  1  0  0  0  0
  4 26  1  0  0  0  0
  6  9  1  0  0  0  0
  6 12  1  0  0  0  0
  8 10  1  0  0  0  0
  8 11  2  0  0  0  0
  9 13  1  0  0  0  0
  9 14  1  0  0  0  0
  9 15  1  0  0  0  0
 10 16  1  0  0  0  0
 10 17  1  0  0  0  0
 10 18  1  0  0  0  0
 19 20  1  0  0  0  0
 20 21  4  0  0  0  0
 20 25  4  0  0  0  0
 21 22  4  0  0  0  0
 21 27  1  0  0  0  0
 22 23  4  0  0  0  0
 22 28  1  0  0  0  0
 23 24  4  0  0  0  0
 23 26  1  0  0  0  0
 24 25  4  0  0  0  0
 24 29  1  0  0  0  0
 25 30  1  0  0  0  0
 26 31  1  0  0  0  0
 26 32  1  0  0  0  0
M  END
> <BCLConfClusterSize>
1

> <ConfClashScore>
0 

> <ConfOneFourInteractionScore>
-0.990503 

> <ConfScore>
-0.246564 

> <ConfScorePBest>
0.00703637 

> <ConfTolerance>
0.25664 

> <RosettaParamsInstructions>
M  ROOT 3
M  POLY_N_BB 3
M  POLY_CA_BB 4
M  POLY_C_BB 2
M  POLY_O_BB 5
M  POLY_IGNORE 9 10 11 12 13 14 15 16 17 18 
M  POLY_UPPER 6
M  POLY_LOWER 8
M  POLY_CHG 0
M  POLY_PROPERTIES ALPHA_AA L_AA PROTEIN AROMATIC POLYMER 
M  END

$$$$



 32 32  0  0  0  0  0  0  0  0999 V2000
    0.2138    3.0286    0.0024 H   0  0  0  1  0  0  0  0  0  0  0  0
    0.2038    0.9757    0.5534 C   0  0  0  1  0  0  0  0  0  0  0  0
   -1.2926    2.0672   -1.0532 N   0  0  0  1  0  0  0  0  0  0  0  0
   -0.5153    2.2615    0.1603 C   0  0  0  1  0  0  0  0  0  0  0  0
    1.3663    0.9910    0.9493 O   0  0  0  1  0  0  0  0  0  0  0  0
   -0.5105   -0.1475    0.4376 N   0  0  0  1  0  0  0  0  0  0  0  0
   -2.2073    1.7233   -0.9789 H   0  0  0  1  0  0  0  0  0  0  0  0
   -0.7992    2.3437   -2.2760 C   0  0  0  1  0  0  0  0  0  0  0  0
    0.0898   -1.4322    0.7649 C   0  0  0  1  0  0  0  0  0  0  0  0
   -1.7920    2.1170   -3.3994 C   0  0  0  1  0  0  0  0  0  0  0  0
    0.3433    2.7436   -2.4960 O   0  0  0  1  0  0  0  0  0  0  0  0
   -1.4406   -0.1061    0.1317 H   0  0  0  1  0  0  0  0  0  0  0  0
    0.7231   -1.3230    1.6204 H   0  0  0  1  0  0  0  0  0  0  0  0
    0.6694   -1.7767   -0.0659 H   0  0  0  1  0  0  0  0  0  0  0  0
   -0.6817   -2.1414    0.9808 H   0  0  0  1  0  0  0  0  0  0  0  0
   -2.4407    1.3051   -3.1444 H   0  0  0  1  0  0  0  0  0  0  0  0
   -1.2639    1.8820   -4.2998 H   0  0  0  1  0  0  0  0  0  0  0  0
   -2.3721    3.0040   -3.5467 H   0  0  0  1  0  0  0  0  0  0  0  0
   -3.8878    7.6762    0.4515 F   0  0  0  1  0  0  0  0  0  0  0  0
   -3.2890    6.4887    0.6640 C   0  0  0  1  0  0  0  0  0  0  0  0
   -2.0330    6.4405    1.2486 C   0  0  0  1  0  0  0  0  0  0  0  0
   -1.4161    5.2223    1.4618 C   0  0  0  1  0  0  0  0  0  0  0  0
   -2.0557    4.0482    1.0959 C   0  0  0  1  0  0  0  0  0  0  0  0
   -3.3080    4.0960    0.5131 C   0  0  0  1  0  0  0  0  0  0  0  0
   -3.9267    5.3180    0.2992 C   0  0  0  1  0  0  0  0  0  0  0  0
   -1.4343    2.6881    1.3092 C   0  0  0  1  0  0  0  0  0  0  0  0
   -1.5548    7.3212    1.5267 H   0  0  0  1  0  0  0  0  0  0  0  0
   -0.4721    5.1864    1.8967 H   0  0  0  1  0  0  0  0  0  0  0  0
   -3.7862    3.2153    0.2349 H   0  0  0  1  0  0  0  0  0  0  0  0
   -4.8707    5.3538   -0.1357 H   0  0  0  1  0  0  0  0  0  0  0  0
   -0.8611    2.7134    2.2124 H   0  0  0  1  0  0  0  0  0  0  0  0
   -2.2185    1.9664    1.4040 H   0  0  0  1  0  0  0  0  0  0  0  0
  1  4  1  0  0  0  0
  2  4  1  0  0  0  0
  2  5  2  0  0  0  0
  2  6  1  0  0  0  0
  3  4  1  0  0  0  0
  3  7  1  0  0  0  0
  3  8  1  0  0  0  0
  4 26  1  0  0  0  0
  6  9  1  0  0  0  0
  6 12  1  0  0  0  0
  8 10  1  0  0  0  0
  8 11  2  0  0  0  0
  9 13  1  0  0  0  0
  9 14  1  0  0  0  0
  9 15  1  0  0  0  0
 10 16  1  0  0  0  0
 10 17  1  0  0  0  0
 10 18  1  0  0  0  0
 19 20  1  0  0  0  0
 20 21  4  0  0  0  0
 20 25  4  0  0  0  0
 21 22  4  0  0  0  0
 21 27  1  0  0  0  0
 22 23  4  0  0  0  0
 22 28  1  0  0  0  0
 23 24  4  0  0  0  0
 23 26  1  0  0  0  0
 24 25  4  0  0  0  0
 24 29  1  0  0  0  0
 25 30  1  0  0  0  0
 26 31  1  0  0  0  0
 26 32  1  0  0  0  0
M  END
> <BCLConfClusterSize>
1

> <ConfClashScore>
0 

> <ConfOneFourInteractionScore>
-0.960318 

> <ConfScore>
-0.239012 

> <ConfScorePBest>
0.00700789 

> <ConfTolerance>
0.172854 

> <RosettaParamsInstructions>
M  ROOT 3
M  POLY_N_BB 3
M  POLY_CA_BB 4
M  POLY_C_BB 2
M  POLY_O_BB 5
M  POLY_IGNORE 9 10 11 12 13 14 15 16 17 18 
M  POLY_UPPER 6
M  POLY_LOWER 8
M  POLY_CHG 0
M  POLY_PROPERTIES ALPHA_AA L_AA PROTEIN AROMATIC POLYMER 
M  END

$$$$



 32 32  0  0  0  0  0  0  0  0999 V2000
   -0.8823    2.2296   -0.6715 H   0  0  0  1  0  0  0  0  0  0  0  0
    0.7004    3.3467    0.1877 C   0  0  0  1  0  0  0  0  0  0  0  0
    0.1818    0.9957    0.6135 N   0  0  0  1  0  0  0  0  0  0  0  0
   -0.3847    2.2910    0.2738 C   0  0  0  1  0  0  0  0  0  0  0  0
    0.7011    4.1783   -0.7189 O   0  0  0  1  0  0  0  0  0  0  0  0
    1.6577    3.3458    1.1287 N   0  0  0  1  0  0  0  0  0  0  0  0
   -0.0607    0.5623    1.4584 H   0  0  0  1  0  0  0  0  0  0  0  0
    1.0360    0.3925   -0.2272 C   0  0  0  1  0  0  0  0  0  0  0  0
    2.8536    4.1683    1.0219 C   0  0  0  1  0  0  0  0  0  0  0  0
    1.4759   -1.0032    0.1698 C   0  0  0  1  0  0  0  0  0  0  0  0
    1.4434    0.9177   -1.2502 O   0  0  0  1  0  0  0  0  0  0  0  0
    1.5475    2.7713    1.9150 H   0  0  0  1  0  0  0  0  0  0  0  0
    2.6144    5.0828    0.5205 H   0  0  0  1  0  0  0  0  0  0  0  0
    3.6001    3.6412    0.4652 H   0  0  0  1  0  0  0  0  0  0  0  0
    3.2254    4.3855    2.0014 H   0  0  0  1  0  0  0  0  0  0  0  0
    0.7613   -1.4242    0.8458 H   0  0  0  1  0  0  0  0  0  0  0  0
    2.4320   -0.9531    0.6476 H   0  0  0  1  0  0  0  0  0  0  0  0
    1.5449   -1.6172   -0.7038 H   0  0  0  1  0  0  0  0  0  0  0  0
   -3.8843    7.6784    0.4533 F   0  0  0  1  0  0  0  0  0  0  0  0
   -3.2892    6.4887    0.6639 C   0  0  0  1  0  0  0  0  0  0  0  0
   -2.0333    6.4356    1.2481 C   0  0  0  1  0  0  0  0  0  0  0  0
   -1.4202    5.2151    1.4594 C   0  0  0  1  0  0  0  0  0  0  0  0
   -2.0637    4.0436    1.0920 C   0  0  0  1  0  0  0  0  0  0  0  0
   -3.3160    4.0963    0.5094 C   0  0  0  1  0  0  0  0  0  0  0  0
   -3.9307    5.3205    0.2975 C   0  0  0  1  0  0  0  0  0  0  0  0
   -1.3968    2.7090    1.3279 C   0  0  0  1  0  0  0  0  0  0  0  0
   -1.5523    7.3143    1.5275 H   0  0  0  1  0  0  0  0  0  0  0  0
   -0.4762    5.1756    1.8941 H   0  0  0  1  0  0  0  0  0  0  0  0
   -3.7969    3.2175    0.2300 H   0  0  0  1  0  0  0  0  0  0  0  0
   -4.8747    5.3600   -0.1371 H   0  0  0  1  0  0  0  0  0  0  0  0
   -0.8922    2.7542    2.2704 H   0  0  0  1  0  0  0  0  0  0  0  0
   -2.1606    1.9608    1.3672 H   0  0  0  1  0  0  0  0  0  0  0  0
  1  4  1  0  0  0  0
  2  4  1  0  0  0  0
  2  5  2  0  0  0  0
  2  6  1  0  0  0  0
  3  4  1  0  0  0  0
  3  7  1  0  0  0  0
  3  8  1  0  0  0  0
  4 26  1  0  0  0  0
  6  9  1  0  0  0  0
  6 12  1  0  0  0  0
  8 10  1  0  0  0  0
  8 11  2  0  0  0  0
  9 13  1  0  0  0  0
  9 14  1  0  0  0  0
  9 15  1  0  0  0  0
 10 16  1  0  0  0  0
 10 17  1  0  0  0  0
 10 18  1  0  0  0  0
 19 20  1  0  0  0  0
 20 21  4  0  0  0  0
 20 25  4  0  0  0  0
 21 22  4  0  0  0  0
 21 27  1  0  0  0  0
 22 23  4  0  0  0  0
 22 28  1  0  0  0  0
 23 24  4  0  0  0  0
 23 26  1  0  0  0  0
 24 25  4  0  0  0  0
 24 29  1  0  0  0  0
 25 30  1  0  0  0  0
 26 31  1  0  0  0  0
 26 32  1  0  0  0  0
M  END
> <BCLConfClusterSize>
1

> <ConfClashScore>
0 

> <ConfOneFourInteractionScore>
-0.956443 

> <ConfScore>
-0.236205 

> <ConfScorePBest>
0.00697941 

> <ConfTolerance>
0.176273 

> <RosettaParamsInstructions>
M  ROOT 3
M  POLY_N_BB 3
M  POLY_CA_BB 4
M  POLY_C_BB 2
M  POLY_O_BB 5
M  POLY_IGNORE 9 10 11 12 13 14 15 16 17 18 
M  POLY_UPPER 6
M  POLY_LOWER 8
M  POLY_CHG 0
M  POLY_PROPERTIES ALPHA_AA L_AA PROTEIN AROMATIC POLYMER 
M  END

$$$$



 32 32  0  0  0  0  0  0  0  0999 V2000
   -2.8382    2.1393    2.7681 H   0  0  0  1  0  0  0  0  0  0  0  0
   -1.3768    0.6140    2.6948 C   0  0  0  1  0  0  0  0  0  0  0  0
   -1.1505    2.7945    3.7691 N   0  0  0  1  0  0  0  0  0  0  0  0
   -1.7750    2.0808    2.6629 C   0  0  0  1  0  0  0  0  0  0  0  0
   -0.1930    0.3426    2.8910 O   0  0  0  1  0  0  0  0  0  0  0  0
   -2.3307   -0.3028    2.5085 N   0  0  0  1  0  0  0  0  0  0  0  0
   -0.1726    2.8571    3.7734 H   0  0  0  1  0  0  0  0  0  0  0  0
   -1.8173    3.3757    4.7879 C   0  0  0  1  0  0  0  0  0  0  0  0
   -2.0669   -1.7305    2.6087 C   0  0  0  1  0  0  0  0  0  0  0  0
   -1.0125    3.8871    5.9669 C   0  0  0  1  0  0  0  0  0  0  0  0
   -3.0422    3.4886    4.7635 O   0  0  0  1  0  0  0  0  0  0  0  0
   -3.2396   -0.0034    2.2970 H   0  0  0  1  0  0  0  0  0  0  0  0
   -2.8647   -2.2045    3.1414 H   0  0  0  1  0  0  0  0  0  0  0  0
   -1.1467   -1.8871    3.1316 H   0  0  0  1  0  0  0  0  0  0  0  0
   -1.9956   -2.1495    1.6268 H   0  0  0  1  0  0  0  0  0  0  0  0
   -0.0732    3.3762    6.0066 H   0  0  0  1  0  0  0  0  0  0  0  0
   -1.5540    3.7085    6.8723 H   0  0  0  1  0  0  0  0  0  0  0  0
   -0.8425    4.9374    5.8536 H   0  0  0  1  0  0  0  0  0  0  0  0
   -3.8843    7.6784    0.4533 F   0  0  0  1  0  0  0  0  0  0  0  0
   -3.2892    6.4887    0.6639 C   0  0  0  1  0  0  0  0  0  0  0  0
   -2.0333    6.4356    1.2481 C   0  0  0  1  0  0  0  0  0  0  0  0
   -1.4202    5.2151    1.4594 C   0  0  0  1  0  0  0  0  0  0  0  0
   -2.0637    4.0436    1.0920 C   0  0  0  1  0  0  0  0  0  0  0  0
   -3.3160    4.0963    0.5094 C   0  0  0  1  0  0  0  0  0  0  0  0
   -3.9307    5.3205    0.2975 C   0  0  0  1  0  0  0  0  0  0  0  0
   -1.3968    2.7090    1.3279 C   0  0  0  1  0  0  0  0  0  0  0  0
   -1.5523    7.3143    1.5275 H   0  0  0  1  0  0  0  0  0  0  0  0
   -0.4762    5.1756    1.8941 H   0  0  0  1  0  0  0  0  0  0  0  0
   -3.7969    3.2175    0.2300 H   0  0  0  1  0  0  0  0  0  0  0  0
   -4.8747    5.3600   -0.1371 H   0  0  0  1  0  0  0  0  0  0  0  0
   -1.6849    2.0409    0.5433 H   0  0  0  1  0  0  0  0  0  0  0  0
   -0.3363    2.8496    1.3059 H   0  0  0  1  0  0  0  0  0  0  0  0
  1  4  1  0  0  0  0
  2  4  1  0  0  0  0
  2  5  2  0  0  0  0
  2  6  1  0  0  0  0
  3  4  1  0  0  0  0
  3  7  1  0  0  0  0
  3  8  1  0  0  0  0
  4 26  1  0  0  0  0
  6  9  1  0  0  0  0
  6 12  1  0  0  0  0
  8 10  1  0  0  0  0
  8 11  2  0  0  0  0
  9 13  1  0  0  0  0
  9 14  1  0  0  0  0
  9 15  1  0  0  0  0
 10 16  1  0  0  0  0
 10 17  1  0  0  0  0
 10 18  1  0  0  0  0
 19 20  1  0  0  0  0
 20 21  4  0  0  0  0
 20 25  4  0  0  0  0
 21 22  4  0  0  0  0
 21 27  1  0  0  0  0
 22 23  4  0  0  0  0
 22 28  1  0  0  0  0
 23 24  4  0  0  0  0
 23 26  1  0  0  0  0
 24 25  4  0  0  0  0
 24 29  1  0  0  0  0
 25 30  1  0  0  0  0
 26 31  1  0  0  0  0
 26 32  1  0  0  0  0
M  END
> <BCLConfClusterSize>
1

> <ConfClashScore>
0 

> <ConfOneFourInteractionScore>
-0.974251 

> <ConfScore>
-0.235943 

> <ConfScorePBest>
0.00695093 

> <ConfTolerance>
0.223748 

> <RosettaParamsInstructions>
M  ROOT 3
M  POLY_N_BB 3
M  POLY_CA_BB 4
M  POLY_C_BB 2
M  POLY_O_BB 5
M  POLY_IGNORE 9 10 11 12 13 14 15 16 17 18 
M  POLY_UPPER 6
M  POLY_LOWER 8
M  POLY_CHG 0
M  POLY_PROPERTIES ALPHA_AA L_AA PROTEIN AROMATIC POLYMER 
M  END

$$$$



 32 32  0  0  0  0  0  0  0  0999 V2000
   -2.6313    1.9906    2.8858 H   0  0  0  1  0  0  0  0  0  0  0  0
   -0.7824    0.9972    3.0789 C   0  0  0  1  0  0  0  0  0  0  0  0
   -1.3061    3.3418    3.6944 N   0  0  0  1  0  0  0  0  0  0  0  0
   -1.5987    2.2495    2.7783 C   0  0  0  1  0  0  0  0  0  0  0  0
   -1.3013   -0.1160    3.0831 O   0  0  0  1  0  0  0  0  0  0  0  0
    0.5120    1.1961    3.3321 N   0  0  0  1  0  0  0  0  0  0  0  0
   -0.6245    3.9912    3.4222 H   0  0  0  1  0  0  0  0  0  0  0  0
   -1.8958    3.5255    4.8767 C   0  0  0  1  0  0  0  0  0  0  0  0
    1.4179    0.1037    3.6544 C   0  0  0  1  0  0  0  0  0  0  0  0
   -1.5311    4.8058    5.6027 C   0  0  0  1  0  0  0  0  0  0  0  0
   -2.6861    2.7205    5.3621 O   0  0  0  1  0  0  0  0  0  0  0  0
    0.8653    2.1097    3.3000 H   0  0  0  1  0  0  0  0  0  0  0  0
    1.0505   -0.8040    3.2232 H   0  0  0  1  0  0  0  0  0  0  0  0
    1.4801   -0.0060    4.7170 H   0  0  0  1  0  0  0  0  0  0  0  0
    2.3892    0.3181    3.2601 H   0  0  0  1  0  0  0  0  0  0  0  0
   -0.8513    5.3749    5.0037 H   0  0  0  1  0  0  0  0  0  0  0  0
   -1.0680    4.5661    6.5371 H   0  0  0  1  0  0  0  0  0  0  0  0
   -2.4166    5.3797    5.7798 H   0  0  0  1  0  0  0  0  0  0  0  0
   -3.8565    7.6941    0.4672 F   0  0  0  1  0  0  0  0  0  0  0  0
   -3.2949    6.4853    0.6610 C   0  0  0  1  0  0  0  0  0  0  0  0
   -2.0390    6.4357    1.2455 C   0  0  0  1  0  0  0  0  0  0  0  0
   -1.4232    5.2167    1.4581 C   0  0  0  1  0  0  0  0  0  0  0  0
   -2.0640    4.0435    1.0918 C   0  0  0  1  0  0  0  0  0  0  0  0
   -3.3163    4.0927    0.5090 C   0  0  0  1  0  0  0  0  0  0  0  0
   -3.9338    5.3154    0.2958 C   0  0  0  1  0  0  0  0  0  0  0  0
   -1.3943    2.7106    1.3292 C   0  0  0  1  0  0  0  0  0  0  0  0
   -1.5599    7.3158    1.5240 H   0  0  0  1  0  0  0  0  0  0  0  0
   -0.4792    5.1798    1.8930 H   0  0  0  1  0  0  0  0  0  0  0  0
   -3.7954    3.2126    0.2305 H   0  0  0  1  0  0  0  0  0  0  0  0
   -4.8778    5.3524   -0.1391 H   0  0  0  1  0  0  0  0  0  0  0  0
   -1.8155    1.9834    0.6669 H   0  0  0  1  0  0  0  0  0  0  0  0
   -0.3462    2.8053    1.1357 H   0  0  0  1  0  0  0  0  0  0  0  0
  1  4  1  0  0  0  0
  2  4  1  0  0  0  0
  2  5  2  0  0  0  0
  2  6  1  0  0  0  0
  3  4  1  0  0  0  0
  3  7  1  0  0  0  0
  3  8  1  0  0  0  0
  4 26  1  0  0  0  0
  6  9  1  0  0  0  0
  6 12  1  0  0  0  0
  8 10  1  0  0  0  0
  8 11  2  0  0  0  0
  9 13  1  0  0  0  0
  9 14  1  0  0  0  0
  9 15  1  0  0  0  0
 10 16  1  0  0  0  0
 10 17  1  0  0  0  0
 10 18  1  0  0  0  0
 19 20  1  0  0  0  0
 20 21  4  0  0  0  0
 20 25  4  0  0  0  0
 21 22  4  0  0  0  0
 21 27  1  0  0  0  0
 22 23  4  0  0  0  0
 22 28  1  0  0  0  0
 23 24  4  0  0  0  0
 23 26  1  0  0  0  0
 24 25  4  0  0  0  0
 24 29  1  0  0  0  0
 25 30  1  0  0  0  0
 26 31  1  0  0  0  0
 26 32  1  0  0  0  0
M  END
> <BCLConfClusterSize>
1

> <ConfClashScore>
0 

> <ConfOneFourInteractionScore>
-0.960318 

> <ConfScore>
-0.234088 

> <ConfScorePBest>
0.00692245 

> <ConfTolerance>
0.302051 

> <RosettaParamsInstructions>
M  ROOT 3
M  POLY_N_BB 3
M  POLY_CA_BB 4
M  POLY_C_BB 2
M  POLY_O_BB 5
M  POLY_IGNORE 9 10 11 12 13 14 15 16 17 18 
M  POLY_UPPER 6
M  POLY_LOWER 8
M  POLY_CHG 0
M  POLY_PROPERTIES ALPHA_AA L_AA PROTEIN AROMATIC POLYMER 
M  END

$$$$



 32 32  0  0  0  0  0  0  0  0999 V2000
    0.1046    3.0424   -0.0994 H   0  0  0  1  0  0  0  0  0  0  0  0
    0.1716    1.0002    0.3556 C   0  0  0  1  0  0  0  0  0  0  0  0
   -1.4527    2.1439   -1.0816 N   0  0  0  1  0  0  0  0  0  0  0  0
   -0.6119    2.2726    0.0978 C   0  0  0  1  0  0  0  0  0  0  0  0
    1.0828    0.9711    1.1662 O   0  0  0  1  0  0  0  0  0  0  0  0
   -0.2043   -0.0713   -0.3603 N   0  0  0  1  0  0  0  0  0  0  0  0
   -2.3907    1.8955   -0.9445 H   0  0  0  1  0  0  0  0  0  0  0  0
   -1.0409    2.3397   -2.3435 C   0  0  0  1  0  0  0  0  0  0  0  0
    0.4338   -1.3780   -0.3020 C   0  0  0  1  0  0  0  0  0  0  0  0
   -2.1286    2.3324   -3.4000 C   0  0  0  1  0  0  0  0  0  0  0  0
    0.1293    2.5141   -2.6409 O   0  0  0  1  0  0  0  0  0  0  0  0
   -0.9659    0.0342   -0.9681 H   0  0  0  1  0  0  0  0  0  0  0  0
    1.4782   -1.2568   -0.1031 H   0  0  0  1  0  0  0  0  0  0  0  0
    0.3050   -1.8797   -1.2382 H   0  0  0  1  0  0  0  0  0  0  0  0
   -0.0126   -1.9581    0.4785 H   0  0  0  1  0  0  0  0  0  0  0  0
   -2.8734    3.0592   -3.1509 H   0  0  0  1  0  0  0  0  0  0  0  0
   -2.5777    1.3621   -3.4425 H   0  0  0  1  0  0  0  0  0  0  0  0
   -1.7024    2.5707   -4.3520 H   0  0  0  1  0  0  0  0  0  0  0  0
   -3.8843    7.6784    0.4533 F   0  0  0  1  0  0  0  0  0  0  0  0
   -3.2892    6.4887    0.6639 C   0  0  0  1  0  0  0  0  0  0  0  0
   -2.0333    6.4356    1.2481 C   0  0  0  1  0  0  0  0  0  0  0  0
   -1.4202    5.2151    1.4594 C   0  0  0  1  0  0  0  0  0  0  0  0
   -2.0637    4.0436    1.0920 C   0  0  0  1  0  0  0  0  0  0  0  0
   -3.3160    4.0963    0.5094 C   0  0  0  1  0  0  0  0  0  0  0  0
   -3.9307    5.3205    0.2975 C   0  0  0  1  0  0  0  0  0  0  0  0
   -1.3968    2.7090    1.3279 C   0  0  0  1  0  0  0  0  0  0  0  0
   -1.5523    7.3143    1.5275 H   0  0  0  1  0  0  0  0  0  0  0  0
   -0.4762    5.1756    1.8941 H   0  0  0  1  0  0  0  0  0  0  0  0
   -3.7969    3.2175    0.2300 H   0  0  0  1  0  0  0  0  0  0  0  0
   -4.8747    5.3600   -0.1371 H   0  0  0  1  0  0  0  0  0  0  0  0
   -0.7282    2.7930    2.1591 H   0  0  0  1  0  0  0  0  0  0  0  0
   -2.1457    1.9761    1.5446 H   0  0  0  1  0  0  0  0  0  0  0  0
  1  4  1  0  0  0  0
  2  4  1  0  0  0  0
  2  5  2  0  0  0  0
  2  6  1  0  0  0  0
  3  4  1  0  0  0  0
  3  7  1  0  0  0  0
  3  8  1  0  0  0  0
  4 26  1  0  0  0  0
  6  9  1  0  0  0  0
  6 12  1  0  0  0  0
  8 10  1  0  0  0  0
  8 11  2  0  0  0  0
  9 13  1  0  0  0  0
  9 14  1  0  0  0  0
  9 15  1  0  0  0  0
 10 16  1  0  0  0  0
 10 17  1  0  0  0  0
 10 18  1  0  0  0  0
 19 20  1  0  0  0  0
 20 21  4  0  0  0  0
 20 25  4  0  0  0  0
 21 22  4  0  0  0  0
 21 27  1  0  0  0  0
 22 23  4  0  0  0  0
 22 28  1  0  0  0  0
 23 24  4  0  0  0  0
 23 26  1  0  0  0  0
 24 25  4  0  0  0  0
 24 29  1  0  0  0  0
 25 30  1  0  0  0  0
 26 31  1  0  0  0  0
 26 32  1  0  0  0  0
M  END
> <BCLConfClusterSize>
1

> <ConfClashScore>
0 

> <ConfOneFourInteractionScore>
-0.94165 

> <ConfScore>
-0.230412 

> <ConfScorePBest>
0.00689397 

> <ConfTolerance>
0.18914 

> <RosettaParamsInstructions>
M  ROOT 3
M  POLY_N_BB 3
M  POLY_CA_BB 4
M  POLY_C_BB 2
M  POLY_O_BB 5
M  POLY_IGNORE 9 10 11 12 13 14 15 16 17 18 
M  POLY_UPPER 6
M  POLY_LOWER 8
M  POLY_CHG 0
M  POLY_PROPERTIES ALPHA_AA L_AA PROTEIN AROMATIC POLYMER 
M  END

$$$$



 32 32  0  0  0  0  0  0  0  0999 V2000
   -1.7956    2.7519    3.4212 H   0  0  0  1  0  0  0  0  0  0  0  0
   -3.3682    1.6739    2.4889 C   0  0  0  1  0  0  0  0  0  0  0  0
   -1.1617    0.8456    2.9099 N   0  0  0  1  0  0  0  0  0  0  0  0
   -1.8989    2.0636    2.6085 C   0  0  0  1  0  0  0  0  0  0  0  0
   -4.2628    2.5077    2.6235 O   0  0  0  1  0  0  0  0  0  0  0  0
   -3.6089    0.3788    2.2307 N   0  0  0  1  0  0  0  0  0  0  0  0
   -0.5321    0.4970    2.2447 H   0  0  0  1  0  0  0  0  0  0  0  0
   -1.3134    0.1861    4.0619 C   0  0  0  1  0  0  0  0  0  0  0  0
   -4.9582   -0.1606    2.1524 C   0  0  0  1  0  0  0  0  0  0  0  0
   -0.5062   -1.0898    4.2018 C   0  0  0  1  0  0  0  0  0  0  0  0
   -2.0559    0.5738    4.9630 O   0  0  0  1  0  0  0  0  0  0  0  0
   -2.8495   -0.2245    2.0900 H   0  0  0  1  0  0  0  0  0  0  0  0
   -5.6061    0.5618    1.7016 H   0  0  0  1  0  0  0  0  0  0  0  0
   -5.3088   -0.3882    3.1374 H   0  0  0  1  0  0  0  0  0  0  0  0
   -4.9520   -1.0521    1.5607 H   0  0  0  1  0  0  0  0  0  0  0  0
   -0.9658   -1.7253    4.9296 H   0  0  0  1  0  0  0  0  0  0  0  0
    0.4883   -0.8498    4.5154 H   0  0  0  1  0  0  0  0  0  0  0  0
   -0.4714   -1.5947    3.2590 H   0  0  0  1  0  0  0  0  0  0  0  0
   -3.8810    7.6803    0.4549 F   0  0  0  1  0  0  0  0  0  0  0  0
   -3.2894    6.4885    0.6638 C   0  0  0  1  0  0  0  0  0  0  0  0
   -2.0335    6.4309    1.2477 C   0  0  0  1  0  0  0  0  0  0  0  0
   -1.4240    5.2083    1.4572 C   0  0  0  1  0  0  0  0  0  0  0  0
   -2.0710    4.0392    1.0883 C   0  0  0  1  0  0  0  0  0  0  0  0
   -3.3233    4.0964    0.5060 C   0  0  0  1  0  0  0  0  0  0  0  0
   -3.9344    5.3227    0.2959 C   0  0  0  1  0  0  0  0  0  0  0  0
   -1.3626    2.7301    1.3451 C   0  0  0  1  0  0  0  0  0  0  0  0
   -1.5498    7.3078    1.5282 H   0  0  0  1  0  0  0  0  0  0  0  0
   -0.4801    5.1654    1.8917 H   0  0  0  1  0  0  0  0  0  0  0  0
   -3.8069    3.2194    0.2255 H   0  0  0  1  0  0  0  0  0  0  0  0
   -4.8783    5.3657   -0.1385 H   0  0  0  1  0  0  0  0  0  0  0  0
   -1.5179    2.0777    0.5113 H   0  0  0  1  0  0  0  0  0  0  0  0
   -0.3155    2.9153    1.4636 H   0  0  0  1  0  0  0  0  0  0  0  0
  1  4  1  0  0  0  0
  2  4  1  0  0  0  0
  2  5  2  0  0  0  0
  2  6  1  0  0  0  0
  3  4  1  0  0  0  0
  3  7  1  0  0  0  0
  3  8  1  0  0  0  0
  4 26  1  0  0  0  0
  6  9  1  0  0  0  0
  6 12  1  0  0  0  0
  8 10  1  0  0  0  0
  8 11  2  0  0  0  0
  9 13  1  0  0  0  0
  9 14  1  0  0  0  0
  9 15  1  0  0  0  0
 10 16  1  0  0  0  0
 10 17  1  0  0  0  0
 10 18  1  0  0  0  0
 19 20  1  0  0  0  0
 20 21  4  0  0  0  0
 20 25  4  0  0  0  0
 21 22  4  0  0  0  0
 21 27  1  0  0  0  0
 22 23  4  0  0  0  0
 22 28  1  0  0  0  0
 23 24  4  0  0  0  0
 23 26  1  0  0  0  0
 24 25  4  0  0  0  0
 24 29  1  0  0  0  0
 25 30  1  0  0  0  0
 26 31  1  0  0  0  0
 26 32  1  0  0  0  0
M  END
> <BCLConfClusterSize>
1

> <ConfClashScore>
0 

> <ConfOneFourInteractionScore>
-0.94165 

> <ConfScore>
-0.221814 

> <ConfScorePBest>
0.00686549 

> <ConfTolerance>
0.202736 

> <RosettaParamsInstructions>
M  ROOT 3
M  POLY_N_BB 3
M  POLY_CA_BB 4
M  POLY_C_BB 2
M  POLY_O_BB 5
M  POLY_IGNORE 9 10 11 12 13 14 15 16 17 18 
M  POLY_UPPER 6
M  POLY_LOWER 8
M  POLY_CHG 0
M  POLY_PROPERTIES ALPHA_AA L_AA PROTEIN AROMATIC POLYMER 
M  END

$$$$



 32 32  0  0  0  0  0  0  0  0999 V2000
   -1.8331    2.6656    3.3940 H   0  0  0  1  0  0  0  0  0  0  0  0
   -3.5493    1.9832    2.3994 C   0  0  0  1  0  0  0  0  0  0  0  0
   -1.4504    0.7398    2.7802 N   0  0  0  1  0  0  0  0  0  0  0  0
   -2.0459    2.0470    2.5473 C   0  0  0  1  0  0  0  0  0  0  0  0
   -4.2606    2.9127    2.7787 O   0  0  0  1  0  0  0  0  0  0  0  0
   -4.0826    0.8841    1.8430 N   0  0  0  1  0  0  0  0  0  0  0  0
   -0.7149    0.4852    2.1846 H   0  0  0  1  0  0  0  0  0  0  0  0
   -1.7927   -0.1539    3.7148 C   0  0  0  1  0  0  0  0  0  0  0  0
   -5.5142    0.8141    1.5906 C   0  0  0  1  0  0  0  0  0  0  0  0
   -0.9867   -1.4330    3.7271 C   0  0  0  1  0  0  0  0  0  0  0  0
   -2.7022    0.0352    4.5211 O   0  0  0  1  0  0  0  0  0  0  0  0
   -3.5068    0.1273    1.6063 H   0  0  0  1  0  0  0  0  0  0  0  0
   -6.0451    1.2021    2.4346 H   0  0  0  1  0  0  0  0  0  0  0  0
   -5.7981   -0.2047    1.4285 H   0  0  0  1  0  0  0  0  0  0  0  0
   -5.7518    1.3935    0.7229 H   0  0  0  1  0  0  0  0  0  0  0  0
   -0.1803   -1.3404    4.4244 H   0  0  0  1  0  0  0  0  0  0  0  0
   -0.5930   -1.6156    2.7491 H   0  0  0  1  0  0  0  0  0  0  0  0
   -1.6163   -2.2483    4.0167 H   0  0  0  1  0  0  0  0  0  0  0  0
   -3.8843    7.6784    0.4533 F   0  0  0  1  0  0  0  0  0  0  0  0
   -3.2892    6.4887    0.6639 C   0  0  0  1  0  0  0  0  0  0  0  0
   -2.0333    6.4356    1.2481 C   0  0  0  1  0  0  0  0  0  0  0  0
   -1.4202    5.2151    1.4594 C   0  0  0  1  0  0  0  0  0  0  0  0
   -2.0637    4.0436    1.0920 C   0  0  0  1  0  0  0  0  0  0  0  0
   -3.3160    4.0963    0.5094 C   0  0  0  1  0  0  0  0  0  0  0  0
   -3.9307    5.3205    0.2975 C   0  0  0  1  0  0  0  0  0  0  0  0
   -1.3968    2.7090    1.3279 C   0  0  0  1  0  0  0  0  0  0  0  0
   -1.5523    7.3143    1.5275 H   0  0  0  1  0  0  0  0  0  0  0  0
   -0.4762    5.1756    1.8941 H   0  0  0  1  0  0  0  0  0  0  0  0
   -3.7969    3.2175    0.2300 H   0  0  0  1  0  0  0  0  0  0  0  0
   -4.8747    5.3600   -0.1371 H   0  0  0  1  0  0  0  0  0  0  0  0
   -1.5251    2.0851    0.4682 H   0  0  0  1  0  0  0  0  0  0  0  0
   -0.3527    2.8553    1.5105 H   0  0  0  1  0  0  0  0  0  0  0  0
  1  4  1  0  0  0  0
  2  4  1  0  0  0  0
  2  5  2  0  0  0  0
  2  6  1  0  0  0  0
  3  4  1  0  0  0  0
  3  7  1  0  0  0  0
  3  8  1  0  0  0  0
  4 26  1  0  0  0  0
  6  9  1  0  0  0  0
  6 12  1  0  0  0  0
  8 10  1  0  0  0  0
  8 11  2  0  0  0  0
  9 13  1  0  0  0  0
  9 14  1  0  0  0  0
  9 15  1  0  0  0  0
 10 16  1  0  0  0  0
 10 17  1  0  0  0  0
 10 18  1  0  0  0  0
 19 20  1  0  0  0  0
 20 21  4  0  0  0  0
 20 25  4  0  0  0  0
 21 22  4  0  0  0  0
 21 27  1  0  0  0  0
 22 23  4  0  0  0  0
 22 28  1  0  0  0  0
 23 24  4  0  0  0  0
 23 26  1  0  0  0  0
 24 25  4  0  0  0  0
 24 29  1  0  0  0  0
 25 30  1  0  0  0  0
 26 31  1  0  0  0  0
 26 32  1  0  0  0  0
M  END
> <BCLConfClusterSize>
1

> <ConfClashScore>
0 

> <ConfOneFourInteractionScore>
-0.956443 

> <ConfScore>
-0.220331 

> <ConfScorePBest>
0.00683701 

> <ConfTolerance>
0.266623 

> <RosettaParamsInstructions>
M  ROOT 3
M  POLY_N_BB 3
M  POLY_CA_BB 4
M  POLY_C_BB 2
M  POLY_O_BB 5
M  POLY_IGNORE 9 10 11 12 13 14 15 16 17 18 
M  POLY_UPPER 6
M  POLY_LOWER 8
M  POLY_CHG 0
M  POLY_PROPERTIES ALPHA_AA L_AA PROTEIN AROMATIC POLYMER 
M  END

$$$$



 32 32  0  0  0  0  0  0  0  0999 V2000
   -0.9228    2.8965    3.3601 H   0  0  0  1  0  0  0  0  0  0  0  0
   -2.8856    2.1605    3.2813 C   0  0  0  1  0  0  0  0  0  0  0  0
   -0.8081    0.8970    2.9101 N   0  0  0  1  0  0  0  0  0  0  0  0
   -1.4581    2.1936    2.7565 C   0  0  0  1  0  0  0  0  0  0  0  0
   -3.3634    3.1152    3.8926 O   0  0  0  1  0  0  0  0  0  0  0  0
   -3.5723    1.0341    3.0327 N   0  0  0  1  0  0  0  0  0  0  0  0
   -0.5757    0.3695    2.1175 H   0  0  0  1  0  0  0  0  0  0  0  0
   -0.5299    0.4284    4.1248 C   0  0  0  1  0  0  0  0  0  0  0  0
   -4.8844    0.7373    3.5879 C   0  0  0  1  0  0  0  0  0  0  0  0
    0.1202   -0.9463    4.2346 C   0  0  0  1  0  0  0  0  0  0  0  0
   -0.7661    1.0388    5.1665 O   0  0  0  1  0  0  0  0  0  0  0  0
   -3.1640    0.3692    2.4397 H   0  0  0  1  0  0  0  0  0  0  0  0
   -5.3147    1.6326    3.9857 H   0  0  0  1  0  0  0  0  0  0  0  0
   -4.7854    0.0121    4.3684 H   0  0  0  1  0  0  0  0  0  0  0  0
   -5.5177    0.3491    2.8178 H   0  0  0  1  0  0  0  0  0  0  0  0
   -0.3915   -1.5253    4.9748 H   0  0  0  1  0  0  0  0  0  0  0  0
    1.1462   -0.8338    4.5167 H   0  0  0  1  0  0  0  0  0  0  0  0
    0.0621   -1.4445    3.2895 H   0  0  0  1  0  0  0  0  0  0  0  0
   -3.8843    7.6784    0.4533 F   0  0  0  1  0  0  0  0  0  0  0  0
   -3.2892    6.4887    0.6639 C   0  0  0  1  0  0  0  0  0  0  0  0
   -2.0333    6.4356    1.2481 C   0  0  0  1  0  0  0  0  0  0  0  0
   -1.4202    5.2151    1.4594 C   0  0  0  1  0  0  0  0  0  0  0  0
   -2.0637    4.0436    1.0920 C   0  0  0  1  0  0  0  0  0  0  0  0
   -3.3160    4.0963    0.5094 C   0  0  0  1  0  0  0  0  0  0  0  0
   -3.9307    5.3205    0.2975 C   0  0  0  1  0  0  0  0  0  0  0  0
   -1.3968    2.7090    1.3279 C   0  0  0  1  0  0  0  0  0  0  0  0
   -1.5523    7.3143    1.5275 H   0  0  0  1  0  0  0  0  0  0  0  0
   -0.4762    5.1756    1.8941 H   0  0  0  1  0  0  0  0  0  0  0  0
   -3.7969    3.2175    0.2300 H   0  0  0  1  0  0  0  0  0  0  0  0
   -4.8747    5.3600   -0.1371 H   0  0  0  1  0  0  0  0  0  0  0  0
   -1.8704    1.9871    0.6959 H   0  0  0  1  0  0  0  0  0  0  0  0
   -0.3665    2.8019    1.0544 H   0  0  0  1  0  0  0  0  0  0  0  0
  1  4  1  0  0  0  0
  2  4  1  0  0  0  0
  2  5  2  0  0  0  0
  2  6  1  0  0  0  0
  3  4  1  0  0  0  0
  3  7  1  0  0  0  0
  3  8  1  0  0  0  0
  4 26  1  0  0  0  0
  6  9  1  0  0  0  0
  6 12  1  0  0  0  0
  8 10  1  0  0  0  0
  8 11  2  0  0  0  0
  9 13  1  0  0  0  0
  9 14  1  0  0  0  0
  9 15  1  0  0  0  0
 10 16  1  0  0  0  0
 10 17  1  0  0  0  0
 10 18  1  0  0  0  0
 19 20  1  0  0  0  0
 20 21  4  0  0  0  0
 20 25  4  0  0  0  0
 21 22  4  0  0  0  0
 21 27  1  0  0  0  0
 22 23  4  0  0  0  0
 22 28  1  0  0  0  0
 23 24  4  0  0  0  0
 23 26  1  0  0  0  0
 24 25  4  0  0  0  0
 24 29  1  0  0  0  0
 25 30  1  0  0  0  0
 26 31  1  0  0  0  0
 26 32  1  0  0  0  0
M  END
> <BCLConfClusterSize>
1

> <ConfClashScore>
0 

> <ConfOneFourInteractionScore>
-0.960318 

> <ConfScore>
-0.219914 

> <ConfScorePBest>
0.00680853 

> <ConfTolerance>
0.189741 

> <RosettaParamsInstructions>
M  ROOT 3
M  POLY_N_BB 3
M  POLY_CA_BB 4
M  POLY_C_BB 2
M  POLY_O_BB 5
M  POLY_IGNORE 9 10 11 12 13 14 15 16 17 18 
M  POLY_UPPER 6
M  POLY_LOWER 8
M  POLY_CHG 0
M  POLY_PROPERTIES ALPHA_AA L_AA PROTEIN AROMATIC POLYMER 
M  END

$$$$



 32 32  0  0  0  0  0  0  0  0999 V2000
   -3.1159    1.9058    2.3298 H   0  0  0  1  0  0  0  0  0  0  0  0
   -1.5417    0.5748    2.7312 C   0  0  0  1  0  0  0  0  0  0  0  0
   -1.9678    2.7457    3.8065 N   0  0  0  1  0  0  0  0  0  0  0  0
   -2.0759    1.9932    2.5656 C   0  0  0  1  0  0  0  0  0  0  0  0
   -1.5610   -0.2684    1.8497 O   0  0  0  1  0  0  0  0  0  0  0  0
   -1.0311    0.2800    3.9277 N   0  0  0  1  0  0  0  0  0  0  0  0
   -1.1344    3.2242    3.9984 H   0  0  0  1  0  0  0  0  0  0  0  0
   -2.9653    2.8069    4.6932 C   0  0  0  1  0  0  0  0  0  0  0  0
   -0.6179   -1.0492    4.3527 C   0  0  0  1  0  0  0  0  0  0  0  0
   -2.6990    3.6258    5.9592 C   0  0  0  1  0  0  0  0  0  0  0  0
   -4.0537    2.2736    4.5811 O   0  0  0  1  0  0  0  0  0  0  0  0
   -0.9263    1.0136    4.5689 H   0  0  0  1  0  0  0  0  0  0  0  0
   -0.2229   -1.5852    3.5151 H   0  0  0  1  0  0  0  0  0  0  0  0
   -1.4618   -1.5757    4.7470 H   0  0  0  1  0  0  0  0  0  0  0  0
    0.1348   -0.9638    5.1083 H   0  0  0  1  0  0  0  0  0  0  0  0
   -2.0852    4.4682    5.7171 H   0  0  0  1  0  0  0  0  0  0  0  0
   -2.1974    3.0146    6.6801 H   0  0  0  1  0  0  0  0  0  0  0  0
   -3.6284    3.9670    6.3650 H   0  0  0  1  0  0  0  0  0  0  0  0
   -3.8920    7.6774    0.4717 F   0  0  0  1  0  0  0  0  0  0  0  0
   -3.2918    6.4881    0.6695 C   0  0  0  1  0  0  0  0  0  0  0  0
   -2.0329    6.4345    1.2473 C   0  0  0  1  0  0  0  0  0  0  0  0
   -1.4146    5.2144    1.4454 C   0  0  0  1  0  0  0  0  0  0  0  0
   -2.0558    4.0438    1.0712 C   0  0  0  1  0  0  0  0  0  0  0  0
   -3.3110    4.0970    0.4951 C   0  0  0  1  0  0  0  0  0  0  0  0
   -3.9309    5.3208    0.2964 C   0  0  0  1  0  0  0  0  0  0  0  0
   -1.4162    2.7120    1.3853 C   0  0  0  1  0  0  0  0  0  0  0  0
   -1.5535    7.3125    1.5317 H   0  0  0  1  0  0  0  0  0  0  0  0
   -0.4684    5.1746    1.8753 H   0  0  0  1  0  0  0  0  0  0  0  0
   -3.7903    3.2189    0.2106 H   0  0  0  1  0  0  0  0  0  0  0  0
   -4.8771    5.3607   -0.1334 H   0  0  0  1  0  0  0  0  0  0  0  0
   -1.4906    2.0861    0.5206 H   0  0  0  1  0  0  0  0  0  0  0  0
   -0.3851    2.8762    1.6197 H   0  0  0  1  0  0  0  0  0  0  0  0
  1  4  1  0  0  0  0
  2  4  1  0  0  0  0
  2  5  2  0  0  0  0
  2  6  1  0  0  0  0
  3  4  1  0  0  0  0
  3  7  1  0  0  0  0
  3  8  1  0  0  0  0
  4 26  1  0  0  0  0
  6  9  1  0  0  0  0
  6 12  1  0  0  0  0
  8 10  1  0  0  0  0
  8 11  2  0  0  0  0
  9 13  1  0  0  0  0
  9 14  1  0  0  0  0
  9 15  1  0  0  0  0
 10 16  1  0  0  0  0
 10 17  1  0  0  0  0
 10 18  1  0  0  0  0
 19 20  1  0  0  0  0
 20 21  4  0  0  0  0
 20 25  4  0  0  0  0
 21 22  4  0  0  0  0
 21 27  1  0  0  0  0
 22 23  4  0  0  0  0
 22 28  1  0  0  0  0
 23 24  4  0  0  0  0
 23 26  1  0  0  0  0
 24 25  4  0  0  0  0
 24 29  1  0  0  0  0
 25 30  1  0  0  0  0
 26 31  1  0  0  0  0
 26 32  1  0  0  0  0
M  END
> <BCLConfClusterSize>
1

> <ConfClashScore>
0 

> <ConfOneFourInteractionScore>
-0.94165 

> <ConfScore>
-0.210721 

> <ConfScorePBest>
0.00678005 

> <ConfTolerance>
0.184586 

> <RosettaParamsInstructions>
M  ROOT 3
M  POLY_N_BB 3
M  POLY_CA_BB 4
M  POLY_C_BB 2
M  POLY_O_BB 5
M  POLY_IGNORE 9 10 11 12 13 14 15 16 17 18 
M  POLY_UPPER 6
M  POLY_LOWER 8
M  POLY_CHG 0
M  POLY_PROPERTIES ALPHA_AA L_AA PROTEIN AROMATIC POLYMER 
M  END

$$$$



 32 32  0  0  0  0  0  0  0  0999 V2000
   -3.1381    1.9697    2.3790 H   0  0  0  1  0  0  0  0  0  0  0  0
   -1.5408    0.6620    2.8204 C   0  0  0  1  0  0  0  0  0  0  0  0
   -1.9199    2.8653    3.7892 N   0  0  0  1  0  0  0  0  0  0  0  0
   -2.0931    2.0556    2.5925 C   0  0  0  1  0  0  0  0  0  0  0  0
   -1.8755   -0.2750    2.1143 O   0  0  0  1  0  0  0  0  0  0  0  0
   -0.6730    0.5376    3.8371 N   0  0  0  1  0  0  0  0  0  0  0  0
   -1.1366    3.4478    3.8763 H   0  0  0  1  0  0  0  0  0  0  0  0
   -2.8353    2.8158    4.7791 C   0  0  0  1  0  0  0  0  0  0  0  0
    0.0823   -0.7015    3.9462 C   0  0  0  1  0  0  0  0  0  0  0  0
   -2.6819    3.8568    5.8708 C   0  0  0  1  0  0  0  0  0  0  0  0
   -3.7435    1.9864    4.8107 O   0  0  0  1  0  0  0  0  0  0  0  0
   -0.5516    1.2607    4.4873 H   0  0  0  1  0  0  0  0  0  0  0  0
    0.8466   -0.7210    3.1976 H   0  0  0  1  0  0  0  0  0  0  0  0
   -0.5756   -1.5335    3.8055 H   0  0  0  1  0  0  0  0  0  0  0  0
    0.5313   -0.7610    4.9156 H   0  0  0  1  0  0  0  0  0  0  0  0
   -2.2853    4.7580    5.4519 H   0  0  0  1  0  0  0  0  0  0  0  0
   -2.0149    3.4894    6.6224 H   0  0  0  1  0  0  0  0  0  0  0  0
   -3.6374    4.0577    6.3086 H   0  0  0  1  0  0  0  0  0  0  0  0
   -3.8920    7.6774    0.4717 F   0  0  0  1  0  0  0  0  0  0  0  0
   -3.2918    6.4881    0.6695 C   0  0  0  1  0  0  0  0  0  0  0  0
   -2.0329    6.4345    1.2473 C   0  0  0  1  0  0  0  0  0  0  0  0
   -1.4146    5.2144    1.4454 C   0  0  0  1  0  0  0  0  0  0  0  0
   -2.0558    4.0438    1.0712 C   0  0  0  1  0  0  0  0  0  0  0  0
   -3.3110    4.0970    0.4951 C   0  0  0  1  0  0  0  0  0  0  0  0
   -3.9309    5.3208    0.2964 C   0  0  0  1  0  0  0  0  0  0  0  0
   -1.4162    2.7120    1.3853 C   0  0  0  1  0  0  0  0  0  0  0  0
   -1.5535    7.3125    1.5317 H   0  0  0  1  0  0  0  0  0  0  0  0
   -0.4684    5.1746    1.8753 H   0  0  0  1  0  0  0  0  0  0  0  0
   -3.7903    3.2189    0.2106 H   0  0  0  1  0  0  0  0  0  0  0  0
   -4.8771    5.3607   -0.1334 H   0  0  0  1  0  0  0  0  0  0  0  0
   -1.5119    2.0679    0.5362 H   0  0  0  1  0  0  0  0  0  0  0  0
   -0.3797    2.8634    1.6037 H   0  0  0  1  0  0  0  0  0  0  0  0
  1  4  1  0  0  0  0
  2  4  1  0  0  0  0
  2  5  2  0  0  0  0
  2  6  1  0  0  0  0
  3  4  1  0  0  0  0
  3  7  1  0  0  0  0
  3  8  1  0  0  0  0
  4 26  1  0  0  0  0
  6  9  1  0  0  0  0
  6 12  1  0  0  0  0
  8 10  1  0  0  0  0
  8 11  2  0  0  0  0
  9 13  1  0  0  0  0
  9 14  1  0  0  0  0
  9 15  1  0  0  0  0
 10 16  1  0  0  0  0
 10 17  1  0  0  0  0
 10 18  1  0  0  0  0
 19 20  1  0  0  0  0
 20 21  4  0  0  0  0
 20 25  4  0  0  0  0
 21 22  4  0  0  0  0
 21 27  1  0  0  0  0
 22 23  4  0  0  0  0
 22 28  1  0  0  0  0
 23 24  4  0  0  0  0
 23 26  1  0  0  0  0
 24 25  4  0  0  0  0
 24 29  1  0  0  0  0
 25 30  1  0  0  0  0
 26 31  1  0  0  0  0
 26 32  1  0  0  0  0
M  END
> <BCLConfClusterSize>
1

> <ConfClashScore>
0 

> <ConfOneFourInteractionScore>
-0.94165 

> <ConfScore>
-0.208795 

> <ConfScorePBest>
0.00675157 

> <ConfTolerance>
0.242839 

> <RosettaParamsInstructions>
M  ROOT 3
M  POLY_N_BB 3
M  POLY_CA_BB 4
M  POLY_C_BB 2
M  POLY_O_BB 5
M  POLY_IGNORE 9 10 11 12 13 14 15 16 17 18 
M  POLY_UPPER 6
M  POLY_LOWER 8
M  POLY_CHG 0
M  POLY_PROPERTIES ALPHA_AA L_AA PROTEIN AROMATIC POLYMER 
M  END

$$$$



 32 32  0  0  0  0  0  0  0  0999 V2000
    0.1761    3.3196    0.0966 H   0  0  0  1  0  0  0  0  0  0  0  0
    0.6439    1.3613    0.6571 C   0  0  0  1  0  0  0  0  0  0  0  0
   -0.9909    2.1021   -1.0479 N   0  0  0  1  0  0  0  0  0  0  0  0
   -0.3777    2.4145    0.2344 C   0  0  0  1  0  0  0  0  0  0  0  0
    0.6214    0.2304    0.1733 O   0  0  0  1  0  0  0  0  0  0  0  0
    1.5646    1.7064    1.5702 N   0  0  0  1  0  0  0  0  0  0  0  0
   -1.7413    1.4722   -1.0723 H   0  0  0  1  0  0  0  0  0  0  0  0
   -0.5623    2.6494   -2.2042 C   0  0  0  1  0  0  0  0  0  0  0  0
    2.5192    0.7504    2.1113 C   0  0  0  1  0  0  0  0  0  0  0  0
   -1.3910    2.4223   -3.4482 C   0  0  0  1  0  0  0  0  0  0  0  0
    0.4721    3.3140   -2.2477 O   0  0  0  1  0  0  0  0  0  0  0  0
    1.5952    2.6344    1.8835 H   0  0  0  1  0  0  0  0  0  0  0  0
    1.9925   -0.0744    2.5438 H   0  0  0  1  0  0  0  0  0  0  0  0
    3.1139    1.2269    2.8624 H   0  0  0  1  0  0  0  0  0  0  0  0
    3.1530    0.3960    1.3254 H   0  0  0  1  0  0  0  0  0  0  0  0
   -0.8918    2.8493   -4.2928 H   0  0  0  1  0  0  0  0  0  0  0  0
   -2.3481    2.8854   -3.3283 H   0  0  0  1  0  0  0  0  0  0  0  0
   -1.5196    1.3715   -3.6039 H   0  0  0  1  0  0  0  0  0  0  0  0
   -3.8565    7.6941    0.4672 F   0  0  0  1  0  0  0  0  0  0  0  0
   -3.2949    6.4853    0.6610 C   0  0  0  1  0  0  0  0  0  0  0  0
   -2.0390    6.4357    1.2455 C   0  0  0  1  0  0  0  0  0  0  0  0
   -1.4232    5.2167    1.4581 C   0  0  0  1  0  0  0  0  0  0  0  0
   -2.0640    4.0435    1.0918 C   0  0  0  1  0  0  0  0  0  0  0  0
   -3.3163    4.0927    0.5090 C   0  0  0  1  0  0  0  0  0  0  0  0
   -3.9338    5.3154    0.2958 C   0  0  0  1  0  0  0  0  0  0  0  0
   -1.3943    2.7106    1.3292 C   0  0  0  1  0  0  0  0  0  0  0  0
   -1.5599    7.3158    1.5240 H   0  0  0  1  0  0  0  0  0  0  0  0
   -0.4792    5.1798    1.8930 H   0  0  0  1  0  0  0  0  0  0  0  0
   -3.7954    3.2126    0.2305 H   0  0  0  1  0  0  0  0  0  0  0  0
   -4.8778    5.3524   -0.1391 H   0  0  0  1  0  0  0  0  0  0  0  0
   -0.8947    2.7326    2.2752 H   0  0  0  1  0  0  0  0  0  0  0  0
   -2.1373    1.9408    1.3355 H   0  0  0  1  0  0  0  0  0  0  0  0
  1  4  1  0  0  0  0
  2  4  1  0  0  0  0
  2  5  2  0  0  0  0
  2  6  1  0  0  0  0
  3  4  1  0  0  0  0
  3  7  1  0  0  0  0
  3  8  1  0  0  0  0
  4 26  1  0  0  0  0
  6  9  1  0  0  0  0
  6 12  1  0  0  0  0
  8 10  1  0  0  0  0
  8 11  2  0  0  0  0
  9 13  1  0  0  0  0
  9 14  1  0  0  0  0
  9 15  1  0  0  0  0
 10 16  1  0  0  0  0
 10 17  1  0  0  0  0
 10 18  1  0  0  0  0
 19 20  1  0  0  0  0
 20 21  4  0  0  0  0
 20 25  4  0  0  0  0
 21 22  4  0  0  0  0
 21 27  1  0  0  0  0
 22 23  4  0  0  0  0
 22 28  1  0  0  0  0
 23 24  4  0  0  0  0
 23 26  1  0  0  0  0
 24 25  4  0  0  0  0
 24 29  1  0  0  0  0
 25 30  1  0  0  0  0
 26 31  1  0  0  0  0
 26 32  1  0  0  0  0
M  END
> <BCLConfClusterSize>
1

> <ConfClashScore>
0 

> <ConfOneFourInteractionScore>
-0.985807 

> <ConfScore>
-0.205806 

> <ConfScorePBest>
0.00672309 

> <ConfTolerance>
0.262802 

> <RosettaParamsInstructions>
M  ROOT 3
M  POLY_N_BB 3
M  POLY_CA_BB 4
M  POLY_C_BB 2
M  POLY_O_BB 5
M  POLY_IGNORE 9 10 11 12 13 14 15 16 17 18 
M  POLY_UPPER 6
M  POLY_LOWER 8
M  POLY_CHG 0
M  POLY_PROPERTIES ALPHA_AA L_AA PROTEIN AROMATIC POLYMER 
M  END

$$$$



 32 32  0  0  0  0  0  0  0  0999 V2000
    0.1455    2.8459   -0.0961 H   0  0  0  1  0  0  0  0  0  0  0  0
    0.0005    0.8145    0.5015 C   0  0  0  1  0  0  0  0  0  0  0  0
   -1.4673    1.9344   -1.0328 N   0  0  0  1  0  0  0  0  0  0  0  0
   -0.6310    2.1479    0.1374 C   0  0  0  1  0  0  0  0  0  0  0  0
   -0.5264   -0.2483    0.1834 O   0  0  0  1  0  0  0  0  0  0  0  0
    1.1493    0.8825    1.1802 N   0  0  0  1  0  0  0  0  0  0  0  0
   -2.4296    1.7969   -0.9078 H   0  0  0  1  0  0  0  0  0  0  0  0
   -0.9674    1.9189   -2.2779 C   0  0  0  1  0  0  0  0  0  0  0  0
    1.7773   -0.3325    1.6775 C   0  0  0  1  0  0  0  0  0  0  0  0
   -1.9715    1.6764   -3.3879 C   0  0  0  1  0  0  0  0  0  0  0  0
    0.2242    2.0885   -2.5222 O   0  0  0  1  0  0  0  0  0  0  0  0
    1.5700    1.7525    1.3435 H   0  0  0  1  0  0  0  0  0  0  0  0
    1.7253   -1.0940    0.9276 H   0  0  0  1  0  0  0  0  0  0  0  0
    1.2663   -0.6633    2.5575 H   0  0  0  1  0  0  0  0  0  0  0  0
    2.8019   -0.1335    1.9130 H   0  0  0  1  0  0  0  0  0  0  0  0
   -2.8424    1.2033   -2.9847 H   0  0  0  1  0  0  0  0  0  0  0  0
   -1.5344    1.0437   -4.1319 H   0  0  0  1  0  0  0  0  0  0  0  0
   -2.2463    2.6111   -3.8305 H   0  0  0  1  0  0  0  0  0  0  0  0
   -3.8878    7.6762    0.4515 F   0  0  0  1  0  0  0  0  0  0  0  0
   -3.2890    6.4887    0.6640 C   0  0  0  1  0  0  0  0  0  0  0  0
   -2.0330    6.4405    1.2486 C   0  0  0  1  0  0  0  0  0  0  0  0
   -1.4161    5.2223    1.4618 C   0  0  0  1  0  0  0  0  0  0  0  0
   -2.0557    4.0482    1.0959 C   0  0  0  1  0  0  0  0  0  0  0  0
   -3.3080    4.0960    0.5131 C   0  0  0  1  0  0  0  0  0  0  0  0
   -3.9267    5.3180    0.2992 C   0  0  0  1  0  0  0  0  0  0  0  0
   -1.4343    2.6881    1.3092 C   0  0  0  1  0  0  0  0  0  0  0  0
   -1.5548    7.3212    1.5267 H   0  0  0  1  0  0  0  0  0  0  0  0
   -0.4721    5.1864    1.8967 H   0  0  0  1  0  0  0  0  0  0  0  0
   -3.7862    3.2153    0.2349 H   0  0  0  1  0  0  0  0  0  0  0  0
   -4.8707    5.3538   -0.1357 H   0  0  0  1  0  0  0  0  0  0  0  0
   -0.7819    2.7522    2.1549 H   0  0  0  1  0  0  0  0  0  0  0  0
   -2.2218    1.9943    1.5174 H   0  0  0  1  0  0  0  0  0  0  0  0
  1  4  1  0  0  0  0
  2  4  1  0  0  0  0
  2  5  2  0  0  0  0
  2  6  1  0  0  0  0
  3  4  1  0  0  0  0
  3  7  1  0  0  0  0
  3  8  1  0  0  0  0
  4 26  1  0  0  0  0
  6  9  1  0  0  0  0
  6 12  1  0  0  0  0
  8 10  1  0  0  0  0
  8 11  2  0  0  0  0
  9 13  1  0  0  0  0
  9 14  1  0  0  0  0
  9 15  1  0  0  0  0
 10 16  1  0  0  0  0
 10 17  1  0  0  0  0
 10 18  1  0  0  0  0
 19 20  1  0  0  0  0
 20 21  4  0  0  0  0
 20 25  4  0  0  0  0
 21 22  4  0  0  0  0
 21 27  1  0  0  0  0
 22 23  4  0  0  0  0
 22 28  1  0  0  0  0
 23 24  4  0  0  0  0
 23 26  1  0  0  0  0
 24 25  4  0  0  0  0
 24 29  1  0  0  0  0
 25 30  1  0  0  0  0
 26 31  1  0  0  0  0
 26 32  1  0  0  0  0
M  END
> <BCLConfClusterSize>
1

> <ConfClashScore>
0 

> <ConfOneFourInteractionScore>
-0.985807 

> <ConfScore>
-0.204095 

> <ConfScorePBest>
0.0066946 

> <ConfTolerance>
0.159479 

> <RosettaParamsInstructions>
M  ROOT 3
M  POLY_N_BB 3
M  POLY_CA_BB 4
M  POLY_C_BB 2
M  POLY_O_BB 5
M  POLY_IGNORE 9 10 11 12 13 14 15 16 17 18 
M  POLY_UPPER 6
M  POLY_LOWER 8
M  POLY_CHG 0
M  POLY_PROPERTIES ALPHA_AA L_AA PROTEIN AROMATIC POLYMER 
M  END

$$$$



 32 32  0  0  0  0  0  0  0  0999 V2000
    0.2416    3.1408   -0.0310 H   0  0  0  1  0  0  0  0  0  0  0  0
    0.4794    1.1711    0.6945 C   0  0  0  1  0  0  0  0  0  0  0  0
   -1.1540    1.9699   -1.0043 N   0  0  0  1  0  0  0  0  0  0  0  0
   -0.3947    2.3094    0.1899 C   0  0  0  1  0  0  0  0  0  0  0  0
    1.4986    1.3898    1.3440 O   0  0  0  1  0  0  0  0  0  0  0  0
    0.0645   -0.0606    0.3847 N   0  0  0  1  0  0  0  0  0  0  0  0
   -1.9757    1.4445   -0.9088 H   0  0  0  1  0  0  0  0  0  0  0  0
   -0.7660    2.3533   -2.2383 C   0  0  0  1  0  0  0  0  0  0  0  0
    0.7082   -1.2538    0.9137 C   0  0  0  1  0  0  0  0  0  0  0  0
   -1.6156    1.9284   -3.4145 C   0  0  0  1  0  0  0  0  0  0  0  0
    0.2482    3.0282   -2.4041 O   0  0  0  1  0  0  0  0  0  0  0  0
   -0.6999   -0.1641   -0.2197 H   0  0  0  1  0  0  0  0  0  0  0  0
    1.6520   -0.9898    1.3432 H   0  0  0  1  0  0  0  0  0  0  0  0
    0.8611   -1.9570    0.1219 H   0  0  0  1  0  0  0  0  0  0  0  0
    0.0847   -1.6917    1.6650 H   0  0  0  1  0  0  0  0  0  0  0  0
   -2.4299    1.3268   -3.0682 H   0  0  0  1  0  0  0  0  0  0  0  0
   -1.0193    1.3615   -4.0986 H   0  0  0  1  0  0  0  0  0  0  0  0
   -1.9989    2.7963   -3.9093 H   0  0  0  1  0  0  0  0  0  0  0  0
   -3.8452    7.6962    0.4502 F   0  0  0  1  0  0  0  0  0  0  0  0
   -3.2923    6.4853    0.6553 C   0  0  0  1  0  0  0  0  0  0  0  0
   -2.0394    6.4319    1.2460 C   0  0  0  1  0  0  0  0  0  0  0  0
   -1.4325    5.2106    1.4703 C   0  0  0  1  0  0  0  0  0  0  0  0
   -2.0791    4.0388    1.1093 C   0  0  0  1  0  0  0  0  0  0  0  0
   -3.3284    4.0919    0.5203 C   0  0  0  1  0  0  0  0  0  0  0  0
   -3.9369    5.3169    0.2955 C   0  0  0  1  0  0  0  0  0  0  0  0
   -1.3433    2.7318    1.2870 C   0  0  0  1  0  0  0  0  0  0  0  0
   -1.5561    7.3108    1.5205 H   0  0  0  1  0  0  0  0  0  0  0  0
   -0.4908    5.1707    1.9098 H   0  0  0  1  0  0  0  0  0  0  0  0
   -3.8117    3.2129    0.2459 H   0  0  0  1  0  0  0  0  0  0  0  0
   -4.8787    5.3568   -0.1441 H   0  0  0  1  0  0  0  0  0  0  0  0
   -0.7753    2.8044    2.1909 H   0  0  0  1  0  0  0  0  0  0  0  0
   -2.0789    1.9614    1.3884 H   0  0  0  1  0  0  0  0  0  0  0  0
  1  4  1  0  0  0  0
  2  4  1  0  0  0  0
  2  5  2  0  0  0  0
  2  6  1  0  0  0  0
  3  4  1  0  0  0  0
  3  7  1  0  0  0  0
  3  8  1  0  0  0  0
  4 26  1  0  0  0  0
  6  9  1  0  0  0  0
  6 12  1  0  0  0  0
  8 10  1  0  0  0  0
  8 11  2  0  0  0  0
  9 13  1  0  0  0  0
  9 14  1  0  0  0  0
  9 15  1  0  0  0  0
 10 16  1  0  0  0  0
 10 17  1  0  0  0  0
 10 18  1  0  0  0  0
 19 20  1  0  0  0  0
 20 21  4  0  0  0  0
 20 25  4  0  0  0  0
 21 22  4  0  0  0  0
 21 27  1  0  0  0  0
 22 23  4  0  0  0  0
 22 28  1  0  0  0  0
 23 24  4  0  0  0  0
 23 26  1  0  0  0  0
 24 25  4  0  0  0  0
 24 29  1  0  0  0  0
 25 30  1  0  0  0  0
 26 31  1  0  0  0  0
 26 32  1  0  0  0  0
M  END
> <BCLConfClusterSize>
1

> <ConfClashScore>
0 

> <ConfOneFourInteractionScore>
-0.956443 

> <ConfScore>
-0.203373 

> <ConfScorePBest>
0.00666612 

> <ConfTolerance>
0.219888 

> <RosettaParamsInstructions>
M  ROOT 3
M  POLY_N_BB 3
M  POLY_CA_BB 4
M  POLY_C_BB 2
M  POLY_O_BB 5
M  POLY_IGNORE 9 10 11 12 13 14 15 16 17 18 
M  POLY_UPPER 6
M  POLY_LOWER 8
M  POLY_CHG 0
M  POLY_PROPERTIES ALPHA_AA L_AA PROTEIN AROMATIC POLYMER 
M  END

$$$$



 32 32  0  0  0  0  0  0  0  0999 V2000
   -2.9318    1.8585    2.4578 H   0  0  0  1  0  0  0  0  0  0  0  0
   -1.2838    0.5310    2.5373 C   0  0  0  1  0  0  0  0  0  0  0  0
   -1.5398    2.6153    3.7870 N   0  0  0  1  0  0  0  0  0  0  0  0
   -1.8681    1.9394    2.5407 C   0  0  0  1  0  0  0  0  0  0  0  0
   -0.1846    0.2998    3.0166 O   0  0  0  1  0  0  0  0  0  0  0  0
   -2.0473   -0.4118    1.9828 N   0  0  0  1  0  0  0  0  0  0  0  0
   -0.7485    3.1913    3.8372 H   0  0  0  1  0  0  0  0  0  0  0  0
   -2.3226    2.4506    4.8735 C   0  0  0  1  0  0  0  0  0  0  0  0
   -1.6657   -1.8161    1.9750 C   0  0  0  1  0  0  0  0  0  0  0  0
   -1.9269    3.2488    6.0951 C   0  0  0  1  0  0  0  0  0  0  0  0
   -3.2925    1.7088    4.8880 O   0  0  0  1  0  0  0  0  0  0  0  0
   -2.8948   -0.1496    1.5663 H   0  0  0  1  0  0  0  0  0  0  0  0
   -0.6846   -1.9173    1.5600 H   0  0  0  1  0  0  0  0  0  0  0  0
   -2.3623   -2.3715    1.3824 H   0  0  0  1  0  0  0  0  0  0  0  0
   -1.6694   -2.1921    2.9768 H   0  0  0  1  0  0  0  0  0  0  0  0
   -0.9493    2.9528    6.4139 H   0  0  0  1  0  0  0  0  0  0  0  0
   -2.6286    3.0672    6.8822 H   0  0  0  1  0  0  0  0  0  0  0  0
   -1.9227    4.2912    5.8538 H   0  0  0  1  0  0  0  0  0  0  0  0
   -3.8810    7.6803    0.4549 F   0  0  0  1  0  0  0  0  0  0  0  0
   -3.2894    6.4885    0.6638 C   0  0  0  1  0  0  0  0  0  0  0  0
   -2.0335    6.4309    1.2477 C   0  0  0  1  0  0  0  0  0  0  0  0
   -1.4240    5.2083    1.4572 C   0  0  0  1  0  0  0  0  0  0  0  0
   -2.0710    4.0392    1.0883 C   0  0  0  1  0  0  0  0  0  0  0  0
   -3.3233    4.0964    0.5060 C   0  0  0  1  0  0  0  0  0  0  0  0
   -3.9344    5.3227    0.2959 C   0  0  0  1  0  0  0  0  0  0  0  0
   -1.3626    2.7301    1.3451 C   0  0  0  1  0  0  0  0  0  0  0  0
   -1.5498    7.3078    1.5282 H   0  0  0  1  0  0  0  0  0  0  0  0
   -0.4801    5.1654    1.8917 H   0  0  0  1  0  0  0  0  0  0  0  0
   -3.8069    3.2194    0.2255 H   0  0  0  1  0  0  0  0  0  0  0  0
   -4.8783    5.3657   -0.1385 H   0  0  0  1  0  0  0  0  0  0  0  0
   -1.4734    2.1185    0.4742 H   0  0  0  1  0  0  0  0  0  0  0  0
   -0.3258    2.9415    1.5036 H   0  0  0  1  0  0  0  0  0  0  0  0
  1  4  1  0  0  0  0
  2  4  1  0  0  0  0
  2  5  2  0  0  0  0
  2  6  1  0  0  0  0
  3  4  1  0  0  0  0
  3  7  1  0  0  0  0
  3  8  1  0  0  0  0
  4 26  1  0  0  0  0
  6  9  1  0  0  0  0
  6 12  1  0  0  0  0
  8 10  1  0  0  0  0
  8 11  2  0  0  0  0
  9 13  1  0  0  0  0
  9 14  1  0  0  0  0
  9 15  1  0  0  0  0
 10 16  1  0  0  0  0
 10 17  1  0  0  0  0
 10 18  1  0  0  0  0
 19 20  1  0  0  0  0
 20 21  4  0  0  0  0
 20 25  4  0  0  0  0
 21 22  4  0  0  0  0
 21 27  1  0  0  0  0
 22 23  4  0  0  0  0
 22 28  1  0  0  0  0
 23 24  4  0  0  0  0
 23 26  1  0  0  0  0
 24 25  4  0  0  0  0
 24 29  1  0  0  0  0
 25 30  1  0  0  0  0
 26 31  1  0  0  0  0
 26 32  1  0  0  0  0
M  END
> <BCLConfClusterSize>
1

> <ConfClashScore>
0 

> <ConfOneFourInteractionScore>
-0.985807 

> <ConfScore>
-0.201093 

> <ConfScorePBest>
0.00663764 

> <ConfTolerance>
0.198218 

> <RosettaParamsInstructions>
M  ROOT 3
M  POLY_N_BB 3
M  POLY_CA_BB 4
M  POLY_C_BB 2
M  POLY_O_BB 5
M  POLY_IGNORE 9 10 11 12 13 14 15 16 17 18 
M  POLY_UPPER 6
M  POLY_LOWER 8
M  POLY_CHG 0
M  POLY_PROPERTIES ALPHA_AA L_AA PROTEIN AROMATIC POLYMER 
M  END

$$$$



 32 32  0  0  0  0  0  0  0  0999 V2000
    0.1238    3.2054   -0.0654 H   0  0  0  1  0  0  0  0  0  0  0  0
    0.3347    1.1476    0.3907 C   0  0  0  1  0  0  0  0  0  0  0  0
   -1.3464    2.1543   -1.0707 N   0  0  0  1  0  0  0  0  0  0  0  0
   -0.5275    2.3751    0.1118 C   0  0  0  1  0  0  0  0  0  0  0  0
   -0.1466    0.0536    0.6358 O   0  0  0  1  0  0  0  0  0  0  0  0
    1.6650    1.2694    0.3668 N   0  0  0  1  0  0  0  0  0  0  0  0
   -2.1459    1.5927   -0.9943 H   0  0  0  1  0  0  0  0  0  0  0  0
   -1.0468    2.6895   -2.2546 C   0  0  0  1  0  0  0  0  0  0  0  0
    2.5533    0.1313    0.5496 C   0  0  0  1  0  0  0  0  0  0  0  0
   -2.0018    2.3622   -3.3861 C   0  0  0  1  0  0  0  0  0  0  0  0
   -0.0629    3.4054   -2.4365 O   0  0  0  1  0  0  0  0  0  0  0  0
    2.0562    2.1561    0.2212 H   0  0  0  1  0  0  0  0  0  0  0  0
    2.1209   -0.7358    0.0956 H   0  0  0  1  0  0  0  0  0  0  0  0
    2.6941   -0.0466    1.5953 H   0  0  0  1  0  0  0  0  0  0  0  0
    3.4980    0.3394    0.0923 H   0  0  0  1  0  0  0  0  0  0  0  0
   -2.3976    1.3781   -3.2460 H   0  0  0  1  0  0  0  0  0  0  0  0
   -1.4784    2.4066   -4.3183 H   0  0  0  1  0  0  0  0  0  0  0  0
   -2.8032    3.0712   -3.3923 H   0  0  0  1  0  0  0  0  0  0  0  0
   -3.9116    7.6616    0.4395 F   0  0  0  1  0  0  0  0  0  0  0  0
   -3.2836    6.4921    0.6667 C   0  0  0  1  0  0  0  0  0  0  0  0
   -2.0277    6.4356    1.2507 C   0  0  0  1  0  0  0  0  0  0  0  0
   -1.4173    5.2135    1.4607 C   0  0  0  1  0  0  0  0  0  0  0  0
   -2.0634    4.0439    1.0921 C   0  0  0  1  0  0  0  0  0  0  0  0
   -3.3156    4.0999    0.5098 C   0  0  0  1  0  0  0  0  0  0  0  0
   -3.9277    5.3257    0.2993 C   0  0  0  1  0  0  0  0  0  0  0  0
   -1.3994    2.7076    1.3266 C   0  0  0  1  0  0  0  0  0  0  0  0
   -1.5447    7.3130    1.5309 H   0  0  0  1  0  0  0  0  0  0  0  0
   -0.4733    5.1715    1.8952 H   0  0  0  1  0  0  0  0  0  0  0  0
   -3.7986    3.2225    0.2296 H   0  0  0  1  0  0  0  0  0  0  0  0
   -4.8716    5.3677   -0.1352 H   0  0  0  1  0  0  0  0  0  0  0  0
   -0.7901    2.7571    2.2048 H   0  0  0  1  0  0  0  0  0  0  0  0
   -2.1460    1.9514    1.4521 H   0  0  0  1  0  0  0  0  0  0  0  0
  1  4  1  0  0  0  0
  2  4  1  0  0  0  0
  2  5  2  0  0  0  0
  2  6  1  0  0  0  0
  3  4  1  0  0  0  0
  3  7  1  0  0  0  0
  3  8  1  0  0  0  0
  4 26  1  0  0  0  0
  6  9  1  0  0  0  0
  6 12  1  0  0  0  0
  8 10  1  0  0  0  0
  8 11  2  0  0  0  0
  9 13  1  0  0  0  0
  9 14  1  0  0  0  0
  9 15  1  0  0  0  0
 10 16  1  0  0  0  0
 10 17  1  0  0  0  0
 10 18  1  0  0  0  0
 19 20  1  0  0  0  0
 20 21  4  0  0  0  0
 20 25  4  0  0  0  0
 21 22  4  0  0  0  0
 21 27  1  0  0  0  0
 22 23  4  0  0  0  0
 22 28  1  0  0  0  0
 23 24  4  0  0  0  0
 23 26  1  0  0  0  0
 24 25  4  0  0  0  0
 24 29  1  0  0  0  0
 25 30  1  0  0  0  0
 26 31  1  0  0  0  0
 26 32  1  0  0  0  0
M  END
> <BCLConfClusterSize>
1

> <ConfClashScore>
0 

> <ConfOneFourInteractionScore>
-0.985807 

> <ConfScore>
-0.200077 

> <ConfScorePBest>
0.00660916 

> <ConfTolerance>
0.205292 

> <RosettaParamsInstructions>
M  ROOT 3
M  POLY_N_BB 3
M  POLY_CA_BB 4
M  POLY_C_BB 2
M  POLY_O_BB 5
M  POLY_IGNORE 9 10 11 12 13 14 15 16 17 18 
M  POLY_UPPER 6
M  POLY_LOWER 8
M  POLY_CHG 0
M  POLY_PROPERTIES ALPHA_AA L_AA PROTEIN AROMATIC POLYMER 
M  END

$$$$



 32 32  0  0  0  0  0  0  0  0999 V2000
   -2.9704    2.0921    2.6877 H   0  0  0  1  0  0  0  0  0  0  0  0
   -1.3300    0.7899    2.9645 C   0  0  0  1  0  0  0  0  0  0  0  0
   -1.5597    3.1299    3.7874 N   0  0  0  1  0  0  0  0  0  0  0  0
   -1.9051    2.1797    2.7361 C   0  0  0  1  0  0  0  0  0  0  0  0
   -1.5222   -0.1207    2.1599 O   0  0  0  1  0  0  0  0  0  0  0  0
   -0.6146    0.6343    4.0820 N   0  0  0  1  0  0  0  0  0  0  0  0
   -0.6668    3.5329    3.7583 H   0  0  0  1  0  0  0  0  0  0  0  0
   -2.3687    3.4922    4.7869 C   0  0  0  1  0  0  0  0  0  0  0  0
    0.0395   -0.6216    4.4178 C   0  0  0  1  0  0  0  0  0  0  0  0
   -1.8147    4.5355    5.7376 C   0  0  0  1  0  0  0  0  0  0  0  0
   -3.4944    3.0206    4.9422 O   0  0  0  1  0  0  0  0  0  0  0  0
   -0.5272    1.3923    4.6971 H   0  0  0  1  0  0  0  0  0  0  0  0
    0.1272   -1.2249    3.5385 H   0  0  0  1  0  0  0  0  0  0  0  0
   -0.5419   -1.1416    5.1502 H   0  0  0  1  0  0  0  0  0  0  0  0
    1.0141   -0.4218    4.8116 H   0  0  0  1  0  0  0  0  0  0  0  0
   -1.8813    5.5027    5.2847 H   0  0  0  1  0  0  0  0  0  0  0  0
   -0.7907    4.3129    5.9537 H   0  0  0  1  0  0  0  0  0  0  0  0
   -2.3812    4.5273    6.6453 H   0  0  0  1  0  0  0  0  0  0  0  0
   -3.8920    7.6774    0.4717 F   0  0  0  1  0  0  0  0  0  0  0  0
   -3.2918    6.4881    0.6695 C   0  0  0  1  0  0  0  0  0  0  0  0
   -2.0329    6.4345    1.2473 C   0  0  0  1  0  0  0  0  0  0  0  0
   -1.4146    5.2144    1.4454 C   0  0  0  1  0  0  0  0  0  0  0  0
   -2.0558    4.0438    1.0712 C   0  0  0  1  0  0  0  0  0  0  0  0
   -3.3110    4.0970    0.4951 C   0  0  0  1  0  0  0  0  0  0  0  0
   -3.9309    5.3208    0.2964 C   0  0  0  1  0  0  0  0  0  0  0  0
   -1.4162    2.7120    1.3853 C   0  0  0  1  0  0  0  0  0  0  0  0
   -1.5535    7.3125    1.5317 H   0  0  0  1  0  0  0  0  0  0  0  0
   -0.4684    5.1746    1.8753 H   0  0  0  1  0  0  0  0  0  0  0  0
   -3.7903    3.2189    0.2106 H   0  0  0  1  0  0  0  0  0  0  0  0
   -4.8771    5.3607   -0.1334 H   0  0  0  1  0  0  0  0  0  0  0  0
   -1.6715    2.0107    0.6186 H   0  0  0  1  0  0  0  0  0  0  0  0
   -0.3535    2.8325    1.4195 H   0  0  0  1  0  0  0  0  0  0  0  0
  1  4  1  0  0  0  0
  2  4  1  0  0  0  0
  2  5  2  0  0  0  0
  2  6  1  0  0  0  0
  3  4  1  0  0  0  0
  3  7  1  0  0  0  0
  3  8  1  0  0  0  0
  4 26  1  0  0  0  0
  6  9  1  0  0  0  0
  6 12  1  0  0  0  0
  8 10  1  0  0  0  0
  8 11  2  0  0  0  0
  9 13  1  0  0  0  0
  9 14  1  0  0  0  0
  9 15  1  0  0  0  0
 10 16  1  0  0  0  0
 10 17  1  0  0  0  0
 10 18  1  0  0  0  0
 19 20  1  0  0  0  0
 20 21  4  0  0  0  0
 20 25  4  0  0  0  0
 21 22  4  0  0  0  0
 21 27  1  0  0  0  0
 22 23  4  0  0  0  0
 22 28  1  0  0  0  0
 23 24  4  0  0  0  0
 23 26  1  0  0  0  0
 24 25  4  0  0  0  0
 24 29  1  0  0  0  0
 25 30  1  0  0  0  0
 26 31  1  0  0  0  0
 26 32  1  0  0  0  0
M  END
> <BCLConfClusterSize>
1

> <ConfClashScore>
0 

> <ConfOneFourInteractionScore>
-0.960318 

> <ConfScore>
-0.197275 

> <ConfScorePBest>
0.00658068 

> <ConfTolerance>
0.218963 

> <RosettaParamsInstructions>
M  ROOT 3
M  POLY_N_BB 3
M  POLY_CA_BB 4
M  POLY_C_BB 2
M  POLY_O_BB 5
M  POLY_IGNORE 9 10 11 12 13 14 15 16 17 18 
M  POLY_UPPER 6
M  POLY_LOWER 8
M  POLY_CHG 0
M  POLY_PROPERTIES ALPHA_AA L_AA PROTEIN AROMATIC POLYMER 
M  END

$$$$



 32 32  0  0  0  0  0  0  0  0999 V2000
   -2.4022    2.2384    3.0517 H   0  0  0  1  0  0  0  0  0  0  0  0
   -1.1036    0.6257    2.6555 C   0  0  0  1  0  0  0  0  0  0  0  0
   -0.5048    2.8624    3.5461 N   0  0  0  1  0  0  0  0  0  0  0  0
   -1.4067    2.1209    2.6774 C   0  0  0  1  0  0  0  0  0  0  0  0
   -2.0259   -0.1858    2.5894 O   0  0  0  1  0  0  0  0  0  0  0  0
    0.1908    0.2713    2.6239 N   0  0  0  1  0  0  0  0  0  0  0  0
    0.1202    3.4914    3.1289 H   0  0  0  1  0  0  0  0  0  0  0  0
   -0.4747    2.7403    4.8741 C   0  0  0  1  0  0  0  0  0  0  0  0
    0.6148   -1.1081    2.4359 C   0  0  0  1  0  0  0  0  0  0  0  0
    0.6612    3.4588    5.5760 C   0  0  0  1  0  0  0  0  0  0  0  0
   -1.3066    2.0906    5.5061 O   0  0  0  1  0  0  0  0  0  0  0  0
    0.8740    0.9656    2.7313 H   0  0  0  1  0  0  0  0  0  0  0  0
    1.6833   -1.1594    2.4574 H   0  0  0  1  0  0  0  0  0  0  0  0
    0.2598   -1.4644    1.4914 H   0  0  0  1  0  0  0  0  0  0  0  0
    0.2129   -1.7146    3.2204 H   0  0  0  1  0  0  0  0  0  0  0  0
    1.4533    2.7672    5.7737 H   0  0  0  1  0  0  0  0  0  0  0  0
    0.3073    3.8688    6.4988 H   0  0  0  1  0  0  0  0  0  0  0  0
    1.0245    4.2475    4.9508 H   0  0  0  1  0  0  0  0  0  0  0  0
   -3.8763    7.6788    0.4350 F   0  0  0  1  0  0  0  0  0  0  0  0
   -3.2865    6.4888    0.6583 C   0  0  0  1  0  0  0  0  0  0  0  0
   -2.0335    6.4362    1.2490 C   0  0  0  1  0  0  0  0  0  0  0  0
   -1.4258    5.2154    1.4734 C   0  0  0  1  0  0  0  0  0  0  0  0
   -2.0717    4.0431    1.1127 C   0  0  0  1  0  0  0  0  0  0  0  0
   -3.3210    4.0953    0.5237 C   0  0  0  1  0  0  0  0  0  0  0  0
   -3.9304    5.3199    0.2987 C   0  0  0  1  0  0  0  0  0  0  0  0
   -1.3785    2.7104    1.2703 C   0  0  0  1  0  0  0  0  0  0  0  0
   -1.5507    7.3155    1.5233 H   0  0  0  1  0  0  0  0  0  0  0  0
   -0.4841    5.1762    1.9129 H   0  0  0  1  0  0  0  0  0  0  0  0
   -3.8038    3.2159    0.2494 H   0  0  0  1  0  0  0  0  0  0  0  0
   -4.8721    5.3591   -0.1408 H   0  0  0  1  0  0  0  0  0  0  0  0
   -1.8506    2.0127    0.6106 H   0  0  0  1  0  0  0  0  0  0  0  0
   -0.3548    2.8351    0.9852 H   0  0  0  1  0  0  0  0  0  0  0  0
  1  4  1  0  0  0  0
  2  4  1  0  0  0  0
  2  5  2  0  0  0  0
  2  6  1  0  0  0  0
  3  4  1  0  0  0  0
  3  7  1  0  0  0  0
  3  8  1  0  0  0  0
  4 26  1  0  0  0  0
  6  9  1  0  0  0  0
  6 12  1  0  0  0  0
  8 10  1  0  0  0  0
  8 11  2  0  0  0  0
  9 13  1  0  0  0  0
  9 14  1  0  0  0  0
  9 15  1  0  0  0  0
 10 16  1  0  0  0  0
 10 17  1  0  0  0  0
 10 18  1  0  0  0  0
 19 20  1  0  0  0  0
 20 21  4  0  0  0  0
 20 25  4  0  0  0  0
 21 22  4  0  0  0  0
 21 27  1  0  0  0  0
 22 23  4  0  0  0  0
 22 28  1  0  0  0  0
 23 24  4  0  0  0  0
 23 26  1  0  0  0  0
 24 25  4  0  0  0  0
 24 29  1  0  0  0  0
 25 30  1  0  0  0  0
 26 31  1  0  0  0  0
 26 32  1  0  0  0  0
M  END
> <BCLConfClusterSize>
1

> <ConfClashScore>
0 

> <ConfOneFourInteractionScore>
-0.944706 

> <ConfScore>
-0.19726 

> <ConfScorePBest>
0.0065522 

> <ConfTolerance>
0.253299 

> <RosettaParamsInstructions>
M  ROOT 3
M  POLY_N_BB 3
M  POLY_CA_BB 4
M  POLY_C_BB 2
M  POLY_O_BB 5
M  POLY_IGNORE 9 10 11 12 13 14 15 16 17 18 
M  POLY_UPPER 6
M  POLY_LOWER 8
M  POLY_CHG 0
M  POLY_PROPERTIES ALPHA_AA L_AA PROTEIN AROMATIC POLYMER 
M  END

$$$$



 32 32  0  0  0  0  0  0  0  0999 V2000
   -0.3107    2.6483   -0.4208 H   0  0  0  1  0  0  0  0  0  0  0  0
   -0.1338    0.7690    0.5426 C   0  0  0  1  0  0  0  0  0  0  0  0
   -2.0682    1.5828   -0.7135 N   0  0  0  1  0  0  0  0  0  0  0  0
   -0.9449    1.9793    0.1225 C   0  0  0  1  0  0  0  0  0  0  0  0
   -0.6220   -0.1135    1.2471 O   0  0  0  1  0  0  0  0  0  0  0  0
    1.1322    0.7323    0.0975 N   0  0  0  1  0  0  0  0  0  0  0  0
   -2.8237    1.1153   -0.2998 H   0  0  0  1  0  0  0  0  0  0  0  0
   -2.1054    1.8341   -2.0251 C   0  0  0  1  0  0  0  0  0  0  0  0
    2.0190   -0.3895    0.3677 C   0  0  0  1  0  0  0  0  0  0  0  0
   -3.3563    1.3747   -2.7486 C   0  0  0  1  0  0  0  0  0  0  0  0
   -1.1928    2.4008   -2.6248 O   0  0  0  1  0  0  0  0  0  0  0  0
    1.4710    1.4872   -0.4276 H   0  0  0  1  0  0  0  0  0  0  0  0
    1.6025   -1.2826   -0.0493 H   0  0  0  1  0  0  0  0  0  0  0  0
    2.1311   -0.5086    1.4252 H   0  0  0  1  0  0  0  0  0  0  0  0
    2.9754   -0.2023   -0.0740 H   0  0  0  1  0  0  0  0  0  0  0  0
   -4.2123    1.8545   -2.3219 H   0  0  0  1  0  0  0  0  0  0  0  0
   -3.4560    0.3140   -2.6497 H   0  0  0  1  0  0  0  0  0  0  0  0
   -3.2834    1.6315   -3.7848 H   0  0  0  1  0  0  0  0  0  0  0  0
   -3.8952    7.6755    0.4704 F   0  0  0  1  0  0  0  0  0  0  0  0
   -3.2916    6.4881    0.6697 C   0  0  0  1  0  0  0  0  0  0  0  0
   -2.0326    6.4388    1.2477 C   0  0  0  1  0  0  0  0  0  0  0  0
   -1.4109    5.2207    1.4473 C   0  0  0  1  0  0  0  0  0  0  0  0
   -2.0487    4.0479    1.0744 C   0  0  0  1  0  0  0  0  0  0  0  0
   -3.3040    4.0968    0.4981 C   0  0  0  1  0  0  0  0  0  0  0  0
   -3.9274    5.3186    0.2979 C   0  0  0  1  0  0  0  0  0  0  0  0
   -1.4493    2.6932    1.3697 C   0  0  0  1  0  0  0  0  0  0  0  0
   -1.5558    7.3186    1.5311 H   0  0  0  1  0  0  0  0  0  0  0  0
   -0.4646    5.1841    1.8773 H   0  0  0  1  0  0  0  0  0  0  0  0
   -3.7807    3.2170    0.2146 H   0  0  0  1  0  0  0  0  0  0  0  0
   -4.8736    5.3552   -0.1321 H   0  0  0  1  0  0  0  0  0  0  0  0
   -0.6281    2.8236    2.0431 H   0  0  0  1  0  0  0  0  0  0  0  0
   -2.1971    2.0835    1.8322 H   0  0  0  1  0  0  0  0  0  0  0  0
  1  4  1  0  0  0  0
  2  4  1  0  0  0  0
  2  5  2  0  0  0  0
  2  6  1  0  0  0  0
  3  4  1  0  0  0  0
  3  7  1  0  0  0  0
  3  8  1  0  0  0  0
  4 26  1  0  0  0  0
  6  9  1  0  0  0  0
  6 12  1  0  0  0  0
  8 10  1  0  0  0  0
  8 11  2  0  0  0  0
  9 13  1  0  0  0  0
  9 14  1  0  0  0  0
  9 15  1  0  0  0  0
 10 16  1  0  0  0  0
 10 17  1  0  0  0  0
 10 18  1  0  0  0  0
 19 20  1  0  0  0  0
 20 21  4  0  0  0  0
 20 25  4  0  0  0  0
 21 22  4  0  0  0  0
 21 27  1  0  0  0  0
 22 23  4  0  0  0  0
 22 28  1  0  0  0  0
 23 24  4  0  0  0  0
 23 26  1  0  0  0  0
 24 25  4  0  0  0  0
 24 29  1  0  0  0  0
 25 30  1  0  0  0  0
 26 31  1  0  0  0  0
 26 32  1  0  0  0  0
M  END
> <BCLConfClusterSize>
1

> <ConfClashScore>
0 

> <ConfOneFourInteractionScore>
-0.967579 

> <ConfScore>
-0.193029 

> <ConfScorePBest>
0.00652372 

> <ConfTolerance>
0.241438 

> <RosettaParamsInstructions>
M  ROOT 3
M  POLY_N_BB 3
M  POLY_CA_BB 4
M  POLY_C_BB 2
M  POLY_O_BB 5
M  POLY_IGNORE 9 10 11 12 13 14 15 16 17 18 
M  POLY_UPPER 6
M  POLY_LOWER 8
M  POLY_CHG 0
M  POLY_PROPERTIES ALPHA_AA L_AA PROTEIN AROMATIC POLYMER 
M  END

$$$$



 32 32  0  0  0  0  0  0  0  0999 V2000
   -1.4855    1.8512   -0.6113 H   0  0  0  1  0  0  0  0  0  0  0  0
    0.1298    3.2104   -0.5946 C   0  0  0  1  0  0  0  0  0  0  0  0
    0.0976    0.9848    0.4012 N   0  0  0  1  0  0  0  0  0  0  0  0
   -0.7191    2.1469    0.0744 C   0  0  0  1  0  0  0  0  0  0  0  0
   -0.3140    3.8963   -1.5146 O   0  0  0  1  0  0  0  0  0  0  0  0
    1.3775    3.3457   -0.1181 N   0  0  0  1  0  0  0  0  0  0  0  0
   -0.0123    0.6162    1.3026 H   0  0  0  1  0  0  0  0  0  0  0  0
    0.9866    0.3596   -0.3952 C   0  0  0  1  0  0  0  0  0  0  0  0
    2.3420    4.2589   -0.7128 C   0  0  0  1  0  0  0  0  0  0  0  0
    1.6405   -0.8766    0.1908 C   0  0  0  1  0  0  0  0  0  0  0  0
    1.2628    0.7518   -1.5281 O   0  0  0  1  0  0  0  0  0  0  0  0
    1.6482    2.8109    0.6572 H   0  0  0  1  0  0  0  0  0  0  0  0
    1.9372    4.6681   -1.6149 H   0  0  0  1  0  0  0  0  0  0  0  0
    3.2444    3.7288   -0.9355 H   0  0  0  1  0  0  0  0  0  0  0  0
    2.5534    5.0512   -0.0255 H   0  0  0  1  0  0  0  0  0  0  0  0
    2.6945   -0.7152    0.2793 H   0  0  0  1  0  0  0  0  0  0  0  0
    1.4608   -1.7133   -0.4515 H   0  0  0  1  0  0  0  0  0  0  0  0
    1.2276   -1.0737    1.1581 H   0  0  0  1  0  0  0  0  0  0  0  0
   -3.8843    7.6784    0.4533 F   0  0  0  1  0  0  0  0  0  0  0  0
   -3.2892    6.4887    0.6639 C   0  0  0  1  0  0  0  0  0  0  0  0
   -2.0333    6.4356    1.2481 C   0  0  0  1  0  0  0  0  0  0  0  0
   -1.4202    5.2151    1.4594 C   0  0  0  1  0  0  0  0  0  0  0  0
   -2.0637    4.0436    1.0920 C   0  0  0  1  0  0  0  0  0  0  0  0
   -3.3160    4.0963    0.5094 C   0  0  0  1  0  0  0  0  0  0  0  0
   -3.9307    5.3205    0.2975 C   0  0  0  1  0  0  0  0  0  0  0  0
   -1.3968    2.7090    1.3279 C   0  0  0  1  0  0  0  0  0  0  0  0
   -1.5523    7.3143    1.5275 H   0  0  0  1  0  0  0  0  0  0  0  0
   -0.4762    5.1756    1.8941 H   0  0  0  1  0  0  0  0  0  0  0  0
   -3.7969    3.2175    0.2300 H   0  0  0  1  0  0  0  0  0  0  0  0
   -4.8747    5.3600   -0.1371 H   0  0  0  1  0  0  0  0  0  0  0  0
   -0.6562    2.8286    2.0909 H   0  0  0  1  0  0  0  0  0  0  0  0
   -2.1384    2.0111    1.6562 H   0  0  0  1  0  0  0  0  0  0  0  0
  1  4  1  0  0  0  0
  2  4  1  0  0  0  0
  2  5  2  0  0  0  0
  2  6  1  0  0  0  0
  3  4  1  0  0  0  0
  3  7  1  0  0  0  0
  3  8  1  0  0  0  0
  4 26  1  0  0  0  0
  6  9  1  0  0  0  0
  6 12  1  0  0  0  0
  8 10  1  0  0  0  0
  8 11  2  0  0  0  0
  9 13  1  0  0  0  0
  9 14  1  0  0  0  0
  9 15  1  0  0  0  0
 10 16  1  0  0  0  0
 10 17  1  0  0  0  0
 10 18  1  0  0  0  0
 19 20  1  0  0  0  0
 20 21  4  0  0  0  0
 20 25  4  0  0  0  0
 21 22  4  0  0  0  0
 21 27  1  0  0  0  0
 22 23  4  0  0  0  0
 22 28  1  0  0  0  0
 23 24  4  0  0  0  0
 23 26  1  0  0  0  0
 24 25  4  0  0  0  0
 24 29  1  0  0  0  0
 25 30  1  0  0  0  0
 26 31  1  0  0  0  0
 26 32  1  0  0  0  0
M  END
> <BCLConfClusterSize>
1

> <ConfClashScore>
0 

> <ConfOneFourInteractionScore>
-0.960318 

> <ConfScore>
-0.189199 

> <ConfScorePBest>
0.00649524 

> <ConfTolerance>
0.275244 

> <RosettaParamsInstructions>
M  ROOT 3
M  POLY_N_BB 3
M  POLY_CA_BB 4
M  POLY_C_BB 2
M  POLY_O_BB 5
M  POLY_IGNORE 9 10 11 12 13 14 15 16 17 18 
M  POLY_UPPER 6
M  POLY_LOWER 8
M  POLY_CHG 0
M  POLY_PROPERTIES ALPHA_AA L_AA PROTEIN AROMATIC POLYMER 
M  END

$$$$



 32 32  0  0  0  0  0  0  0  0999 V2000
    0.0101    2.9813   -0.2317 H   0  0  0  1  0  0  0  0  0  0  0  0
    0.2095    0.9785    0.4204 C   0  0  0  1  0  0  0  0  0  0  0  0
   -1.5473    1.8230   -0.9562 N   0  0  0  1  0  0  0  0  0  0  0  0
   -0.6348    2.1995    0.1116 C   0  0  0  1  0  0  0  0  0  0  0  0
   -0.2796   -0.1389    0.4481 O   0  0  0  1  0  0  0  0  0  0  0  0
    1.5038    1.2121    0.6554 N   0  0  0  1  0  0  0  0  0  0  0  0
   -2.4731    1.5959   -0.7290 H   0  0  0  1  0  0  0  0  0  0  0  0
   -1.1636    1.7756   -2.2488 C   0  0  0  1  0  0  0  0  0  0  0  0
    2.4655    0.1368    0.8475 C   0  0  0  1  0  0  0  0  0  0  0  0
   -2.1992    1.3997   -3.2843 C   0  0  0  1  0  0  0  0  0  0  0  0
   -0.0058    2.0301   -2.5778 O   0  0  0  1  0  0  0  0  0  0  0  0
    1.8164    2.1398    0.7000 H   0  0  0  1  0  0  0  0  0  0  0  0
    1.9730   -0.7103    1.2773 H   0  0  0  1  0  0  0  0  0  0  0  0
    3.2435    0.4675    1.5034 H   0  0  0  1  0  0  0  0  0  0  0  0
    2.8870   -0.1373   -0.0970 H   0  0  0  1  0  0  0  0  0  0  0  0
   -2.6210    2.2879   -3.7064 H   0  0  0  1  0  0  0  0  0  0  0  0
   -2.9727    0.8229   -2.8218 H   0  0  0  1  0  0  0  0  0  0  0  0
   -1.7369    0.8224   -4.0575 H   0  0  0  1  0  0  0  0  0  0  0  0
   -3.8843    7.6784    0.4533 F   0  0  0  1  0  0  0  0  0  0  0  0
   -3.2892    6.4887    0.6639 C   0  0  0  1  0  0  0  0  0  0  0  0
   -2.0333    6.4356    1.2481 C   0  0  0  1  0  0  0  0  0  0  0  0
   -1.4202    5.2151    1.4594 C   0  0  0  1  0  0  0  0  0  0  0  0
   -2.0637    4.0436    1.0920 C   0  0  0  1  0  0  0  0  0  0  0  0
   -3.3160    4.0963    0.5094 C   0  0  0  1  0  0  0  0  0  0  0  0
   -3.9307    5.3205    0.2975 C   0  0  0  1  0  0  0  0  0  0  0  0
   -1.3968    2.7090    1.3279 C   0  0  0  1  0  0  0  0  0  0  0  0
   -1.5523    7.3143    1.5275 H   0  0  0  1  0  0  0  0  0  0  0  0
   -0.4762    5.1756    1.8941 H   0  0  0  1  0  0  0  0  0  0  0  0
   -3.7969    3.2175    0.2300 H   0  0  0  1  0  0  0  0  0  0  0  0
   -4.8747    5.3600   -0.1371 H   0  0  0  1  0  0  0  0  0  0  0  0
   -0.7100    2.8107    2.1420 H   0  0  0  1  0  0  0  0  0  0  0  0
   -2.1495    1.9926    1.5830 H   0  0  0  1  0  0  0  0  0  0  0  0
  1  4  1  0  0  0  0
  2  4  1  0  0  0  0
  2  5  2  0  0  0  0
  2  6  1  0  0  0  0
  3  4  1  0  0  0  0
  3  7  1  0  0  0  0
  3  8  1  0  0  0  0
  4 26  1  0  0  0  0
  6  9  1  0  0  0  0
  6 12  1  0  0  0  0
  8 10  1  0  0  0  0
  8 11  2  0  0  0  0
  9 13  1  0  0  0  0
  9 14  1  0  0  0  0
  9 15  1  0  0  0  0
 10 16  1  0  0  0  0
 10 17  1  0  0  0  0
 10 18  1  0  0  0  0
 19 20  1  0  0  0  0
 20 21  4  0  0  0  0
 20 25  4  0  0  0  0
 21 22  4  0  0  0  0
 21 27  1  0  0  0  0
 22 23  4  0  0  0  0
 22 28  1  0  0  0  0
 23 24  4  0  0  0  0
 23 26  1  0  0  0  0
 24 25  4  0  0  0  0
 24 29  1  0  0  0  0
 25 30  1  0  0  0  0
 26 31  1  0  0  0  0
 26 32  1  0  0  0  0
M  END
> <BCLConfClusterSize>
1

> <ConfClashScore>
0 

> <ConfOneFourInteractionScore>
-0.974251 

> <ConfScore>
-0.187157 

> <ConfScorePBest>
0.00646676 

> <ConfTolerance>
0.183391 

> <RosettaParamsInstructions>
M  ROOT 3
M  POLY_N_BB 3
M  POLY_CA_BB 4
M  POLY_C_BB 2
M  POLY_O_BB 5
M  POLY_IGNORE 9 10 11 12 13 14 15 16 17 18 
M  POLY_UPPER 6
M  POLY_LOWER 8
M  POLY_CHG 0
M  POLY_PROPERTIES ALPHA_AA L_AA PROTEIN AROMATIC POLYMER 
M  END

$$$$



 32 32  0  0  0  0  0  0  0  0999 V2000
   -0.1842    3.1697    2.9906 H   0  0  0  1  0  0  0  0  0  0  0  0
   -2.1330    2.8344    3.7246 C   0  0  0  1  0  0  0  0  0  0  0  0
   -0.5310    1.1373    3.0547 N   0  0  0  1  0  0  0  0  0  0  0  0
   -0.9873    2.4950    2.7792 C   0  0  0  1  0  0  0  0  0  0  0  0
   -2.3523    4.0065    4.0255 O   0  0  0  1  0  0  0  0  0  0  0  0
   -2.9075    1.8222    4.1182 N   0  0  0  1  0  0  0  0  0  0  0  0
   -0.4842    0.4951    2.3159 H   0  0  0  1  0  0  0  0  0  0  0  0
   -0.1746    0.7388    4.2791 C   0  0  0  1  0  0  0  0  0  0  0  0
   -3.9605    1.9887    5.1089 C   0  0  0  1  0  0  0  0  0  0  0  0
    0.2589   -0.7092    4.4004 C   0  0  0  1  0  0  0  0  0  0  0  0
   -0.1908    1.4845    5.2575 O   0  0  0  1  0  0  0  0  0  0  0  0
   -2.7624    0.9357    3.7266 H   0  0  0  1  0  0  0  0  0  0  0  0
   -4.3484    2.9844    5.0539 H   0  0  0  1  0  0  0  0  0  0  0  0
   -3.5609    1.8153    6.0862 H   0  0  0  1  0  0  0  0  0  0  0  0
   -4.7462    1.2888    4.9149 H   0  0  0  1  0  0  0  0  0  0  0  0
   -0.4577   -1.3385    3.9152 H   0  0  0  1  0  0  0  0  0  0  0  0
    0.3253   -0.9759    5.4344 H   0  0  0  1  0  0  0  0  0  0  0  0
    1.2152   -0.8349    3.9370 H   0  0  0  1  0  0  0  0  0  0  0  0
   -3.8843    7.6784    0.4533 F   0  0  0  1  0  0  0  0  0  0  0  0
   -3.2892    6.4887    0.6639 C   0  0  0  1  0  0  0  0  0  0  0  0
   -2.0333    6.4356    1.2481 C   0  0  0  1  0  0  0  0  0  0  0  0
   -1.4202    5.2151    1.4594 C   0  0  0  1  0  0  0  0  0  0  0  0
   -2.0637    4.0436    1.0920 C   0  0  0  1  0  0  0  0  0  0  0  0
   -3.3160    4.0963    0.5094 C   0  0  0  1  0  0  0  0  0  0  0  0
   -3.9307    5.3205    0.2975 C   0  0  0  1  0  0  0  0  0  0  0  0
   -1.3968    2.7090    1.3279 C   0  0  0  1  0  0  0  0  0  0  0  0
   -1.5523    7.3143    1.5275 H   0  0  0  1  0  0  0  0  0  0  0  0
   -0.4762    5.1756    1.8941 H   0  0  0  1  0  0  0  0  0  0  0  0
   -3.7969    3.2175    0.2300 H   0  0  0  1  0  0  0  0  0  0  0  0
   -4.8747    5.3600   -0.1371 H   0  0  0  1  0  0  0  0  0  0  0  0
   -2.0789    1.9334    1.0485 H   0  0  0  1  0  0  0  0  0  0  0  0
   -0.5214    2.6527    0.7152 H   0  0  0  1  0  0  0  0  0  0  0  0
  1  4  1  0  0  0  0
  2  4  1  0  0  0  0
  2  5  2  0  0  0  0
  2  6  1  0  0  0  0
  3  4  1  0  0  0  0
  3  7  1  0  0  0  0
  3  8  1  0  0  0  0
  4 26  1  0  0  0  0
  6  9  1  0  0  0  0
  6 12  1  0  0  0  0
  8 10  1  0  0  0  0
  8 11  2  0  0  0  0
  9 13  1  0  0  0  0
  9 14  1  0  0  0  0
  9 15  1  0  0  0  0
 10 16  1  0  0  0  0
 10 17  1  0  0  0  0
 10 18  1  0  0  0  0
 19 20  1  0  0  0  0
 20 21  4  0  0  0  0
 20 25  4  0  0  0  0
 21 22  4  0  0  0  0
 21 27  1  0  0  0  0
 22 23  4  0  0  0  0
 22 28  1  0  0  0  0
 23 24  4  0  0  0  0
 23 26  1  0  0  0  0
 24 25  4  0  0  0  0
 24 29  1  0  0  0  0
 25 30  1  0  0  0  0
 26 31  1  0  0  0  0
 26 32  1  0  0  0  0
M  END
> <BCLConfClusterSize>
1

> <ConfClashScore>
0 

> <ConfOneFourInteractionScore>
-0.960318 

> <ConfScore>
-0.183851 

> <ConfScorePBest>
0.00643828 

> <ConfTolerance>
0.319395 

> <RosettaParamsInstructions>
M  ROOT 3
M  POLY_N_BB 3
M  POLY_CA_BB 4
M  POLY_C_BB 2
M  POLY_O_BB 5
M  POLY_IGNORE 9 10 11 12 13 14 15 16 17 18 
M  POLY_UPPER 6
M  POLY_LOWER 8
M  POLY_CHG 0
M  POLY_PROPERTIES ALPHA_AA L_AA PROTEIN AROMATIC POLYMER 
M  END

$$$$



 32 32  0  0  0  0  0  0  0  0999 V2000
   -0.2008    2.8614   -0.3989 H   0  0  0  1  0  0  0  0  0  0  0  0
    0.1285    0.9332    0.3681 C   0  0  0  1  0  0  0  0  0  0  0  0
   -1.8251    1.7174   -0.9064 N   0  0  0  1  0  0  0  0  0  0  0  0
   -0.8019    2.1012    0.0547 C   0  0  0  1  0  0  0  0  0  0  0  0
    1.0488    1.0644    1.1739 O   0  0  0  1  0  0  0  0  0  0  0  0
   -0.2015   -0.2231   -0.2288 N   0  0  0  1  0  0  0  0  0  0  0  0
   -2.6663    1.3388   -0.5757 H   0  0  0  1  0  0  0  0  0  0  0  0
   -1.6560    1.8645   -2.2349 C   0  0  0  1  0  0  0  0  0  0  0  0
    0.6011   -1.4006    0.0667 C   0  0  0  1  0  0  0  0  0  0  0  0
   -2.8690    1.4637   -3.0517 C   0  0  0  1  0  0  0  0  0  0  0  0
   -0.6372    2.2779   -2.7637 O   0  0  0  1  0  0  0  0  0  0  0  0
   -0.9611   -0.2729   -0.8459 H   0  0  0  1  0  0  0  0  0  0  0  0
    1.5966   -1.1002    0.3188 H   0  0  0  1  0  0  0  0  0  0  0  0
    0.6279   -2.0383   -0.7920 H   0  0  0  1  0  0  0  0  0  0  0  0
    0.1688   -1.9290    0.8907 H   0  0  0  1  0  0  0  0  0  0  0  0
   -2.8294    1.9417   -4.0082 H   0  0  0  1  0  0  0  0  0  0  0  0
   -3.7589    1.7648   -2.5394 H   0  0  0  1  0  0  0  0  0  0  0  0
   -2.8748    0.4019   -3.1838 H   0  0  0  1  0  0  0  0  0  0  0  0
   -3.8565    7.6941    0.4672 F   0  0  0  1  0  0  0  0  0  0  0  0
   -3.2949    6.4853    0.6610 C   0  0  0  1  0  0  0  0  0  0  0  0
   -2.0390    6.4357    1.2455 C   0  0  0  1  0  0  0  0  0  0  0  0
   -1.4232    5.2167    1.4581 C   0  0  0  1  0  0  0  0  0  0  0  0
   -2.0640    4.0435    1.0918 C   0  0  0  1  0  0  0  0  0  0  0  0
   -3.3163    4.0927    0.5090 C   0  0  0  1  0  0  0  0  0  0  0  0
   -3.9338    5.3154    0.2958 C   0  0  0  1  0  0  0  0  0  0  0  0
   -1.3942    2.7106    1.3292 C   0  0  0  1  0  0  0  0  0  0  0  0
   -1.5599    7.3158    1.5240 H   0  0  0  1  0  0  0  0  0  0  0  0
   -0.4792    5.1798    1.8930 H   0  0  0  1  0  0  0  0  0  0  0  0
   -3.7954    3.2126    0.2305 H   0  0  0  1  0  0  0  0  0  0  0  0
   -4.8778    5.3524   -0.1391 H   0  0  0  1  0  0  0  0  0  0  0  0
   -0.6058    2.8474    2.0396 H   0  0  0  1  0  0  0  0  0  0  0  0
   -2.1191    2.0312    1.7265 H   0  0  0  1  0  0  0  0  0  0  0  0
  1  4  1  0  0  0  0
  2  4  1  0  0  0  0
  2  5  2  0  0  0  0
  2  6  1  0  0  0  0
  3  4  1  0  0  0  0
  3  7  1  0  0  0  0
  3  8  1  0  0  0  0
  4 26  1  0  0  0  0
  6  9  1  0  0  0  0
  6 12  1  0  0  0  0
  8 10  1  0  0  0  0
  8 11  2  0  0  0  0
  9 13  1  0  0  0  0
  9 14  1  0  0  0  0
  9 15  1  0  0  0  0
 10 16  1  0  0  0  0
 10 17  1  0  0  0  0
 10 18  1  0  0  0  0
 19 20  1  0  0  0  0
 20 21  4  0  0  0  0
 20 25  4  0  0  0  0
 21 22  4  0  0  0  0
 21 27  1  0  0  0  0
 22 23  4  0  0  0  0
 22 28  1  0  0  0  0
 23 24  4  0  0  0  0
 23 26  1  0  0  0  0
 24 25  4  0  0  0  0
 24 29  1  0  0  0  0
 25 30  1  0  0  0  0
 26 31  1  0  0  0  0
 26 32  1  0  0  0  0
M  END
> <BCLConfClusterSize>
1

> <ConfClashScore>
0 

> <ConfOneFourInteractionScore>
-0.937775 

> <ConfScore>
-0.177555 

> <ConfScorePBest>
0.0064098 

> <ConfTolerance>
0.216639 

> <RosettaParamsInstructions>
M  ROOT 3
M  POLY_N_BB 3
M  POLY_CA_BB 4
M  POLY_C_BB 2
M  POLY_O_BB 5
M  POLY_IGNORE 9 10 11 12 13 14 15 16 17 18 
M  POLY_UPPER 6
M  POLY_LOWER 8
M  POLY_CHG 0
M  POLY_PROPERTIES ALPHA_AA L_AA PROTEIN AROMATIC POLYMER 
M  END

$$$$



 32 32  0  0  0  0  0  0  0  0999 V2000
   -2.7669    1.8233    2.6521 H   0  0  0  1  0  0  0  0  0  0  0  0
   -1.0612    0.6231    2.6853 C   0  0  0  1  0  0  0  0  0  0  0  0
   -1.3849    2.8502    3.7499 N   0  0  0  1  0  0  0  0  0  0  0  0
   -1.7107    1.9917    2.6209 C   0  0  0  1  0  0  0  0  0  0  0  0
   -1.0950   -0.1442    1.7269 O   0  0  0  1  0  0  0  0  0  0  0  0
   -0.4583    0.3180    3.8445 N   0  0  0  1  0  0  0  0  0  0  0  0
   -0.7068    3.5481    3.6332 H   0  0  0  1  0  0  0  0  0  0  0  0
   -1.9772    2.7203    4.9380 C   0  0  0  1  0  0  0  0  0  0  0  0
    0.2251   -0.9495    4.0553 C   0  0  0  1  0  0  0  0  0  0  0  0
   -1.3879    3.5501    6.0620 C   0  0  0  1  0  0  0  0  0  0  0  0
   -2.9409    1.9797    5.1287 O   0  0  0  1  0  0  0  0  0  0  0  0
   -0.4788    0.9714    4.5746 H   0  0  0  1  0  0  0  0  0  0  0  0
   -0.4601   -1.6604    4.4677 H   0  0  0  1  0  0  0  0  0  0  0  0
    1.0409   -0.8062    4.7326 H   0  0  0  1  0  0  0  0  0  0  0  0
    0.5968   -1.3138    3.1204 H   0  0  0  1  0  0  0  0  0  0  0  0
   -1.2539    4.5582    5.7294 H   0  0  0  1  0  0  0  0  0  0  0  0
   -0.4419    3.1408    6.3491 H   0  0  0  1  0  0  0  0  0  0  0  0
   -2.0521    3.5368    6.9008 H   0  0  0  1  0  0  0  0  0  0  0  0
   -3.9151    7.6593    0.4378 F   0  0  0  1  0  0  0  0  0  0  0  0
   -3.2833    6.4921    0.6668 C   0  0  0  1  0  0  0  0  0  0  0  0
   -2.0274    6.4405    1.2512 C   0  0  0  1  0  0  0  0  0  0  0  0
   -1.4131    5.2207    1.4631 C   0  0  0  1  0  0  0  0  0  0  0  0
   -2.0554    4.0484    1.0961 C   0  0  0  1  0  0  0  0  0  0  0  0
   -3.3077    4.0996    0.5134 C   0  0  0  1  0  0  0  0  0  0  0  0
   -3.9236    5.3232    0.3010 C   0  0  0  1  0  0  0  0  0  0  0  0
   -1.4370    2.6868    1.3079 C   0  0  0  1  0  0  0  0  0  0  0  0
   -1.5472    7.3199    1.5302 H   0  0  0  1  0  0  0  0  0  0  0  0
   -0.4691    5.1823    1.8978 H   0  0  0  1  0  0  0  0  0  0  0  0
   -3.7878    3.2203    0.2345 H   0  0  0  1  0  0  0  0  0  0  0  0
   -4.8676    5.3615   -0.1338 H   0  0  0  1  0  0  0  0  0  0  0  0
   -1.7938    2.0481    0.5271 H   0  0  0  1  0  0  0  0  0  0  0  0
   -0.3765    2.7997    1.2204 H   0  0  0  1  0  0  0  0  0  0  0  0
  1  4  1  0  0  0  0
  2  4  1  0  0  0  0
  2  5  2  0  0  0  0
  2  6  1  0  0  0  0
  3  4  1  0  0  0  0
  3  7  1  0  0  0  0
  3  8  1  0  0  0  0
  4 26  1  0  0  0  0
  6  9  1  0  0  0  0
  6 12  1  0  0  0  0
  8 10  1  0  0  0  0
  8 11  2  0  0  0  0
  9 13  1  0  0  0  0
  9 14  1  0  0  0  0
  9 15  1  0  0  0  0
 10 16  1  0  0  0  0
 10 17  1  0  0  0  0
 10 18  1  0  0  0  0
 19 20  1  0  0  0  0
 20 21  4  0  0  0  0
 20 25  4  0  0  0  0
 21 22  4  0  0  0  0
 21 27  1  0  0  0  0
 22 23  4  0  0  0  0
 22 28  1  0  0  0  0
 23 24  4  0  0  0  0
 23 26  1  0  0  0  0
 24 25  4  0  0  0  0
 24 29  1  0  0  0  0
 25 30  1  0  0  0  0
 26 31  1  0  0  0  0
 26 32  1  0  0  0  0
M  END
> <BCLConfClusterSize>
1

> <ConfClashScore>
0 

> <ConfOneFourInteractionScore>
-0.94165 

> <ConfScore>
-0.177409 

> <ConfScorePBest>
0.00638132 

> <ConfTolerance>
0.23947 

> <RosettaParamsInstructions>
M  ROOT 3
M  POLY_N_BB 3
M  POLY_CA_BB 4
M  POLY_C_BB 2
M  POLY_O_BB 5
M  POLY_IGNORE 9 10 11 12 13 14 15 16 17 18 
M  POLY_UPPER 6
M  POLY_LOWER 8
M  POLY_CHG 0
M  POLY_PROPERTIES ALPHA_AA L_AA PROTEIN AROMATIC POLYMER 
M  END

$$$$



 32 32  0  0  0  0  0  0  0  0999 V2000
    0.2884    3.3072    0.1243 H   0  0  0  1  0  0  0  0  0  0  0  0
    0.6655    1.3461    0.7682 C   0  0  0  1  0  0  0  0  0  0  0  0
   -0.9891    2.1098   -0.9507 N   0  0  0  1  0  0  0  0  0  0  0  0
   -0.2892    2.4212    0.2866 C   0  0  0  1  0  0  0  0  0  0  0  0
    0.4094    0.1618    0.6255 O   0  0  0  1  0  0  0  0  0  0  0  0
    1.7912    1.7850    1.3517 N   0  0  0  1  0  0  0  0  0  0  0  0
   -1.9539    1.9464   -0.8967 H   0  0  0  1  0  0  0  0  0  0  0  0
   -0.4131    2.0297   -2.1599 C   0  0  0  1  0  0  0  0  0  0  0  0
    2.8858    0.9347    1.7953 C   0  0  0  1  0  0  0  0  0  0  0  0
   -1.2960    1.7087   -3.3502 C   0  0  0  1  0  0  0  0  0  0  0  0
    0.7955    2.2109   -2.3014 O   0  0  0  1  0  0  0  0  0  0  0  0
    1.8832    2.7509    1.4895 H   0  0  0  1  0  0  0  0  0  0  0  0
    2.5008   -0.0202    2.0865 H   0  0  0  1  0  0  0  0  0  0  0  0
    3.3758    1.3910    2.6299 H   0  0  0  1  0  0  0  0  0  0  0  0
    3.5854    0.8082    0.9957 H   0  0  0  1  0  0  0  0  0  0  0  0
   -2.3215    1.8603   -3.0854 H   0  0  0  1  0  0  0  0  0  0  0  0
   -1.1492    0.6887   -3.6380 H   0  0  0  1  0  0  0  0  0  0  0  0
   -1.0401    2.3507   -4.1671 H   0  0  0  1  0  0  0  0  0  0  0  0
   -3.8497    7.6974    0.4705 F   0  0  0  1  0  0  0  0  0  0  0  0
   -3.2952    6.4849    0.6609 C   0  0  0  1  0  0  0  0  0  0  0  0
   -2.0393    6.4262    1.2447 C   0  0  0  1  0  0  0  0  0  0  0  0
   -1.4307    5.2031    1.4538 C   0  0  0  1  0  0  0  0  0  0  0  0
   -2.0786    4.0346    1.0845 C   0  0  0  1  0  0  0  0  0  0  0  0
   -3.3308    4.0928    0.5023 C   0  0  0  1  0  0  0  0  0  0  0  0
   -3.9410    5.3197    0.2927 C   0  0  0  1  0  0  0  0  0  0  0  0
   -1.3273    2.7542    1.3630 C   0  0  0  1  0  0  0  0  0  0  0  0
   -1.5550    7.3026    1.5255 H   0  0  0  1  0  0  0  0  0  0  0  0
   -0.4868    5.1593    1.8882 H   0  0  0  1  0  0  0  0  0  0  0  0
   -3.8151    3.2163    0.2216 H   0  0  0  1  0  0  0  0  0  0  0  0
   -4.8850    5.3634   -0.1417 H   0  0  0  1  0  0  0  0  0  0  0  0
   -0.8245    2.8518    2.3024 H   0  0  0  1  0  0  0  0  0  0  0  0
   -2.0319    1.9507    1.4167 H   0  0  0  1  0  0  0  0  0  0  0  0
  1  4  1  0  0  0  0
  2  4  1  0  0  0  0
  2  5  2  0  0  0  0
  2  6  1  0  0  0  0
  3  4  1  0  0  0  0
  3  7  1  0  0  0  0
  3  8  1  0  0  0  0
  4 26  1  0  0  0  0
  6  9  1  0  0  0  0
  6 12  1  0  0  0  0
  8 10  1  0  0  0  0
  8 11  2  0  0  0  0
  9 13  1  0  0  0  0
  9 14  1  0  0  0  0
  9 15  1  0  0  0  0
 10 16  1  0  0  0  0
 10 17  1  0  0  0  0
 10 18  1  0  0  0  0
 19 20  1  0  0  0  0
 20 21  4  0  0  0  0
 20 25  4  0  0  0  0
 21 22  4  0  0  0  0
 21 27  1  0  0  0  0
 22 23  4  0  0  0  0
 22 28  1  0  0  0  0
 23 24  4  0  0  0  0
 23 26  1  0  0  0  0
 24 25  4  0  0  0  0
 24 29  1  0  0  0  0
 25 30  1  0  0  0  0
 26 31  1  0  0  0  0
 26 32  1  0  0  0  0
M  END
> <BCLConfClusterSize>
1

> <ConfClashScore>
0 

> <ConfOneFourInteractionScore>
-0.974251 

> <ConfScore>
-0.176613 

> <ConfScorePBest>
0.00635284 

> <ConfTolerance>
0.217821 

> <RosettaParamsInstructions>
M  ROOT 3
M  POLY_N_BB 3
M  POLY_CA_BB 4
M  POLY_C_BB 2
M  POLY_O_BB 5
M  POLY_IGNORE 9 10 11 12 13 14 15 16 17 18 
M  POLY_UPPER 6
M  POLY_LOWER 8
M  POLY_CHG 0
M  POLY_PROPERTIES ALPHA_AA L_AA PROTEIN AROMATIC POLYMER 
M  END

$$$$



 32 32  0  0  0  0  0  0  0  0999 V2000
   -1.2271    2.1288   -0.6988 H   0  0  0  1  0  0  0  0  0  0  0  0
    0.4454    3.3243   -0.2211 C   0  0  0  1  0  0  0  0  0  0  0  0
    0.0742    0.9503    0.3792 N   0  0  0  1  0  0  0  0  0  0  0  0
   -0.5629    2.2354    0.1334 C   0  0  0  1  0  0  0  0  0  0  0  0
    0.0875    4.3827   -0.7311 O   0  0  0  1  0  0  0  0  0  0  0  0
    1.7274    3.0455    0.0600 N   0  0  0  1  0  0  0  0  0  0  0  0
   -0.1668    0.4497    1.1865 H   0  0  0  1  0  0  0  0  0  0  0  0
    1.0048    0.4127   -0.4839 C   0  0  0  1  0  0  0  0  0  0  0  0
    2.9023    3.8185   -0.3139 C   0  0  0  1  0  0  0  0  0  0  0  0
    1.6359   -0.8773   -0.0478 C   0  0  0  1  0  0  0  0  0  0  0  0
    1.2698    0.9812   -1.5262 O   0  0  0  1  0  0  0  0  0  0  0  0
    1.8911    2.2284    0.5758 H   0  0  0  1  0  0  0  0  0  0  0  0
    3.6101    3.1799   -0.7999 H   0  0  0  1  0  0  0  0  0  0  0  0
    3.3461    4.2395    0.5639 H   0  0  0  1  0  0  0  0  0  0  0  0
    2.6145    4.6043   -0.9807 H   0  0  0  1  0  0  0  0  0  0  0  0
    2.3478   -0.6826    0.7269 H   0  0  0  1  0  0  0  0  0  0  0  0
    2.1308   -1.3314   -0.8807 H   0  0  0  1  0  0  0  0  0  0  0  0
    0.8791   -1.5375    0.3213 H   0  0  0  1  0  0  0  0  0  0  0  0
   -3.8843    7.6784    0.4533 F   0  0  0  1  0  0  0  0  0  0  0  0
   -3.2892    6.4887    0.6639 C   0  0  0  1  0  0  0  0  0  0  0  0
   -2.0333    6.4356    1.2481 C   0  0  0  1  0  0  0  0  0  0  0  0
   -1.4202    5.2151    1.4594 C   0  0  0  1  0  0  0  0  0  0  0  0
   -2.0637    4.0436    1.0920 C   0  0  0  1  0  0  0  0  0  0  0  0
   -3.3160    4.0963    0.5094 C   0  0  0  1  0  0  0  0  0  0  0  0
   -3.9307    5.3205    0.2975 C   0  0  0  1  0  0  0  0  0  0  0  0
   -1.3968    2.7090    1.3279 C   0  0  0  1  0  0  0  0  0  0  0  0
   -1.5523    7.3143    1.5275 H   0  0  0  1  0  0  0  0  0  0  0  0
   -0.4762    5.1756    1.8941 H   0  0  0  1  0  0  0  0  0  0  0  0
   -3.7969    3.2175    0.2300 H   0  0  0  1  0  0  0  0  0  0  0  0
   -4.8747    5.3600   -0.1371 H   0  0  0  1  0  0  0  0  0  0  0  0
   -0.7542    2.7952    2.1791 H   0  0  0  1  0  0  0  0  0  0  0  0
   -2.1546    1.9797    1.5248 H   0  0  0  1  0  0  0  0  0  0  0  0
  1  4  1  0  0  0  0
  2  4  1  0  0  0  0
  2  5  2  0  0  0  0
  2  6  1  0  0  0  0
  3  4  1  0  0  0  0
  3  7  1  0  0  0  0
  3  8  1  0  0  0  0
  4 26  1  0  0  0  0
  6  9  1  0  0  0  0
  6 12  1  0  0  0  0
  8 10  1  0  0  0  0
  8 11  2  0  0  0  0
  9 13  1  0  0  0  0
  9 14  1  0  0  0  0
  9 15  1  0  0  0  0
 10 16  1  0  0  0  0
 10 17  1  0  0  0  0
 10 18  1  0  0  0  0
 19 20  1  0  0  0  0
 20 21  4  0  0  0  0
 20 25  4  0  0  0  0
 21 22  4  0  0  0  0
 21 27  1  0  0  0  0
 22 23  4  0  0  0  0
 22 28  1  0  0  0  0
 23 24  4  0  0  0  0
 23 26  1  0  0  0  0
 24 25  4  0  0  0  0
 24 29  1  0  0  0  0
 25 30  1  0  0  0  0
 26 31  1  0  0  0  0
 26 32  1  0  0  0  0
M  END
> <BCLConfClusterSize>
1

> <ConfClashScore>
0 

> <ConfOneFourInteractionScore>
-0.94165 

> <ConfScore>
-0.171893 

> <ConfScorePBest>
0.00632436 

> <ConfTolerance>
0.375333 

> <RosettaParamsInstructions>
M  ROOT 3
M  POLY_N_BB 3
M  POLY_CA_BB 4
M  POLY_C_BB 2
M  POLY_O_BB 5
M  POLY_IGNORE 9 10 11 12 13 14 15 16 17 18 
M  POLY_UPPER 6
M  POLY_LOWER 8
M  POLY_CHG 0
M  POLY_PROPERTIES ALPHA_AA L_AA PROTEIN AROMATIC POLYMER 
M  END

$$$$



 32 32  0  0  0  0  0  0  0  0999 V2000
    0.3539    2.7641    0.1303 H   0  0  0  1  0  0  0  0  0  0  0  0
   -0.1930    0.7298    0.4009 C   0  0  0  1  0  0  0  0  0  0  0  0
   -1.2561    2.2845   -1.0913 N   0  0  0  1  0  0  0  0  0  0  0  0
   -0.5491    2.1919    0.1774 C   0  0  0  1  0  0  0  0  0  0  0  0
   -1.0719   -0.1207    0.5315 O   0  0  0  1  0  0  0  0  0  0  0  0
    1.1066    0.3973    0.4511 N   0  0  0  1  0  0  0  0  0  0  0  0
   -2.0465    1.7231   -1.2343 H   0  0  0  1  0  0  0  0  0  0  0  0
   -0.8651    3.1084   -2.0677 C   0  0  0  1  0  0  0  0  0  0  0  0
    1.4494   -0.9886    0.7332 C   0  0  0  1  0  0  0  0  0  0  0  0
   -1.6239    2.9874   -3.3749 C   0  0  0  1  0  0  0  0  0  0  0  0
    0.0422    3.9130   -1.9344 O   0  0  0  1  0  0  0  0  0  0  0  0
    1.8047    1.0688    0.3020 H   0  0  0  1  0  0  0  0  0  0  0  0
    0.6237   -1.4699    1.2142 H   0  0  0  1  0  0  0  0  0  0  0  0
    2.3043   -1.0206    1.3759 H   0  0  0  1  0  0  0  0  0  0  0  0
    1.6722   -1.4943   -0.1831 H   0  0  0  1  0  0  0  0  0  0  0  0
   -1.1323    3.5669   -4.1282 H   0  0  0  1  0  0  0  0  0  0  0  0
   -2.6223    3.3487   -3.2423 H   0  0  0  1  0  0  0  0  0  0  0  0
   -1.6526    1.9613   -3.6767 H   0  0  0  1  0  0  0  0  0  0  0  0
   -3.8565    7.6941    0.4672 F   0  0  0  1  0  0  0  0  0  0  0  0
   -3.2949    6.4853    0.6610 C   0  0  0  1  0  0  0  0  0  0  0  0
   -2.0390    6.4357    1.2455 C   0  0  0  1  0  0  0  0  0  0  0  0
   -1.4232    5.2167    1.4581 C   0  0  0  1  0  0  0  0  0  0  0  0
   -2.0640    4.0435    1.0918 C   0  0  0  1  0  0  0  0  0  0  0  0
   -3.3163    4.0927    0.5090 C   0  0  0  1  0  0  0  0  0  0  0  0
   -3.9338    5.3154    0.2958 C   0  0  0  1  0  0  0  0  0  0  0  0
   -1.3942    2.7106    1.3292 C   0  0  0  1  0  0  0  0  0  0  0  0
   -1.5599    7.3158    1.5240 H   0  0  0  1  0  0  0  0  0  0  0  0
   -0.4792    5.1798    1.8930 H   0  0  0  1  0  0  0  0  0  0  0  0
   -3.7954    3.2126    0.2305 H   0  0  0  1  0  0  0  0  0  0  0  0
   -4.8778    5.3524   -0.1391 H   0  0  0  1  0  0  0  0  0  0  0  0
   -0.7607    2.8076    2.1860 H   0  0  0  1  0  0  0  0  0  0  0  0
   -2.1580    1.9885    1.5296 H   0  0  0  1  0  0  0  0  0  0  0  0
  1  4  1  0  0  0  0
  2  4  1  0  0  0  0
  2  5  2  0  0  0  0
  2  6  1  0  0  0  0
  3  4  1  0  0  0  0
  3  7  1  0  0  0  0
  3  8  1  0  0  0  0
  4 26  1  0  0  0  0
  6  9  1  0  0  0  0
  6 12  1  0  0  0  0
  8 10  1  0  0  0  0
  8 11  2  0  0  0  0
  9 13  1  0  0  0  0
  9 14  1  0  0  0  0
  9 15  1  0  0  0  0
 10 16  1  0  0  0  0
 10 17  1  0  0  0  0
 10 18  1  0  0  0  0
 19 20  1  0  0  0  0
 20 21  4  0  0  0  0
 20 25  4  0  0  0  0
 21 22  4  0  0  0  0
 21 27  1  0  0  0  0
 22 23  4  0  0  0  0
 22 28  1  0  0  0  0
 23 24  4  0  0  0  0
 23 26  1  0  0  0  0
 24 25  4  0  0  0  0
 24 29  1  0  0  0  0
 25 30  1  0  0  0  0
 26 31  1  0  0  0  0
 26 32  1  0  0  0  0
M  END
> <BCLConfClusterSize>
1

> <ConfClashScore>
0 

> <ConfOneFourInteractionScore>
-0.990503 

> <ConfScore>
-0.171807 

> <ConfScorePBest>
0.00629587 

> <ConfTolerance>
0.279444 

> <RosettaParamsInstructions>
M  ROOT 3
M  POLY_N_BB 3
M  POLY_CA_BB 4
M  POLY_C_BB 2
M  POLY_O_BB 5
M  POLY_IGNORE 9 10 11 12 13 14 15 16 17 18 
M  POLY_UPPER 6
M  POLY_LOWER 8
M  POLY_CHG 0
M  POLY_PROPERTIES ALPHA_AA L_AA PROTEIN AROMATIC POLYMER 
M  END

$$$$



 32 32  0  0  0  0  0  0  0  0999 V2000
    0.1859    2.9347   -0.0199 H   0  0  0  1  0  0  0  0  0  0  0  0
    0.0866    0.8898    0.4008 C   0  0  0  1  0  0  0  0  0  0  0  0
   -1.4105    2.2268   -1.0838 N   0  0  0  1  0  0  0  0  0  0  0  0
   -0.5975    2.2208    0.1271 C   0  0  0  1  0  0  0  0  0  0  0  0
   -0.3298   -0.1560   -0.0956 O   0  0  0  1  0  0  0  0  0  0  0  0
    1.1526    0.9396    1.2047 N   0  0  0  1  0  0  0  0  0  0  0  0
   -2.3858    2.1838   -0.9989 H   0  0  0  1  0  0  0  0  0  0  0  0
   -0.8717    2.2889   -2.3049 C   0  0  0  1  0  0  0  0  0  0  0  0
    1.9856   -0.2010    1.5554 C   0  0  0  1  0  0  0  0  0  0  0  0
   -1.8739    2.4335   -3.4478 C   0  0  0  1  0  0  0  0  0  0  0  0
    0.3317    2.1655   -2.5289 O   0  0  0  1  0  0  0  0  0  0  0  0
    1.3915    1.8098    1.5870 H   0  0  0  1  0  0  0  0  0  0  0  0
    1.4721   -1.1071    1.3101 H   0  0  0  1  0  0  0  0  0  0  0  0
    2.1927   -0.1817    2.6050 H   0  0  0  1  0  0  0  0  0  0  0  0
    2.9043   -0.1528    1.0091 H   0  0  0  1  0  0  0  0  0  0  0  0
   -1.9961    1.4899   -3.9373 H   0  0  0  1  0  0  0  0  0  0  0  0
   -1.5119    3.1551   -4.1502 H   0  0  0  1  0  0  0  0  0  0  0  0
   -2.8160    2.7570   -3.0570 H   0  0  0  1  0  0  0  0  0  0  0  0
   -3.8565    7.6941    0.4672 F   0  0  0  1  0  0  0  0  0  0  0  0
   -3.2949    6.4853    0.6610 C   0  0  0  1  0  0  0  0  0  0  0  0
   -2.0390    6.4357    1.2455 C   0  0  0  1  0  0  0  0  0  0  0  0
   -1.4232    5.2167    1.4581 C   0  0  0  1  0  0  0  0  0  0  0  0
   -2.0640    4.0435    1.0918 C   0  0  0  1  0  0  0  0  0  0  0  0
   -3.3163    4.0927    0.5090 C   0  0  0  1  0  0  0  0  0  0  0  0
   -3.9338    5.3154    0.2958 C   0  0  0  1  0  0  0  0  0  0  0  0
   -1.3943    2.7106    1.3292 C   0  0  0  1  0  0  0  0  0  0  0  0
   -1.5599    7.3158    1.5240 H   0  0  0  1  0  0  0  0  0  0  0  0
   -0.4792    5.1798    1.8930 H   0  0  0  1  0  0  0  0  0  0  0  0
   -3.7954    3.2126    0.2305 H   0  0  0  1  0  0  0  0  0  0  0  0
   -4.8778    5.3524   -0.1391 H   0  0  0  1  0  0  0  0  0  0  0  0
   -0.7295    2.8071    2.1621 H   0  0  0  1  0  0  0  0  0  0  0  0
   -2.1483    1.9862    1.5561 H   0  0  0  1  0  0  0  0  0  0  0  0
  1  4  1  0  0  0  0
  2  4  1  0  0  0  0
  2  5  2  0  0  0  0
  2  6  1  0  0  0  0
  3  4  1  0  0  0  0
  3  7  1  0  0  0  0
  3  8  1  0  0  0  0
  4 26  1  0  0  0  0
  6  9  1  0  0  0  0
  6 12  1  0  0  0  0
  8 10  1  0  0  0  0
  8 11  2  0  0  0  0
  9 13  1  0  0  0  0
  9 14  1  0  0  0  0
  9 15  1  0  0  0  0
 10 16  1  0  0  0  0
 10 17  1  0  0  0  0
 10 18  1  0  0  0  0
 19 20  1  0  0  0  0
 20 21  4  0  0  0  0
 20 25  4  0  0  0  0
 21 22  4  0  0  0  0
 21 27  1  0  0  0  0
 22 23  4  0  0  0  0
 22 28  1  0  0  0  0
 23 24  4  0  0  0  0
 23 26  1  0  0  0  0
 24 25  4  0  0  0  0
 24 29  1  0  0  0  0
 25 30  1  0  0  0  0
 26 31  1  0  0  0  0
 26 32  1  0  0  0  0
M  END
> <BCLConfClusterSize>
1

> <ConfClashScore>
0 

> <ConfOneFourInteractionScore>
-0.985807 

> <ConfScore>
-0.168795 

> <ConfScorePBest>
0.00626739 

> <ConfTolerance>
0.255005 

> <RosettaParamsInstructions>
M  ROOT 3
M  POLY_N_BB 3
M  POLY_CA_BB 4
M  POLY_C_BB 2
M  POLY_O_BB 5
M  POLY_IGNORE 9 10 11 12 13 14 15 16 17 18 
M  POLY_UPPER 6
M  POLY_LOWER 8
M  POLY_CHG 0
M  POLY_PROPERTIES ALPHA_AA L_AA PROTEIN AROMATIC POLYMER 
M  END

$$$$



 32 32  0  0  0  0  0  0  0  0999 V2000
    0.4633    2.9051    0.3079 H   0  0  0  1  0  0  0  0  0  0  0  0
   -0.0613    0.8487    0.3646 C   0  0  0  1  0  0  0  0  0  0  0  0
   -1.0350    2.5642   -1.0884 N   0  0  0  1  0  0  0  0  0  0  0  0
   -0.4257    2.3176    0.2100 C   0  0  0  1  0  0  0  0  0  0  0  0
    0.4373    0.4208    1.4045 O   0  0  0  1  0  0  0  0  0  0  0  0
   -0.3192    0.0690   -0.6972 N   0  0  0  1  0  0  0  0  0  0  0  0
   -1.9695    2.3049   -1.2292 H   0  0  0  1  0  0  0  0  0  0  0  0
   -0.3646    3.1319   -2.0951 C   0  0  0  1  0  0  0  0  0  0  0  0
   -0.0076   -1.3519   -0.6533 C   0  0  0  1  0  0  0  0  0  0  0  0
   -1.1269    3.2712   -3.3984 C   0  0  0  1  0  0  0  0  0  0  0  0
    0.7952    3.5220   -1.9903 O   0  0  0  1  0  0  0  0  0  0  0  0
   -0.7182    0.4574   -1.5037 H   0  0  0  1  0  0  0  0  0  0  0  0
   -0.7199   -1.8921   -1.2413 H   0  0  0  1  0  0  0  0  0  0  0  0
   -0.0483   -1.6946    0.3595 H   0  0  0  1  0  0  0  0  0  0  0  0
    0.9746   -1.5137   -1.0459 H   0  0  0  1  0  0  0  0  0  0  0  0
   -2.0577    2.7485   -3.3254 H   0  0  0  1  0  0  0  0  0  0  0  0
   -0.5471    2.8568   -4.1965 H   0  0  0  1  0  0  0  0  0  0  0  0
   -1.3139    4.3066   -3.5930 H   0  0  0  1  0  0  0  0  0  0  0  0
   -3.8843    7.6784    0.4533 F   0  0  0  1  0  0  0  0  0  0  0  0
   -3.2892    6.4887    0.6639 C   0  0  0  1  0  0  0  0  0  0  0  0
   -2.0333    6.4356    1.2481 C   0  0  0  1  0  0  0  0  0  0  0  0
   -1.4202    5.2151    1.4594 C   0  0  0  1  0  0  0  0  0  0  0  0
   -2.0637    4.0436    1.0920 C   0  0  0  1  0  0  0  0  0  0  0  0
   -3.3160    4.0963    0.5094 C   0  0  0  1  0  0  0  0  0  0  0  0
   -3.9307    5.3205    0.2975 C   0  0  0  1  0  0  0  0  0  0  0  0
   -1.3968    2.7090    1.3279 C   0  0  0  1  0  0  0  0  0  0  0  0
   -1.5523    7.3143    1.5275 H   0  0  0  1  0  0  0  0  0  0  0  0
   -0.4762    5.1756    1.8941 H   0  0  0  1  0  0  0  0  0  0  0  0
   -3.7969    3.2175    0.2300 H   0  0  0  1  0  0  0  0  0  0  0  0
   -4.8747    5.3600   -0.1371 H   0  0  0  1  0  0  0  0  0  0  0  0
   -0.8543    2.7575    2.2489 H   0  0  0  1  0  0  0  0  0  0  0  0
   -2.1550    1.9573    1.3991 H   0  0  0  1  0  0  0  0  0  0  0  0
  1  4  1  0  0  0  0
  2  4  1  0  0  0  0
  2  5  2  0  0  0  0
  2  6  1  0  0  0  0
  3  4  1  0  0  0  0
  3  7  1  0  0  0  0
  3  8  1  0  0  0  0
  4 26  1  0  0  0  0
  6  9  1  0  0  0  0
  6 12  1  0  0  0  0
  8 10  1  0  0  0  0
  8 11  2  0  0  0  0
  9 13  1  0  0  0  0
  9 14  1  0  0  0  0
  9 15  1  0  0  0  0
 10 16  1  0  0  0  0
 10 17  1  0  0  0  0
 10 18  1  0  0  0  0
 19 20  1  0  0  0  0
 20 21  4  0  0  0  0
 20 25  4  0  0  0  0
 21 22  4  0  0  0  0
 21 27  1  0  0  0  0
 22 23  4  0  0  0  0
 22 28  1  0  0  0  0
 23 24  4  0  0  0  0
 23 26  1  0  0  0  0
 24 25  4  0  0  0  0
 24 29  1  0  0  0  0
 25 30  1  0  0  0  0
 26 31  1  0  0  0  0
 26 32  1  0  0  0  0
M  END
> <BCLConfClusterSize>
1

> <ConfClashScore>
0 

> <ConfOneFourInteractionScore>
-0.928132 

> <ConfScore>
-0.167684 

> <ConfScorePBest>
0.00623891 

> <ConfTolerance>
0.29587 

> <RosettaParamsInstructions>
M  ROOT 3
M  POLY_N_BB 3
M  POLY_CA_BB 4
M  POLY_C_BB 2
M  POLY_O_BB 5
M  POLY_IGNORE 9 10 11 12 13 14 15 16 17 18 
M  POLY_UPPER 6
M  POLY_LOWER 8
M  POLY_CHG 0
M  POLY_PROPERTIES ALPHA_AA L_AA PROTEIN AROMATIC POLYMER 
M  END

$$$$



 32 32  0  0  0  0  0  0  0  0999 V2000
   -0.1945    2.7842   -0.4345 H   0  0  0  1  0  0  0  0  0  0  0  0
   -0.0546    0.8071    0.3528 C   0  0  0  1  0  0  0  0  0  0  0  0
   -1.9533    1.7422   -0.8353 N   0  0  0  1  0  0  0  0  0  0  0  0
   -0.8418    2.0809    0.0463 C   0  0  0  1  0  0  0  0  0  0  0  0
    1.1473    0.8463    0.6129 O   0  0  0  1  0  0  0  0  0  0  0  0
   -0.7579   -0.3358    0.3179 N   0  0  0  1  0  0  0  0  0  0  0  0
   -2.7474    1.3371   -0.4282 H   0  0  0  1  0  0  0  0  0  0  0  0
   -1.9705    1.9427   -2.1561 C   0  0  0  1  0  0  0  0  0  0  0  0
   -0.1658   -1.6234    0.6486 C   0  0  0  1  0  0  0  0  0  0  0  0
   -3.2128    1.4605   -2.8795 C   0  0  0  1  0  0  0  0  0  0  0  0
   -1.0468    2.4823   -2.7638 O   0  0  0  1  0  0  0  0  0  0  0  0
   -1.7030   -0.3019    0.0609 H   0  0  0  1  0  0  0  0  0  0  0  0
   -0.3885   -1.8682    1.6661 H   0  0  0  1  0  0  0  0  0  0  0  0
    0.8950   -1.5719    0.5183 H   0  0  0  1  0  0  0  0  0  0  0  0
   -0.5686   -2.3769    0.0044 H   0  0  0  1  0  0  0  0  0  0  0  0
   -2.9823    0.5744   -3.4333 H   0  0  0  1  0  0  0  0  0  0  0  0
   -3.5527    2.2217   -3.5503 H   0  0  0  1  0  0  0  0  0  0  0  0
   -3.9800    1.2451   -2.1655 H   0  0  0  1  0  0  0  0  0  0  0  0
   -3.8843    7.6784    0.4533 F   0  0  0  1  0  0  0  0  0  0  0  0
   -3.2892    6.4887    0.6639 C   0  0  0  1  0  0  0  0  0  0  0  0
   -2.0333    6.4356    1.2481 C   0  0  0  1  0  0  0  0  0  0  0  0
   -1.4202    5.2151    1.4594 C   0  0  0  1  0  0  0  0  0  0  0  0
   -2.0637    4.0436    1.0920 C   0  0  0  1  0  0  0  0  0  0  0  0
   -3.3160    4.0963    0.5094 C   0  0  0  1  0  0  0  0  0  0  0  0
   -3.9307    5.3205    0.2975 C   0  0  0  1  0  0  0  0  0  0  0  0
   -1.3968    2.7090    1.3279 C   0  0  0  1  0  0  0  0  0  0  0  0
   -1.5523    7.3143    1.5275 H   0  0  0  1  0  0  0  0  0  0  0  0
   -0.4762    5.1756    1.8941 H   0  0  0  1  0  0  0  0  0  0  0  0
   -3.7969    3.2175    0.2300 H   0  0  0  1  0  0  0  0  0  0  0  0
   -4.8747    5.3600   -0.1371 H   0  0  0  1  0  0  0  0  0  0  0  0
   -0.5894    2.8487    2.0161 H   0  0  0  1  0  0  0  0  0  0  0  0
   -2.1156    2.0393    1.7518 H   0  0  0  1  0  0  0  0  0  0  0  0
  1  4  1  0  0  0  0
  2  4  1  0  0  0  0
  2  5  2  0  0  0  0
  2  6  1  0  0  0  0
  3  4  1  0  0  0  0
  3  7  1  0  0  0  0
  3  8  1  0  0  0  0
  4 26  1  0  0  0  0
  6  9  1  0  0  0  0
  6 12  1  0  0  0  0
  8 10  1  0  0  0  0
  8 11  2  0  0  0  0
  9 13  1  0  0  0  0
  9 14  1  0  0  0  0
  9 15  1  0  0  0  0
 10 16  1  0  0  0  0
 10 17  1  0  0  0  0
 10 18  1  0  0  0  0
 19 20  1  0  0  0  0
 20 21  4  0  0  0  0
 20 25  4  0  0  0  0
 21 22  4  0  0  0  0
 21 27  1  0  0  0  0
 22 23  4  0  0  0  0
 22 28  1  0  0  0  0
 23 24  4  0  0  0  0
 23 26  1  0  0  0  0
 24 25  4  0  0  0  0
 24 29  1  0  0  0  0
 25 30  1  0  0  0  0
 26 31  1  0  0  0  0
 26 32  1  0  0  0  0
M  END
> <BCLConfClusterSize>
1

> <ConfClashScore>
0 

> <ConfOneFourInteractionScore>
-0.956443 

> <ConfScore>
-0.165065 

> <ConfScorePBest>
0.00621043 

> <ConfTolerance>
0.270779 

> <RosettaParamsInstructions>
M  ROOT 3
M  POLY_N_BB 3
M  POLY_CA_BB 4
M  POLY_C_BB 2
M  POLY_O_BB 5
M  POLY_IGNORE 9 10 11 12 13 14 15 16 17 18 
M  POLY_UPPER 6
M  POLY_LOWER 8
M  POLY_CHG 0
M  POLY_PROPERTIES ALPHA_AA L_AA PROTEIN AROMATIC POLYMER 
M  END

$$$$



 32 32  0  0  0  0  0  0  0  0999 V2000
    0.6121    3.3807    1.2927 H   0  0  0  1  0  0  0  0  0  0  0  0
    0.6725    1.2808    0.9846 C   0  0  0  1  0  0  0  0  0  0  0  0
    0.0467    2.9184   -0.6474 N   0  0  0  1  0  0  0  0  0  0  0  0
    0.0238    2.6472    0.7822 C   0  0  0  1  0  0  0  0  0  0  0  0
    0.7025    0.4479    0.0795 O   0  0  0  1  0  0  0  0  0  0  0  0
    1.1978    1.0588    2.1998 N   0  0  0  1  0  0  0  0  0  0  0  0
   -0.4255    2.3226   -1.2658 H   0  0  0  1  0  0  0  0  0  0  0  0
    0.7158    3.9870   -1.1226 C   0  0  0  1  0  0  0  0  0  0  0  0
    1.8639   -0.1888    2.5428 C   0  0  0  1  0  0  0  0  0  0  0  0
    0.6335    4.1369   -2.6292 C   0  0  0  1  0  0  0  0  0  0  0  0
    1.3440    4.7852   -0.4284 O   0  0  0  1  0  0  0  0  0  0  0  0
    1.1304    1.7614    2.8797 H   0  0  0  1  0  0  0  0  0  0  0  0
    2.4887   -0.4953    1.7299 H   0  0  0  1  0  0  0  0  0  0  0  0
    1.1302   -0.9440    2.7328 H   0  0  0  1  0  0  0  0  0  0  0  0
    2.4627   -0.0443    3.4177 H   0  0  0  1  0  0  0  0  0  0  0  0
   -0.3472    3.8677   -2.9619 H   0  0  0  1  0  0  0  0  0  0  0  0
    1.3551    3.4959   -3.0911 H   0  0  0  1  0  0  0  0  0  0  0  0
    0.8345    5.1530   -2.8978 H   0  0  0  1  0  0  0  0  0  0  0  0
   -3.8843    7.6784    0.4533 F   0  0  0  1  0  0  0  0  0  0  0  0
   -3.2892    6.4887    0.6639 C   0  0  0  1  0  0  0  0  0  0  0  0
   -2.0333    6.4356    1.2481 C   0  0  0  1  0  0  0  0  0  0  0  0
   -1.4202    5.2151    1.4594 C   0  0  0  1  0  0  0  0  0  0  0  0
   -2.0637    4.0436    1.0920 C   0  0  0  1  0  0  0  0  0  0  0  0
   -3.3160    4.0963    0.5094 C   0  0  0  1  0  0  0  0  0  0  0  0
   -3.9307    5.3205    0.2975 C   0  0  0  1  0  0  0  0  0  0  0  0
   -1.3968    2.7090    1.3279 C   0  0  0  1  0  0  0  0  0  0  0  0
   -1.5523    7.3143    1.5275 H   0  0  0  1  0  0  0  0  0  0  0  0
   -0.4762    5.1756    1.8941 H   0  0  0  1  0  0  0  0  0  0  0  0
   -3.7969    3.2175    0.2300 H   0  0  0  1  0  0  0  0  0  0  0  0
   -4.8747    5.3600   -0.1371 H   0  0  0  1  0  0  0  0  0  0  0  0
   -1.3652    2.5257    2.3816 H   0  0  0  1  0  0  0  0  0  0  0  0
   -1.9785    1.9485    0.8504 H   0  0  0  1  0  0  0  0  0  0  0  0
  1  4  1  0  0  0  0
  2  4  1  0  0  0  0
  2  5  2  0  0  0  0
  2  6  1  0  0  0  0
  3  4  1  0  0  0  0
  3  7  1  0  0  0  0
  3  8  1  0  0  0  0
  4 26  1  0  0  0  0
  6  9  1  0  0  0  0
  6 12  1  0  0  0  0
  8 10  1  0  0  0  0
  8 11  2  0  0  0  0
  9 13  1  0  0  0  0
  9 14  1  0  0  0  0
  9 15  1  0  0  0  0
 10 16  1  0  0  0  0
 10 17  1  0  0  0  0
 10 18  1  0  0  0  0
 19 20  1  0  0  0  0
 20 21  4  0  0  0  0
 20 25  4  0  0  0  0
 21 22  4  0  0  0  0
 21 27  1  0  0  0  0
 22 23  4  0  0  0  0
 22 28  1  0  0  0  0
 23 24  4  0  0  0  0
 23 26  1  0  0  0  0
 24 25  4  0  0  0  0
 24 29  1  0  0  0  0
 25 30  1  0  0  0  0
 26 31  1  0  0  0  0
 26 32  1  0  0  0  0
M  END
> <BCLConfClusterSize>
1

> <ConfClashScore>
0 

> <ConfOneFourInteractionScore>
-0.992391 

> <ConfScore>
-0.157543 

> <ConfScorePBest>
0.00618195 

> <ConfTolerance>
0.26157 

> <RosettaParamsInstructions>
M  ROOT 3
M  POLY_N_BB 3
M  POLY_CA_BB 4
M  POLY_C_BB 2
M  POLY_O_BB 5
M  POLY_IGNORE 9 10 11 12 13 14 15 16 17 18 
M  POLY_UPPER 6
M  POLY_LOWER 8
M  POLY_CHG 0
M  POLY_PROPERTIES ALPHA_AA L_AA PROTEIN AROMATIC POLYMER 
M  END

$$$$



 32 32  0  0  0  0  0  0  0  0999 V2000
   -2.9581    1.9393    2.5010 H   0  0  0  1  0  0  0  0  0  0  0  0
   -1.3672    0.5848    2.6801 C   0  0  0  1  0  0  0  0  0  0  0  0
   -1.5970    2.7668    3.8055 N   0  0  0  1  0  0  0  0  0  0  0  0
   -1.8936    2.0079    2.5854 C   0  0  0  1  0  0  0  0  0  0  0  0
   -0.1594    0.3525    2.6506 O   0  0  0  1  0  0  0  0  0  0  0  0
   -2.3046   -0.3637    2.7131 N   0  0  0  1  0  0  0  0  0  0  0  0
   -0.6613    2.8154    4.0926 H   0  0  0  1  0  0  0  0  0  0  0  0
   -2.5155    3.4030    4.5619 C   0  0  0  1  0  0  0  0  0  0  0  0
   -1.9315   -1.7644    2.5844 C   0  0  0  1  0  0  0  0  0  0  0  0
   -2.0664    3.9877    5.8869 C   0  0  0  1  0  0  0  0  0  0  0  0
   -3.6815    3.5067    4.1904 O   0  0  0  1  0  0  0  0  0  0  0  0
   -3.2464   -0.1167    2.8243 H   0  0  0  1  0  0  0  0  0  0  0  0
   -1.7783   -1.9999    1.5520 H   0  0  0  1  0  0  0  0  0  0  0  0
   -2.7140   -2.3792    2.9779 H   0  0  0  1  0  0  0  0  0  0  0  0
   -1.0281   -1.9442    3.1289 H   0  0  0  1  0  0  0  0  0  0  0  0
   -1.8758    3.1956    6.5805 H   0  0  0  1  0  0  0  0  0  0  0  0
   -2.8347    4.6237    6.2744 H   0  0  0  1  0  0  0  0  0  0  0  0
   -1.1719    4.5564    5.7406 H   0  0  0  1  0  0  0  0  0  0  0  0
   -3.8843    7.6784    0.4533 F   0  0  0  1  0  0  0  0  0  0  0  0
   -3.2892    6.4887    0.6639 C   0  0  0  1  0  0  0  0  0  0  0  0
   -2.0333    6.4356    1.2481 C   0  0  0  1  0  0  0  0  0  0  0  0
   -1.4202    5.2151    1.4594 C   0  0  0  1  0  0  0  0  0  0  0  0
   -2.0637    4.0436    1.0920 C   0  0  0  1  0  0  0  0  0  0  0  0
   -3.3160    4.0963    0.5094 C   0  0  0  1  0  0  0  0  0  0  0  0
   -3.9307    5.3205    0.2975 C   0  0  0  1  0  0  0  0  0  0  0  0
   -1.3968    2.7090    1.3279 C   0  0  0  1  0  0  0  0  0  0  0  0
   -1.5523    7.3143    1.5275 H   0  0  0  1  0  0  0  0  0  0  0  0
   -0.4762    5.1756    1.8941 H   0  0  0  1  0  0  0  0  0  0  0  0
   -3.7969    3.2175    0.2300 H   0  0  0  1  0  0  0  0  0  0  0  0
   -4.8747    5.3600   -0.1371 H   0  0  0  1  0  0  0  0  0  0  0  0
   -1.5915    2.0775    0.4864 H   0  0  0  1  0  0  0  0  0  0  0  0
   -0.3425    2.8667    1.4198 H   0  0  0  1  0  0  0  0  0  0  0  0
  1  4  1  0  0  0  0
  2  4  1  0  0  0  0
  2  5  2  0  0  0  0
  2  6  1  0  0  0  0
  3  4  1  0  0  0  0
  3  7  1  0  0  0  0
  3  8  1  0  0  0  0
  4 26  1  0  0  0  0
  6  9  1  0  0  0  0
  6 12  1  0  0  0  0
  8 10  1  0  0  0  0
  8 11  2  0  0  0  0
  9 13  1  0  0  0  0
  9 14  1  0  0  0  0
  9 15  1  0  0  0  0
 10 16  1  0  0  0  0
 10 17  1  0  0  0  0
 10 18  1  0  0  0  0
 19 20  1  0  0  0  0
 20 21  4  0  0  0  0
 20 25  4  0  0  0  0
 21 22  4  0  0  0  0
 21 27  1  0  0  0  0
 22 23  4  0  0  0  0
 22 28  1  0  0  0  0
 23 24  4  0  0  0  0
 23 26  1  0  0  0  0
 24 25  4  0  0  0  0
 24 29  1  0  0  0  0
 25 30  1  0  0  0  0
 26 31  1  0  0  0  0
 26 32  1  0  0  0  0
M  END
> <BCLConfClusterSize>
1

> <ConfClashScore>
0 

> <ConfOneFourInteractionScore>
-0.97615 

> <ConfScore>
-0.153503 

> <ConfScorePBest>
0.00615347 

> <ConfTolerance>
0.279961 

> <RosettaParamsInstructions>
M  ROOT 3
M  POLY_N_BB 3
M  POLY_CA_BB 4
M  POLY_C_BB 2
M  POLY_O_BB 5
M  POLY_IGNORE 9 10 11 12 13 14 15 16 17 18 
M  POLY_UPPER 6
M  POLY_LOWER 8
M  POLY_CHG 0
M  POLY_PROPERTIES ALPHA_AA L_AA PROTEIN AROMATIC POLYMER 
M  END

$$$$



 32 32  0  0  0  0  0  0  0  0999 V2000
    0.2300    3.1811    0.0348 H   0  0  0  1  0  0  0  0  0  0  0  0
    0.3526    1.1144    0.5075 C   0  0  0  1  0  0  0  0  0  0  0  0
   -1.1731    2.1100   -1.0593 N   0  0  0  1  0  0  0  0  0  0  0  0
   -0.4475    2.3651    0.1761 C   0  0  0  1  0  0  0  0  0  0  0  0
   -0.1247   -0.0053    0.3302 O   0  0  0  1  0  0  0  0  0  0  0  0
    1.5925    1.2700    0.9980 N   0  0  0  1  0  0  0  0  0  0  0  0
   -2.1374    2.2829   -1.0858 H   0  0  0  1  0  0  0  0  0  0  0  0
   -0.5714    1.6489   -2.1569 C   0  0  0  1  0  0  0  0  0  0  0  0
    2.3601    0.1098    1.4256 C   0  0  0  1  0  0  0  0  0  0  0  0
   -1.4722    1.4194   -3.3548 C   0  0  0  1  0  0  0  0  0  0  0  0
    0.6338    1.4192   -2.2124 O   0  0  0  1  0  0  0  0  0  0  0  0
    1.9816    2.1667    1.0684 H   0  0  0  1  0  0  0  0  0  0  0  0
    1.8005   -0.4404    2.1529 H   0  0  0  1  0  0  0  0  0  0  0  0
    3.2843    0.4332    1.8569 H   0  0  0  1  0  0  0  0  0  0  0  0
    2.5597   -0.5164    0.5812 H   0  0  0  1  0  0  0  0  0  0  0  0
   -2.4476    1.8073   -3.1478 H   0  0  0  1  0  0  0  0  0  0  0  0
   -1.5406    0.3702   -3.5534 H   0  0  0  1  0  0  0  0  0  0  0  0
   -1.0639    1.9186   -4.2086 H   0  0  0  1  0  0  0  0  0  0  0  0
   -3.8843    7.6784    0.4533 F   0  0  0  1  0  0  0  0  0  0  0  0
   -3.2892    6.4887    0.6639 C   0  0  0  1  0  0  0  0  0  0  0  0
   -2.0333    6.4356    1.2481 C   0  0  0  1  0  0  0  0  0  0  0  0
   -1.4202    5.2151    1.4594 C   0  0  0  1  0  0  0  0  0  0  0  0
   -2.0637    4.0436    1.0920 C   0  0  0  1  0  0  0  0  0  0  0  0
   -3.3160    4.0963    0.5094 C   0  0  0  1  0  0  0  0  0  0  0  0
   -3.9307    5.3205    0.2975 C   0  0  0  1  0  0  0  0  0  0  0  0
   -1.3968    2.7090    1.3279 C   0  0  0  1  0  0  0  0  0  0  0  0
   -1.5523    7.3143    1.5275 H   0  0  0  1  0  0  0  0  0  0  0  0
   -0.4762    5.1756    1.8941 H   0  0  0  1  0  0  0  0  0  0  0  0
   -3.7969    3.2175    0.2300 H   0  0  0  1  0  0  0  0  0  0  0  0
   -4.8747    5.3600   -0.1371 H   0  0  0  1  0  0  0  0  0  0  0  0
   -0.8400    2.7516    2.2406 H   0  0  0  1  0  0  0  0  0  0  0  0
   -2.1474    1.9501    1.4025 H   0  0  0  1  0  0  0  0  0  0  0  0
  1  4  1  0  0  0  0
  2  4  1  0  0  0  0
  2  5  2  0  0  0  0
  2  6  1  0  0  0  0
  3  4  1  0  0  0  0
  3  7  1  0  0  0  0
  3  8  1  0  0  0  0
  4 26  1  0  0  0  0
  6  9  1  0  0  0  0
  6 12  1  0  0  0  0
  8 10  1  0  0  0  0
  8 11  2  0  0  0  0
  9 13  1  0  0  0  0
  9 14  1  0  0  0  0
  9 15  1  0  0  0  0
 10 16  1  0  0  0  0
 10 17  1  0  0  0  0
 10 18  1  0  0  0  0
 19 20  1  0  0  0  0
 20 21  4  0  0  0  0
 20 25  4  0  0  0  0
 21 22  4  0  0  0  0
 21 27  1  0  0  0  0
 22 23  4  0  0  0  0
 22 28  1  0  0  0  0
 23 24  4  0  0  0  0
 23 26  1  0  0  0  0
 24 25  4  0  0  0  0
 24 29  1  0  0  0  0
 25 30  1  0  0  0  0
 26 31  1  0  0  0  0
 26 32  1  0  0  0  0
M  END
> <BCLConfClusterSize>
1

> <ConfClashScore>
0 

> <ConfOneFourInteractionScore>
-0.985807 

> <ConfScore>
-0.152718 

> <ConfScorePBest>
0.00612499 

> <ConfTolerance>
0.215067 

> <RosettaParamsInstructions>
M  ROOT 3
M  POLY_N_BB 3
M  POLY_CA_BB 4
M  POLY_C_BB 2
M  POLY_O_BB 5
M  POLY_IGNORE 9 10 11 12 13 14 15 16 17 18 
M  POLY_UPPER 6
M  POLY_LOWER 8
M  POLY_CHG 0
M  POLY_PROPERTIES ALPHA_AA L_AA PROTEIN AROMATIC POLYMER 
M  END

$$$$



 32 32  0  0  0  0  0  0  0  0999 V2000
   -0.0396    2.9892   -0.2453 H   0  0  0  1  0  0  0  0  0  0  0  0
    0.2882    1.0477    0.4430 C   0  0  0  1  0  0  0  0  0  0  0  0
   -1.5800    1.8698   -0.9826 N   0  0  0  1  0  0  0  0  0  0  0  0
   -0.6549    2.1832    0.0962 C   0  0  0  1  0  0  0  0  0  0  0  0
    1.0743    1.1387    1.3715 O   0  0  0  1  0  0  0  0  0  0  0  0
    0.1961   -0.0443   -0.3324 N   0  0  0  1  0  0  0  0  0  0  0  0
   -2.5296    1.7510   -0.7718 H   0  0  0  1  0  0  0  0  0  0  0  0
   -1.1762    1.7374   -2.2612 C   0  0  0  1  0  0  0  0  0  0  0  0
    1.2045   -1.0936   -0.3204 C   0  0  0  1  0  0  0  0  0  0  0  0
   -2.3228    1.5891   -3.2531 C   0  0  0  1  0  0  0  0  0  0  0  0
   -0.0018    1.7323   -2.6277 O   0  0  0  1  0  0  0  0  0  0  0  0
   -0.5770   -0.1382   -0.9272 H   0  0  0  1  0  0  0  0  0  0  0  0
    0.8432   -1.9424   -0.8625 H   0  0  0  1  0  0  0  0  0  0  0  0
    1.4111   -1.3777    0.6903 H   0  0  0  1  0  0  0  0  0  0  0  0
    2.1006   -0.7320   -0.7800 H   0  0  0  1  0  0  0  0  0  0  0  0
   -2.9202    0.7430   -2.9846 H   0  0  0  1  0  0  0  0  0  0  0  0
   -1.9269    1.4481   -4.2370 H   0  0  0  1  0  0  0  0  0  0  0  0
   -2.9267    2.4722   -3.2343 H   0  0  0  1  0  0  0  0  0  0  0  0
   -3.8843    7.6784    0.4533 F   0  0  0  1  0  0  0  0  0  0  0  0
   -3.2892    6.4887    0.6639 C   0  0  0  1  0  0  0  0  0  0  0  0
   -2.0333    6.4356    1.2481 C   0  0  0  1  0  0  0  0  0  0  0  0
   -1.4202    5.2151    1.4594 C   0  0  0  1  0  0  0  0  0  0  0  0
   -2.0637    4.0436    1.0920 C   0  0  0  1  0  0  0  0  0  0  0  0
   -3.3160    4.0963    0.5094 C   0  0  0  1  0  0  0  0  0  0  0  0
   -3.9307    5.3205    0.2975 C   0  0  0  1  0  0  0  0  0  0  0  0
   -1.3968    2.7090    1.3279 C   0  0  0  1  0  0  0  0  0  0  0  0
   -1.5523    7.3143    1.5275 H   0  0  0  1  0  0  0  0  0  0  0  0
   -0.4762    5.1756    1.8941 H   0  0  0  1  0  0  0  0  0  0  0  0
   -3.7969    3.2175    0.2300 H   0  0  0  1  0  0  0  0  0  0  0  0
   -4.8747    5.3600   -0.1371 H   0  0  0  1  0  0  0  0  0  0  0  0
   -0.6949    2.8159    2.1284 H   0  0  0  1  0  0  0  0  0  0  0  0
   -2.1470    1.9974    1.6032 H   0  0  0  1  0  0  0  0  0  0  0  0
  1  4  1  0  0  0  0
  2  4  1  0  0  0  0
  2  5  2  0  0  0  0
  2  6  1  0  0  0  0
  3  4  1  0  0  0  0
  3  7  1  0  0  0  0
  3  8  1  0  0  0  0
  4 26  1  0  0  0  0
  6  9  1  0  0  0  0
  6 12  1  0  0  0  0
  8 10  1  0  0  0  0
  8 11  2  0  0  0  0
  9 13  1  0  0  0  0
  9 14  1  0  0  0  0
  9 15  1  0  0  0  0
 10 16  1  0  0  0  0
 10 17  1  0  0  0  0
 10 18  1  0  0  0  0
 19 20  1  0  0  0  0
 20 21  4  0  0  0  0
 20 25  4  0  0  0  0
 21 22  4  0  0  0  0
 21 27  1  0  0  0  0
 22 23  4  0  0  0  0
 22 28  1  0  0  0  0
 23 24  4  0  0  0  0
 23 26  1  0  0  0  0
 24 25  4  0  0  0  0
 24 29  1  0  0  0  0
 25 30  1  0  0  0  0
 26 31  1  0  0  0  0
 26 32  1  0  0  0  0
M  END
> <BCLConfClusterSize>
1

> <ConfClashScore>
0 

> <ConfOneFourInteractionScore>
-0.960318 

> <ConfScore>
-0.151939 

> <ConfScorePBest>
0.00609651 

> <ConfTolerance>
0.308517 

> <RosettaParamsInstructions>
M  ROOT 3
M  POLY_N_BB 3
M  POLY_CA_BB 4
M  POLY_C_BB 2
M  POLY_O_BB 5
M  POLY_IGNORE 9 10 11 12 13 14 15 16 17 18 
M  POLY_UPPER 6
M  POLY_LOWER 8
M  POLY_CHG 0
M  POLY_PROPERTIES ALPHA_AA L_AA PROTEIN AROMATIC POLYMER 
M  END

$$$$



 32 32  0  0  0  0  0  0  0  0999 V2000
   -3.1864    1.6111    1.5797 H   0  0  0  1  0  0  0  0  0  0  0  0
   -1.7031    0.5266    2.6038 C   0  0  0  1  0  0  0  0  0  0  0  0
   -2.7755    2.5536    3.3648 N   0  0  0  1  0  0  0  0  0  0  0  0
   -2.3291    1.8403    2.1775 C   0  0  0  1  0  0  0  0  0  0  0  0
   -1.8511   -0.4970    1.9376 O   0  0  0  1  0  0  0  0  0  0  0  0
   -0.9941    0.5622    3.7325 N   0  0  0  1  0  0  0  0  0  0  0  0
   -2.2799    3.3482    3.6534 H   0  0  0  1  0  0  0  0  0  0  0  0
   -3.8712    2.1505    4.0974 C   0  0  0  1  0  0  0  0  0  0  0  0
   -0.3842   -0.6285    4.3052 C   0  0  0  1  0  0  0  0  0  0  0  0
   -4.1639    2.9495    5.3338 C   0  0  0  1  0  0  0  0  0  0  0  0
   -4.5346    1.1994    3.7296 O   0  0  0  1  0  0  0  0  0  0  0  0
   -0.8798    1.4200    4.1923 H   0  0  0  1  0  0  0  0  0  0  0  0
   -0.2050   -1.3455    3.5314 H   0  0  0  1  0  0  0  0  0  0  0  0
   -1.0425   -1.0498    5.0360 H   0  0  0  1  0  0  0  0  0  0  0  0
    0.5434   -0.3657    4.7693 H   0  0  0  1  0  0  0  0  0  0  0  0
   -4.3454    2.2860    6.1533 H   0  0  0  1  0  0  0  0  0  0  0  0
   -5.0291    3.5572    5.1689 H   0  0  0  1  0  0  0  0  0  0  0  0
   -3.3260    3.5751    5.5605 H   0  0  0  1  0  0  0  0  0  0  0  0
   -3.8843    7.6784    0.4533 F   0  0  0  1  0  0  0  0  0  0  0  0
   -3.2892    6.4887    0.6639 C   0  0  0  1  0  0  0  0  0  0  0  0
   -2.0333    6.4356    1.2481 C   0  0  0  1  0  0  0  0  0  0  0  0
   -1.4202    5.2151    1.4594 C   0  0  0  1  0  0  0  0  0  0  0  0
   -2.0637    4.0436    1.0920 C   0  0  0  1  0  0  0  0  0  0  0  0
   -3.3160    4.0963    0.5094 C   0  0  0  1  0  0  0  0  0  0  0  0
   -3.9307    5.3205    0.2975 C   0  0  0  1  0  0  0  0  0  0  0  0
   -1.3968    2.7090    1.3279 C   0  0  0  1  0  0  0  0  0  0  0  0
   -1.5523    7.3143    1.5275 H   0  0  0  1  0  0  0  0  0  0  0  0
   -0.4762    5.1756    1.8941 H   0  0  0  1  0  0  0  0  0  0  0  0
   -3.7969    3.2175    0.2300 H   0  0  0  1  0  0  0  0  0  0  0  0
   -4.8747    5.3600   -0.1371 H   0  0  0  1  0  0  0  0  0  0  0  0
   -1.2112    2.2282    0.3902 H   0  0  0  1  0  0  0  0  0  0  0  0
   -0.4709    2.8551    1.8438 H   0  0  0  1  0  0  0  0  0  0  0  0
  1  4  1  0  0  0  0
  2  4  1  0  0  0  0
  2  5  2  0  0  0  0
  2  6  1  0  0  0  0
  3  4  1  0  0  0  0
  3  7  1  0  0  0  0
  3  8  1  0  0  0  0
  4 26  1  0  0  0  0
  6  9  1  0  0  0  0
  6 12  1  0  0  0  0
  8 10  1  0  0  0  0
  8 11  2  0  0  0  0
  9 13  1  0  0  0  0
  9 14  1  0  0  0  0
  9 15  1  0  0  0  0
 10 16  1  0  0  0  0
 10 17  1  0  0  0  0
 10 18  1  0  0  0  0
 19 20  1  0  0  0  0
 20 21  4  0  0  0  0
 20 25  4  0  0  0  0
 21 22  4  0  0  0  0
 21 27  1  0  0  0  0
 22 23  4  0  0  0  0
 22 28  1  0  0  0  0
 23 24  4  0  0  0  0
 23 26  1  0  0  0  0
 24 25  4  0  0  0  0
 24 29  1  0  0  0  0
 25 30  1  0  0  0  0
 26 31  1  0  0  0  0
 26 32  1  0  0  0  0
M  END
> <BCLConfClusterSize>
1

> <ConfClashScore>
0 

> <ConfOneFourInteractionScore>
-0.94165 

> <ConfScore>
-0.151137 

> <ConfScorePBest>
0.00606803 

> <ConfTolerance>
0.290132 

> <RosettaParamsInstructions>
M  ROOT 3
M  POLY_N_BB 3
M  POLY_CA_BB 4
M  POLY_C_BB 2
M  POLY_O_BB 5
M  POLY_IGNORE 9 10 11 12 13 14 15 16 17 18 
M  POLY_UPPER 6
M  POLY_LOWER 8
M  POLY_CHG 0
M  POLY_PROPERTIES ALPHA_AA L_AA PROTEIN AROMATIC POLYMER 
M  END

$$$$



 32 32  0  0  0  0  0  0  0  0999 V2000
    0.5357    3.1835    0.7034 H   0  0  0  1  0  0  0  0  0  0  0  0
    0.4040    1.0771    0.9040 C   0  0  0  1  0  0  0  0  0  0  0  0
   -0.5253    2.3736   -0.8877 N   0  0  0  1  0  0  0  0  0  0  0  0
   -0.1928    2.4195    0.5284 C   0  0  0  1  0  0  0  0  0  0  0  0
    1.0694    0.9414    1.9175 O   0  0  0  1  0  0  0  0  0  0  0  0
    0.1509    0.0684    0.0551 N   0  0  0  1  0  0  0  0  0  0  0  0
   -1.4554    2.2110   -1.1501 H   0  0  0  1  0  0  0  0  0  0  0  0
    0.3934    2.5455   -1.8424 C   0  0  0  1  0  0  0  0  0  0  0  0
    0.8271   -1.2100    0.2171 C   0  0  0  1  0  0  0  0  0  0  0  0
   -0.0428    2.1844   -3.2490 C   0  0  0  1  0  0  0  0  0  0  0  0
    1.5258    2.9686   -1.6140 O   0  0  0  1  0  0  0  0  0  0  0  0
   -0.4905    0.1932   -0.6752 H   0  0  0  1  0  0  0  0  0  0  0  0
    0.4990   -1.6753    1.1231 H   0  0  0  1  0  0  0  0  0  0  0  0
    1.8844   -1.0510    0.2608 H   0  0  0  1  0  0  0  0  0  0  0  0
    0.5952   -1.8437   -0.6133 H   0  0  0  1  0  0  0  0  0  0  0  0
   -1.0083    2.6034   -3.4422 H   0  0  0  1  0  0  0  0  0  0  0  0
   -0.0906    1.1198   -3.3451 H   0  0  0  1  0  0  0  0  0  0  0  0
    0.6625    2.5752   -3.9523 H   0  0  0  1  0  0  0  0  0  0  0  0
   -3.9193    7.6607    0.4580 F   0  0  0  1  0  0  0  0  0  0  0  0
   -3.2861    6.4915    0.6723 C   0  0  0  1  0  0  0  0  0  0  0  0
   -2.0272    6.4345    1.2499 C   0  0  0  1  0  0  0  0  0  0  0  0
   -1.4116    5.2128    1.4467 C   0  0  0  1  0  0  0  0  0  0  0  0
   -2.0555    4.0441    1.0713 C   0  0  0  1  0  0  0  0  0  0  0  0
   -3.3106    4.1006    0.4954 C   0  0  0  1  0  0  0  0  0  0  0  0
   -3.9279    5.3260    0.2981 C   0  0  0  1  0  0  0  0  0  0  0  0
   -1.4188    2.7105    1.3840 C   0  0  0  1  0  0  0  0  0  0  0  0
   -1.5459    7.3112    1.5352 H   0  0  0  1  0  0  0  0  0  0  0  0
   -0.4655    5.1705    1.8764 H   0  0  0  1  0  0  0  0  0  0  0  0
   -3.7919    3.2239    0.2102 H   0  0  0  1  0  0  0  0  0  0  0  0
   -4.8741    5.3684   -0.1315 H   0  0  0  1  0  0  0  0  0  0  0  0
   -1.1249    2.7063    2.4128 H   0  0  0  1  0  0  0  0  0  0  0  0
   -2.1420    1.9401    1.2159 H   0  0  0  1  0  0  0  0  0  0  0  0
  1  4  1  0  0  0  0
  2  4  1  0  0  0  0
  2  5  2  0  0  0  0
  2  6  1  0  0  0  0
  3  4  1  0  0  0  0
  3  7  1  0  0  0  0
  3  8  1  0  0  0  0
  4 26  1  0  0  0  0
  6  9  1  0  0  0  0
  6 12  1  0  0  0  0
  8 10  1  0  0  0  0
  8 11  2  0  0  0  0
  9 13  1  0  0  0  0
  9 14  1  0  0  0  0
  9 15  1  0  0  0  0
 10 16  1  0  0  0  0
 10 17  1  0  0  0  0
 10 18  1  0  0  0  0
 19 20  1  0  0  0  0
 20 21  4  0  0  0  0
 20 25  4  0  0  0  0
 21 22  4  0  0  0  0
 21 27  1  0  0  0  0
 22 23  4  0  0  0  0
 22 28  1  0  0  0  0
 23 24  4  0  0  0  0
 23 26  1  0  0  0  0
 24 25  4  0  0  0  0
 24 29  1  0  0  0  0
 25 30  1  0  0  0  0
 26 31  1  0  0  0  0
 26 32  1  0  0  0  0
M  END
> <BCLConfClusterSize>
1

> <ConfClashScore>
0 

> <ConfOneFourInteractionScore>
-0.94165 

> <ConfScore>
-0.150138 

> <ConfScorePBest>
0.00603955 

> <ConfTolerance>
0.350143 

> <RosettaParamsInstructions>
M  ROOT 3
M  POLY_N_BB 3
M  POLY_CA_BB 4
M  POLY_C_BB 2
M  POLY_O_BB 5
M  POLY_IGNORE 9 10 11 12 13 14 15 16 17 18 
M  POLY_UPPER 6
M  POLY_LOWER 8
M  POLY_CHG 0
M  POLY_PROPERTIES ALPHA_AA L_AA PROTEIN AROMATIC POLYMER 
M  END

$$$$



 32 32  0  0  0  0  0  0  0  0999 V2000
   -2.4285    2.4253    3.1323 H   0  0  0  1  0  0  0  0  0  0  0  0
   -1.0749    0.8293    2.9515 C   0  0  0  1  0  0  0  0  0  0  0  0
   -0.5668    3.1583    3.6090 N   0  0  0  1  0  0  0  0  0  0  0  0
   -1.4189    2.2984    2.8013 C   0  0  0  1  0  0  0  0  0  0  0  0
    0.0649    0.4674    3.1928 O   0  0  0  1  0  0  0  0  0  0  0  0
   -2.0928   -0.0233    2.8030 N   0  0  0  1  0  0  0  0  0  0  0  0
    0.1991    3.5985    3.1845 H   0  0  0  1  0  0  0  0  0  0  0  0
   -0.7944    3.3707    4.9217 C   0  0  0  1  0  0  0  0  0  0  0  0
   -1.9144   -1.4661    2.8699 C   0  0  0  1  0  0  0  0  0  0  0  0
    0.1799    4.2501    5.6810 C   0  0  0  1  0  0  0  0  0  0  0  0
   -1.7632    2.8668    5.4884 O   0  0  0  1  0  0  0  0  0  0  0  0
   -2.9907    0.3354    2.6435 H   0  0  0  1  0  0  0  0  0  0  0  0
   -1.3989   -1.7208    3.7722 H   0  0  0  1  0  0  0  0  0  0  0  0
   -1.3417   -1.7938    2.0275 H   0  0  0  1  0  0  0  0  0  0  0  0
   -2.8715   -1.9444    2.8590 H   0  0  0  1  0  0  0  0  0  0  0  0
   -0.1775    4.4008    6.6783 H   0  0  0  1  0  0  0  0  0  0  0  0
    0.2667    5.1952    5.1869 H   0  0  0  1  0  0  0  0  0  0  0  0
    1.1380    3.7749    5.7138 H   0  0  0  1  0  0  0  0  0  0  0  0
   -3.8810    7.6803    0.4549 F   0  0  0  1  0  0  0  0  0  0  0  0
   -3.2894    6.4885    0.6638 C   0  0  0  1  0  0  0  0  0  0  0  0
   -2.0335    6.4309    1.2477 C   0  0  0  1  0  0  0  0  0  0  0  0
   -1.4240    5.2083    1.4572 C   0  0  0  1  0  0  0  0  0  0  0  0
   -2.0710    4.0392    1.0883 C   0  0  0  1  0  0  0  0  0  0  0  0
   -3.3233    4.0964    0.5060 C   0  0  0  1  0  0  0  0  0  0  0  0
   -3.9344    5.3227    0.2959 C   0  0  0  1  0  0  0  0  0  0  0  0
   -1.3626    2.7301    1.3451 C   0  0  0  1  0  0  0  0  0  0  0  0
   -1.5498    7.3078    1.5282 H   0  0  0  1  0  0  0  0  0  0  0  0
   -0.4801    5.1654    1.8917 H   0  0  0  1  0  0  0  0  0  0  0  0
   -3.8069    3.2194    0.2255 H   0  0  0  1  0  0  0  0  0  0  0  0
   -4.8783    5.3657   -0.1385 H   0  0  0  1  0  0  0  0  0  0  0  0
   -1.8220    1.9712    0.7469 H   0  0  0  1  0  0  0  0  0  0  0  0
   -0.3366    2.8367    1.0609 H   0  0  0  1  0  0  0  0  0  0  0  0
  1  4  1  0  0  0  0
  2  4  1  0  0  0  0
  2  5  2  0  0  0  0
  2  6  1  0  0  0  0
  3  4  1  0  0  0  0
  3  7  1  0  0  0  0
  3  8  1  0  0  0  0
  4 26  1  0  0  0  0
  6  9  1  0  0  0  0
  6 12  1  0  0  0  0
  8 10  1  0  0  0  0
  8 11  2  0  0  0  0
  9 13  1  0  0  0  0
  9 14  1  0  0  0  0
  9 15  1  0  0  0  0
 10 16  1  0  0  0  0
 10 17  1  0  0  0  0
 10 18  1  0  0  0  0
 19 20  1  0  0  0  0
 20 21  4  0  0  0  0
 20 25  4  0  0  0  0
 21 22  4  0  0  0  0
 21 27  1  0  0  0  0
 22 23  4  0  0  0  0
 22 28  1  0  0  0  0
 23 24  4  0  0  0  0
 23 26  1  0  0  0  0
 24 25  4  0  0  0  0
 24 29  1  0  0  0  0
 25 30  1  0  0  0  0
 26 31  1  0  0  0  0
 26 32  1  0  0  0  0
M  END
> <BCLConfClusterSize>
1

> <ConfClashScore>
0 

> <ConfOneFourInteractionScore>
-0.974251 

> <ConfScore>
-0.149839 

> <ConfScorePBest>
0.00601107 

> <ConfTolerance>
0.249619 

> <RosettaParamsInstructions>
M  ROOT 3
M  POLY_N_BB 3
M  POLY_CA_BB 4
M  POLY_C_BB 2
M  POLY_O_BB 5
M  POLY_IGNORE 9 10 11 12 13 14 15 16 17 18 
M  POLY_UPPER 6
M  POLY_LOWER 8
M  POLY_CHG 0
M  POLY_PROPERTIES ALPHA_AA L_AA PROTEIN AROMATIC POLYMER 
M  END

$$$$



 32 32  0  0  0  0  0  0  0  0999 V2000
   -2.2391    2.0136   -0.5074 H   0  0  0  1  0  0  0  0  0  0  0  0
   -0.2523    2.6415   -0.8979 C   0  0  0  1  0  0  0  0  0  0  0  0
   -0.8881    0.5856    0.1621 N   0  0  0  1  0  0  0  0  0  0  0  0
   -1.2893    1.9731   -0.0164 C   0  0  0  1  0  0  0  0  0  0  0  0
   -0.5791    3.3930   -1.8016 O   0  0  0  1  0  0  0  0  0  0  0  0
    1.0309    2.3500   -0.6150 N   0  0  0  1  0  0  0  0  0  0  0  0
   -0.7307    0.2519    1.0700 H   0  0  0  1  0  0  0  0  0  0  0  0
   -0.7252   -0.2572   -0.8787 C   0  0  0  1  0  0  0  0  0  0  0  0
    2.1064    2.9893   -1.3584 C   0  0  0  1  0  0  0  0  0  0  0  0
   -0.3132   -1.6814   -0.5824 C   0  0  0  1  0  0  0  0  0  0  0  0
   -0.9060    0.1196   -2.0359 O   0  0  0  1  0  0  0  0  0  0  0  0
    1.2414    1.7060    0.0930 H   0  0  0  1  0  0  0  0  0  0  0  0
    3.0494    2.6871   -0.9531 H   0  0  0  1  0  0  0  0  0  0  0  0
    2.0097    4.0522   -1.2819 H   0  0  0  1  0  0  0  0  0  0  0  0
    2.0507    2.6987   -2.3866 H   0  0  0  1  0  0  0  0  0  0  0  0
    0.5866   -1.6798   -0.0034 H   0  0  0  1  0  0  0  0  0  0  0  0
   -0.1446   -2.2023   -1.5017 H   0  0  0  1  0  0  0  0  0  0  0  0
   -1.0901   -2.1701   -0.0324 H   0  0  0  1  0  0  0  0  0  0  0  0
   -3.9116    7.6616    0.4395 F   0  0  0  1  0  0  0  0  0  0  0  0
   -3.2836    6.4921    0.6667 C   0  0  0  1  0  0  0  0  0  0  0  0
   -2.0277    6.4356    1.2507 C   0  0  0  1  0  0  0  0  0  0  0  0
   -1.4173    5.2135    1.4607 C   0  0  0  1  0  0  0  0  0  0  0  0
   -2.0634    4.0439    1.0921 C   0  0  0  1  0  0  0  0  0  0  0  0
   -3.3156    4.0999    0.5098 C   0  0  0  1  0  0  0  0  0  0  0  0
   -3.9277    5.3257    0.2993 C   0  0  0  1  0  0  0  0  0  0  0  0
   -1.3994    2.7076    1.3266 C   0  0  0  1  0  0  0  0  0  0  0  0
   -1.5447    7.3130    1.5309 H   0  0  0  1  0  0  0  0  0  0  0  0
   -0.4733    5.1715    1.8952 H   0  0  0  1  0  0  0  0  0  0  0  0
   -3.7986    3.2225    0.2296 H   0  0  0  1  0  0  0  0  0  0  0  0
   -4.8716    5.3677   -0.1352 H   0  0  0  1  0  0  0  0  0  0  0  0
   -0.4225    2.8576    1.7364 H   0  0  0  1  0  0  0  0  0  0  0  0
   -1.9871    2.1277    2.0073 H   0  0  0  1  0  0  0  0  0  0  0  0
  1  4  1  0  0  0  0
  2  4  1  0  0  0  0
  2  5  2  0  0  0  0
  2  6  1  0  0  0  0
  3  4  1  0  0  0  0
  3  7  1  0  0  0  0
  3  8  1  0  0  0  0
  4 26  1  0  0  0  0
  6  9  1  0  0  0  0
  6 12  1  0  0  0  0
  8 10  1  0  0  0  0
  8 11  2  0  0  0  0
  9 13  1  0  0  0  0
  9 14  1  0  0  0  0
  9 15  1  0  0  0  0
 10 16  1  0  0  0  0
 10 17  1  0  0  0  0
 10 18  1  0  0  0  0
 19 20  1  0  0  0  0
 20 21  4  0  0  0  0
 20 25  4  0  0  0  0
 21 22  4  0  0  0  0
 21 27  1  0  0  0  0
 22 23  4  0  0  0  0
 22 28  1  0  0  0  0
 23 24  4  0  0  0  0
 23 26  1  0  0  0  0
 24 25  4  0  0  0  0
 24 29  1  0  0  0  0
 25 30  1  0  0  0  0
 26 31  1  0  0  0  0
 26 32  1  0  0  0  0
M  END
> <BCLConfClusterSize>
1

> <ConfClashScore>
0 

> <ConfOneFourInteractionScore>
-0.948581 

> <ConfScore>
-0.146014 

> <ConfScorePBest>
0.00598259 

> <ConfTolerance>
0.324876 

> <RosettaParamsInstructions>
M  ROOT 3
M  POLY_N_BB 3
M  POLY_CA_BB 4
M  POLY_C_BB 2
M  POLY_O_BB 5
M  POLY_IGNORE 9 10 11 12 13 14 15 16 17 18 
M  POLY_UPPER 6
M  POLY_LOWER 8
M  POLY_CHG 0
M  POLY_PROPERTIES ALPHA_AA L_AA PROTEIN AROMATIC POLYMER 
M  END

$$$$



 32 32  0  0  0  0  0  0  0  0999 V2000
   -2.8494    1.6342    2.3417 H   0  0  0  1  0  0  0  0  0  0  0  0
   -1.0136    0.6870    2.7633 C   0  0  0  1  0  0  0  0  0  0  0  0
   -1.8743    2.6845    3.8121 N   0  0  0  1  0  0  0  0  0  0  0  0
   -1.8505    1.9520    2.5562 C   0  0  0  1  0  0  0  0  0  0  0  0
   -0.1075    0.6540    3.5796 O   0  0  0  1  0  0  0  0  0  0  0  0
   -1.3440   -0.3631    1.9951 N   0  0  0  1  0  0  0  0  0  0  0  0
   -1.6253    3.6323    3.8117 H   0  0  0  1  0  0  0  0  0  0  0  0
   -2.2238    2.1102    4.9667 C   0  0  0  1  0  0  0  0  0  0  0  0
   -0.6208   -1.6253    1.9536 C   0  0  0  1  0  0  0  0  0  0  0  0
   -2.2885    3.0328    6.1683 C   0  0  0  1  0  0  0  0  0  0  0  0
   -2.4803    0.9117    5.0678 O   0  0  0  1  0  0  0  0  0  0  0  0
   -2.1316   -0.2730    1.4189 H   0  0  0  1  0  0  0  0  0  0  0  0
   -1.2523   -2.3854    1.5432 H   0  0  0  1  0  0  0  0  0  0  0  0
   -0.3288   -1.9016    2.9452 H   0  0  0  1  0  0  0  0  0  0  0  0
    0.2503   -1.5170    1.3418 H   0  0  0  1  0  0  0  0  0  0  0  0
   -2.5186    4.0261    5.8439 H   0  0  0  1  0  0  0  0  0  0  0  0
   -1.3433    3.0317    6.6698 H   0  0  0  1  0  0  0  0  0  0  0  0
   -3.0491    2.6917    6.8391 H   0  0  0  1  0  0  0  0  0  0  0  0
   -3.8810    7.6803    0.4549 F   0  0  0  1  0  0  0  0  0  0  0  0
   -3.2894    6.4885    0.6638 C   0  0  0  1  0  0  0  0  0  0  0  0
   -2.0335    6.4309    1.2477 C   0  0  0  1  0  0  0  0  0  0  0  0
   -1.4240    5.2083    1.4572 C   0  0  0  1  0  0  0  0  0  0  0  0
   -2.0710    4.0392    1.0883 C   0  0  0  1  0  0  0  0  0  0  0  0
   -3.3233    4.0964    0.5060 C   0  0  0  1  0  0  0  0  0  0  0  0
   -3.9344    5.3227    0.2959 C   0  0  0  1  0  0  0  0  0  0  0  0
   -1.3626    2.7301    1.3451 C   0  0  0  1  0  0  0  0  0  0  0  0
   -1.5498    7.3078    1.5282 H   0  0  0  1  0  0  0  0  0  0  0  0
   -0.4801    5.1654    1.8917 H   0  0  0  1  0  0  0  0  0  0  0  0
   -3.8069    3.2194    0.2255 H   0  0  0  1  0  0  0  0  0  0  0  0
   -4.8783    5.3657   -0.1385 H   0  0  0  1  0  0  0  0  0  0  0  0
   -1.4900    2.1110    0.4818 H   0  0  0  1  0  0  0  0  0  0  0  0
   -0.3226    2.9394    1.4843 H   0  0  0  1  0  0  0  0  0  0  0  0
  1  4  1  0  0  0  0
  2  4  1  0  0  0  0
  2  5  2  0  0  0  0
  2  6  1  0  0  0  0
  3  4  1  0  0  0  0
  3  7  1  0  0  0  0
  3  8  1  0  0  0  0
  4 26  1  0  0  0  0
  6  9  1  0  0  0  0
  6 12  1  0  0  0  0
  8 10  1  0  0  0  0
  8 11  2  0  0  0  0
  9 13  1  0  0  0  0
  9 14  1  0  0  0  0
  9 15  1  0  0  0  0
 10 16  1  0  0  0  0
 10 17  1  0  0  0  0
 10 18  1  0  0  0  0
 19 20  1  0  0  0  0
 20 21  4  0  0  0  0
 20 25  4  0  0  0  0
 21 22  4  0  0  0  0
 21 27  1  0  0  0  0
 22 23  4  0  0  0  0
 22 28  1  0  0  0  0
 23 24  4  0  0  0  0
 23 26  1  0  0  0  0
 24 25  4  0  0  0  0
 24 29  1  0  0  0  0
 25 30  1  0  0  0  0
 26 31  1  0  0  0  0
 26 32  1  0  0  0  0
M  END
> <BCLConfClusterSize>
1

> <ConfClashScore>
0 

> <ConfOneFourInteractionScore>
-0.987695 

> <ConfScore>
-0.14594 

> <ConfScorePBest>
0.00595411 

> <ConfTolerance>
0.282594 

> <RosettaParamsInstructions>
M  ROOT 3
M  POLY_N_BB 3
M  POLY_CA_BB 4
M  POLY_C_BB 2
M  POLY_O_BB 5
M  POLY_IGNORE 9 10 11 12 13 14 15 16 17 18 
M  POLY_UPPER 6
M  POLY_LOWER 8
M  POLY_CHG 0
M  POLY_PROPERTIES ALPHA_AA L_AA PROTEIN AROMATIC POLYMER 
M  END

$$$$



 32 32  0  0  0  0  0  0  0  0999 V2000
   -2.4430    1.5629   -0.0433 H   0  0  0  1  0  0  0  0  0  0  0  0
   -1.3159    0.2184    1.1375 C   0  0  0  1  0  0  0  0  0  0  0  0
   -3.3465    1.4293    1.8145 N   0  0  0  1  0  0  0  0  0  0  0  0
   -2.1496    1.4814    0.9825 C   0  0  0  1  0  0  0  0  0  0  0  0
   -0.6188   -0.2036    0.2157 O   0  0  0  1  0  0  0  0  0  0  0  0
   -1.3955   -0.3898    2.3308 N   0  0  0  1  0  0  0  0  0  0  0  0
   -3.4263    2.0511    2.5678 H   0  0  0  1  0  0  0  0  0  0  0  0
   -4.3378    0.5633    1.5855 C   0  0  0  1  0  0  0  0  0  0  0  0
   -0.7629   -1.6574    2.6637 C   0  0  0  1  0  0  0  0  0  0  0  0
   -5.4827    0.5995    2.5723 C   0  0  0  1  0  0  0  0  0  0  0  0
   -4.3365   -0.2210    0.6375 O   0  0  0  1  0  0  0  0  0  0  0  0
   -1.9190    0.0530    3.0310 H   0  0  0  1  0  0  0  0  0  0  0  0
    0.2650   -1.6323    2.3675 H   0  0  0  1  0  0  0  0  0  0  0  0
   -1.2629   -2.4512    2.1491 H   0  0  0  1  0  0  0  0  0  0  0  0
   -0.8258   -1.8207    3.7193 H   0  0  0  1  0  0  0  0  0  0  0  0
   -5.0967    0.7204    3.5629 H   0  0  0  1  0  0  0  0  0  0  0  0
   -6.0330   -0.3162    2.5134 H   0  0  0  1  0  0  0  0  0  0  0  0
   -6.1286    1.4200    2.3388 H   0  0  0  1  0  0  0  0  0  0  0  0
   -3.8810    7.6803    0.4549 F   0  0  0  1  0  0  0  0  0  0  0  0
   -3.2894    6.4885    0.6638 C   0  0  0  1  0  0  0  0  0  0  0  0
   -2.0335    6.4309    1.2477 C   0  0  0  1  0  0  0  0  0  0  0  0
   -1.4240    5.2083    1.4572 C   0  0  0  1  0  0  0  0  0  0  0  0
   -2.0710    4.0392    1.0883 C   0  0  0  1  0  0  0  0  0  0  0  0
   -3.3233    4.0964    0.5060 C   0  0  0  1  0  0  0  0  0  0  0  0
   -3.9344    5.3227    0.2959 C   0  0  0  1  0  0  0  0  0  0  0  0
   -1.3626    2.7301    1.3451 C   0  0  0  1  0  0  0  0  0  0  0  0
   -1.5498    7.3078    1.5282 H   0  0  0  1  0  0  0  0  0  0  0  0
   -0.4801    5.1654    1.8917 H   0  0  0  1  0  0  0  0  0  0  0  0
   -3.8069    3.2194    0.2255 H   0  0  0  1  0  0  0  0  0  0  0  0
   -4.8783    5.3657   -0.1385 H   0  0  0  1  0  0  0  0  0  0  0  0
   -0.4575    2.7272    0.7745 H   0  0  0  1  0  0  0  0  0  0  0  0
   -1.1276    2.6810    2.3878 H   0  0  0  1  0  0  0  0  0  0  0  0
  1  4  1  0  0  0  0
  2  4  1  0  0  0  0
  2  5  2  0  0  0  0
  2  6  1  0  0  0  0
  3  4  1  0  0  0  0
  3  7  1  0  0  0  0
  3  8  1  0  0  0  0
  4 26  1  0  0  0  0
  6  9  1  0  0  0  0
  6 12  1  0  0  0  0
  8 10  1  0  0  0  0
  8 11  2  0  0  0  0
  9 13  1  0  0  0  0
  9 14  1  0  0  0  0
  9 15  1  0  0  0  0
 10 16  1  0  0  0  0
 10 17  1  0  0  0  0
 10 18  1  0  0  0  0
 19 20  1  0  0  0  0
 20 21  4  0  0  0  0
 20 25  4  0  0  0  0
 21 22  4  0  0  0  0
 21 27  1  0  0  0  0
 22 23  4  0  0  0  0
 22 28  1  0  0  0  0
 23 24  4  0  0  0  0
 23 26  1  0  0  0  0
 24 25  4  0  0  0  0
 24 29  1  0  0  0  0
 25 30  1  0  0  0  0
 26 31  1  0  0  0  0
 26 32  1  0  0  0  0
M  END
> <BCLConfClusterSize>
1

> <ConfClashScore>
0 

> <ConfOneFourInteractionScore>
-0.949001 

> <ConfScore>
-0.134794 

> <ConfScorePBest>
0.00592562 

> <ConfTolerance>
0.196257 

> <RosettaParamsInstructions>
M  ROOT 3
M  POLY_N_BB 3
M  POLY_CA_BB 4
M  POLY_C_BB 2
M  POLY_O_BB 5
M  POLY_IGNORE 9 10 11 12 13 14 15 16 17 18 
M  POLY_UPPER 6
M  POLY_LOWER 8
M  POLY_CHG 0
M  POLY_PROPERTIES ALPHA_AA L_AA PROTEIN AROMATIC POLYMER 
M  END

$$$$



 32 32  0  0  0  0  0  0  0  0999 V2000
   -2.9892    1.9677    2.5226 H   0  0  0  1  0  0  0  0  0  0  0  0
   -1.3977    0.5632    2.5672 C   0  0  0  1  0  0  0  0  0  0  0  0
   -1.4946    2.6981    3.7651 N   0  0  0  1  0  0  0  0  0  0  0  0
   -1.9204    1.9919    2.5660 C   0  0  0  1  0  0  0  0  0  0  0  0
   -0.4559    0.2365    3.2878 O   0  0  0  1  0  0  0  0  0  0  0  0
   -1.9945   -0.3278    1.7596 N   0  0  0  1  0  0  0  0  0  0  0  0
   -0.8183    3.4027    3.6840 H   0  0  0  1  0  0  0  0  0  0  0  0
   -1.9936    2.4192    4.9727 C   0  0  0  1  0  0  0  0  0  0  0  0
   -1.4013   -1.6409    1.5553 C   0  0  0  1  0  0  0  0  0  0  0  0
   -1.3230    3.1626    6.1293 C   0  0  0  1  0  0  0  0  0  0  0  0
   -2.9662    1.6934    5.1749 O   0  0  0  1  0  0  0  0  0  0  0  0
   -2.8313   -0.0935    1.3066 H   0  0  0  1  0  0  0  0  0  0  0  0
   -0.4526   -1.6849    2.0481 H   0  0  0  1  0  0  0  0  0  0  0  0
   -1.2670   -1.8122    0.5076 H   0  0  0  1  0  0  0  0  0  0  0  0
   -2.0482   -2.3911    1.9598 H   0  0  0  1  0  0  0  0  0  0  0  0
   -0.3689    3.5293    5.8129 H   0  0  0  1  0  0  0  0  0  0  0  0
   -1.1921    2.4941    6.9545 H   0  0  0  1  0  0  0  0  0  0  0  0
   -1.9389    3.9844    6.4297 H   0  0  0  1  0  0  0  0  0  0  0  0
   -3.9116    7.6616    0.4395 F   0  0  0  1  0  0  0  0  0  0  0  0
   -3.2836    6.4921    0.6667 C   0  0  0  1  0  0  0  0  0  0  0  0
   -2.0277    6.4356    1.2507 C   0  0  0  1  0  0  0  0  0  0  0  0
   -1.4173    5.2135    1.4607 C   0  0  0  1  0  0  0  0  0  0  0  0
   -2.0634    4.0439    1.0921 C   0  0  0  1  0  0  0  0  0  0  0  0
   -3.3156    4.0999    0.5098 C   0  0  0  1  0  0  0  0  0  0  0  0
   -3.9277    5.3257    0.2993 C   0  0  0  1  0  0  0  0  0  0  0  0
   -1.3994    2.7076    1.3266 C   0  0  0  1  0  0  0  0  0  0  0  0
   -1.5447    7.3130    1.5309 H   0  0  0  1  0  0  0  0  0  0  0  0
   -0.4733    5.1715    1.8952 H   0  0  0  1  0  0  0  0  0  0  0  0
   -3.7986    3.2225    0.2296 H   0  0  0  1  0  0  0  0  0  0  0  0
   -4.8716    5.3677   -0.1352 H   0  0  0  1  0  0  0  0  0  0  0  0
   -1.5762    2.0852    0.4744 H   0  0  0  1  0  0  0  0  0  0  0  0
   -0.3474    2.8655    1.4415 H   0  0  0  1  0  0  0  0  0  0  0  0
  1  4  1  0  0  0  0
  2  4  1  0  0  0  0
  2  5  2  0  0  0  0
  2  6  1  0  0  0  0
  3  4  1  0  0  0  0
  3  7  1  0  0  0  0
  3  8  1  0  0  0  0
  4 26  1  0  0  0  0
  6  9  1  0  0  0  0
  6 12  1  0  0  0  0
  8 10  1  0  0  0  0
  8 11  2  0  0  0  0
  9 13  1  0  0  0  0
  9 14  1  0  0  0  0
  9 15  1  0  0  0  0
 10 16  1  0  0  0  0
 10 17  1  0  0  0  0
 10 18  1  0  0  0  0
 19 20  1  0  0  0  0
 20 21  4  0  0  0  0
 20 25  4  0  0  0  0
 21 22  4  0  0  0  0
 21 27  1  0  0  0  0
 22 23  4  0  0  0  0
 22 28  1  0  0  0  0
 23 24  4  0  0  0  0
 23 26  1  0  0  0  0
 24 25  4  0  0  0  0
 24 29  1  0  0  0  0
 25 30  1  0  0  0  0
 26 31  1  0  0  0  0
 26 32  1  0  0  0  0
M  END
> <BCLConfClusterSize>
1

> <ConfClashScore>
0 

> <ConfOneFourInteractionScore>
-0.985807 

> <ConfScore>
-0.13174 

> <ConfScorePBest>
0.00589714 

> <ConfTolerance>
0.303672 

> <RosettaParamsInstructions>
M  ROOT 3
M  POLY_N_BB 3
M  POLY_CA_BB 4
M  POLY_C_BB 2
M  POLY_O_BB 5
M  POLY_IGNORE 9 10 11 12 13 14 15 16 17 18 
M  POLY_UPPER 6
M  POLY_LOWER 8
M  POLY_CHG 0
M  POLY_PROPERTIES ALPHA_AA L_AA PROTEIN AROMATIC POLYMER 
M  END

$$$$



 32 32  0  0  0  0  0  0  0  0999 V2000
   -3.2298    1.6951    1.6260 H   0  0  0  1  0  0  0  0  0  0  0  0
   -1.6720    0.3322    2.0700 C   0  0  0  1  0  0  0  0  0  0  0  0
   -2.4470    2.1717    3.4793 N   0  0  0  1  0  0  0  0  0  0  0  0
   -2.2726    1.7331    2.1027 C   0  0  0  1  0  0  0  0  0  0  0  0
   -0.8013   -0.0081    2.8699 O   0  0  0  1  0  0  0  0  0  0  0  0
   -2.1542   -0.4871    1.1221 N   0  0  0  1  0  0  0  0  0  0  0  0
   -1.7044    2.6271    3.9283 H   0  0  0  1  0  0  0  0  0  0  0  0
   -3.5891    1.9743    4.1553 C   0  0  0  1  0  0  0  0  0  0  0  0
   -1.8091   -1.8836    0.9022 C   0  0  0  1  0  0  0  0  0  0  0  0
   -3.6610    2.4586    5.5903 C   0  0  0  1  0  0  0  0  0  0  0  0
   -4.5495    1.4180    3.6293 O   0  0  0  1  0  0  0  0  0  0  0  0
   -2.8135   -0.1008    0.5085 H   0  0  0  1  0  0  0  0  0  0  0  0
   -1.4807   -2.3196    1.8225 H   0  0  0  1  0  0  0  0  0  0  0  0
   -1.0242   -1.9470    0.1777 H   0  0  0  1  0  0  0  0  0  0  0  0
   -2.6686   -2.4111    0.5446 H   0  0  0  1  0  0  0  0  0  0  0  0
   -3.5345    3.5207    5.6156 H   0  0  0  1  0  0  0  0  0  0  0  0
   -2.8857    1.9935    6.1627 H   0  0  0  1  0  0  0  0  0  0  0  0
   -4.6135    2.2031    6.0054 H   0  0  0  1  0  0  0  0  0  0  0  0
   -3.8843    7.6784    0.4533 F   0  0  0  1  0  0  0  0  0  0  0  0
   -3.2892    6.4887    0.6639 C   0  0  0  1  0  0  0  0  0  0  0  0
   -2.0333    6.4356    1.2481 C   0  0  0  1  0  0  0  0  0  0  0  0
   -1.4202    5.2151    1.4594 C   0  0  0  1  0  0  0  0  0  0  0  0
   -2.0637    4.0436    1.0920 C   0  0  0  1  0  0  0  0  0  0  0  0
   -3.3160    4.0963    0.5094 C   0  0  0  1  0  0  0  0  0  0  0  0
   -3.9307    5.3205    0.2975 C   0  0  0  1  0  0  0  0  0  0  0  0
   -1.3968    2.7090    1.3279 C   0  0  0  1  0  0  0  0  0  0  0  0
   -1.5523    7.3143    1.5275 H   0  0  0  1  0  0  0  0  0  0  0  0
   -0.4762    5.1756    1.8941 H   0  0  0  1  0  0  0  0  0  0  0  0
   -3.7969    3.2175    0.2300 H   0  0  0  1  0  0  0  0  0  0  0  0
   -4.8747    5.3600   -0.1371 H   0  0  0  1  0  0  0  0  0  0  0  0
   -1.1595    2.2745    0.3794 H   0  0  0  1  0  0  0  0  0  0  0  0
   -0.4959    2.8717    1.8817 H   0  0  0  1  0  0  0  0  0  0  0  0
  1  4  1  0  0  0  0
  2  4  1  0  0  0  0
  2  5  2  0  0  0  0
  2  6  1  0  0  0  0
  3  4  1  0  0  0  0
  3  7  1  0  0  0  0
  3  8  1  0  0  0  0
  4 26  1  0  0  0  0
  6  9  1  0  0  0  0
  6 12  1  0  0  0  0
  8 10  1  0  0  0  0
  8 11  2  0  0  0  0
  9 13  1  0  0  0  0
  9 14  1  0  0  0  0
  9 15  1  0  0  0  0
 10 16  1  0  0  0  0
 10 17  1  0  0  0  0
 10 18  1  0  0  0  0
 19 20  1  0  0  0  0
 20 21  4  0  0  0  0
 20 25  4  0  0  0  0
 21 22  4  0  0  0  0
 21 27  1  0  0  0  0
 22 23  4  0  0  0  0
 22 28  1  0  0  0  0
 23 24  4  0  0  0  0
 23 26  1  0  0  0  0
 24 25  4  0  0  0  0
 24 29  1  0  0  0  0
 25 30  1  0  0  0  0
 26 31  1  0  0  0  0
 26 32  1  0  0  0  0
M  END
> <BCLConfClusterSize>
1

> <ConfClashScore>
0 

> <ConfOneFourInteractionScore>
-0.978127 

> <ConfScore>
-0.119914 

> <ConfScorePBest>
0.00586866 

> <ConfTolerance>
0.227128 

> <RosettaParamsInstructions>
M  ROOT 3
M  POLY_N_BB 3
M  POLY_CA_BB 4
M  POLY_C_BB 2
M  POLY_O_BB 5
M  POLY_IGNORE 9 10 11 12 13 14 15 16 17 18 
M  POLY_UPPER 6
M  POLY_LOWER 8
M  POLY_CHG 0
M  POLY_PROPERTIES ALPHA_AA L_AA PROTEIN AROMATIC POLYMER 
M  END

$$$$



 32 32  0  0  0  0  0  0  0  0999 V2000
   -1.8091    2.7088    3.3959 H   0  0  0  1  0  0  0  0  0  0  0  0
   -0.5467    1.0593    3.0210 C   0  0  0  1  0  0  0  0  0  0  0  0
    0.1232    3.3861    3.1757 N   0  0  0  1  0  0  0  0  0  0  0  0
   -0.9625    2.5064    2.7736 C   0  0  0  1  0  0  0  0  0  0  0  0
   -1.3831    0.1619    3.1152 O   0  0  0  1  0  0  0  0  0  0  0  0
    0.7675    0.8429    3.1256 N   0  0  0  1  0  0  0  0  0  0  0  0
    0.5443    3.9571    2.4997 H   0  0  0  1  0  0  0  0  0  0  0  0
    0.5712    3.4435    4.4471 C   0  0  0  1  0  0  0  0  0  0  0  0
    1.2712   -0.5056    3.3393 C   0  0  0  1  0  0  0  0  0  0  0  0
    1.7352    4.3596    4.7499 C   0  0  0  1  0  0  0  0  0  0  0  0
    0.0504    2.7723    5.3341 O   0  0  0  1  0  0  0  0  0  0  0  0
    1.3936    1.5938    3.0584 H   0  0  0  1  0  0  0  0  0  0  0  0
    0.5392   -1.0810    3.8666 H   0  0  0  1  0  0  0  0  0  0  0  0
    2.1726   -0.4625    3.9143 H   0  0  0  1  0  0  0  0  0  0  0  0
    1.4722   -0.9649    2.3940 H   0  0  0  1  0  0  0  0  0  0  0  0
    1.9734    4.9343    3.8793 H   0  0  0  1  0  0  0  0  0  0  0  0
    2.5847    3.7744    5.0341 H   0  0  0  1  0  0  0  0  0  0  0  0
    1.4713    5.0184    5.5506 H   0  0  0  1  0  0  0  0  0  0  0  0
   -3.8843    7.6784    0.4533 F   0  0  0  1  0  0  0  0  0  0  0  0
   -3.2892    6.4887    0.6639 C   0  0  0  1  0  0  0  0  0  0  0  0
   -2.0333    6.4356    1.2481 C   0  0  0  1  0  0  0  0  0  0  0  0
   -1.4202    5.2151    1.4594 C   0  0  0  1  0  0  0  0  0  0  0  0
   -2.0637    4.0436    1.0920 C   0  0  0  1  0  0  0  0  0  0  0  0
   -3.3160    4.0963    0.5094 C   0  0  0  1  0  0  0  0  0  0  0  0
   -3.9307    5.3205    0.2975 C   0  0  0  1  0  0  0  0  0  0  0  0
   -1.3968    2.7090    1.3279 C   0  0  0  1  0  0  0  0  0  0  0  0
   -1.5523    7.3143    1.5275 H   0  0  0  1  0  0  0  0  0  0  0  0
   -0.4762    5.1756    1.8941 H   0  0  0  1  0  0  0  0  0  0  0  0
   -3.7969    3.2175    0.2300 H   0  0  0  1  0  0  0  0  0  0  0  0
   -4.8747    5.3600   -0.1371 H   0  0  0  1  0  0  0  0  0  0  0  0
   -2.0860    1.9331    1.0674 H   0  0  0  1  0  0  0  0  0  0  0  0
   -0.5325    2.6446    0.7005 H   0  0  0  1  0  0  0  0  0  0  0  0
  1  4  1  0  0  0  0
  2  4  1  0  0  0  0
  2  5  2  0  0  0  0
  2  6  1  0  0  0  0
  3  4  1  0  0  0  0
  3  7  1  0  0  0  0
  3  8  1  0  0  0  0
  4 26  1  0  0  0  0
  6  9  1  0  0  0  0
  6 12  1  0  0  0  0
  8 10  1  0  0  0  0
  8 11  2  0  0  0  0
  9 13  1  0  0  0  0
  9 14  1  0  0  0  0
  9 15  1  0  0  0  0
 10 16  1  0  0  0  0
 10 17  1  0  0  0  0
 10 18  1  0  0  0  0
 19 20  1  0  0  0  0
 20 21  4  0  0  0  0
 20 25  4  0  0  0  0
 21 22  4  0  0  0  0
 21 27  1  0  0  0  0
 22 23  4  0  0  0  0
 22 28  1  0  0  0  0
 23 24  4  0  0  0  0
 23 26  1  0  0  0  0
 24 25  4  0  0  0  0
 24 29  1  0  0  0  0
 25 30  1  0  0  0  0
 26 31  1  0  0  0  0
 26 32  1  0  0  0  0
M  END
> <BCLConfClusterSize>
1

> <ConfClashScore>
0 

> <ConfOneFourInteractionScore>
-0.937775 

> <ConfScore>
-0.11899 

> <ConfScorePBest>
0.00584018 

> <ConfTolerance>
0.250276 

> <RosettaParamsInstructions>
M  ROOT 3
M  POLY_N_BB 3
M  POLY_CA_BB 4
M  POLY_C_BB 2
M  POLY_O_BB 5
M  POLY_IGNORE 9 10 11 12 13 14 15 16 17 18 
M  POLY_UPPER 6
M  POLY_LOWER 8
M  POLY_CHG 0
M  POLY_PROPERTIES ALPHA_AA L_AA PROTEIN AROMATIC POLYMER 
M  END

$$$$



 32 32  0  0  0  0  0  0  0  0999 V2000
   -2.2913    1.9128   -0.4713 H   0  0  0  1  0  0  0  0  0  0  0  0
   -1.2473    0.3468    0.5152 C   0  0  0  1  0  0  0  0  0  0  0  0
   -3.4227    1.2821    1.1517 N   0  0  0  1  0  0  0  0  0  0  0  0
   -2.1391    1.5821    0.5349 C   0  0  0  1  0  0  0  0  0  0  0  0
   -0.3149    0.2451   -0.2810 O   0  0  0  1  0  0  0  0  0  0  0  0
   -1.5481   -0.6036    1.4132 N   0  0  0  1  0  0  0  0  0  0  0  0
   -3.7733    1.8633    1.8585 H   0  0  0  1  0  0  0  0  0  0  0  0
   -4.1229    0.2176    0.7569 C   0  0  0  1  0  0  0  0  0  0  0  0
   -0.8053   -1.8416    1.5966 C   0  0  0  1  0  0  0  0  0  0  0  0
   -5.4668    0.0143    1.4496 C   0  0  0  1  0  0  0  0  0  0  0  0
   -3.7266   -0.5615   -0.1089 O   0  0  0  1  0  0  0  0  0  0  0  0
   -2.3266   -0.4528    1.9890 H   0  0  0  1  0  0  0  0  0  0  0  0
   -1.4837   -2.6324    1.8402 H   0  0  0  1  0  0  0  0  0  0  0  0
   -0.0998   -1.7195    2.3917 H   0  0  0  1  0  0  0  0  0  0  0  0
   -0.2863   -2.0830    0.6926 H   0  0  0  1  0  0  0  0  0  0  0  0
   -5.3844    0.2961    2.4786 H   0  0  0  1  0  0  0  0  0  0  0  0
   -5.7496   -1.0155    1.3836 H   0  0  0  1  0  0  0  0  0  0  0  0
   -6.2088    0.6198    0.9726 H   0  0  0  1  0  0  0  0  0  0  0  0
   -3.8878    7.6762    0.4515 F   0  0  0  1  0  0  0  0  0  0  0  0
   -3.2890    6.4887    0.6640 C   0  0  0  1  0  0  0  0  0  0  0  0
   -2.0330    6.4405    1.2486 C   0  0  0  1  0  0  0  0  0  0  0  0
   -1.4161    5.2223    1.4618 C   0  0  0  1  0  0  0  0  0  0  0  0
   -2.0557    4.0482    1.0959 C   0  0  0  1  0  0  0  0  0  0  0  0
   -3.3080    4.0960    0.5131 C   0  0  0  1  0  0  0  0  0  0  0  0
   -3.9267    5.3180    0.2992 C   0  0  0  1  0  0  0  0  0  0  0  0
   -1.4343    2.6881    1.3092 C   0  0  0  1  0  0  0  0  0  0  0  0
   -1.5548    7.3212    1.5267 H   0  0  0  1  0  0  0  0  0  0  0  0
   -0.4721    5.1864    1.8967 H   0  0  0  1  0  0  0  0  0  0  0  0
   -3.7862    3.2153    0.2349 H   0  0  0  1  0  0  0  0  0  0  0  0
   -4.8707    5.3538   -0.1357 H   0  0  0  1  0  0  0  0  0  0  0  0
   -0.4127    2.7272    0.9934 H   0  0  0  1  0  0  0  0  0  0  0  0
   -1.4769    2.4540    2.3524 H   0  0  0  1  0  0  0  0  0  0  0  0
  1  4  1  0  0  0  0
  2  4  1  0  0  0  0
  2  5  2  0  0  0  0
  2  6  1  0  0  0  0
  3  4  1  0  0  0  0
  3  7  1  0  0  0  0
  3  8  1  0  0  0  0
  4 26  1  0  0  0  0
  6  9  1  0  0  0  0
  6 12  1  0  0  0  0
  8 10  1  0  0  0  0
  8 11  2  0  0  0  0
  9 13  1  0  0  0  0
  9 14  1  0  0  0  0
  9 15  1  0  0  0  0
 10 16  1  0  0  0  0
 10 17  1  0  0  0  0
 10 18  1  0  0  0  0
 19 20  1  0  0  0  0
 20 21  4  0  0  0  0
 20 25  4  0  0  0  0
 21 22  4  0  0  0  0
 21 27  1  0  0  0  0
 22 23  4  0  0  0  0
 22 28  1  0  0  0  0
 23 24  4  0  0  0  0
 23 26  1  0  0  0  0
 24 25  4  0  0  0  0
 24 29  1  0  0  0  0
 25 30  1  0  0  0  0
 26 31  1  0  0  0  0
 26 32  1  0  0  0  0
M  END
> <BCLConfClusterSize>
1

> <ConfClashScore>
0 

> <ConfOneFourInteractionScore>
-0.949001 

> <ConfScore>
-0.114408 

> <ConfScorePBest>
0.0058117 

> <ConfTolerance>
0.332206 

> <RosettaParamsInstructions>
M  ROOT 3
M  POLY_N_BB 3
M  POLY_CA_BB 4
M  POLY_C_BB 2
M  POLY_O_BB 5
M  POLY_IGNORE 9 10 11 12 13 14 15 16 17 18 
M  POLY_UPPER 6
M  POLY_LOWER 8
M  POLY_CHG 0
M  POLY_PROPERTIES ALPHA_AA L_AA PROTEIN AROMATIC POLYMER 
M  END

$$$$



 32 32  0  0  0  0  0  0  0  0999 V2000
    0.6169    3.2619    1.1101 H   0  0  0  1  0  0  0  0  0  0  0  0
    0.5918    1.2037    0.7334 C   0  0  0  1  0  0  0  0  0  0  0  0
   -0.1006    2.9695   -0.7852 N   0  0  0  1  0  0  0  0  0  0  0  0
   -0.0460    2.5801    0.6194 C   0  0  0  1  0  0  0  0  0  0  0  0
    0.3101    0.3088   -0.0465 O   0  0  0  1  0  0  0  0  0  0  0  0
    1.4707    1.0494    1.7363 N   0  0  0  1  0  0  0  0  0  0  0  0
   -0.9760    3.0830   -1.2108 H   0  0  0  1  0  0  0  0  0  0  0  0
    1.0122    3.1788   -1.5188 C   0  0  0  1  0  0  0  0  0  0  0  0
    2.1252   -0.2218    2.0077 C   0  0  0  1  0  0  0  0  0  0  0  0
    0.8434    3.6008   -2.9654 C   0  0  0  1  0  0  0  0  0  0  0  0
    2.1321    3.0323   -1.0308 O   0  0  0  1  0  0  0  0  0  0  0  0
    1.6787    1.8195    2.3056 H   0  0  0  1  0  0  0  0  0  0  0  0
    2.3011   -0.3157    3.0590 H   0  0  0  1  0  0  0  0  0  0  0  0
    3.0583   -0.2609    1.4854 H   0  0  0  1  0  0  0  0  0  0  0  0
    1.4976   -1.0233    1.6783 H   0  0  0  1  0  0  0  0  0  0  0  0
   -0.1186    4.0506   -3.0963 H   0  0  0  1  0  0  0  0  0  0  0  0
    0.9246    2.7423   -3.5989 H   0  0  0  1  0  0  0  0  0  0  0  0
    1.6051    4.3072   -3.2218 H   0  0  0  1  0  0  0  0  0  0  0  0
   -3.8843    7.6784    0.4533 F   0  0  0  1  0  0  0  0  0  0  0  0
   -3.2892    6.4887    0.6639 C   0  0  0  1  0  0  0  0  0  0  0  0
   -2.0333    6.4356    1.2481 C   0  0  0  1  0  0  0  0  0  0  0  0
   -1.4202    5.2151    1.4594 C   0  0  0  1  0  0  0  0  0  0  0  0
   -2.0637    4.0436    1.0920 C   0  0  0  1  0  0  0  0  0  0  0  0
   -3.3160    4.0963    0.5094 C   0  0  0  1  0  0  0  0  0  0  0  0
   -3.9307    5.3205    0.2975 C   0  0  0  1  0  0  0  0  0  0  0  0
   -1.3968    2.7090    1.3279 C   0  0  0  1  0  0  0  0  0  0  0  0
   -1.5523    7.3143    1.5275 H   0  0  0  1  0  0  0  0  0  0  0  0
   -0.4762    5.1756    1.8941 H   0  0  0  1  0  0  0  0  0  0  0  0
   -3.7969    3.2175    0.2300 H   0  0  0  1  0  0  0  0  0  0  0  0
   -4.8747    5.3600   -0.1371 H   0  0  0  1  0  0  0  0  0  0  0  0
   -1.2428    2.5865    2.3797 H   0  0  0  1  0  0  0  0  0  0  0  0
   -2.0445    1.9365    0.9693 H   0  0  0  1  0  0  0  0  0  0  0  0
  1  4  1  0  0  0  0
  2  4  1  0  0  0  0
  2  5  2  0  0  0  0
  2  6  1  0  0  0  0
  3  4  1  0  0  0  0
  3  7  1  0  0  0  0
  3  8  1  0  0  0  0
  4 26  1  0  0  0  0
  6  9  1  0  0  0  0
  6 12  1  0  0  0  0
  8 10  1  0  0  0  0
  8 11  2  0  0  0  0
  9 13  1  0  0  0  0
  9 14  1  0  0  0  0
  9 15  1  0  0  0  0
 10 16  1  0  0  0  0
 10 17  1  0  0  0  0
 10 18  1  0  0  0  0
 19 20  1  0  0  0  0
 20 21  4  0  0  0  0
 20 25  4  0  0  0  0
 21 22  4  0  0  0  0
 21 27  1  0  0  0  0
 22 23  4  0  0  0  0
 22 28  1  0  0  0  0
 23 24  4  0  0  0  0
 23 26  1  0  0  0  0
 24 25  4  0  0  0  0
 24 29  1  0  0  0  0
 25 30  1  0  0  0  0
 26 31  1  0  0  0  0
 26 32  1  0  0  0  0
M  END
> <BCLConfClusterSize>
1

> <ConfClashScore>
0 

> <ConfOneFourInteractionScore>
-0.987695 

> <ConfScore>
-0.107293 

> <ConfScorePBest>
0.00578322 

> <ConfTolerance>
0.277417 

> <RosettaParamsInstructions>
M  ROOT 3
M  POLY_N_BB 3
M  POLY_CA_BB 4
M  POLY_C_BB 2
M  POLY_O_BB 5
M  POLY_IGNORE 9 10 11 12 13 14 15 16 17 18 
M  POLY_UPPER 6
M  POLY_LOWER 8
M  POLY_CHG 0
M  POLY_PROPERTIES ALPHA_AA L_AA PROTEIN AROMATIC POLYMER 
M  END

$$$$



 32 32  0  0  0  0  0  0  0  0999 V2000
   -0.4243    1.1462    0.2583 H   0  0  0  1  0  0  0  0  0  0  0  0
   -1.5793    2.1937   -1.1642 C   0  0  0  1  0  0  0  0  0  0  0  0
    0.5085    2.9533   -0.1215 N   0  0  0  1  0  0  0  0  0  0  0  0
   -0.7007    2.1628    0.0713 C   0  0  0  1  0  0  0  0  0  0  0  0
   -1.5777    3.1608   -1.9247 O   0  0  0  1  0  0  0  0  0  0  0  0
   -2.3442    1.1086   -1.3631 N   0  0  0  1  0  0  0  0  0  0  0  0
    0.4915    3.6955   -0.7613 H   0  0  0  1  0  0  0  0  0  0  0  0
    1.6490    2.6993    0.5494 C   0  0  0  1  0  0  0  0  0  0  0  0
   -3.3441    0.9750   -2.4121 C   0  0  0  1  0  0  0  0  0  0  0  0
    2.7815    3.6748    0.2277 C   0  0  0  1  0  0  0  0  0  0  0  0
    1.7993    1.7786    1.3515 O   0  0  0  1  0  0  0  0  0  0  0  0
   -2.2200    0.3492   -0.7562 H   0  0  0  1  0  0  0  0  0  0  0  0
   -2.8843    1.1307   -3.3657 H   0  0  0  1  0  0  0  0  0  0  0  0
   -4.1146    1.7026   -2.2648 H   0  0  0  1  0  0  0  0  0  0  0  0
   -3.7684   -0.0067   -2.3771 H   0  0  0  1  0  0  0  0  0  0  0  0
    3.1115    3.5198   -0.7783 H   0  0  0  1  0  0  0  0  0  0  0  0
    3.5971    3.5083    0.9000 H   0  0  0  1  0  0  0  0  0  0  0  0
    2.4284    4.6790    0.3362 H   0  0  0  1  0  0  0  0  0  0  0  0
   -3.8878    7.6762    0.4515 F   0  0  0  1  0  0  0  0  0  0  0  0
   -3.2890    6.4887    0.6640 C   0  0  0  1  0  0  0  0  0  0  0  0
   -2.0330    6.4405    1.2486 C   0  0  0  1  0  0  0  0  0  0  0  0
   -1.4161    5.2223    1.4618 C   0  0  0  1  0  0  0  0  0  0  0  0
   -2.0557    4.0482    1.0959 C   0  0  0  1  0  0  0  0  0  0  0  0
   -3.3080    4.0960    0.5131 C   0  0  0  1  0  0  0  0  0  0  0  0
   -3.9267    5.3180    0.2992 C   0  0  0  1  0  0  0  0  0  0  0  0
   -1.4343    2.6881    1.3092 C   0  0  0  1  0  0  0  0  0  0  0  0
   -1.5548    7.3212    1.5267 H   0  0  0  1  0  0  0  0  0  0  0  0
   -0.4721    5.1864    1.8967 H   0  0  0  1  0  0  0  0  0  0  0  0
   -3.7862    3.2153    0.2349 H   0  0  0  1  0  0  0  0  0  0  0  0
   -4.8707    5.3538   -0.1357 H   0  0  0  1  0  0  0  0  0  0  0  0
   -0.7350    2.7560    2.1162 H   0  0  0  1  0  0  0  0  0  0  0  0
   -2.2091    1.9960    1.5652 H   0  0  0  1  0  0  0  0  0  0  0  0
  1  4  1  0  0  0  0
  2  4  1  0  0  0  0
  2  5  2  0  0  0  0
  2  6  1  0  0  0  0
  3  4  1  0  0  0  0
  3  7  1  0  0  0  0
  3  8  1  0  0  0  0
  4 26  1  0  0  0  0
  6  9  1  0  0  0  0
  6 12  1  0  0  0  0
  8 10  1  0  0  0  0
  8 11  2  0  0  0  0
  9 13  1  0  0  0  0
  9 14  1  0  0  0  0
  9 15  1  0  0  0  0
 10 16  1  0  0  0  0
 10 17  1  0  0  0  0
 10 18  1  0  0  0  0
 19 20  1  0  0  0  0
 20 21  4  0  0  0  0
 20 25  4  0  0  0  0
 21 22  4  0  0  0  0
 21 27  1  0  0  0  0
 22 23  4  0  0  0  0
 22 28  1  0  0  0  0
 23 24  4  0  0  0  0
 23 26  1  0  0  0  0
 24 25  4  0  0  0  0
 24 29  1  0  0  0  0
 25 30  1  0  0  0  0
 26 31  1  0  0  0  0
 26 32  1  0  0  0  0
M  END
> <BCLConfClusterSize>
1

> <ConfClashScore>
0 

> <ConfOneFourInteractionScore>
-0.987258 

> <ConfScore>
-0.0916722 

> <ConfScorePBest>
0.00575474 

> <ConfTolerance>
0.183337 

> <RosettaParamsInstructions>
M  ROOT 3
M  POLY_N_BB 3
M  POLY_CA_BB 4
M  POLY_C_BB 2
M  POLY_O_BB 5
M  POLY_IGNORE 9 10 11 12 13 14 15 16 17 18 
M  POLY_UPPER 6
M  POLY_LOWER 8
M  POLY_CHG 0
M  POLY_PROPERTIES ALPHA_AA L_AA PROTEIN AROMATIC POLYMER 
M  END

$$$$



 32 32  0  0  0  0  0  0  0  0999 V2000
    0.5270    3.4993    1.0269 H   0  0  0  1  0  0  0  0  0  0  0  0
    0.7722    1.4278    1.2457 C   0  0  0  1  0  0  0  0  0  0  0  0
   -0.0366    2.6274   -0.7436 N   0  0  0  1  0  0  0  0  0  0  0  0
   -0.0034    2.6240    0.7146 C   0  0  0  1  0  0  0  0  0  0  0  0
    0.5542    0.3286    0.7380 O   0  0  0  1  0  0  0  0  0  0  0  0
    1.6450    1.6313    2.2301 N   0  0  0  1  0  0  0  0  0  0  0  0
   -0.4941    1.8958   -1.2080 H   0  0  0  1  0  0  0  0  0  0  0  0
    0.5352    3.5934   -1.4682 C   0  0  0  1  0  0  0  0  0  0  0  0
    2.4544    0.5948    2.8534 C   0  0  0  1  0  0  0  0  0  0  0  0
    0.4995    3.3980   -2.9714 C   0  0  0  1  0  0  0  0  0  0  0  0
    1.0617    4.5853   -0.9656 O   0  0  0  1  0  0  0  0  0  0  0  0
    1.7503    2.5481    2.5599 H   0  0  0  1  0  0  0  0  0  0  0  0
    3.4414    0.9692    3.0281 H   0  0  0  1  0  0  0  0  0  0  0  0
    2.5050   -0.2555    2.2059 H   0  0  0  1  0  0  0  0  0  0  0  0
    2.0117    0.3088    3.7846 H   0  0  0  1  0  0  0  0  0  0  0  0
    0.5535    4.3500   -3.4568 H   0  0  0  1  0  0  0  0  0  0  0  0
   -0.4119    2.9092   -3.2458 H   0  0  0  1  0  0  0  0  0  0  0  0
    1.3319    2.7967   -3.2725 H   0  0  0  1  0  0  0  0  0  0  0  0
   -3.8565    7.6941    0.4672 F   0  0  0  1  0  0  0  0  0  0  0  0
   -3.2949    6.4853    0.6610 C   0  0  0  1  0  0  0  0  0  0  0  0
   -2.0390    6.4357    1.2455 C   0  0  0  1  0  0  0  0  0  0  0  0
   -1.4232    5.2167    1.4581 C   0  0  0  1  0  0  0  0  0  0  0  0
   -2.0640    4.0435    1.0918 C   0  0  0  1  0  0  0  0  0  0  0  0
   -3.3163    4.0927    0.5090 C   0  0  0  1  0  0  0  0  0  0  0  0
   -3.9338    5.3154    0.2958 C   0  0  0  1  0  0  0  0  0  0  0  0
   -1.3943    2.7106    1.3292 C   0  0  0  1  0  0  0  0  0  0  0  0
   -1.5599    7.3158    1.5240 H   0  0  0  1  0  0  0  0  0  0  0  0
   -0.4792    5.1798    1.8930 H   0  0  0  1  0  0  0  0  0  0  0  0
   -3.7954    3.2126    0.2305 H   0  0  0  1  0  0  0  0  0  0  0  0
   -4.8778    5.3524   -0.1391 H   0  0  0  1  0  0  0  0  0  0  0  0
   -1.3106    2.5547    2.3845 H   0  0  0  1  0  0  0  0  0  0  0  0
   -2.0039    1.9422    0.9018 H   0  0  0  1  0  0  0  0  0  0  0  0
  1  4  1  0  0  0  0
  2  4  1  0  0  0  0
  2  5  2  0  0  0  0
  2  6  1  0  0  0  0
  3  4  1  0  0  0  0
  3  7  1  0  0  0  0
  3  8  1  0  0  0  0
  4 26  1  0  0  0  0
  6  9  1  0  0  0  0
  6 12  1  0  0  0  0
  8 10  1  0  0  0  0
  8 11  2  0  0  0  0
  9 13  1  0  0  0  0
  9 14  1  0  0  0  0
  9 15  1  0  0  0  0
 10 16  1  0  0  0  0
 10 17  1  0  0  0  0
 10 18  1  0  0  0  0
 19 20  1  0  0  0  0
 20 21  4  0  0  0  0
 20 25  4  0  0  0  0
 21 22  4  0  0  0  0
 21 27  1  0  0  0  0
 22 23  4  0  0  0  0
 22 28  1  0  0  0  0
 23 24  4  0  0  0  0
 23 26  1  0  0  0  0
 24 25  4  0  0  0  0
 24 29  1  0  0  0  0
 25 30  1  0  0  0  0
 26 31  1  0  0  0  0
 26 32  1  0  0  0  0
M  END
> <BCLConfClusterSize>
1

> <ConfClashScore>
0 

> <ConfOneFourInteractionScore>
-0.990503 

> <ConfScore>
-0.0910106 

> <ConfScorePBest>
0.00572626 

> <ConfTolerance>
0.35711 

> <RosettaParamsInstructions>
M  ROOT 3
M  POLY_N_BB 3
M  POLY_CA_BB 4
M  POLY_C_BB 2
M  POLY_O_BB 5
M  POLY_IGNORE 9 10 11 12 13 14 15 16 17 18 
M  POLY_UPPER 6
M  POLY_LOWER 8
M  POLY_CHG 0
M  POLY_PROPERTIES ALPHA_AA L_AA PROTEIN AROMATIC POLYMER 
M  END

$$$$



 32 32  0  0  0  0  0  0  0  0999 V2000
   -1.2931    1.1280    2.7408 H   0  0  0  1  0  0  0  0  0  0  0  0
   -1.4109    2.9549    3.8099 C   0  0  0  1  0  0  0  0  0  0  0  0
   -3.2401    1.8503    2.7197 N   0  0  0  1  0  0  0  0  0  0  0  0
   -1.8025    2.0643    2.6468 C   0  0  0  1  0  0  0  0  0  0  0  0
   -2.2189    3.7411    4.3025 O   0  0  0  1  0  0  0  0  0  0  0  0
   -0.1588    2.8593    4.2843 N   0  0  0  1  0  0  0  0  0  0  0  0
   -3.7948    2.4400    3.2719 H   0  0  0  1  0  0  0  0  0  0  0  0
   -3.8231    0.8200    2.0137 C   0  0  0  1  0  0  0  0  0  0  0  0
    0.3663    3.7781    5.2833 C   0  0  0  1  0  0  0  0  0  0  0  0
   -5.3066    0.6662    2.1822 C   0  0  0  1  0  0  0  0  0  0  0  0
   -3.1408    0.1016    1.3078 O   0  0  0  1  0  0  0  0  0  0  0  0
    0.4219    2.1460    3.9462 H   0  0  0  1  0  0  0  0  0  0  0  0
   -0.4442    4.2096    5.8328 H   0  0  0  1  0  0  0  0  0  0  0  0
    0.9205    4.5539    4.7976 H   0  0  0  1  0  0  0  0  0  0  0  0
    1.0086    3.2465    5.9539 H   0  0  0  1  0  0  0  0  0  0  0  0
   -5.7597    1.6327    2.2564 H   0  0  0  1  0  0  0  0  0  0  0  0
   -5.5082    0.1087    3.0729 H   0  0  0  1  0  0  0  0  0  0  0  0
   -5.7094    0.1476    1.3374 H   0  0  0  1  0  0  0  0  0  0  0  0
   -3.8843    7.6784    0.4533 F   0  0  0  1  0  0  0  0  0  0  0  0
   -3.2892    6.4887    0.6639 C   0  0  0  1  0  0  0  0  0  0  0  0
   -2.0333    6.4356    1.2481 C   0  0  0  1  0  0  0  0  0  0  0  0
   -1.4202    5.2151    1.4594 C   0  0  0  1  0  0  0  0  0  0  0  0
   -2.0637    4.0436    1.0920 C   0  0  0  1  0  0  0  0  0  0  0  0
   -3.3160    4.0963    0.5094 C   0  0  0  1  0  0  0  0  0  0  0  0
   -3.9307    5.3205    0.2975 C   0  0  0  1  0  0  0  0  0  0  0  0
   -1.3968    2.7090    1.3279 C   0  0  0  1  0  0  0  0  0  0  0  0
   -1.5523    7.3143    1.5275 H   0  0  0  1  0  0  0  0  0  0  0  0
   -0.4762    5.1756    1.8941 H   0  0  0  1  0  0  0  0  0  0  0  0
   -3.7969    3.2175    0.2300 H   0  0  0  1  0  0  0  0  0  0  0  0
   -4.8747    5.3600   -0.1371 H   0  0  0  1  0  0  0  0  0  0  0  0
   -1.6643    2.0488    0.5296 H   0  0  0  1  0  0  0  0  0  0  0  0
   -0.3367    2.8540    1.3315 H   0  0  0  1  0  0  0  0  0  0  0  0
  1  4  1  0  0  0  0
  2  4  1  0  0  0  0
  2  5  2  0  0  0  0
  2  6  1  0  0  0  0
  3  4  1  0  0  0  0
  3  7  1  0  0  0  0
  3  8  1  0  0  0  0
  4 26  1  0  0  0  0
  6  9  1  0  0  0  0
  6 12  1  0  0  0  0
  8 10  1  0  0  0  0
  8 11  2  0  0  0  0
  9 13  1  0  0  0  0
  9 14  1  0  0  0  0
  9 15  1  0  0  0  0
 10 16  1  0  0  0  0
 10 17  1  0  0  0  0
 10 18  1  0  0  0  0
 19 20  1  0  0  0  0
 20 21  4  0  0  0  0
 20 25  4  0  0  0  0
 21 22  4  0  0  0  0
 21 27  1  0  0  0  0
 22 23  4  0  0  0  0
 22 28  1  0  0  0  0
 23 24  4  0  0  0  0
 23 26  1  0  0  0  0
 24 25  4  0  0  0  0
 24 29  1  0  0  0  0
 25 30  1  0  0  0  0
 26 31  1  0  0  0  0
 26 32  1  0  0  0  0
M  END
> <BCLConfClusterSize>
1

> <ConfClashScore>
0 

> <ConfOneFourInteractionScore>
-0.982677 

> <ConfScore>
-0.086534 

> <ConfScorePBest>
0.00569778 

> <ConfTolerance>
0.196037 

> <RosettaParamsInstructions>
M  ROOT 3
M  POLY_N_BB 3
M  POLY_CA_BB 4
M  POLY_C_BB 2
M  POLY_O_BB 5
M  POLY_IGNORE 9 10 11 12 13 14 15 16 17 18 
M  POLY_UPPER 6
M  POLY_LOWER 8
M  POLY_CHG 0
M  POLY_PROPERTIES ALPHA_AA L_AA PROTEIN AROMATIC POLYMER 
M  END

$$$$



 32 32  0  0  0  0  0  0  0  0999 V2000
   -2.8256    1.4964    0.3433 H   0  0  0  1  0  0  0  0  0  0  0  0
   -1.4739    0.2369    1.3908 C   0  0  0  1  0  0  0  0  0  0  0  0
   -3.2830    1.5714    2.3672 N   0  0  0  1  0  0  0  0  0  0  0  0
   -2.3144    1.5017    1.2833 C   0  0  0  1  0  0  0  0  0  0  0  0
   -1.2317   -0.4546    0.4025 O   0  0  0  1  0  0  0  0  0  0  0  0
   -1.0252   -0.0623    2.6201 N   0  0  0  1  0  0  0  0  0  0  0  0
   -3.1986    2.2866    3.0317 H   0  0  0  1  0  0  0  0  0  0  0  0
   -4.2835    0.6941    2.4877 C   0  0  0  1  0  0  0  0  0  0  0  0
   -0.2166   -1.2260    2.9515 C   0  0  0  1  0  0  0  0  0  0  0  0
   -5.3118    0.9570    3.5882 C   0  0  0  1  0  0  0  0  0  0  0  0
   -4.3472   -0.3305    1.8105 O   0  0  0  1  0  0  0  0  0  0  0  0
   -1.2598    0.5489    3.3494 H   0  0  0  1  0  0  0  0  0  0  0  0
   -0.4567   -2.0290    2.2863 H   0  0  0  1  0  0  0  0  0  0  0  0
   -0.4184   -1.5252    3.9588 H   0  0  0  1  0  0  0  0  0  0  0  0
    0.8200   -0.9795    2.8530 H   0  0  0  1  0  0  0  0  0  0  0  0
   -4.9646    1.7477    4.2200 H   0  0  0  1  0  0  0  0  0  0  0  0
   -5.4464    0.0690    4.1698 H   0  0  0  1  0  0  0  0  0  0  0  0
   -6.2442    1.2383    3.1449 H   0  0  0  1  0  0  0  0  0  0  0  0
   -3.8565    7.6941    0.4672 F   0  0  0  1  0  0  0  0  0  0  0  0
   -3.2949    6.4853    0.6610 C   0  0  0  1  0  0  0  0  0  0  0  0
   -2.0390    6.4357    1.2455 C   0  0  0  1  0  0  0  0  0  0  0  0
   -1.4232    5.2167    1.4581 C   0  0  0  1  0  0  0  0  0  0  0  0
   -2.0640    4.0435    1.0918 C   0  0  0  1  0  0  0  0  0  0  0  0
   -3.3163    4.0927    0.5090 C   0  0  0  1  0  0  0  0  0  0  0  0
   -3.9338    5.3154    0.2958 C   0  0  0  1  0  0  0  0  0  0  0  0
   -1.3943    2.7106    1.3292 C   0  0  0  1  0  0  0  0  0  0  0  0
   -1.5599    7.3158    1.5240 H   0  0  0  1  0  0  0  0  0  0  0  0
   -0.4792    5.1798    1.8930 H   0  0  0  1  0  0  0  0  0  0  0  0
   -3.7954    3.2126    0.2305 H   0  0  0  1  0  0  0  0  0  0  0  0
   -4.8778    5.3524   -0.1391 H   0  0  0  1  0  0  0  0  0  0  0  0
   -0.6417    2.5813    0.5797 H   0  0  0  1  0  0  0  0  0  0  0  0
   -0.9350    2.7394    2.2952 H   0  0  0  1  0  0  0  0  0  0  0  0
  1  4  1  0  0  0  0
  2  4  1  0  0  0  0
  2  5  2  0  0  0  0
  2  6  1  0  0  0  0
  3  4  1  0  0  0  0
  3  7  1  0  0  0  0
  3  8  1  0  0  0  0
  4 26  1  0  0  0  0
  6  9  1  0  0  0  0
  6 12  1  0  0  0  0
  8 10  1  0  0  0  0
  8 11  2  0  0  0  0
  9 13  1  0  0  0  0
  9 14  1  0  0  0  0
  9 15  1  0  0  0  0
 10 16  1  0  0  0  0
 10 17  1  0  0  0  0
 10 18  1  0  0  0  0
 19 20  1  0  0  0  0
 20 21  4  0  0  0  0
 20 25  4  0  0  0  0
 21 22  4  0  0  0  0
 21 27  1  0  0  0  0
 22 23  4  0  0  0  0
 22 28  1  0  0  0  0
 23 24  4  0  0  0  0
 23 26  1  0  0  0  0
 24 25  4  0  0  0  0
 24 29  1  0  0  0  0
 25 30  1  0  0  0  0
 26 31  1  0  0  0  0
 26 32  1  0  0  0  0
M  END
> <BCLConfClusterSize>
1

> <ConfClashScore>
0 

> <ConfOneFourInteractionScore>
-0.949001 

> <ConfScore>
-0.0840359 

> <ConfScorePBest>
0.0056693 

> <ConfTolerance>
0.380993 

> <RosettaParamsInstructions>
M  ROOT 3
M  POLY_N_BB 3
M  POLY_CA_BB 4
M  POLY_C_BB 2
M  POLY_O_BB 5
M  POLY_IGNORE 9 10 11 12 13 14 15 16 17 18 
M  POLY_UPPER 6
M  POLY_LOWER 8
M  POLY_CHG 0
M  POLY_PROPERTIES ALPHA_AA L_AA PROTEIN AROMATIC POLYMER 
M  END

$$$$



 32 32  0  0  0  0  0  0  0  0999 V2000
   -2.9712    1.3147    1.3927 H   0  0  0  1  0  0  0  0  0  0  0  0
   -1.3382    0.4567    2.4083 C   0  0  0  1  0  0  0  0  0  0  0  0
   -2.8073    2.2824    3.2091 N   0  0  0  1  0  0  0  0  0  0  0  0
   -2.1969    1.6489    2.0513 C   0  0  0  1  0  0  0  0  0  0  0  0
   -0.8196    0.3636    3.5177 O   0  0  0  1  0  0  0  0  0  0  0  0
   -1.1615   -0.4899    1.4821 N   0  0  0  1  0  0  0  0  0  0  0  0
   -2.3006    2.9649    3.6968 H   0  0  0  1  0  0  0  0  0  0  0  0
   -4.0470    1.9633    3.6352 C   0  0  0  1  0  0  0  0  0  0  0  0
   -0.2533   -1.6099    1.6787 C   0  0  0  1  0  0  0  0  0  0  0  0
   -4.5368    2.5828    4.9245 C   0  0  0  1  0  0  0  0  0  0  0  0
   -4.7586    1.1925    2.9965 O   0  0  0  1  0  0  0  0  0  0  0  0
   -1.6608   -0.4279    0.6412 H   0  0  0  1  0  0  0  0  0  0  0  0
   -0.1503   -1.8067    2.7254 H   0  0  0  1  0  0  0  0  0  0  0  0
    0.7039   -1.3694    1.2653 H   0  0  0  1  0  0  0  0  0  0  0  0
   -0.6458   -2.4770    1.1899 H   0  0  0  1  0  0  0  0  0  0  0  0
   -5.5275    2.2366    5.1333 H   0  0  0  1  0  0  0  0  0  0  0  0
   -4.5446    3.6483    4.8275 H   0  0  0  1  0  0  0  0  0  0  0  0
   -3.8850    2.3018    5.7252 H   0  0  0  1  0  0  0  0  0  0  0  0
   -3.9116    7.6616    0.4395 F   0  0  0  1  0  0  0  0  0  0  0  0
   -3.2836    6.4921    0.6667 C   0  0  0  1  0  0  0  0  0  0  0  0
   -2.0277    6.4356    1.2507 C   0  0  0  1  0  0  0  0  0  0  0  0
   -1.4173    5.2135    1.4607 C   0  0  0  1  0  0  0  0  0  0  0  0
   -2.0634    4.0439    1.0921 C   0  0  0  1  0  0  0  0  0  0  0  0
   -3.3156    4.0999    0.5098 C   0  0  0  1  0  0  0  0  0  0  0  0
   -3.9277    5.3257    0.2993 C   0  0  0  1  0  0  0  0  0  0  0  0
   -1.3994    2.7076    1.3266 C   0  0  0  1  0  0  0  0  0  0  0  0
   -1.5447    7.3130    1.5309 H   0  0  0  1  0  0  0  0  0  0  0  0
   -0.4733    5.1715    1.8952 H   0  0  0  1  0  0  0  0  0  0  0  0
   -3.7986    3.2225    0.2296 H   0  0  0  1  0  0  0  0  0  0  0  0
   -4.8716    5.3677   -0.1352 H   0  0  0  1  0  0  0  0  0  0  0  0
   -1.1343    2.3095    0.3695 H   0  0  0  1  0  0  0  0  0  0  0  0
   -0.5122    2.8867    1.8972 H   0  0  0  1  0  0  0  0  0  0  0  0
  1  4  1  0  0  0  0
  2  4  1  0  0  0  0
  2  5  2  0  0  0  0
  2  6  1  0  0  0  0
  3  4  1  0  0  0  0
  3  7  1  0  0  0  0
  3  8  1  0  0  0  0
  4 26  1  0  0  0  0
  6  9  1  0  0  0  0
  6 12  1  0  0  0  0
  8 10  1  0  0  0  0
  8 11  2  0  0  0  0
  9 13  1  0  0  0  0
  9 14  1  0  0  0  0
  9 15  1  0  0  0  0
 10 16  1  0  0  0  0
 10 17  1  0  0  0  0
 10 18  1  0  0  0  0
 19 20  1  0  0  0  0
 20 21  4  0  0  0  0
 20 25  4  0  0  0  0
 21 22  4  0  0  0  0
 21 27  1  0  0  0  0
 22 23  4  0  0  0  0
 22 28  1  0  0  0  0
 23 24  4  0  0  0  0
 23 26  1  0  0  0  0
 24 25  4  0  0  0  0
 24 29  1  0  0  0  0
 25 30  1  0  0  0  0
 26 31  1  0  0  0  0
 26 32  1  0  0  0  0
M  END
> <BCLConfClusterSize>
1

> <ConfClashScore>
0 

> <ConfOneFourInteractionScore>
-0.972289 

> <ConfScore>
-0.0825246 

> <ConfScorePBest>
0.00564082 

> <ConfTolerance>
0.421918 

> <RosettaParamsInstructions>
M  ROOT 3
M  POLY_N_BB 3
M  POLY_CA_BB 4
M  POLY_C_BB 2
M  POLY_O_BB 5
M  POLY_IGNORE 9 10 11 12 13 14 15 16 17 18 
M  POLY_UPPER 6
M  POLY_LOWER 8
M  POLY_CHG 0
M  POLY_PROPERTIES ALPHA_AA L_AA PROTEIN AROMATIC POLYMER 
M  END

$$$$



 32 32  0  0  0  0  0  0  0  0999 V2000
   -0.2404    2.7768   -0.4471 H   0  0  0  1  0  0  0  0  0  0  0  0
    0.1200    0.9301    0.5282 C   0  0  0  1  0  0  0  0  0  0  0  0
   -1.8740    1.5329   -0.7534 N   0  0  0  1  0  0  0  0  0  0  0  0
   -0.8077    2.0477    0.0927 C   0  0  0  1  0  0  0  0  0  0  0  0
   -0.3779   -0.1660    0.7815 O   0  0  0  1  0  0  0  0  0  0  0  0
    1.4225    1.1919    0.6139 N   0  0  0  1  0  0  0  0  0  0  0  0
   -2.8044    1.6694   -0.4774 H   0  0  0  1  0  0  0  0  0  0  0  0
   -1.6287    0.8808   -1.8934 C   0  0  0  1  0  0  0  0  0  0  0  0
    2.3730    0.2362    1.1626 C   0  0  0  1  0  0  0  0  0  0  0  0
   -2.8428    0.5605   -2.7434 C   0  0  0  1  0  0  0  0  0  0  0  0
   -0.4970    0.5529   -2.2474 O   0  0  0  1  0  0  0  0  0  0  0  0
    1.7527    2.0582    0.2964 H   0  0  0  1  0  0  0  0  0  0  0  0
    2.7140    0.5794    2.1169 H   0  0  0  1  0  0  0  0  0  0  0  0
    3.2070    0.1419    0.4989 H   0  0  0  1  0  0  0  0  0  0  0  0
    1.8969   -0.7154    1.2753 H   0  0  0  1  0  0  0  0  0  0  0  0
   -2.8679   -0.4892   -2.9491 H   0  0  0  1  0  0  0  0  0  0  0  0
   -2.7864    1.1029   -3.6641 H   0  0  0  1  0  0  0  0  0  0  0  0
   -3.7308    0.8419   -2.2169 H   0  0  0  1  0  0  0  0  0  0  0  0
   -3.8843    7.6784    0.4533 F   0  0  0  1  0  0  0  0  0  0  0  0
   -3.2892    6.4887    0.6639 C   0  0  0  1  0  0  0  0  0  0  0  0
   -2.0333    6.4356    1.2481 C   0  0  0  1  0  0  0  0  0  0  0  0
   -1.4202    5.2151    1.4594 C   0  0  0  1  0  0  0  0  0  0  0  0
   -2.0637    4.0436    1.0920 C   0  0  0  1  0  0  0  0  0  0  0  0
   -3.3160    4.0963    0.5094 C   0  0  0  1  0  0  0  0  0  0  0  0
   -3.9307    5.3205    0.2975 C   0  0  0  1  0  0  0  0  0  0  0  0
   -1.3968    2.7090    1.3279 C   0  0  0  1  0  0  0  0  0  0  0  0
   -1.5523    7.3143    1.5275 H   0  0  0  1  0  0  0  0  0  0  0  0
   -0.4762    5.1756    1.8941 H   0  0  0  1  0  0  0  0  0  0  0  0
   -3.7969    3.2175    0.2300 H   0  0  0  1  0  0  0  0  0  0  0  0
   -4.8747    5.3600   -0.1371 H   0  0  0  1  0  0  0  0  0  0  0  0
   -0.6055    2.8556    2.0330 H   0  0  0  1  0  0  0  0  0  0  0  0
   -2.1259    2.0444    1.7422 H   0  0  0  1  0  0  0  0  0  0  0  0
  1  4  1  0  0  0  0
  2  4  1  0  0  0  0
  2  5  2  0  0  0  0
  2  6  1  0  0  0  0
  3  4  1  0  0  0  0
  3  7  1  0  0  0  0
  3  8  1  0  0  0  0
  4 26  1  0  0  0  0
  6  9  1  0  0  0  0
  6 12  1  0  0  0  0
  8 10  1  0  0  0  0
  8 11  2  0  0  0  0
  9 13  1  0  0  0  0
  9 14  1  0  0  0  0
  9 15  1  0  0  0  0
 10 16  1  0  0  0  0
 10 17  1  0  0  0  0
 10 18  1  0  0  0  0
 19 20  1  0  0  0  0
 20 21  4  0  0  0  0
 20 25  4  0  0  0  0
 21 22  4  0  0  0  0
 21 27  1  0  0  0  0
 22 23  4  0  0  0  0
 22 28  1  0  0  0  0
 23 24  4  0  0  0  0
 23 26  1  0  0  0  0
 24 25  4  0  0  0  0
 24 29  1  0  0  0  0
 25 30  1  0  0  0  0
 26 31  1  0  0  0  0
 26 32  1  0  0  0  0
M  END
> <BCLConfClusterSize>
1

> <ConfClashScore>
0 

> <ConfOneFourInteractionScore>
-0.981931 

> <ConfScore>
-0.0788885 

> <ConfScorePBest>
0.00561234 

> <ConfTolerance>
0.284739 

> <RosettaParamsInstructions>
M  ROOT 3
M  POLY_N_BB 3
M  POLY_CA_BB 4
M  POLY_C_BB 2
M  POLY_O_BB 5
M  POLY_IGNORE 9 10 11 12 13 14 15 16 17 18 
M  POLY_UPPER 6
M  POLY_LOWER 8
M  POLY_CHG 0
M  POLY_PROPERTIES ALPHA_AA L_AA PROTEIN AROMATIC POLYMER 
M  END

$$$$



 32 32  0  0  0  0  0  0  0  0999 V2000
    0.0462    1.4008    0.5040 H   0  0  0  1  0  0  0  0  0  0  0  0
   -0.9015    2.3128   -1.1426 C   0  0  0  1  0  0  0  0  0  0  0  0
    0.7575    3.3237    0.3008 N   0  0  0  1  0  0  0  0  0  0  0  0
   -0.3417    2.3704    0.2708 C   0  0  0  1  0  0  0  0  0  0  0  0
   -1.4808    1.3094   -1.5556 O   0  0  0  1  0  0  0  0  0  0  0  0
   -0.8051    3.4385   -1.8676 N   0  0  0  1  0  0  0  0  0  0  0  0
    0.7790    4.0237    0.9863 H   0  0  0  1  0  0  0  0  0  0  0  0
    1.7372    3.2466   -0.6043 C   0  0  0  1  0  0  0  0  0  0  0  0
   -1.3074    3.5309   -3.2303 C   0  0  0  1  0  0  0  0  0  0  0  0
    2.8546    4.2861   -0.5117 C   0  0  0  1  0  0  0  0  0  0  0  0
    1.7179    2.4435   -1.5224 O   0  0  0  1  0  0  0  0  0  0  0  0
   -0.3816    4.2254   -1.4653 H   0  0  0  1  0  0  0  0  0  0  0  0
   -2.1618    2.8961   -3.3399 H   0  0  0  1  0  0  0  0  0  0  0  0
   -0.5439    3.2219   -3.9134 H   0  0  0  1  0  0  0  0  0  0  0  0
   -1.5859    4.5426   -3.4397 H   0  0  0  1  0  0  0  0  0  0  0  0
    3.4781    4.0663    0.3297 H   0  0  0  1  0  0  0  0  0  0  0  0
    2.4268    5.2597   -0.3935 H   0  0  0  1  0  0  0  0  0  0  0  0
    3.4410    4.2598   -1.4063 H   0  0  0  1  0  0  0  0  0  0  0  0
   -3.8843    7.6784    0.4533 F   0  0  0  1  0  0  0  0  0  0  0  0
   -3.2892    6.4887    0.6639 C   0  0  0  1  0  0  0  0  0  0  0  0
   -2.0333    6.4356    1.2481 C   0  0  0  1  0  0  0  0  0  0  0  0
   -1.4202    5.2151    1.4594 C   0  0  0  1  0  0  0  0  0  0  0  0
   -2.0637    4.0436    1.0920 C   0  0  0  1  0  0  0  0  0  0  0  0
   -3.3160    4.0963    0.5094 C   0  0  0  1  0  0  0  0  0  0  0  0
   -3.9307    5.3205    0.2975 C   0  0  0  1  0  0  0  0  0  0  0  0
   -1.3968    2.7090    1.3279 C   0  0  0  1  0  0  0  0  0  0  0  0
   -1.5523    7.3143    1.5275 H   0  0  0  1  0  0  0  0  0  0  0  0
   -0.4762    5.1756    1.8941 H   0  0  0  1  0  0  0  0  0  0  0  0
   -3.7969    3.2175    0.2300 H   0  0  0  1  0  0  0  0  0  0  0  0
   -4.8747    5.3600   -0.1371 H   0  0  0  1  0  0  0  0  0  0  0  0
   -0.9233    2.7298    2.2872 H   0  0  0  1  0  0  0  0  0  0  0  0
   -2.1474    1.9465    1.3165 H   0  0  0  1  0  0  0  0  0  0  0  0
  1  4  1  0  0  0  0
  2  4  1  0  0  0  0
  2  5  2  0  0  0  0
  2  6  1  0  0  0  0
  3  4  1  0  0  0  0
  3  7  1  0  0  0  0
  3  8  1  0  0  0  0
  4 26  1  0  0  0  0
  6  9  1  0  0  0  0
  6 12  1  0  0  0  0
  8 10  1  0  0  0  0
  8 11  2  0  0  0  0
  9 13  1  0  0  0  0
  9 14  1  0  0  0  0
  9 15  1  0  0  0  0
 10 16  1  0  0  0  0
 10 17  1  0  0  0  0
 10 18  1  0  0  0  0
 19 20  1  0  0  0  0
 20 21  4  0  0  0  0
 20 25  4  0  0  0  0
 21 22  4  0  0  0  0
 21 27  1  0  0  0  0
 22 23  4  0  0  0  0
 22 28  1  0  0  0  0
 23 24  4  0  0  0  0
 23 26  1  0  0  0  0
 24 25  4  0  0  0  0
 24 29  1  0  0  0  0
 25 30  1  0  0  0  0
 26 31  1  0  0  0  0
 26 32  1  0  0  0  0
M  END
> <BCLConfClusterSize>
1

> <ConfClashScore>
0 

> <ConfOneFourInteractionScore>
-0.950605 

> <ConfScore>
-0.0761165 

> <ConfScorePBest>
0.00558386 

> <ConfTolerance>
0.188612 

> <RosettaParamsInstructions>
M  ROOT 3
M  POLY_N_BB 3
M  POLY_CA_BB 4
M  POLY_C_BB 2
M  POLY_O_BB 5
M  POLY_IGNORE 9 10 11 12 13 14 15 16 17 18 
M  POLY_UPPER 6
M  POLY_LOWER 8
M  POLY_CHG 0
M  POLY_PROPERTIES ALPHA_AA L_AA PROTEIN AROMATIC POLYMER 
M  END

$$$$



 32 32  0  0  0  0  0  0  0  0999 V2000
   -0.9745    2.0342   -0.6088 H   0  0  0  1  0  0  0  0  0  0  0  0
    0.5302    3.4218   -0.1345 C   0  0  0  1  0  0  0  0  0  0  0  0
    0.3491    1.0945    0.6442 N   0  0  0  1  0  0  0  0  0  0  0  0
   -0.4021    2.2806    0.2610 C   0  0  0  1  0  0  0  0  0  0  0  0
    1.4792    3.7446    0.5752 O   0  0  0  1  0  0  0  0  0  0  0  0
    0.2423    4.0350   -1.2927 N   0  0  0  1  0  0  0  0  0  0  0  0
    0.7944    1.0782    1.5170 H   0  0  0  1  0  0  0  0  0  0  0  0
    0.4566   -0.0133   -0.1828 C   0  0  0  1  0  0  0  0  0  0  0  0
    0.9991    5.1807   -1.7748 C   0  0  0  1  0  0  0  0  0  0  0  0
    1.1273   -1.2525    0.3398 C   0  0  0  1  0  0  0  0  0  0  0  0
    0.0019    0.0554   -1.3101 O   0  0  0  1  0  0  0  0  0  0  0  0
   -0.5035    3.6996   -1.8327 H   0  0  0  1  0  0  0  0  0  0  0  0
    1.9844    5.1588   -1.3584 H   0  0  0  1  0  0  0  0  0  0  0  0
    0.5068    6.0833   -1.4784 H   0  0  0  1  0  0  0  0  0  0  0  0
    1.0623    5.1424   -2.8423 H   0  0  0  1  0  0  0  0  0  0  0  0
    0.6316   -1.5784    1.2304 H   0  0  0  1  0  0  0  0  0  0  0  0
    2.1519   -1.0372    0.5607 H   0  0  0  1  0  0  0  0  0  0  0  0
    1.0759   -2.0244   -0.3994 H   0  0  0  1  0  0  0  0  0  0  0  0
   -3.8565    7.6941    0.4672 F   0  0  0  1  0  0  0  0  0  0  0  0
   -3.2949    6.4853    0.6610 C   0  0  0  1  0  0  0  0  0  0  0  0
   -2.0390    6.4357    1.2455 C   0  0  0  1  0  0  0  0  0  0  0  0
   -1.4232    5.2167    1.4581 C   0  0  0  1  0  0  0  0  0  0  0  0
   -2.0640    4.0435    1.0918 C   0  0  0  1  0  0  0  0  0  0  0  0
   -3.3163    4.0927    0.5090 C   0  0  0  1  0  0  0  0  0  0  0  0
   -3.9338    5.3154    0.2958 C   0  0  0  1  0  0  0  0  0  0  0  0
   -1.3943    2.7106    1.3292 C   0  0  0  1  0  0  0  0  0  0  0  0
   -1.5599    7.3158    1.5240 H   0  0  0  1  0  0  0  0  0  0  0  0
   -0.4792    5.1798    1.8930 H   0  0  0  1  0  0  0  0  0  0  0  0
   -3.7954    3.2126    0.2305 H   0  0  0  1  0  0  0  0  0  0  0  0
   -4.8778    5.3524   -0.1391 H   0  0  0  1  0  0  0  0  0  0  0  0
   -0.8724    2.7649    2.2617 H   0  0  0  1  0  0  0  0  0  0  0  0
   -2.1579    1.9637    1.3902 H   0  0  0  1  0  0  0  0  0  0  0  0
  1  4  1  0  0  0  0
  2  4  1  0  0  0  0
  2  5  2  0  0  0  0
  2  6  1  0  0  0  0
  3  4  1  0  0  0  0
  3  7  1  0  0  0  0
  3  8  1  0  0  0  0
  4 26  1  0  0  0  0
  6  9  1  0  0  0  0
  6 12  1  0  0  0  0
  8 10  1  0  0  0  0
  8 11  2  0  0  0  0
  9 13  1  0  0  0  0
  9 14  1  0  0  0  0
  9 15  1  0  0  0  0
 10 16  1  0  0  0  0
 10 17  1  0  0  0  0
 10 18  1  0  0  0  0
 19 20  1  0  0  0  0
 20 21  4  0  0  0  0
 20 25  4  0  0  0  0
 21 22  4  0  0  0  0
 21 27  1  0  0  0  0
 22 23  4  0  0  0  0
 22 28  1  0  0  0  0
 23 24  4  0  0  0  0
 23 26  1  0  0  0  0
 24 25  4  0  0  0  0
 24 29  1  0  0  0  0
 25 30  1  0  0  0  0
 26 31  1  0  0  0  0
 26 32  1  0  0  0  0
M  END
> <BCLConfClusterSize>
1

> <ConfClashScore>
0 

> <ConfOneFourInteractionScore>
-0.981931 

> <ConfScore>
-0.0756621 

> <ConfScorePBest>
0.00555537 

> <ConfTolerance>
0.218356 

> <RosettaParamsInstructions>
M  ROOT 3
M  POLY_N_BB 3
M  POLY_CA_BB 4
M  POLY_C_BB 2
M  POLY_O_BB 5
M  POLY_IGNORE 9 10 11 12 13 14 15 16 17 18 
M  POLY_UPPER 6
M  POLY_LOWER 8
M  POLY_CHG 0
M  POLY_PROPERTIES ALPHA_AA L_AA PROTEIN AROMATIC POLYMER 
M  END

$$$$



 32 32  0  0  0  0  0  0  0  0999 V2000
   -0.2145    1.2089    0.4483 H   0  0  0  1  0  0  0  0  0  0  0  0
   -1.6586    1.7603   -0.9738 C   0  0  0  1  0  0  0  0  0  0  0  0
    0.3666    3.0232   -0.3271 N   0  0  0  1  0  0  0  0  0  0  0  0
   -0.6785    2.1178    0.1265 C   0  0  0  1  0  0  0  0  0  0  0  0
   -2.1512    0.6333   -0.9625 O   0  0  0  1  0  0  0  0  0  0  0  0
   -1.9351    2.6824   -1.8933 N   0  0  0  1  0  0  0  0  0  0  0  0
    0.4753    3.8684    0.1568 H   0  0  0  1  0  0  0  0  0  0  0  0
    1.1891    2.7889   -1.3536 C   0  0  0  1  0  0  0  0  0  0  0  0
   -2.8250    2.4199   -3.0145 C   0  0  0  1  0  0  0  0  0  0  0  0
    2.2399    3.8512   -1.6115 C   0  0  0  1  0  0  0  0  0  0  0  0
    1.1139    1.7815   -2.0558 O   0  0  0  1  0  0  0  0  0  0  0  0
   -1.5251    3.5689   -1.8124 H   0  0  0  1  0  0  0  0  0  0  0  0
   -2.8417    1.3698   -3.2189 H   0  0  0  1  0  0  0  0  0  0  0  0
   -2.4747    2.9456   -3.8782 H   0  0  0  1  0  0  0  0  0  0  0  0
   -3.8127    2.7514   -2.7708 H   0  0  0  1  0  0  0  0  0  0  0  0
    2.6928    4.1379   -0.6854 H   0  0  0  1  0  0  0  0  0  0  0  0
    1.7799    4.7055   -2.0627 H   0  0  0  1  0  0  0  0  0  0  0  0
    2.9885    3.4600   -2.2683 H   0  0  0  1  0  0  0  0  0  0  0  0
   -3.8565    7.6941    0.4672 F   0  0  0  1  0  0  0  0  0  0  0  0
   -3.2949    6.4853    0.6610 C   0  0  0  1  0  0  0  0  0  0  0  0
   -2.0390    6.4357    1.2455 C   0  0  0  1  0  0  0  0  0  0  0  0
   -1.4232    5.2167    1.4581 C   0  0  0  1  0  0  0  0  0  0  0  0
   -2.0640    4.0435    1.0918 C   0  0  0  1  0  0  0  0  0  0  0  0
   -3.3163    4.0927    0.5090 C   0  0  0  1  0  0  0  0  0  0  0  0
   -3.9338    5.3154    0.2958 C   0  0  0  1  0  0  0  0  0  0  0  0
   -1.3943    2.7106    1.3292 C   0  0  0  1  0  0  0  0  0  0  0  0
   -1.5599    7.3158    1.5240 H   0  0  0  1  0  0  0  0  0  0  0  0
   -0.4792    5.1798    1.8930 H   0  0  0  1  0  0  0  0  0  0  0  0
   -3.7954    3.2126    0.2305 H   0  0  0  1  0  0  0  0  0  0  0  0
   -4.8778    5.3524   -0.1391 H   0  0  0  1  0  0  0  0  0  0  0  0
   -0.6755    2.8371    2.1117 H   0  0  0  1  0  0  0  0  0  0  0  0
   -2.1447    2.0152    1.6425 H   0  0  0  1  0  0  0  0  0  0  0  0
  1  4  1  0  0  0  0
  2  4  1  0  0  0  0
  2  5  2  0  0  0  0
  2  6  1  0  0  0  0
  3  4  1  0  0  0  0
  3  7  1  0  0  0  0
  3  8  1  0  0  0  0
  4 26  1  0  0  0  0
  6  9  1  0  0  0  0
  6 12  1  0  0  0  0
  8 10  1  0  0  0  0
  8 11  2  0  0  0  0
  9 13  1  0  0  0  0
  9 14  1  0  0  0  0
  9 15  1  0  0  0  0
 10 16  1  0  0  0  0
 10 17  1  0  0  0  0
 10 18  1  0  0  0  0
 19 20  1  0  0  0  0
 20 21  4  0  0  0  0
 20 25  4  0  0  0  0
 21 22  4  0  0  0  0
 21 27  1  0  0  0  0
 22 23  4  0  0  0  0
 22 28  1  0  0  0  0
 23 24  4  0  0  0  0
 23 26  1  0  0  0  0
 24 25  4  0  0  0  0
 24 29  1  0  0  0  0
 25 30  1  0  0  0  0
 26 31  1  0  0  0  0
 26 32  1  0  0  0  0
M  END
> <BCLConfClusterSize>
1

> <ConfClashScore>
0 

> <ConfOneFourInteractionScore>
-0.950605 

> <ConfScore>
-0.0752041 

> <ConfScorePBest>
0.00552689 

> <ConfTolerance>
0.181338 

> <RosettaParamsInstructions>
M  ROOT 3
M  POLY_N_BB 3
M  POLY_CA_BB 4
M  POLY_C_BB 2
M  POLY_O_BB 5
M  POLY_IGNORE 9 10 11 12 13 14 15 16 17 18 
M  POLY_UPPER 6
M  POLY_LOWER 8
M  POLY_CHG 0
M  POLY_PROPERTIES ALPHA_AA L_AA PROTEIN AROMATIC POLYMER 
M  END

$$$$



 32 32  0  0  0  0  0  0  0  0999 V2000
   -0.2609    1.1690    0.3956 H   0  0  0  1  0  0  0  0  0  0  0  0
   -1.8348    1.7323   -0.9103 C   0  0  0  1  0  0  0  0  0  0  0  0
    0.2239    2.9865   -0.4826 N   0  0  0  1  0  0  0  0  0  0  0  0
   -0.7495    2.0728    0.0968 C   0  0  0  1  0  0  0  0  0  0  0  0
   -2.2385    2.5575   -1.7254 O   0  0  0  1  0  0  0  0  0  0  0  0
   -2.2866    0.4708   -0.8114 N   0  0  0  1  0  0  0  0  0  0  0  0
   -0.0537    3.5663   -1.2224 H   0  0  0  1  0  0  0  0  0  0  0  0
    1.4826    3.0623   -0.0412 C   0  0  0  1  0  0  0  0  0  0  0  0
   -3.2995   -0.0669   -1.7127 C   0  0  0  1  0  0  0  0  0  0  0  0
    2.3232    4.2408   -0.5485 C   0  0  0  1  0  0  0  0  0  0  0  0
    1.9475    2.2957    0.7862 O   0  0  0  1  0  0  0  0  0  0  0  0
   -1.9229   -0.1081   -0.1093 H   0  0  0  1  0  0  0  0  0  0  0  0
   -3.0073    0.1126   -2.7262 H   0  0  0  1  0  0  0  0  0  0  0  0
   -4.2370    0.4123   -1.5218 H   0  0  0  1  0  0  0  0  0  0  0  0
   -3.3973   -1.1201   -1.5512 H   0  0  0  1  0  0  0  0  0  0  0  0
    1.6764    5.0014   -0.9334 H   0  0  0  1  0  0  0  0  0  0  0  0
    2.9780    3.9036   -1.3247 H   0  0  0  1  0  0  0  0  0  0  0  0
    2.9016    4.6396    0.2585 H   0  0  0  1  0  0  0  0  0  0  0  0
   -3.8843    7.6784    0.4533 F   0  0  0  1  0  0  0  0  0  0  0  0
   -3.2892    6.4887    0.6639 C   0  0  0  1  0  0  0  0  0  0  0  0
   -2.0333    6.4356    1.2481 C   0  0  0  1  0  0  0  0  0  0  0  0
   -1.4202    5.2151    1.4594 C   0  0  0  1  0  0  0  0  0  0  0  0
   -2.0637    4.0436    1.0920 C   0  0  0  1  0  0  0  0  0  0  0  0
   -3.3160    4.0963    0.5094 C   0  0  0  1  0  0  0  0  0  0  0  0
   -3.9307    5.3205    0.2975 C   0  0  0  1  0  0  0  0  0  0  0  0
   -1.3968    2.7090    1.3279 C   0  0  0  1  0  0  0  0  0  0  0  0
   -1.5523    7.3143    1.5275 H   0  0  0  1  0  0  0  0  0  0  0  0
   -0.4762    5.1756    1.8941 H   0  0  0  1  0  0  0  0  0  0  0  0
   -3.7969    3.2175    0.2300 H   0  0  0  1  0  0  0  0  0  0  0  0
   -4.8747    5.3600   -0.1371 H   0  0  0  1  0  0  0  0  0  0  0  0
   -0.6356    2.8466    2.0672 H   0  0  0  1  0  0  0  0  0  0  0  0
   -2.1369    2.0313    1.6991 H   0  0  0  1  0  0  0  0  0  0  0  0
  1  4  1  0  0  0  0
  2  4  1  0  0  0  0
  2  5  2  0  0  0  0
  2  6  1  0  0  0  0
  3  4  1  0  0  0  0
  3  7  1  0  0  0  0
  3  8  1  0  0  0  0
  4 26  1  0  0  0  0
  6  9  1  0  0  0  0
  6 12  1  0  0  0  0
  8 10  1  0  0  0  0
  8 11  2  0  0  0  0
  9 13  1  0  0  0  0
  9 14  1  0  0  0  0
  9 15  1  0  0  0  0
 10 16  1  0  0  0  0
 10 17  1  0  0  0  0
 10 18  1  0  0  0  0
 19 20  1  0  0  0  0
 20 21  4  0  0  0  0
 20 25  4  0  0  0  0
 21 22  4  0  0  0  0
 21 27  1  0  0  0  0
 22 23  4  0  0  0  0
 22 28  1  0  0  0  0
 23 24  4  0  0  0  0
 23 26  1  0  0  0  0
 24 25  4  0  0  0  0
 24 29  1  0  0  0  0
 25 30  1  0  0  0  0
 26 31  1  0  0  0  0
 26 32  1  0  0  0  0
M  END
> <BCLConfClusterSize>
1

> <ConfClashScore>
0 

> <ConfOneFourInteractionScore>
-0.980789 

> <ConfScore>
-0.075017 

> <ConfScorePBest>
0.00549841 

> <ConfTolerance>
0.287942 

> <RosettaParamsInstructions>
M  ROOT 3
M  POLY_N_BB 3
M  POLY_CA_BB 4
M  POLY_C_BB 2
M  POLY_O_BB 5
M  POLY_IGNORE 9 10 11 12 13 14 15 16 17 18 
M  POLY_UPPER 6
M  POLY_LOWER 8
M  POLY_CHG 0
M  POLY_PROPERTIES ALPHA_AA L_AA PROTEIN AROMATIC POLYMER 
M  END

$$$$



 32 32  0  0  0  0  0  0  0  0999 V2000
   -0.0631    1.3322    0.4174 H   0  0  0  1  0  0  0  0  0  0  0  0
   -1.3790    2.0804   -1.0658 C   0  0  0  1  0  0  0  0  0  0  0  0
    0.5192    3.2630   -0.0755 N   0  0  0  1  0  0  0  0  0  0  0  0
   -0.5156    2.2687    0.1664 C   0  0  0  1  0  0  0  0  0  0  0  0
   -1.7177    0.9594   -1.4428 O   0  0  0  1  0  0  0  0  0  0  0  0
   -1.7395    3.2057   -1.7028 N   0  0  0  1  0  0  0  0  0  0  0  0
    0.5140    4.0889    0.4519 H   0  0  0  1  0  0  0  0  0  0  0  0
    1.4759    3.0889   -0.9917 C   0  0  0  1  0  0  0  0  0  0  0  0
   -2.5282    3.1336   -2.9237 C   0  0  0  1  0  0  0  0  0  0  0  0
    2.5964    4.1105   -0.9763 C   0  0  0  1  0  0  0  0  0  0  0  0
    1.4655    2.1649   -1.8040 O   0  0  0  1  0  0  0  0  0  0  0  0
   -1.4711    4.0777   -1.3449 H   0  0  0  1  0  0  0  0  0  0  0  0
   -2.2621    2.2525   -3.4693 H   0  0  0  1  0  0  0  0  0  0  0  0
   -2.3342    3.9973   -3.5249 H   0  0  0  1  0  0  0  0  0  0  0  0
   -3.5682    3.0981   -2.6746 H   0  0  0  1  0  0  0  0  0  0  0  0
    2.1938    5.0849   -1.1586 H   0  0  0  1  0  0  0  0  0  0  0  0
    3.3080    3.8705   -1.7384 H   0  0  0  1  0  0  0  0  0  0  0  0
    3.0780    4.0969   -0.0209 H   0  0  0  1  0  0  0  0  0  0  0  0
   -3.9116    7.6616    0.4395 F   0  0  0  1  0  0  0  0  0  0  0  0
   -3.2836    6.4921    0.6667 C   0  0  0  1  0  0  0  0  0  0  0  0
   -2.0277    6.4356    1.2507 C   0  0  0  1  0  0  0  0  0  0  0  0
   -1.4173    5.2135    1.4607 C   0  0  0  1  0  0  0  0  0  0  0  0
   -2.0634    4.0439    1.0921 C   0  0  0  1  0  0  0  0  0  0  0  0
   -3.3156    4.0999    0.5098 C   0  0  0  1  0  0  0  0  0  0  0  0
   -3.9277    5.3257    0.2993 C   0  0  0  1  0  0  0  0  0  0  0  0
   -1.3994    2.7076    1.3266 C   0  0  0  1  0  0  0  0  0  0  0  0
   -1.5447    7.3130    1.5309 H   0  0  0  1  0  0  0  0  0  0  0  0
   -0.4733    5.1715    1.8952 H   0  0  0  1  0  0  0  0  0  0  0  0
   -3.7986    3.2225    0.2296 H   0  0  0  1  0  0  0  0  0  0  0  0
   -4.8716    5.3677   -0.1352 H   0  0  0  1  0  0  0  0  0  0  0  0
   -0.7957    2.7771    2.2073 H   0  0  0  1  0  0  0  0  0  0  0  0
   -2.1607    1.9700    1.4728 H   0  0  0  1  0  0  0  0  0  0  0  0
  1  4  1  0  0  0  0
  2  4  1  0  0  0  0
  2  5  2  0  0  0  0
  2  6  1  0  0  0  0
  3  4  1  0  0  0  0
  3  7  1  0  0  0  0
  3  8  1  0  0  0  0
  4 26  1  0  0  0  0
  6  9  1  0  0  0  0
  6 12  1  0  0  0  0
  8 10  1  0  0  0  0
  8 11  2  0  0  0  0
  9 13  1  0  0  0  0
  9 14  1  0  0  0  0
  9 15  1  0  0  0  0
 10 16  1  0  0  0  0
 10 17  1  0  0  0  0
 10 18  1  0  0  0  0
 19 20  1  0  0  0  0
 20 21  4  0  0  0  0
 20 25  4  0  0  0  0
 21 22  4  0  0  0  0
 21 27  1  0  0  0  0
 22 23  4  0  0  0  0
 22 28  1  0  0  0  0
 23 24  4  0  0  0  0
 23 26  1  0  0  0  0
 24 25  4  0  0  0  0
 24 29  1  0  0  0  0
 25 30  1  0  0  0  0
 26 31  1  0  0  0  0
 26 32  1  0  0  0  0
M  END
> <BCLConfClusterSize>
1

> <ConfClashScore>
0 

> <ConfOneFourInteractionScore>
-0.950605 

> <ConfScore>
-0.0739489 

> <ConfScorePBest>
0.00546993 

> <ConfTolerance>
0.232286 

> <RosettaParamsInstructions>
M  ROOT 3
M  POLY_N_BB 3
M  POLY_CA_BB 4
M  POLY_C_BB 2
M  POLY_O_BB 5
M  POLY_IGNORE 9 10 11 12 13 14 15 16 17 18 
M  POLY_UPPER 6
M  POLY_LOWER 8
M  POLY_CHG 0
M  POLY_PROPERTIES ALPHA_AA L_AA PROTEIN AROMATIC POLYMER 
M  END

$$$$



 32 32  0  0  0  0  0  0  0  0999 V2000
    0.6195    3.3670    1.4709 H   0  0  0  1  0  0  0  0  0  0  0  0
    0.6130    1.2810    1.0751 C   0  0  0  1  0  0  0  0  0  0  0  0
    0.1461    3.0740   -0.5320 N   0  0  0  1  0  0  0  0  0  0  0  0
    0.0578    2.6825    0.8703 C   0  0  0  1  0  0  0  0  0  0  0  0
    0.0528    0.3023    0.5832 O   0  0  0  1  0  0  0  0  0  0  0  0
    1.7301    1.1454    1.8071 N   0  0  0  1  0  0  0  0  0  0  0  0
   -0.2336    2.4955   -1.2260 H   0  0  0  1  0  0  0  0  0  0  0  0
    0.7435    4.2196   -0.8723 C   0  0  0  1  0  0  0  0  0  0  0  0
    2.2400   -0.1804    2.1236 C   0  0  0  1  0  0  0  0  0  0  0  0
    0.7545    4.5419   -2.3539 C   0  0  0  1  0  0  0  0  0  0  0  0
    1.2569    4.9766   -0.0507 O   0  0  0  1  0  0  0  0  0  0  0  0
    2.2033    1.9410    2.1291 H   0  0  0  1  0  0  0  0  0  0  0  0
    1.9146   -0.8755    1.3780 H   0  0  0  1  0  0  0  0  0  0  0  0
    1.8707   -0.4852    3.0804 H   0  0  0  1  0  0  0  0  0  0  0  0
    3.3094   -0.1552    2.1449 H   0  0  0  1  0  0  0  0  0  0  0  0
    0.4559    5.5589   -2.5003 H   0  0  0  1  0  0  0  0  0  0  0  0
    0.0737    3.8935   -2.8648 H   0  0  0  1  0  0  0  0  0  0  0  0
    1.7416    4.4009   -2.7420 H   0  0  0  1  0  0  0  0  0  0  0  0
   -3.8565    7.6941    0.4672 F   0  0  0  1  0  0  0  0  0  0  0  0
   -3.2949    6.4853    0.6610 C   0  0  0  1  0  0  0  0  0  0  0  0
   -2.0390    6.4357    1.2455 C   0  0  0  1  0  0  0  0  0  0  0  0
   -1.4232    5.2167    1.4581 C   0  0  0  1  0  0  0  0  0  0  0  0
   -2.0640    4.0435    1.0918 C   0  0  0  1  0  0  0  0  0  0  0  0
   -3.3163    4.0927    0.5090 C   0  0  0  1  0  0  0  0  0  0  0  0
   -3.9338    5.3154    0.2958 C   0  0  0  1  0  0  0  0  0  0  0  0
   -1.3943    2.7106    1.3292 C   0  0  0  1  0  0  0  0  0  0  0  0
   -1.5599    7.3158    1.5240 H   0  0  0  1  0  0  0  0  0  0  0  0
   -0.4792    5.1798    1.8930 H   0  0  0  1  0  0  0  0  0  0  0  0
   -3.7954    3.2126    0.2305 H   0  0  0  1  0  0  0  0  0  0  0  0
   -4.8778    5.3524   -0.1391 H   0  0  0  1  0  0  0  0  0  0  0  0
   -1.4245    2.4961    2.3770 H   0  0  0  1  0  0  0  0  0  0  0  0
   -1.9350    1.9577    0.7947 H   0  0  0  1  0  0  0  0  0  0  0  0
  1  4  1  0  0  0  0
  2  4  1  0  0  0  0
  2  5  2  0  0  0  0
  2  6  1  0  0  0  0
  3  4  1  0  0  0  0
  3  7  1  0  0  0  0
  3  8  1  0  0  0  0
  4 26  1  0  0  0  0
  6  9  1  0  0  0  0
  6 12  1  0  0  0  0
  8 10  1  0  0  0  0
  8 11  2  0  0  0  0
  9 13  1  0  0  0  0
  9 14  1  0  0  0  0
  9 15  1  0  0  0  0
 10 16  1  0  0  0  0
 10 17  1  0  0  0  0
 10 18  1  0  0  0  0
 19 20  1  0  0  0  0
 20 21  4  0  0  0  0
 20 25  4  0  0  0  0
 21 22  4  0  0  0  0
 21 27  1  0  0  0  0
 22 23  4  0  0  0  0
 22 28  1  0  0  0  0
 23 24  4  0  0  0  0
 23 26  1  0  0  0  0
 24 25  4  0  0  0  0
 24 29  1  0  0  0  0
 25 30  1  0  0  0  0
 26 31  1  0  0  0  0
 26 32  1  0  0  0  0
M  END
> <BCLConfClusterSize>
1

> <ConfClashScore>
0 

> <ConfOneFourInteractionScore>
-0.98383 

> <ConfScore>
-0.0731303 

> <ConfScorePBest>
0.00544145 

> <ConfTolerance>
0.410429 

> <RosettaParamsInstructions>
M  ROOT 3
M  POLY_N_BB 3
M  POLY_CA_BB 4
M  POLY_C_BB 2
M  POLY_O_BB 5
M  POLY_IGNORE 9 10 11 12 13 14 15 16 17 18 
M  POLY_UPPER 6
M  POLY_LOWER 8
M  POLY_CHG 0
M  POLY_PROPERTIES ALPHA_AA L_AA PROTEIN AROMATIC POLYMER 
M  END

$$$$



 32 32  0  0  0  0  0  0  0  0999 V2000
   -1.3613    1.0825    2.6508 H   0  0  0  1  0  0  0  0  0  0  0  0
   -1.7648    2.7596    3.8319 C   0  0  0  1  0  0  0  0  0  0  0  0
   -3.3249    1.5351    2.3184 N   0  0  0  1  0  0  0  0  0  0  0  0
   -1.9539    1.9672    2.5458 C   0  0  0  1  0  0  0  0  0  0  0  0
   -2.5824    3.5833    4.2001 O   0  0  0  1  0  0  0  0  0  0  0  0
   -0.6399    2.4591    4.4872 N   0  0  0  1  0  0  0  0  0  0  0  0
   -4.0575    2.1397    2.5595 H   0  0  0  1  0  0  0  0  0  0  0  0
   -3.6194    0.3428    1.7923 C   0  0  0  1  0  0  0  0  0  0  0  0
   -0.1853    3.2208    5.6409 C   0  0  0  1  0  0  0  0  0  0  0  0
   -5.0943    0.0632    1.5788 C   0  0  0  1  0  0  0  0  0  0  0  0
   -2.7623   -0.4878    1.4937 O   0  0  0  1  0  0  0  0  0  0  0  0
   -0.1023    1.6994    4.1803 H   0  0  0  1  0  0  0  0  0  0  0  0
   -0.5718    4.2170    5.5861 H   0  0  0  1  0  0  0  0  0  0  0  0
    0.8842    3.2533    5.6476 H   0  0  0  1  0  0  0  0  0  0  0  0
   -0.5340    2.7520    6.5374 H   0  0  0  1  0  0  0  0  0  0  0  0
   -5.2697   -0.9909    1.6345 H   0  0  0  1  0  0  0  0  0  0  0  0
   -5.3896    0.4232    0.6155 H   0  0  0  1  0  0  0  0  0  0  0  0
   -5.6644    0.5598    2.3359 H   0  0  0  1  0  0  0  0  0  0  0  0
   -3.8843    7.6784    0.4533 F   0  0  0  1  0  0  0  0  0  0  0  0
   -3.2892    6.4887    0.6639 C   0  0  0  1  0  0  0  0  0  0  0  0
   -2.0333    6.4356    1.2481 C   0  0  0  1  0  0  0  0  0  0  0  0
   -1.4202    5.2151    1.4594 C   0  0  0  1  0  0  0  0  0  0  0  0
   -2.0637    4.0436    1.0920 C   0  0  0  1  0  0  0  0  0  0  0  0
   -3.3160    4.0963    0.5094 C   0  0  0  1  0  0  0  0  0  0  0  0
   -3.9307    5.3205    0.2975 C   0  0  0  1  0  0  0  0  0  0  0  0
   -1.3968    2.7090    1.3279 C   0  0  0  1  0  0  0  0  0  0  0  0
   -1.5523    7.3143    1.5275 H   0  0  0  1  0  0  0  0  0  0  0  0
   -0.4762    5.1756    1.8941 H   0  0  0  1  0  0  0  0  0  0  0  0
   -3.7969    3.2175    0.2300 H   0  0  0  1  0  0  0  0  0  0  0  0
   -4.8747    5.3600   -0.1371 H   0  0  0  1  0  0  0  0  0  0  0  0
   -1.5415    2.0981    0.4615 H   0  0  0  1  0  0  0  0  0  0  0  0
   -0.3503    2.8732    1.4785 H   0  0  0  1  0  0  0  0  0  0  0  0
  1  4  1  0  0  0  0
  2  4  1  0  0  0  0
  2  5  2  0  0  0  0
  2  6  1  0  0  0  0
  3  4  1  0  0  0  0
  3  7  1  0  0  0  0
  3  8  1  0  0  0  0
  4 26  1  0  0  0  0
  6  9  1  0  0  0  0
  6 12  1  0  0  0  0
  8 10  1  0  0  0  0
  8 11  2  0  0  0  0
  9 13  1  0  0  0  0
  9 14  1  0  0  0  0
  9 15  1  0  0  0  0
 10 16  1  0  0  0  0
 10 17  1  0  0  0  0
 10 18  1  0  0  0  0
 19 20  1  0  0  0  0
 20 21  4  0  0  0  0
 20 25  4  0  0  0  0
 21 22  4  0  0  0  0
 21 27  1  0  0  0  0
 22 23  4  0  0  0  0
 22 28  1  0  0  0  0
 23 24  4  0  0  0  0
 23 26  1  0  0  0  0
 24 25  4  0  0  0  0
 24 29  1  0  0  0  0
 25 30  1  0  0  0  0
 26 31  1  0  0  0  0
 26 32  1  0  0  0  0
M  END
> <BCLConfClusterSize>
1

> <ConfClashScore>
0 

> <ConfOneFourInteractionScore>
-0.987258 

> <ConfScore>
-0.0700528 

> <ConfScorePBest>
0.00541297 

> <ConfTolerance>
0.277355 

> <RosettaParamsInstructions>
M  ROOT 3
M  POLY_N_BB 3
M  POLY_CA_BB 4
M  POLY_C_BB 2
M  POLY_O_BB 5
M  POLY_IGNORE 9 10 11 12 13 14 15 16 17 18 
M  POLY_UPPER 6
M  POLY_LOWER 8
M  POLY_CHG 0
M  POLY_PROPERTIES ALPHA_AA L_AA PROTEIN AROMATIC POLYMER 
M  END

$$$$



 32 32  0  0  0  0  0  0  0  0999 V2000
   -0.9315    2.2257   -0.6965 H   0  0  0  1  0  0  0  0  0  0  0  0
    0.5209    3.6042    0.0171 C   0  0  0  1  0  0  0  0  0  0  0  0
    0.3830    1.2146    0.5532 N   0  0  0  1  0  0  0  0  0  0  0  0
   -0.3916    2.3982    0.2111 C   0  0  0  1  0  0  0  0  0  0  0  0
    1.2457    4.0645    0.8799 O   0  0  0  1  0  0  0  0  0  0  0  0
    0.4586    4.1287   -1.2101 N   0  0  0  1  0  0  0  0  0  0  0  0
    0.9846    1.2742    1.3245 H   0  0  0  1  0  0  0  0  0  0  0  0
    0.3357    0.0529   -0.1050 C   0  0  0  1  0  0  0  0  0  0  0  0
    1.2635    5.2741   -1.6078 C   0  0  0  1  0  0  0  0  0  0  0  0
    1.3824   -0.9708    0.2896 C   0  0  0  1  0  0  0  0  0  0  0  0
   -0.4964   -0.1888   -0.9783 O   0  0  0  1  0  0  0  0  0  0  0  0
   -0.1504    3.7283   -1.8652 H   0  0  0  1  0  0  0  0  0  0  0  0
    1.2534    6.0060   -0.8273 H   0  0  0  1  0  0  0  0  0  0  0  0
    0.8590    5.7007   -2.5018 H   0  0  0  1  0  0  0  0  0  0  0  0
    2.2698    4.9576   -1.7866 H   0  0  0  1  0  0  0  0  0  0  0  0
    1.3940   -1.0776    1.3542 H   0  0  0  1  0  0  0  0  0  0  0  0
    2.3444   -0.6447   -0.0465 H   0  0  0  1  0  0  0  0  0  0  0  0
    1.1472   -1.9126   -0.1605 H   0  0  0  1  0  0  0  0  0  0  0  0
   -3.8843    7.6784    0.4533 F   0  0  0  1  0  0  0  0  0  0  0  0
   -3.2892    6.4887    0.6639 C   0  0  0  1  0  0  0  0  0  0  0  0
   -2.0333    6.4356    1.2481 C   0  0  0  1  0  0  0  0  0  0  0  0
   -1.4202    5.2151    1.4594 C   0  0  0  1  0  0  0  0  0  0  0  0
   -2.0637    4.0436    1.0920 C   0  0  0  1  0  0  0  0  0  0  0  0
   -3.3160    4.0963    0.5094 C   0  0  0  1  0  0  0  0  0  0  0  0
   -3.9307    5.3205    0.2975 C   0  0  0  1  0  0  0  0  0  0  0  0
   -1.3968    2.7090    1.3279 C   0  0  0  1  0  0  0  0  0  0  0  0
   -1.5523    7.3143    1.5275 H   0  0  0  1  0  0  0  0  0  0  0  0
   -0.4762    5.1756    1.8941 H   0  0  0  1  0  0  0  0  0  0  0  0
   -3.7969    3.2175    0.2300 H   0  0  0  1  0  0  0  0  0  0  0  0
   -4.8747    5.3600   -0.1371 H   0  0  0  1  0  0  0  0  0  0  0  0
   -0.8823    2.7349    2.2658 H   0  0  0  1  0  0  0  0  0  0  0  0
   -2.1435    1.9430    1.3511 H   0  0  0  1  0  0  0  0  0  0  0  0
  1  4  1  0  0  0  0
  2  4  1  0  0  0  0
  2  5  2  0  0  0  0
  2  6  1  0  0  0  0
  3  4  1  0  0  0  0
  3  7  1  0  0  0  0
  3  8  1  0  0  0  0
  4 26  1  0  0  0  0
  6  9  1  0  0  0  0
  6 12  1  0  0  0  0
  8 10  1  0  0  0  0
  8 11  2  0  0  0  0
  9 13  1  0  0  0  0
  9 14  1  0  0  0  0
  9 15  1  0  0  0  0
 10 16  1  0  0  0  0
 10 17  1  0  0  0  0
 10 18  1  0  0  0  0
 19 20  1  0  0  0  0
 20 21  4  0  0  0  0
 20 25  4  0  0  0  0
 21 22  4  0  0  0  0
 21 27  1  0  0  0  0
 22 23  4  0  0  0  0
 22 28  1  0  0  0  0
 23 24  4  0  0  0  0
 23 26  1  0  0  0  0
 24 25  4  0  0  0  0
 24 29  1  0  0  0  0
 25 30  1  0  0  0  0
 26 31  1  0  0  0  0
 26 32  1  0  0  0  0
M  END
> <BCLConfClusterSize>
1

> <ConfClashScore>
0 

> <ConfOneFourInteractionScore>
-0.986627 

> <ConfScore>
-0.0688006 

> <ConfScorePBest>
0.00538449 

> <ConfTolerance>
0.266088 

> <RosettaParamsInstructions>
M  ROOT 3
M  POLY_N_BB 3
M  POLY_CA_BB 4
M  POLY_C_BB 2
M  POLY_O_BB 5
M  POLY_IGNORE 9 10 11 12 13 14 15 16 17 18 
M  POLY_UPPER 6
M  POLY_LOWER 8
M  POLY_CHG 0
M  POLY_PROPERTIES ALPHA_AA L_AA PROTEIN AROMATIC POLYMER 
M  END

$$$$



 32 32  0  0  0  0  0  0  0  0999 V2000
   -3.3512    1.8097    1.4821 H   0  0  0  1  0  0  0  0  0  0  0  0
   -1.9512    0.2470    1.6998 C   0  0  0  1  0  0  0  0  0  0  0  0
   -2.5503    1.9817    3.3691 N   0  0  0  1  0  0  0  0  0  0  0  0
   -2.3989    1.6847    1.9537 C   0  0  0  1  0  0  0  0  0  0  0  0
   -1.2273   -0.3423    2.5012 O   0  0  0  1  0  0  0  0  0  0  0  0
   -2.3373   -0.2695    0.5225 N   0  0  0  1  0  0  0  0  0  0  0  0
   -1.9154    2.6068    3.7772 H   0  0  0  1  0  0  0  0  0  0  0  0
   -3.4984    1.4576    4.1474 C   0  0  0  1  0  0  0  0  0  0  0  0
   -1.9934   -1.6411    0.1783 C   0  0  0  1  0  0  0  0  0  0  0  0
   -3.5580    1.9933    5.5646 C   0  0  0  1  0  0  0  0  0  0  0  0
   -4.2767    0.6012    3.7610 O   0  0  0  1  0  0  0  0  0  0  0  0
   -2.8519    0.2781   -0.1066 H   0  0  0  1  0  0  0  0  0  0  0  0
   -2.7396   -2.0433   -0.4747 H   0  0  0  1  0  0  0  0  0  0  0  0
   -1.9448   -2.2308    1.0698 H   0  0  0  1  0  0  0  0  0  0  0  0
   -1.0432   -1.6577   -0.3132 H   0  0  0  1  0  0  0  0  0  0  0  0
   -2.5649    2.1693    5.9220 H   0  0  0  1  0  0  0  0  0  0  0  0
   -4.0425    1.2781    6.1960 H   0  0  0  1  0  0  0  0  0  0  0  0
   -4.1086    2.9107    5.5760 H   0  0  0  1  0  0  0  0  0  0  0  0
   -3.9151    7.6593    0.4378 F   0  0  0  1  0  0  0  0  0  0  0  0
   -3.2833    6.4921    0.6668 C   0  0  0  1  0  0  0  0  0  0  0  0
   -2.0274    6.4405    1.2512 C   0  0  0  1  0  0  0  0  0  0  0  0
   -1.4131    5.2207    1.4631 C   0  0  0  1  0  0  0  0  0  0  0  0
   -2.0554    4.0484    1.0961 C   0  0  0  1  0  0  0  0  0  0  0  0
   -3.3077    4.0996    0.5134 C   0  0  0  1  0  0  0  0  0  0  0  0
   -3.9236    5.3232    0.3010 C   0  0  0  1  0  0  0  0  0  0  0  0
   -1.4370    2.6868    1.3079 C   0  0  0  1  0  0  0  0  0  0  0  0
   -1.5472    7.3199    1.5302 H   0  0  0  1  0  0  0  0  0  0  0  0
   -0.4691    5.1823    1.8978 H   0  0  0  1  0  0  0  0  0  0  0  0
   -3.7878    3.2203    0.2345 H   0  0  0  1  0  0  0  0  0  0  0  0
   -4.8676    5.3615   -0.1338 H   0  0  0  1  0  0  0  0  0  0  0  0
   -1.1300    2.3007    0.3583 H   0  0  0  1  0  0  0  0  0  0  0  0
   -0.5823    2.7959    1.9423 H   0  0  0  1  0  0  0  0  0  0  0  0
  1  4  1  0  0  0  0
  2  4  1  0  0  0  0
  2  5  2  0  0  0  0
  2  6  1  0  0  0  0
  3  4  1  0  0  0  0
  3  7  1  0  0  0  0
  3  8  1  0  0  0  0
  4 26  1  0  0  0  0
  6  9  1  0  0  0  0
  6 12  1  0  0  0  0
  8 10  1  0  0  0  0
  8 11  2  0  0  0  0
  9 13  1  0  0  0  0
  9 14  1  0  0  0  0
  9 15  1  0  0  0  0
 10 16  1  0  0  0  0
 10 17  1  0  0  0  0
 10 18  1  0  0  0  0
 19 20  1  0  0  0  0
 20 21  4  0  0  0  0
 20 25  4  0  0  0  0
 21 22  4  0  0  0  0
 21 27  1  0  0  0  0
 22 23  4  0  0  0  0
 22 28  1  0  0  0  0
 23 24  4  0  0  0  0
 23 26  1  0  0  0  0
 24 25  4  0  0  0  0
 24 29  1  0  0  0  0
 25 30  1  0  0  0  0
 26 31  1  0  0  0  0
 26 32  1  0  0  0  0
M  END
> <BCLConfClusterSize>
1

> <ConfClashScore>
0 

> <ConfOneFourInteractionScore>
-0.974251 

> <ConfScore>
-0.068108 

> <ConfScorePBest>
0.00535601 

> <ConfTolerance>
0.422611 

> <RosettaParamsInstructions>
M  ROOT 3
M  POLY_N_BB 3
M  POLY_CA_BB 4
M  POLY_C_BB 2
M  POLY_O_BB 5
M  POLY_IGNORE 9 10 11 12 13 14 15 16 17 18 
M  POLY_UPPER 6
M  POLY_LOWER 8
M  POLY_CHG 0
M  POLY_PROPERTIES ALPHA_AA L_AA PROTEIN AROMATIC POLYMER 
M  END

$$$$



 32 32  0  0  0  0  0  0  0  0999 V2000
   -0.3140    2.7666   -0.5298 H   0  0  0  1  0  0  0  0  0  0  0  0
    0.9391    3.6466    0.9759 C   0  0  0  1  0  0  0  0  0  0  0  0
    0.5420    1.2424    0.6544 N   0  0  0  1  0  0  0  0  0  0  0  0
   -0.0891    2.5915    0.5015 C   0  0  0  1  0  0  0  0  0  0  0  0
    1.0121    4.7391    0.4380 O   0  0  0  1  0  0  0  0  0  0  0  0
    1.7716    3.2342    1.9449 N   0  0  0  1  0  0  0  0  0  0  0  0
    0.1357    0.6150    1.2883 H   0  0  0  1  0  0  0  0  0  0  0  0
    1.6236    0.8392   -0.0183 C   0  0  0  1  0  0  0  0  0  0  0  0
    2.8115    4.0628    2.5364 C   0  0  0  1  0  0  0  0  0  0  0  0
    2.1876   -0.5126    0.4133 C   0  0  0  1  0  0  0  0  0  0  0  0
    2.1897    1.5181   -0.8740 O   0  0  0  1  0  0  0  0  0  0  0  0
    1.6728    2.3167    2.2749 H   0  0  0  1  0  0  0  0  0  0  0  0
    3.5930    3.4383    2.9161 H   0  0  0  1  0  0  0  0  0  0  0  0
    2.3958    4.6395    3.3361 H   0  0  0  1  0  0  0  0  0  0  0  0
    3.2103    4.7198    1.7920 H   0  0  0  1  0  0  0  0  0  0  0  0
    1.5159   -0.9752    1.1059 H   0  0  0  1  0  0  0  0  0  0  0  0
    3.1390   -0.3688    0.8813 H   0  0  0  1  0  0  0  0  0  0  0  0
    2.3031   -1.1410   -0.4450 H   0  0  0  1  0  0  0  0  0  0  0  0
   -3.9116    7.6616    0.4395 F   0  0  0  1  0  0  0  0  0  0  0  0
   -3.2836    6.4921    0.6667 C   0  0  0  1  0  0  0  0  0  0  0  0
   -2.0277    6.4356    1.2507 C   0  0  0  1  0  0  0  0  0  0  0  0
   -1.4173    5.2135    1.4607 C   0  0  0  1  0  0  0  0  0  0  0  0
   -2.0634    4.0439    1.0921 C   0  0  0  1  0  0  0  0  0  0  0  0
   -3.3156    4.0999    0.5098 C   0  0  0  1  0  0  0  0  0  0  0  0
   -3.9277    5.3257    0.2993 C   0  0  0  1  0  0  0  0  0  0  0  0
   -1.3994    2.7076    1.3266 C   0  0  0  1  0  0  0  0  0  0  0  0
   -1.5447    7.3130    1.5309 H   0  0  0  1  0  0  0  0  0  0  0  0
   -0.4733    5.1715    1.8952 H   0  0  0  1  0  0  0  0  0  0  0  0
   -3.7986    3.2225    0.2296 H   0  0  0  1  0  0  0  0  0  0  0  0
   -4.8716    5.3677   -0.1352 H   0  0  0  1  0  0  0  0  0  0  0  0
   -1.1691    2.6080    2.3668 H   0  0  0  1  0  0  0  0  0  0  0  0
   -2.0693    1.9266    1.0328 H   0  0  0  1  0  0  0  0  0  0  0  0
  1  4  1  0  0  0  0
  2  4  1  0  0  0  0
  2  5  2  0  0  0  0
  2  6  1  0  0  0  0
  3  4  1  0  0  0  0
  3  7  1  0  0  0  0
  3  8  1  0  0  0  0
  4 26  1  0  0  0  0
  6  9  1  0  0  0  0
  6 12  1  0  0  0  0
  8 10  1  0  0  0  0
  8 11  2  0  0  0  0
  9 13  1  0  0  0  0
  9 14  1  0  0  0  0
  9 15  1  0  0  0  0
 10 16  1  0  0  0  0
 10 17  1  0  0  0  0
 10 18  1  0  0  0  0
 19 20  1  0  0  0  0
 20 21  4  0  0  0  0
 20 25  4  0  0  0  0
 21 22  4  0  0  0  0
 21 27  1  0  0  0  0
 22 23  4  0  0  0  0
 22 28  1  0  0  0  0
 23 24  4  0  0  0  0
 23 26  1  0  0  0  0
 24 25  4  0  0  0  0
 24 29  1  0  0  0  0
 25 30  1  0  0  0  0
 26 31  1  0  0  0  0
 26 32  1  0  0  0  0
M  END
> <BCLConfClusterSize>
1

> <ConfClashScore>
0 

> <ConfOneFourInteractionScore>
-0.94165 

> <ConfScore>
-0.0592042 

> <ConfScorePBest>
0.00532753 

> <ConfTolerance>
0.387629 

> <RosettaParamsInstructions>
M  ROOT 3
M  POLY_N_BB 3
M  POLY_CA_BB 4
M  POLY_C_BB 2
M  POLY_O_BB 5
M  POLY_IGNORE 9 10 11 12 13 14 15 16 17 18 
M  POLY_UPPER 6
M  POLY_LOWER 8
M  POLY_CHG 0
M  POLY_PROPERTIES ALPHA_AA L_AA PROTEIN AROMATIC POLYMER 
M  END

$$$$



 32 32  0  0  0  0  0  0  0  0999 V2000
   -2.5438    1.9909    2.9510 H   0  0  0  1  0  0  0  0  0  0  0  0
   -0.8415    0.7449    2.7431 C   0  0  0  1  0  0  0  0  0  0  0  0
   -0.8598    2.9406    3.7089 N   0  0  0  1  0  0  0  0  0  0  0  0
   -1.5081    2.1064    2.7081 C   0  0  0  1  0  0  0  0  0  0  0  0
   -1.2417   -0.1127    1.9570 O   0  0  0  1  0  0  0  0  0  0  0  0
    0.1479    0.5465    3.6274 N   0  0  0  1  0  0  0  0  0  0  0  0
    0.1194    2.9787    3.7017 H   0  0  0  1  0  0  0  0  0  0  0  0
   -1.4991    3.6586    4.6368 C   0  0  0  1  0  0  0  0  0  0  0  0
    0.8487   -0.7284    3.6659 C   0  0  0  1  0  0  0  0  0  0  0  0
   -0.6104    4.4564    5.5859 C   0  0  0  1  0  0  0  0  0  0  0  0
   -2.7249    3.6869    4.7348 O   0  0  0  1  0  0  0  0  0  0  0  0
    0.3992    1.2616    4.2486 H   0  0  0  1  0  0  0  0  0  0  0  0
    0.2172   -1.4699    4.1089 H   0  0  0  1  0  0  0  0  0  0  0  0
    1.7413   -0.6270    4.2472 H   0  0  0  1  0  0  0  0  0  0  0  0
    1.1029   -1.0256    2.6699 H   0  0  0  1  0  0  0  0  0  0  0  0
    0.1263    3.8093    6.0142 H   0  0  0  1  0  0  0  0  0  0  0  0
   -1.2100    4.8788    6.3650 H   0  0  0  1  0  0  0  0  0  0  0  0
   -0.1243    5.2408    5.0443 H   0  0  0  1  0  0  0  0  0  0  0  0
   -3.9116    7.6616    0.4395 F   0  0  0  1  0  0  0  0  0  0  0  0
   -3.2836    6.4921    0.6667 C   0  0  0  1  0  0  0  0  0  0  0  0
   -2.0277    6.4356    1.2507 C   0  0  0  1  0  0  0  0  0  0  0  0
   -1.4173    5.2135    1.4607 C   0  0  0  1  0  0  0  0  0  0  0  0
   -2.0634    4.0439    1.0921 C   0  0  0  1  0  0  0  0  0  0  0  0
   -3.3156    4.0999    0.5098 C   0  0  0  1  0  0  0  0  0  0  0  0
   -3.9277    5.3257    0.2993 C   0  0  0  1  0  0  0  0  0  0  0  0
   -1.3994    2.7076    1.3266 C   0  0  0  1  0  0  0  0  0  0  0  0
   -1.5447    7.3130    1.5309 H   0  0  0  1  0  0  0  0  0  0  0  0
   -0.4733    5.1715    1.8952 H   0  0  0  1  0  0  0  0  0  0  0  0
   -3.7986    3.2225    0.2296 H   0  0  0  1  0  0  0  0  0  0  0  0
   -4.8716    5.3677   -0.1352 H   0  0  0  1  0  0  0  0  0  0  0  0
   -1.8313    2.0105    0.6392 H   0  0  0  1  0  0  0  0  0  0  0  0
   -0.3583    2.8249    1.1095 H   0  0  0  1  0  0  0  0  0  0  0  0
  1  4  1  0  0  0  0
  2  4  1  0  0  0  0
  2  5  2  0  0  0  0
  2  6  1  0  0  0  0
  3  4  1  0  0  0  0
  3  7  1  0  0  0  0
  3  8  1  0  0  0  0
  4 26  1  0  0  0  0
  6  9  1  0  0  0  0
  6 12  1  0  0  0  0
  8 10  1  0  0  0  0
  8 11  2  0  0  0  0
  9 13  1  0  0  0  0
  9 14  1  0  0  0  0
  9 15  1  0  0  0  0
 10 16  1  0  0  0  0
 10 17  1  0  0  0  0
 10 18  1  0  0  0  0
 19 20  1  0  0  0  0
 20 21  4  0  0  0  0
 20 25  4  0  0  0  0
 21 22  4  0  0  0  0
 21 27  1  0  0  0  0
 22 23  4  0  0  0  0
 22 28  1  0  0  0  0
 23 24  4  0  0  0  0
 23 26  1  0  0  0  0
 24 25  4  0  0  0  0
 24 29  1  0  0  0  0
 25 30  1  0  0  0  0
 26 31  1  0  0  0  0
 26 32  1  0  0  0  0
M  END
> <BCLConfClusterSize>
1

> <ConfClashScore>
0 

> <ConfOneFourInteractionScore>
-0.946346 

> <ConfScore>
-0.0491726 

> <ConfScorePBest>
0.00529905 

> <ConfTolerance>
0.270241 

> <RosettaParamsInstructions>
M  ROOT 3
M  POLY_N_BB 3
M  POLY_CA_BB 4
M  POLY_C_BB 2
M  POLY_O_BB 5
M  POLY_IGNORE 9 10 11 12 13 14 15 16 17 18 
M  POLY_UPPER 6
M  POLY_LOWER 8
M  POLY_CHG 0
M  POLY_PROPERTIES ALPHA_AA L_AA PROTEIN AROMATIC POLYMER 
M  END

$$$$



 32 32  0  0  0  0  0  0  0  0999 V2000
   -3.2259    1.6183    1.2113 H   0  0  0  1  0  0  0  0  0  0  0  0
   -2.2708    1.6389   -0.7012 C   0  0  0  1  0  0  0  0  0  0  0  0
   -1.6257    0.2819    1.2437 N   0  0  0  1  0  0  0  0  0  0  0  0
   -2.2315    1.5371    0.8248 C   0  0  0  1  0  0  0  0  0  0  0  0
   -3.2455    2.0533   -1.3017 O   0  0  0  1  0  0  0  0  0  0  0  0
   -1.1953    1.2594   -1.4080 N   0  0  0  1  0  0  0  0  0  0  0  0
   -0.8700    0.3063    1.8671 H   0  0  0  1  0  0  0  0  0  0  0  0
   -2.0640   -0.9026    0.8078 C   0  0  0  1  0  0  0  0  0  0  0  0
   -1.2457    1.2418   -2.8624 C   0  0  0  1  0  0  0  0  0  0  0  0
   -1.4602   -2.1179    1.4842 C   0  0  0  1  0  0  0  0  0  0  0  0
   -2.9030   -1.0194   -0.0837 O   0  0  0  1  0  0  0  0  0  0  0  0
   -0.3741    0.9935   -0.9440 H   0  0  0  1  0  0  0  0  0  0  0  0
   -2.0431    0.6052   -3.1844 H   0  0  0  1  0  0  0  0  0  0  0  0
   -0.3177    0.8729   -3.2467 H   0  0  0  1  0  0  0  0  0  0  0  0
   -1.4132    2.2344   -3.2252 H   0  0  0  1  0  0  0  0  0  0  0  0
   -1.7493   -2.1339    2.5143 H   0  0  0  1  0  0  0  0  0  0  0  0
   -0.3935   -2.0717    1.4141 H   0  0  0  1  0  0  0  0  0  0  0  0
   -1.8117   -3.0059    1.0015 H   0  0  0  1  0  0  0  0  0  0  0  0
   -3.9114    7.6612    0.4396 F   0  0  0  1  0  0  0  0  0  0  0  0
   -3.2834    6.4917    0.6668 C   0  0  0  1  0  0  0  0  0  0  0  0
   -2.0275    6.4352    1.2508 C   0  0  0  1  0  0  0  0  0  0  0  0
   -1.4171    5.2132    1.4608 C   0  0  0  1  0  0  0  0  0  0  0  0
   -2.0632    4.0435    1.0922 C   0  0  0  1  0  0  0  0  0  0  0  0
   -3.3154    4.0995    0.5099 C   0  0  0  1  0  0  0  0  0  0  0  0
   -3.9275    5.3253    0.2993 C   0  0  0  1  0  0  0  0  0  0  0  0
   -1.4015    2.7117    1.3259 C   0  0  0  1  0  0  0  0  0  0  0  0
   -1.5445    7.3126    1.5310 H   0  0  0  1  0  0  0  0  0  0  0  0
   -0.4731    5.1711    1.8953 H   0  0  0  1  0  0  0  0  0  0  0  0
   -3.7984    3.2221    0.2297 H   0  0  0  1  0  0  0  0  0  0  0  0
   -4.8714    5.3674   -0.1352 H   0  0  0  1  0  0  0  0  0  0  0  0
   -0.4602    2.7052    0.8172 H   0  0  0  1  0  0  0  0  0  0  0  0
   -1.2404    2.5912    2.3768 H   0  0  0  1  0  0  0  0  0  0  0  0
  1  4  1  0  0  0  0
  2  4  1  0  0  0  0
  2  5  2  0  0  0  0
  2  6  1  0  0  0  0
  3  4  1  0  0  0  0
  3  7  1  0  0  0  0
  3  8  1  0  0  0  0
  4 26  1  0  0  0  0
  6  9  1  0  0  0  0
  6 12  1  0  0  0  0
  8 10  1  0  0  0  0
  8 11  2  0  0  0  0
  9 13  1  0  0  0  0
  9 14  1  0  0  0  0
  9 15  1  0  0  0  0
 10 16  1  0  0  0  0
 10 17  1  0  0  0  0
 10 18  1  0  0  0  0
 19 20  1  0  0  0  0
 20 21  4  0  0  0  0
 20 25  4  0  0  0  0
 21 22  4  0  0  0  0
 21 27  1  0  0  0  0
 22 23  4  0  0  0  0
 22 28  1  0  0  0  0
 23 24  4  0  0  0  0
 23 26  1  0  0  0  0
 24 25  4  0  0  0  0
 24 29  1  0  0  0  0
 25 30  1  0  0  0  0
 26 31  1  0  0  0  0
 26 32  1  0  0  0  0
M  END
> <BCLConfClusterSize>
1

> <ConfClashScore>
0 

> <ConfOneFourInteractionScore>
-0.952877 

> <ConfScore>
-0.043356 

> <ConfScorePBest>
0.00527057 

> <ConfTolerance>
0.472564 

> <RosettaParamsInstructions>
M  ROOT 3
M  POLY_N_BB 3
M  POLY_CA_BB 4
M  POLY_C_BB 2
M  POLY_O_BB 5
M  POLY_IGNORE 9 10 11 12 13 14 15 16 17 18 
M  POLY_UPPER 6
M  POLY_LOWER 8
M  POLY_CHG 0
M  POLY_PROPERTIES ALPHA_AA L_AA PROTEIN AROMATIC POLYMER 
M  END

$$$$



 32 32  0  0  0  0  0  0  0  0999 V2000
   -1.2336    2.1867   -0.6642 H   0  0  0  1  0  0  0  0  0  0  0  0
    0.6360    2.9464   -0.0127 C   0  0  0  1  0  0  0  0  0  0  0  0
   -0.2269    0.7488    0.4625 N   0  0  0  1  0  0  0  0  0  0  0  0
   -0.6267    2.1387    0.2157 C   0  0  0  1  0  0  0  0  0  0  0  0
    1.5792    2.8784    0.7581 O   0  0  0  1  0  0  0  0  0  0  0  0
    0.6394    3.7233   -1.0997 N   0  0  0  1  0  0  0  0  0  0  0  0
   -0.5962    0.3049    1.2542 H   0  0  0  1  0  0  0  0  0  0  0  0
    0.6011    0.0442   -0.3094 C   0  0  0  1  0  0  0  0  0  0  0  0
    1.7180    4.6581   -1.3837 C   0  0  0  1  0  0  0  0  0  0  0  0
    0.9367   -1.3494    0.1849 C   0  0  0  1  0  0  0  0  0  0  0  0
    1.0727    0.4803   -1.3587 O   0  0  0  1  0  0  0  0  0  0  0  0
   -0.1105    3.6615   -1.7275 H   0  0  0  1  0  0  0  0  0  0  0  0
    2.6321    4.2847   -0.9715 H   0  0  0  1  0  0  0  0  0  0  0  0
    1.4912    5.6077   -0.9458 H   0  0  0  1  0  0  0  0  0  0  0  0
    1.8237    4.7693   -2.4426 H   0  0  0  1  0  0  0  0  0  0  0  0
    0.0341   -1.9094    0.3142 H   0  0  0  1  0  0  0  0  0  0  0  0
    1.4512   -1.2815    1.1206 H   0  0  0  1  0  0  0  0  0  0  0  0
    1.5614   -1.8408   -0.5314 H   0  0  0  1  0  0  0  0  0  0  0  0
   -3.8920    7.6774    0.4717 F   0  0  0  1  0  0  0  0  0  0  0  0
   -3.2918    6.4881    0.6695 C   0  0  0  1  0  0  0  0  0  0  0  0
   -2.0329    6.4345    1.2473 C   0  0  0  1  0  0  0  0  0  0  0  0
   -1.4146    5.2144    1.4454 C   0  0  0  1  0  0  0  0  0  0  0  0
   -2.0558    4.0438    1.0712 C   0  0  0  1  0  0  0  0  0  0  0  0
   -3.3110    4.0970    0.4951 C   0  0  0  1  0  0  0  0  0  0  0  0
   -3.9309    5.3208    0.2964 C   0  0  0  1  0  0  0  0  0  0  0  0
   -1.4162    2.7120    1.3853 C   0  0  0  1  0  0  0  0  0  0  0  0
   -1.5535    7.3125    1.5317 H   0  0  0  1  0  0  0  0  0  0  0  0
   -0.4684    5.1746    1.8753 H   0  0  0  1  0  0  0  0  0  0  0  0
   -3.7903    3.2189    0.2106 H   0  0  0  1  0  0  0  0  0  0  0  0
   -4.8771    5.3607   -0.1334 H   0  0  0  1  0  0  0  0  0  0  0  0
   -0.7519    2.8402    2.2143 H   0  0  0  1  0  0  0  0  0  0  0  0
   -2.1866    2.0179    1.6490 H   0  0  0  1  0  0  0  0  0  0  0  0
  1  4  1  0  0  0  0
  2  4  1  0  0  0  0
  2  5  2  0  0  0  0
  2  6  1  0  0  0  0
  3  4  1  0  0  0  0
  3  7  1  0  0  0  0
  3  8  1  0  0  0  0
  4 26  1  0  0  0  0
  6  9  1  0  0  0  0
  6 12  1  0  0  0  0
  8 10  1  0  0  0  0
  8 11  2  0  0  0  0
  9 13  1  0  0  0  0
  9 14  1  0  0  0  0
  9 15  1  0  0  0  0
 10 16  1  0  0  0  0
 10 17  1  0  0  0  0
 10 18  1  0  0  0  0
 19 20  1  0  0  0  0
 20 21  4  0  0  0  0
 20 25  4  0  0  0  0
 21 22  4  0  0  0  0
 21 27  1  0  0  0  0
 22 23  4  0  0  0  0
 22 28  1  0  0  0  0
 23 24  4  0  0  0  0
 23 26  1  0  0  0  0
 24 25  4  0  0  0  0
 24 29  1  0  0  0  0
 25 30  1  0  0  0  0
 26 31  1  0  0  0  0
 26 32  1  0  0  0  0
M  END
> <BCLConfClusterSize>
1

> <ConfClashScore>
0 

> <ConfOneFourInteractionScore>
-0.978127 

> <ConfScore>
-0.0415582 

> <ConfScorePBest>
0.00524209 

> <ConfTolerance>
0.198245 

> <RosettaParamsInstructions>
M  ROOT 3
M  POLY_N_BB 3
M  POLY_CA_BB 4
M  POLY_C_BB 2
M  POLY_O_BB 5
M  POLY_IGNORE 9 10 11 12 13 14 15 16 17 18 
M  POLY_UPPER 6
M  POLY_LOWER 8
M  POLY_CHG 0
M  POLY_PROPERTIES ALPHA_AA L_AA PROTEIN AROMATIC POLYMER 
M  END

$$$$



 32 32  0  0  0  0  0  0  0  0999 V2000
   -0.8412    2.8059    3.3747 H   0  0  0  1  0  0  0  0  0  0  0  0
   -2.8977    2.2624    3.2779 C   0  0  0  1  0  0  0  0  0  0  0  0
   -1.0283    0.8061    2.8451 N   0  0  0  1  0  0  0  0  0  0  0  0
   -1.4624    2.1923    2.7564 C   0  0  0  1  0  0  0  0  0  0  0  0
   -3.7911    1.5951    2.7831 O   0  0  0  1  0  0  0  0  0  0  0  0
   -3.0575    3.1114    4.3054 N   0  0  0  1  0  0  0  0  0  0  0  0
   -0.8616    0.3087    2.0173 H   0  0  0  1  0  0  0  0  0  0  0  0
   -0.8493    0.1889    4.0140 C   0  0  0  1  0  0  0  0  0  0  0  0
   -4.3461    3.3192    4.9489 C   0  0  0  1  0  0  0  0  0  0  0  0
   -0.3979   -1.2572    3.9489 C   0  0  0  1  0  0  0  0  0  0  0  0
   -0.9607    0.7714    5.0919 O   0  0  0  1  0  0  0  0  0  0  0  0
   -2.2793    3.6085    4.6336 H   0  0  0  1  0  0  0  0  0  0  0  0
   -5.1264    3.2329    4.2219 H   0  0  0  1  0  0  0  0  0  0  0  0
   -4.3728    4.2953    5.3863 H   0  0  0  1  0  0  0  0  0  0  0  0
   -4.4865    2.5821    5.7117 H   0  0  0  1  0  0  0  0  0  0  0  0
   -1.1837   -1.8587    3.5420 H   0  0  0  1  0  0  0  0  0  0  0  0
   -0.1596   -1.6009    4.9338 H   0  0  0  1  0  0  0  0  0  0  0  0
    0.4681   -1.3325    3.3251 H   0  0  0  1  0  0  0  0  0  0  0  0
   -3.8565    7.6941    0.4672 F   0  0  0  1  0  0  0  0  0  0  0  0
   -3.2949    6.4853    0.6610 C   0  0  0  1  0  0  0  0  0  0  0  0
   -2.0390    6.4357    1.2455 C   0  0  0  1  0  0  0  0  0  0  0  0
   -1.4232    5.2167    1.4581 C   0  0  0  1  0  0  0  0  0  0  0  0
   -2.0640    4.0435    1.0918 C   0  0  0  1  0  0  0  0  0  0  0  0
   -3.3163    4.0927    0.5090 C   0  0  0  1  0  0  0  0  0  0  0  0
   -3.9338    5.3154    0.2958 C   0  0  0  1  0  0  0  0  0  0  0  0
   -1.3942    2.7106    1.3292 C   0  0  0  1  0  0  0  0  0  0  0  0
   -1.5599    7.3158    1.5240 H   0  0  0  1  0  0  0  0  0  0  0  0
   -0.4792    5.1798    1.8930 H   0  0  0  1  0  0  0  0  0  0  0  0
   -3.7954    3.2126    0.2305 H   0  0  0  1  0  0  0  0  0  0  0  0
   -4.8778    5.3524   -0.1391 H   0  0  0  1  0  0  0  0  0  0  0  0
   -1.8617    1.9883    0.6930 H   0  0  0  1  0  0  0  0  0  0  0  0
   -0.3626    2.8074    1.0621 H   0  0  0  1  0  0  0  0  0  0  0  0
  1  4  1  0  0  0  0
  2  4  1  0  0  0  0
  2  5  2  0  0  0  0
  2  6  1  0  0  0  0
  3  4  1  0  0  0  0
  3  7  1  0  0  0  0
  3  8  1  0  0  0  0
  4 26  1  0  0  0  0
  6  9  1  0  0  0  0
  6 12  1  0  0  0  0
  8 10  1  0  0  0  0
  8 11  2  0  0  0  0
  9 13  1  0  0  0  0
  9 14  1  0  0  0  0
  9 15  1  0  0  0  0
 10 16  1  0  0  0  0
 10 17  1  0  0  0  0
 10 18  1  0  0  0  0
 19 20  1  0  0  0  0
 20 21  4  0  0  0  0
 20 25  4  0  0  0  0
 21 22  4  0  0  0  0
 21 27  1  0  0  0  0
 22 23  4  0  0  0  0
 22 28  1  0  0  0  0
 23 24  4  0  0  0  0
 23 26  1  0  0  0  0
 24 25  4  0  0  0  0
 24 29  1  0  0  0  0
 25 30  1  0  0  0  0
 26 31  1  0  0  0  0
 26 32  1  0  0  0  0
M  END
> <BCLConfClusterSize>
1

> <ConfClashScore>
0 

> <ConfOneFourInteractionScore>
-0.985807 

> <ConfScore>
-0.0393906 

> <ConfScorePBest>
0.00521361 

> <ConfTolerance>
0.222319 

> <RosettaParamsInstructions>
M  ROOT 3
M  POLY_N_BB 3
M  POLY_CA_BB 4
M  POLY_C_BB 2
M  POLY_O_BB 5
M  POLY_IGNORE 9 10 11 12 13 14 15 16 17 18 
M  POLY_UPPER 6
M  POLY_LOWER 8
M  POLY_CHG 0
M  POLY_PROPERTIES ALPHA_AA L_AA PROTEIN AROMATIC POLYMER 
M  END

$$$$



 32 32  0  0  0  0  0  0  0  0999 V2000
   -1.4831    2.2084   -0.7348 H   0  0  0  1  0  0  0  0  0  0  0  0
    0.4029    3.1050   -0.3795 C   0  0  0  1  0  0  0  0  0  0  0  0
   -0.2664    0.8293    0.2110 N   0  0  0  1  0  0  0  0  0  0  0  0
   -0.7458    2.1927    0.0404 C   0  0  0  1  0  0  0  0  0  0  0  0
    1.4322    3.2509    0.2535 O   0  0  0  1  0  0  0  0  0  0  0  0
    0.1809    3.7479   -1.5294 N   0  0  0  1  0  0  0  0  0  0  0  0
    0.3729    0.6214    0.9241 H   0  0  0  1  0  0  0  0  0  0  0  0
   -0.6960   -0.1396   -0.6025 C   0  0  0  1  0  0  0  0  0  0  0  0
    1.0512    4.8127   -2.0053 C   0  0  0  1  0  0  0  0  0  0  0  0
   -0.0966   -1.5304   -0.3775 C   0  0  0  1  0  0  0  0  0  0  0  0
   -1.5218   -0.0102   -1.5053 O   0  0  0  1  0  0  0  0  0  0  0  0
   -0.5951    3.4936   -2.0713 H   0  0  0  1  0  0  0  0  0  0  0  0
    0.4801    5.5101   -2.5818 H   0  0  0  1  0  0  0  0  0  0  0  0
    1.8247    4.3950   -2.6154 H   0  0  0  1  0  0  0  0  0  0  0  0
    1.4889    5.3160   -1.1687 H   0  0  0  1  0  0  0  0  0  0  0  0
    0.9511   -1.5070   -0.5937 H   0  0  0  1  0  0  0  0  0  0  0  0
   -0.5782   -2.2347   -1.0233 H   0  0  0  1  0  0  0  0  0  0  0  0
   -0.2439   -1.8214    0.6415 H   0  0  0  1  0  0  0  0  0  0  0  0
   -3.9116    7.6616    0.4395 F   0  0  0  1  0  0  0  0  0  0  0  0
   -3.2836    6.4921    0.6667 C   0  0  0  1  0  0  0  0  0  0  0  0
   -2.0277    6.4356    1.2507 C   0  0  0  1  0  0  0  0  0  0  0  0
   -1.4173    5.2135    1.4607 C   0  0  0  1  0  0  0  0  0  0  0  0
   -2.0634    4.0439    1.0921 C   0  0  0  1  0  0  0  0  0  0  0  0
   -3.3156    4.0999    0.5098 C   0  0  0  1  0  0  0  0  0  0  0  0
   -3.9277    5.3257    0.2993 C   0  0  0  1  0  0  0  0  0  0  0  0
   -1.3994    2.7076    1.3266 C   0  0  0  1  0  0  0  0  0  0  0  0
   -1.5447    7.3130    1.5309 H   0  0  0  1  0  0  0  0  0  0  0  0
   -0.4733    5.1715    1.8952 H   0  0  0  1  0  0  0  0  0  0  0  0
   -3.7986    3.2225    0.2296 H   0  0  0  1  0  0  0  0  0  0  0  0
   -4.8716    5.3677   -0.1352 H   0  0  0  1  0  0  0  0  0  0  0  0
   -0.6495    2.8162    2.0821 H   0  0  0  1  0  0  0  0  0  0  0  0
   -2.1354    2.0026    1.6526 H   0  0  0  1  0  0  0  0  0  0  0  0
  1  4  1  0  0  0  0
  2  4  1  0  0  0  0
  2  5  2  0  0  0  0
  2  6  1  0  0  0  0
  3  4  1  0  0  0  0
  3  7  1  0  0  0  0
  3  8  1  0  0  0  0
  4 26  1  0  0  0  0
  6  9  1  0  0  0  0
  6 12  1  0  0  0  0
  8 10  1  0  0  0  0
  8 11  2  0  0  0  0
  9 13  1  0  0  0  0
  9 14  1  0  0  0  0
  9 15  1  0  0  0  0
 10 16  1  0  0  0  0
 10 17  1  0  0  0  0
 10 18  1  0  0  0  0
 19 20  1  0  0  0  0
 20 21  4  0  0  0  0
 20 25  4  0  0  0  0
 21 22  4  0  0  0  0
 21 27  1  0  0  0  0
 22 23  4  0  0  0  0
 22 28  1  0  0  0  0
 23 24  4  0  0  0  0
 23 26  1  0  0  0  0
 24 25  4  0  0  0  0
 24 29  1  0  0  0  0
 25 30  1  0  0  0  0
 26 31  1  0  0  0  0
 26 32  1  0  0  0  0
M  END
> <BCLConfClusterSize>
1

> <ConfClashScore>
0 

> <ConfOneFourInteractionScore>
-0.978127 

> <ConfScore>
-0.0385718 

> <ConfScorePBest>
0.00518512 

> <ConfTolerance>
0.24255 

> <RosettaParamsInstructions>
M  ROOT 3
M  POLY_N_BB 3
M  POLY_CA_BB 4
M  POLY_C_BB 2
M  POLY_O_BB 5
M  POLY_IGNORE 9 10 11 12 13 14 15 16 17 18 
M  POLY_UPPER 6
M  POLY_LOWER 8
M  POLY_CHG 0
M  POLY_PROPERTIES ALPHA_AA L_AA PROTEIN AROMATIC POLYMER 
M  END

$$$$



 32 32  0  0  0  0  0  0  0  0999 V2000
   -1.0250    2.3985   -0.7232 H   0  0  0  1  0  0  0  0  0  0  0  0
    0.7467    3.2113    0.1269 C   0  0  0  1  0  0  0  0  0  0  0  0
   -0.0689    0.9093    0.3632 N   0  0  0  1  0  0  0  0  0  0  0  0
   -0.4728    2.2963    0.1876 C   0  0  0  1  0  0  0  0  0  0  0  0
    1.3962    3.4774    1.1373 O   0  0  0  1  0  0  0  0  0  0  0  0
    1.0527    3.6954   -1.0873 N   0  0  0  1  0  0  0  0  0  0  0  0
    0.4072    0.6552    1.1812 H   0  0  0  1  0  0  0  0  0  0  0  0
   -0.3269   -0.0378   -0.5597 C   0  0  0  1  0  0  0  0  0  0  0  0
    2.2451    4.5094   -1.2701 C   0  0  0  1  0  0  0  0  0  0  0  0
    0.2037   -1.4093   -0.1903 C   0  0  0  1  0  0  0  0  0  0  0  0
   -0.9276    0.1555   -1.6038 O   0  0  0  1  0  0  0  0  0  0  0  0
    0.4718    3.5003   -1.8521 H   0  0  0  1  0  0  0  0  0  0  0  0
    2.5685    4.4456   -2.2881 H   0  0  0  1  0  0  0  0  0  0  0  0
    3.0220    4.1530   -0.6264 H   0  0  0  1  0  0  0  0  0  0  0  0
    2.0216    5.5279   -1.0303 H   0  0  0  1  0  0  0  0  0  0  0  0
    1.2650   -1.3594   -0.0636 H   0  0  0  1  0  0  0  0  0  0  0  0
   -0.0298   -2.1038   -0.9701 H   0  0  0  1  0  0  0  0  0  0  0  0
   -0.2495   -1.7326    0.7235 H   0  0  0  1  0  0  0  0  0  0  0  0
   -3.8531    7.6958    0.4688 F   0  0  0  1  0  0  0  0  0  0  0  0
   -3.2951    6.4852    0.6609 C   0  0  0  1  0  0  0  0  0  0  0  0
   -2.0392    6.4310    1.2451 C   0  0  0  1  0  0  0  0  0  0  0  0
   -1.4270    5.2099    1.4560 C   0  0  0  1  0  0  0  0  0  0  0  0
   -2.0714    4.0390    1.0881 C   0  0  0  1  0  0  0  0  0  0  0  0
   -3.3237    4.0928    0.5056 C   0  0  0  1  0  0  0  0  0  0  0  0
   -3.9375    5.3176    0.2942 C   0  0  0  1  0  0  0  0  0  0  0  0
   -1.3601    2.7318    1.3464 C   0  0  0  1  0  0  0  0  0  0  0  0
   -1.5575    7.3092    1.5248 H   0  0  0  1  0  0  0  0  0  0  0  0
   -0.4831    5.1696    1.8906 H   0  0  0  1  0  0  0  0  0  0  0  0
   -3.8053    3.2146    0.2260 H   0  0  0  1  0  0  0  0  0  0  0  0
   -4.8815    5.3580   -0.1404 H   0  0  0  1  0  0  0  0  0  0  0  0
   -0.7509    2.8422    2.2190 H   0  0  0  1  0  0  0  0  0  0  0  0
   -2.0944    1.9725    1.5171 H   0  0  0  1  0  0  0  0  0  0  0  0
  1  4  1  0  0  0  0
  2  4  1  0  0  0  0
  2  5  2  0  0  0  0
  2  6  1  0  0  0  0
  3  4  1  0  0  0  0
  3  7  1  0  0  0  0
  3  8  1  0  0  0  0
  4 26  1  0  0  0  0
  6  9  1  0  0  0  0
  6 12  1  0  0  0  0
  8 10  1  0  0  0  0
  8 11  2  0  0  0  0
  9 13  1  0  0  0  0
  9 14  1  0  0  0  0
  9 15  1  0  0  0  0
 10 16  1  0  0  0  0
 10 17  1  0  0  0  0
 10 18  1  0  0  0  0
 19 20  1  0  0  0  0
 20 21  4  0  0  0  0
 20 25  4  0  0  0  0
 21 22  4  0  0  0  0
 21 27  1  0  0  0  0
 22 23  4  0  0  0  0
 22 28  1  0  0  0  0
 23 24  4  0  0  0  0
 23 26  1  0  0  0  0
 24 25  4  0  0  0  0
 24 29  1  0  0  0  0
 25 30  1  0  0  0  0
 26 31  1  0  0  0  0
 26 32  1  0  0  0  0
M  END
> <BCLConfClusterSize>
1

> <ConfClashScore>
0 

> <ConfOneFourInteractionScore>
-0.971454 

> <ConfScore>
-0.036872 

> <ConfScorePBest>
0.00515664 

> <ConfTolerance>
0.261309 

> <RosettaParamsInstructions>
M  ROOT 3
M  POLY_N_BB 3
M  POLY_CA_BB 4
M  POLY_C_BB 2
M  POLY_O_BB 5
M  POLY_IGNORE 9 10 11 12 13 14 15 16 17 18 
M  POLY_UPPER 6
M  POLY_LOWER 8
M  POLY_CHG 0
M  POLY_PROPERTIES ALPHA_AA L_AA PROTEIN AROMATIC POLYMER 
M  END

$$$$



 32 32  0  0  0  0  0  0  0  0999 V2000
   -0.0562    2.8461   -0.2241 H   0  0  0  1  0  0  0  0  0  0  0  0
   -0.0037    0.8539    0.4726 C   0  0  0  1  0  0  0  0  0  0  0  0
   -1.7308    1.8545   -0.9296 N   0  0  0  1  0  0  0  0  0  0  0  0
   -0.7608    2.1213    0.1266 C   0  0  0  1  0  0  0  0  0  0  0  0
   -0.5701   -0.2372    0.5128 O   0  0  0  1  0  0  0  0  0  0  0  0
    1.2992    1.0069    0.7257 N   0  0  0  1  0  0  0  0  0  0  0  0
   -2.2135    1.0017   -0.9240 H   0  0  0  1  0  0  0  0  0  0  0  0
   -1.9865    2.7410   -1.9140 C   0  0  0  1  0  0  0  0  0  0  0  0
    2.1810   -0.1239    0.9742 C   0  0  0  1  0  0  0  0  0  0  0  0
   -2.9747    2.3428   -2.9929 C   0  0  0  1  0  0  0  0  0  0  0  0
   -1.4354    3.8407   -1.9378 O   0  0  0  1  0  0  0  0  0  0  0  0
    1.6742    1.9122    0.7448 H   0  0  0  1  0  0  0  0  0  0  0  0
    1.9330   -0.5702    1.9145 H   0  0  0  1  0  0  0  0  0  0  0  0
    3.1960    0.2139    0.9965 H   0  0  0  1  0  0  0  0  0  0  0  0
    2.0621   -0.8466    0.1941 H   0  0  0  1  0  0  0  0  0  0  0  0
   -3.9248    2.1337   -2.5475 H   0  0  0  1  0  0  0  0  0  0  0  0
   -2.6181    1.4696   -3.4982 H   0  0  0  1  0  0  0  0  0  0  0  0
   -3.0785    3.1440   -3.6944 H   0  0  0  1  0  0  0  0  0  0  0  0
   -3.8952    7.6755    0.4704 F   0  0  0  1  0  0  0  0  0  0  0  0
   -3.2916    6.4881    0.6697 C   0  0  0  1  0  0  0  0  0  0  0  0
   -2.0326    6.4388    1.2477 C   0  0  0  1  0  0  0  0  0  0  0  0
   -1.4109    5.2207    1.4473 C   0  0  0  1  0  0  0  0  0  0  0  0
   -2.0487    4.0479    1.0744 C   0  0  0  1  0  0  0  0  0  0  0  0
   -3.3040    4.0968    0.4981 C   0  0  0  1  0  0  0  0  0  0  0  0
   -3.9274    5.3186    0.2979 C   0  0  0  1  0  0  0  0  0  0  0  0
   -1.4493    2.6932    1.3697 C   0  0  0  1  0  0  0  0  0  0  0  0
   -1.5558    7.3186    1.5311 H   0  0  0  1  0  0  0  0  0  0  0  0
   -0.4646    5.1841    1.8773 H   0  0  0  1  0  0  0  0  0  0  0  0
   -3.7807    3.2170    0.2146 H   0  0  0  1  0  0  0  0  0  0  0  0
   -4.8736    5.3552   -0.1321 H   0  0  0  1  0  0  0  0  0  0  0  0
   -0.7296    2.7917    2.1553 H   0  0  0  1  0  0  0  0  0  0  0  0
   -2.2263    2.0257    1.6788 H   0  0  0  1  0  0  0  0  0  0  0  0
  1  4  1  0  0  0  0
  2  4  1  0  0  0  0
  2  5  2  0  0  0  0
  2  6  1  0  0  0  0
  3  4  1  0  0  0  0
  3  7  1  0  0  0  0
  3  8  1  0  0  0  0
  4 26  1  0  0  0  0
  6  9  1  0  0  0  0
  6 12  1  0  0  0  0
  8 10  1  0  0  0  0
  8 11  2  0  0  0  0
  9 13  1  0  0  0  0
  9 14  1  0  0  0  0
  9 15  1  0  0  0  0
 10 16  1  0  0  0  0
 10 17  1  0  0  0  0
 10 18  1  0  0  0  0
 19 20  1  0  0  0  0
 20 21  4  0  0  0  0
 20 25  4  0  0  0  0
 21 22  4  0  0  0  0
 21 27  1  0  0  0  0
 22 23  4  0  0  0  0
 22 28  1  0  0  0  0
 23 24  4  0  0  0  0
 23 26  1  0  0  0  0
 24 25  4  0  0  0  0
 24 29  1  0  0  0  0
 25 30  1  0  0  0  0
 26 31  1  0  0  0  0
 26 32  1  0  0  0  0
M  END
> <BCLConfClusterSize>
1

> <ConfClashScore>
0 

> <ConfOneFourInteractionScore>
-0.990503 

> <ConfScore>
-0.036498 

> <ConfScorePBest>
0.00512816 

> <ConfTolerance>
0.302761 

> <RosettaParamsInstructions>
M  ROOT 3
M  POLY_N_BB 3
M  POLY_CA_BB 4
M  POLY_C_BB 2
M  POLY_O_BB 5
M  POLY_IGNORE 9 10 11 12 13 14 15 16 17 18 
M  POLY_UPPER 6
M  POLY_LOWER 8
M  POLY_CHG 0
M  POLY_PROPERTIES ALPHA_AA L_AA PROTEIN AROMATIC POLYMER 
M  END

$$$$



 32 32  0  0  0  0  0  0  0  0999 V2000
   -0.5920    1.4365    2.8292 H   0  0  0  1  0  0  0  0  0  0  0  0
   -0.2850    3.4662    3.4099 C   0  0  0  1  0  0  0  0  0  0  0  0
   -2.4082    2.2367    3.4635 N   0  0  0  1  0  0  0  0  0  0  0  0
   -1.1286    2.3610    2.7815 C   0  0  0  1  0  0  0  0  0  0  0  0
    0.9250    3.5053    3.2027 O   0  0  0  1  0  0  0  0  0  0  0  0
   -0.9393    4.4038    4.1012 N   0  0  0  1  0  0  0  0  0  0  0  0
   -3.2298    2.2280    2.9294 H   0  0  0  1  0  0  0  0  0  0  0  0
   -2.5015    2.1342    4.7902 C   0  0  0  1  0  0  0  0  0  0  0  0
   -0.2571    5.5280    4.7247 C   0  0  0  1  0  0  0  0  0  0  0  0
   -3.9100    2.1052    5.3511 C   0  0  0  1  0  0  0  0  0  0  0  0
   -1.5191    2.0663    5.5276 O   0  0  0  1  0  0  0  0  0  0  0  0
   -1.9125    4.3319    4.1917 H   0  0  0  1  0  0  0  0  0  0  0  0
    0.7477    5.2483    4.9633 H   0  0  0  1  0  0  0  0  0  0  0  0
   -0.7723    5.8051    5.6206 H   0  0  0  1  0  0  0  0  0  0  0  0
   -0.2452    6.3571    4.0484 H   0  0  0  1  0  0  0  0  0  0  0  0
   -4.3636    1.1619    5.1288 H   0  0  0  1  0  0  0  0  0  0  0  0
   -4.4861    2.8908    4.9087 H   0  0  0  1  0  0  0  0  0  0  0  0
   -3.8741    2.2423    6.4117 H   0  0  0  1  0  0  0  0  0  0  0  0
   -3.9116    7.6616    0.4395 F   0  0  0  1  0  0  0  0  0  0  0  0
   -3.2836    6.4921    0.6667 C   0  0  0  1  0  0  0  0  0  0  0  0
   -2.0277    6.4356    1.2507 C   0  0  0  1  0  0  0  0  0  0  0  0
   -1.4173    5.2135    1.4607 C   0  0  0  1  0  0  0  0  0  0  0  0
   -2.0634    4.0439    1.0921 C   0  0  0  1  0  0  0  0  0  0  0  0
   -3.3156    4.0999    0.5098 C   0  0  0  1  0  0  0  0  0  0  0  0
   -3.9277    5.3257    0.2993 C   0  0  0  1  0  0  0  0  0  0  0  0
   -1.3994    2.7076    1.3266 C   0  0  0  1  0  0  0  0  0  0  0  0
   -1.5447    7.3130    1.5309 H   0  0  0  1  0  0  0  0  0  0  0  0
   -0.4733    5.1715    1.8952 H   0  0  0  1  0  0  0  0  0  0  0  0
   -3.7986    3.2225    0.2296 H   0  0  0  1  0  0  0  0  0  0  0  0
   -4.8716    5.3677   -0.1352 H   0  0  0  1  0  0  0  0  0  0  0  0
   -2.0332    1.9480    0.9189 H   0  0  0  1  0  0  0  0  0  0  0  0
   -0.4636    2.7084    0.8078 H   0  0  0  1  0  0  0  0  0  0  0  0
  1  4  1  0  0  0  0
  2  4  1  0  0  0  0
  2  5  2  0  0  0  0
  2  6  1  0  0  0  0
  3  4  1  0  0  0  0
  3  7  1  0  0  0  0
  3  8  1  0  0  0  0
  4 26  1  0  0  0  0
  6  9  1  0  0  0  0
  6 12  1  0  0  0  0
  8 10  1  0  0  0  0
  8 11  2  0  0  0  0
  9 13  1  0  0  0  0
  9 14  1  0  0  0  0
  9 15  1  0  0  0  0
 10 16  1  0  0  0  0
 10 17  1  0  0  0  0
 10 18  1  0  0  0  0
 19 20  1  0  0  0  0
 20 21  4  0  0  0  0
 20 25  4  0  0  0  0
 21 22  4  0  0  0  0
 21 27  1  0  0  0  0
 22 23  4  0  0  0  0
 22 28  1  0  0  0  0
 23 24  4  0  0  0  0
 23 26  1  0  0  0  0
 24 25  4  0  0  0  0
 24 29  1  0  0  0  0
 25 30  1  0  0  0  0
 26 31  1  0  0  0  0
 26 32  1  0  0  0  0
M  END
> <BCLConfClusterSize>
1

> <ConfClashScore>
0 

> <ConfOneFourInteractionScore>
-0.957074 

> <ConfScore>
-0.0349492 

> <ConfScorePBest>
0.00509968 

> <ConfTolerance>
0.241779 

> <RosettaParamsInstructions>
M  ROOT 3
M  POLY_N_BB 3
M  POLY_CA_BB 4
M  POLY_C_BB 2
M  POLY_O_BB 5
M  POLY_IGNORE 9 10 11 12 13 14 15 16 17 18 
M  POLY_UPPER 6
M  POLY_LOWER 8
M  POLY_CHG 0
M  POLY_PROPERTIES ALPHA_AA L_AA PROTEIN AROMATIC POLYMER 
M  END

$$$$



 32 32  0  0  0  0  0  0  0  0999 V2000
   -0.0713    3.2576    2.8466 H   0  0  0  1  0  0  0  0  0  0  0  0
    0.6560    1.4529    2.0204 C   0  0  0  1  0  0  0  0  0  0  0  0
    0.8705    3.6851    1.0532 N   0  0  0  1  0  0  0  0  0  0  0  0
    0.0222    2.8262    1.8719 C   0  0  0  1  0  0  0  0  0  0  0  0
    0.6282    0.9227    3.1302 O   0  0  0  1  0  0  0  0  0  0  0  0
    1.2075    0.8954    0.9446 N   0  0  0  1  0  0  0  0  0  0  0  0
    0.8400    3.5589    0.0819 H   0  0  0  1  0  0  0  0  0  0  0  0
    1.7047    4.6525    1.5387 C   0  0  0  1  0  0  0  0  0  0  0  0
    1.7937   -0.4363    0.9733 C   0  0  0  1  0  0  0  0  0  0  0  0
    2.5870    5.2800    0.4771 C   0  0  0  1  0  0  0  0  0  0  0  0
    1.7182    4.9620    2.7158 O   0  0  0  1  0  0  0  0  0  0  0  0
    1.2191    1.3993    0.1042 H   0  0  0  1  0  0  0  0  0  0  0  0
    2.1630   -0.6850    0.0003 H   0  0  0  1  0  0  0  0  0  0  0  0
    1.0490   -1.1473    1.2643 H   0  0  0  1  0  0  0  0  0  0  0  0
    2.6001   -0.4557    1.6763 H   0  0  0  1  0  0  0  0  0  0  0  0
    1.9801    5.8254   -0.2151 H   0  0  0  1  0  0  0  0  0  0  0  0
    3.1192    4.5117   -0.0438 H   0  0  0  1  0  0  0  0  0  0  0  0
    3.2843    5.9458    0.9412 H   0  0  0  1  0  0  0  0  0  0  0  0
   -3.9036    7.6620    0.4212 F   0  0  0  1  0  0  0  0  0  0  0  0
   -3.2808    6.4922    0.6612 C   0  0  0  1  0  0  0  0  0  0  0  0
   -2.0279    6.4362    1.2516 C   0  0  0  1  0  0  0  0  0  0  0  0
   -1.4229    5.2138    1.4747 C   0  0  0  1  0  0  0  0  0  0  0  0
   -2.0714    4.0434    1.1128 C   0  0  0  1  0  0  0  0  0  0  0  0
   -3.3206    4.0989    0.5241 C   0  0  0  1  0  0  0  0  0  0  0  0
   -3.9273    5.3251    0.3004 C   0  0  0  1  0  0  0  0  0  0  0  0
   -1.3811    2.7090    1.2690 C   0  0  0  1  0  0  0  0  0  0  0  0
   -1.5431    7.3142    1.5268 H   0  0  0  1  0  0  0  0  0  0  0  0
   -0.4811    5.1721    1.9140 H   0  0  0  1  0  0  0  0  0  0  0  0
   -3.8054    3.2209    0.2489 H   0  0  0  1  0  0  0  0  0  0  0  0
   -4.8691    5.3668   -0.1389 H   0  0  0  1  0  0  0  0  0  0  0  0
   -1.9759    2.0907    1.9084 H   0  0  0  1  0  0  0  0  0  0  0  0
   -1.3005    2.2523    0.3047 H   0  0  0  1  0  0  0  0  0  0  0  0
  1  4  1  0  0  0  0
  2  4  1  0  0  0  0
  2  5  2  0  0  0  0
  2  6  1  0  0  0  0
  3  4  1  0  0  0  0
  3  7  1  0  0  0  0
  3  8  1  0  0  0  0
  4 26  1  0  0  0  0
  6  9  1  0  0  0  0
  6 12  1  0  0  0  0
  8 10  1  0  0  0  0
  8 11  2  0  0  0  0
  9 13  1  0  0  0  0
  9 14  1  0  0  0  0
  9 15  1  0  0  0  0
 10 16  1  0  0  0  0
 10 17  1  0  0  0  0
 10 18  1  0  0  0  0
 19 20  1  0  0  0  0
 20 21  4  0  0  0  0
 20 25  4  0  0  0  0
 21 22  4  0  0  0  0
 21 27  1  0  0  0  0
 22 23  4  0  0  0  0
 22 28  1  0  0  0  0
 23 24  4  0  0  0  0
 23 26  1  0  0  0  0
 24 25  4  0  0  0  0
 24 29  1  0  0  0  0
 25 30  1  0  0  0  0
 26 31  1  0  0  0  0
 26 32  1  0  0  0  0
M  END
> <BCLConfClusterSize>
1

> <ConfClashScore>
0 

> <ConfOneFourInteractionScore>
-0.949001 

> <ConfScore>
-0.0348469 

> <ConfScorePBest>
0.0050712 

> <ConfTolerance>
0.409678 

> <RosettaParamsInstructions>
M  ROOT 3
M  POLY_N_BB 3
M  POLY_CA_BB 4
M  POLY_C_BB 2
M  POLY_O_BB 5
M  POLY_IGNORE 9 10 11 12 13 14 15 16 17 18 
M  POLY_UPPER 6
M  POLY_LOWER 8
M  POLY_CHG 0
M  POLY_PROPERTIES ALPHA_AA L_AA PROTEIN AROMATIC POLYMER 
M  END

$$$$



 32 32  0  0  0  0  0  0  0  0999 V2000
    0.0753    2.8329   -0.1764 H   0  0  0  1  0  0  0  0  0  0  0  0
   -0.0831    0.7842    0.3014 C   0  0  0  1  0  0  0  0  0  0  0  0
   -1.6379    2.0763   -1.0344 N   0  0  0  1  0  0  0  0  0  0  0  0
   -0.7114    2.1565    0.0850 C   0  0  0  1  0  0  0  0  0  0  0  0
   -0.7746   -0.2272    0.3861 O   0  0  0  1  0  0  0  0  0  0  0  0
    1.2499    0.7636    0.3903 N   0  0  0  1  0  0  0  0  0  0  0  0
   -2.5714    1.8549   -0.8350 H   0  0  0  1  0  0  0  0  0  0  0  0
   -1.3083    2.2839   -2.3262 C   0  0  0  1  0  0  0  0  0  0  0  0
    1.9874   -0.4421    0.7368 C   0  0  0  1  0  0  0  0  0  0  0  0
   -2.3986    2.1468   -3.3709 C   0  0  0  1  0  0  0  0  0  0  0  0
   -0.1585    2.5756   -2.6493 O   0  0  0  1  0  0  0  0  0  0  0  0
    1.7483    1.5893    0.2161 H   0  0  0  1  0  0  0  0  0  0  0  0
    1.3965   -1.3024    0.5010 H   0  0  0  1  0  0  0  0  0  0  0  0
    2.2072   -0.4369    1.7840 H   0  0  0  1  0  0  0  0  0  0  0  0
    2.9007   -0.4736    0.1803 H   0  0  0  1  0  0  0  0  0  0  0  0
   -2.8161    1.1627   -3.3245 H   0  0  0  1  0  0  0  0  0  0  0  0
   -1.9836    2.3124   -4.3431 H   0  0  0  1  0  0  0  0  0  0  0  0
   -3.1657    2.8686   -3.1824 H   0  0  0  1  0  0  0  0  0  0  0  0
   -3.8843    7.6784    0.4533 F   0  0  0  1  0  0  0  0  0  0  0  0
   -3.2892    6.4887    0.6639 C   0  0  0  1  0  0  0  0  0  0  0  0
   -2.0333    6.4356    1.2481 C   0  0  0  1  0  0  0  0  0  0  0  0
   -1.4202    5.2151    1.4594 C   0  0  0  1  0  0  0  0  0  0  0  0
   -2.0637    4.0436    1.0920 C   0  0  0  1  0  0  0  0  0  0  0  0
   -3.3160    4.0963    0.5094 C   0  0  0  1  0  0  0  0  0  0  0  0
   -3.9307    5.3205    0.2975 C   0  0  0  1  0  0  0  0  0  0  0  0
   -1.3968    2.7090    1.3279 C   0  0  0  1  0  0  0  0  0  0  0  0
   -1.5523    7.3143    1.5275 H   0  0  0  1  0  0  0  0  0  0  0  0
   -0.4762    5.1756    1.8941 H   0  0  0  1  0  0  0  0  0  0  0  0
   -3.7969    3.2175    0.2300 H   0  0  0  1  0  0  0  0  0  0  0  0
   -4.8747    5.3600   -0.1371 H   0  0  0  1  0  0  0  0  0  0  0  0
   -0.6630    2.8264    2.0978 H   0  0  0  1  0  0  0  0  0  0  0  0
   -2.1401    2.0085    1.6468 H   0  0  0  1  0  0  0  0  0  0  0  0
  1  4  1  0  0  0  0
  2  4  1  0  0  0  0
  2  5  2  0  0  0  0
  2  6  1  0  0  0  0
  3  4  1  0  0  0  0
  3  7  1  0  0  0  0
  3  8  1  0  0  0  0
  4 26  1  0  0  0  0
  6  9  1  0  0  0  0
  6 12  1  0  0  0  0
  8 10  1  0  0  0  0
  8 11  2  0  0  0  0
  9 13  1  0  0  0  0
  9 14  1  0  0  0  0
  9 15  1  0  0  0  0
 10 16  1  0  0  0  0
 10 17  1  0  0  0  0
 10 18  1  0  0  0  0
 19 20  1  0  0  0  0
 20 21  4  0  0  0  0
 20 25  4  0  0  0  0
 21 22  4  0  0  0  0
 21 27  1  0  0  0  0
 22 23  4  0  0  0  0
 22 28  1  0  0  0  0
 23 24  4  0  0  0  0
 23 26  1  0  0  0  0
 24 25  4  0  0  0  0
 24 29  1  0  0  0  0
 25 30  1  0  0  0  0
 26 31  1  0  0  0  0
 26 32  1  0  0  0  0
M  END
> <BCLConfClusterSize>
1

> <ConfClashScore>
0 

> <ConfOneFourInteractionScore>
-0.985807 

> <ConfScore>
-0.0337094 

> <ConfScorePBest>
0.00504272 

> <ConfTolerance>
0.305482 

> <RosettaParamsInstructions>
M  ROOT 3
M  POLY_N_BB 3
M  POLY_CA_BB 4
M  POLY_C_BB 2
M  POLY_O_BB 5
M  POLY_IGNORE 9 10 11 12 13 14 15 16 17 18 
M  POLY_UPPER 6
M  POLY_LOWER 8
M  POLY_CHG 0
M  POLY_PROPERTIES ALPHA_AA L_AA PROTEIN AROMATIC POLYMER 
M  END

$$$$



 32 32  0  0  0  0  0  0  0  0999 V2000
    0.1586    1.5509    0.3953 H   0  0  0  1  0  0  0  0  0  0  0  0
   -1.2582    1.9777   -1.1076 C   0  0  0  1  0  0  0  0  0  0  0  0
    0.4492    3.4812   -0.2651 N   0  0  0  1  0  0  0  0  0  0  0  0
   -0.4398    2.3906    0.1095 C   0  0  0  1  0  0  0  0  0  0  0  0
   -1.5642    0.8194   -1.3246 O   0  0  0  1  0  0  0  0  0  0  0  0
   -1.6569    2.9164   -1.9708 N   0  0  0  1  0  0  0  0  0  0  0  0
    0.4710    4.2737    0.3110 H   0  0  0  1  0  0  0  0  0  0  0  0
    1.2436    3.4703   -1.3532 C   0  0  0  1  0  0  0  0  0  0  0  0
   -2.2938    2.5876   -3.2373 C   0  0  0  1  0  0  0  0  0  0  0  0
    2.1707    4.6668   -1.4429 C   0  0  0  1  0  0  0  0  0  0  0  0
    1.2428    2.5963   -2.2051 O   0  0  0  1  0  0  0  0  0  0  0  0
   -1.5156    3.8590   -1.7431 H   0  0  0  1  0  0  0  0  0  0  0  0
   -3.2645    2.1769   -3.0530 H   0  0  0  1  0  0  0  0  0  0  0  0
   -1.6968    1.8704   -3.7609 H   0  0  0  1  0  0  0  0  0  0  0  0
   -2.3883    3.4739   -3.8293 H   0  0  0  1  0  0  0  0  0  0  0  0
    2.8818    4.5097   -2.2268 H   0  0  0  1  0  0  0  0  0  0  0  0
    2.6863    4.7887   -0.5132 H   0  0  0  1  0  0  0  0  0  0  0  0
    1.5983    5.5464   -1.6518 H   0  0  0  1  0  0  0  0  0  0  0  0
   -3.8731    7.6806    0.4363 F   0  0  0  1  0  0  0  0  0  0  0  0
   -3.2866    6.4887    0.6582 C   0  0  0  1  0  0  0  0  0  0  0  0
   -2.0338    6.4318    1.2487 C   0  0  0  1  0  0  0  0  0  0  0  0
   -1.4295    5.2089    1.4716 C   0  0  0  1  0  0  0  0  0  0  0  0
   -2.0788    4.0390    1.1095 C   0  0  0  1  0  0  0  0  0  0  0  0
   -3.3280    4.0954    0.5207 C   0  0  0  1  0  0  0  0  0  0  0  0
   -3.9339    5.3220    0.2972 C   0  0  0  1  0  0  0  0  0  0  0  0
   -1.3458    2.7301    1.2857 C   0  0  0  1  0  0  0  0  0  0  0  0
   -1.5484    7.3094    1.5240 H   0  0  0  1  0  0  0  0  0  0  0  0
   -0.4878    5.1665    1.9109 H   0  0  0  1  0  0  0  0  0  0  0  0
   -3.8133    3.2178    0.2454 H   0  0  0  1  0  0  0  0  0  0  0  0
   -4.8755    5.3644   -0.1421 H   0  0  0  1  0  0  0  0  0  0  0  0
   -0.7469    2.7916    2.1703 H   0  0  0  1  0  0  0  0  0  0  0  0
   -2.0674    1.9479    1.3967 H   0  0  0  1  0  0  0  0  0  0  0  0
  1  4  1  0  0  0  0
  2  4  1  0  0  0  0
  2  5  2  0  0  0  0
  2  6  1  0  0  0  0
  3  4  1  0  0  0  0
  3  7  1  0  0  0  0
  3  8  1  0  0  0  0
  4 26  1  0  0  0  0
  6  9  1  0  0  0  0
  6 12  1  0  0  0  0
  8 10  1  0  0  0  0
  8 11  2  0  0  0  0
  9 13  1  0  0  0  0
  9 14  1  0  0  0  0
  9 15  1  0  0  0  0
 10 16  1  0  0  0  0
 10 17  1  0  0  0  0
 10 18  1  0  0  0  0
 19 20  1  0  0  0  0
 20 21  4  0  0  0  0
 20 25  4  0  0  0  0
 21 22  4  0  0  0  0
 21 27  1  0  0  0  0
 22 23  4  0  0  0  0
 22 28  1  0  0  0  0
 23 24  4  0  0  0  0
 23 26  1  0  0  0  0
 24 25  4  0  0  0  0
 24 29  1  0  0  0  0
 25 30  1  0  0  0  0
 26 31  1  0  0  0  0
 26 32  1  0  0  0  0
M  END
> <BCLConfClusterSize>
1

> <ConfClashScore>
0 

> <ConfOneFourInteractionScore>
-0.931937 

> <ConfScore>
-0.0272105 

> <ConfScorePBest>
0.00501424 

> <ConfTolerance>
0.302897 

> <RosettaParamsInstructions>
M  ROOT 3
M  POLY_N_BB 3
M  POLY_CA_BB 4
M  POLY_C_BB 2
M  POLY_O_BB 5
M  POLY_IGNORE 9 10 11 12 13 14 15 16 17 18 
M  POLY_UPPER 6
M  POLY_LOWER 8
M  POLY_CHG 0
M  POLY_PROPERTIES ALPHA_AA L_AA PROTEIN AROMATIC POLYMER 
M  END

$$$$



 32 32  0  0  0  0  0  0  0  0999 V2000
   -0.9430    1.3908    2.8837 H   0  0  0  1  0  0  0  0  0  0  0  0
   -0.9892    3.3166    3.7034 C   0  0  0  1  0  0  0  0  0  0  0  0
   -2.9144    1.9018    3.1361 N   0  0  0  1  0  0  0  0  0  0  0  0
   -1.5504    2.2640    2.7674 C   0  0  0  1  0  0  0  0  0  0  0  0
    0.2042    3.3727    3.9504 O   0  0  0  1  0  0  0  0  0  0  0  0
   -1.8854    4.1661    4.2301 N   0  0  0  1  0  0  0  0  0  0  0  0
   -3.6452    2.0341    2.4968 H   0  0  0  1  0  0  0  0  0  0  0  0
   -3.1720    1.3851    4.3555 C   0  0  0  1  0  0  0  0  0  0  0  0
   -1.5111    5.1948    5.1891 C   0  0  0  1  0  0  0  0  0  0  0  0
   -4.6197    0.9792    4.5520 C   0  0  0  1  0  0  0  0  0  0  0  0
   -2.3357    1.2427    5.2466 O   0  0  0  1  0  0  0  0  0  0  0  0
   -2.8242    4.0909    3.9595 H   0  0  0  1  0  0  0  0  0  0  0  0
   -0.4874    5.0642    5.4718 H   0  0  0  1  0  0  0  0  0  0  0  0
   -2.1331    5.1169    6.0563 H   0  0  0  1  0  0  0  0  0  0  0  0
   -1.6377    6.1597    4.7443 H   0  0  0  1  0  0  0  0  0  0  0  0
   -5.1152    0.9533    3.6040 H   0  0  0  1  0  0  0  0  0  0  0  0
   -5.1055    1.6887    5.1888 H   0  0  0  1  0  0  0  0  0  0  0  0
   -4.6599    0.0092    5.0018 H   0  0  0  1  0  0  0  0  0  0  0  0
   -3.8878    7.6762    0.4515 F   0  0  0  1  0  0  0  0  0  0  0  0
   -3.2890    6.4887    0.6640 C   0  0  0  1  0  0  0  0  0  0  0  0
   -2.0330    6.4405    1.2486 C   0  0  0  1  0  0  0  0  0  0  0  0
   -1.4161    5.2223    1.4618 C   0  0  0  1  0  0  0  0  0  0  0  0
   -2.0557    4.0482    1.0959 C   0  0  0  1  0  0  0  0  0  0  0  0
   -3.3080    4.0960    0.5131 C   0  0  0  1  0  0  0  0  0  0  0  0
   -3.9267    5.3180    0.2992 C   0  0  0  1  0  0  0  0  0  0  0  0
   -1.4343    2.6881    1.3092 C   0  0  0  1  0  0  0  0  0  0  0  0
   -1.5548    7.3212    1.5267 H   0  0  0  1  0  0  0  0  0  0  0  0
   -0.4721    5.1864    1.8967 H   0  0  0  1  0  0  0  0  0  0  0  0
   -3.7862    3.2153    0.2349 H   0  0  0  1  0  0  0  0  0  0  0  0
   -4.8707    5.3538   -0.1357 H   0  0  0  1  0  0  0  0  0  0  0  0
   -1.9381    1.9719    0.6943 H   0  0  0  1  0  0  0  0  0  0  0  0
   -0.4003    2.7283    1.0368 H   0  0  0  1  0  0  0  0  0  0  0  0
  1  4  1  0  0  0  0
  2  4  1  0  0  0  0
  2  5  2  0  0  0  0
  2  6  1  0  0  0  0
  3  4  1  0  0  0  0
  3  7  1  0  0  0  0
  3  8  1  0  0  0  0
  4 26  1  0  0  0  0
  6  9  1  0  0  0  0
  6 12  1  0  0  0  0
  8 10  1  0  0  0  0
  8 11  2  0  0  0  0
  9 13  1  0  0  0  0
  9 14  1  0  0  0  0
  9 15  1  0  0  0  0
 10 16  1  0  0  0  0
 10 17  1  0  0  0  0
 10 18  1  0  0  0  0
 19 20  1  0  0  0  0
 20 21  4  0  0  0  0
 20 25  4  0  0  0  0
 21 22  4  0  0  0  0
 21 27  1  0  0  0  0
 22 23  4  0  0  0  0
 22 28  1  0  0  0  0
 23 24  4  0  0  0  0
 23 26  1  0  0  0  0
 24 25  4  0  0  0  0
 24 29  1  0  0  0  0
 25 30  1  0  0  0  0
 26 31  1  0  0  0  0
 26 32  1  0  0  0  0
M  END
> <BCLConfClusterSize>
1

> <ConfClashScore>
0 

> <ConfOneFourInteractionScore>
-0.957074 

> <ConfScore>
-0.0224537 

> <ConfScorePBest>
0.00498576 

> <ConfTolerance>
0.264779 

> <RosettaParamsInstructions>
M  ROOT 3
M  POLY_N_BB 3
M  POLY_CA_BB 4
M  POLY_C_BB 2
M  POLY_O_BB 5
M  POLY_IGNORE 9 10 11 12 13 14 15 16 17 18 
M  POLY_UPPER 6
M  POLY_LOWER 8
M  POLY_CHG 0
M  POLY_PROPERTIES ALPHA_AA L_AA PROTEIN AROMATIC POLYMER 
M  END

$$$$



 32 32  0  0  0  0  0  0  0  0999 V2000
   -2.8243    1.9712    2.6335 H   0  0  0  1  0  0  0  0  0  0  0  0
   -1.2699    0.5497    2.4976 C   0  0  0  1  0  0  0  0  0  0  0  0
   -1.2267    2.7226    3.7053 N   0  0  0  1  0  0  0  0  0  0  0  0
   -1.7565    1.9870    2.5669 C   0  0  0  1  0  0  0  0  0  0  0  0
   -0.1169    0.2853    2.1991 O   0  0  0  1  0  0  0  0  0  0  0  0
   -2.1849   -0.3901    2.7835 N   0  0  0  1  0  0  0  0  0  0  0  0
   -0.4861    3.3519    3.5791 H   0  0  0  1  0  0  0  0  0  0  0  0
   -1.7531    2.5401    4.9341 C   0  0  0  1  0  0  0  0  0  0  0  0
   -1.8977   -1.8128    2.6760 C   0  0  0  1  0  0  0  0  0  0  0  0
   -1.2500    3.4760    6.0098 C   0  0  0  1  0  0  0  0  0  0  0  0
   -2.5898    1.6730    5.1825 O   0  0  0  1  0  0  0  0  0  0  0  0
   -3.0772   -0.1084    3.0747 H   0  0  0  1  0  0  0  0  0  0  0  0
   -1.1656   -2.0856    3.4070 H   0  0  0  1  0  0  0  0  0  0  0  0
   -1.5217   -2.0275    1.6975 H   0  0  0  1  0  0  0  0  0  0  0  0
   -2.7948   -2.3712    2.8444 H   0  0  0  1  0  0  0  0  0  0  0  0
   -0.2184    3.2717    6.2071 H   0  0  0  1  0  0  0  0  0  0  0  0
   -1.8195    3.3303    6.9038 H   0  0  0  1  0  0  0  0  0  0  0  0
   -1.3561    4.4882    5.6797 H   0  0  0  1  0  0  0  0  0  0  0  0
   -3.8763    7.6788    0.4350 F   0  0  0  1  0  0  0  0  0  0  0  0
   -3.2865    6.4888    0.6583 C   0  0  0  1  0  0  0  0  0  0  0  0
   -2.0335    6.4362    1.2490 C   0  0  0  1  0  0  0  0  0  0  0  0
   -1.4258    5.2154    1.4734 C   0  0  0  1  0  0  0  0  0  0  0  0
   -2.0717    4.0431    1.1127 C   0  0  0  1  0  0  0  0  0  0  0  0
   -3.3210    4.0953    0.5237 C   0  0  0  1  0  0  0  0  0  0  0  0
   -3.9304    5.3199    0.2987 C   0  0  0  1  0  0  0  0  0  0  0  0
   -1.3785    2.7104    1.2703 C   0  0  0  1  0  0  0  0  0  0  0  0
   -1.5507    7.3155    1.5233 H   0  0  0  1  0  0  0  0  0  0  0  0
   -0.4841    5.1762    1.9129 H   0  0  0  1  0  0  0  0  0  0  0  0
   -3.8038    3.2159    0.2494 H   0  0  0  1  0  0  0  0  0  0  0  0
   -4.8721    5.3591   -0.1408 H   0  0  0  1  0  0  0  0  0  0  0  0
   -1.6457    2.0875    0.4424 H   0  0  0  1  0  0  0  0  0  0  0  0
   -0.3211    2.8741    1.2675 H   0  0  0  1  0  0  0  0  0  0  0  0
  1  4  1  0  0  0  0
  2  4  1  0  0  0  0
  2  5  2  0  0  0  0
  2  6  1  0  0  0  0
  3  4  1  0  0  0  0
  3  7  1  0  0  0  0
  3  8  1  0  0  0  0
  4 26  1  0  0  0  0
  6  9  1  0  0  0  0
  6 12  1  0  0  0  0
  8 10  1  0  0  0  0
  8 11  2  0  0  0  0
  9 13  1  0  0  0  0
  9 14  1  0  0  0  0
  9 15  1  0  0  0  0
 10 16  1  0  0  0  0
 10 17  1  0  0  0  0
 10 18  1  0  0  0  0
 19 20  1  0  0  0  0
 20 21  4  0  0  0  0
 20 25  4  0  0  0  0
 21 22  4  0  0  0  0
 21 27  1  0  0  0  0
 22 23  4  0  0  0  0
 22 28  1  0  0  0  0
 23 24  4  0  0  0  0
 23 26  1  0  0  0  0
 24 25  4  0  0  0  0
 24 29  1  0  0  0  0
 25 30  1  0  0  0  0
 26 31  1  0  0  0  0
 26 32  1  0  0  0  0
M  END
> <BCLConfClusterSize>
1

> <ConfClashScore>
0 

> <ConfOneFourInteractionScore>
-0.971454 

> <ConfScore>
-0.0221923 

> <ConfScorePBest>
0.00495728 

> <ConfTolerance>
0.284007 

> <RosettaParamsInstructions>
M  ROOT 3
M  POLY_N_BB 3
M  POLY_CA_BB 4
M  POLY_C_BB 2
M  POLY_O_BB 5
M  POLY_IGNORE 9 10 11 12 13 14 15 16 17 18 
M  POLY_UPPER 6
M  POLY_LOWER 8
M  POLY_CHG 0
M  POLY_PROPERTIES ALPHA_AA L_AA PROTEIN AROMATIC POLYMER 
M  END

$$$$



 32 32  0  0  0  0  0  0  0  0999 V2000
   -1.1411    3.0113    3.3621 H   0  0  0  1  0  0  0  0  0  0  0  0
   -2.8030    1.7639    3.0787 C   0  0  0  1  0  0  0  0  0  0  0  0
   -0.4204    1.1432    2.8919 N   0  0  0  1  0  0  0  0  0  0  0  0
   -1.4028    2.2019    2.7131 C   0  0  0  1  0  0  0  0  0  0  0  0
   -3.1662    0.6013    2.9046 O   0  0  0  1  0  0  0  0  0  0  0  0
   -3.6356    2.6801    3.5977 N   0  0  0  1  0  0  0  0  0  0  0  0
    0.0542    0.7802    2.1151 H   0  0  0  1  0  0  0  0  0  0  0  0
   -0.1643    0.6649    4.1129 C   0  0  0  1  0  0  0  0  0  0  0  0
   -4.9566    2.3338    4.1005 C   0  0  0  1  0  0  0  0  0  0  0  0
    0.9202   -0.3906    4.2079 C   0  0  0  1  0  0  0  0  0  0  0  0
   -0.7117    1.1056    5.1227 O   0  0  0  1  0  0  0  0  0  0  0  0
   -3.3437    3.6147    3.6394 H   0  0  0  1  0  0  0  0  0  0  0  0
   -5.2920    1.4321    3.6322 H   0  0  0  1  0  0  0  0  0  0  0  0
   -5.6411    3.1261    3.8794 H   0  0  0  1  0  0  0  0  0  0  0  0
   -4.9082    2.1888    5.1595 H   0  0  0  1  0  0  0  0  0  0  0  0
    1.6112   -0.2664    3.4005 H   0  0  0  1  0  0  0  0  0  0  0  0
    0.4771   -1.3629    4.1514 H   0  0  0  1  0  0  0  0  0  0  0  0
    1.4374   -0.2874    5.1389 H   0  0  0  1  0  0  0  0  0  0  0  0
   -3.8731    7.6806    0.4363 F   0  0  0  1  0  0  0  0  0  0  0  0
   -3.2866    6.4887    0.6582 C   0  0  0  1  0  0  0  0  0  0  0  0
   -2.0338    6.4318    1.2487 C   0  0  0  1  0  0  0  0  0  0  0  0
   -1.4295    5.2089    1.4716 C   0  0  0  1  0  0  0  0  0  0  0  0
   -2.0788    4.0390    1.1095 C   0  0  0  1  0  0  0  0  0  0  0  0
   -3.3280    4.0954    0.5207 C   0  0  0  1  0  0  0  0  0  0  0  0
   -3.9339    5.3220    0.2972 C   0  0  0  1  0  0  0  0  0  0  0  0
   -1.3458    2.7301    1.2857 C   0  0  0  1  0  0  0  0  0  0  0  0
   -1.5484    7.3094    1.5240 H   0  0  0  1  0  0  0  0  0  0  0  0
   -0.4878    5.1665    1.9109 H   0  0  0  1  0  0  0  0  0  0  0  0
   -3.8133    3.2178    0.2454 H   0  0  0  1  0  0  0  0  0  0  0  0
   -4.8755    5.3644   -0.1421 H   0  0  0  1  0  0  0  0  0  0  0  0
   -1.7860    2.0030    0.6357 H   0  0  0  1  0  0  0  0  0  0  0  0
   -0.3203    2.8752    1.0170 H   0  0  0  1  0  0  0  0  0  0  0  0
  1  4  1  0  0  0  0
  2  4  1  0  0  0  0
  2  5  2  0  0  0  0
  2  6  1  0  0  0  0
  3  4  1  0  0  0  0
  3  7  1  0  0  0  0
  3  8  1  0  0  0  0
  4 26  1  0  0  0  0
  6  9  1  0  0  0  0
  6 12  1  0  0  0  0
  8 10  1  0  0  0  0
  8 11  2  0  0  0  0
  9 13  1  0  0  0  0
  9 14  1  0  0  0  0
  9 15  1  0  0  0  0
 10 16  1  0  0  0  0
 10 17  1  0  0  0  0
 10 18  1  0  0  0  0
 19 20  1  0  0  0  0
 20 21  4  0  0  0  0
 20 25  4  0  0  0  0
 21 22  4  0  0  0  0
 21 27  1  0  0  0  0
 22 23  4  0  0  0  0
 22 28  1  0  0  0  0
 23 24  4  0  0  0  0
 23 26  1  0  0  0  0
 24 25  4  0  0  0  0
 24 29  1  0  0  0  0
 25 30  1  0  0  0  0
 26 31  1  0  0  0  0
 26 32  1  0  0  0  0
M  END
> <BCLConfClusterSize>
1

> <ConfClashScore>
0 

> <ConfOneFourInteractionScore>
-0.985807 

> <ConfScore>
-0.0193404 

> <ConfScorePBest>
0.0049288 

> <ConfTolerance>
0.208726 

> <RosettaParamsInstructions>
M  ROOT 3
M  POLY_N_BB 3
M  POLY_CA_BB 4
M  POLY_C_BB 2
M  POLY_O_BB 5
M  POLY_IGNORE 9 10 11 12 13 14 15 16 17 18 
M  POLY_UPPER 6
M  POLY_LOWER 8
M  POLY_CHG 0
M  POLY_PROPERTIES ALPHA_AA L_AA PROTEIN AROMATIC POLYMER 
M  END

$$$$



 32 32  0  0  0  0  0  0  0  0999 V2000
   -1.4244    2.6451    3.4326 H   0  0  0  1  0  0  0  0  0  0  0  0
   -3.2697    1.8766    2.7780 C   0  0  0  1  0  0  0  0  0  0  0  0
   -1.0678    0.7400    2.7358 N   0  0  0  1  0  0  0  0  0  0  0  0
   -1.7635    2.0180    2.6347 C   0  0  0  1  0  0  0  0  0  0  0  0
   -3.9353    1.0176    2.2299 O   0  0  0  1  0  0  0  0  0  0  0  0
   -3.8209    2.8007    3.5795 N   0  0  0  1  0  0  0  0  0  0  0  0
   -0.6512    0.3635    1.9326 H   0  0  0  1  0  0  0  0  0  0  0  0
   -0.9789    0.0659    3.8834 C   0  0  0  1  0  0  0  0  0  0  0  0
   -5.2647    2.8470    3.7564 C   0  0  0  1  0  0  0  0  0  0  0  0
   -0.2382   -1.2634    3.8144 C   0  0  0  1  0  0  0  0  0  0  0  0
   -1.4581    0.4757    4.9398 O   0  0  0  1  0  0  0  0  0  0  0  0
   -3.2501    3.4459    4.0468 H   0  0  0  1  0  0  0  0  0  0  0  0
   -5.7456    2.6448    2.8223 H   0  0  0  1  0  0  0  0  0  0  0  0
   -5.5505    3.8187    4.1015 H   0  0  0  1  0  0  0  0  0  0  0  0
   -5.5594    2.1116    4.4756 H   0  0  0  1  0  0  0  0  0  0  0  0
   -0.4603   -1.7483    2.8868 H   0  0  0  1  0  0  0  0  0  0  0  0
   -0.5492   -1.8873    4.6261 H   0  0  0  1  0  0  0  0  0  0  0  0
    0.8153   -1.0884    3.8817 H   0  0  0  1  0  0  0  0  0  0  0  0
   -3.8843    7.6784    0.4533 F   0  0  0  1  0  0  0  0  0  0  0  0
   -3.2892    6.4887    0.6639 C   0  0  0  1  0  0  0  0  0  0  0  0
   -2.0333    6.4356    1.2481 C   0  0  0  1  0  0  0  0  0  0  0  0
   -1.4202    5.2151    1.4594 C   0  0  0  1  0  0  0  0  0  0  0  0
   -2.0637    4.0436    1.0920 C   0  0  0  1  0  0  0  0  0  0  0  0
   -3.3160    4.0963    0.5094 C   0  0  0  1  0  0  0  0  0  0  0  0
   -3.9307    5.3205    0.2975 C   0  0  0  1  0  0  0  0  0  0  0  0
   -1.3968    2.7090    1.3279 C   0  0  0  1  0  0  0  0  0  0  0  0
   -1.5523    7.3143    1.5275 H   0  0  0  1  0  0  0  0  0  0  0  0
   -0.4762    5.1756    1.8941 H   0  0  0  1  0  0  0  0  0  0  0  0
   -3.7969    3.2175    0.2300 H   0  0  0  1  0  0  0  0  0  0  0  0
   -4.8747    5.3600   -0.1371 H   0  0  0  1  0  0  0  0  0  0  0  0
   -1.6673    2.0580    0.5230 H   0  0  0  1  0  0  0  0  0  0  0  0
   -0.3380    2.8635    1.3219 H   0  0  0  1  0  0  0  0  0  0  0  0
  1  4  1  0  0  0  0
  2  4  1  0  0  0  0
  2  5  2  0  0  0  0
  2  6  1  0  0  0  0
  3  4  1  0  0  0  0
  3  7  1  0  0  0  0
  3  8  1  0  0  0  0
  4 26  1  0  0  0  0
  6  9  1  0  0  0  0
  6 12  1  0  0  0  0
  8 10  1  0  0  0  0
  8 11  2  0  0  0  0
  9 13  1  0  0  0  0
  9 14  1  0  0  0  0
  9 15  1  0  0  0  0
 10 16  1  0  0  0  0
 10 17  1  0  0  0  0
 10 18  1  0  0  0  0
 19 20  1  0  0  0  0
 20 21  4  0  0  0  0
 20 25  4  0  0  0  0
 21 22  4  0  0  0  0
 21 27  1  0  0  0  0
 22 23  4  0  0  0  0
 22 28  1  0  0  0  0
 23 24  4  0  0  0  0
 23 26  1  0  0  0  0
 24 25  4  0  0  0  0
 24 29  1  0  0  0  0
 25 30  1  0  0  0  0
 26 31  1  0  0  0  0
 26 32  1  0  0  0  0
M  END
> <BCLConfClusterSize>
1

> <ConfClashScore>
0 

> <ConfOneFourInteractionScore>
-0.985807 

> <ConfScore>
-0.0192273 

> <ConfScorePBest>
0.00490032 

> <ConfTolerance>
0.214783 

> <RosettaParamsInstructions>
M  ROOT 3
M  POLY_N_BB 3
M  POLY_CA_BB 4
M  POLY_C_BB 2
M  POLY_O_BB 5
M  POLY_IGNORE 9 10 11 12 13 14 15 16 17 18 
M  POLY_UPPER 6
M  POLY_LOWER 8
M  POLY_CHG 0
M  POLY_PROPERTIES ALPHA_AA L_AA PROTEIN AROMATIC POLYMER 
M  END

$$$$



 32 32  0  0  0  0  0  0  0  0999 V2000
   -2.0488    1.8179   -0.3995 H   0  0  0  1  0  0  0  0  0  0  0  0
   -1.1382    0.3221    0.7837 C   0  0  0  1  0  0  0  0  0  0  0  0
   -3.3256    1.3350    1.1521 N   0  0  0  1  0  0  0  0  0  0  0  0
   -1.9858    1.5755    0.6408 C   0  0  0  1  0  0  0  0  0  0  0  0
    0.0502    0.3176    0.4736 O   0  0  0  1  0  0  0  0  0  0  0  0
   -1.7692   -0.7539    1.2624 N   0  0  0  1  0  0  0  0  0  0  0  0
   -3.4855    1.4149    2.1157 H   0  0  0  1  0  0  0  0  0  0  0  0
   -4.3511    1.0072    0.3503 C   0  0  0  1  0  0  0  0  0  0  0  0
   -1.0135   -1.9908    1.3921 C   0  0  0  1  0  0  0  0  0  0  0  0
   -5.7234    0.8503    0.9760 C   0  0  0  1  0  0  0  0  0  0  0  0
   -4.1854    0.8389   -0.8550 O   0  0  0  1  0  0  0  0  0  0  0  0
   -2.7141   -0.7114    1.5189 H   0  0  0  1  0  0  0  0  0  0  0  0
   -0.8486   -2.4119    0.4223 H   0  0  0  1  0  0  0  0  0  0  0  0
   -1.5646   -2.6839    1.9927 H   0  0  0  1  0  0  0  0  0  0  0  0
   -0.0715   -1.7859    1.8565 H   0  0  0  1  0  0  0  0  0  0  0  0
   -6.0318    1.7834    1.3991 H   0  0  0  1  0  0  0  0  0  0  0  0
   -5.6818    0.1069    1.7444 H   0  0  0  1  0  0  0  0  0  0  0  0
   -6.4248    0.5498    0.2259 H   0  0  0  1  0  0  0  0  0  0  0  0
   -3.8776    7.6819    0.4566 F   0  0  0  1  0  0  0  0  0  0  0  0
   -3.2895    6.4882    0.6637 C   0  0  0  1  0  0  0  0  0  0  0  0
   -2.0337    6.4261    1.2474 C   0  0  0  1  0  0  0  0  0  0  0  0
   -1.4277    5.2014    1.4551 C   0  0  0  1  0  0  0  0  0  0  0  0
   -2.0782    4.0347    1.0847 C   0  0  0  1  0  0  0  0  0  0  0  0
   -3.3304    4.0964    0.5027 C   0  0  0  1  0  0  0  0  0  0  0  0
   -3.9380    5.3248    0.2944 C   0  0  0  1  0  0  0  0  0  0  0  0
   -1.3297    2.7524    1.3617 C   0  0  0  1  0  0  0  0  0  0  0  0
   -1.5474    7.3012    1.5290 H   0  0  0  1  0  0  0  0  0  0  0  0
   -0.4838    5.1552    1.8893 H   0  0  0  1  0  0  0  0  0  0  0  0
   -3.8166    3.2213    0.2211 H   0  0  0  1  0  0  0  0  0  0  0  0
   -4.8818    5.3711   -0.1398 H   0  0  0  1  0  0  0  0  0  0  0  0
   -0.3207    2.8544    1.0206 H   0  0  0  1  0  0  0  0  0  0  0  0
   -1.3334    2.5646    2.4151 H   0  0  0  1  0  0  0  0  0  0  0  0
  1  4  1  0  0  0  0
  2  4  1  0  0  0  0
  2  5  2  0  0  0  0
  2  6  1  0  0  0  0
  3  4  1  0  0  0  0
  3  7  1  0  0  0  0
  3  8  1  0  0  0  0
  4 26  1  0  0  0  0
  6  9  1  0  0  0  0
  6 12  1  0  0  0  0
  8 10  1  0  0  0  0
  8 11  2  0  0  0  0
  9 13  1  0  0  0  0
  9 14  1  0  0  0  0
  9 15  1  0  0  0  0
 10 16  1  0  0  0  0
 10 17  1  0  0  0  0
 10 18  1  0  0  0  0
 19 20  1  0  0  0  0
 20 21  4  0  0  0  0
 20 25  4  0  0  0  0
 21 22  4  0  0  0  0
 21 27  1  0  0  0  0
 22 23  4  0  0  0  0
 22 28  1  0  0  0  0
 23 24  4  0  0  0  0
 23 26  1  0  0  0  0
 24 25  4  0  0  0  0
 24 29  1  0  0  0  0
 25 30  1  0  0  0  0
 26 31  1  0  0  0  0
 26 32  1  0  0  0  0
M  END
> <BCLConfClusterSize>
1

> <ConfClashScore>
0 

> <ConfOneFourInteractionScore>
-0.930333 

> <ConfScore>
-0.0176356 

> <ConfScorePBest>
0.00487184 

> <ConfTolerance>
0.34511 

> <RosettaParamsInstructions>
M  ROOT 3
M  POLY_N_BB 3
M  POLY_CA_BB 4
M  POLY_C_BB 2
M  POLY_O_BB 5
M  POLY_IGNORE 9 10 11 12 13 14 15 16 17 18 
M  POLY_UPPER 6
M  POLY_LOWER 8
M  POLY_CHG 0
M  POLY_PROPERTIES ALPHA_AA L_AA PROTEIN AROMATIC POLYMER 
M  END

$$$$



 32 32  0  0  0  0  0  0  0  0999 V2000
   -0.2706    1.2380    0.2587 H   0  0  0  1  0  0  0  0  0  0  0  0
   -1.2093    2.5521   -1.1298 C   0  0  0  1  0  0  0  0  0  0  0  0
    0.7560    3.0509    0.1828 N   0  0  0  1  0  0  0  0  0  0  0  0
   -0.4807    2.2839    0.1758 C   0  0  0  1  0  0  0  0  0  0  0  0
   -1.8148    1.7010   -1.7601 O   0  0  0  1  0  0  0  0  0  0  0  0
   -1.1586    3.8093   -1.5793 N   0  0  0  1  0  0  0  0  0  0  0  0
    0.8033    3.7928    0.8214 H   0  0  0  1  0  0  0  0  0  0  0  0
    1.8421    2.8572   -0.5881 C   0  0  0  1  0  0  0  0  0  0  0  0
   -1.8683    4.2362   -2.7760 C   0  0  0  1  0  0  0  0  0  0  0  0
    2.9823    3.8344   -0.3773 C   0  0  0  1  0  0  0  0  0  0  0  0
    1.9228    1.9509   -1.4162 O   0  0  0  1  0  0  0  0  0  0  0  0
   -0.6249    4.4668   -1.0861 H   0  0  0  1  0  0  0  0  0  0  0  0
   -1.7271    3.5132   -3.5520 H   0  0  0  1  0  0  0  0  0  0  0  0
   -1.4876    5.1831   -3.0974 H   0  0  0  1  0  0  0  0  0  0  0  0
   -2.9120    4.3261   -2.5583 H   0  0  0  1  0  0  0  0  0  0  0  0
    3.5805    3.8816   -1.2632 H   0  0  0  1  0  0  0  0  0  0  0  0
    3.5856    3.5064    0.4432 H   0  0  0  1  0  0  0  0  0  0  0  0
    2.5852    4.8046   -0.1633 H   0  0  0  1  0  0  0  0  0  0  0  0
   -3.8843    7.6784    0.4533 F   0  0  0  1  0  0  0  0  0  0  0  0
   -3.2892    6.4887    0.6639 C   0  0  0  1  0  0  0  0  0  0  0  0
   -2.0333    6.4356    1.2481 C   0  0  0  1  0  0  0  0  0  0  0  0
   -1.4202    5.2151    1.4594 C   0  0  0  1  0  0  0  0  0  0  0  0
   -2.0637    4.0436    1.0920 C   0  0  0  1  0  0  0  0  0  0  0  0
   -3.3160    4.0963    0.5094 C   0  0  0  1  0  0  0  0  0  0  0  0
   -3.9307    5.3205    0.2975 C   0  0  0  1  0  0  0  0  0  0  0  0
   -1.3968    2.7090    1.3279 C   0  0  0  1  0  0  0  0  0  0  0  0
   -1.5523    7.3143    1.5275 H   0  0  0  1  0  0  0  0  0  0  0  0
   -0.4762    5.1756    1.8941 H   0  0  0  1  0  0  0  0  0  0  0  0
   -3.7969    3.2175    0.2300 H   0  0  0  1  0  0  0  0  0  0  0  0
   -4.8747    5.3600   -0.1371 H   0  0  0  1  0  0  0  0  0  0  0  0
   -0.8122    2.7737    2.2218 H   0  0  0  1  0  0  0  0  0  0  0  0
   -2.1566    1.9657    1.4510 H   0  0  0  1  0  0  0  0  0  0  0  0
  1  4  1  0  0  0  0
  2  4  1  0  0  0  0
  2  5  2  0  0  0  0
  2  6  1  0  0  0  0
  3  4  1  0  0  0  0
  3  7  1  0  0  0  0
  3  8  1  0  0  0  0
  4 26  1  0  0  0  0
  6  9  1  0  0  0  0
  6 12  1  0  0  0  0
  8 10  1  0  0  0  0
  8 11  2  0  0  0  0
  9 13  1  0  0  0  0
  9 14  1  0  0  0  0
  9 15  1  0  0  0  0
 10 16  1  0  0  0  0
 10 17  1  0  0  0  0
 10 18  1  0  0  0  0
 19 20  1  0  0  0  0
 20 21  4  0  0  0  0
 20 25  4  0  0  0  0
 21 22  4  0  0  0  0
 21 27  1  0  0  0  0
 22 23  4  0  0  0  0
 22 28  1  0  0  0  0
 23 24  4  0  0  0  0
 23 26  1  0  0  0  0
 24 25  4  0  0  0  0
 24 29  1  0  0  0  0
 25 30  1  0  0  0  0
 26 31  1  0  0  0  0
 26 32  1  0  0  0  0
M  END
> <BCLConfClusterSize>
1

> <ConfClashScore>
0 

> <ConfOneFourInteractionScore>
-0.950025 

> <ConfScore>
-0.00835211 

> <ConfScorePBest>
0.00484336 

> <ConfTolerance>
0.330757 

> <RosettaParamsInstructions>
M  ROOT 3
M  POLY_N_BB 3
M  POLY_CA_BB 4
M  POLY_C_BB 2
M  POLY_O_BB 5
M  POLY_IGNORE 9 10 11 12 13 14 15 16 17 18 
M  POLY_UPPER 6
M  POLY_LOWER 8
M  POLY_CHG 0
M  POLY_PROPERTIES ALPHA_AA L_AA PROTEIN AROMATIC POLYMER 
M  END

$$$$



 32 32  0  0  0  0  0  0  0  0999 V2000
   -1.1401    2.8797    3.3895 H   0  0  0  1  0  0  0  0  0  0  0  0
   -2.9998    1.9263    3.0755 C   0  0  0  1  0  0  0  0  0  0  0  0
   -0.7301    0.9329    2.8346 N   0  0  0  1  0  0  0  0  0  0  0  0
   -1.5342    2.1407    2.7236 C   0  0  0  1  0  0  0  0  0  0  0  0
   -3.5493    2.7644    3.7854 O   0  0  0  1  0  0  0  0  0  0  0  0
   -3.6093    0.8438    2.5970 N   0  0  0  1  0  0  0  0  0  0  0  0
   -0.6916    0.3345    2.0594 H   0  0  0  1  0  0  0  0  0  0  0  0
   -0.0424    0.5885    3.9237 C   0  0  0  1  0  0  0  0  0  0  0  0
   -4.9743    0.4951    2.9617 C   0  0  0  1  0  0  0  0  0  0  0  0
    0.8776   -0.6072    3.7711 C   0  0  0  1  0  0  0  0  0  0  0  0
   -0.1351    1.1892    4.9909 O   0  0  0  1  0  0  0  0  0  0  0  0
   -3.1218    0.2615    1.9775 H   0  0  0  1  0  0  0  0  0  0  0  0
   -5.0155    0.2558    4.0038 H   0  0  0  1  0  0  0  0  0  0  0  0
   -5.2911   -0.3513    2.3888 H   0  0  0  1  0  0  0  0  0  0  0  0
   -5.6198    1.3244    2.7606 H   0  0  0  1  0  0  0  0  0  0  0  0
    1.6284   -0.3892    3.0405 H   0  0  0  1  0  0  0  0  0  0  0  0
    0.3088   -1.4566    3.4552 H   0  0  0  1  0  0  0  0  0  0  0  0
    1.3449   -0.8194    4.7100 H   0  0  0  1  0  0  0  0  0  0  0  0
   -3.8878    7.6762    0.4515 F   0  0  0  1  0  0  0  0  0  0  0  0
   -3.2890    6.4887    0.6640 C   0  0  0  1  0  0  0  0  0  0  0  0
   -2.0330    6.4405    1.2486 C   0  0  0  1  0  0  0  0  0  0  0  0
   -1.4161    5.2223    1.4618 C   0  0  0  1  0  0  0  0  0  0  0  0
   -2.0557    4.0482    1.0959 C   0  0  0  1  0  0  0  0  0  0  0  0
   -3.3080    4.0960    0.5131 C   0  0  0  1  0  0  0  0  0  0  0  0
   -3.9267    5.3180    0.2992 C   0  0  0  1  0  0  0  0  0  0  0  0
   -1.4343    2.6881    1.3092 C   0  0  0  1  0  0  0  0  0  0  0  0
   -1.5548    7.3212    1.5267 H   0  0  0  1  0  0  0  0  0  0  0  0
   -0.4721    5.1864    1.8967 H   0  0  0  1  0  0  0  0  0  0  0  0
   -3.7862    3.2153    0.2349 H   0  0  0  1  0  0  0  0  0  0  0  0
   -4.8707    5.3538   -0.1357 H   0  0  0  1  0  0  0  0  0  0  0  0
   -1.9198    1.9967    0.6526 H   0  0  0  1  0  0  0  0  0  0  0  0
   -0.3974    2.7553    1.0538 H   0  0  0  1  0  0  0  0  0  0  0  0
  1  4  1  0  0  0  0
  2  4  1  0  0  0  0
  2  5  2  0  0  0  0
  2  6  1  0  0  0  0
  3  4  1  0  0  0  0
  3  7  1  0  0  0  0
  3  8  1  0  0  0  0
  4 26  1  0  0  0  0
  6  9  1  0  0  0  0
  6 12  1  0  0  0  0
  8 10  1  0  0  0  0
  8 11  2  0  0  0  0
  9 13  1  0  0  0  0
  9 14  1  0  0  0  0
  9 15  1  0  0  0  0
 10 16  1  0  0  0  0
 10 17  1  0  0  0  0
 10 18  1  0  0  0  0
 19 20  1  0  0  0  0
 20 21  4  0  0  0  0
 20 25  4  0  0  0  0
 21 22  4  0  0  0  0
 21 27  1  0  0  0  0
 22 23  4  0  0  0  0
 22 28  1  0  0  0  0
 23 24  4  0  0  0  0
 23 26  1  0  0  0  0
 24 25  4  0  0  0  0
 24 29  1  0  0  0  0
 25 30  1  0  0  0  0
 26 31  1  0  0  0  0
 26 32  1  0  0  0  0
M  END
> <BCLConfClusterSize>
1

> <ConfClashScore>
0 

> <ConfOneFourInteractionScore>
-0.948581 

> <ConfScore>
-0.00138701 

> <ConfScorePBest>
0.00481488 

> <ConfTolerance>
0.390526 

> <RosettaParamsInstructions>
M  ROOT 3
M  POLY_N_BB 3
M  POLY_CA_BB 4
M  POLY_C_BB 2
M  POLY_O_BB 5
M  POLY_IGNORE 9 10 11 12 13 14 15 16 17 18 
M  POLY_UPPER 6
M  POLY_LOWER 8
M  POLY_CHG 0
M  POLY_PROPERTIES ALPHA_AA L_AA PROTEIN AROMATIC POLYMER 
M  END

$$$$



 32 32  0  0  0  0  0  0  0  0999 V2000
   -1.7164    2.7518    3.4248 H   0  0  0  1  0  0  0  0  0  0  0  0
   -3.4004    1.7999    2.5746 C   0  0  0  1  0  0  0  0  0  0  0  0
   -1.1570    0.8438    2.8590 N   0  0  0  1  0  0  0  0  0  0  0  0
   -1.9056    2.0692    2.6229 C   0  0  0  1  0  0  0  0  0  0  0  0
   -3.8409    0.7517    2.1324 O   0  0  0  1  0  0  0  0  0  0  0  0
   -4.1816    2.7772    3.0433 N   0  0  0  1  0  0  0  0  0  0  0  0
   -0.4072    0.6083    2.2736 H   0  0  0  1  0  0  0  0  0  0  0  0
   -1.4927    0.0323    3.8808 C   0  0  0  1  0  0  0  0  0  0  0  0
   -5.6328    2.7261    2.9469 C   0  0  0  1  0  0  0  0  0  0  0  0
   -0.6203   -1.1947    4.0615 C   0  0  0  1  0  0  0  0  0  0  0  0
   -2.4348    0.2542    4.6235 O   0  0  0  1  0  0  0  0  0  0  0  0
   -3.7629    3.5554    3.4668 H   0  0  0  1  0  0  0  0  0  0  0  0
   -5.9646    1.7180    3.0832 H   0  0  0  1  0  0  0  0  0  0  0  0
   -5.9384    3.0746    1.9824 H   0  0  0  1  0  0  0  0  0  0  0  0
   -6.0625    3.3482    3.7040 H   0  0  0  1  0  0  0  0  0  0  0  0
   -0.9012   -1.7035    4.9599 H   0  0  0  1  0  0  0  0  0  0  0  0
    0.4052   -0.8965    4.1265 H   0  0  0  1  0  0  0  0  0  0  0  0
   -0.7494   -1.8500    3.2255 H   0  0  0  1  0  0  0  0  0  0  0  0
   -3.8843    7.6784    0.4533 F   0  0  0  1  0  0  0  0  0  0  0  0
   -3.2892    6.4887    0.6639 C   0  0  0  1  0  0  0  0  0  0  0  0
   -2.0333    6.4356    1.2481 C   0  0  0  1  0  0  0  0  0  0  0  0
   -1.4202    5.2151    1.4594 C   0  0  0  1  0  0  0  0  0  0  0  0
   -2.0637    4.0436    1.0920 C   0  0  0  1  0  0  0  0  0  0  0  0
   -3.3160    4.0963    0.5094 C   0  0  0  1  0  0  0  0  0  0  0  0
   -3.9307    5.3205    0.2975 C   0  0  0  1  0  0  0  0  0  0  0  0
   -1.3968    2.7090    1.3279 C   0  0  0  1  0  0  0  0  0  0  0  0
   -1.5523    7.3143    1.5275 H   0  0  0  1  0  0  0  0  0  0  0  0
   -0.4762    5.1756    1.8941 H   0  0  0  1  0  0  0  0  0  0  0  0
   -3.7969    3.2175    0.2300 H   0  0  0  1  0  0  0  0  0  0  0  0
   -4.8747    5.3600   -0.1371 H   0  0  0  1  0  0  0  0  0  0  0  0
   -1.6135    2.0585    0.5065 H   0  0  0  1  0  0  0  0  0  0  0  0
   -0.3390    2.8533    1.3999 H   0  0  0  1  0  0  0  0  0  0  0  0
  1  4  1  0  0  0  0
  2  4  1  0  0  0  0
  2  5  2  0  0  0  0
  2  6  1  0  0  0  0
  3  4  1  0  0  0  0
  3  7  1  0  0  0  0
  3  8  1  0  0  0  0
  4 26  1  0  0  0  0
  6  9  1  0  0  0  0
  6 12  1  0  0  0  0
  8 10  1  0  0  0  0
  8 11  2  0  0  0  0
  9 13  1  0  0  0  0
  9 14  1  0  0  0  0
  9 15  1  0  0  0  0
 10 16  1  0  0  0  0
 10 17  1  0  0  0  0
 10 18  1  0  0  0  0
 19 20  1  0  0  0  0
 20 21  4  0  0  0  0
 20 25  4  0  0  0  0
 21 22  4  0  0  0  0
 21 27  1  0  0  0  0
 22 23  4  0  0  0  0
 22 28  1  0  0  0  0
 23 24  4  0  0  0  0
 23 26  1  0  0  0  0
 24 25  4  0  0  0  0
 24 29  1  0  0  0  0
 25 30  1  0  0  0  0
 26 31  1  0  0  0  0
 26 32  1  0  0  0  0
M  END
> <BCLConfClusterSize>
1

> <ConfClashScore>
0 

> <ConfOneFourInteractionScore>
-0.985807 

> <ConfScore>
-0.000774317 

> <ConfScorePBest>
0.00478639 

> <ConfTolerance>
0.309168 

> <RosettaParamsInstructions>
M  ROOT 3
M  POLY_N_BB 3
M  POLY_CA_BB 4
M  POLY_C_BB 2
M  POLY_O_BB 5
M  POLY_IGNORE 9 10 11 12 13 14 15 16 17 18 
M  POLY_UPPER 6
M  POLY_LOWER 8
M  POLY_CHG 0
M  POLY_PROPERTIES ALPHA_AA L_AA PROTEIN AROMATIC POLYMER 
M  END

$$$$



 32 32  0  0  0  0  0  0  0  0999 V2000
   -0.9850    2.2037   -0.6643 H   0  0  0  1  0  0  0  0  0  0  0  0
    0.6147    3.4293   -0.0410 C   0  0  0  1  0  0  0  0  0  0  0  0
    0.1959    1.0671    0.5931 N   0  0  0  1  0  0  0  0  0  0  0  0
   -0.4064    2.3399    0.2254 C   0  0  0  1  0  0  0  0  0  0  0  0
    1.2096    3.9648    0.8933 O   0  0  0  1  0  0  0  0  0  0  0  0
    0.7622    3.8316   -1.3132 N   0  0  0  1  0  0  0  0  0  0  0  0
    0.0783    0.7349    1.5075 H   0  0  0  1  0  0  0  0  0  0  0  0
    0.9104    0.3286   -0.2812 C   0  0  0  1  0  0  0  0  0  0  0  0
    1.6605    4.9137   -1.6872 C   0  0  0  1  0  0  0  0  0  0  0  0
    1.5160   -0.9712    0.2116 C   0  0  0  1  0  0  0  0  0  0  0  0
    1.0671    0.6962   -1.4426 O   0  0  0  1  0  0  0  0  0  0  0  0
    0.2469    3.3809   -2.0145 H   0  0  0  1  0  0  0  0  0  0  0  0
    2.4918    4.9366   -1.0140 H   0  0  0  1  0  0  0  0  0  0  0  0
    1.1362    5.8452   -1.6381 H   0  0  0  1  0  0  0  0  0  0  0  0
    2.0139    4.7549   -2.6846 H   0  0  0  1  0  0  0  0  0  0  0  0
    2.5378   -0.8083    0.4843 H   0  0  0  1  0  0  0  0  0  0  0  0
    1.4673   -1.7045   -0.5660 H   0  0  0  1  0  0  0  0  0  0  0  0
    0.9705   -1.3179    1.0643 H   0  0  0  1  0  0  0  0  0  0  0  0
   -3.8531    7.6958    0.4688 F   0  0  0  1  0  0  0  0  0  0  0  0
   -3.2951    6.4852    0.6609 C   0  0  0  1  0  0  0  0  0  0  0  0
   -2.0392    6.4310    1.2451 C   0  0  0  1  0  0  0  0  0  0  0  0
   -1.4270    5.2099    1.4560 C   0  0  0  1  0  0  0  0  0  0  0  0
   -2.0714    4.0390    1.0881 C   0  0  0  1  0  0  0  0  0  0  0  0
   -3.3237    4.0928    0.5056 C   0  0  0  1  0  0  0  0  0  0  0  0
   -3.9375    5.3176    0.2942 C   0  0  0  1  0  0  0  0  0  0  0  0
   -1.3601    2.7318    1.3464 C   0  0  0  1  0  0  0  0  0  0  0  0
   -1.5575    7.3092    1.5248 H   0  0  0  1  0  0  0  0  0  0  0  0
   -0.4831    5.1696    1.8906 H   0  0  0  1  0  0  0  0  0  0  0  0
   -3.8053    3.2146    0.2260 H   0  0  0  1  0  0  0  0  0  0  0  0
   -4.8815    5.3580   -0.1404 H   0  0  0  1  0  0  0  0  0  0  0  0
   -0.8004    2.8221    2.2538 H   0  0  0  1  0  0  0  0  0  0  0  0
   -2.0938    1.9605    1.4545 H   0  0  0  1  0  0  0  0  0  0  0  0
  1  4  1  0  0  0  0
  2  4  1  0  0  0  0
  2  5  2  0  0  0  0
  2  6  1  0  0  0  0
  3  4  1  0  0  0  0
  3  7  1  0  0  0  0
  3  8  1  0  0  0  0
  4 26  1  0  0  0  0
  6  9  1  0  0  0  0
  6 12  1  0  0  0  0
  8 10  1  0  0  0  0
  8 11  2  0  0  0  0
  9 13  1  0  0  0  0
  9 14  1  0  0  0  0
  9 15  1  0  0  0  0
 10 16  1  0  0  0  0
 10 17  1  0  0  0  0
 10 18  1  0  0  0  0
 19 20  1  0  0  0  0
 20 21  4  0  0  0  0
 20 25  4  0  0  0  0
 21 22  4  0  0  0  0
 21 27  1  0  0  0  0
 22 23  4  0  0  0  0
 22 28  1  0  0  0  0
 23 24  4  0  0  0  0
 23 26  1  0  0  0  0
 24 25  4  0  0  0  0
 24 29  1  0  0  0  0
 25 30  1  0  0  0  0
 26 31  1  0  0  0  0
 26 32  1  0  0  0  0
M  END
> <BCLConfClusterSize>
1

> <ConfClashScore>
0 

> <ConfOneFourInteractionScore>
-0.979134 

> <ConfScore>
6.80021e-06 

> <ConfScorePBest>
0.00475791 

> <ConfTolerance>
0.30584 

> <RosettaParamsInstructions>
M  ROOT 3
M  POLY_N_BB 3
M  POLY_CA_BB 4
M  POLY_C_BB 2
M  POLY_O_BB 5
M  POLY_IGNORE 9 10 11 12 13 14 15 16 17 18 
M  POLY_UPPER 6
M  POLY_LOWER 8
M  POLY_CHG 0
M  POLY_PROPERTIES ALPHA_AA L_AA PROTEIN AROMATIC POLYMER 
M  END

$$$$



 32 32  0  0  0  0  0  0  0  0999 V2000
   -2.6402    1.9098    2.8395 H   0  0  0  1  0  0  0  0  0  0  0  0
   -0.7858    0.9374    3.0469 C   0  0  0  1  0  0  0  0  0  0  0  0
   -1.3378    3.2883    3.6667 N   0  0  0  1  0  0  0  0  0  0  0  0
   -1.6079    2.1761    2.7488 C   0  0  0  1  0  0  0  0  0  0  0  0
    0.3578    1.0221    3.4926 O   0  0  0  1  0  0  0  0  0  0  0  0
   -1.3864   -0.2361    2.7933 N   0  0  0  1  0  0  0  0  0  0  0  0
   -0.4338    3.3922    4.0307 H   0  0  0  1  0  0  0  0  0  0  0  0
   -2.2825    4.1654    4.0241 C   0  0  0  1  0  0  0  0  0  0  0  0
   -0.7271   -1.5128    3.0245 C   0  0  0  1  0  0  0  0  0  0  0  0
   -1.8510    5.2326    5.0111 C   0  0  0  1  0  0  0  0  0  0  0  0
   -3.4234    4.1250    3.5939 O   0  0  0  1  0  0  0  0  0  0  0  0
   -2.3006   -0.2330    2.4403 H   0  0  0  1  0  0  0  0  0  0  0  0
   -0.3558   -1.8961    2.0971 H   0  0  0  1  0  0  0  0  0  0  0  0
   -1.4280   -2.2055    3.4413 H   0  0  0  1  0  0  0  0  0  0  0  0
    0.0871   -1.3754    3.7050 H   0  0  0  1  0  0  0  0  0  0  0  0
   -1.6535    4.7816    5.9611 H   0  0  0  1  0  0  0  0  0  0  0  0
   -2.6311    5.9574    5.1160 H   0  0  0  1  0  0  0  0  0  0  0  0
   -0.9640    5.7118    4.6527 H   0  0  0  1  0  0  0  0  0  0  0  0
   -3.8565    7.6941    0.4672 F   0  0  0  1  0  0  0  0  0  0  0  0
   -3.2949    6.4853    0.6610 C   0  0  0  1  0  0  0  0  0  0  0  0
   -2.0390    6.4357    1.2455 C   0  0  0  1  0  0  0  0  0  0  0  0
   -1.4232    5.2167    1.4581 C   0  0  0  1  0  0  0  0  0  0  0  0
   -2.0640    4.0435    1.0918 C   0  0  0  1  0  0  0  0  0  0  0  0
   -3.3163    4.0927    0.5090 C   0  0  0  1  0  0  0  0  0  0  0  0
   -3.9338    5.3154    0.2958 C   0  0  0  1  0  0  0  0  0  0  0  0
   -1.3943    2.7106    1.3292 C   0  0  0  1  0  0  0  0  0  0  0  0
   -1.5599    7.3158    1.5240 H   0  0  0  1  0  0  0  0  0  0  0  0
   -0.4792    5.1798    1.8930 H   0  0  0  1  0  0  0  0  0  0  0  0
   -3.7954    3.2126    0.2305 H   0  0  0  1  0  0  0  0  0  0  0  0
   -4.8778    5.3524   -0.1391 H   0  0  0  1  0  0  0  0  0  0  0  0
   -1.7924    2.0008    0.6345 H   0  0  0  1  0  0  0  0  0  0  0  0
   -0.3434    2.8230    1.1622 H   0  0  0  1  0  0  0  0  0  0  0  0
  1  4  1  0  0  0  0
  2  4  1  0  0  0  0
  2  5  2  0  0  0  0
  2  6  1  0  0  0  0
  3  4  1  0  0  0  0
  3  7  1  0  0  0  0
  3  8  1  0  0  0  0
  4 26  1  0  0  0  0
  6  9  1  0  0  0  0
  6 12  1  0  0  0  0
  8 10  1  0  0  0  0
  8 11  2  0  0  0  0
  9 13  1  0  0  0  0
  9 14  1  0  0  0  0
  9 15  1  0  0  0  0
 10 16  1  0  0  0  0
 10 17  1  0  0  0  0
 10 18  1  0  0  0  0
 19 20  1  0  0  0  0
 20 21  4  0  0  0  0
 20 25  4  0  0  0  0
 21 22  4  0  0  0  0
 21 27  1  0  0  0  0
 22 23  4  0  0  0  0
 22 28  1  0  0  0  0
 23 24  4  0  0  0  0
 23 26  1  0  0  0  0
 24 25  4  0  0  0  0
 24 29  1  0  0  0  0
 25 30  1  0  0  0  0
 26 31  1  0  0  0  0
 26 32  1  0  0  0  0
M  END
> <BCLConfClusterSize>
1

> <ConfClashScore>
0 

> <ConfOneFourInteractionScore>
-0.976985 

> <ConfScore>
0.000336364 

> <ConfScorePBest>
0.00472943 

> <ConfTolerance>
0.478857 

> <RosettaParamsInstructions>
M  ROOT 3
M  POLY_N_BB 3
M  POLY_CA_BB 4
M  POLY_C_BB 2
M  POLY_O_BB 5
M  POLY_IGNORE 9 10 11 12 13 14 15 16 17 18 
M  POLY_UPPER 6
M  POLY_LOWER 8
M  POLY_CHG 0
M  POLY_PROPERTIES ALPHA_AA L_AA PROTEIN AROMATIC POLYMER 
M  END

$$$$



 32 32  0  0  0  0  0  0  0  0999 V2000
   -3.0752    1.6189    1.8830 H   0  0  0  1  0  0  0  0  0  0  0  0
   -1.3957    0.4306    2.3269 C   0  0  0  1  0  0  0  0  0  0  0  0
   -2.1914    2.4314    3.5568 N   0  0  0  1  0  0  0  0  0  0  0  0
   -2.0852    1.7847    2.2537 C   0  0  0  1  0  0  0  0  0  0  0  0
   -1.0355   -0.1583    1.3086 O   0  0  0  1  0  0  0  0  0  0  0  0
   -1.2137   -0.0624    3.5553 N   0  0  0  1  0  0  0  0  0  0  0  0
   -1.3870    2.5153    4.1101 H   0  0  0  1  0  0  0  0  0  0  0  0
   -3.3473    2.9134    4.0222 C   0  0  0  1  0  0  0  0  0  0  0  0
   -0.5708   -1.3467    3.7901 C   0  0  0  1  0  0  0  0  0  0  0  0
   -3.2760    3.6133    5.3655 C   0  0  0  1  0  0  0  0  0  0  0  0
   -4.4114    2.8058    3.4141 O   0  0  0  1  0  0  0  0  0  0  0  0
   -1.5238    0.4590    4.3249 H   0  0  0  1  0  0  0  0  0  0  0  0
    0.1712   -1.5175    3.0383 H   0  0  0  1  0  0  0  0  0  0  0  0
   -1.3042   -2.1249    3.7503 H   0  0  0  1  0  0  0  0  0  0  0  0
   -0.1069   -1.3421    4.7542 H   0  0  0  1  0  0  0  0  0  0  0  0
   -3.0192    2.9042    6.1245 H   0  0  0  1  0  0  0  0  0  0  0  0
   -4.2269    4.0486    5.5915 H   0  0  0  1  0  0  0  0  0  0  0  0
   -2.5315    4.3809    5.3283 H   0  0  0  1  0  0  0  0  0  0  0  0
   -3.9036    7.6620    0.4212 F   0  0  0  1  0  0  0  0  0  0  0  0
   -3.2808    6.4922    0.6612 C   0  0  0  1  0  0  0  0  0  0  0  0
   -2.0279    6.4362    1.2516 C   0  0  0  1  0  0  0  0  0  0  0  0
   -1.4229    5.2138    1.4747 C   0  0  0  1  0  0  0  0  0  0  0  0
   -2.0714    4.0434    1.1128 C   0  0  0  1  0  0  0  0  0  0  0  0
   -3.3206    4.0989    0.5241 C   0  0  0  1  0  0  0  0  0  0  0  0
   -3.9273    5.3251    0.3004 C   0  0  0  1  0  0  0  0  0  0  0  0
   -1.3811    2.7090    1.2690 C   0  0  0  1  0  0  0  0  0  0  0  0
   -1.5431    7.3142    1.5268 H   0  0  0  1  0  0  0  0  0  0  0  0
   -0.4811    5.1721    1.9140 H   0  0  0  1  0  0  0  0  0  0  0  0
   -3.8054    3.2209    0.2489 H   0  0  0  1  0  0  0  0  0  0  0  0
   -4.8691    5.3668   -0.1389 H   0  0  0  1  0  0  0  0  0  0  0  0
   -1.3493    2.2281    0.3137 H   0  0  0  1  0  0  0  0  0  0  0  0
   -0.3836    2.8801    1.6162 H   0  0  0  1  0  0  0  0  0  0  0  0
  1  4  1  0  0  0  0
  2  4  1  0  0  0  0
  2  5  2  0  0  0  0
  2  6  1  0  0  0  0
  3  4  1  0  0  0  0
  3  7  1  0  0  0  0
  3  8  1  0  0  0  0
  4 26  1  0  0  0  0
  6  9  1  0  0  0  0
  6 12  1  0  0  0  0
  8 10  1  0  0  0  0
  8 11  2  0  0  0  0
  9 13  1  0  0  0  0
  9 14  1  0  0  0  0
  9 15  1  0  0  0  0
 10 16  1  0  0  0  0
 10 17  1  0  0  0  0
 10 18  1  0  0  0  0
 19 20  1  0  0  0  0
 20 21  4  0  0  0  0
 20 25  4  0  0  0  0
 21 22  4  0  0  0  0
 21 27  1  0  0  0  0
 22 23  4  0  0  0  0
 22 28  1  0  0  0  0
 23 24  4  0  0  0  0
 23 26  1  0  0  0  0
 24 25  4  0  0  0  0
 24 29  1  0  0  0  0
 25 30  1  0  0  0  0
 26 31  1  0  0  0  0
 26 32  1  0  0  0  0
M  END
> <BCLConfClusterSize>
1

> <ConfClashScore>
0 

> <ConfOneFourInteractionScore>
-0.946346 

> <ConfScore>
0.00303798 

> <ConfScorePBest>
0.00470095 

> <ConfTolerance>
0.253473 

> <RosettaParamsInstructions>
M  ROOT 3
M  POLY_N_BB 3
M  POLY_CA_BB 4
M  POLY_C_BB 2
M  POLY_O_BB 5
M  POLY_IGNORE 9 10 11 12 13 14 15 16 17 18 
M  POLY_UPPER 6
M  POLY_LOWER 8
M  POLY_CHG 0
M  POLY_PROPERTIES ALPHA_AA L_AA PROTEIN AROMATIC POLYMER 
M  END

$$$$



 32 32  0  0  0  0  0  0  0  0999 V2000
    0.1307    3.2320   -0.0339 H   0  0  0  1  0  0  0  0  0  0  0  0
    0.7569    1.4858    0.9832 C   0  0  0  1  0  0  0  0  0  0  0  0
   -0.8983    1.6136   -0.8073 N   0  0  0  1  0  0  0  0  0  0  0  0
   -0.3230    2.3303    0.3211 C   0  0  0  1  0  0  0  0  0  0  0  0
    1.7564    2.0136    1.4423 O   0  0  0  1  0  0  0  0  0  0  0  0
    0.5965    0.1533    0.9518 N   0  0  0  1  0  0  0  0  0  0  0  0
   -1.8064    1.2542   -0.7260 H   0  0  0  1  0  0  0  0  0  0  0  0
   -0.2063    1.4216   -1.9934 C   0  0  0  1  0  0  0  0  0  0  0  0
    1.4913   -0.7542    1.6544 C   0  0  0  1  0  0  0  0  0  0  0  0
   -0.8782    0.6891   -3.1207 C   0  0  0  1  0  0  0  0  0  0  0  0
    0.9271    1.8546   -2.0823 O   0  0  0  1  0  0  0  0  0  0  0  0
   -0.1491   -0.2213    0.4379 H   0  0  0  1  0  0  0  0  0  0  0  0
    1.4843   -0.5247    2.6995 H   0  0  0  1  0  0  0  0  0  0  0  0
    2.4843   -0.6430    1.2717 H   0  0  0  1  0  0  0  0  0  0  0  0
    1.1631   -1.7621    1.5087 H   0  0  0  1  0  0  0  0  0  0  0  0
   -1.5466   -0.0450   -2.7215 H   0  0  0  1  0  0  0  0  0  0  0  0
   -0.1377    0.2065   -3.7236 H   0  0  0  1  0  0  0  0  0  0  0  0
   -1.4287    1.3843   -3.7194 H   0  0  0  1  0  0  0  0  0  0  0  0
   -3.8843    7.6784    0.4533 F   0  0  0  1  0  0  0  0  0  0  0  0
   -3.2892    6.4887    0.6639 C   0  0  0  1  0  0  0  0  0  0  0  0
   -2.0333    6.4356    1.2481 C   0  0  0  1  0  0  0  0  0  0  0  0
   -1.4202    5.2151    1.4594 C   0  0  0  1  0  0  0  0  0  0  0  0
   -2.0637    4.0436    1.0920 C   0  0  0  1  0  0  0  0  0  0  0  0
   -3.3160    4.0963    0.5094 C   0  0  0  1  0  0  0  0  0  0  0  0
   -3.9307    5.3205    0.2975 C   0  0  0  1  0  0  0  0  0  0  0  0
   -1.3968    2.7090    1.3279 C   0  0  0  1  0  0  0  0  0  0  0  0
   -1.5523    7.3143    1.5275 H   0  0  0  1  0  0  0  0  0  0  0  0
   -0.4762    5.1756    1.8941 H   0  0  0  1  0  0  0  0  0  0  0  0
   -3.7969    3.2175    0.2300 H   0  0  0  1  0  0  0  0  0  0  0  0
   -4.8747    5.3600   -0.1371 H   0  0  0  1  0  0  0  0  0  0  0  0
   -0.9462    2.7322    2.2981 H   0  0  0  1  0  0  0  0  0  0  0  0
   -2.1536    1.9530    1.3035 H   0  0  0  1  0  0  0  0  0  0  0  0
  1  4  1  0  0  0  0
  2  4  1  0  0  0  0
  2  5  2  0  0  0  0
  2  6  1  0  0  0  0
  3  4  1  0  0  0  0
  3  7  1  0  0  0  0
  3  8  1  0  0  0  0
  4 26  1  0  0  0  0
  6  9  1  0  0  0  0
  6 12  1  0  0  0  0
  8 10  1  0  0  0  0
  8 11  2  0  0  0  0
  9 13  1  0  0  0  0
  9 14  1  0  0  0  0
  9 15  1  0  0  0  0
 10 16  1  0  0  0  0
 10 17  1  0  0  0  0
 10 18  1  0  0  0  0
 19 20  1  0  0  0  0
 20 21  4  0  0  0  0
 20 25  4  0  0  0  0
 21 22  4  0  0  0  0
 21 27  1  0  0  0  0
 22 23  4  0  0  0  0
 22 28  1  0  0  0  0
 23 24  4  0  0  0  0
 23 26  1  0  0  0  0
 24 25  4  0  0  0  0
 24 29  1  0  0  0  0
 25 30  1  0  0  0  0
 26 31  1  0  0  0  0
 26 32  1  0  0  0  0
M  END
> <BCLConfClusterSize>
1

> <ConfClashScore>
0 

> <ConfOneFourInteractionScore>
-0.940901 

> <ConfScore>
0.00444709 

> <ConfScorePBest>
0.00467247 

> <ConfTolerance>
0.422334 

> <RosettaParamsInstructions>
M  ROOT 3
M  POLY_N_BB 3
M  POLY_CA_BB 4
M  POLY_C_BB 2
M  POLY_O_BB 5
M  POLY_IGNORE 9 10 11 12 13 14 15 16 17 18 
M  POLY_UPPER 6
M  POLY_LOWER 8
M  POLY_CHG 0
M  POLY_PROPERTIES ALPHA_AA L_AA PROTEIN AROMATIC POLYMER 
M  END

$$$$



 32 32  0  0  0  0  0  0  0  0999 V2000
    0.1398    1.5092    0.5100 H   0  0  0  1  0  0  0  0  0  0  0  0
   -1.4697    1.5107   -0.8391 C   0  0  0  1  0  0  0  0  0  0  0  0
    0.2049    3.2832   -0.5161 N   0  0  0  1  0  0  0  0  0  0  0  0
   -0.5572    2.2343    0.1448 C   0  0  0  1  0  0  0  0  0  0  0  0
   -1.8461    2.0615   -1.8728 O   0  0  0  1  0  0  0  0  0  0  0  0
   -1.8465    0.2652   -0.5455 N   0  0  0  1  0  0  0  0  0  0  0  0
   -0.1631    3.6976   -1.3243 H   0  0  0  1  0  0  0  0  0  0  0  0
    1.3889    3.7009   -0.0593 C   0  0  0  1  0  0  0  0  0  0  0  0
   -2.6300   -0.5959   -1.4186 C   0  0  0  1  0  0  0  0  0  0  0  0
    2.0382    4.8248   -0.8432 C   0  0  0  1  0  0  0  0  0  0  0  0
    1.9331    3.2168    0.9323 O   0  0  0  1  0  0  0  0  0  0  0  0
   -1.5752   -0.0972    0.3237 H   0  0  0  1  0  0  0  0  0  0  0  0
   -3.5906   -0.7699   -0.9804 H   0  0  0  1  0  0  0  0  0  0  0  0
   -2.1228   -1.5292   -1.5474 H   0  0  0  1  0  0  0  0  0  0  0  0
   -2.7529   -0.1219   -2.3699 H   0  0  0  1  0  0  0  0  0  0  0  0
    1.4278    5.7015   -0.7827 H   0  0  0  1  0  0  0  0  0  0  0  0
    2.1410    4.5320   -1.8672 H   0  0  0  1  0  0  0  0  0  0  0  0
    3.0040    5.0339   -0.4329 H   0  0  0  1  0  0  0  0  0  0  0  0
   -3.9050    7.6654    0.4428 F   0  0  0  1  0  0  0  0  0  0  0  0
   -3.2838    6.4915    0.6666 C   0  0  0  1  0  0  0  0  0  0  0  0
   -2.0280    6.4261    1.2500 C   0  0  0  1  0  0  0  0  0  0  0  0
   -1.4248    5.1998    1.4564 C   0  0  0  1  0  0  0  0  0  0  0  0
   -2.0779    4.0350    1.0848 C   0  0  0  1  0  0  0  0  0  0  0  0
   -3.3300    4.1000    0.5031 C   0  0  0  1  0  0  0  0  0  0  0  0
   -3.9349    5.3300    0.2962 C   0  0  0  1  0  0  0  0  0  0  0  0
   -1.3322    2.7507    1.3605 C   0  0  0  1  0  0  0  0  0  0  0  0
   -1.5398    7.2998    1.5324 H   0  0  0  1  0  0  0  0  0  0  0  0
   -0.4810    5.1511    1.8904 H   0  0  0  1  0  0  0  0  0  0  0  0
   -3.8183    3.2263    0.2207 H   0  0  0  1  0  0  0  0  0  0  0  0
   -4.8787    5.3788   -0.1379 H   0  0  0  1  0  0  0  0  0  0  0  0
   -0.6397    2.9234    2.1577 H   0  0  0  1  0  0  0  0  0  0  0  0
   -2.0387    2.0036    1.6565 H   0  0  0  1  0  0  0  0  0  0  0  0
  1  4  1  0  0  0  0
  2  4  1  0  0  0  0
  2  5  2  0  0  0  0
  2  6  1  0  0  0  0
  3  4  1  0  0  0  0
  3  7  1  0  0  0  0
  3  8  1  0  0  0  0
  4 26  1  0  0  0  0
  6  9  1  0  0  0  0
  6 12  1  0  0  0  0
  8 10  1  0  0  0  0
  8 11  2  0  0  0  0
  9 13  1  0  0  0  0
  9 14  1  0  0  0  0
  9 15  1  0  0  0  0
 10 16  1  0  0  0  0
 10 17  1  0  0  0  0
 10 18  1  0  0  0  0
 19 20  1  0  0  0  0
 20 21  4  0  0  0  0
 20 25  4  0  0  0  0
 21 22  4  0  0  0  0
 21 27  1  0  0  0  0
 22 23  4  0  0  0  0
 22 28  1  0  0  0  0
 23 24  4  0  0  0  0
 23 26  1  0  0  0  0
 24 25  4  0  0  0  0
 24 29  1  0  0  0  0
 25 30  1  0  0  0  0
 26 31  1  0  0  0  0
 26 32  1  0  0  0  0
M  END
> <BCLConfClusterSize>
1

> <ConfClashScore>
0 

> <ConfOneFourInteractionScore>
-0.982677 

> <ConfScore>
0.00460269 

> <ConfScorePBest>
0.00464399 

> <ConfTolerance>
0.459025 

> <RosettaParamsInstructions>
M  ROOT 3
M  POLY_N_BB 3
M  POLY_CA_BB 4
M  POLY_C_BB 2
M  POLY_O_BB 5
M  POLY_IGNORE 9 10 11 12 13 14 15 16 17 18 
M  POLY_UPPER 6
M  POLY_LOWER 8
M  POLY_CHG 0
M  POLY_PROPERTIES ALPHA_AA L_AA PROTEIN AROMATIC POLYMER 
M  END

$$$$



 32 32  0  0  0  0  0  0  0  0999 V2000
   -3.0153    1.4032    1.0178 H   0  0  0  1  0  0  0  0  0  0  0  0
   -1.5389    0.3055    2.0397 C   0  0  0  1  0  0  0  0  0  0  0  0
   -3.0560    2.0237    2.9788 N   0  0  0  1  0  0  0  0  0  0  0  0
   -2.3140    1.5930    1.8033 C   0  0  0  1  0  0  0  0  0  0  0  0
   -0.8039   -0.1575    1.1685 O   0  0  0  1  0  0  0  0  0  0  0  0
   -1.6820   -0.3113    3.2311 N   0  0  0  1  0  0  0  0  0  0  0  0
   -2.7030    2.7862    3.4832 H   0  0  0  1  0  0  0  0  0  0  0  0
   -4.1804    1.4588    3.4215 C   0  0  0  1  0  0  0  0  0  0  0  0
   -1.0986   -1.6269    3.4475 C   0  0  0  1  0  0  0  0  0  0  0  0
   -4.9276    2.1404    4.5606 C   0  0  0  1  0  0  0  0  0  0  0  0
   -4.6516    0.4182    2.9647 O   0  0  0  1  0  0  0  0  0  0  0  0
   -2.1798    0.1275    3.9522 H   0  0  0  1  0  0  0  0  0  0  0  0
   -0.2158   -1.7286    2.8515 H   0  0  0  1  0  0  0  0  0  0  0  0
   -1.8054   -2.3804    3.1689 H   0  0  0  1  0  0  0  0  0  0  0  0
   -0.8458   -1.7390    4.4811 H   0  0  0  1  0  0  0  0  0  0  0  0
   -4.3958    3.0187    4.8615 H   0  0  0  1  0  0  0  0  0  0  0  0
   -5.0037    1.4682    5.3896 H   0  0  0  1  0  0  0  0  0  0  0  0
   -5.9083    2.4130    4.2307 H   0  0  0  1  0  0  0  0  0  0  0  0
   -3.8565    7.6941    0.4672 F   0  0  0  1  0  0  0  0  0  0  0  0
   -3.2949    6.4853    0.6610 C   0  0  0  1  0  0  0  0  0  0  0  0
   -2.0390    6.4357    1.2455 C   0  0  0  1  0  0  0  0  0  0  0  0
   -1.4232    5.2167    1.4581 C   0  0  0  1  0  0  0  0  0  0  0  0
   -2.0640    4.0435    1.0918 C   0  0  0  1  0  0  0  0  0  0  0  0
   -3.3163    4.0927    0.5090 C   0  0  0  1  0  0  0  0  0  0  0  0
   -3.9338    5.3154    0.2958 C   0  0  0  1  0  0  0  0  0  0  0  0
   -1.3943    2.7106    1.3292 C   0  0  0  1  0  0  0  0  0  0  0  0
   -1.5599    7.3158    1.5240 H   0  0  0  1  0  0  0  0  0  0  0  0
   -0.4792    5.1798    1.8930 H   0  0  0  1  0  0  0  0  0  0  0  0
   -3.7954    3.2126    0.2305 H   0  0  0  1  0  0  0  0  0  0  0  0
   -4.8778    5.3524   -0.1391 H   0  0  0  1  0  0  0  0  0  0  0  0
   -0.9433    2.3995    0.4101 H   0  0  0  1  0  0  0  0  0  0  0  0
   -0.6351    2.8501    2.0703 H   0  0  0  1  0  0  0  0  0  0  0  0
  1  4  1  0  0  0  0
  2  4  1  0  0  0  0
  2  5  2  0  0  0  0
  2  6  1  0  0  0  0
  3  4  1  0  0  0  0
  3  7  1  0  0  0  0
  3  8  1  0  0  0  0
  4 26  1  0  0  0  0
  6  9  1  0  0  0  0
  6 12  1  0  0  0  0
  8 10  1  0  0  0  0
  8 11  2  0  0  0  0
  9 13  1  0  0  0  0
  9 14  1  0  0  0  0
  9 15  1  0  0  0  0
 10 16  1  0  0  0  0
 10 17  1  0  0  0  0
 10 18  1  0  0  0  0
 19 20  1  0  0  0  0
 20 21  4  0  0  0  0
 20 25  4  0  0  0  0
 21 22  4  0  0  0  0
 21 27  1  0  0  0  0
 22 23  4  0  0  0  0
 22 28  1  0  0  0  0
 23 24  4  0  0  0  0
 23 26  1  0  0  0  0
 24 25  4  0  0  0  0
 24 29  1  0  0  0  0
 25 30  1  0  0  0  0
 26 31  1  0  0  0  0
 26 32  1  0  0  0  0
M  END
> <BCLConfClusterSize>
1

> <ConfClashScore>
0 

> <ConfOneFourInteractionScore>
-0.960318 

> <ConfScore>
0.0083111 

> <ConfScorePBest>
0.00461551 

> <ConfTolerance>
0.346507 

> <RosettaParamsInstructions>
M  ROOT 3
M  POLY_N_BB 3
M  POLY_CA_BB 4
M  POLY_C_BB 2
M  POLY_O_BB 5
M  POLY_IGNORE 9 10 11 12 13 14 15 16 17 18 
M  POLY_UPPER 6
M  POLY_LOWER 8
M  POLY_CHG 0
M  POLY_PROPERTIES ALPHA_AA L_AA PROTEIN AROMATIC POLYMER 
M  END

$$$$



 32 32  0  0  0  0  0  0  0  0999 V2000
   -0.1891    3.1874    3.0065 H   0  0  0  1  0  0  0  0  0  0  0  0
   -2.1396    2.7898    3.7258 C   0  0  0  1  0  0  0  0  0  0  0  0
   -0.4914    1.1417    2.9952 N   0  0  0  1  0  0  0  0  0  0  0  0
   -0.9767    2.4976    2.7858 C   0  0  0  1  0  0  0  0  0  0  0  0
   -3.1798    2.1345    3.6774 O   0  0  0  1  0  0  0  0  0  0  0  0
   -1.9493    3.7952    4.5936 N   0  0  0  1  0  0  0  0  0  0  0  0
   -1.0010    0.3806    2.6466 H   0  0  0  1  0  0  0  0  0  0  0  0
    0.6456    0.9326    3.6607 C   0  0  0  1  0  0  0  0  0  0  0  0
   -3.0316    4.2198    5.4688 C   0  0  0  1  0  0  0  0  0  0  0  0
    1.1216   -0.5155    3.7208 C   0  0  0  1  0  0  0  0  0  0  0  0
    1.2834    1.8371    4.1981 O   0  0  0  1  0  0  0  0  0  0  0  0
   -1.0795    4.2446    4.6381 H   0  0  0  1  0  0  0  0  0  0  0  0
   -3.9713    3.9718    5.0211 H   0  0  0  1  0  0  0  0  0  0  0  0
   -2.9758    5.2781    5.6171 H   0  0  0  1  0  0  0  0  0  0  0  0
   -2.9436    3.7219    6.4118 H   0  0  0  1  0  0  0  0  0  0  0  0
    1.7937   -0.6367    4.5444 H   0  0  0  1  0  0  0  0  0  0  0  0
    1.6256   -0.7631    2.8100 H   0  0  0  1  0  0  0  0  0  0  0  0
    0.2792   -1.1625    3.8500 H   0  0  0  1  0  0  0  0  0  0  0  0
   -3.8843    7.6784    0.4533 F   0  0  0  1  0  0  0  0  0  0  0  0
   -3.2892    6.4887    0.6639 C   0  0  0  1  0  0  0  0  0  0  0  0
   -2.0333    6.4356    1.2481 C   0  0  0  1  0  0  0  0  0  0  0  0
   -1.4202    5.2151    1.4594 C   0  0  0  1  0  0  0  0  0  0  0  0
   -2.0637    4.0436    1.0920 C   0  0  0  1  0  0  0  0  0  0  0  0
   -3.3160    4.0963    0.5094 C   0  0  0  1  0  0  0  0  0  0  0  0
   -3.9307    5.3205    0.2975 C   0  0  0  1  0  0  0  0  0  0  0  0
   -1.3968    2.7090    1.3279 C   0  0  0  1  0  0  0  0  0  0  0  0
   -1.5523    7.3143    1.5275 H   0  0  0  1  0  0  0  0  0  0  0  0
   -0.4762    5.1756    1.8941 H   0  0  0  1  0  0  0  0  0  0  0  0
   -3.7969    3.2175    0.2300 H   0  0  0  1  0  0  0  0  0  0  0  0
   -4.8747    5.3600   -0.1371 H   0  0  0  1  0  0  0  0  0  0  0  0
   -2.0813    1.9333    1.0548 H   0  0  0  1  0  0  0  0  0  0  0  0
   -0.5251    2.6500    0.7103 H   0  0  0  1  0  0  0  0  0  0  0  0
  1  4  1  0  0  0  0
  2  4  1  0  0  0  0
  2  5  2  0  0  0  0
  2  6  1  0  0  0  0
  3  4  1  0  0  0  0
  3  7  1  0  0  0  0
  3  8  1  0  0  0  0
  4 26  1  0  0  0  0
  6  9  1  0  0  0  0
  6 12  1  0  0  0  0
  8 10  1  0  0  0  0
  8 11  2  0  0  0  0
  9 13  1  0  0  0  0
  9 14  1  0  0  0  0
  9 15  1  0  0  0  0
 10 16  1  0  0  0  0
 10 17  1  0  0  0  0
 10 18  1  0  0  0  0
 19 20  1  0  0  0  0
 20 21  4  0  0  0  0
 20 25  4  0  0  0  0
 21 22  4  0  0  0  0
 21 27  1  0  0  0  0
 22 23  4  0  0  0  0
 22 28  1  0  0  0  0
 23 24  4  0  0  0  0
 23 26  1  0  0  0  0
 24 25  4  0  0  0  0
 24 29  1  0  0  0  0
 25 30  1  0  0  0  0
 26 31  1  0  0  0  0
 26 32  1  0  0  0  0
M  END
> <BCLConfClusterSize>
1

> <ConfClashScore>
0 

> <ConfOneFourInteractionScore>
-0.985807 

> <ConfScore>
0.0112538 

> <ConfScorePBest>
0.00458703 

> <ConfTolerance>
0.270278 

> <RosettaParamsInstructions>
M  ROOT 3
M  POLY_N_BB 3
M  POLY_CA_BB 4
M  POLY_C_BB 2
M  POLY_O_BB 5
M  POLY_IGNORE 9 10 11 12 13 14 15 16 17 18 
M  POLY_UPPER 6
M  POLY_LOWER 8
M  POLY_CHG 0
M  POLY_PROPERTIES ALPHA_AA L_AA PROTEIN AROMATIC POLYMER 
M  END

$$$$



 32 32  0  0  0  0  0  0  0  0999 V2000
   -2.4487    1.6403   -0.1740 H   0  0  0  1  0  0  0  0  0  0  0  0
   -1.4974    0.2154    1.0661 C   0  0  0  1  0  0  0  0  0  0  0  0
   -3.5179    1.4846    1.5920 N   0  0  0  1  0  0  0  0  0  0  0  0
   -2.2506    1.5226    0.8709 C   0  0  0  1  0  0  0  0  0  0  0  0
   -1.5389   -0.3920    2.1352 O   0  0  0  1  0  0  0  0  0  0  0  0
   -0.7973   -0.2182    0.0059 N   0  0  0  1  0  0  0  0  0  0  0  0
   -3.6572    2.0680    2.3670 H   0  0  0  1  0  0  0  0  0  0  0  0
   -4.4893    0.6562    1.1981 C   0  0  0  1  0  0  0  0  0  0  0  0
   -0.0423   -1.4571   -0.1078 C   0  0  0  1  0  0  0  0  0  0  0  0
   -5.7928    0.7413    1.9859 C   0  0  0  1  0  0  0  0  0  0  0  0
   -4.3593   -0.1316    0.2621 O   0  0  0  1  0  0  0  0  0  0  0  0
   -0.7943    0.3659   -0.7810 H   0  0  0  1  0  0  0  0  0  0  0  0
   -0.5240   -2.2226    0.4639 H   0  0  0  1  0  0  0  0  0  0  0  0
    0.9496   -1.3054    0.2640 H   0  0  0  1  0  0  0  0  0  0  0  0
    0.0027   -1.7542   -1.1347 H   0  0  0  1  0  0  0  0  0  0  0  0
   -6.1443    1.7519    1.9868 H   0  0  0  1  0  0  0  0  0  0  0  0
   -5.6220    0.4224    2.9929 H   0  0  0  1  0  0  0  0  0  0  0  0
   -6.5264    0.1092    1.5307 H   0  0  0  1  0  0  0  0  0  0  0  0
   -3.8843    7.6784    0.4533 F   0  0  0  1  0  0  0  0  0  0  0  0
   -3.2892    6.4887    0.6639 C   0  0  0  1  0  0  0  0  0  0  0  0
   -2.0333    6.4356    1.2481 C   0  0  0  1  0  0  0  0  0  0  0  0
   -1.4202    5.2151    1.4594 C   0  0  0  1  0  0  0  0  0  0  0  0
   -2.0637    4.0436    1.0920 C   0  0  0  1  0  0  0  0  0  0  0  0
   -3.3160    4.0963    0.5094 C   0  0  0  1  0  0  0  0  0  0  0  0
   -3.9307    5.3205    0.2975 C   0  0  0  1  0  0  0  0  0  0  0  0
   -1.3968    2.7090    1.3279 C   0  0  0  1  0  0  0  0  0  0  0  0
   -1.5523    7.3143    1.5275 H   0  0  0  1  0  0  0  0  0  0  0  0
   -0.4762    5.1756    1.8941 H   0  0  0  1  0  0  0  0  0  0  0  0
   -3.7969    3.2175    0.2300 H   0  0  0  1  0  0  0  0  0  0  0  0
   -4.8747    5.3600   -0.1371 H   0  0  0  1  0  0  0  0  0  0  0  0
   -0.4721    2.6905    0.7898 H   0  0  0  1  0  0  0  0  0  0  0  0
   -1.2028    2.6057    2.3751 H   0  0  0  1  0  0  0  0  0  0  0  0
  1  4  1  0  0  0  0
  2  4  1  0  0  0  0
  2  5  2  0  0  0  0
  2  6  1  0  0  0  0
  3  4  1  0  0  0  0
  3  7  1  0  0  0  0
  3  8  1  0  0  0  0
  4 26  1  0  0  0  0
  6  9  1  0  0  0  0
  6 12  1  0  0  0  0
  8 10  1  0  0  0  0
  8 11  2  0  0  0  0
  9 13  1  0  0  0  0
  9 14  1  0  0  0  0
  9 15  1  0  0  0  0
 10 16  1  0  0  0  0
 10 17  1  0  0  0  0
 10 18  1  0  0  0  0
 19 20  1  0  0  0  0
 20 21  4  0  0  0  0
 20 25  4  0  0  0  0
 21 22  4  0  0  0  0
 21 27  1  0  0  0  0
 22 23  4  0  0  0  0
 22 28  1  0  0  0  0
 23 24  4  0  0  0  0
 23 26  1  0  0  0  0
 24 25  4  0  0  0  0
 24 29  1  0  0  0  0
 25 30  1  0  0  0  0
 26 31  1  0  0  0  0
 26 32  1  0  0  0  0
M  END
> <BCLConfClusterSize>
1

> <ConfClashScore>
0 

> <ConfOneFourInteractionScore>
-0.97449 

> <ConfScore>
0.0158617 

> <ConfScorePBest>
0.00455855 

> <ConfTolerance>
0.419359 

> <RosettaParamsInstructions>
M  ROOT 3
M  POLY_N_BB 3
M  POLY_CA_BB 4
M  POLY_C_BB 2
M  POLY_O_BB 5
M  POLY_IGNORE 9 10 11 12 13 14 15 16 17 18 
M  POLY_UPPER 6
M  POLY_LOWER 8
M  POLY_CHG 0
M  POLY_PROPERTIES ALPHA_AA L_AA PROTEIN AROMATIC POLYMER 
M  END

$$$$



 32 32  0  0  0  0  0  0  0  0999 V2000
   -0.9136    1.3298    2.8156 H   0  0  0  1  0  0  0  0  0  0  0  0
   -0.1048    3.1577    3.4482 C   0  0  0  1  0  0  0  0  0  0  0  0
   -2.4415    2.4689    3.5778 N   0  0  0  1  0  0  0  0  0  0  0  0
   -1.2178    2.3550    2.7796 C   0  0  0  1  0  0  0  0  0  0  0  0
    1.0655    2.7886    3.3982 O   0  0  0  1  0  0  0  0  0  0  0  0
   -0.4923    4.2755    4.0827 N   0  0  0  1  0  0  0  0  0  0  0  0
   -3.2488    2.8590    3.1822 H   0  0  0  1  0  0  0  0  0  0  0  0
   -2.4594    2.0259    4.8916 C   0  0  0  1  0  0  0  0  0  0  0  0
    0.4200    5.0614    4.9000 C   0  0  0  1  0  0  0  0  0  0  0  0
   -3.7697    1.9701    5.6257 C   0  0  0  1  0  0  0  0  0  0  0  0
   -1.4085    1.6955    5.4087 O   0  0  0  1  0  0  0  0  0  0  0  0
   -1.4218    4.5725    3.9924 H   0  0  0  1  0  0  0  0  0  0  0  0
    0.7476    4.4758    5.7334 H   0  0  0  1  0  0  0  0  0  0  0  0
   -0.0833    5.9364    5.2550 H   0  0  0  1  0  0  0  0  0  0  0  0
    1.2664    5.3499    4.3124 H   0  0  0  1  0  0  0  0  0  0  0  0
   -4.0505    2.9566    5.9307 H   0  0  0  1  0  0  0  0  0  0  0  0
   -3.6684    1.3456    6.4886 H   0  0  0  1  0  0  0  0  0  0  0  0
   -4.5229    1.5686    4.9806 H   0  0  0  1  0  0  0  0  0  0  0  0
   -3.8878    7.6762    0.4515 F   0  0  0  1  0  0  0  0  0  0  0  0
   -3.2890    6.4887    0.6640 C   0  0  0  1  0  0  0  0  0  0  0  0
   -2.0330    6.4405    1.2486 C   0  0  0  1  0  0  0  0  0  0  0  0
   -1.4161    5.2223    1.4618 C   0  0  0  1  0  0  0  0  0  0  0  0
   -2.0557    4.0482    1.0959 C   0  0  0  1  0  0  0  0  0  0  0  0
   -3.3080    4.0960    0.5131 C   0  0  0  1  0  0  0  0  0  0  0  0
   -3.9267    5.3180    0.2992 C   0  0  0  1  0  0  0  0  0  0  0  0
   -1.4343    2.6881    1.3092 C   0  0  0  1  0  0  0  0  0  0  0  0
   -1.5548    7.3212    1.5267 H   0  0  0  1  0  0  0  0  0  0  0  0
   -0.4721    5.1864    1.8967 H   0  0  0  1  0  0  0  0  0  0  0  0
   -3.7862    3.2153    0.2349 H   0  0  0  1  0  0  0  0  0  0  0  0
   -4.8707    5.3538   -0.1357 H   0  0  0  1  0  0  0  0  0  0  0  0
   -2.0797    1.9483    0.8838 H   0  0  0  1  0  0  0  0  0  0  0  0
   -0.4873    2.6646    0.8117 H   0  0  0  1  0  0  0  0  0  0  0  0
  1  4  1  0  0  0  0
  2  4  1  0  0  0  0
  2  5  2  0  0  0  0
  2  6  1  0  0  0  0
  3  4  1  0  0  0  0
  3  7  1  0  0  0  0
  3  8  1  0  0  0  0
  4 26  1  0  0  0  0
  6  9  1  0  0  0  0
  6 12  1  0  0  0  0
  8 10  1  0  0  0  0
  8 11  2  0  0  0  0
  9 13  1  0  0  0  0
  9 14  1  0  0  0  0
  9 15  1  0  0  0  0
 10 16  1  0  0  0  0
 10 17  1  0  0  0  0
 10 18  1  0  0  0  0
 19 20  1  0  0  0  0
 20 21  4  0  0  0  0
 20 25  4  0  0  0  0
 21 22  4  0  0  0  0
 21 27  1  0  0  0  0
 22 23  4  0  0  0  0
 22 28  1  0  0  0  0
 23 24  4  0  0  0  0
 23 26  1  0  0  0  0
 24 25  4  0  0  0  0
 24 29  1  0  0  0  0
 25 30  1  0  0  0  0
 26 31  1  0  0  0  0
 26 32  1  0  0  0  0
M  END
> <BCLConfClusterSize>
1

> <ConfClashScore>
0 

> <ConfOneFourInteractionScore>
-0.931937 

> <ConfScore>
0.0266562 

> <ConfScorePBest>
0.00453007 

> <ConfTolerance>
0.405122 

> <RosettaParamsInstructions>
M  ROOT 3
M  POLY_N_BB 3
M  POLY_CA_BB 4
M  POLY_C_BB 2
M  POLY_O_BB 5
M  POLY_IGNORE 9 10 11 12 13 14 15 16 17 18 
M  POLY_UPPER 6
M  POLY_LOWER 8
M  POLY_CHG 0
M  POLY_PROPERTIES ALPHA_AA L_AA PROTEIN AROMATIC POLYMER 
M  END

$$$$



 32 32  0  0  0  0  0  0  0  0999 V2000
   -1.1005    1.2346    2.7884 H   0  0  0  1  0  0  0  0  0  0  0  0
   -0.9954    3.0550    3.7944 C   0  0  0  1  0  0  0  0  0  0  0  0
   -3.0284    1.8793    2.9790 N   0  0  0  1  0  0  0  0  0  0  0  0
   -1.6218    2.1679    2.7424 C   0  0  0  1  0  0  0  0  0  0  0  0
    0.2164    3.2676    3.8005 O   0  0  0  1  0  0  0  0  0  0  0  0
   -1.7963    3.5995    4.7148 N   0  0  0  1  0  0  0  0  0  0  0  0
   -3.7055    2.4471    2.5553 H   0  0  0  1  0  0  0  0  0  0  0  0
   -3.4287    0.8671    3.7537 C   0  0  0  1  0  0  0  0  0  0  0  0
   -1.2836    4.4018    5.8139 C   0  0  0  1  0  0  0  0  0  0  0  0
   -4.9334    0.7143    3.9779 C   0  0  0  1  0  0  0  0  0  0  0  0
   -2.6361    0.1307    4.3383 O   0  0  0  1  0  0  0  0  0  0  0  0
   -2.7629    3.4531    4.6468 H   0  0  0  1  0  0  0  0  0  0  0  0
   -0.2311    4.2379    5.9150 H   0  0  0  1  0  0  0  0  0  0  0  0
   -1.7769    4.1205    6.7208 H   0  0  0  1  0  0  0  0  0  0  0  0
   -1.4656    5.4372    5.6145 H   0  0  0  1  0  0  0  0  0  0  0  0
   -5.4038    1.6729    3.9103 H   0  0  0  1  0  0  0  0  0  0  0  0
   -5.1088    0.2989    4.9483 H   0  0  0  1  0  0  0  0  0  0  0  0
   -5.3407    0.0640    3.2322 H   0  0  0  1  0  0  0  0  0  0  0  0
   -3.8843    7.6784    0.4533 F   0  0  0  1  0  0  0  0  0  0  0  0
   -3.2892    6.4887    0.6639 C   0  0  0  1  0  0  0  0  0  0  0  0
   -2.0333    6.4356    1.2481 C   0  0  0  1  0  0  0  0  0  0  0  0
   -1.4202    5.2151    1.4594 C   0  0  0  1  0  0  0  0  0  0  0  0
   -2.0637    4.0436    1.0920 C   0  0  0  1  0  0  0  0  0  0  0  0
   -3.3160    4.0963    0.5094 C   0  0  0  1  0  0  0  0  0  0  0  0
   -3.9307    5.3205    0.2975 C   0  0  0  1  0  0  0  0  0  0  0  0
   -1.3968    2.7090    1.3279 C   0  0  0  1  0  0  0  0  0  0  0  0
   -1.5523    7.3143    1.5275 H   0  0  0  1  0  0  0  0  0  0  0  0
   -0.4762    5.1756    1.8941 H   0  0  0  1  0  0  0  0  0  0  0  0
   -3.7969    3.2175    0.2300 H   0  0  0  1  0  0  0  0  0  0  0  0
   -4.8747    5.3600   -0.1371 H   0  0  0  1  0  0  0  0  0  0  0  0
   -1.7901    2.0031    0.6266 H   0  0  0  1  0  0  0  0  0  0  0  0
   -0.3446    2.8214    1.1696 H   0  0  0  1  0  0  0  0  0  0  0  0
  1  4  1  0  0  0  0
  2  4  1  0  0  0  0
  2  5  2  0  0  0  0
  2  6  1  0  0  0  0
  3  4  1  0  0  0  0
  3  7  1  0  0  0  0
  3  8  1  0  0  0  0
  4 26  1  0  0  0  0
  6  9  1  0  0  0  0
  6 12  1  0  0  0  0
  8 10  1  0  0  0  0
  8 11  2  0  0  0  0
  9 13  1  0  0  0  0
  9 14  1  0  0  0  0
  9 15  1  0  0  0  0
 10 16  1  0  0  0  0
 10 17  1  0  0  0  0
 10 18  1  0  0  0  0
 19 20  1  0  0  0  0
 20 21  4  0  0  0  0
 20 25  4  0  0  0  0
 21 22  4  0  0  0  0
 21 27  1  0  0  0  0
 22 23  4  0  0  0  0
 22 28  1  0  0  0  0
 23 24  4  0  0  0  0
 23 26  1  0  0  0  0
 24 25  4  0  0  0  0
 24 29  1  0  0  0  0
 25 30  1  0  0  0  0
 26 31  1  0  0  0  0
 26 32  1  0  0  0  0
M  END
> <BCLConfClusterSize>
1

> <ConfClashScore>
0 

> <ConfOneFourInteractionScore>
-0.950605 

> <ConfScore>
0.0267595 

> <ConfScorePBest>
0.00450159 

> <ConfTolerance>
0.28183 

> <RosettaParamsInstructions>
M  ROOT 3
M  POLY_N_BB 3
M  POLY_CA_BB 4
M  POLY_C_BB 2
M  POLY_O_BB 5
M  POLY_IGNORE 9 10 11 12 13 14 15 16 17 18 
M  POLY_UPPER 6
M  POLY_LOWER 8
M  POLY_CHG 0
M  POLY_PROPERTIES ALPHA_AA L_AA PROTEIN AROMATIC POLYMER 
M  END

$$$$



 32 32  0  0  0  0  0  0  0  0999 V2000
   -2.2764    1.6129   -0.1800 H   0  0  0  1  0  0  0  0  0  0  0  0
   -0.5725    2.5106   -0.9932 C   0  0  0  1  0  0  0  0  0  0  0  0
   -0.6930    0.5235    0.5104 N   0  0  0  1  0  0  0  0  0  0  0  0
   -1.2797    1.8075    0.1571 C   0  0  0  1  0  0  0  0  0  0  0  0
    0.6352    2.7314   -0.9593 O   0  0  0  1  0  0  0  0  0  0  0  0
   -1.3466    2.8625   -2.0210 N   0  0  0  1  0  0  0  0  0  0  0  0
   -0.4382    0.3603    1.4425 H   0  0  0  1  0  0  0  0  0  0  0  0
   -0.4895   -0.4407   -0.3919 C   0  0  0  1  0  0  0  0  0  0  0  0
   -0.8539    3.6760   -3.1225 C   0  0  0  1  0  0  0  0  0  0  0  0
    0.2445   -1.6973    0.0929 C   0  0  0  1  0  0  0  0  0  0  0  0
   -0.9264   -0.3909   -1.5409 O   0  0  0  1  0  0  0  0  0  0  0  0
   -2.2795    2.5627   -2.0349 H   0  0  0  1  0  0  0  0  0  0  0  0
    0.0547    4.1599   -2.8306 H   0  0  0  1  0  0  0  0  0  0  0  0
   -1.5857    4.4146   -3.3752 H   0  0  0  1  0  0  0  0  0  0  0  0
   -0.6684    3.0518   -3.9715 H   0  0  0  1  0  0  0  0  0  0  0  0
    1.1974   -1.4218    0.4942 H   0  0  0  1  0  0  0  0  0  0  0  0
    0.3843   -2.3678   -0.7291 H   0  0  0  1  0  0  0  0  0  0  0  0
   -0.3361   -2.1788    0.8518 H   0  0  0  1  0  0  0  0  0  0  0  0
   -3.8920    7.6774    0.4717 F   0  0  0  1  0  0  0  0  0  0  0  0
   -3.2918    6.4881    0.6695 C   0  0  0  1  0  0  0  0  0  0  0  0
   -2.0329    6.4345    1.2473 C   0  0  0  1  0  0  0  0  0  0  0  0
   -1.4146    5.2144    1.4454 C   0  0  0  1  0  0  0  0  0  0  0  0
   -2.0558    4.0438    1.0712 C   0  0  0  1  0  0  0  0  0  0  0  0
   -3.3110    4.0970    0.4951 C   0  0  0  1  0  0  0  0  0  0  0  0
   -3.9309    5.3208    0.2964 C   0  0  0  1  0  0  0  0  0  0  0  0
   -1.4162    2.7120    1.3853 C   0  0  0  1  0  0  0  0  0  0  0  0
   -1.5535    7.3125    1.5317 H   0  0  0  1  0  0  0  0  0  0  0  0
   -0.4684    5.1746    1.8753 H   0  0  0  1  0  0  0  0  0  0  0  0
   -3.7903    3.2189    0.2106 H   0  0  0  1  0  0  0  0  0  0  0  0
   -4.8771    5.3607   -0.1334 H   0  0  0  1  0  0  0  0  0  0  0  0
   -0.4407    2.8891    1.7878 H   0  0  0  1  0  0  0  0  0  0  0  0
   -2.0172    2.2089    2.1136 H   0  0  0  1  0  0  0  0  0  0  0  0
  1  4  1  0  0  0  0
  2  4  1  0  0  0  0
  2  5  2  0  0  0  0
  2  6  1  0  0  0  0
  3  4  1  0  0  0  0
  3  7  1  0  0  0  0
  3  8  1  0  0  0  0
  4 26  1  0  0  0  0
  6  9  1  0  0  0  0
  6 12  1  0  0  0  0
  8 10  1  0  0  0  0
  8 11  2  0  0  0  0
  9 13  1  0  0  0  0
  9 14  1  0  0  0  0
  9 15  1  0  0  0  0
 10 16  1  0  0  0  0
 10 17  1  0  0  0  0
 10 18  1  0  0  0  0
 19 20  1  0  0  0  0
 20 21  4  0  0  0  0
 20 25  4  0  0  0  0
 21 22  4  0  0  0  0
 21 27  1  0  0  0  0
 22 23  4  0  0  0  0
 22 28  1  0  0  0  0
 23 24  4  0  0  0  0
 23 26  1  0  0  0  0
 24 25  4  0  0  0  0
 24 29  1  0  0  0  0
 25 30  1  0  0  0  0
 26 31  1  0  0  0  0
 26 32  1  0  0  0  0
M  END
> <BCLConfClusterSize>
1

> <ConfClashScore>
0 

> <ConfOneFourInteractionScore>
-0.985807 

> <ConfScore>
0.0287441 

> <ConfScorePBest>
0.00447311 

> <ConfTolerance>
0.295915 

> <RosettaParamsInstructions>
M  ROOT 3
M  POLY_N_BB 3
M  POLY_CA_BB 4
M  POLY_C_BB 2
M  POLY_O_BB 5
M  POLY_IGNORE 9 10 11 12 13 14 15 16 17 18 
M  POLY_UPPER 6
M  POLY_LOWER 8
M  POLY_CHG 0
M  POLY_PROPERTIES ALPHA_AA L_AA PROTEIN AROMATIC POLYMER 
M  END

$$$$



 32 32  0  0  0  0  0  0  0  0999 V2000
   -2.9325    1.9841    2.5535 H   0  0  0  1  0  0  0  0  0  0  0  0
   -1.3225    0.7018    2.9443 C   0  0  0  1  0  0  0  0  0  0  0  0
   -1.6248    3.0210    3.7616 N   0  0  0  1  0  0  0  0  0  0  0  0
   -1.8714    2.0927    2.6377 C   0  0  0  1  0  0  0  0  0  0  0  0
   -0.9464    0.0097    1.9992 O   0  0  0  1  0  0  0  0  0  0  0  0
   -1.2788    0.3086    4.2182 N   0  0  0  1  0  0  0  0  0  0  0  0
   -2.3858    3.4900    4.1633 H   0  0  0  1  0  0  0  0  0  0  0  0
   -0.3991    3.2428    4.2494 C   0  0  0  1  0  0  0  0  0  0  0  0
   -0.9169   -1.0480    4.6012 C   0  0  0  1  0  0  0  0  0  0  0  0
   -0.3119    4.2521    5.3777 C   0  0  0  1  0  0  0  0  0  0  0  0
    0.6031    2.6749    3.8234 O   0  0  0  1  0  0  0  0  0  0  0  0
   -1.4979    0.9558    4.9207 H   0  0  0  1  0  0  0  0  0  0  0  0
   -1.2797   -1.7354    3.8659 H   0  0  0  1  0  0  0  0  0  0  0  0
   -1.3530   -1.2786    5.5506 H   0  0  0  1  0  0  0  0  0  0  0  0
    0.1480   -1.1273    4.6685 H   0  0  0  1  0  0  0  0  0  0  0  0
   -0.8339    3.8774    6.2332 H   0  0  0  1  0  0  0  0  0  0  0  0
   -0.7551    5.1747    5.0656 H   0  0  0  1  0  0  0  0  0  0  0  0
    0.7148    4.4165    5.6303 H   0  0  0  1  0  0  0  0  0  0  0  0
   -3.9116    7.6616    0.4395 F   0  0  0  1  0  0  0  0  0  0  0  0
   -3.2836    6.4921    0.6667 C   0  0  0  1  0  0  0  0  0  0  0  0
   -2.0277    6.4356    1.2507 C   0  0  0  1  0  0  0  0  0  0  0  0
   -1.4173    5.2135    1.4607 C   0  0  0  1  0  0  0  0  0  0  0  0
   -2.0634    4.0439    1.0921 C   0  0  0  1  0  0  0  0  0  0  0  0
   -3.3156    4.0999    0.5098 C   0  0  0  1  0  0  0  0  0  0  0  0
   -3.9277    5.3257    0.2993 C   0  0  0  1  0  0  0  0  0  0  0  0
   -1.3994    2.7076    1.3266 C   0  0  0  1  0  0  0  0  0  0  0  0
   -1.5447    7.3130    1.5309 H   0  0  0  1  0  0  0  0  0  0  0  0
   -0.4733    5.1715    1.8952 H   0  0  0  1  0  0  0  0  0  0  0  0
   -3.7986    3.2225    0.2296 H   0  0  0  1  0  0  0  0  0  0  0  0
   -4.8716    5.3677   -0.1352 H   0  0  0  1  0  0  0  0  0  0  0  0
   -1.6452    2.0476    0.5211 H   0  0  0  1  0  0  0  0  0  0  0  0
   -0.3390    2.8447    1.3651 H   0  0  0  1  0  0  0  0  0  0  0  0
  1  4  1  0  0  0  0
  2  4  1  0  0  0  0
  2  5  2  0  0  0  0
  2  6  1  0  0  0  0
  3  4  1  0  0  0  0
  3  7  1  0  0  0  0
  3  8  1  0  0  0  0
  4 26  1  0  0  0  0
  6  9  1  0  0  0  0
  6 12  1  0  0  0  0
  8 10  1  0  0  0  0
  8 11  2  0  0  0  0
  9 13  1  0  0  0  0
  9 14  1  0  0  0  0
  9 15  1  0  0  0  0
 10 16  1  0  0  0  0
 10 17  1  0  0  0  0
 10 18  1  0  0  0  0
 19 20  1  0  0  0  0
 20 21  4  0  0  0  0
 20 25  4  0  0  0  0
 21 22  4  0  0  0  0
 21 27  1  0  0  0  0
 22 23  4  0  0  0  0
 22 28  1  0  0  0  0
 23 24  4  0  0  0  0
 23 26  1  0  0  0  0
 24 25  4  0  0  0  0
 24 29  1  0  0  0  0
 25 30  1  0  0  0  0
 26 31  1  0  0  0  0
 26 32  1  0  0  0  0
M  END
> <BCLConfClusterSize>
1

> <ConfClashScore>
0 

> <ConfOneFourInteractionScore>
-0.957364 

> <ConfScore>
0.0301257 

> <ConfScorePBest>
0.00444463 

> <ConfTolerance>
0.191488 

> <RosettaParamsInstructions>
M  ROOT 3
M  POLY_N_BB 3
M  POLY_CA_BB 4
M  POLY_C_BB 2
M  POLY_O_BB 5
M  POLY_IGNORE 9 10 11 12 13 14 15 16 17 18 
M  POLY_UPPER 6
M  POLY_LOWER 8
M  POLY_CHG 0
M  POLY_PROPERTIES ALPHA_AA L_AA PROTEIN AROMATIC POLYMER 
M  END

$$$$



 32 32  0  0  0  0  0  0  0  0999 V2000
   -0.5120    3.1748    3.2004 H   0  0  0  1  0  0  0  0  0  0  0  0
   -2.4833    2.6144    3.7031 C   0  0  0  1  0  0  0  0  0  0  0  0
   -0.6710    1.1229    3.1010 N   0  0  0  1  0  0  0  0  0  0  0  0
   -1.2218    2.4487    2.8628 C   0  0  0  1  0  0  0  0  0  0  0  0
   -3.4562    1.8789    3.5456 O   0  0  0  1  0  0  0  0  0  0  0  0
   -2.4542    3.5973    4.6045 N   0  0  0  1  0  0  0  0  0  0  0  0
   -1.2254    0.3212    2.9994 H   0  0  0  1  0  0  0  0  0  0  0  0
    0.6119    1.0297    3.4623 C   0  0  0  1  0  0  0  0  0  0  0  0
   -3.6084    3.9348    5.4241 C   0  0  0  1  0  0  0  0  0  0  0  0
    1.0726   -0.3444    3.9080 C   0  0  0  1  0  0  0  0  0  0  0  0
    1.3849    1.9866    3.4412 O   0  0  0  1  0  0  0  0  0  0  0  0
   -1.6268    4.1099    4.7187 H   0  0  0  1  0  0  0  0  0  0  0  0
   -3.6141    4.9872    5.6169 H   0  0  0  1  0  0  0  0  0  0  0  0
   -3.5550    3.4029    6.3511 H   0  0  0  1  0  0  0  0  0  0  0  0
   -4.5046    3.6623    4.9071 H   0  0  0  1  0  0  0  0  0  0  0  0
    0.4943   -1.0941    3.4096 H   0  0  0  1  0  0  0  0  0  0  0  0
    0.9421   -0.4383    4.9659 H   0  0  0  1  0  0  0  0  0  0  0  0
    2.1066   -0.4704    3.6631 H   0  0  0  1  0  0  0  0  0  0  0  0
   -3.9224    7.6587    0.4567 F   0  0  0  1  0  0  0  0  0  0  0  0
   -3.2859    6.4915    0.6725 C   0  0  0  1  0  0  0  0  0  0  0  0
   -2.0270    6.4388    1.2503 C   0  0  0  1  0  0  0  0  0  0  0  0
   -1.4079    5.2192    1.4486 C   0  0  0  1  0  0  0  0  0  0  0  0
   -2.0483    4.0481    1.0745 C   0  0  0  1  0  0  0  0  0  0  0  0
   -3.3036    4.1004    0.4984 C   0  0  0  1  0  0  0  0  0  0  0  0
   -3.9244    5.3238    0.2996 C   0  0  0  1  0  0  0  0  0  0  0  0
   -1.4520    2.6918    1.3684 C   0  0  0  1  0  0  0  0  0  0  0  0
   -1.5482    7.3172    1.5346 H   0  0  0  1  0  0  0  0  0  0  0  0
   -0.4617    5.1800    1.8784 H   0  0  0  1  0  0  0  0  0  0  0  0
   -3.7823    3.2220    0.2142 H   0  0  0  1  0  0  0  0  0  0  0  0
   -4.8706    5.3630   -0.1302 H   0  0  0  1  0  0  0  0  0  0  0  0
   -2.1179    1.9399    0.9996 H   0  0  0  1  0  0  0  0  0  0  0  0
   -0.5123    2.6161    0.8623 H   0  0  0  1  0  0  0  0  0  0  0  0
  1  4  1  0  0  0  0
  2  4  1  0  0  0  0
  2  5  2  0  0  0  0
  2  6  1  0  0  0  0
  3  4  1  0  0  0  0
  3  7  1  0  0  0  0
  3  8  1  0  0  0  0
  4 26  1  0  0  0  0
  6  9  1  0  0  0  0
  6 12  1  0  0  0  0
  8 10  1  0  0  0  0
  8 11  2  0  0  0  0
  9 13  1  0  0  0  0
  9 14  1  0  0  0  0
  9 15  1  0  0  0  0
 10 16  1  0  0  0  0
 10 17  1  0  0  0  0
 10 18  1  0  0  0  0
 19 20  1  0  0  0  0
 20 21  4  0  0  0  0
 20 25  4  0  0  0  0
 21 22  4  0  0  0  0
 21 27  1  0  0  0  0
 22 23  4  0  0  0  0
 22 28  1  0  0  0  0
 23 24  4  0  0  0  0
 23 26  1  0  0  0  0
 24 25  4  0  0  0  0
 24 29  1  0  0  0  0
 25 30  1  0  0  0  0
 26 31  1  0  0  0  0
 26 32  1  0  0  0  0
M  END
> <BCLConfClusterSize>
1

> <ConfClashScore>
0 

> <ConfOneFourInteractionScore>
-0.990503 

> <ConfScore>
0.0308 

> <ConfScorePBest>
0.00441614 

> <ConfTolerance>
0.334199 

> <RosettaParamsInstructions>
M  ROOT 3
M  POLY_N_BB 3
M  POLY_CA_BB 4
M  POLY_C_BB 2
M  POLY_O_BB 5
M  POLY_IGNORE 9 10 11 12 13 14 15 16 17 18 
M  POLY_UPPER 6
M  POLY_LOWER 8
M  POLY_CHG 0
M  POLY_PROPERTIES ALPHA_AA L_AA PROTEIN AROMATIC POLYMER 
M  END

$$$$



 32 32  0  0  0  0  0  0  0  0999 V2000
   -0.8816    2.5374   -0.7157 H   0  0  0  1  0  0  0  0  0  0  0  0
   -0.4521    0.6643    0.1399 C   0  0  0  1  0  0  0  0  0  0  0  0
   -2.6434    1.5095   -0.4273 N   0  0  0  1  0  0  0  0  0  0  0  0
   -1.3184    1.9037    0.0276 C   0  0  0  1  0  0  0  0  0  0  0  0
   -0.9500   -0.4518    0.2956 O   0  0  0  1  0  0  0  0  0  0  0  0
    0.8721    0.8691    0.0587 N   0  0  0  1  0  0  0  0  0  0  0  0
   -3.2795    1.1137    0.2044 H   0  0  0  1  0  0  0  0  0  0  0  0
   -2.9978    1.6878   -1.7169 C   0  0  0  1  0  0  0  0  0  0  0  0
    1.8430   -0.1519    0.4362 C   0  0  0  1  0  0  0  0  0  0  0  0
   -4.3870    1.2086   -2.0905 C   0  0  0  1  0  0  0  0  0  0  0  0
   -2.2548    2.2041   -2.5505 O   0  0  0  1  0  0  0  0  0  0  0  0
    1.1979    1.7347   -0.2653 H   0  0  0  1  0  0  0  0  0  0  0  0
    1.3733   -1.1132    0.4240 H   0  0  0  1  0  0  0  0  0  0  0  0
    2.2110    0.0526    1.4199 H   0  0  0  1  0  0  0  0  0  0  0  0
    2.6568   -0.1440   -0.2585 H   0  0  0  1  0  0  0  0  0  0  0  0
   -4.7114    0.4705   -1.3871 H   0  0  0  1  0  0  0  0  0  0  0  0
   -4.3647    0.7809   -3.0711 H   0  0  0  1  0  0  0  0  0  0  0  0
   -5.0651    2.0361   -2.0771 H   0  0  0  1  0  0  0  0  0  0  0  0
   -3.8843    7.6784    0.4533 F   0  0  0  1  0  0  0  0  0  0  0  0
   -3.2892    6.4887    0.6639 C   0  0  0  1  0  0  0  0  0  0  0  0
   -2.0333    6.4356    1.2481 C   0  0  0  1  0  0  0  0  0  0  0  0
   -1.4202    5.2151    1.4594 C   0  0  0  1  0  0  0  0  0  0  0  0
   -2.0637    4.0436    1.0920 C   0  0  0  1  0  0  0  0  0  0  0  0
   -3.3160    4.0963    0.5094 C   0  0  0  1  0  0  0  0  0  0  0  0
   -3.9307    5.3205    0.2975 C   0  0  0  1  0  0  0  0  0  0  0  0
   -1.3968    2.7090    1.3279 C   0  0  0  1  0  0  0  0  0  0  0  0
   -1.5523    7.3143    1.5275 H   0  0  0  1  0  0  0  0  0  0  0  0
   -0.4762    5.1756    1.8941 H   0  0  0  1  0  0  0  0  0  0  0  0
   -3.7969    3.2175    0.2300 H   0  0  0  1  0  0  0  0  0  0  0  0
   -4.8747    5.3600   -0.1371 H   0  0  0  1  0  0  0  0  0  0  0  0
   -0.4068    2.8724    1.6996 H   0  0  0  1  0  0  0  0  0  0  0  0
   -1.9625    2.1568    2.0490 H   0  0  0  1  0  0  0  0  0  0  0  0
  1  4  1  0  0  0  0
  2  4  1  0  0  0  0
  2  5  2  0  0  0  0
  2  6  1  0  0  0  0
  3  4  1  0  0  0  0
  3  7  1  0  0  0  0
  3  8  1  0  0  0  0
  4 26  1  0  0  0  0
  6  9  1  0  0  0  0
  6 12  1  0  0  0  0
  8 10  1  0  0  0  0
  8 11  2  0  0  0  0
  9 13  1  0  0  0  0
  9 14  1  0  0  0  0
  9 15  1  0  0  0  0
 10 16  1  0  0  0  0
 10 17  1  0  0  0  0
 10 18  1  0  0  0  0
 19 20  1  0  0  0  0
 20 21  4  0  0  0  0
 20 25  4  0  0  0  0
 21 22  4  0  0  0  0
 21 27  1  0  0  0  0
 22 23  4  0  0  0  0
 22 28  1  0  0  0  0
 23 24  4  0  0  0  0
 23 26  1  0  0  0  0
 24 25  4  0  0  0  0
 24 29  1  0  0  0  0
 25 30  1  0  0  0  0
 26 31  1  0  0  0  0
 26 32  1  0  0  0  0
M  END
> <BCLConfClusterSize>
1

> <ConfClashScore>
0 

> <ConfOneFourInteractionScore>
-0.981931 

> <ConfScore>
0.0335641 

> <ConfScorePBest>
0.00438766 

> <ConfTolerance>
0.39501 

> <RosettaParamsInstructions>
M  ROOT 3
M  POLY_N_BB 3
M  POLY_CA_BB 4
M  POLY_C_BB 2
M  POLY_O_BB 5
M  POLY_IGNORE 9 10 11 12 13 14 15 16 17 18 
M  POLY_UPPER 6
M  POLY_LOWER 8
M  POLY_CHG 0
M  POLY_PROPERTIES ALPHA_AA L_AA PROTEIN AROMATIC POLYMER 
M  END

$$$$



 32 32  0  0  0  0  0  0  0  0999 V2000
    0.0520    3.0971   -0.1734 H   0  0  0  1  0  0  0  0  0  0  0  0
    0.2880    1.0874    0.4281 C   0  0  0  1  0  0  0  0  0  0  0  0
   -1.4620    1.9711   -1.0189 N   0  0  0  1  0  0  0  0  0  0  0  0
   -0.5856    2.2827    0.1004 C   0  0  0  1  0  0  0  0  0  0  0  0
    0.0593    0.3788    1.4075 O   0  0  0  1  0  0  0  0  0  0  0  0
    1.3100    0.8639   -0.4132 N   0  0  0  1  0  0  0  0  0  0  0  0
   -2.1670    1.3016   -0.8955 H   0  0  0  1  0  0  0  0  0  0  0  0
   -1.3388    2.5660   -2.2088 C   0  0  0  1  0  0  0  0  0  0  0  0
    2.3704   -0.1228   -0.2728 C   0  0  0  1  0  0  0  0  0  0  0  0
   -2.3831    2.1929   -3.2430 C   0  0  0  1  0  0  0  0  0  0  0  0
   -0.4421    3.3677   -2.4673 O   0  0  0  1  0  0  0  0  0  0  0  0
    1.3460    1.4295   -1.2127 H   0  0  0  1  0  0  0  0  0  0  0  0
    2.7099   -0.1405    0.7417 H   0  0  0  1  0  0  0  0  0  0  0  0
    3.1850    0.1353   -0.9168 H   0  0  0  1  0  0  0  0  0  0  0  0
    1.9960   -1.0889   -0.5402 H   0  0  0  1  0  0  0  0  0  0  0  0
   -3.2127    2.8649   -3.1714 H   0  0  0  1  0  0  0  0  0  0  0  0
   -2.7185    1.1924   -3.0660 H   0  0  0  1  0  0  0  0  0  0  0  0
   -1.9550    2.2583   -4.2214 H   0  0  0  1  0  0  0  0  0  0  0  0
   -3.8843    7.6784    0.4533 F   0  0  0  1  0  0  0  0  0  0  0  0
   -3.2892    6.4887    0.6639 C   0  0  0  1  0  0  0  0  0  0  0  0
   -2.0333    6.4356    1.2481 C   0  0  0  1  0  0  0  0  0  0  0  0
   -1.4202    5.2151    1.4594 C   0  0  0  1  0  0  0  0  0  0  0  0
   -2.0637    4.0436    1.0920 C   0  0  0  1  0  0  0  0  0  0  0  0
   -3.3160    4.0963    0.5094 C   0  0  0  1  0  0  0  0  0  0  0  0
   -3.9307    5.3205    0.2975 C   0  0  0  1  0  0  0  0  0  0  0  0
   -1.3968    2.7090    1.3279 C   0  0  0  1  0  0  0  0  0  0  0  0
   -1.5523    7.3143    1.5275 H   0  0  0  1  0  0  0  0  0  0  0  0
   -0.4762    5.1756    1.8941 H   0  0  0  1  0  0  0  0  0  0  0  0
   -3.7969    3.2175    0.2300 H   0  0  0  1  0  0  0  0  0  0  0  0
   -4.8747    5.3600   -0.1371 H   0  0  0  1  0  0  0  0  0  0  0  0
   -0.7424    2.7880    2.1708 H   0  0  0  1  0  0  0  0  0  0  0  0
   -2.1469    1.9722    1.5260 H   0  0  0  1  0  0  0  0  0  0  0  0
  1  4  1  0  0  0  0
  2  4  1  0  0  0  0
  2  5  2  0  0  0  0
  2  6  1  0  0  0  0
  3  4  1  0  0  0  0
  3  7  1  0  0  0  0
  3  8  1  0  0  0  0
  4 26  1  0  0  0  0
  6  9  1  0  0  0  0
  6 12  1  0  0  0  0
  8 10  1  0  0  0  0
  8 11  2  0  0  0  0
  9 13  1  0  0  0  0
  9 14  1  0  0  0  0
  9 15  1  0  0  0  0
 10 16  1  0  0  0  0
 10 17  1  0  0  0  0
 10 18  1  0  0  0  0
 19 20  1  0  0  0  0
 20 21  4  0  0  0  0
 20 25  4  0  0  0  0
 21 22  4  0  0  0  0
 21 27  1  0  0  0  0
 22 23  4  0  0  0  0
 22 28  1  0  0  0  0
 23 24  4  0  0  0  0
 23 26  1  0  0  0  0
 24 25  4  0  0  0  0
 24 29  1  0  0  0  0
 25 30  1  0  0  0  0
 26 31  1  0  0  0  0
 26 32  1  0  0  0  0
M  END
> <BCLConfClusterSize>
1

> <ConfClashScore>
0 

> <ConfOneFourInteractionScore>
-0.979134 

> <ConfScore>
0.0349564 

> <ConfScorePBest>
0.00435918 

> <ConfTolerance>
0.283665 

> <RosettaParamsInstructions>
M  ROOT 3
M  POLY_N_BB 3
M  POLY_CA_BB 4
M  POLY_C_BB 2
M  POLY_O_BB 5
M  POLY_IGNORE 9 10 11 12 13 14 15 16 17 18 
M  POLY_UPPER 6
M  POLY_LOWER 8
M  POLY_CHG 0
M  POLY_PROPERTIES ALPHA_AA L_AA PROTEIN AROMATIC POLYMER 
M  END

$$$$



 32 32  0  0  0  0  0  0  0  0999 V2000
    0.3726    3.0186    0.2541 H   0  0  0  1  0  0  0  0  0  0  0  0
    0.1892    0.9414    0.3452 C   0  0  0  1  0  0  0  0  0  0  0  0
   -1.0780    2.4845   -1.1072 N   0  0  0  1  0  0  0  0  0  0  0  0
   -0.4344    2.3172    0.2132 C   0  0  0  1  0  0  0  0  0  0  0  0
    0.2487    0.3741    1.4236 O   0  0  0  1  0  0  0  0  0  0  0  0
    0.6620    0.4040   -0.7905 N   0  0  0  1  0  0  0  0  0  0  0  0
   -0.6503    3.0922   -1.7460 H   0  0  0  1  0  0  0  0  0  0  0  0
   -2.2413    1.8462   -1.5098 C   0  0  0  1  0  0  0  0  0  0  0  0
    1.3623   -0.8715   -0.8143 C   0  0  0  1  0  0  0  0  0  0  0  0
   -2.7768    2.1030   -2.9002 C   0  0  0  1  0  0  0  0  0  0  0  0
   -2.7952    1.0967   -0.7263 O   0  0  0  1  0  0  0  0  0  0  0  0
    0.5311    0.8874   -1.6328 H   0  0  0  1  0  0  0  0  0  0  0  0
    0.7346   -1.6314   -0.3979 H   0  0  0  1  0  0  0  0  0  0  0  0
    2.2605   -0.7958   -0.2377 H   0  0  0  1  0  0  0  0  0  0  0  0
    1.6067   -1.1251   -1.8246 H   0  0  0  1  0  0  0  0  0  0  0  0
   -3.0830    3.1249   -2.9820 H   0  0  0  1  0  0  0  0  0  0  0  0
   -3.6154    1.4639   -3.0828 H   0  0  0  1  0  0  0  0  0  0  0  0
   -2.0110    1.9017   -3.6199 H   0  0  0  1  0  0  0  0  0  0  0  0
   -3.8843    7.6784    0.4533 F   0  0  0  1  0  0  0  0  0  0  0  0
   -3.2892    6.4887    0.6639 C   0  0  0  1  0  0  0  0  0  0  0  0
   -2.0333    6.4356    1.2481 C   0  0  0  1  0  0  0  0  0  0  0  0
   -1.4202    5.2151    1.4594 C   0  0  0  1  0  0  0  0  0  0  0  0
   -2.0637    4.0436    1.0920 C   0  0  0  1  0  0  0  0  0  0  0  0
   -3.3160    4.0963    0.5094 C   0  0  0  1  0  0  0  0  0  0  0  0
   -3.9307    5.3205    0.2975 C   0  0  0  1  0  0  0  0  0  0  0  0
   -1.3968    2.7090    1.3279 C   0  0  0  1  0  0  0  0  0  0  0  0
   -1.5523    7.3143    1.5275 H   0  0  0  1  0  0  0  0  0  0  0  0
   -0.4762    5.1756    1.8941 H   0  0  0  1  0  0  0  0  0  0  0  0
   -3.7969    3.2175    0.2300 H   0  0  0  1  0  0  0  0  0  0  0  0
   -4.8747    5.3600   -0.1371 H   0  0  0  1  0  0  0  0  0  0  0  0
   -0.8512    2.7587    2.2470 H   0  0  0  1  0  0  0  0  0  0  0  0
   -2.1551    1.9579    1.4028 H   0  0  0  1  0  0  0  0  0  0  0  0
  1  4  1  0  0  0  0
  2  4  1  0  0  0  0
  2  5  2  0  0  0  0
  2  6  1  0  0  0  0
  3  4  1  0  0  0  0
  3  7  1  0  0  0  0
  3  8  1  0  0  0  0
  4 26  1  0  0  0  0
  6  9  1  0  0  0  0
  6 12  1  0  0  0  0
  8 10  1  0  0  0  0
  8 11  2  0  0  0  0
  9 13  1  0  0  0  0
  9 14  1  0  0  0  0
  9 15  1  0  0  0  0
 10 16  1  0  0  0  0
 10 17  1  0  0  0  0
 10 18  1  0  0  0  0
 19 20  1  0  0  0  0
 20 21  4  0  0  0  0
 20 25  4  0  0  0  0
 21 22  4  0  0  0  0
 21 27  1  0  0  0  0
 22 23  4  0  0  0  0
 22 28  1  0  0  0  0
 23 24  4  0  0  0  0
 23 26  1  0  0  0  0
 24 25  4  0  0  0  0
 24 29  1  0  0  0  0
 25 30  1  0  0  0  0
 26 31  1  0  0  0  0
 26 32  1  0  0  0  0
M  END
> <BCLConfClusterSize>
1

> <ConfClashScore>
0 

> <ConfOneFourInteractionScore>
-0.938304 

> <ConfScore>
0.0419855 

> <ConfScorePBest>
0.0043307 

> <ConfTolerance>
0.292943 

> <RosettaParamsInstructions>
M  ROOT 3
M  POLY_N_BB 3
M  POLY_CA_BB 4
M  POLY_C_BB 2
M  POLY_O_BB 5
M  POLY_IGNORE 9 10 11 12 13 14 15 16 17 18 
M  POLY_UPPER 6
M  POLY_LOWER 8
M  POLY_CHG 0
M  POLY_PROPERTIES ALPHA_AA L_AA PROTEIN AROMATIC POLYMER 
M  END

$$$$



 32 32  0  0  0  0  0  0  0  0999 V2000
   -2.7617    1.7300    0.0889 H   0  0  0  1  0  0  0  0  0  0  0  0
   -1.5200    0.2393    0.8540 C   0  0  0  1  0  0  0  0  0  0  0  0
   -3.3767    1.4270    2.0119 N   0  0  0  1  0  0  0  0  0  0  0  0
   -2.3035    1.5250    1.0339 C   0  0  0  1  0  0  0  0  0  0  0  0
   -1.5219   -0.6358    1.7188 O   0  0  0  1  0  0  0  0  0  0  0  0
   -0.8373    0.1284   -0.2965 N   0  0  0  1  0  0  0  0  0  0  0  0
   -3.1457    1.3445    2.9608 H   0  0  0  1  0  0  0  0  0  0  0  0
   -4.6657    1.4455    1.6613 C   0  0  0  1  0  0  0  0  0  0  0  0
    0.0744   -0.9758   -0.5562 C   0  0  0  1  0  0  0  0  0  0  0  0
   -5.6526    1.1641    2.7717 C   0  0  0  1  0  0  0  0  0  0  0  0
   -5.0415    1.6731    0.5226 O   0  0  0  1  0  0  0  0  0  0  0  0
   -0.9570    0.8150   -0.9855 H   0  0  0  1  0  0  0  0  0  0  0  0
   -0.2713   -1.8515   -0.0478 H   0  0  0  1  0  0  0  0  0  0  0  0
    1.0520   -0.7214   -0.2033 H   0  0  0  1  0  0  0  0  0  0  0  0
    0.1128   -1.1663   -1.6084 H   0  0  0  1  0  0  0  0  0  0  0  0
   -5.1542    0.6602    3.5733 H   0  0  0  1  0  0  0  0  0  0  0  0
   -6.4424    0.5462    2.3985 H   0  0  0  1  0  0  0  0  0  0  0  0
   -6.0595    2.0869    3.1292 H   0  0  0  1  0  0  0  0  0  0  0  0
   -3.8565    7.6941    0.4672 F   0  0  0  1  0  0  0  0  0  0  0  0
   -3.2949    6.4853    0.6610 C   0  0  0  1  0  0  0  0  0  0  0  0
   -2.0390    6.4357    1.2455 C   0  0  0  1  0  0  0  0  0  0  0  0
   -1.4232    5.2167    1.4581 C   0  0  0  1  0  0  0  0  0  0  0  0
   -2.0640    4.0435    1.0918 C   0  0  0  1  0  0  0  0  0  0  0  0
   -3.3163    4.0927    0.5090 C   0  0  0  1  0  0  0  0  0  0  0  0
   -3.9338    5.3154    0.2958 C   0  0  0  1  0  0  0  0  0  0  0  0
   -1.3943    2.7106    1.3292 C   0  0  0  1  0  0  0  0  0  0  0  0
   -1.5599    7.3158    1.5240 H   0  0  0  1  0  0  0  0  0  0  0  0
   -0.4792    5.1798    1.8930 H   0  0  0  1  0  0  0  0  0  0  0  0
   -3.7954    3.2126    0.2305 H   0  0  0  1  0  0  0  0  0  0  0  0
   -4.8778    5.3524   -0.1391 H   0  0  0  1  0  0  0  0  0  0  0  0
   -0.5330    2.6450    0.6976 H   0  0  0  1  0  0  0  0  0  0  0  0
   -1.0904    2.6599    2.3539 H   0  0  0  1  0  0  0  0  0  0  0  0
  1  4  1  0  0  0  0
  2  4  1  0  0  0  0
  2  5  2  0  0  0  0
  2  6  1  0  0  0  0
  3  4  1  0  0  0  0
  3  7  1  0  0  0  0
  3  8  1  0  0  0  0
  4 26  1  0  0  0  0
  6  9  1  0  0  0  0
  6 12  1  0  0  0  0
  8 10  1  0  0  0  0
  8 11  2  0  0  0  0
  9 13  1  0  0  0  0
  9 14  1  0  0  0  0
  9 15  1  0  0  0  0
 10 16  1  0  0  0  0
 10 17  1  0  0  0  0
 10 18  1  0  0  0  0
 19 20  1  0  0  0  0
 20 21  4  0  0  0  0
 20 25  4  0  0  0  0
 21 22  4  0  0  0  0
 21 27  1  0  0  0  0
 22 23  4  0  0  0  0
 22 28  1  0  0  0  0
 23 24  4  0  0  0  0
 23 26  1  0  0  0  0
 24 25  4  0  0  0  0
 24 29  1  0  0  0  0
 25 30  1  0  0  0  0
 26 31  1  0  0  0  0
 26 32  1  0  0  0  0
M  END
> <BCLConfClusterSize>
1

> <ConfClashScore>
0 

> <ConfOneFourInteractionScore>
-0.97449 

> <ConfScore>
0.043974 

> <ConfScorePBest>
0.00430222 

> <ConfTolerance>
0.498339 

> <RosettaParamsInstructions>
M  ROOT 3
M  POLY_N_BB 3
M  POLY_CA_BB 4
M  POLY_C_BB 2
M  POLY_O_BB 5
M  POLY_IGNORE 9 10 11 12 13 14 15 16 17 18 
M  POLY_UPPER 6
M  POLY_LOWER 8
M  POLY_CHG 0
M  POLY_PROPERTIES ALPHA_AA L_AA PROTEIN AROMATIC POLYMER 
M  END

$$$$



 32 32  0  0  0  0  0  0  0  0999 V2000
    0.2571    2.9957    0.0586 H   0  0  0  1  0  0  0  0  0  0  0  0
    0.2560    0.9497    0.5479 C   0  0  0  1  0  0  0  0  0  0  0  0
   -1.2121    2.0446   -1.0281 N   0  0  0  1  0  0  0  0  0  0  0  0
   -0.4781    2.2339    0.2142 C   0  0  0  1  0  0  0  0  0  0  0  0
    0.2564    0.4967    1.6807 O   0  0  0  1  0  0  0  0  0  0  0  0
    0.8933    0.3595   -0.4756 N   0  0  0  1  0  0  0  0  0  0  0  0
   -1.9091    1.3567   -1.0654 H   0  0  0  1  0  0  0  0  0  0  0  0
   -0.9595    2.8036   -2.1606 C   0  0  0  1  0  0  0  0  0  0  0  0
    1.7850   -0.7749   -0.2858 C   0  0  0  1  0  0  0  0  0  0  0  0
   -1.7770    2.5627   -3.3986 C   0  0  0  1  0  0  0  0  0  0  0  0
   -0.0779    3.6456   -2.1139 O   0  0  0  1  0  0  0  0  0  0  0  0
    0.7533    0.7045   -1.3821 H   0  0  0  1  0  0  0  0  0  0  0  0
    2.6668   -0.4539    0.2282 H   0  0  0  1  0  0  0  0  0  0  0  0
    2.0552   -1.1792   -1.2389 H   0  0  0  1  0  0  0  0  0  0  0  0
    1.2885   -1.5256    0.2928 H   0  0  0  1  0  0  0  0  0  0  0  0
   -1.5885    1.5750   -3.7645 H   0  0  0  1  0  0  0  0  0  0  0  0
   -1.5082    3.2777   -4.1479 H   0  0  0  1  0  0  0  0  0  0  0  0
   -2.8162    2.6639   -3.1648 H   0  0  0  1  0  0  0  0  0  0  0  0
   -3.8843    7.6784    0.4533 F   0  0  0  1  0  0  0  0  0  0  0  0
   -3.2892    6.4887    0.6639 C   0  0  0  1  0  0  0  0  0  0  0  0
   -2.0333    6.4356    1.2481 C   0  0  0  1  0  0  0  0  0  0  0  0
   -1.4202    5.2151    1.4594 C   0  0  0  1  0  0  0  0  0  0  0  0
   -2.0637    4.0436    1.0920 C   0  0  0  1  0  0  0  0  0  0  0  0
   -3.3160    4.0963    0.5094 C   0  0  0  1  0  0  0  0  0  0  0  0
   -3.9307    5.3205    0.2975 C   0  0  0  1  0  0  0  0  0  0  0  0
   -1.3968    2.7090    1.3279 C   0  0  0  1  0  0  0  0  0  0  0  0
   -1.5523    7.3143    1.5275 H   0  0  0  1  0  0  0  0  0  0  0  0
   -0.4762    5.1756    1.8941 H   0  0  0  1  0  0  0  0  0  0  0  0
   -3.7969    3.2175    0.2300 H   0  0  0  1  0  0  0  0  0  0  0  0
   -4.8747    5.3600   -0.1371 H   0  0  0  1  0  0  0  0  0  0  0  0
   -0.8176    2.7834    2.2245 H   0  0  0  1  0  0  0  0  0  0  0  0
   -2.1643    1.9750    1.4584 H   0  0  0  1  0  0  0  0  0  0  0  0
  1  4  1  0  0  0  0
  2  4  1  0  0  0  0
  2  5  2  0  0  0  0
  2  6  1  0  0  0  0
  3  4  1  0  0  0  0
  3  7  1  0  0  0  0
  3  8  1  0  0  0  0
  4 26  1  0  0  0  0
  6  9  1  0  0  0  0
  6 12  1  0  0  0  0
  8 10  1  0  0  0  0
  8 11  2  0  0  0  0
  9 13  1  0  0  0  0
  9 14  1  0  0  0  0
  9 15  1  0  0  0  0
 10 16  1  0  0  0  0
 10 17  1  0  0  0  0
 10 18  1  0  0  0  0
 19 20  1  0  0  0  0
 20 21  4  0  0  0  0
 20 25  4  0  0  0  0
 21 22  4  0  0  0  0
 21 27  1  0  0  0  0
 22 23  4  0  0  0  0
 22 28  1  0  0  0  0
 23 24  4  0  0  0  0
 23 26  1  0  0  0  0
 24 25  4  0  0  0  0
 24 29  1  0  0  0  0
 25 30  1  0  0  0  0
 26 31  1  0  0  0  0
 26 32  1  0  0  0  0
M  END
> <BCLConfClusterSize>
1

> <ConfClashScore>
0 

> <ConfOneFourInteractionScore>
-0.960608 

> <ConfScore>
0.0460293 

> <ConfScorePBest>
0.00427374 

> <ConfTolerance>
0.237816 

> <RosettaParamsInstructions>
M  ROOT 3
M  POLY_N_BB 3
M  POLY_CA_BB 4
M  POLY_C_BB 2
M  POLY_O_BB 5
M  POLY_IGNORE 9 10 11 12 13 14 15 16 17 18 
M  POLY_UPPER 6
M  POLY_LOWER 8
M  POLY_CHG 0
M  POLY_PROPERTIES ALPHA_AA L_AA PROTEIN AROMATIC POLYMER 
M  END

$$$$



 32 32  0  0  0  0  0  0  0  0999 V2000
   -1.5642    0.9115    2.4003 H   0  0  0  1  0  0  0  0  0  0  0  0
   -2.5336    2.3835    3.5439 C   0  0  0  1  0  0  0  0  0  0  0  0
   -3.3542    1.3149    1.4716 N   0  0  0  1  0  0  0  0  0  0  0  0
   -2.1819    1.7633    2.2057 C   0  0  0  1  0  0  0  0  0  0  0  0
   -1.7923    2.2741    4.5068 O   0  0  0  1  0  0  0  0  0  0  0  0
   -3.6985    3.0490    3.5901 N   0  0  0  1  0  0  0  0  0  0  0  0
   -3.4741    1.5764    0.5348 H   0  0  0  1  0  0  0  0  0  0  0  0
   -4.2683    0.5470    2.0715 C   0  0  0  1  0  0  0  0  0  0  0  0
   -4.1252    3.7883    4.7688 C   0  0  0  1  0  0  0  0  0  0  0  0
   -5.4198    0.0890    1.1978 C   0  0  0  1  0  0  0  0  0  0  0  0
   -4.1970    0.2221    3.2560 O   0  0  0  1  0  0  0  0  0  0  0  0
   -4.2818    3.0367    2.8027 H   0  0  0  1  0  0  0  0  0  0  0  0
   -3.3014    4.3517    5.1547 H   0  0  0  1  0  0  0  0  0  0  0  0
   -4.4685    3.1023    5.5148 H   0  0  0  1  0  0  0  0  0  0  0  0
   -4.9194    4.4544    4.5035 H   0  0  0  1  0  0  0  0  0  0  0  0
   -5.2172   -0.8937    0.8261 H   0  0  0  1  0  0  0  0  0  0  0  0
   -5.5341    0.7644    0.3759 H   0  0  0  1  0  0  0  0  0  0  0  0
   -6.3207    0.0730    1.7750 H   0  0  0  1  0  0  0  0  0  0  0  0
   -3.8810    7.6803    0.4549 F   0  0  0  1  0  0  0  0  0  0  0  0
   -3.2894    6.4885    0.6638 C   0  0  0  1  0  0  0  0  0  0  0  0
   -2.0335    6.4309    1.2477 C   0  0  0  1  0  0  0  0  0  0  0  0
   -1.4240    5.2083    1.4572 C   0  0  0  1  0  0  0  0  0  0  0  0
   -2.0710    4.0392    1.0883 C   0  0  0  1  0  0  0  0  0  0  0  0
   -3.3233    4.0964    0.5060 C   0  0  0  1  0  0  0  0  0  0  0  0
   -3.9344    5.3227    0.2959 C   0  0  0  1  0  0  0  0  0  0  0  0
   -1.3626    2.7301    1.3451 C   0  0  0  1  0  0  0  0  0  0  0  0
   -1.5498    7.3078    1.5282 H   0  0  0  1  0  0  0  0  0  0  0  0
   -0.4801    5.1654    1.8917 H   0  0  0  1  0  0  0  0  0  0  0  0
   -3.8069    3.2194    0.2255 H   0  0  0  1  0  0  0  0  0  0  0  0
   -4.8783    5.3657   -0.1385 H   0  0  0  1  0  0  0  0  0  0  0  0
   -1.1611    2.2617    0.4044 H   0  0  0  1  0  0  0  0  0  0  0  0
   -0.4401    2.9349    1.8470 H   0  0  0  1  0  0  0  0  0  0  0  0
  1  4  1  0  0  0  0
  2  4  1  0  0  0  0
  2  5  2  0  0  0  0
  2  6  1  0  0  0  0
  3  4  1  0  0  0  0
  3  7  1  0  0  0  0
  3  8  1  0  0  0  0
  4 26  1  0  0  0  0
  6  9  1  0  0  0  0
  6 12  1  0  0  0  0
  8 10  1  0  0  0  0
  8 11  2  0  0  0  0
  9 13  1  0  0  0  0
  9 14  1  0  0  0  0
  9 15  1  0  0  0  0
 10 16  1  0  0  0  0
 10 17  1  0  0  0  0
 10 18  1  0  0  0  0
 19 20  1  0  0  0  0
 20 21  4  0  0  0  0
 20 25  4  0  0  0  0
 21 22  4  0  0  0  0
 21 27  1  0  0  0  0
 22 23  4  0  0  0  0
 22 28  1  0  0  0  0
 23 24  4  0  0  0  0
 23 26  1  0  0  0  0
 24 25  4  0  0  0  0
 24 29  1  0  0  0  0
 25 30  1  0  0  0  0
 26 31  1  0  0  0  0
 26 32  1  0  0  0  0
M  END
> <BCLConfClusterSize>
1

> <ConfClashScore>
0 

> <ConfOneFourInteractionScore>
-0.957074 

> <ConfScore>
0.0470085 

> <ConfScorePBest>
0.00424526 

> <ConfTolerance>
0.466916 

> <RosettaParamsInstructions>
M  ROOT 3
M  POLY_N_BB 3
M  POLY_CA_BB 4
M  POLY_C_BB 2
M  POLY_O_BB 5
M  POLY_IGNORE 9 10 11 12 13 14 15 16 17 18 
M  POLY_UPPER 6
M  POLY_LOWER 8
M  POLY_CHG 0
M  POLY_PROPERTIES ALPHA_AA L_AA PROTEIN AROMATIC POLYMER 
M  END

$$$$



 32 32  0  0  0  0  0  0  0  0999 V2000
   -1.0332    1.2741    2.8482 H   0  0  0  1  0  0  0  0  0  0  0  0
   -0.9153    3.1716    3.7648 C   0  0  0  1  0  0  0  0  0  0  0  0
   -2.9541    2.0103    3.0514 N   0  0  0  1  0  0  0  0  0  0  0  0
   -1.5407    2.2129    2.7703 C   0  0  0  1  0  0  0  0  0  0  0  0
   -1.5818    4.0659    4.2840 O   0  0  0  1  0  0  0  0  0  0  0  0
    0.3786    3.0156    4.0592 N   0  0  0  1  0  0  0  0  0  0  0  0
   -3.6022    2.1276    2.3257 H   0  0  0  1  0  0  0  0  0  0  0  0
   -3.4010    1.6684    4.2702 C   0  0  0  1  0  0  0  0  0  0  0  0
    1.0267    3.7562    5.1312 C   0  0  0  1  0  0  0  0  0  0  0  0
   -4.8903    1.4328    4.3815 C   0  0  0  1  0  0  0  0  0  0  0  0
   -2.6612    1.5496    5.2460 O   0  0  0  1  0  0  0  0  0  0  0  0
    0.9096    2.3802    3.5350 H   0  0  0  1  0  0  0  0  0  0  0  0
    0.8938    4.8058    4.9712 H   0  0  0  1  0  0  0  0  0  0  0  0
    2.0718    3.5268    5.1417 H   0  0  0  1  0  0  0  0  0  0  0  0
    0.5911    3.4806    6.0688 H   0  0  0  1  0  0  0  0  0  0  0  0
   -5.4106    2.3539    4.2210 H   0  0  0  1  0  0  0  0  0  0  0  0
   -5.1201    1.0589    5.3573 H   0  0  0  1  0  0  0  0  0  0  0  0
   -5.1942    0.7188    3.6447 H   0  0  0  1  0  0  0  0  0  0  0  0
   -3.8843    7.6784    0.4533 F   0  0  0  1  0  0  0  0  0  0  0  0
   -3.2892    6.4887    0.6639 C   0  0  0  1  0  0  0  0  0  0  0  0
   -2.0333    6.4356    1.2481 C   0  0  0  1  0  0  0  0  0  0  0  0
   -1.4202    5.2151    1.4594 C   0  0  0  1  0  0  0  0  0  0  0  0
   -2.0637    4.0436    1.0920 C   0  0  0  1  0  0  0  0  0  0  0  0
   -3.3160    4.0963    0.5094 C   0  0  0  1  0  0  0  0  0  0  0  0
   -3.9307    5.3205    0.2975 C   0  0  0  1  0  0  0  0  0  0  0  0
   -1.3968    2.7090    1.3279 C   0  0  0  1  0  0  0  0  0  0  0  0
   -1.5523    7.3143    1.5275 H   0  0  0  1  0  0  0  0  0  0  0  0
   -0.4762    5.1756    1.8941 H   0  0  0  1  0  0  0  0  0  0  0  0
   -3.7969    3.2175    0.2300 H   0  0  0  1  0  0  0  0  0  0  0  0
   -4.8747    5.3600   -0.1371 H   0  0  0  1  0  0  0  0  0  0  0  0
   -1.8390    1.9870    0.6737 H   0  0  0  1  0  0  0  0  0  0  0  0
   -0.3551    2.8043    1.1028 H   0  0  0  1  0  0  0  0  0  0  0  0
  1  4  1  0  0  0  0
  2  4  1  0  0  0  0
  2  5  2  0  0  0  0
  2  6  1  0  0  0  0
  3  4  1  0  0  0  0
  3  7  1  0  0  0  0
  3  8  1  0  0  0  0
  4 26  1  0  0  0  0
  6  9  1  0  0  0  0
  6 12  1  0  0  0  0
  8 10  1  0  0  0  0
  8 11  2  0  0  0  0
  9 13  1  0  0  0  0
  9 14  1  0  0  0  0
  9 15  1  0  0  0  0
 10 16  1  0  0  0  0
 10 17  1  0  0  0  0
 10 18  1  0  0  0  0
 19 20  1  0  0  0  0
 20 21  4  0  0  0  0
 20 25  4  0  0  0  0
 21 22  4  0  0  0  0
 21 27  1  0  0  0  0
 22 23  4  0  0  0  0
 22 28  1  0  0  0  0
 23 24  4  0  0  0  0
 23 26  1  0  0  0  0
 24 25  4  0  0  0  0
 24 29  1  0  0  0  0
 25 30  1  0  0  0  0
 26 31  1  0  0  0  0
 26 32  1  0  0  0  0
M  END
> <BCLConfClusterSize>
1

> <ConfClashScore>
0 

> <ConfOneFourInteractionScore>
-0.976093 

> <ConfScore>
0.0494481 

> <ConfScorePBest>
0.00421678 

> <ConfTolerance>
0.260314 

> <RosettaParamsInstructions>
M  ROOT 3
M  POLY_N_BB 3
M  POLY_CA_BB 4
M  POLY_C_BB 2
M  POLY_O_BB 5
M  POLY_IGNORE 9 10 11 12 13 14 15 16 17 18 
M  POLY_UPPER 6
M  POLY_LOWER 8
M  POLY_CHG 0
M  POLY_PROPERTIES ALPHA_AA L_AA PROTEIN AROMATIC POLYMER 
M  END

$$$$



 32 32  0  0  0  0  0  0  0  0999 V2000
   -2.0669    2.8069    3.3391 H   0  0  0  1  0  0  0  0  0  0  0  0
   -1.3030    0.8606    3.0225 C   0  0  0  1  0  0  0  0  0  0  0  0
    0.0013    2.9012    3.3440 N   0  0  0  1  0  0  0  0  0  0  0  0
   -1.2468    2.3658    2.8120 C   0  0  0  1  0  0  0  0  0  0  0  0
   -2.3741    0.2763    3.1629 O   0  0  0  1  0  0  0  0  0  0  0  0
   -0.1237    0.2330    3.0429 N   0  0  0  1  0  0  0  0  0  0  0  0
    0.5150    3.5076    2.7707 H   0  0  0  1  0  0  0  0  0  0  0  0
    0.4970    2.6271    4.5540 C   0  0  0  1  0  0  0  0  0  0  0  0
    0.0753   -1.1538    3.4367 C   0  0  0  1  0  0  0  0  0  0  0  0
    1.8404    3.2538    4.8730 C   0  0  0  1  0  0  0  0  0  0  0  0
   -0.0849    1.9140    5.3705 O   0  0  0  1  0  0  0  0  0  0  0  0
    0.6668    0.7451    2.7724 H   0  0  0  1  0  0  0  0  0  0  0  0
   -0.5731   -1.3894    4.2546 H   0  0  0  1  0  0  0  0  0  0  0  0
    1.0926   -1.2969    3.7357 H   0  0  0  1  0  0  0  0  0  0  0  0
   -0.1474   -1.7947    2.6093 H   0  0  0  1  0  0  0  0  0  0  0  0
    1.7585    4.3195    4.8220 H   0  0  0  1  0  0  0  0  0  0  0  0
    2.5678    2.9179    4.1639 H   0  0  0  1  0  0  0  0  0  0  0  0
    2.1428    2.9664    5.8583 H   0  0  0  1  0  0  0  0  0  0  0  0
   -3.9116    7.6616    0.4395 F   0  0  0  1  0  0  0  0  0  0  0  0
   -3.2836    6.4921    0.6667 C   0  0  0  1  0  0  0  0  0  0  0  0
   -2.0277    6.4356    1.2507 C   0  0  0  1  0  0  0  0  0  0  0  0
   -1.4173    5.2135    1.4607 C   0  0  0  1  0  0  0  0  0  0  0  0
   -2.0634    4.0439    1.0921 C   0  0  0  1  0  0  0  0  0  0  0  0
   -3.3156    4.0999    0.5098 C   0  0  0  1  0  0  0  0  0  0  0  0
   -3.9277    5.3257    0.2993 C   0  0  0  1  0  0  0  0  0  0  0  0
   -1.3994    2.7076    1.3266 C   0  0  0  1  0  0  0  0  0  0  0  0
   -1.5447    7.3130    1.5309 H   0  0  0  1  0  0  0  0  0  0  0  0
   -0.4733    5.1715    1.8952 H   0  0  0  1  0  0  0  0  0  0  0  0
   -3.7986    3.2225    0.2296 H   0  0  0  1  0  0  0  0  0  0  0  0
   -4.8716    5.3677   -0.1352 H   0  0  0  1  0  0  0  0  0  0  0  0
   -1.9909    1.9471    0.8612 H   0  0  0  1  0  0  0  0  0  0  0  0
   -0.4273    2.7273    0.8800 H   0  0  0  1  0  0  0  0  0  0  0  0
  1  4  1  0  0  0  0
  2  4  1  0  0  0  0
  2  5  2  0  0  0  0
  2  6  1  0  0  0  0
  3  4  1  0  0  0  0
  3  7  1  0  0  0  0
  3  8  1  0  0  0  0
  4 26  1  0  0  0  0
  6  9  1  0  0  0  0
  6 12  1  0  0  0  0
  8 10  1  0  0  0  0
  8 11  2  0  0  0  0
  9 13  1  0  0  0  0
  9 14  1  0  0  0  0
  9 15  1  0  0  0  0
 10 16  1  0  0  0  0
 10 17  1  0  0  0  0
 10 18  1  0  0  0  0
 19 20  1  0  0  0  0
 20 21  4  0  0  0  0
 20 25  4  0  0  0  0
 21 22  4  0  0  0  0
 21 27  1  0  0  0  0
 22 23  4  0  0  0  0
 22 28  1  0  0  0  0
 23 24  4  0  0  0  0
 23 26  1  0  0  0  0
 24 25  4  0  0  0  0
 24 29  1  0  0  0  0
 25 30  1  0  0  0  0
 26 31  1  0  0  0  0
 26 32  1  0  0  0  0
M  END
> <BCLConfClusterSize>
1

> <ConfClashScore>
0 

> <ConfOneFourInteractionScore>
-0.940901 

> <ConfScore>
0.0495022 

> <ConfScorePBest>
0.0041883 

> <ConfTolerance>
0.623762 

> <RosettaParamsInstructions>
M  ROOT 3
M  POLY_N_BB 3
M  POLY_CA_BB 4
M  POLY_C_BB 2
M  POLY_O_BB 5
M  POLY_IGNORE 9 10 11 12 13 14 15 16 17 18 
M  POLY_UPPER 6
M  POLY_LOWER 8
M  POLY_CHG 0
M  POLY_PROPERTIES ALPHA_AA L_AA PROTEIN AROMATIC POLYMER 
M  END

$$$$



 32 32  0  0  0  0  0  0  0  0999 V2000
   -2.9345    1.7368    2.4002 H   0  0  0  1  0  0  0  0  0  0  0  0
   -1.1672    0.6123    2.6621 C   0  0  0  1  0  0  0  0  0  0  0  0
   -1.7212    2.7172    3.7574 N   0  0  0  1  0  0  0  0  0  0  0  0
   -1.8929    1.9381    2.5402 C   0  0  0  1  0  0  0  0  0  0  0  0
   -1.5675   -0.3897    2.0754 O   0  0  0  1  0  0  0  0  0  0  0  0
   -0.0757    0.6147    3.4435 N   0  0  0  1  0  0  0  0  0  0  0  0
   -0.8049    2.9089    4.0471 H   0  0  0  1  0  0  0  0  0  0  0  0
   -2.7286    3.1954    4.5169 C   0  0  0  1  0  0  0  0  0  0  0  0
    0.7265   -0.5917    3.5819 C   0  0  0  1  0  0  0  0  0  0  0  0
   -2.3750    4.0912    5.6881 C   0  0  0  1  0  0  0  0  0  0  0  0
   -3.9004    2.9145    4.2686 O   0  0  0  1  0  0  0  0  0  0  0  0
    0.1815    1.4304    3.9219 H   0  0  0  1  0  0  0  0  0  0  0  0
    0.1230   -1.4486    3.3664 H   0  0  0  1  0  0  0  0  0  0  0  0
    1.0977   -0.6599    4.5832 H   0  0  0  1  0  0  0  0  0  0  0  0
    1.5485   -0.5535    2.8980 H   0  0  0  1  0  0  0  0  0  0  0  0
   -1.7817    4.9123    5.3434 H   0  0  0  1  0  0  0  0  0  0  0  0
   -1.8211    3.5301    6.4114 H   0  0  0  1  0  0  0  0  0  0  0  0
   -3.2727    4.4635    6.1358 H   0  0  0  1  0  0  0  0  0  0  0  0
   -3.8843    7.6784    0.4533 F   0  0  0  1  0  0  0  0  0  0  0  0
   -3.2892    6.4887    0.6639 C   0  0  0  1  0  0  0  0  0  0  0  0
   -2.0333    6.4356    1.2481 C   0  0  0  1  0  0  0  0  0  0  0  0
   -1.4202    5.2151    1.4594 C   0  0  0  1  0  0  0  0  0  0  0  0
   -2.0637    4.0436    1.0920 C   0  0  0  1  0  0  0  0  0  0  0  0
   -3.3160    4.0963    0.5094 C   0  0  0  1  0  0  0  0  0  0  0  0
   -3.9307    5.3205    0.2975 C   0  0  0  1  0  0  0  0  0  0  0  0
   -1.3968    2.7090    1.3279 C   0  0  0  1  0  0  0  0  0  0  0  0
   -1.5523    7.3143    1.5275 H   0  0  0  1  0  0  0  0  0  0  0  0
   -0.4762    5.1756    1.8941 H   0  0  0  1  0  0  0  0  0  0  0  0
   -3.7969    3.2175    0.2300 H   0  0  0  1  0  0  0  0  0  0  0  0
   -4.8747    5.3600   -0.1371 H   0  0  0  1  0  0  0  0  0  0  0  0
   -1.5581    2.1017    0.4619 H   0  0  0  1  0  0  0  0  0  0  0  0
   -0.3482    2.8815    1.4529 H   0  0  0  1  0  0  0  0  0  0  0  0
  1  4  1  0  0  0  0
  2  4  1  0  0  0  0
  2  5  2  0  0  0  0
  2  6  1  0  0  0  0
  3  4  1  0  0  0  0
  3  7  1  0  0  0  0
  3  8  1  0  0  0  0
  4 26  1  0  0  0  0
  6  9  1  0  0  0  0
  6 12  1  0  0  0  0
  8 10  1  0  0  0  0
  8 11  2  0  0  0  0
  9 13  1  0  0  0  0
  9 14  1  0  0  0  0
  9 15  1  0  0  0  0
 10 16  1  0  0  0  0
 10 17  1  0  0  0  0
 10 18  1  0  0  0  0
 19 20  1  0  0  0  0
 20 21  4  0  0  0  0
 20 25  4  0  0  0  0
 21 22  4  0  0  0  0
 21 27  1  0  0  0  0
 22 23  4  0  0  0  0
 22 28  1  0  0  0  0
 23 24  4  0  0  0  0
 23 26  1  0  0  0  0
 24 25  4  0  0  0  0
 24 29  1  0  0  0  0
 25 30  1  0  0  0  0
 26 31  1  0  0  0  0
 26 32  1  0  0  0  0
M  END
> <BCLConfClusterSize>
1

> <ConfClashScore>
0 

> <ConfOneFourInteractionScore>
-0.965014 

> <ConfScore>
0.0514847 

> <ConfScorePBest>
0.00415982 

> <ConfTolerance>
0.240006 

> <RosettaParamsInstructions>
M  ROOT 3
M  POLY_N_BB 3
M  POLY_CA_BB 4
M  POLY_C_BB 2
M  POLY_O_BB 5
M  POLY_IGNORE 9 10 11 12 13 14 15 16 17 18 
M  POLY_UPPER 6
M  POLY_LOWER 8
M  POLY_CHG 0
M  POLY_PROPERTIES ALPHA_AA L_AA PROTEIN AROMATIC POLYMER 
M  END

$$$$



 32 32  0  0  0  0  0  0  0  0999 V2000
   -3.0874    1.5573    1.8073 H   0  0  0  1  0  0  0  0  0  0  0  0
   -1.4009    0.3588    2.2225 C   0  0  0  1  0  0  0  0  0  0  0  0
   -2.2707    2.2625    3.5592 N   0  0  0  1  0  0  0  0  0  0  0  0
   -2.1130    1.7118    2.2214 C   0  0  0  1  0  0  0  0  0  0  0  0
   -1.0371   -0.1465    1.1733 O   0  0  0  1  0  0  0  0  0  0  0  0
   -1.2846   -0.2670    3.3972 N   0  0  0  1  0  0  0  0  0  0  0  0
   -1.4848    2.6634    3.9859 H   0  0  0  1  0  0  0  0  0  0  0  0
   -3.4163    2.2564    4.2413 C   0  0  0  1  0  0  0  0  0  0  0  0
   -0.7777   -1.6268    3.5068 C   0  0  0  1  0  0  0  0  0  0  0  0
   -3.3716    2.9077    5.6099 C   0  0  0  1  0  0  0  0  0  0  0  0
   -4.4534    1.7590    3.8045 O   0  0  0  1  0  0  0  0  0  0  0  0
   -1.5498    0.2061    4.2134 H   0  0  0  1  0  0  0  0  0  0  0  0
   -1.5880   -2.3189    3.4103 H   0  0  0  1  0  0  0  0  0  0  0  0
   -0.3095   -1.7569    4.4600 H   0  0  0  1  0  0  0  0  0  0  0  0
   -0.0630   -1.8044    2.7305 H   0  0  0  1  0  0  0  0  0  0  0  0
   -3.1692    3.9528    5.5016 H   0  0  0  1  0  0  0  0  0  0  0  0
   -2.5996    2.4540    6.1955 H   0  0  0  1  0  0  0  0  0  0  0  0
   -4.3145    2.7760    6.0982 H   0  0  0  1  0  0  0  0  0  0  0  0
   -3.8565    7.6941    0.4672 F   0  0  0  1  0  0  0  0  0  0  0  0
   -3.2949    6.4853    0.6610 C   0  0  0  1  0  0  0  0  0  0  0  0
   -2.0390    6.4357    1.2455 C   0  0  0  1  0  0  0  0  0  0  0  0
   -1.4232    5.2167    1.4581 C   0  0  0  1  0  0  0  0  0  0  0  0
   -2.0640    4.0435    1.0918 C   0  0  0  1  0  0  0  0  0  0  0  0
   -3.3163    4.0927    0.5090 C   0  0  0  1  0  0  0  0  0  0  0  0
   -3.9338    5.3154    0.2958 C   0  0  0  1  0  0  0  0  0  0  0  0
   -1.3943    2.7106    1.3292 C   0  0  0  1  0  0  0  0  0  0  0  0
   -1.5599    7.3158    1.5240 H   0  0  0  1  0  0  0  0  0  0  0  0
   -0.4792    5.1798    1.8930 H   0  0  0  1  0  0  0  0  0  0  0  0
   -3.7954    3.2126    0.2305 H   0  0  0  1  0  0  0  0  0  0  0  0
   -4.8778    5.3524   -0.1391 H   0  0  0  1  0  0  0  0  0  0  0  0
   -1.2572    2.2467    0.3748 H   0  0  0  1  0  0  0  0  0  0  0  0
   -0.4398    2.9062    1.7716 H   0  0  0  1  0  0  0  0  0  0  0  0
  1  4  1  0  0  0  0
  2  4  1  0  0  0  0
  2  5  2  0  0  0  0
  2  6  1  0  0  0  0
  3  4  1  0  0  0  0
  3  7  1  0  0  0  0
  3  8  1  0  0  0  0
  4 26  1  0  0  0  0
  6  9  1  0  0  0  0
  6 12  1  0  0  0  0
  8 10  1  0  0  0  0
  8 11  2  0  0  0  0
  9 13  1  0  0  0  0
  9 14  1  0  0  0  0
  9 15  1  0  0  0  0
 10 16  1  0  0  0  0
 10 17  1  0  0  0  0
 10 18  1  0  0  0  0
 19 20  1  0  0  0  0
 20 21  4  0  0  0  0
 20 25  4  0  0  0  0
 21 22  4  0  0  0  0
 21 27  1  0  0  0  0
 22 23  4  0  0  0  0
 22 28  1  0  0  0  0
 23 24  4  0  0  0  0
 23 26  1  0  0  0  0
 24 25  4  0  0  0  0
 24 29  1  0  0  0  0
 25 30  1  0  0  0  0
 26 31  1  0  0  0  0
 26 32  1  0  0  0  0
M  END
> <BCLConfClusterSize>
1

> <ConfClashScore>
0 

> <ConfOneFourInteractionScore>
-0.960318 

> <ConfScore>
0.0533284 

> <ConfScorePBest>
0.00413134 

> <ConfTolerance>
0.353274 

> <RosettaParamsInstructions>
M  ROOT 3
M  POLY_N_BB 3
M  POLY_CA_BB 4
M  POLY_C_BB 2
M  POLY_O_BB 5
M  POLY_IGNORE 9 10 11 12 13 14 15 16 17 18 
M  POLY_UPPER 6
M  POLY_LOWER 8
M  POLY_CHG 0
M  POLY_PROPERTIES ALPHA_AA L_AA PROTEIN AROMATIC POLYMER 
M  END

$$$$



 32 32  0  0  0  0  0  0  0  0999 V2000
    0.3153    2.8560    0.0311 H   0  0  0  1  0  0  0  0  0  0  0  0
   -0.0502    0.8015    0.3745 C   0  0  0  1  0  0  0  0  0  0  0  0
   -1.2910    2.2682   -1.1310 N   0  0  0  1  0  0  0  0  0  0  0  0
   -0.5397    2.2182    0.1144 C   0  0  0  1  0  0  0  0  0  0  0  0
   -0.8367   -0.1440    0.3945 O   0  0  0  1  0  0  0  0  0  0  0  0
    1.2632    0.6155    0.5808 N   0  0  0  1  0  0  0  0  0  0  0  0
   -2.2182    2.5850   -1.1117 H   0  0  0  1  0  0  0  0  0  0  0  0
   -0.7606    1.8973   -2.2998 C   0  0  0  1  0  0  0  0  0  0  0  0
    1.8462   -0.7091    0.7341 C   0  0  0  1  0  0  0  0  0  0  0  0
   -1.6989    1.9341   -3.4903 C   0  0  0  1  0  0  0  0  0  0  0  0
    0.4120    1.5453   -2.4217 O   0  0  0  1  0  0  0  0  0  0  0  0
    1.8498    1.3990    0.6300 H   0  0  0  1  0  0  0  0  0  0  0  0
    2.7286   -0.6435    1.3356 H   0  0  0  1  0  0  0  0  0  0  0  0
    2.0995   -1.1006   -0.2290 H   0  0  0  1  0  0  0  0  0  0  0  0
    1.1389   -1.3570    1.2083 H   0  0  0  1  0  0  0  0  0  0  0  0
   -2.4799    1.2159   -3.3518 H   0  0  0  1  0  0  0  0  0  0  0  0
   -1.1539    1.7007   -4.3810 H   0  0  0  1  0  0  0  0  0  0  0  0
   -2.1251    2.9116   -3.5781 H   0  0  0  1  0  0  0  0  0  0  0  0
   -3.8763    7.6788    0.4350 F   0  0  0  1  0  0  0  0  0  0  0  0
   -3.2865    6.4888    0.6583 C   0  0  0  1  0  0  0  0  0  0  0  0
   -2.0335    6.4362    1.2490 C   0  0  0  1  0  0  0  0  0  0  0  0
   -1.4258    5.2154    1.4734 C   0  0  0  1  0  0  0  0  0  0  0  0
   -2.0717    4.0431    1.1127 C   0  0  0  1  0  0  0  0  0  0  0  0
   -3.3210    4.0953    0.5237 C   0  0  0  1  0  0  0  0  0  0  0  0
   -3.9304    5.3199    0.2987 C   0  0  0  1  0  0  0  0  0  0  0  0
   -1.3785    2.7104    1.2703 C   0  0  0  1  0  0  0  0  0  0  0  0
   -1.5507    7.3155    1.5233 H   0  0  0  1  0  0  0  0  0  0  0  0
   -0.4841    5.1762    1.9129 H   0  0  0  1  0  0  0  0  0  0  0  0
   -3.8038    3.2159    0.2494 H   0  0  0  1  0  0  0  0  0  0  0  0
   -4.8721    5.3591   -0.1408 H   0  0  0  1  0  0  0  0  0  0  0  0
   -0.7370    2.7822    2.1237 H   0  0  0  1  0  0  0  0  0  0  0  0
   -2.1348    1.9758    1.4528 H   0  0  0  1  0  0  0  0  0  0  0  0
  1  4  1  0  0  0  0
  2  4  1  0  0  0  0
  2  5  2  0  0  0  0
  2  6  1  0  0  0  0
  3  4  1  0  0  0  0
  3  7  1  0  0  0  0
  3  8  1  0  0  0  0
  4 26  1  0  0  0  0
  6  9  1  0  0  0  0
  6 12  1  0  0  0  0
  8 10  1  0  0  0  0
  8 11  2  0  0  0  0
  9 13  1  0  0  0  0
  9 14  1  0  0  0  0
  9 15  1  0  0  0  0
 10 16  1  0  0  0  0
 10 17  1  0  0  0  0
 10 18  1  0  0  0  0
 19 20  1  0  0  0  0
 20 21  4  0  0  0  0
 20 25  4  0  0  0  0
 21 22  4  0  0  0  0
 21 27  1  0  0  0  0
 22 23  4  0  0  0  0
 22 28  1  0  0  0  0
 23 24  4  0  0  0  0
 23 26  1  0  0  0  0
 24 25  4  0  0  0  0
 24 29  1  0  0  0  0
 25 30  1  0  0  0  0
 26 31  1  0  0  0  0
 26 32  1  0  0  0  0
M  END
> <BCLConfClusterSize>
1

> <ConfClashScore>
0 

> <ConfOneFourInteractionScore>
-0.985807 

> <ConfScore>
0.0590821 

> <ConfScorePBest>
0.00410286 

> <ConfTolerance>
0.46783 

> <RosettaParamsInstructions>
M  ROOT 3
M  POLY_N_BB 3
M  POLY_CA_BB 4
M  POLY_C_BB 2
M  POLY_O_BB 5
M  POLY_IGNORE 9 10 11 12 13 14 15 16 17 18 
M  POLY_UPPER 6
M  POLY_LOWER 8
M  POLY_CHG 0
M  POLY_PROPERTIES ALPHA_AA L_AA PROTEIN AROMATIC POLYMER 
M  END

$$$$



 32 32  0  0  0  0  0  0  0  0999 V2000
   -1.7293    1.8411   -0.5262 H   0  0  0  1  0  0  0  0  0  0  0  0
    0.1547    2.7421   -0.7233 C   0  0  0  1  0  0  0  0  0  0  0  0
   -0.3562    0.6631    0.4774 N   0  0  0  1  0  0  0  0  0  0  0  0
   -0.8749    1.9927    0.0999 C   0  0  0  1  0  0  0  0  0  0  0  0
    1.1723    3.1832   -0.2151 O   0  0  0  1  0  0  0  0  0  0  0  0
   -0.1295    2.8810   -2.0213 N   0  0  0  1  0  0  0  0  0  0  0  0
   -0.4719    0.3549    1.4004 H   0  0  0  1  0  0  0  0  0  0  0  0
    0.2656   -0.1346   -0.3956 C   0  0  0  1  0  0  0  0  0  0  0  0
    0.7964    3.4167   -3.0080 C   0  0  0  1  0  0  0  0  0  0  0  0
    0.8751   -1.3965    0.1834 C   0  0  0  1  0  0  0  0  0  0  0  0
    0.3484    0.1217   -1.5961 O   0  0  0  1  0  0  0  0  0  0  0  0
   -1.0181    2.6046   -2.3286 H   0  0  0  1  0  0  0  0  0  0  0  0
    1.4810    4.0854   -2.5294 H   0  0  0  1  0  0  0  0  0  0  0  0
    0.2491    3.9452   -3.7604 H   0  0  0  1  0  0  0  0  0  0  0  0
    1.3400    2.6134   -3.4598 H   0  0  0  1  0  0  0  0  0  0  0  0
    1.8981   -1.4712   -0.1210 H   0  0  0  1  0  0  0  0  0  0  0  0
    0.3344   -2.2489   -0.1716 H   0  0  0  1  0  0  0  0  0  0  0  0
    0.8229   -1.3599    1.2515 H   0  0  0  1  0  0  0  0  0  0  0  0
   -3.8531    7.6958    0.4688 F   0  0  0  1  0  0  0  0  0  0  0  0
   -3.2951    6.4852    0.6609 C   0  0  0  1  0  0  0  0  0  0  0  0
   -2.0392    6.4310    1.2451 C   0  0  0  1  0  0  0  0  0  0  0  0
   -1.4270    5.2099    1.4560 C   0  0  0  1  0  0  0  0  0  0  0  0
   -2.0714    4.0390    1.0881 C   0  0  0  1  0  0  0  0  0  0  0  0
   -3.3237    4.0928    0.5056 C   0  0  0  1  0  0  0  0  0  0  0  0
   -3.9375    5.3176    0.2942 C   0  0  0  1  0  0  0  0  0  0  0  0
   -1.3601    2.7318    1.3464 C   0  0  0  1  0  0  0  0  0  0  0  0
   -1.5575    7.3092    1.5248 H   0  0  0  1  0  0  0  0  0  0  0  0
   -0.4831    5.1696    1.8906 H   0  0  0  1  0  0  0  0  0  0  0  0
   -3.8053    3.2146    0.2260 H   0  0  0  1  0  0  0  0  0  0  0  0
   -4.8815    5.3580   -0.1404 H   0  0  0  1  0  0  0  0  0  0  0  0
   -0.5088    2.9352    1.9618 H   0  0  0  1  0  0  0  0  0  0  0  0
   -2.0342    2.0873    1.8708 H   0  0  0  1  0  0  0  0  0  0  0  0
  1  4  1  0  0  0  0
  2  4  1  0  0  0  0
  2  5  2  0  0  0  0
  2  6  1  0  0  0  0
  3  4  1  0  0  0  0
  3  7  1  0  0  0  0
  3  8  1  0  0  0  0
  4 26  1  0  0  0  0
  6  9  1  0  0  0  0
  6 12  1  0  0  0  0
  8 10  1  0  0  0  0
  8 11  2  0  0  0  0
  9 13  1  0  0  0  0
  9 14  1  0  0  0  0
  9 15  1  0  0  0  0
 10 16  1  0  0  0  0
 10 17  1  0  0  0  0
 10 18  1  0  0  0  0
 19 20  1  0  0  0  0
 20 21  4  0  0  0  0
 20 25  4  0  0  0  0
 21 22  4  0  0  0  0
 21 27  1  0  0  0  0
 22 23  4  0  0  0  0
 22 28  1  0  0  0  0
 23 24  4  0  0  0  0
 23 26  1  0  0  0  0
 24 25  4  0  0  0  0
 24 29  1  0  0  0  0
 25 30  1  0  0  0  0
 26 31  1  0  0  0  0
 26 32  1  0  0  0  0
M  END
> <BCLConfClusterSize>
1

> <ConfClashScore>
0 

> <ConfOneFourInteractionScore>
-0.971454 

> <ConfScore>
0.0628677 

> <ConfScorePBest>
0.00407438 

> <ConfTolerance>
0.467419 

> <RosettaParamsInstructions>
M  ROOT 3
M  POLY_N_BB 3
M  POLY_CA_BB 4
M  POLY_C_BB 2
M  POLY_O_BB 5
M  POLY_IGNORE 9 10 11 12 13 14 15 16 17 18 
M  POLY_UPPER 6
M  POLY_LOWER 8
M  POLY_CHG 0
M  POLY_PROPERTIES ALPHA_AA L_AA PROTEIN AROMATIC POLYMER 
M  END

$$$$



 32 32  0  0  0  0  0  0  0  0999 V2000
   -0.0952    2.9278   -0.3463 H   0  0  0  1  0  0  0  0  0  0  0  0
    0.1865    0.9812    0.4894 C   0  0  0  1  0  0  0  0  0  0  0  0
   -1.7274    1.7375   -0.8557 N   0  0  0  1  0  0  0  0  0  0  0  0
   -0.7027    2.1609    0.0869 C   0  0  0  1  0  0  0  0  0  0  0  0
    0.8111    0.9796    1.5374 O   0  0  0  1  0  0  0  0  0  0  0  0
    0.2002   -0.0181   -0.4122 N   0  0  0  1  0  0  0  0  0  0  0  0
   -2.4324    1.1208   -0.5672 H   0  0  0  1  0  0  0  0  0  0  0  0
   -1.7092    2.1877   -2.1134 C   0  0  0  1  0  0  0  0  0  0  0  0
    1.0511   -1.1799   -0.2023 C   0  0  0  1  0  0  0  0  0  0  0  0
   -2.8288    1.6908   -3.0072 C   0  0  0  1  0  0  0  0  0  0  0  0
   -0.8473    2.9565   -2.5373 O   0  0  0  1  0  0  0  0  0  0  0  0
   -0.3639    0.0369   -1.2117 H   0  0  0  1  0  0  0  0  0  0  0  0
    1.7426   -0.9779    0.5888 H   0  0  0  1  0  0  0  0  0  0  0  0
    1.5905   -1.3938   -1.1013 H   0  0  0  1  0  0  0  0  0  0  0  0
    0.4457   -2.0223    0.0600 H   0  0  0  1  0  0  0  0  0  0  0  0
   -3.7657    1.8050   -2.5031 H   0  0  0  1  0  0  0  0  0  0  0  0
   -2.6706    0.6575   -3.2356 H   0  0  0  1  0  0  0  0  0  0  0  0
   -2.8402    2.2593   -3.9136 H   0  0  0  1  0  0  0  0  0  0  0  0
   -3.8843    7.6784    0.4533 F   0  0  0  1  0  0  0  0  0  0  0  0
   -3.2892    6.4887    0.6639 C   0  0  0  1  0  0  0  0  0  0  0  0
   -2.0333    6.4356    1.2481 C   0  0  0  1  0  0  0  0  0  0  0  0
   -1.4202    5.2151    1.4594 C   0  0  0  1  0  0  0  0  0  0  0  0
   -2.0637    4.0436    1.0920 C   0  0  0  1  0  0  0  0  0  0  0  0
   -3.3160    4.0963    0.5094 C   0  0  0  1  0  0  0  0  0  0  0  0
   -3.9307    5.3205    0.2975 C   0  0  0  1  0  0  0  0  0  0  0  0
   -1.3968    2.7090    1.3279 C   0  0  0  1  0  0  0  0  0  0  0  0
   -1.5523    7.3143    1.5275 H   0  0  0  1  0  0  0  0  0  0  0  0
   -0.4762    5.1756    1.8941 H   0  0  0  1  0  0  0  0  0  0  0  0
   -3.7969    3.2175    0.2300 H   0  0  0  1  0  0  0  0  0  0  0  0
   -4.8747    5.3600   -0.1371 H   0  0  0  1  0  0  0  0  0  0  0  0
   -0.6680    2.8248    2.1027 H   0  0  0  1  0  0  0  0  0  0  0  0
   -2.1413    2.0067    1.6399 H   0  0  0  1  0  0  0  0  0  0  0  0
  1  4  1  0  0  0  0
  2  4  1  0  0  0  0
  2  5  2  0  0  0  0
  2  6  1  0  0  0  0
  3  4  1  0  0  0  0
  3  7  1  0  0  0  0
  3  8  1  0  0  0  0
  4 26  1  0  0  0  0
  6  9  1  0  0  0  0
  6 12  1  0  0  0  0
  8 10  1  0  0  0  0
  8 11  2  0  0  0  0
  9 13  1  0  0  0  0
  9 14  1  0  0  0  0
  9 15  1  0  0  0  0
 10 16  1  0  0  0  0
 10 17  1  0  0  0  0
 10 18  1  0  0  0  0
 19 20  1  0  0  0  0
 20 21  4  0  0  0  0
 20 25  4  0  0  0  0
 21 22  4  0  0  0  0
 21 27  1  0  0  0  0
 22 23  4  0  0  0  0
 22 28  1  0  0  0  0
 23 24  4  0  0  0  0
 23 26  1  0  0  0  0
 24 25  4  0  0  0  0
 24 29  1  0  0  0  0
 25 30  1  0  0  0  0
 26 31  1  0  0  0  0
 26 32  1  0  0  0  0
M  END
> <BCLConfClusterSize>
1

> <ConfClashScore>
0 

> <ConfOneFourInteractionScore>
-0.95228 

> <ConfScore>
0.0679518 

> <ConfScorePBest>
0.00404589 

> <ConfTolerance>
0.335437 

> <RosettaParamsInstructions>
M  ROOT 3
M  POLY_N_BB 3
M  POLY_CA_BB 4
M  POLY_C_BB 2
M  POLY_O_BB 5
M  POLY_IGNORE 9 10 11 12 13 14 15 16 17 18 
M  POLY_UPPER 6
M  POLY_LOWER 8
M  POLY_CHG 0
M  POLY_PROPERTIES ALPHA_AA L_AA PROTEIN AROMATIC POLYMER 
M  END

$$$$



 32 32  0  0  0  0  0  0  0  0999 V2000
   -0.2674    2.4041   -0.5178 H   0  0  0  1  0  0  0  0  0  0  0  0
    0.9782    3.6137    0.6860 C   0  0  0  1  0  0  0  0  0  0  0  0
    0.5204    1.1642    0.9577 N   0  0  0  1  0  0  0  0  0  0  0  0
   -0.0128    2.4715    0.5192 C   0  0  0  1  0  0  0  0  0  0  0  0
    1.5227    3.8338    1.7671 O   0  0  0  1  0  0  0  0  0  0  0  0
    1.2092    4.3460   -0.4073 N   0  0  0  1  0  0  0  0  0  0  0  0
    0.7181    1.0455    1.9102 H   0  0  0  1  0  0  0  0  0  0  0  0
    0.7493    0.1364    0.1398 C   0  0  0  1  0  0  0  0  0  0  0  0
    2.0420    5.5392   -0.3821 C   0  0  0  1  0  0  0  0  0  0  0  0
    1.2796   -1.1514    0.7394 C   0  0  0  1  0  0  0  0  0  0  0  0
    0.5558    0.1694   -1.0747 O   0  0  0  1  0  0  0  0  0  0  0  0
    0.8038    4.0700   -1.2558 H   0  0  0  1  0  0  0  0  0  0  0  0
    1.9002    6.0541    0.5451 H   0  0  0  1  0  0  0  0  0  0  0  0
    1.7681    6.1822   -1.1923 H   0  0  0  1  0  0  0  0  0  0  0  0
    3.0698    5.2587   -0.4805 H   0  0  0  1  0  0  0  0  0  0  0  0
    2.3447   -1.1792    0.6408 H   0  0  0  1  0  0  0  0  0  0  0  0
    0.8521   -1.9866    0.2251 H   0  0  0  1  0  0  0  0  0  0  0  0
    1.0164   -1.1971    1.7755 H   0  0  0  1  0  0  0  0  0  0  0  0
   -3.8843    7.6784    0.4533 F   0  0  0  1  0  0  0  0  0  0  0  0
   -3.2892    6.4887    0.6639 C   0  0  0  1  0  0  0  0  0  0  0  0
   -2.0333    6.4356    1.2481 C   0  0  0  1  0  0  0  0  0  0  0  0
   -1.4202    5.2151    1.4594 C   0  0  0  1  0  0  0  0  0  0  0  0
   -2.0637    4.0436    1.0920 C   0  0  0  1  0  0  0  0  0  0  0  0
   -3.3160    4.0963    0.5094 C   0  0  0  1  0  0  0  0  0  0  0  0
   -3.9307    5.3205    0.2975 C   0  0  0  1  0  0  0  0  0  0  0  0
   -1.3968    2.7090    1.3279 C   0  0  0  1  0  0  0  0  0  0  0  0
   -1.5523    7.3143    1.5275 H   0  0  0  1  0  0  0  0  0  0  0  0
   -0.4762    5.1756    1.8941 H   0  0  0  1  0  0  0  0  0  0  0  0
   -3.7969    3.2175    0.2300 H   0  0  0  1  0  0  0  0  0  0  0  0
   -4.8747    5.3600   -0.1371 H   0  0  0  1  0  0  0  0  0  0  0  0
   -1.1866    2.6254    2.3737 H   0  0  0  1  0  0  0  0  0  0  0  0
   -2.0837    1.9412    1.0392 H   0  0  0  1  0  0  0  0  0  0  0  0
  1  4  1  0  0  0  0
  2  4  1  0  0  0  0
  2  5  2  0  0  0  0
  2  6  1  0  0  0  0
  3  4  1  0  0  0  0
  3  7  1  0  0  0  0
  3  8  1  0  0  0  0
  4 26  1  0  0  0  0
  6  9  1  0  0  0  0
  6 12  1  0  0  0  0
  8 10  1  0  0  0  0
  8 11  2  0  0  0  0
  9 13  1  0  0  0  0
  9 14  1  0  0  0  0
  9 15  1  0  0  0  0
 10 16  1  0  0  0  0
 10 17  1  0  0  0  0
 10 18  1  0  0  0  0
 19 20  1  0  0  0  0
 20 21  4  0  0  0  0
 20 25  4  0  0  0  0
 21 22  4  0  0  0  0
 21 27  1  0  0  0  0
 22 23  4  0  0  0  0
 22 28  1  0  0  0  0
 23 24  4  0  0  0  0
 23 26  1  0  0  0  0
 24 25  4  0  0  0  0
 24 29  1  0  0  0  0
 25 30  1  0  0  0  0
 26 31  1  0  0  0  0
 26 32  1  0  0  0  0
M  END
> <BCLConfClusterSize>
1

> <ConfClashScore>
0 

> <ConfOneFourInteractionScore>
-0.981931 

> <ConfScore>
0.0700288 

> <ConfScorePBest>
0.00401741 

> <ConfTolerance>
0.376581 

> <RosettaParamsInstructions>
M  ROOT 3
M  POLY_N_BB 3
M  POLY_CA_BB 4
M  POLY_C_BB 2
M  POLY_O_BB 5
M  POLY_IGNORE 9 10 11 12 13 14 15 16 17 18 
M  POLY_UPPER 6
M  POLY_LOWER 8
M  POLY_CHG 0
M  POLY_PROPERTIES ALPHA_AA L_AA PROTEIN AROMATIC POLYMER 
M  END

$$$$



 32 32  0  0  0  0  0  0  0  0999 V2000
   -2.5868    2.0740    2.9664 H   0  0  0  1  0  0  0  0  0  0  0  0
   -0.8284    0.8833    2.9361 C   0  0  0  1  0  0  0  0  0  0  0  0
   -0.9773    3.1507    3.7176 N   0  0  0  1  0  0  0  0  0  0  0  0
   -1.5460    2.2132    2.7608 C   0  0  0  1  0  0  0  0  0  0  0  0
   -0.6755    0.1109    1.9908 O   0  0  0  1  0  0  0  0  0  0  0  0
   -0.3829    0.6199    4.1747 N   0  0  0  1  0  0  0  0  0  0  0  0
   -1.5997    3.6598    4.2778 H   0  0  0  1  0  0  0  0  0  0  0  0
    0.3306    3.3697    3.8902 C   0  0  0  1  0  0  0  0  0  0  0  0
    0.3305   -0.6061    4.4999 C   0  0  0  1  0  0  0  0  0  0  0  0
    0.6930    4.3975    4.9444 C   0  0  0  1  0  0  0  0  0  0  0  0
    1.1972    2.7853    3.2453 O   0  0  0  1  0  0  0  0  0  0  0  0
   -0.5436    1.2761    4.8847 H   0  0  0  1  0  0  0  0  0  0  0  0
   -0.2116   -1.4465    4.1192 H   0  0  0  1  0  0  0  0  0  0  0  0
    0.4233   -0.6934    5.5623 H   0  0  0  1  0  0  0  0  0  0  0  0
    1.3043   -0.5800    4.0572 H   0  0  0  1  0  0  0  0  0  0  0  0
   -0.1948    4.7252    5.4438 H   0  0  0  1  0  0  0  0  0  0  0  0
    1.1688    5.2344    4.4775 H   0  0  0  1  0  0  0  0  0  0  0  0
    1.3606    3.9582    5.6559 H   0  0  0  1  0  0  0  0  0  0  0  0
   -3.8565    7.6941    0.4672 F   0  0  0  1  0  0  0  0  0  0  0  0
   -3.2949    6.4853    0.6610 C   0  0  0  1  0  0  0  0  0  0  0  0
   -2.0390    6.4357    1.2455 C   0  0  0  1  0  0  0  0  0  0  0  0
   -1.4232    5.2167    1.4581 C   0  0  0  1  0  0  0  0  0  0  0  0
   -2.0640    4.0435    1.0918 C   0  0  0  1  0  0  0  0  0  0  0  0
   -3.3163    4.0927    0.5090 C   0  0  0  1  0  0  0  0  0  0  0  0
   -3.9338    5.3154    0.2958 C   0  0  0  1  0  0  0  0  0  0  0  0
   -1.3943    2.7106    1.3292 C   0  0  0  1  0  0  0  0  0  0  0  0
   -1.5599    7.3158    1.5240 H   0  0  0  1  0  0  0  0  0  0  0  0
   -0.4792    5.1798    1.8930 H   0  0  0  1  0  0  0  0  0  0  0  0
   -3.7954    3.2126    0.2305 H   0  0  0  1  0  0  0  0  0  0  0  0
   -4.8778    5.3524   -0.1391 H   0  0  0  1  0  0  0  0  0  0  0  0
   -1.8291    1.9887    0.6699 H   0  0  0  1  0  0  0  0  0  0  0  0
   -0.3513    2.8101    1.1120 H   0  0  0  1  0  0  0  0  0  0  0  0
  1  4  1  0  0  0  0
  2  4  1  0  0  0  0
  2  5  2  0  0  0  0
  2  6  1  0  0  0  0
  3  4  1  0  0  0  0
  3  7  1  0  0  0  0
  3  8  1  0  0  0  0
  4 26  1  0  0  0  0
  6  9  1  0  0  0  0
  6 12  1  0  0  0  0
  8 10  1  0  0  0  0
  8 11  2  0  0  0  0
  9 13  1  0  0  0  0
  9 14  1  0  0  0  0
  9 15  1  0  0  0  0
 10 16  1  0  0  0  0
 10 17  1  0  0  0  0
 10 18  1  0  0  0  0
 19 20  1  0  0  0  0
 20 21  4  0  0  0  0
 20 25  4  0  0  0  0
 21 22  4  0  0  0  0
 21 27  1  0  0  0  0
 22 23  4  0  0  0  0
 22 28  1  0  0  0  0
 23 24  4  0  0  0  0
 23 26  1  0  0  0  0
 24 25  4  0  0  0  0
 24 29  1  0  0  0  0
 25 30  1  0  0  0  0
 26 31  1  0  0  0  0
 26 32  1  0  0  0  0
M  END
> <BCLConfClusterSize>
1

> <ConfClashScore>
0 

> <ConfOneFourInteractionScore>
-0.938696 

> <ConfScore>
0.0719318 

> <ConfScorePBest>
0.00398893 

> <ConfTolerance>
0.246347 

> <RosettaParamsInstructions>
M  ROOT 3
M  POLY_N_BB 3
M  POLY_CA_BB 4
M  POLY_C_BB 2
M  POLY_O_BB 5
M  POLY_IGNORE 9 10 11 12 13 14 15 16 17 18 
M  POLY_UPPER 6
M  POLY_LOWER 8
M  POLY_CHG 0
M  POLY_PROPERTIES ALPHA_AA L_AA PROTEIN AROMATIC POLYMER 
M  END

$$$$



 32 32  0  0  0  0  0  0  0  0999 V2000
   -1.3602    3.2279    3.4061 H   0  0  0  1  0  0  0  0  0  0  0  0
   -2.6355    1.5640    3.1396 C   0  0  0  1  0  0  0  0  0  0  0  0
   -0.1464    1.5812    3.1208 N   0  0  0  1  0  0  0  0  0  0  0  0
   -1.3584    2.3301    2.8240 C   0  0  0  1  0  0  0  0  0  0  0  0
   -3.6836    2.1591    3.3867 O   0  0  0  1  0  0  0  0  0  0  0  0
   -2.5831    0.2226    3.1399 N   0  0  0  1  0  0  0  0  0  0  0  0
    0.4296    1.3004    2.3793 H   0  0  0  1  0  0  0  0  0  0  0  0
    0.2078    1.2637    4.3670 C   0  0  0  1  0  0  0  0  0  0  0  0
   -3.7351   -0.6004    3.4766 C   0  0  0  1  0  0  0  0  0  0  0  0
    1.4583    0.4166    4.5008 C   0  0  0  1  0  0  0  0  0  0  0  0
   -0.4270    1.6257    5.3567 O   0  0  0  1  0  0  0  0  0  0  0  0
   -1.7396   -0.2178    2.9052 H   0  0  0  1  0  0  0  0  0  0  0  0
   -4.0903   -0.3361    4.4508 H   0  0  0  1  0  0  0  0  0  0  0  0
   -3.4508   -1.6319    3.4686 H   0  0  0  1  0  0  0  0  0  0  0  0
   -4.5112   -0.4382    2.7581 H   0  0  0  1  0  0  0  0  0  0  0  0
    1.9108    0.2933    3.5391 H   0  0  0  1  0  0  0  0  0  0  0  0
    1.1984   -0.5424    4.8980 H   0  0  0  1  0  0  0  0  0  0  0  0
    2.1482    0.9011    5.1598 H   0  0  0  1  0  0  0  0  0  0  0  0
   -3.8810    7.6803    0.4549 F   0  0  0  1  0  0  0  0  0  0  0  0
   -3.2894    6.4885    0.6638 C   0  0  0  1  0  0  0  0  0  0  0  0
   -2.0335    6.4309    1.2477 C   0  0  0  1  0  0  0  0  0  0  0  0
   -1.4240    5.2083    1.4572 C   0  0  0  1  0  0  0  0  0  0  0  0
   -2.0710    4.0392    1.0883 C   0  0  0  1  0  0  0  0  0  0  0  0
   -3.3233    4.0964    0.5060 C   0  0  0  1  0  0  0  0  0  0  0  0
   -3.9344    5.3227    0.2959 C   0  0  0  1  0  0  0  0  0  0  0  0
   -1.3626    2.7301    1.3451 C   0  0  0  1  0  0  0  0  0  0  0  0
   -1.5498    7.3078    1.5282 H   0  0  0  1  0  0  0  0  0  0  0  0
   -0.4801    5.1654    1.8917 H   0  0  0  1  0  0  0  0  0  0  0  0
   -3.8069    3.2194    0.2255 H   0  0  0  1  0  0  0  0  0  0  0  0
   -4.8783    5.3657   -0.1385 H   0  0  0  1  0  0  0  0  0  0  0  0
   -1.8540    1.9616    0.7858 H   0  0  0  1  0  0  0  0  0  0  0  0
   -0.3492    2.8206    1.0138 H   0  0  0  1  0  0  0  0  0  0  0  0
  1  4  1  0  0  0  0
  2  4  1  0  0  0  0
  2  5  2  0  0  0  0
  2  6  1  0  0  0  0
  3  4  1  0  0  0  0
  3  7  1  0  0  0  0
  3  8  1  0  0  0  0
  4 26  1  0  0  0  0
  6  9  1  0  0  0  0
  6 12  1  0  0  0  0
  8 10  1  0  0  0  0
  8 11  2  0  0  0  0
  9 13  1  0  0  0  0
  9 14  1  0  0  0  0
  9 15  1  0  0  0  0
 10 16  1  0  0  0  0
 10 17  1  0  0  0  0
 10 18  1  0  0  0  0
 19 20  1  0  0  0  0
 20 21  4  0  0  0  0
 20 25  4  0  0  0  0
 21 22  4  0  0  0  0
 21 27  1  0  0  0  0
 22 23  4  0  0  0  0
 22 28  1  0  0  0  0
 23 24  4  0  0  0  0
 23 26  1  0  0  0  0
 24 25  4  0  0  0  0
 24 29  1  0  0  0  0
 25 30  1  0  0  0  0
 26 31  1  0  0  0  0
 26 32  1  0  0  0  0
M  END
> <BCLConfClusterSize>
1

> <ConfClashScore>
0 

> <ConfOneFourInteractionScore>
-0.948834 

> <ConfScore>
0.0760143 

> <ConfScorePBest>
0.00396045 

> <ConfTolerance>
0.41439 

> <RosettaParamsInstructions>
M  ROOT 3
M  POLY_N_BB 3
M  POLY_CA_BB 4
M  POLY_C_BB 2
M  POLY_O_BB 5
M  POLY_IGNORE 9 10 11 12 13 14 15 16 17 18 
M  POLY_UPPER 6
M  POLY_LOWER 8
M  POLY_CHG 0
M  POLY_PROPERTIES ALPHA_AA L_AA PROTEIN AROMATIC POLYMER 
M  END

$$$$



 32 32  0  0  0  0  0  0  0  0999 V2000
   -0.1906    1.3563    0.2419 H   0  0  0  1  0  0  0  0  0  0  0  0
   -1.6459    2.0739   -1.1003 C   0  0  0  1  0  0  0  0  0  0  0  0
    0.3624    3.2693   -0.2769 N   0  0  0  1  0  0  0  0  0  0  0  0
   -0.6680    2.2936    0.0456 C   0  0  0  1  0  0  0  0  0  0  0  0
   -2.2347    1.0028   -1.2407 O   0  0  0  1  0  0  0  0  0  0  0  0
   -1.8149    3.1147   -1.9300 N   0  0  0  1  0  0  0  0  0  0  0  0
    0.1254    4.2178   -0.2088 H   0  0  0  1  0  0  0  0  0  0  0  0
    1.6051    2.9699   -0.6583 C   0  0  0  1  0  0  0  0  0  0  0  0
   -2.8506    3.2091   -2.9480 C   0  0  0  1  0  0  0  0  0  0  0  0
    2.5361    4.1490   -0.9679 C   0  0  0  1  0  0  0  0  0  0  0  0
    2.0403    1.8197   -0.6928 O   0  0  0  1  0  0  0  0  0  0  0  0
   -1.1941    3.8682   -1.8440 H   0  0  0  1  0  0  0  0  0  0  0  0
   -2.9826    2.2544   -3.4128 H   0  0  0  1  0  0  0  0  0  0  0  0
   -2.5607    3.9278   -3.6858 H   0  0  0  1  0  0  0  0  0  0  0  0
   -3.7700    3.5145   -2.4937 H   0  0  0  1  0  0  0  0  0  0  0  0
    3.2820    4.2252   -0.2046 H   0  0  0  1  0  0  0  0  0  0  0  0
    1.9662    5.0541   -1.0009 H   0  0  0  1  0  0  0  0  0  0  0  0
    3.0095    3.9904   -1.9143 H   0  0  0  1  0  0  0  0  0  0  0  0
   -3.9116    7.6616    0.4395 F   0  0  0  1  0  0  0  0  0  0  0  0
   -3.2836    6.4921    0.6667 C   0  0  0  1  0  0  0  0  0  0  0  0
   -2.0277    6.4356    1.2507 C   0  0  0  1  0  0  0  0  0  0  0  0
   -1.4173    5.2135    1.4607 C   0  0  0  1  0  0  0  0  0  0  0  0
   -2.0634    4.0439    1.0921 C   0  0  0  1  0  0  0  0  0  0  0  0
   -3.3156    4.0999    0.5098 C   0  0  0  1  0  0  0  0  0  0  0  0
   -3.9277    5.3257    0.2993 C   0  0  0  1  0  0  0  0  0  0  0  0
   -1.3994    2.7076    1.3266 C   0  0  0  1  0  0  0  0  0  0  0  0
   -1.5447    7.3130    1.5309 H   0  0  0  1  0  0  0  0  0  0  0  0
   -0.4733    5.1715    1.8952 H   0  0  0  1  0  0  0  0  0  0  0  0
   -3.7986    3.2225    0.2296 H   0  0  0  1  0  0  0  0  0  0  0  0
   -4.8716    5.3677   -0.1352 H   0  0  0  1  0  0  0  0  0  0  0  0
   -0.6988    2.7896    2.1311 H   0  0  0  1  0  0  0  0  0  0  0  0
   -2.1401    1.9752    1.5713 H   0  0  0  1  0  0  0  0  0  0  0  0
  1  4  1  0  0  0  0
  2  4  1  0  0  0  0
  2  5  2  0  0  0  0
  2  6  1  0  0  0  0
  3  4  1  0  0  0  0
  3  7  1  0  0  0  0
  3  8  1  0  0  0  0
  4 26  1  0  0  0  0
  6  9  1  0  0  0  0
  6 12  1  0  0  0  0
  8 10  1  0  0  0  0
  8 11  2  0  0  0  0
  9 13  1  0  0  0  0
  9 14  1  0  0  0  0
  9 15  1  0  0  0  0
 10 16  1  0  0  0  0
 10 17  1  0  0  0  0
 10 18  1  0  0  0  0
 19 20  1  0  0  0  0
 20 21  4  0  0  0  0
 20 25  4  0  0  0  0
 21 22  4  0  0  0  0
 21 27  1  0  0  0  0
 22 23  4  0  0  0  0
 22 28  1  0  0  0  0
 23 24  4  0  0  0  0
 23 26  1  0  0  0  0
 24 25  4  0  0  0  0
 24 29  1  0  0  0  0
 25 30  1  0  0  0  0
 26 31  1  0  0  0  0
 26 32  1  0  0  0  0
M  END
> <BCLConfClusterSize>
1

> <ConfClashScore>
0 

> <ConfOneFourInteractionScore>
-0.950605 

> <ConfScore>
0.0775868 

> <ConfScorePBest>
0.00393197 

> <ConfTolerance>
0.448216 

> <RosettaParamsInstructions>
M  ROOT 3
M  POLY_N_BB 3
M  POLY_CA_BB 4
M  POLY_C_BB 2
M  POLY_O_BB 5
M  POLY_IGNORE 9 10 11 12 13 14 15 16 17 18 
M  POLY_UPPER 6
M  POLY_LOWER 8
M  POLY_CHG 0
M  POLY_PROPERTIES ALPHA_AA L_AA PROTEIN AROMATIC POLYMER 
M  END

$$$$



 32 32  0  0  0  0  0  0  0  0999 V2000
   -1.0908    1.2841    2.8759 H   0  0  0  1  0  0  0  0  0  0  0  0
   -1.7400    3.0896    3.7901 C   0  0  0  1  0  0  0  0  0  0  0  0
   -3.1310    1.5428    2.5841 N   0  0  0  1  0  0  0  0  0  0  0  0
   -1.7780    2.0740    2.6553 C   0  0  0  1  0  0  0  0  0  0  0  0
   -2.7734    3.6165    4.2002 O   0  0  0  1  0  0  0  0  0  0  0  0
   -0.5549    3.3893    4.3240 N   0  0  0  1  0  0  0  0  0  0  0  0
   -3.6155    1.5952    1.7339 H   0  0  0  1  0  0  0  0  0  0  0  0
   -3.7415    0.9807    3.6479 C   0  0  0  1  0  0  0  0  0  0  0  0
   -0.3447    4.3406    5.4050 C   0  0  0  1  0  0  0  0  0  0  0  0
   -5.1997    0.5892    3.5083 C   0  0  0  1  0  0  0  0  0  0  0  0
   -3.1351    0.7903    4.7013 O   0  0  0  1  0  0  0  0  0  0  0  0
    0.2336    2.9346    3.9609 H   0  0  0  1  0  0  0  0  0  0  0  0
    0.3843    3.9528    6.0854 H   0  0  0  1  0  0  0  0  0  0  0  0
   -1.2669    4.5003    5.9236 H   0  0  0  1  0  0  0  0  0  0  0  0
    0.0029    5.2683    5.0008 H   0  0  0  1  0  0  0  0  0  0  0  0
   -5.4711    0.5857    2.4733 H   0  0  0  1  0  0  0  0  0  0  0  0
   -5.8098    1.2935    4.0344 H   0  0  0  1  0  0  0  0  0  0  0  0
   -5.3473   -0.3879    3.9187 H   0  0  0  1  0  0  0  0  0  0  0  0
   -3.8810    7.6803    0.4549 F   0  0  0  1  0  0  0  0  0  0  0  0
   -3.2894    6.4885    0.6638 C   0  0  0  1  0  0  0  0  0  0  0  0
   -2.0335    6.4309    1.2477 C   0  0  0  1  0  0  0  0  0  0  0  0
   -1.4240    5.2083    1.4572 C   0  0  0  1  0  0  0  0  0  0  0  0
   -2.0710    4.0392    1.0883 C   0  0  0  1  0  0  0  0  0  0  0  0
   -3.3233    4.0964    0.5060 C   0  0  0  1  0  0  0  0  0  0  0  0
   -3.9344    5.3227    0.2959 C   0  0  0  1  0  0  0  0  0  0  0  0
   -1.3626    2.7301    1.3451 C   0  0  0  1  0  0  0  0  0  0  0  0
   -1.5498    7.3078    1.5282 H   0  0  0  1  0  0  0  0  0  0  0  0
   -0.4801    5.1654    1.8917 H   0  0  0  1  0  0  0  0  0  0  0  0
   -3.8069    3.2194    0.2255 H   0  0  0  1  0  0  0  0  0  0  0  0
   -4.8783    5.3657   -0.1385 H   0  0  0  1  0  0  0  0  0  0  0  0
   -1.5858    2.0589    0.5423 H   0  0  0  1  0  0  0  0  0  0  0  0
   -0.3089    2.9133    1.3750 H   0  0  0  1  0  0  0  0  0  0  0  0
  1  4  1  0  0  0  0
  2  4  1  0  0  0  0
  2  5  2  0  0  0  0
  2  6  1  0  0  0  0
  3  4  1  0  0  0  0
  3  7  1  0  0  0  0
  3  8  1  0  0  0  0
  4 26  1  0  0  0  0
  6  9  1  0  0  0  0
  6 12  1  0  0  0  0
  8 10  1  0  0  0  0
  8 11  2  0  0  0  0
  9 13  1  0  0  0  0
  9 14  1  0  0  0  0
  9 15  1  0  0  0  0
 10 16  1  0  0  0  0
 10 17  1  0  0  0  0
 10 18  1  0  0  0  0
 19 20  1  0  0  0  0
 20 21  4  0  0  0  0
 20 25  4  0  0  0  0
 21 22  4  0  0  0  0
 21 27  1  0  0  0  0
 22 23  4  0  0  0  0
 22 28  1  0  0  0  0
 23 24  4  0  0  0  0
 23 26  1  0  0  0  0
 24 25  4  0  0  0  0
 24 29  1  0  0  0  0
 25 30  1  0  0  0  0
 26 31  1  0  0  0  0
 26 32  1  0  0  0  0
M  END
> <BCLConfClusterSize>
1

> <ConfClashScore>
0 

> <ConfOneFourInteractionScore>
-0.982563 

> <ConfScore>
0.0779184 

> <ConfScorePBest>
0.00390349 

> <ConfTolerance>
0.343133 

> <RosettaParamsInstructions>
M  ROOT 3
M  POLY_N_BB 3
M  POLY_CA_BB 4
M  POLY_C_BB 2
M  POLY_O_BB 5
M  POLY_IGNORE 9 10 11 12 13 14 15 16 17 18 
M  POLY_UPPER 6
M  POLY_LOWER 8
M  POLY_CHG 0
M  POLY_PROPERTIES ALPHA_AA L_AA PROTEIN AROMATIC POLYMER 
M  END

$$$$



 32 32  0  0  0  0  0  0  0  0999 V2000
    0.4479    3.5744    0.7837 H   0  0  0  1  0  0  0  0  0  0  0  0
    0.8717    1.5456    1.1161 C   0  0  0  1  0  0  0  0  0  0  0  0
   -0.2956    2.5316   -0.8334 N   0  0  0  1  0  0  0  0  0  0  0  0
   -0.0467    2.6419    0.6083 C   0  0  0  1  0  0  0  0  0  0  0  0
    1.0697    0.4984    0.5295 O   0  0  0  1  0  0  0  0  0  0  0  0
    1.4784    1.7855    2.2796 N   0  0  0  1  0  0  0  0  0  0  0  0
   -0.2095    1.6548   -1.2625 H   0  0  0  1  0  0  0  0  0  0  0  0
   -0.6388    3.5954   -1.5890 C   0  0  0  1  0  0  0  0  0  0  0  0
    2.3014    0.8279    3.0031 C   0  0  0  1  0  0  0  0  0  0  0  0
   -0.7566    3.3975   -3.0832 C   0  0  0  1  0  0  0  0  0  0  0  0
   -0.8502    4.6951   -1.0795 O   0  0  0  1  0  0  0  0  0  0  0  0
    1.3610    2.6736    2.6771 H   0  0  0  1  0  0  0  0  0  0  0  0
    2.2733   -0.1173    2.5024 H   0  0  0  1  0  0  0  0  0  0  0  0
    1.9256    0.7153    3.9986 H   0  0  0  1  0  0  0  0  0  0  0  0
    3.3106    1.1817    3.0403 H   0  0  0  1  0  0  0  0  0  0  0  0
    0.1995    3.1346   -3.4852 H   0  0  0  1  0  0  0  0  0  0  0  0
   -1.0968    4.3047   -3.5372 H   0  0  0  1  0  0  0  0  0  0  0  0
   -1.4559    2.6131   -3.2848 H   0  0  0  1  0  0  0  0  0  0  0  0
   -3.8843    7.6784    0.4533 F   0  0  0  1  0  0  0  0  0  0  0  0
   -3.2892    6.4887    0.6639 C   0  0  0  1  0  0  0  0  0  0  0  0
   -2.0333    6.4356    1.2481 C   0  0  0  1  0  0  0  0  0  0  0  0
   -1.4202    5.2151    1.4594 C   0  0  0  1  0  0  0  0  0  0  0  0
   -2.0637    4.0436    1.0920 C   0  0  0  1  0  0  0  0  0  0  0  0
   -3.3160    4.0963    0.5094 C   0  0  0  1  0  0  0  0  0  0  0  0
   -3.9307    5.3205    0.2975 C   0  0  0  1  0  0  0  0  0  0  0  0
   -1.3968    2.7090    1.3279 C   0  0  0  1  0  0  0  0  0  0  0  0
   -1.5523    7.3143    1.5275 H   0  0  0  1  0  0  0  0  0  0  0  0
   -0.4762    5.1756    1.8941 H   0  0  0  1  0  0  0  0  0  0  0  0
   -3.7969    3.2175    0.2300 H   0  0  0  1  0  0  0  0  0  0  0  0
   -4.8747    5.3600   -0.1371 H   0  0  0  1  0  0  0  0  0  0  0  0
   -1.2416    2.5752    2.3781 H   0  0  0  1  0  0  0  0  0  0  0  0
   -2.0304    1.9300    0.9584 H   0  0  0  1  0  0  0  0  0  0  0  0
  1  4  1  0  0  0  0
  2  4  1  0  0  0  0
  2  5  2  0  0  0  0
  2  6  1  0  0  0  0
  3  4  1  0  0  0  0
  3  7  1  0  0  0  0
  3  8  1  0  0  0  0
  4 26  1  0  0  0  0
  6  9  1  0  0  0  0
  6 12  1  0  0  0  0
  8 10  1  0  0  0  0
  8 11  2  0  0  0  0
  9 13  1  0  0  0  0
  9 14  1  0  0  0  0
  9 15  1  0  0  0  0
 10 16  1  0  0  0  0
 10 17  1  0  0  0  0
 10 18  1  0  0  0  0
 19 20  1  0  0  0  0
 20 21  4  0  0  0  0
 20 25  4  0  0  0  0
 21 22  4  0  0  0  0
 21 27  1  0  0  0  0
 22 23  4  0  0  0  0
 22 28  1  0  0  0  0
 23 24  4  0  0  0  0
 23 26  1  0  0  0  0
 24 25  4  0  0  0  0
 24 29  1  0  0  0  0
 25 30  1  0  0  0  0
 26 31  1  0  0  0  0
 26 32  1  0  0  0  0
M  END
> <BCLConfClusterSize>
1

> <ConfClashScore>
0 

> <ConfOneFourInteractionScore>
-0.990503 

> <ConfScore>
0.0798459 

> <ConfScorePBest>
0.00387501 

> <ConfTolerance>
0.610586 

> <RosettaParamsInstructions>
M  ROOT 3
M  POLY_N_BB 3
M  POLY_CA_BB 4
M  POLY_C_BB 2
M  POLY_O_BB 5
M  POLY_IGNORE 9 10 11 12 13 14 15 16 17 18 
M  POLY_UPPER 6
M  POLY_LOWER 8
M  POLY_CHG 0
M  POLY_PROPERTIES ALPHA_AA L_AA PROTEIN AROMATIC POLYMER 
M  END

$$$$



 32 32  0  0  0  0  0  0  0  0999 V2000
    0.2487    2.9021   -0.0255 H   0  0  0  1  0  0  0  0  0  0  0  0
   -0.1494    0.8320    0.3066 C   0  0  0  1  0  0  0  0  0  0  0  0
   -1.4383    2.3181   -1.1027 N   0  0  0  1  0  0  0  0  0  0  0  0
   -0.6069    2.2702    0.0907 C   0  0  0  1  0  0  0  0  0  0  0  0
    0.0581    0.4606    1.4610 O   0  0  0  1  0  0  0  0  0  0  0  0
    0.0019    0.0533   -0.7625 N   0  0  0  1  0  0  0  0  0  0  0  0
   -2.2112    1.7172   -1.1478 H   0  0  0  1  0  0  0  0  0  0  0  0
   -1.2141    3.1324   -2.1452 C   0  0  0  1  0  0  0  0  0  0  0  0
    0.3558   -1.3578   -0.7221 C   0  0  0  1  0  0  0  0  0  0  0  0
   -2.1095    2.9212   -3.3506 C   0  0  0  1  0  0  0  0  0  0  0  0
   -0.3440    3.9991   -2.1417 O   0  0  0  1  0  0  0  0  0  0  0  0
   -0.1354    0.4609   -1.6431 H   0  0  0  1  0  0  0  0  0  0  0  0
   -0.1635   -1.8333    0.0836 H   0  0  0  1  0  0  0  0  0  0  0  0
    1.4108   -1.4565   -0.5738 H   0  0  0  1  0  0  0  0  0  0  0  0
    0.0801   -1.8210   -1.6465 H   0  0  0  1  0  0  0  0  0  0  0  0
   -1.6639    2.2013   -4.0048 H   0  0  0  1  0  0  0  0  0  0  0  0
   -2.2314    3.8483   -3.8708 H   0  0  0  1  0  0  0  0  0  0  0  0
   -3.0651    2.5652   -3.0267 H   0  0  0  1  0  0  0  0  0  0  0  0
   -3.8843    7.6784    0.4533 F   0  0  0  1  0  0  0  0  0  0  0  0
   -3.2892    6.4887    0.6639 C   0  0  0  1  0  0  0  0  0  0  0  0
   -2.0333    6.4356    1.2481 C   0  0  0  1  0  0  0  0  0  0  0  0
   -1.4202    5.2151    1.4594 C   0  0  0  1  0  0  0  0  0  0  0  0
   -2.0637    4.0436    1.0920 C   0  0  0  1  0  0  0  0  0  0  0  0
   -3.3160    4.0963    0.5094 C   0  0  0  1  0  0  0  0  0  0  0  0
   -3.9307    5.3205    0.2975 C   0  0  0  1  0  0  0  0  0  0  0  0
   -1.3968    2.7090    1.3279 C   0  0  0  1  0  0  0  0  0  0  0  0
   -1.5523    7.3143    1.5275 H   0  0  0  1  0  0  0  0  0  0  0  0
   -0.4762    5.1756    1.8941 H   0  0  0  1  0  0  0  0  0  0  0  0
   -3.7969    3.2175    0.2300 H   0  0  0  1  0  0  0  0  0  0  0  0
   -4.8747    5.3600   -0.1371 H   0  0  0  1  0  0  0  0  0  0  0  0
   -0.7285    2.7929    2.1593 H   0  0  0  1  0  0  0  0  0  0  0  0
   -2.1457    1.9760    1.5442 H   0  0  0  1  0  0  0  0  0  0  0  0
  1  4  1  0  0  0  0
  2  4  1  0  0  0  0
  2  5  2  0  0  0  0
  2  6  1  0  0  0  0
  3  4  1  0  0  0  0
  3  7  1  0  0  0  0
  3  8  1  0  0  0  0
  4 26  1  0  0  0  0
  6  9  1  0  0  0  0
  6 12  1  0  0  0  0
  8 10  1  0  0  0  0
  8 11  2  0  0  0  0
  9 13  1  0  0  0  0
  9 14  1  0  0  0  0
  9 15  1  0  0  0  0
 10 16  1  0  0  0  0
 10 17  1  0  0  0  0
 10 18  1  0  0  0  0
 19 20  1  0  0  0  0
 20 21  4  0  0  0  0
 20 25  4  0  0  0  0
 21 22  4  0  0  0  0
 21 27  1  0  0  0  0
 22 23  4  0  0  0  0
 22 28  1  0  0  0  0
 23 24  4  0  0  0  0
 23 26  1  0  0  0  0
 24 25  4  0  0  0  0
 24 29  1  0  0  0  0
 25 30  1  0  0  0  0
 26 31  1  0  0  0  0
 26 32  1  0  0  0  0
M  END
> <BCLConfClusterSize>
1

> <ConfClashScore>
0 

> <ConfOneFourInteractionScore>
-0.94194 

> <ConfScore>
0.0799836 

> <ConfScorePBest>
0.00384653 

> <ConfTolerance>
0.48177 

> <RosettaParamsInstructions>
M  ROOT 3
M  POLY_N_BB 3
M  POLY_CA_BB 4
M  POLY_C_BB 2
M  POLY_O_BB 5
M  POLY_IGNORE 9 10 11 12 13 14 15 16 17 18 
M  POLY_UPPER 6
M  POLY_LOWER 8
M  POLY_CHG 0
M  POLY_PROPERTIES ALPHA_AA L_AA PROTEIN AROMATIC POLYMER 
M  END

$$$$



 32 32  0  0  0  0  0  0  0  0999 V2000
   -0.7213    3.2222    3.2793 H   0  0  0  1  0  0  0  0  0  0  0  0
   -2.5934    2.3031    3.5017 C   0  0  0  1  0  0  0  0  0  0  0  0
   -0.4386    1.2010    3.0627 N   0  0  0  1  0  0  0  0  0  0  0  0
   -1.2342    2.4002    2.8253 C   0  0  0  1  0  0  0  0  0  0  0  0
   -3.0755    1.1825    3.6615 O   0  0  0  1  0  0  0  0  0  0  0  0
   -3.1582    3.4626    3.8713 N   0  0  0  1  0  0  0  0  0  0  0  0
   -0.1818    0.6447    2.2979 H   0  0  0  1  0  0  0  0  0  0  0  0
   -0.0330    0.8207    4.3330 C   0  0  0  1  0  0  0  0  0  0  0  0
   -4.4047    3.4615    4.6225 C   0  0  0  1  0  0  0  0  0  0  0  0
    0.7053   -0.4870    4.5078 C   0  0  0  1  0  0  0  0  0  0  0  0
   -0.2863    1.5563    5.2696 O   0  0  0  1  0  0  0  0  0  0  0  0
   -2.7306    4.3121    3.6350 H   0  0  0  1  0  0  0  0  0  0  0  0
   -4.5168    2.5246    5.1271 H   0  0  0  1  0  0  0  0  0  0  0  0
   -5.2255    3.6052    3.9513 H   0  0  0  1  0  0  0  0  0  0  0  0
   -4.3883    4.2538    5.3414 H   0  0  0  1  0  0  0  0  0  0  0  0
    1.6766   -0.2972    4.9146 H   0  0  0  1  0  0  0  0  0  0  0  0
    0.8048   -0.9699    3.5581 H   0  0  0  1  0  0  0  0  0  0  0  0
    0.1571   -1.1195    5.1744 H   0  0  0  1  0  0  0  0  0  0  0  0
   -3.9083    7.6636    0.4412 F   0  0  0  1  0  0  0  0  0  0  0  0
   -3.2837    6.4919    0.6666 C   0  0  0  1  0  0  0  0  0  0  0  0
   -2.0279    6.4309    1.2503 C   0  0  0  1  0  0  0  0  0  0  0  0
   -1.4211    5.2067    1.4585 C   0  0  0  1  0  0  0  0  0  0  0  0
   -2.0707    4.0395    1.0884 C   0  0  0  1  0  0  0  0  0  0  0  0
   -3.3229    4.1000    0.5064 C   0  0  0  1  0  0  0  0  0  0  0  0
   -3.9314    5.3279    0.2977 C   0  0  0  1  0  0  0  0  0  0  0  0
   -1.3652    2.7286    1.3438 C   0  0  0  1  0  0  0  0  0  0  0  0
   -1.5422    7.3064    1.5317 H   0  0  0  1  0  0  0  0  0  0  0  0
   -0.4772    5.1613    1.8928 H   0  0  0  1  0  0  0  0  0  0  0  0
   -3.8085    3.2244    0.2251 H   0  0  0  1  0  0  0  0  0  0  0  0
   -4.8753    5.3734   -0.1366 H   0  0  0  1  0  0  0  0  0  0  0  0
   -1.9189    1.9457    0.8691 H   0  0  0  1  0  0  0  0  0  0  0  0
   -0.3847    2.7810    0.9186 H   0  0  0  1  0  0  0  0  0  0  0  0
  1  4  1  0  0  0  0
  2  4  1  0  0  0  0
  2  5  2  0  0  0  0
  2  6  1  0  0  0  0
  3  4  1  0  0  0  0
  3  7  1  0  0  0  0
  3  8  1  0  0  0  0
  4 26  1  0  0  0  0
  6  9  1  0  0  0  0
  6 12  1  0  0  0  0
  8 10  1  0  0  0  0
  8 11  2  0  0  0  0
  9 13  1  0  0  0  0
  9 14  1  0  0  0  0
  9 15  1  0  0  0  0
 10 16  1  0  0  0  0
 10 17  1  0  0  0  0
 10 18  1  0  0  0  0
 19 20  1  0  0  0  0
 20 21  4  0  0  0  0
 20 25  4  0  0  0  0
 21 22  4  0  0  0  0
 21 27  1  0  0  0  0
 22 23  4  0  0  0  0
 22 28  1  0  0  0  0
 23 24  4  0  0  0  0
 23 26  1  0  0  0  0
 24 25  4  0  0  0  0
 24 29  1  0  0  0  0
 25 30  1  0  0  0  0
 26 31  1  0  0  0  0
 26 32  1  0  0  0  0
M  END
> <BCLConfClusterSize>
1

> <ConfClashScore>
0 

> <ConfOneFourInteractionScore>
-0.985807 

> <ConfScore>
0.089261 

> <ConfScorePBest>
0.00381805 

> <ConfTolerance>
0.432525 

> <RosettaParamsInstructions>
M  ROOT 3
M  POLY_N_BB 3
M  POLY_CA_BB 4
M  POLY_C_BB 2
M  POLY_O_BB 5
M  POLY_IGNORE 9 10 11 12 13 14 15 16 17 18 
M  POLY_UPPER 6
M  POLY_LOWER 8
M  POLY_CHG 0
M  POLY_PROPERTIES ALPHA_AA L_AA PROTEIN AROMATIC POLYMER 
M  END

$$$$



 32 32  0  0  0  0  0  0  0  0999 V2000
   -3.0250    1.3382    1.2383 H   0  0  0  1  0  0  0  0  0  0  0  0
   -1.5021    0.4993    2.4499 C   0  0  0  1  0  0  0  0  0  0  0  0
   -3.0472    2.2857    3.0852 N   0  0  0  1  0  0  0  0  0  0  0  0
   -2.3279    1.6791    1.9751 C   0  0  0  1  0  0  0  0  0  0  0  0
   -0.8932   -0.2131    1.6561 O   0  0  0  1  0  0  0  0  0  0  0  0
   -1.4862    0.2963    3.7682 N   0  0  0  1  0  0  0  0  0  0  0  0
   -2.5629    2.8232    3.7463 H   0  0  0  1  0  0  0  0  0  0  0  0
   -4.3664    2.1115    3.2051 C   0  0  0  1  0  0  0  0  0  0  0  0
   -0.5384   -0.6065    4.4043 C   0  0  0  1  0  0  0  0  0  0  0  0
   -5.0529    2.9747    4.2457 C   0  0  0  1  0  0  0  0  0  0  0  0
   -5.0003    1.3071    2.5239 O   0  0  0  1  0  0  0  0  0  0  0  0
   -2.1352    0.7716    4.3278 H   0  0  0  1  0  0  0  0  0  0  0  0
    0.3358   -0.0611    4.6929 H   0  0  0  1  0  0  0  0  0  0  0  0
   -0.2655   -1.3792    3.7163 H   0  0  0  1  0  0  0  0  0  0  0  0
   -0.9887   -1.0428    5.2713 H   0  0  0  1  0  0  0  0  0  0  0  0
   -4.5375    2.8868    5.1792 H   0  0  0  1  0  0  0  0  0  0  0  0
   -6.0656    2.6505    4.3658 H   0  0  0  1  0  0  0  0  0  0  0  0
   -5.0403    3.9958    3.9263 H   0  0  0  1  0  0  0  0  0  0  0  0
   -3.8843    7.6784    0.4533 F   0  0  0  1  0  0  0  0  0  0  0  0
   -3.2892    6.4887    0.6639 C   0  0  0  1  0  0  0  0  0  0  0  0
   -2.0333    6.4356    1.2481 C   0  0  0  1  0  0  0  0  0  0  0  0
   -1.4202    5.2151    1.4594 C   0  0  0  1  0  0  0  0  0  0  0  0
   -2.0637    4.0436    1.0920 C   0  0  0  1  0  0  0  0  0  0  0  0
   -3.3160    4.0963    0.5094 C   0  0  0  1  0  0  0  0  0  0  0  0
   -3.9307    5.3205    0.2975 C   0  0  0  1  0  0  0  0  0  0  0  0
   -1.3968    2.7090    1.3279 C   0  0  0  1  0  0  0  0  0  0  0  0
   -1.5523    7.3143    1.5275 H   0  0  0  1  0  0  0  0  0  0  0  0
   -0.4762    5.1756    1.8941 H   0  0  0  1  0  0  0  0  0  0  0  0
   -3.7969    3.2175    0.2300 H   0  0  0  1  0  0  0  0  0  0  0  0
   -4.8747    5.3600   -0.1371 H   0  0  0  1  0  0  0  0  0  0  0  0
   -1.0640    2.3235    0.3869 H   0  0  0  1  0  0  0  0  0  0  0  0
   -0.5546    2.8581    1.9708 H   0  0  0  1  0  0  0  0  0  0  0  0
  1  4  1  0  0  0  0
  2  4  1  0  0  0  0
  2  5  2  0  0  0  0
  2  6  1  0  0  0  0
  3  4  1  0  0  0  0
  3  7  1  0  0  0  0
  3  8  1  0  0  0  0
  4 26  1  0  0  0  0
  6  9  1  0  0  0  0
  6 12  1  0  0  0  0
  8 10  1  0  0  0  0
  8 11  2  0  0  0  0
  9 13  1  0  0  0  0
  9 14  1  0  0  0  0
  9 15  1  0  0  0  0
 10 16  1  0  0  0  0
 10 17  1  0  0  0  0
 10 18  1  0  0  0  0
 19 20  1  0  0  0  0
 20 21  4  0  0  0  0
 20 25  4  0  0  0  0
 21 22  4  0  0  0  0
 21 27  1  0  0  0  0
 22 23  4  0  0  0  0
 22 28  1  0  0  0  0
 23 24  4  0  0  0  0
 23 26  1  0  0  0  0
 24 25  4  0  0  0  0
 24 29  1  0  0  0  0
 25 30  1  0  0  0  0
 26 31  1  0  0  0  0
 26 32  1  0  0  0  0
M  END
> <BCLConfClusterSize>
1

> <ConfClashScore>
0 

> <ConfOneFourInteractionScore>
-0.928132 

> <ConfScore>
0.0892669 

> <ConfScorePBest>
0.00378957 

> <ConfTolerance>
0.578783 

> <RosettaParamsInstructions>
M  ROOT 3
M  POLY_N_BB 3
M  POLY_CA_BB 4
M  POLY_C_BB 2
M  POLY_O_BB 5
M  POLY_IGNORE 9 10 11 12 13 14 15 16 17 18 
M  POLY_UPPER 6
M  POLY_LOWER 8
M  POLY_CHG 0
M  POLY_PROPERTIES ALPHA_AA L_AA PROTEIN AROMATIC POLYMER 
M  END

$$$$



 32 32  0  0  0  0  0  0  0  0999 V2000
   -2.6606    2.1898    2.8995 H   0  0  0  1  0  0  0  0  0  0  0  0
   -1.2677    0.6355    2.7301 C   0  0  0  1  0  0  0  0  0  0  0  0
   -0.9191    2.8288    3.7778 N   0  0  0  1  0  0  0  0  0  0  0  0
   -1.6101    2.1126    2.7116 C   0  0  0  1  0  0  0  0  0  0  0  0
   -1.1116    0.0043    1.6882 O   0  0  0  1  0  0  0  0  0  0  0  0
   -1.1507    0.0820    3.9405 N   0  0  0  1  0  0  0  0  0  0  0  0
   -1.4477    3.3522    4.4158 H   0  0  0  1  0  0  0  0  0  0  0  0
    0.4226    2.7958    3.9164 C   0  0  0  1  0  0  0  0  0  0  0  0
   -0.9063   -1.3408    4.1243 C   0  0  0  1  0  0  0  0  0  0  0  0
    1.0509    3.6850    4.9655 C   0  0  0  1  0  0  0  0  0  0  0  0
    1.1165    2.0646    3.2112 O   0  0  0  1  0  0  0  0  0  0  0  0
   -1.2323    0.6540    4.7320 H   0  0  0  1  0  0  0  0  0  0  0  0
   -1.7378   -1.8979    3.7460 H   0  0  0  1  0  0  0  0  0  0  0  0
   -0.7820   -1.5494    5.1664 H   0  0  0  1  0  0  0  0  0  0  0  0
   -0.0193   -1.6213    3.5956 H   0  0  0  1  0  0  0  0  0  0  0  0
    0.4707    4.5778    5.0710 H   0  0  0  1  0  0  0  0  0  0  0  0
    2.0463    3.9399    4.6670 H   0  0  0  1  0  0  0  0  0  0  0  0
    1.0803    3.1664    5.9010 H   0  0  0  1  0  0  0  0  0  0  0  0
   -3.9083    7.6636    0.4412 F   0  0  0  1  0  0  0  0  0  0  0  0
   -3.2837    6.4919    0.6666 C   0  0  0  1  0  0  0  0  0  0  0  0
   -2.0279    6.4309    1.2503 C   0  0  0  1  0  0  0  0  0  0  0  0
   -1.4211    5.2067    1.4585 C   0  0  0  1  0  0  0  0  0  0  0  0
   -2.0707    4.0395    1.0884 C   0  0  0  1  0  0  0  0  0  0  0  0
   -3.3229    4.1000    0.5064 C   0  0  0  1  0  0  0  0  0  0  0  0
   -3.9314    5.3279    0.2977 C   0  0  0  1  0  0  0  0  0  0  0  0
   -1.3652    2.7286    1.3438 C   0  0  0  1  0  0  0  0  0  0  0  0
   -1.5422    7.3064    1.5317 H   0  0  0  1  0  0  0  0  0  0  0  0
   -0.4772    5.1613    1.8928 H   0  0  0  1  0  0  0  0  0  0  0  0
   -3.8085    3.2244    0.2251 H   0  0  0  1  0  0  0  0  0  0  0  0
   -4.8753    5.3734   -0.1366 H   0  0  0  1  0  0  0  0  0  0  0  0
   -1.6914    2.0284    0.6033 H   0  0  0  1  0  0  0  0  0  0  0  0
   -0.3132    2.8942    1.2399 H   0  0  0  1  0  0  0  0  0  0  0  0
  1  4  1  0  0  0  0
  2  4  1  0  0  0  0
  2  5  2  0  0  0  0
  2  6  1  0  0  0  0
  3  4  1  0  0  0  0
  3  7  1  0  0  0  0
  3  8  1  0  0  0  0
  4 26  1  0  0  0  0
  6  9  1  0  0  0  0
  6 12  1  0  0  0  0
  8 10  1  0  0  0  0
  8 11  2  0  0  0  0
  9 13  1  0  0  0  0
  9 14  1  0  0  0  0
  9 15  1  0  0  0  0
 10 16  1  0  0  0  0
 10 17  1  0  0  0  0
 10 18  1  0  0  0  0
 19 20  1  0  0  0  0
 20 21  4  0  0  0  0
 20 25  4  0  0  0  0
 21 22  4  0  0  0  0
 21 27  1  0  0  0  0
 22 23  4  0  0  0  0
 22 28  1  0  0  0  0
 23 24  4  0  0  0  0
 23 26  1  0  0  0  0
 24 25  4  0  0  0  0
 24 29  1  0  0  0  0
 25 30  1  0  0  0  0
 26 31  1  0  0  0  0
 26 32  1  0  0  0  0
M  END
> <BCLConfClusterSize>
1

> <ConfClashScore>
0 

> <ConfOneFourInteractionScore>
-0.957364 

> <ConfScore>
0.091405 

> <ConfScorePBest>
0.00376109 

> <ConfTolerance>
0.352373 

> <RosettaParamsInstructions>
M  ROOT 3
M  POLY_N_BB 3
M  POLY_CA_BB 4
M  POLY_C_BB 2
M  POLY_O_BB 5
M  POLY_IGNORE 9 10 11 12 13 14 15 16 17 18 
M  POLY_UPPER 6
M  POLY_LOWER 8
M  POLY_CHG 0
M  POLY_PROPERTIES ALPHA_AA L_AA PROTEIN AROMATIC POLYMER 
M  END

$$$$



 32 32  0  0  0  0  0  0  0  0999 V2000
   -1.1726    1.1983    2.8014 H   0  0  0  1  0  0  0  0  0  0  0  0
   -1.3281    3.0464    3.8097 C   0  0  0  1  0  0  0  0  0  0  0  0
   -3.1525    1.7941    2.7897 N   0  0  0  1  0  0  0  0  0  0  0  0
   -1.7336    2.1031    2.6939 C   0  0  0  1  0  0  0  0  0  0  0  0
   -2.1524    3.7933    4.3354 O   0  0  0  1  0  0  0  0  0  0  0  0
   -0.0453    3.0414    4.2053 N   0  0  0  1  0  0  0  0  0  0  0  0
   -3.8020    2.5231    2.7054 H   0  0  0  1  0  0  0  0  0  0  0  0
   -3.6004    0.5512    2.9884 C   0  0  0  1  0  0  0  0  0  0  0  0
    0.4720    3.9926    5.1777 C   0  0  0  1  0  0  0  0  0  0  0  0
   -5.0974    0.4143    3.1872 C   0  0  0  1  0  0  0  0  0  0  0  0
   -2.8620   -0.4300    3.0119 O   0  0  0  1  0  0  0  0  0  0  0  0
    0.5640    2.3741    3.8261 H   0  0  0  1  0  0  0  0  0  0  0  0
   -0.0662    4.9139    5.0974 H   0  0  0  1  0  0  0  0  0  0  0  0
    1.5101    4.1684    4.9869 H   0  0  0  1  0  0  0  0  0  0  0  0
    0.3524    3.5948    6.1638 H   0  0  0  1  0  0  0  0  0  0  0  0
   -5.6039    1.1600    2.6107 H   0  0  0  1  0  0  0  0  0  0  0  0
   -5.3327    0.5439    4.2229 H   0  0  0  1  0  0  0  0  0  0  0  0
   -5.4119   -0.5574    2.8683 H   0  0  0  1  0  0  0  0  0  0  0  0
   -3.8843    7.6784    0.4533 F   0  0  0  1  0  0  0  0  0  0  0  0
   -3.2892    6.4887    0.6639 C   0  0  0  1  0  0  0  0  0  0  0  0
   -2.0333    6.4356    1.2481 C   0  0  0  1  0  0  0  0  0  0  0  0
   -1.4202    5.2151    1.4594 C   0  0  0  1  0  0  0  0  0  0  0  0
   -2.0637    4.0436    1.0920 C   0  0  0  1  0  0  0  0  0  0  0  0
   -3.3160    4.0963    0.5094 C   0  0  0  1  0  0  0  0  0  0  0  0
   -3.9307    5.3205    0.2975 C   0  0  0  1  0  0  0  0  0  0  0  0
   -1.3968    2.7090    1.3279 C   0  0  0  1  0  0  0  0  0  0  0  0
   -1.5523    7.3143    1.5275 H   0  0  0  1  0  0  0  0  0  0  0  0
   -0.4762    5.1756    1.8941 H   0  0  0  1  0  0  0  0  0  0  0  0
   -3.7969    3.2175    0.2300 H   0  0  0  1  0  0  0  0  0  0  0  0
   -4.8747    5.3600   -0.1371 H   0  0  0  1  0  0  0  0  0  0  0  0
   -1.7161    2.0293    0.5657 H   0  0  0  1  0  0  0  0  0  0  0  0
   -0.3369    2.8423    1.2665 H   0  0  0  1  0  0  0  0  0  0  0  0
  1  4  1  0  0  0  0
  2  4  1  0  0  0  0
  2  5  2  0  0  0  0
  2  6  1  0  0  0  0
  3  4  1  0  0  0  0
  3  7  1  0  0  0  0
  3  8  1  0  0  0  0
  4 26  1  0  0  0  0
  6  9  1  0  0  0  0
  6 12  1  0  0  0  0
  8 10  1  0  0  0  0
  8 11  2  0  0  0  0
  9 13  1  0  0  0  0
  9 14  1  0  0  0  0
  9 15  1  0  0  0  0
 10 16  1  0  0  0  0
 10 17  1  0  0  0  0
 10 18  1  0  0  0  0
 19 20  1  0  0  0  0
 20 21  4  0  0  0  0
 20 25  4  0  0  0  0
 21 22  4  0  0  0  0
 21 27  1  0  0  0  0
 22 23  4  0  0  0  0
 22 28  1  0  0  0  0
 23 24  4  0  0  0  0
 23 26  1  0  0  0  0
 24 25  4  0  0  0  0
 24 29  1  0  0  0  0
 25 30  1  0  0  0  0
 26 31  1  0  0  0  0
 26 32  1  0  0  0  0
M  END
> <BCLConfClusterSize>
1

> <ConfClashScore>
0 

> <ConfOneFourInteractionScore>
-0.987258 

> <ConfScore>
0.0960771 

> <ConfScorePBest>
0.00373261 

> <ConfTolerance>
0.300353 

> <RosettaParamsInstructions>
M  ROOT 3
M  POLY_N_BB 3
M  POLY_CA_BB 4
M  POLY_C_BB 2
M  POLY_O_BB 5
M  POLY_IGNORE 9 10 11 12 13 14 15 16 17 18 
M  POLY_UPPER 6
M  POLY_LOWER 8
M  POLY_CHG 0
M  POLY_PROPERTIES ALPHA_AA L_AA PROTEIN AROMATIC POLYMER 
M  END

$$$$



 32 32  0  0  0  0  0  0  0  0999 V2000
   -2.5588    2.2767    3.0481 H   0  0  0  1  0  0  0  0  0  0  0  0
   -1.0981    0.7632    2.8511 C   0  0  0  1  0  0  0  0  0  0  0  0
   -0.7596    3.0970    3.6536 N   0  0  0  1  0  0  0  0  0  0  0  0
   -1.5259    2.2211    2.7744 C   0  0  0  1  0  0  0  0  0  0  0  0
   -1.9136   -0.1464    2.7058 O   0  0  0  1  0  0  0  0  0  0  0  0
    0.2171    0.5353    2.9947 N   0  0  0  1  0  0  0  0  0  0  0  0
    0.2178    3.0419    3.6084 H   0  0  0  1  0  0  0  0  0  0  0  0
   -1.2890    3.9676    4.5145 C   0  0  0  1  0  0  0  0  0  0  0  0
    0.8239   -0.7874    2.9796 C   0  0  0  1  0  0  0  0  0  0  0  0
   -0.3005    4.8555    5.2451 C   0  0  0  1  0  0  0  0  0  0  0  0
   -2.4984    4.0587    4.7160 O   0  0  0  1  0  0  0  0  0  0  0  0
    0.8060    1.3089    3.1175 H   0  0  0  1  0  0  0  0  0  0  0  0
    1.7386   -0.7671    3.5345 H   0  0  0  1  0  0  0  0  0  0  0  0
    1.0263   -1.0751    1.9691 H   0  0  0  1  0  0  0  0  0  0  0  0
    0.1529   -1.4924    3.4242 H   0  0  0  1  0  0  0  0  0  0  0  0
    0.5839    4.2964    5.4693 H   0  0  0  1  0  0  0  0  0  0  0  0
   -0.7410    5.2058    6.1551 H   0  0  0  1  0  0  0  0  0  0  0  0
   -0.0468    5.6908    4.6264 H   0  0  0  1  0  0  0  0  0  0  0  0
   -3.8843    7.6784    0.4533 F   0  0  0  1  0  0  0  0  0  0  0  0
   -3.2892    6.4887    0.6639 C   0  0  0  1  0  0  0  0  0  0  0  0
   -2.0333    6.4356    1.2481 C   0  0  0  1  0  0  0  0  0  0  0  0
   -1.4202    5.2151    1.4594 C   0  0  0  1  0  0  0  0  0  0  0  0
   -2.0637    4.0436    1.0920 C   0  0  0  1  0  0  0  0  0  0  0  0
   -3.3160    4.0963    0.5094 C   0  0  0  1  0  0  0  0  0  0  0  0
   -3.9307    5.3205    0.2975 C   0  0  0  1  0  0  0  0  0  0  0  0
   -1.3968    2.7090    1.3279 C   0  0  0  1  0  0  0  0  0  0  0  0
   -1.5523    7.3143    1.5275 H   0  0  0  1  0  0  0  0  0  0  0  0
   -0.4762    5.1756    1.8941 H   0  0  0  1  0  0  0  0  0  0  0  0
   -3.7969    3.2175    0.2300 H   0  0  0  1  0  0  0  0  0  0  0  0
   -4.8747    5.3600   -0.1371 H   0  0  0  1  0  0  0  0  0  0  0  0
   -1.8475    1.9843    0.6825 H   0  0  0  1  0  0  0  0  0  0  0  0
   -0.3574    2.8011    1.0910 H   0  0  0  1  0  0  0  0  0  0  0  0
  1  4  1  0  0  0  0
  2  4  1  0  0  0  0
  2  5  2  0  0  0  0
  2  6  1  0  0  0  0
  3  4  1  0  0  0  0
  3  7  1  0  0  0  0
  3  8  1  0  0  0  0
  4 26  1  0  0  0  0
  6  9  1  0  0  0  0
  6 12  1  0  0  0  0
  8 10  1  0  0  0  0
  8 11  2  0  0  0  0
  9 13  1  0  0  0  0
  9 14  1  0  0  0  0
  9 15  1  0  0  0  0
 10 16  1  0  0  0  0
 10 17  1  0  0  0  0
 10 18  1  0  0  0  0
 19 20  1  0  0  0  0
 20 21  4  0  0  0  0
 20 25  4  0  0  0  0
 21 22  4  0  0  0  0
 21 27  1  0  0  0  0
 22 23  4  0  0  0  0
 22 28  1  0  0  0  0
 23 24  4  0  0  0  0
 23 26  1  0  0  0  0
 24 25  4  0  0  0  0
 24 29  1  0  0  0  0
 25 30  1  0  0  0  0
 26 31  1  0  0  0  0
 26 32  1  0  0  0  0
M  END
> <BCLConfClusterSize>
1

> <ConfClashScore>
0 

> <ConfOneFourInteractionScore>
-0.961138 

> <ConfScore>
0.098482 

> <ConfScorePBest>
0.00370413 

> <ConfTolerance>
0.451036 

> <RosettaParamsInstructions>
M  ROOT 3
M  POLY_N_BB 3
M  POLY_CA_BB 4
M  POLY_C_BB 2
M  POLY_O_BB 5
M  POLY_IGNORE 9 10 11 12 13 14 15 16 17 18 
M  POLY_UPPER 6
M  POLY_LOWER 8
M  POLY_CHG 0
M  POLY_PROPERTIES ALPHA_AA L_AA PROTEIN AROMATIC POLYMER 
M  END

$$$$



 32 32  0  0  0  0  0  0  0  0999 V2000
   -1.4797    1.1446    2.8213 H   0  0  0  1  0  0  0  0  0  0  0  0
   -1.2369    2.9768    3.8562 C   0  0  0  1  0  0  0  0  0  0  0  0
   -3.3055    2.1141    2.8806 N   0  0  0  1  0  0  0  0  0  0  0  0
   -1.8574    2.1424    2.7396 C   0  0  0  1  0  0  0  0  0  0  0  0
   -1.8807    3.8659    4.4118 O   0  0  0  1  0  0  0  0  0  0  0  0
    0.0299    2.7117    4.2128 N   0  0  0  1  0  0  0  0  0  0  0  0
   -3.8640    2.6764    2.3041 H   0  0  0  1  0  0  0  0  0  0  0  0
   -3.8753    1.3232    3.7943 C   0  0  0  1  0  0  0  0  0  0  0  0
    0.7450    3.5130    5.1948 C   0  0  0  1  0  0  0  0  0  0  0  0
   -5.3686    1.5052    3.9839 C   0  0  0  1  0  0  0  0  0  0  0  0
   -3.2501    0.5014    4.4441 O   0  0  0  1  0  0  0  0  0  0  0  0
    0.4890    1.9521    3.7974 H   0  0  0  1  0  0  0  0  0  0  0  0
    0.1530    3.6034    6.0815 H   0  0  0  1  0  0  0  0  0  0  0  0
    0.9337    4.4860    4.7915 H   0  0  0  1  0  0  0  0  0  0  0  0
    1.6741    3.0389    5.4333 H   0  0  0  1  0  0  0  0  0  0  0  0
   -5.6832    2.4053    3.4984 H   0  0  0  1  0  0  0  0  0  0  0  0
   -5.5902    1.5677    5.0288 H   0  0  0  1  0  0  0  0  0  0  0  0
   -5.8862    0.6711    3.5582 H   0  0  0  1  0  0  0  0  0  0  0  0
   -3.9224    7.6587    0.4567 F   0  0  0  1  0  0  0  0  0  0  0  0
   -3.2859    6.4915    0.6725 C   0  0  0  1  0  0  0  0  0  0  0  0
   -2.0270    6.4388    1.2503 C   0  0  0  1  0  0  0  0  0  0  0  0
   -1.4079    5.2192    1.4486 C   0  0  0  1  0  0  0  0  0  0  0  0
   -2.0483    4.0481    1.0745 C   0  0  0  1  0  0  0  0  0  0  0  0
   -3.3036    4.1004    0.4984 C   0  0  0  1  0  0  0  0  0  0  0  0
   -3.9244    5.3238    0.2996 C   0  0  0  1  0  0  0  0  0  0  0  0
   -1.4520    2.6918    1.3684 C   0  0  0  1  0  0  0  0  0  0  0  0
   -1.5482    7.3172    1.5346 H   0  0  0  1  0  0  0  0  0  0  0  0
   -0.4617    5.1800    1.8784 H   0  0  0  1  0  0  0  0  0  0  0  0
   -3.7823    3.2220    0.2142 H   0  0  0  1  0  0  0  0  0  0  0  0
   -4.8706    5.3630   -0.1302 H   0  0  0  1  0  0  0  0  0  0  0  0
   -1.7799    2.0054    0.6159 H   0  0  0  1  0  0  0  0  0  0  0  0
   -0.3857    2.7745    1.3362 H   0  0  0  1  0  0  0  0  0  0  0  0
  1  4  1  0  0  0  0
  2  4  1  0  0  0  0
  2  5  2  0  0  0  0
  2  6  1  0  0  0  0
  3  4  1  0  0  0  0
  3  7  1  0  0  0  0
  3  8  1  0  0  0  0
  4 26  1  0  0  0  0
  6  9  1  0  0  0  0
  6 12  1  0  0  0  0
  8 10  1  0  0  0  0
  8 11  2  0  0  0  0
  9 13  1  0  0  0  0
  9 14  1  0  0  0  0
  9 15  1  0  0  0  0
 10 16  1  0  0  0  0
 10 17  1  0  0  0  0
 10 18  1  0  0  0  0
 19 20  1  0  0  0  0
 20 21  4  0  0  0  0
 20 25  4  0  0  0  0
 21 22  4  0  0  0  0
 21 27  1  0  0  0  0
 22 23  4  0  0  0  0
 22 28  1  0  0  0  0
 23 24  4  0  0  0  0
 23 26  1  0  0  0  0
 24 25  4  0  0  0  0
 24 29  1  0  0  0  0
 25 30  1  0  0  0  0
 26 31  1  0  0  0  0
 26 32  1  0  0  0  0
M  END
> <BCLConfClusterSize>
1

> <ConfClashScore>
0 

> <ConfOneFourInteractionScore>
-0.977982 

> <ConfScore>
0.10566 

> <ConfScorePBest>
0.00367564 

> <ConfTolerance>
0.372078 

> <RosettaParamsInstructions>
M  ROOT 3
M  POLY_N_BB 3
M  POLY_CA_BB 4
M  POLY_C_BB 2
M  POLY_O_BB 5
M  POLY_IGNORE 9 10 11 12 13 14 15 16 17 18 
M  POLY_UPPER 6
M  POLY_LOWER 8
M  POLY_CHG 0
M  POLY_PROPERTIES ALPHA_AA L_AA PROTEIN AROMATIC POLYMER 
M  END

$$$$



 32 32  0  0  0  0  0  0  0  0999 V2000
   -0.3463    2.5915   -0.4949 H   0  0  0  1  0  0  0  0  0  0  0  0
   -0.3932    0.6259    0.2716 C   0  0  0  1  0  0  0  0  0  0  0  0
   -2.2801    1.9018   -0.7571 N   0  0  0  1  0  0  0  0  0  0  0  0
   -1.0476    1.9813    0.0349 C   0  0  0  1  0  0  0  0  0  0  0  0
   -0.9810   -0.2694    0.8728 O   0  0  0  1  0  0  0  0  0  0  0  0
    0.8437    0.4859   -0.2138 N   0  0  0  1  0  0  0  0  0  0  0  0
   -3.0764    1.4721   -0.3805 H   0  0  0  1  0  0  0  0  0  0  0  0
   -2.3192    2.4130   -1.9885 C   0  0  0  1  0  0  0  0  0  0  0  0
    1.6113   -0.7388   -0.0442 C   0  0  0  1  0  0  0  0  0  0  0  0
   -3.6252    2.2183   -2.7633 C   0  0  0  1  0  0  0  0  0  0  0  0
   -1.4078    3.0188   -2.5459 O   0  0  0  1  0  0  0  0  0  0  0  0
    1.2481    1.2339   -0.7009 H   0  0  0  1  0  0  0  0  0  0  0  0
    2.3758   -0.5826    0.6880 H   0  0  0  1  0  0  0  0  0  0  0  0
    2.0609   -1.0097   -0.9766 H   0  0  0  1  0  0  0  0  0  0  0  0
    0.9617   -1.5245    0.2808 H   0  0  0  1  0  0  0  0  0  0  0  0
   -3.4707    2.4678   -3.7923 H   0  0  0  1  0  0  0  0  0  0  0  0
   -4.3817    2.8537   -2.3522 H   0  0  0  1  0  0  0  0  0  0  0  0
   -3.9361    1.1973   -2.6870 H   0  0  0  1  0  0  0  0  0  0  0  0
   -3.9116    7.6616    0.4395 F   0  0  0  1  0  0  0  0  0  0  0  0
   -3.2836    6.4921    0.6667 C   0  0  0  1  0  0  0  0  0  0  0  0
   -2.0277    6.4356    1.2507 C   0  0  0  1  0  0  0  0  0  0  0  0
   -1.4173    5.2135    1.4607 C   0  0  0  1  0  0  0  0  0  0  0  0
   -2.0634    4.0439    1.0921 C   0  0  0  1  0  0  0  0  0  0  0  0
   -3.3156    4.0999    0.5098 C   0  0  0  1  0  0  0  0  0  0  0  0
   -3.9277    5.3257    0.2993 C   0  0  0  1  0  0  0  0  0  0  0  0
   -1.3994    2.7076    1.3266 C   0  0  0  1  0  0  0  0  0  0  0  0
   -1.5447    7.3130    1.5309 H   0  0  0  1  0  0  0  0  0  0  0  0
   -0.4733    5.1715    1.8952 H   0  0  0  1  0  0  0  0  0  0  0  0
   -3.7986    3.2225    0.2296 H   0  0  0  1  0  0  0  0  0  0  0  0
   -4.8716    5.3677   -0.1352 H   0  0  0  1  0  0  0  0  0  0  0  0
   -0.4998    2.8673    1.8834 H   0  0  0  1  0  0  0  0  0  0  0  0
   -2.0655    2.0911    1.8934 H   0  0  0  1  0  0  0  0  0  0  0  0
  1  4  1  0  0  0  0
  2  4  1  0  0  0  0
  2  5  2  0  0  0  0
  2  6  1  0  0  0  0
  3  4  1  0  0  0  0
  3  7  1  0  0  0  0
  3  8  1  0  0  0  0
  4 26  1  0  0  0  0
  6  9  1  0  0  0  0
  6 12  1  0  0  0  0
  8 10  1  0  0  0  0
  8 11  2  0  0  0  0
  9 13  1  0  0  0  0
  9 14  1  0  0  0  0
  9 15  1  0  0  0  0
 10 16  1  0  0  0  0
 10 17  1  0  0  0  0
 10 18  1  0  0  0  0
 19 20  1  0  0  0  0
 20 21  4  0  0  0  0
 20 25  4  0  0  0  0
 21 22  4  0  0  0  0
 21 27  1  0  0  0  0
 22 23  4  0  0  0  0
 22 28  1  0  0  0  0
 23 24  4  0  0  0  0
 23 26  1  0  0  0  0
 24 25  4  0  0  0  0
 24 29  1  0  0  0  0
 25 30  1  0  0  0  0
 26 31  1  0  0  0  0
 26 32  1  0  0  0  0
M  END
> <BCLConfClusterSize>
1

> <ConfClashScore>
0 

> <ConfOneFourInteractionScore>
-0.981931 

> <ConfScore>
0.113084 

> <ConfScorePBest>
0.00364716 

> <ConfTolerance>
0.55173 

> <RosettaParamsInstructions>
M  ROOT 3
M  POLY_N_BB 3
M  POLY_CA_BB 4
M  POLY_C_BB 2
M  POLY_O_BB 5
M  POLY_IGNORE 9 10 11 12 13 14 15 16 17 18 
M  POLY_UPPER 6
M  POLY_LOWER 8
M  POLY_CHG 0
M  POLY_PROPERTIES ALPHA_AA L_AA PROTEIN AROMATIC POLYMER 
M  END

$$$$



 32 32  0  0  0  0  0  0  0  0999 V2000
   -1.5679    2.1183   -0.6915 H   0  0  0  1  0  0  0  0  0  0  0  0
    0.3131    3.0532   -0.5646 C   0  0  0  1  0  0  0  0  0  0  0  0
   -0.2733    0.8045    0.2470 N   0  0  0  1  0  0  0  0  0  0  0  0
   -0.7809    2.1739    0.0313 C   0  0  0  1  0  0  0  0  0  0  0  0
    1.5009    2.8816   -0.2762 O   0  0  0  1  0  0  0  0  0  0  0  0
   -0.1005    4.0034   -1.4044 N   0  0  0  1  0  0  0  0  0  0  0  0
    0.6433    0.7082    0.5799 H   0  0  0  1  0  0  0  0  0  0  0  0
   -0.9684   -0.3117    0.0227 C   0  0  0  1  0  0  0  0  0  0  0  0
    0.8118    4.9744   -1.9898 C   0  0  0  1  0  0  0  0  0  0  0  0
   -0.1999   -1.6105    0.2556 C   0  0  0  1  0  0  0  0  0  0  0  0
   -2.1107   -0.3254   -0.4089 O   0  0  0  1  0  0  0  0  0  0  0  0
   -1.0518    4.0493   -1.6352 H   0  0  0  1  0  0  0  0  0  0  0  0
    1.5095    5.3017   -1.2475 H   0  0  0  1  0  0  0  0  0  0  0  0
    0.2553    5.8140   -2.3507 H   0  0  0  1  0  0  0  0  0  0  0  0
    1.3415    4.5214   -2.8017 H   0  0  0  1  0  0  0  0  0  0  0  0
   -0.5333   -2.0646    1.1654 H   0  0  0  1  0  0  0  0  0  0  0  0
    0.8464   -1.3978    0.3260 H   0  0  0  1  0  0  0  0  0  0  0  0
   -0.3744   -2.2792   -0.5612 H   0  0  0  1  0  0  0  0  0  0  0  0
   -3.9116    7.6616    0.4395 F   0  0  0  1  0  0  0  0  0  0  0  0
   -3.2836    6.4921    0.6667 C   0  0  0  1  0  0  0  0  0  0  0  0
   -2.0277    6.4356    1.2507 C   0  0  0  1  0  0  0  0  0  0  0  0
   -1.4173    5.2135    1.4607 C   0  0  0  1  0  0  0  0  0  0  0  0
   -2.0634    4.0439    1.0921 C   0  0  0  1  0  0  0  0  0  0  0  0
   -3.3156    4.0999    0.5098 C   0  0  0  1  0  0  0  0  0  0  0  0
   -3.9277    5.3257    0.2993 C   0  0  0  1  0  0  0  0  0  0  0  0
   -1.3994    2.7076    1.3266 C   0  0  0  1  0  0  0  0  0  0  0  0
   -1.5447    7.3130    1.5309 H   0  0  0  1  0  0  0  0  0  0  0  0
   -0.4733    5.1715    1.8952 H   0  0  0  1  0  0  0  0  0  0  0  0
   -3.7986    3.2225    0.2296 H   0  0  0  1  0  0  0  0  0  0  0  0
   -4.8716    5.3677   -0.1352 H   0  0  0  1  0  0  0  0  0  0  0  0
   -0.6302    2.8222    2.0615 H   0  0  0  1  0  0  0  0  0  0  0  0
   -2.1299    2.0101    1.6799 H   0  0  0  1  0  0  0  0  0  0  0  0
  1  4  1  0  0  0  0
  2  4  1  0  0  0  0
  2  5  2  0  0  0  0
  2  6  1  0  0  0  0
  3  4  1  0  0  0  0
  3  7  1  0  0  0  0
  3  8  1  0  0  0  0
  4 26  1  0  0  0  0
  6  9  1  0  0  0  0
  6 12  1  0  0  0  0
  8 10  1  0  0  0  0
  8 11  2  0  0  0  0
  9 13  1  0  0  0  0
  9 14  1  0  0  0  0
  9 15  1  0  0  0  0
 10 16  1  0  0  0  0
 10 17  1  0  0  0  0
 10 18  1  0  0  0  0
 19 20  1  0  0  0  0
 20 21  4  0  0  0  0
 20 25  4  0  0  0  0
 21 22  4  0  0  0  0
 21 27  1  0  0  0  0
 22 23  4  0  0  0  0
 22 28  1  0  0  0  0
 23 24  4  0  0  0  0
 23 26  1  0  0  0  0
 24 25  4  0  0  0  0
 24 29  1  0  0  0  0
 25 30  1  0  0  0  0
 26 31  1  0  0  0  0
 26 32  1  0  0  0  0
M  END
> <BCLConfClusterSize>
1

> <ConfClashScore>
0 

> <ConfOneFourInteractionScore>
-0.990503 

> <ConfScore>
0.11772 

> <ConfScorePBest>
0.00361868 

> <ConfTolerance>
0.263787 

> <RosettaParamsInstructions>
M  ROOT 3
M  POLY_N_BB 3
M  POLY_CA_BB 4
M  POLY_C_BB 2
M  POLY_O_BB 5
M  POLY_IGNORE 9 10 11 12 13 14 15 16 17 18 
M  POLY_UPPER 6
M  POLY_LOWER 8
M  POLY_CHG 0
M  POLY_PROPERTIES ALPHA_AA L_AA PROTEIN AROMATIC POLYMER 
M  END

$$$$



 32 32  0  0  0  0  0  0  0  0999 V2000
   -0.5843    1.0722    0.2090 H   0  0  0  1  0  0  0  0  0  0  0  0
   -2.5162    1.5208   -0.5795 C   0  0  0  1  0  0  0  0  0  0  0  0
   -0.4964    2.7990   -0.9567 N   0  0  0  1  0  0  0  0  0  0  0  0
   -1.1729    1.9423    0.0056 C   0  0  0  1  0  0  0  0  0  0  0  0
   -3.3873    1.0155    0.1235 O   0  0  0  1  0  0  0  0  0  0  0  0
   -2.6735    1.7384   -1.8941 N   0  0  0  1  0  0  0  0  0  0  0  0
   -0.7580    3.7395   -1.0429 H   0  0  0  1  0  0  0  0  0  0  0  0
    0.4817    2.3056   -1.7238 C   0  0  0  1  0  0  0  0  0  0  0  0
   -3.9424    1.5193   -2.5721 C   0  0  0  1  0  0  0  0  0  0  0  0
    1.0504    3.2566   -2.7589 C   0  0  0  1  0  0  0  0  0  0  0  0
    0.9052    1.1582   -1.6115 O   0  0  0  1  0  0  0  0  0  0  0  0
   -1.9071    2.0560   -2.4159 H   0  0  0  1  0  0  0  0  0  0  0  0
   -4.4526    0.6958   -2.1177 H   0  0  0  1  0  0  0  0  0  0  0  0
   -3.7622    1.3014   -3.6040 H   0  0  0  1  0  0  0  0  0  0  0  0
   -4.5455    2.3996   -2.4929 H   0  0  0  1  0  0  0  0  0  0  0  0
    1.8890    3.7759   -2.3443 H   0  0  0  1  0  0  0  0  0  0  0  0
    0.2993    3.9631   -3.0445 H   0  0  0  1  0  0  0  0  0  0  0  0
    1.3641    2.7018   -3.6183 H   0  0  0  1  0  0  0  0  0  0  0  0
   -3.9151    7.6593    0.4378 F   0  0  0  1  0  0  0  0  0  0  0  0
   -3.2833    6.4921    0.6668 C   0  0  0  1  0  0  0  0  0  0  0  0
   -2.0274    6.4405    1.2512 C   0  0  0  1  0  0  0  0  0  0  0  0
   -1.4131    5.2207    1.4631 C   0  0  0  1  0  0  0  0  0  0  0  0
   -2.0554    4.0484    1.0961 C   0  0  0  1  0  0  0  0  0  0  0  0
   -3.3077    4.0996    0.5134 C   0  0  0  1  0  0  0  0  0  0  0  0
   -3.9236    5.3232    0.3010 C   0  0  0  1  0  0  0  0  0  0  0  0
   -1.4370    2.6868    1.3079 C   0  0  0  1  0  0  0  0  0  0  0  0
   -1.5472    7.3199    1.5302 H   0  0  0  1  0  0  0  0  0  0  0  0
   -0.4691    5.1823    1.8978 H   0  0  0  1  0  0  0  0  0  0  0  0
   -3.7878    3.2203    0.2345 H   0  0  0  1  0  0  0  0  0  0  0  0
   -4.8676    5.3615   -0.1338 H   0  0  0  1  0  0  0  0  0  0  0  0
   -0.5076    2.8113    1.8234 H   0  0  0  1  0  0  0  0  0  0  0  0
   -2.1019    2.1001    1.9068 H   0  0  0  1  0  0  0  0  0  0  0  0
  1  4  1  0  0  0  0
  2  4  1  0  0  0  0
  2  5  2  0  0  0  0
  2  6  1  0  0  0  0
  3  4  1  0  0  0  0
  3  7  1  0  0  0  0
  3  8  1  0  0  0  0
  4 26  1  0  0  0  0
  6  9  1  0  0  0  0
  6 12  1  0  0  0  0
  8 10  1  0  0  0  0
  8 11  2  0  0  0  0
  9 13  1  0  0  0  0
  9 14  1  0  0  0  0
  9 15  1  0  0  0  0
 10 16  1  0  0  0  0
 10 17  1  0  0  0  0
 10 18  1  0  0  0  0
 19 20  1  0  0  0  0
 20 21  4  0  0  0  0
 20 25  4  0  0  0  0
 21 22  4  0  0  0  0
 21 27  1  0  0  0  0
 22 23  4  0  0  0  0
 22 28  1  0  0  0  0
 23 24  4  0  0  0  0
 23 26  1  0  0  0  0
 24 25  4  0  0  0  0
 24 29  1  0  0  0  0
 25 30  1  0  0  0  0
 26 31  1  0  0  0  0
 26 32  1  0  0  0  0
M  END
> <BCLConfClusterSize>
1

> <ConfClashScore>
0 

> <ConfOneFourInteractionScore>
-0.931937 

> <ConfScore>
0.118346 

> <ConfScorePBest>
0.0035902 

> <ConfTolerance>
0.505648 

> <RosettaParamsInstructions>
M  ROOT 3
M  POLY_N_BB 3
M  POLY_CA_BB 4
M  POLY_C_BB 2
M  POLY_O_BB 5
M  POLY_IGNORE 9 10 11 12 13 14 15 16 17 18 
M  POLY_UPPER 6
M  POLY_LOWER 8
M  POLY_CHG 0
M  POLY_PROPERTIES ALPHA_AA L_AA PROTEIN AROMATIC POLYMER 
M  END

$$$$



 32 32  0  0  0  0  0  0  0  0999 V2000
   -1.1285    1.2308    2.8116 H   0  0  0  1  0  0  0  0  0  0  0  0
   -1.4447    3.0480    3.8386 C   0  0  0  1  0  0  0  0  0  0  0  0
   -3.1394    1.6791    2.7753 N   0  0  0  1  0  0  0  0  0  0  0  0
   -1.7475    2.0945    2.6862 C   0  0  0  1  0  0  0  0  0  0  0  0
   -1.9989    4.1431    3.9236 O   0  0  0  1  0  0  0  0  0  0  0  0
   -0.5462    2.6119    4.7356 N   0  0  0  1  0  0  0  0  0  0  0  0
   -3.8248    2.3361    2.5325 H   0  0  0  1  0  0  0  0  0  0  0  0
   -3.5549    0.4642    3.1649 C   0  0  0  1  0  0  0  0  0  0  0  0
   -0.1653    3.3979    5.8996 C   0  0  0  1  0  0  0  0  0  0  0  0
   -5.0573    0.2779    3.2499 C   0  0  0  1  0  0  0  0  0  0  0  0
   -2.7814   -0.4521    3.4398 O   0  0  0  1  0  0  0  0  0  0  0  0
   -0.1324    1.7336    4.6019 H   0  0  0  1  0  0  0  0  0  0  0  0
   -0.9904    3.4535    6.5786 H   0  0  0  1  0  0  0  0  0  0  0  0
    0.1082    4.3847    5.5894 H   0  0  0  1  0  0  0  0  0  0  0  0
    0.6664    2.9333    6.3868 H   0  0  0  1  0  0  0  0  0  0  0  0
   -5.4455    0.8674    4.0541 H   0  0  0  1  0  0  0  0  0  0  0  0
   -5.2791   -0.7541    3.4251 H   0  0  0  1  0  0  0  0  0  0  0  0
   -5.5076    0.5889    2.3304 H   0  0  0  1  0  0  0  0  0  0  0  0
   -3.8878    7.6762    0.4515 F   0  0  0  1  0  0  0  0  0  0  0  0
   -3.2890    6.4887    0.6640 C   0  0  0  1  0  0  0  0  0  0  0  0
   -2.0330    6.4405    1.2486 C   0  0  0  1  0  0  0  0  0  0  0  0
   -1.4161    5.2223    1.4618 C   0  0  0  1  0  0  0  0  0  0  0  0
   -2.0557    4.0482    1.0959 C   0  0  0  1  0  0  0  0  0  0  0  0
   -3.3080    4.0960    0.5131 C   0  0  0  1  0  0  0  0  0  0  0  0
   -3.9267    5.3180    0.2992 C   0  0  0  1  0  0  0  0  0  0  0  0
   -1.4343    2.6881    1.3092 C   0  0  0  1  0  0  0  0  0  0  0  0
   -1.5548    7.3212    1.5267 H   0  0  0  1  0  0  0  0  0  0  0  0
   -0.4721    5.1864    1.8967 H   0  0  0  1  0  0  0  0  0  0  0  0
   -3.7862    3.2153    0.2349 H   0  0  0  1  0  0  0  0  0  0  0  0
   -4.8707    5.3538   -0.1357 H   0  0  0  1  0  0  0  0  0  0  0  0
   -1.8062    2.0223    0.5587 H   0  0  0  1  0  0  0  0  0  0  0  0
   -0.3727    2.7796    1.2112 H   0  0  0  1  0  0  0  0  0  0  0  0
  1  4  1  0  0  0  0
  2  4  1  0  0  0  0
  2  5  2  0  0  0  0
  2  6  1  0  0  0  0
  3  4  1  0  0  0  0
  3  7  1  0  0  0  0
  3  8  1  0  0  0  0
  4 26  1  0  0  0  0
  6  9  1  0  0  0  0
  6 12  1  0  0  0  0
  8 10  1  0  0  0  0
  8 11  2  0  0  0  0
  9 13  1  0  0  0  0
  9 14  1  0  0  0  0
  9 15  1  0  0  0  0
 10 16  1  0  0  0  0
 10 17  1  0  0  0  0
 10 18  1  0  0  0  0
 19 20  1  0  0  0  0
 20 21  4  0  0  0  0
 20 25  4  0  0  0  0
 21 22  4  0  0  0  0
 21 27  1  0  0  0  0
 22 23  4  0  0  0  0
 22 28  1  0  0  0  0
 23 24  4  0  0  0  0
 23 26  1  0  0  0  0
 24 25  4  0  0  0  0
 24 29  1  0  0  0  0
 25 30  1  0  0  0  0
 26 31  1  0  0  0  0
 26 32  1  0  0  0  0
M  END
> <BCLConfClusterSize>
1

> <ConfClashScore>
0 

> <ConfOneFourInteractionScore>
-0.982563 

> <ConfScore>
0.122842 

> <ConfScorePBest>
0.00356172 

> <ConfTolerance>
0.51583 

> <RosettaParamsInstructions>
M  ROOT 3
M  POLY_N_BB 3
M  POLY_CA_BB 4
M  POLY_C_BB 2
M  POLY_O_BB 5
M  POLY_IGNORE 9 10 11 12 13 14 15 16 17 18 
M  POLY_UPPER 6
M  POLY_LOWER 8
M  POLY_CHG 0
M  POLY_PROPERTIES ALPHA_AA L_AA PROTEIN AROMATIC POLYMER 
M  END

$$$$



 32 32  0  0  0  0  0  0  0  0999 V2000
   -1.6772    0.8638    2.3029 H   0  0  0  1  0  0  0  0  0  0  0  0
   -2.6186    2.3240    3.4840 C   0  0  0  1  0  0  0  0  0  0  0  0
   -3.4354    1.3633    1.3537 N   0  0  0  1  0  0  0  0  0  0  0  0
   -2.2604    1.7440    2.1296 C   0  0  0  1  0  0  0  0  0  0  0  0
   -3.6633    2.9298    3.6571 O   0  0  0  1  0  0  0  0  0  0  0  0
   -1.7184    2.1255    4.4599 N   0  0  0  1  0  0  0  0  0  0  0  0
   -4.3044    1.7712    1.5505 H   0  0  0  1  0  0  0  0  0  0  0  0
   -3.3293    0.4596    0.3754 C   0  0  0  1  0  0  0  0  0  0  0  0
   -1.9096    2.6359    5.8093 C   0  0  0  1  0  0  0  0  0  0  0  0
   -4.6144    0.1294   -0.3585 C   0  0  0  1  0  0  0  0  0  0  0  0
   -2.2656   -0.0807    0.0750 O   0  0  0  1  0  0  0  0  0  0  0  0
   -0.9043    1.6194    4.2566 H   0  0  0  1  0  0  0  0  0  0  0  0
   -2.7549    2.1558    6.2564 H   0  0  0  1  0  0  0  0  0  0  0  0
   -2.0787    3.6917    5.7704 H   0  0  0  1  0  0  0  0  0  0  0  0
   -1.0357    2.4354    6.3933 H   0  0  0  1  0  0  0  0  0  0  0  0
   -5.2702    0.9744   -0.3284 H   0  0  0  1  0  0  0  0  0  0  0  0
   -5.0886   -0.7067    0.1116 H   0  0  0  1  0  0  0  0  0  0  0  0
   -4.3914   -0.1125   -1.3767 H   0  0  0  1  0  0  0  0  0  0  0  0
   -3.8843    7.6784    0.4533 F   0  0  0  1  0  0  0  0  0  0  0  0
   -3.2892    6.4887    0.6639 C   0  0  0  1  0  0  0  0  0  0  0  0
   -2.0333    6.4356    1.2481 C   0  0  0  1  0  0  0  0  0  0  0  0
   -1.4202    5.2151    1.4594 C   0  0  0  1  0  0  0  0  0  0  0  0
   -2.0637    4.0436    1.0920 C   0  0  0  1  0  0  0  0  0  0  0  0
   -3.3160    4.0963    0.5094 C   0  0  0  1  0  0  0  0  0  0  0  0
   -3.9307    5.3205    0.2975 C   0  0  0  1  0  0  0  0  0  0  0  0
   -1.3968    2.7090    1.3279 C   0  0  0  1  0  0  0  0  0  0  0  0
   -1.5523    7.3143    1.5275 H   0  0  0  1  0  0  0  0  0  0  0  0
   -0.4762    5.1756    1.8941 H   0  0  0  1  0  0  0  0  0  0  0  0
   -3.7969    3.2175    0.2300 H   0  0  0  1  0  0  0  0  0  0  0  0
   -4.8747    5.3600   -0.1371 H   0  0  0  1  0  0  0  0  0  0  0  0
   -1.1798    2.2643    0.3792 H   0  0  0  1  0  0  0  0  0  0  0  0
   -0.4845    2.8739    1.8621 H   0  0  0  1  0  0  0  0  0  0  0  0
  1  4  1  0  0  0  0
  2  4  1  0  0  0  0
  2  5  2  0  0  0  0
  2  6  1  0  0  0  0
  3  4  1  0  0  0  0
  3  7  1  0  0  0  0
  3  8  1  0  0  0  0
  4 26  1  0  0  0  0
  6  9  1  0  0  0  0
  6 12  1  0  0  0  0
  8 10  1  0  0  0  0
  8 11  2  0  0  0  0
  9 13  1  0  0  0  0
  9 14  1  0  0  0  0
  9 15  1  0  0  0  0
 10 16  1  0  0  0  0
 10 17  1  0  0  0  0
 10 18  1  0  0  0  0
 19 20  1  0  0  0  0
 20 21  4  0  0  0  0
 20 25  4  0  0  0  0
 21 22  4  0  0  0  0
 21 27  1  0  0  0  0
 22 23  4  0  0  0  0
 22 28  1  0  0  0  0
 23 24  4  0  0  0  0
 23 26  1  0  0  0  0
 24 25  4  0  0  0  0
 24 29  1  0  0  0  0
 25 30  1  0  0  0  0
 26 31  1  0  0  0  0
 26 32  1  0  0  0  0
M  END
> <BCLConfClusterSize>
1

> <ConfClashScore>
0 

> <ConfOneFourInteractionScore>
-0.987258 

> <ConfScore>
0.124782 

> <ConfScorePBest>
0.00353324 

> <ConfTolerance>
0.444158 

> <RosettaParamsInstructions>
M  ROOT 3
M  POLY_N_BB 3
M  POLY_CA_BB 4
M  POLY_C_BB 2
M  POLY_O_BB 5
M  POLY_IGNORE 9 10 11 12 13 14 15 16 17 18 
M  POLY_UPPER 6
M  POLY_LOWER 8
M  POLY_CHG 0
M  POLY_PROPERTIES ALPHA_AA L_AA PROTEIN AROMATIC POLYMER 
M  END

$$$$



 32 32  0  0  0  0  0  0  0  0999 V2000
    0.2632    1.7001    2.1339 H   0  0  0  1  0  0  0  0  0  0  0  0
    1.0170    3.2694    0.9586 C   0  0  0  1  0  0  0  0  0  0  0  0
   -0.0152    3.4373    3.1994 N   0  0  0  1  0  0  0  0  0  0  0  0
   -0.0034    2.7171    1.9349 C   0  0  0  1  0  0  0  0  0  0  0  0
    1.3010    4.4660    0.9410 O   0  0  0  1  0  0  0  0  0  0  0  0
    1.5767    2.3730    0.1308 N   0  0  0  1  0  0  0  0  0  0  0  0
    0.2618    4.3773    3.2110 H   0  0  0  1  0  0  0  0  0  0  0  0
   -0.3906    2.8616    4.3452 C   0  0  0  1  0  0  0  0  0  0  0  0
    2.6592    2.6597   -0.7986 C   0  0  0  1  0  0  0  0  0  0  0  0
   -0.3715    3.7900    5.5661 C   0  0  0  1  0  0  0  0  0  0  0  0
   -0.8007    1.7167    4.4420 O   0  0  0  1  0  0  0  0  0  0  0  0
    1.2302    1.4566    0.1541 H   0  0  0  1  0  0  0  0  0  0  0  0
    3.3096    3.3954   -0.3736 H   0  0  0  1  0  0  0  0  0  0  0  0
    2.2524    3.0309   -1.7160 H   0  0  0  1  0  0  0  0  0  0  0  0
    3.2116    1.7634   -0.9897 H   0  0  0  1  0  0  0  0  0  0  0  0
   -1.0749    4.5835    5.4225 H   0  0  0  1  0  0  0  0  0  0  0  0
    0.6093    4.2006    5.6863 H   0  0  0  1  0  0  0  0  0  0  0  0
   -0.6355    3.2337    6.4411 H   0  0  0  1  0  0  0  0  0  0  0  0
   -3.8843    7.6784    0.4533 F   0  0  0  1  0  0  0  0  0  0  0  0
   -3.2892    6.4887    0.6639 C   0  0  0  1  0  0  0  0  0  0  0  0
   -2.0333    6.4356    1.2481 C   0  0  0  1  0  0  0  0  0  0  0  0
   -1.4202    5.2151    1.4594 C   0  0  0  1  0  0  0  0  0  0  0  0
   -2.0637    4.0436    1.0920 C   0  0  0  1  0  0  0  0  0  0  0  0
   -3.3160    4.0963    0.5094 C   0  0  0  1  0  0  0  0  0  0  0  0
   -3.9307    5.3205    0.2975 C   0  0  0  1  0  0  0  0  0  0  0  0
   -1.3968    2.7090    1.3279 C   0  0  0  1  0  0  0  0  0  0  0  0
   -1.5523    7.3143    1.5275 H   0  0  0  1  0  0  0  0  0  0  0  0
   -0.4762    5.1756    1.8941 H   0  0  0  1  0  0  0  0  0  0  0  0
   -3.7969    3.2175    0.2300 H   0  0  0  1  0  0  0  0  0  0  0  0
   -4.8747    5.3600   -0.1371 H   0  0  0  1  0  0  0  0  0  0  0  0
   -2.0284    2.1470    1.9837 H   0  0  0  1  0  0  0  0  0  0  0  0
   -1.3313    2.2123    0.3825 H   0  0  0  1  0  0  0  0  0  0  0  0
  1  4  1  0  0  0  0
  2  4  1  0  0  0  0
  2  5  2  0  0  0  0
  2  6  1  0  0  0  0
  3  4  1  0  0  0  0
  3  7  1  0  0  0  0
  3  8  1  0  0  0  0
  4 26  1  0  0  0  0
  6  9  1  0  0  0  0
  6 12  1  0  0  0  0
  8 10  1  0  0  0  0
  8 11  2  0  0  0  0
  9 13  1  0  0  0  0
  9 14  1  0  0  0  0
  9 15  1  0  0  0  0
 10 16  1  0  0  0  0
 10 17  1  0  0  0  0
 10 18  1  0  0  0  0
 19 20  1  0  0  0  0
 20 21  4  0  0  0  0
 20 25  4  0  0  0  0
 21 22  4  0  0  0  0
 21 27  1  0  0  0  0
 22 23  4  0  0  0  0
 22 28  1  0  0  0  0
 23 24  4  0  0  0  0
 23 26  1  0  0  0  0
 24 25  4  0  0  0  0
 24 29  1  0  0  0  0
 25 30  1  0  0  0  0
 26 31  1  0  0  0  0
 26 32  1  0  0  0  0
M  END
> <BCLConfClusterSize>
1

> <ConfClashScore>
0 

> <ConfOneFourInteractionScore>
-0.973348 

> <ConfScore>
0.125771 

> <ConfScorePBest>
0.00350476 

> <ConfTolerance>
0.657824 

> <RosettaParamsInstructions>
M  ROOT 3
M  POLY_N_BB 3
M  POLY_CA_BB 4
M  POLY_C_BB 2
M  POLY_O_BB 5
M  POLY_IGNORE 9 10 11 12 13 14 15 16 17 18 
M  POLY_UPPER 6
M  POLY_LOWER 8
M  POLY_CHG 0
M  POLY_PROPERTIES ALPHA_AA L_AA PROTEIN AROMATIC POLYMER 
M  END

$$$$



 32 32  0  0  0  0  0  0  0  0999 V2000
   -0.3221    2.8742   -0.5542 H   0  0  0  1  0  0  0  0  0  0  0  0
    1.0063    3.5517    0.9327 C   0  0  0  1  0  0  0  0  0  0  0  0
    0.4343    1.2494    0.4618 N   0  0  0  1  0  0  0  0  0  0  0  0
   -0.0850    2.6089    0.4549 C   0  0  0  1  0  0  0  0  0  0  0  0
    1.5460    3.3895    2.0263 O   0  0  0  1  0  0  0  0  0  0  0  0
    1.3609    4.5597    0.1307 N   0  0  0  1  0  0  0  0  0  0  0  0
   -0.0490    0.5825    0.9929 H   0  0  0  1  0  0  0  0  0  0  0  0
    1.5295    0.8387   -0.2069 C   0  0  0  1  0  0  0  0  0  0  0  0
    2.4845    5.4343    0.4317 C   0  0  0  1  0  0  0  0  0  0  0  0
    1.9501   -0.5797    0.1254 C   0  0  0  1  0  0  0  0  0  0  0  0
    2.1531    1.5233   -1.0169 O   0  0  0  1  0  0  0  0  0  0  0  0
    0.8465    4.7156   -0.6888 H   0  0  0  1  0  0  0  0  0  0  0  0
    2.3257    5.9066    1.3786 H   0  0  0  1  0  0  0  0  0  0  0  0
    2.5685    6.1815   -0.3296 H   0  0  0  1  0  0  0  0  0  0  0  0
    3.3852    4.8579    0.4675 H   0  0  0  1  0  0  0  0  0  0  0  0
    2.2302   -0.6369    1.1565 H   0  0  0  1  0  0  0  0  0  0  0  0
    2.7833   -0.8569   -0.4861 H   0  0  0  1  0  0  0  0  0  0  0  0
    1.1338   -1.2462   -0.0597 H   0  0  0  1  0  0  0  0  0  0  0  0
   -3.8485    7.6945    0.4489 F   0  0  0  1  0  0  0  0  0  0  0  0
   -3.2922    6.4855    0.6555 C   0  0  0  1  0  0  0  0  0  0  0  0
   -2.0392    6.4363    1.2464 C   0  0  0  1  0  0  0  0  0  0  0  0
   -1.4288    5.2170    1.4721 C   0  0  0  1  0  0  0  0  0  0  0  0
   -2.0721    4.0430    1.1125 C   0  0  0  1  0  0  0  0  0  0  0  0
   -3.3214    4.0918    0.5233 C   0  0  0  1  0  0  0  0  0  0  0  0
   -3.9334    5.3148    0.2969 C   0  0  0  1  0  0  0  0  0  0  0  0
   -1.3759    2.7120    1.2716 C   0  0  0  1  0  0  0  0  0  0  0  0
   -1.5584    7.3170    1.5199 H   0  0  0  1  0  0  0  0  0  0  0  0
   -0.4871    5.1804    1.9118 H   0  0  0  1  0  0  0  0  0  0  0  0
   -3.8022    3.2111    0.2498 H   0  0  0  1  0  0  0  0  0  0  0  0
   -4.8752    5.3514   -0.1427 H   0  0  0  1  0  0  0  0  0  0  0  0
   -1.1368    2.5741    2.3054 H   0  0  0  1  0  0  0  0  0  0  0  0
   -2.0431    1.9385    0.9531 H   0  0  0  1  0  0  0  0  0  0  0  0
  1  4  1  0  0  0  0
  2  4  1  0  0  0  0
  2  5  2  0  0  0  0
  2  6  1  0  0  0  0
  3  4  1  0  0  0  0
  3  7  1  0  0  0  0
  3  8  1  0  0  0  0
  4 26  1  0  0  0  0
  6  9  1  0  0  0  0
  6 12  1  0  0  0  0
  8 10  1  0  0  0  0
  8 11  2  0  0  0  0
  9 13  1  0  0  0  0
  9 14  1  0  0  0  0
  9 15  1  0  0  0  0
 10 16  1  0  0  0  0
 10 17  1  0  0  0  0
 10 18  1  0  0  0  0
 19 20  1  0  0  0  0
 20 21  4  0  0  0  0
 20 25  4  0  0  0  0
 21 22  4  0  0  0  0
 21 27  1  0  0  0  0
 22 23  4  0  0  0  0
 22 28  1  0  0  0  0
 23 24  4  0  0  0  0
 23 26  1  0  0  0  0
 24 25  4  0  0  0  0
 24 29  1  0  0  0  0
 25 30  1  0  0  0  0
 26 31  1  0  0  0  0
 26 32  1  0  0  0  0
M  END
> <BCLConfClusterSize>
1

> <ConfClashScore>
0 

> <ConfOneFourInteractionScore>
-0.985807 

> <ConfScore>
0.129018 

> <ConfScorePBest>
0.00347628 

> <ConfTolerance>
0.535575 

> <RosettaParamsInstructions>
M  ROOT 3
M  POLY_N_BB 3
M  POLY_CA_BB 4
M  POLY_C_BB 2
M  POLY_O_BB 5
M  POLY_IGNORE 9 10 11 12 13 14 15 16 17 18 
M  POLY_UPPER 6
M  POLY_LOWER 8
M  POLY_CHG 0
M  POLY_PROPERTIES ALPHA_AA L_AA PROTEIN AROMATIC POLYMER 
M  END

$$$$



 32 32  0  0  0  0  0  0  0  0999 V2000
   -2.7246    2.3920    2.9137 H   0  0  0  1  0  0  0  0  0  0  0  0
   -3.1701    0.9740    1.4390 C   0  0  0  1  0  0  0  0  0  0  0  0
   -1.3104    0.9130    3.0372 N   0  0  0  1  0  0  0  0  0  0  0  0
   -2.1645    1.7793    2.2385 C   0  0  0  1  0  0  0  0  0  0  0  0
   -4.3068    1.3368    1.1983 O   0  0  0  1  0  0  0  0  0  0  0  0
   -2.6937   -0.1994    1.0082 N   0  0  0  1  0  0  0  0  0  0  0  0
   -0.3372    1.0244    3.0083 H   0  0  0  1  0  0  0  0  0  0  0  0
   -1.8556   -0.0431    3.8175 C   0  0  0  1  0  0  0  0  0  0  0  0
   -3.4052   -1.2170    0.2493 C   0  0  0  1  0  0  0  0  0  0  0  0
   -0.9289   -0.8592    4.6975 C   0  0  0  1  0  0  0  0  0  0  0  0
   -3.0686   -0.2488    3.8168 O   0  0  0  1  0  0  0  0  0  0  0  0
   -1.7593   -0.3961    1.2287 H   0  0  0  1  0  0  0  0  0  0  0  0
   -2.7366   -1.6737   -0.4502 H   0  0  0  1  0  0  0  0  0  0  0  0
   -4.2185   -0.7644   -0.2785 H   0  0  0  1  0  0  0  0  0  0  0  0
   -3.7837   -1.9612    0.9185 H   0  0  0  1  0  0  0  0  0  0  0  0
    0.0863   -0.6765    4.4133 H   0  0  0  1  0  0  0  0  0  0  0  0
   -1.1503   -1.8995    4.5800 H   0  0  0  1  0  0  0  0  0  0  0  0
   -1.0689   -0.5775    5.7202 H   0  0  0  1  0  0  0  0  0  0  0  0
   -3.8810    7.6803    0.4549 F   0  0  0  1  0  0  0  0  0  0  0  0
   -3.2894    6.4885    0.6638 C   0  0  0  1  0  0  0  0  0  0  0  0
   -2.0335    6.4309    1.2477 C   0  0  0  1  0  0  0  0  0  0  0  0
   -1.4240    5.2083    1.4572 C   0  0  0  1  0  0  0  0  0  0  0  0
   -2.0710    4.0392    1.0883 C   0  0  0  1  0  0  0  0  0  0  0  0
   -3.3233    4.0964    0.5060 C   0  0  0  1  0  0  0  0  0  0  0  0
   -3.9344    5.3227    0.2959 C   0  0  0  1  0  0  0  0  0  0  0  0
   -1.3626    2.7301    1.3451 C   0  0  0  1  0  0  0  0  0  0  0  0
   -1.5498    7.3078    1.5282 H   0  0  0  1  0  0  0  0  0  0  0  0
   -0.4801    5.1654    1.8917 H   0  0  0  1  0  0  0  0  0  0  0  0
   -3.8069    3.2194    0.2255 H   0  0  0  1  0  0  0  0  0  0  0  0
   -4.8783    5.3657   -0.1385 H   0  0  0  1  0  0  0  0  0  0  0  0
   -1.1868    2.2481    0.4061 H   0  0  0  1  0  0  0  0  0  0  0  0
   -0.4269    2.9369    1.8212 H   0  0  0  1  0  0  0  0  0  0  0  0
  1  4  1  0  0  0  0
  2  4  1  0  0  0  0
  2  5  2  0  0  0  0
  2  6  1  0  0  0  0
  3  4  1  0  0  0  0
  3  7  1  0  0  0  0
  3  8  1  0  0  0  0
  4 26  1  0  0  0  0
  6  9  1  0  0  0  0
  6 12  1  0  0  0  0
  8 10  1  0  0  0  0
  8 11  2  0  0  0  0
  9 13  1  0  0  0  0
  9 14  1  0  0  0  0
  9 15  1  0  0  0  0
 10 16  1  0  0  0  0
 10 17  1  0  0  0  0
 10 18  1  0  0  0  0
 19 20  1  0  0  0  0
 20 21  4  0  0  0  0
 20 25  4  0  0  0  0
 21 22  4  0  0  0  0
 21 27  1  0  0  0  0
 22 23  4  0  0  0  0
 22 28  1  0  0  0  0
 23 24  4  0  0  0  0
 23 26  1  0  0  0  0
 24 25  4  0  0  0  0
 24 29  1  0  0  0  0
 25 30  1  0  0  0  0
 26 31  1  0  0  0  0
 26 32  1  0  0  0  0
M  END
> <BCLConfClusterSize>
1

> <ConfClashScore>
0 

> <ConfOneFourInteractionScore>
-0.952709 

> <ConfScore>
0.12949 

> <ConfScorePBest>
0.0034478 

> <ConfTolerance>
0.727861 

> <RosettaParamsInstructions>
M  ROOT 3
M  POLY_N_BB 3
M  POLY_CA_BB 4
M  POLY_C_BB 2
M  POLY_O_BB 5
M  POLY_IGNORE 9 10 11 12 13 14 15 16 17 18 
M  POLY_UPPER 6
M  POLY_LOWER 8
M  POLY_CHG 0
M  POLY_PROPERTIES ALPHA_AA L_AA PROTEIN AROMATIC POLYMER 
M  END

$$$$



 32 32  0  0  0  0  0  0  0  0999 V2000
   -3.1598    1.5159    1.4084 H   0  0  0  1  0  0  0  0  0  0  0  0
   -2.4386    1.5366   -0.6012 C   0  0  0  1  0  0  0  0  0  0  0  0
   -1.4724    0.2995    1.2878 N   0  0  0  1  0  0  0  0  0  0  0  0
   -2.2134    1.4936    0.9097 C   0  0  0  1  0  0  0  0  0  0  0  0
   -1.4993    1.6794   -1.3829 O   0  0  0  1  0  0  0  0  0  0  0  0
   -3.7119    1.4095   -1.0046 N   0  0  0  1  0  0  0  0  0  0  0  0
   -0.5378    0.2138    1.0057 H   0  0  0  1  0  0  0  0  0  0  0  0
   -2.0209   -0.6822    2.0052 C   0  0  0  1  0  0  0  0  0  0  0  0
   -4.0867    1.4211   -2.4108 C   0  0  0  1  0  0  0  0  0  0  0  0
   -1.1468   -1.9137    2.2206 C   0  0  0  1  0  0  0  0  0  0  0  0
   -3.1576   -0.6166    2.4713 O   0  0  0  1  0  0  0  0  0  0  0  0
   -4.4140    1.3053   -0.3289 H   0  0  0  1  0  0  0  0  0  0  0  0
   -5.0038    1.9590   -2.5316 H   0  0  0  1  0  0  0  0  0  0  0  0
   -4.2154    0.4157   -2.7536 H   0  0  0  1  0  0  0  0  0  0  0  0
   -3.3165    1.8971   -2.9810 H   0  0  0  1  0  0  0  0  0  0  0  0
   -0.7296   -2.2236    1.2853 H   0  0  0  1  0  0  0  0  0  0  0  0
   -1.7409   -2.7060    2.6259 H   0  0  0  1  0  0  0  0  0  0  0  0
   -0.3568   -1.6753    2.9017 H   0  0  0  1  0  0  0  0  0  0  0  0
   -3.9116    7.6616    0.4395 F   0  0  0  1  0  0  0  0  0  0  0  0
   -3.2836    6.4921    0.6667 C   0  0  0  1  0  0  0  0  0  0  0  0
   -2.0277    6.4356    1.2507 C   0  0  0  1  0  0  0  0  0  0  0  0
   -1.4173    5.2135    1.4607 C   0  0  0  1  0  0  0  0  0  0  0  0
   -2.0634    4.0439    1.0921 C   0  0  0  1  0  0  0  0  0  0  0  0
   -3.3156    4.0999    0.5098 C   0  0  0  1  0  0  0  0  0  0  0  0
   -3.9277    5.3257    0.2993 C   0  0  0  1  0  0  0  0  0  0  0  0
   -1.3994    2.7076    1.3266 C   0  0  0  1  0  0  0  0  0  0  0  0
   -1.5447    7.3130    1.5309 H   0  0  0  1  0  0  0  0  0  0  0  0
   -0.4733    5.1715    1.8952 H   0  0  0  1  0  0  0  0  0  0  0  0
   -3.7986    3.2225    0.2296 H   0  0  0  1  0  0  0  0  0  0  0  0
   -4.8716    5.3677   -0.1352 H   0  0  0  1  0  0  0  0  0  0  0  0
   -0.4815    2.6941    0.7770 H   0  0  0  1  0  0  0  0  0  0  0  0
   -1.1907    2.6217    2.3725 H   0  0  0  1  0  0  0  0  0  0  0  0
  1  4  1  0  0  0  0
  2  4  1  0  0  0  0
  2  5  2  0  0  0  0
  2  6  1  0  0  0  0
  3  4  1  0  0  0  0
  3  7  1  0  0  0  0
  3  8  1  0  0  0  0
  4 26  1  0  0  0  0
  6  9  1  0  0  0  0
  6 12  1  0  0  0  0
  8 10  1  0  0  0  0
  8 11  2  0  0  0  0
  9 13  1  0  0  0  0
  9 14  1  0  0  0  0
  9 15  1  0  0  0  0
 10 16  1  0  0  0  0
 10 17  1  0  0  0  0
 10 18  1  0  0  0  0
 19 20  1  0  0  0  0
 20 21  4  0  0  0  0
 20 25  4  0  0  0  0
 21 22  4  0  0  0  0
 21 27  1  0  0  0  0
 22 23  4  0  0  0  0
 22 28  1  0  0  0  0
 23 24  4  0  0  0  0
 23 26  1  0  0  0  0
 24 25  4  0  0  0  0
 24 29  1  0  0  0  0
 25 30  1  0  0  0  0
 26 31  1  0  0  0  0
 26 32  1  0  0  0  0
M  END
> <BCLConfClusterSize>
1

> <ConfClashScore>
0 

> <ConfOneFourInteractionScore>
-0.967818 

> <ConfScore>
0.129884 

> <ConfScorePBest>
0.00341932 

> <ConfTolerance>
0.546177 

> <RosettaParamsInstructions>
M  ROOT 3
M  POLY_N_BB 3
M  POLY_CA_BB 4
M  POLY_C_BB 2
M  POLY_O_BB 5
M  POLY_IGNORE 9 10 11 12 13 14 15 16 17 18 
M  POLY_UPPER 6
M  POLY_LOWER 8
M  POLY_CHG 0
M  POLY_PROPERTIES ALPHA_AA L_AA PROTEIN AROMATIC POLYMER 
M  END

$$$$



 32 32  0  0  0  0  0  0  0  0999 V2000
   -0.9515    2.2744   -0.7010 H   0  0  0  1  0  0  0  0  0  0  0  0
    0.6655    3.3864    0.0766 C   0  0  0  1  0  0  0  0  0  0  0  0
    0.1956    1.0312    0.4880 N   0  0  0  1  0  0  0  0  0  0  0  0
   -0.4099    2.3272    0.2203 C   0  0  0  1  0  0  0  0  0  0  0  0
    1.4076    3.6742    1.0148 O   0  0  0  1  0  0  0  0  0  0  0  0
    0.7467    3.9757   -1.1269 N   0  0  0  1  0  0  0  0  0  0  0  0
    1.0560    0.9988    0.9560 H   0  0  0  1  0  0  0  0  0  0  0  0
   -0.3808   -0.1159    0.1179 C   0  0  0  1  0  0  0  0  0  0  0  0
    1.8034    4.9188   -1.4610 C   0  0  0  1  0  0  0  0  0  0  0  0
    0.4474   -1.3922    0.2690 C   0  0  0  1  0  0  0  0  0  0  0  0
   -1.4857   -0.1562   -0.3980 O   0  0  0  1  0  0  0  0  0  0  0  0
    0.0708    3.7633   -1.8040 H   0  0  0  1  0  0  0  0  0  0  0  0
    2.6693    4.7097   -0.8682 H   0  0  0  1  0  0  0  0  0  0  0  0
    1.4677    5.9152   -1.2625 H   0  0  0  1  0  0  0  0  0  0  0  0
    2.0502    4.8249   -2.4979 H   0  0  0  1  0  0  0  0  0  0  0  0
    1.4719   -1.1821    0.0428 H   0  0  0  1  0  0  0  0  0  0  0  0
    0.0793   -2.1378   -0.4044 H   0  0  0  1  0  0  0  0  0  0  0  0
    0.3706   -1.7499    1.2746 H   0  0  0  1  0  0  0  0  0  0  0  0
   -3.8843    7.6784    0.4533 F   0  0  0  1  0  0  0  0  0  0  0  0
   -3.2892    6.4887    0.6639 C   0  0  0  1  0  0  0  0  0  0  0  0
   -2.0333    6.4356    1.2481 C   0  0  0  1  0  0  0  0  0  0  0  0
   -1.4202    5.2151    1.4594 C   0  0  0  1  0  0  0  0  0  0  0  0
   -2.0637    4.0436    1.0920 C   0  0  0  1  0  0  0  0  0  0  0  0
   -3.3160    4.0963    0.5094 C   0  0  0  1  0  0  0  0  0  0  0  0
   -3.9307    5.3205    0.2975 C   0  0  0  1  0  0  0  0  0  0  0  0
   -1.3968    2.7090    1.3279 C   0  0  0  1  0  0  0  0  0  0  0  0
   -1.5523    7.3143    1.5275 H   0  0  0  1  0  0  0  0  0  0  0  0
   -0.4762    5.1756    1.8941 H   0  0  0  1  0  0  0  0  0  0  0  0
   -3.7969    3.2175    0.2300 H   0  0  0  1  0  0  0  0  0  0  0  0
   -4.8747    5.3600   -0.1371 H   0  0  0  1  0  0  0  0  0  0  0  0
   -0.8666    2.7527    2.2563 H   0  0  0  1  0  0  0  0  0  0  0  0
   -2.1540    1.9552    1.3841 H   0  0  0  1  0  0  0  0  0  0  0  0
  1  4  1  0  0  0  0
  2  4  1  0  0  0  0
  2  5  2  0  0  0  0
  2  6  1  0  0  0  0
  3  4  1  0  0  0  0
  3  7  1  0  0  0  0
  3  8  1  0  0  0  0
  4 26  1  0  0  0  0
  6  9  1  0  0  0  0
  6 12  1  0  0  0  0
  8 10  1  0  0  0  0
  8 11  2  0  0  0  0
  9 13  1  0  0  0  0
  9 14  1  0  0  0  0
  9 15  1  0  0  0  0
 10 16  1  0  0  0  0
 10 17  1  0  0  0  0
 10 18  1  0  0  0  0
 19 20  1  0  0  0  0
 20 21  4  0  0  0  0
 20 25  4  0  0  0  0
 21 22  4  0  0  0  0
 21 27  1  0  0  0  0
 22 23  4  0  0  0  0
 22 28  1  0  0  0  0
 23 24  4  0  0  0  0
 23 26  1  0  0  0  0
 24 25  4  0  0  0  0
 24 29  1  0  0  0  0
 25 30  1  0  0  0  0
 26 31  1  0  0  0  0
 26 32  1  0  0  0  0
M  END
> <BCLConfClusterSize>
1

> <ConfClashScore>
0 

> <ConfOneFourInteractionScore>
-0.986456 

> <ConfScore>
0.137116 

> <ConfScorePBest>
0.00339084 

> <ConfTolerance>
0.437336 

> <RosettaParamsInstructions>
M  ROOT 3
M  POLY_N_BB 3
M  POLY_CA_BB 4
M  POLY_C_BB 2
M  POLY_O_BB 5
M  POLY_IGNORE 9 10 11 12 13 14 15 16 17 18 
M  POLY_UPPER 6
M  POLY_LOWER 8
M  POLY_CHG 0
M  POLY_PROPERTIES ALPHA_AA L_AA PROTEIN AROMATIC POLYMER 
M  END

$$$$



 32 32  0  0  0  0  0  0  0  0999 V2000
   -0.6517    1.0164    0.3744 H   0  0  0  1  0  0  0  0  0  0  0  0
   -2.2598    1.6756   -0.7871 C   0  0  0  1  0  0  0  0  0  0  0  0
    0.0372    2.5960   -0.7147 N   0  0  0  1  0  0  0  0  0  0  0  0
   -1.0235    1.9691    0.0596 C   0  0  0  1  0  0  0  0  0  0  0  0
   -2.4521    2.2489   -1.8468 O   0  0  0  1  0  0  0  0  0  0  0  0
   -3.1034    0.7577   -0.2891 N   0  0  0  1  0  0  0  0  0  0  0  0
   -0.2006    3.1021   -1.5196 H   0  0  0  1  0  0  0  0  0  0  0  0
    1.3239    2.5056   -0.3666 C   0  0  0  1  0  0  0  0  0  0  0  0
   -4.3994    0.4210   -0.8591 C   0  0  0  1  0  0  0  0  0  0  0  0
    2.3196    3.2395   -1.2594 C   0  0  0  1  0  0  0  0  0  0  0  0
    1.6915    1.9350    0.6592 O   0  0  0  1  0  0  0  0  0  0  0  0
   -2.8255    0.2783    0.5192 H   0  0  0  1  0  0  0  0  0  0  0  0
   -4.4934    0.8732   -1.8243 H   0  0  0  1  0  0  0  0  0  0  0  0
   -5.1757    0.7838   -0.2183 H   0  0  0  1  0  0  0  0  0  0  0  0
   -4.4818   -0.6416   -0.9537 H   0  0  0  1  0  0  0  0  0  0  0  0
    2.9178    3.8960   -0.6628 H   0  0  0  1  0  0  0  0  0  0  0  0
    1.7882    3.8092   -1.9928 H   0  0  0  1  0  0  0  0  0  0  0  0
    2.9513    2.5279   -1.7488 H   0  0  0  1  0  0  0  0  0  0  0  0
   -3.8810    7.6803    0.4549 F   0  0  0  1  0  0  0  0  0  0  0  0
   -3.2894    6.4885    0.6638 C   0  0  0  1  0  0  0  0  0  0  0  0
   -2.0335    6.4309    1.2477 C   0  0  0  1  0  0  0  0  0  0  0  0
   -1.4240    5.2083    1.4572 C   0  0  0  1  0  0  0  0  0  0  0  0
   -2.0710    4.0392    1.0883 C   0  0  0  1  0  0  0  0  0  0  0  0
   -3.3233    4.0964    0.5060 C   0  0  0  1  0  0  0  0  0  0  0  0
   -3.9344    5.3227    0.2959 C   0  0  0  1  0  0  0  0  0  0  0  0
   -1.3626    2.7301    1.3451 C   0  0  0  1  0  0  0  0  0  0  0  0
   -1.5498    7.3078    1.5282 H   0  0  0  1  0  0  0  0  0  0  0  0
   -0.4801    5.1654    1.8917 H   0  0  0  1  0  0  0  0  0  0  0  0
   -3.8069    3.2194    0.2255 H   0  0  0  1  0  0  0  0  0  0  0  0
   -4.8783    5.3657   -0.1385 H   0  0  0  1  0  0  0  0  0  0  0  0
   -0.4531    2.9326    1.8710 H   0  0  0  1  0  0  0  0  0  0  0  0
   -1.9949    2.1135    1.9492 H   0  0  0  1  0  0  0  0  0  0  0  0
  1  4  1  0  0  0  0
  2  4  1  0  0  0  0
  2  5  2  0  0  0  0
  2  6  1  0  0  0  0
  3  4  1  0  0  0  0
  3  7  1  0  0  0  0
  3  8  1  0  0  0  0
  4 26  1  0  0  0  0
  6  9  1  0  0  0  0
  6 12  1  0  0  0  0
  8 10  1  0  0  0  0
  8 11  2  0  0  0  0
  9 13  1  0  0  0  0
  9 14  1  0  0  0  0
  9 15  1  0  0  0  0
 10 16  1  0  0  0  0
 10 17  1  0  0  0  0
 10 18  1  0  0  0  0
 19 20  1  0  0  0  0
 20 21  4  0  0  0  0
 20 25  4  0  0  0  0
 21 22  4  0  0  0  0
 21 27  1  0  0  0  0
 22 23  4  0  0  0  0
 22 28  1  0  0  0  0
 23 24  4  0  0  0  0
 23 26  1  0  0  0  0
 24 25  4  0  0  0  0
 24 29  1  0  0  0  0
 25 30  1  0  0  0  0
 26 31  1  0  0  0  0
 26 32  1  0  0  0  0
M  END
> <BCLConfClusterSize>
1

> <ConfClashScore>
0 

> <ConfOneFourInteractionScore>
-0.960887 

> <ConfScore>
0.143866 

> <ConfScorePBest>
0.00336236 

> <ConfTolerance>
0.664292 

> <RosettaParamsInstructions>
M  ROOT 3
M  POLY_N_BB 3
M  POLY_CA_BB 4
M  POLY_C_BB 2
M  POLY_O_BB 5
M  POLY_IGNORE 9 10 11 12 13 14 15 16 17 18 
M  POLY_UPPER 6
M  POLY_LOWER 8
M  POLY_CHG 0
M  POLY_PROPERTIES ALPHA_AA L_AA PROTEIN AROMATIC POLYMER 
M  END

$$$$



 32 32  0  0  0  0  0  0  0  0999 V2000
   -1.2586    2.3398    3.4294 H   0  0  0  1  0  0  0  0  0  0  0  0
   -3.3064    2.3801    2.8727 C   0  0  0  1  0  0  0  0  0  0  0  0
   -1.7763    0.5746    2.4652 N   0  0  0  1  0  0  0  0  0  0  0  0
   -1.8551    2.0214    2.6001 C   0  0  0  1  0  0  0  0  0  0  0  0
   -3.5990    3.3392    3.5840 O   0  0  0  1  0  0  0  0  0  0  0  0
   -4.2048    1.5375    2.3549 N   0  0  0  1  0  0  0  0  0  0  0  0
   -1.5345    0.1763    1.6030 H   0  0  0  1  0  0  0  0  0  0  0  0
   -2.0353   -0.2197    3.5246 C   0  0  0  1  0  0  0  0  0  0  0  0
   -5.6463    1.6533    2.5178 C   0  0  0  1  0  0  0  0  0  0  0  0
   -2.2187   -1.6882    3.2152 C   0  0  0  1  0  0  0  0  0  0  0  0
   -2.1205    0.2057    4.6758 O   0  0  0  1  0  0  0  0  0  0  0  0
   -3.8676    0.7848    1.8256 H   0  0  0  1  0  0  0  0  0  0  0  0
   -5.8681    2.4827    3.1564 H   0  0  0  1  0  0  0  0  0  0  0  0
   -6.0289    0.7547    2.9547 H   0  0  0  1  0  0  0  0  0  0  0  0
   -6.1017    1.8078    1.5619 H   0  0  0  1  0  0  0  0  0  0  0  0
   -1.5939   -1.9602    2.3903 H   0  0  0  1  0  0  0  0  0  0  0  0
   -3.2420   -1.8744    2.9638 H   0  0  0  1  0  0  0  0  0  0  0  0
   -1.9502   -2.2693    4.0726 H   0  0  0  1  0  0  0  0  0  0  0  0
   -3.8810    7.6803    0.4549 F   0  0  0  1  0  0  0  0  0  0  0  0
   -3.2894    6.4885    0.6638 C   0  0  0  1  0  0  0  0  0  0  0  0
   -2.0335    6.4309    1.2477 C   0  0  0  1  0  0  0  0  0  0  0  0
   -1.4240    5.2083    1.4572 C   0  0  0  1  0  0  0  0  0  0  0  0
   -2.0710    4.0392    1.0883 C   0  0  0  1  0  0  0  0  0  0  0  0
   -3.3233    4.0964    0.5060 C   0  0  0  1  0  0  0  0  0  0  0  0
   -3.9344    5.3227    0.2959 C   0  0  0  1  0  0  0  0  0  0  0  0
   -1.3626    2.7301    1.3451 C   0  0  0  1  0  0  0  0  0  0  0  0
   -1.5498    7.3078    1.5282 H   0  0  0  1  0  0  0  0  0  0  0  0
   -0.4801    5.1654    1.8917 H   0  0  0  1  0  0  0  0  0  0  0  0
   -3.8069    3.2194    0.2255 H   0  0  0  1  0  0  0  0  0  0  0  0
   -4.8783    5.3657   -0.1385 H   0  0  0  1  0  0  0  0  0  0  0  0
   -1.5221    2.0862    0.5056 H   0  0  0  1  0  0  0  0  0  0  0  0
   -0.3159    2.9246    1.4523 H   0  0  0  1  0  0  0  0  0  0  0  0
  1  4  1  0  0  0  0
  2  4  1  0  0  0  0
  2  5  2  0  0  0  0
  2  6  1  0  0  0  0
  3  4  1  0  0  0  0
  3  7  1  0  0  0  0
  3  8  1  0  0  0  0
  4 26  1  0  0  0  0
  6  9  1  0  0  0  0
  6 12  1  0  0  0  0
  8 10  1  0  0  0  0
  8 11  2  0  0  0  0
  9 13  1  0  0  0  0
  9 14  1  0  0  0  0
  9 15  1  0  0  0  0
 10 16  1  0  0  0  0
 10 17  1  0  0  0  0
 10 18  1  0  0  0  0
 19 20  1  0  0  0  0
 20 21  4  0  0  0  0
 20 25  4  0  0  0  0
 21 22  4  0  0  0  0
 21 27  1  0  0  0  0
 22 23  4  0  0  0  0
 22 28  1  0  0  0  0
 23 24  4  0  0  0  0
 23 26  1  0  0  0  0
 24 25  4  0  0  0  0
 24 29  1  0  0  0  0
 25 30  1  0  0  0  0
 26 31  1  0  0  0  0
 26 32  1  0  0  0  0
M  END
> <BCLConfClusterSize>
1

> <ConfClashScore>
0 

> <ConfOneFourInteractionScore>
-0.942345 

> <ConfScore>
0.159409 

> <ConfScorePBest>
0.00333388 

> <ConfTolerance>
0.716564 

> <RosettaParamsInstructions>
M  ROOT 3
M  POLY_N_BB 3
M  POLY_CA_BB 4
M  POLY_C_BB 2
M  POLY_O_BB 5
M  POLY_IGNORE 9 10 11 12 13 14 15 16 17 18 
M  POLY_UPPER 6
M  POLY_LOWER 8
M  POLY_CHG 0
M  POLY_PROPERTIES ALPHA_AA L_AA PROTEIN AROMATIC POLYMER 
M  END

$$$$



 32 32  0  0  0  0  0  0  0  0999 V2000
   -0.4142    1.5791    2.7675 H   0  0  0  1  0  0  0  0  0  0  0  0
   -0.7567    3.4720    3.6028 C   0  0  0  1  0  0  0  0  0  0  0  0
   -2.3784    1.6453    3.3468 N   0  0  0  1  0  0  0  0  0  0  0  0
   -1.2139    2.2899    2.7613 C   0  0  0  1  0  0  0  0  0  0  0  0
    0.4237    3.8175    3.6165 O   0  0  0  1  0  0  0  0  0  0  0  0
   -1.6788    4.1246    4.3281 N   0  0  0  1  0  0  0  0  0  0  0  0
   -3.2305    1.6790    2.8639 H   0  0  0  1  0  0  0  0  0  0  0  0
   -2.3271    1.0085    4.5203 C   0  0  0  1  0  0  0  0  0  0  0  0
   -1.3457    5.2739    5.1563 C   0  0  0  1  0  0  0  0  0  0  0  0
   -3.6429    0.4474    5.0233 C   0  0  0  1  0  0  0  0  0  0  0  0
   -1.2881    0.8760    5.1657 O   0  0  0  1  0  0  0  0  0  0  0  0
   -2.6086    3.8163    4.2988 H   0  0  0  1  0  0  0  0  0  0  0  0
   -1.9918    5.2991    6.0088 H   0  0  0  1  0  0  0  0  0  0  0  0
   -1.4710    6.1714    4.5875 H   0  0  0  1  0  0  0  0  0  0  0  0
   -0.3293    5.1962    5.4816 H   0  0  0  1  0  0  0  0  0  0  0  0
   -4.3346    0.3752    4.2102 H   0  0  0  1  0  0  0  0  0  0  0  0
   -4.0428    1.0957    5.7748 H   0  0  0  1  0  0  0  0  0  0  0  0
   -3.4799   -0.5245    5.4400 H   0  0  0  1  0  0  0  0  0  0  0  0
   -3.9151    7.6593    0.4378 F   0  0  0  1  0  0  0  0  0  0  0  0
   -3.2833    6.4921    0.6668 C   0  0  0  1  0  0  0  0  0  0  0  0
   -2.0274    6.4405    1.2512 C   0  0  0  1  0  0  0  0  0  0  0  0
   -1.4131    5.2207    1.4631 C   0  0  0  1  0  0  0  0  0  0  0  0
   -2.0554    4.0484    1.0961 C   0  0  0  1  0  0  0  0  0  0  0  0
   -3.3077    4.0996    0.5134 C   0  0  0  1  0  0  0  0  0  0  0  0
   -3.9236    5.3232    0.3010 C   0  0  0  1  0  0  0  0  0  0  0  0
   -1.4370    2.6868    1.3079 C   0  0  0  1  0  0  0  0  0  0  0  0
   -1.5472    7.3199    1.5302 H   0  0  0  1  0  0  0  0  0  0  0  0
   -0.4691    5.1823    1.8978 H   0  0  0  1  0  0  0  0  0  0  0  0
   -3.7878    3.2203    0.2345 H   0  0  0  1  0  0  0  0  0  0  0  0
   -4.8676    5.3615   -0.1338 H   0  0  0  1  0  0  0  0  0  0  0  0
   -2.0817    1.9585    0.8621 H   0  0  0  1  0  0  0  0  0  0  0  0
   -0.4883    2.6746    0.8131 H   0  0  0  1  0  0  0  0  0  0  0  0
  1  4  1  0  0  0  0
  2  4  1  0  0  0  0
  2  5  2  0  0  0  0
  2  6  1  0  0  0  0
  3  4  1  0  0  0  0
  3  7  1  0  0  0  0
  3  8  1  0  0  0  0
  4 26  1  0  0  0  0
  6  9  1  0  0  0  0
  6 12  1  0  0  0  0
  8 10  1  0  0  0  0
  8 11  2  0  0  0  0
  9 13  1  0  0  0  0
  9 14  1  0  0  0  0
  9 15  1  0  0  0  0
 10 16  1  0  0  0  0
 10 17  1  0  0  0  0
 10 18  1  0  0  0  0
 19 20  1  0  0  0  0
 20 21  4  0  0  0  0
 20 25  4  0  0  0  0
 21 22  4  0  0  0  0
 21 27  1  0  0  0  0
 22 23  4  0  0  0  0
 22 28  1  0  0  0  0
 23 24  4  0  0  0  0
 23 26  1  0  0  0  0
 24 25  4  0  0  0  0
 24 29  1  0  0  0  0
 25 30  1  0  0  0  0
 26 31  1  0  0  0  0
 26 32  1  0  0  0  0
M  END
> <BCLConfClusterSize>
1

> <ConfClashScore>
0 

> <ConfOneFourInteractionScore>
-0.946221 

> <ConfScore>
0.160516 

> <ConfScorePBest>
0.0033054 

> <ConfTolerance>
0.693601 

> <RosettaParamsInstructions>
M  ROOT 3
M  POLY_N_BB 3
M  POLY_CA_BB 4
M  POLY_C_BB 2
M  POLY_O_BB 5
M  POLY_IGNORE 9 10 11 12 13 14 15 16 17 18 
M  POLY_UPPER 6
M  POLY_LOWER 8
M  POLY_CHG 0
M  POLY_PROPERTIES ALPHA_AA L_AA PROTEIN AROMATIC POLYMER 
M  END

$$$$



 32 32  0  0  0  0  0  0  0  0999 V2000
   -3.1066    1.5425    1.6053 H   0  0  0  1  0  0  0  0  0  0  0  0
   -1.4288    0.4363    2.2917 C   0  0  0  1  0  0  0  0  0  0  0  0
   -2.5269    2.2955    3.4511 N   0  0  0  1  0  0  0  0  0  0  0  0
   -2.2043    1.7382    2.1460 C   0  0  0  1  0  0  0  0  0  0  0  0
   -0.5250    0.2230    1.5043 O   0  0  0  1  0  0  0  0  0  0  0  0
   -1.8091   -0.3700    3.2808 N   0  0  0  1  0  0  0  0  0  0  0  0
   -3.4683    2.4255    3.6903 H   0  0  0  1  0  0  0  0  0  0  0  0
   -1.5842    2.6362    4.3344 C   0  0  0  1  0  0  0  0  0  0  0  0
   -1.2513   -1.7027    3.4554 C   0  0  0  1  0  0  0  0  0  0  0  0
   -2.0755    3.4689    5.5164 C   0  0  0  1  0  0  0  0  0  0  0  0
   -0.3916    2.3783    4.1944 O   0  0  0  1  0  0  0  0  0  0  0  0
   -2.4882   -0.0549    3.9132 H   0  0  0  1  0  0  0  0  0  0  0  0
   -1.5699   -2.3316    2.6505 H   0  0  0  1  0  0  0  0  0  0  0  0
   -1.5909   -2.1124    4.3837 H   0  0  0  1  0  0  0  0  0  0  0  0
   -0.1829   -1.6441    3.4605 H   0  0  0  1  0  0  0  0  0  0  0  0
   -2.3624    4.4411    5.1736 H   0  0  0  1  0  0  0  0  0  0  0  0
   -1.2903    3.5625    6.2372 H   0  0  0  1  0  0  0  0  0  0  0  0
   -2.9180    2.9867    5.9664 H   0  0  0  1  0  0  0  0  0  0  0  0
   -3.8531    7.6958    0.4688 F   0  0  0  1  0  0  0  0  0  0  0  0
   -3.2951    6.4852    0.6609 C   0  0  0  1  0  0  0  0  0  0  0  0
   -2.0392    6.4310    1.2451 C   0  0  0  1  0  0  0  0  0  0  0  0
   -1.4270    5.2099    1.4560 C   0  0  0  1  0  0  0  0  0  0  0  0
   -2.0714    4.0390    1.0881 C   0  0  0  1  0  0  0  0  0  0  0  0
   -3.3237    4.0928    0.5056 C   0  0  0  1  0  0  0  0  0  0  0  0
   -3.9375    5.3176    0.2942 C   0  0  0  1  0  0  0  0  0  0  0  0
   -1.3601    2.7318    1.3464 C   0  0  0  1  0  0  0  0  0  0  0  0
   -1.5575    7.3092    1.5248 H   0  0  0  1  0  0  0  0  0  0  0  0
   -0.4831    5.1696    1.8906 H   0  0  0  1  0  0  0  0  0  0  0  0
   -3.8053    3.2146    0.2260 H   0  0  0  1  0  0  0  0  0  0  0  0
   -4.8815    5.3580   -0.1404 H   0  0  0  1  0  0  0  0  0  0  0  0
   -1.1117    2.2875    0.4052 H   0  0  0  1  0  0  0  0  0  0  0  0
   -0.4632    2.9344    1.8936 H   0  0  0  1  0  0  0  0  0  0  0  0
  1  4  1  0  0  0  0
  2  4  1  0  0  0  0
  2  5  2  0  0  0  0
  2  6  1  0  0  0  0
  3  4  1  0  0  0  0
  3  7  1  0  0  0  0
  3  8  1  0  0  0  0
  4 26  1  0  0  0  0
  6  9  1  0  0  0  0
  6 12  1  0  0  0  0
  8 10  1  0  0  0  0
  8 11  2  0  0  0  0
  9 13  1  0  0  0  0
  9 14  1  0  0  0  0
  9 15  1  0  0  0  0
 10 16  1  0  0  0  0
 10 17  1  0  0  0  0
 10 18  1  0  0  0  0
 19 20  1  0  0  0  0
 20 21  4  0  0  0  0
 20 25  4  0  0  0  0
 21 22  4  0  0  0  0
 21 27  1  0  0  0  0
 22 23  4  0  0  0  0
 22 28  1  0  0  0  0
 23 24  4  0  0  0  0
 23 26  1  0  0  0  0
 24 25  4  0  0  0  0
 24 29  1  0  0  0  0
 25 30  1  0  0  0  0
 26 31  1  0  0  0  0
 26 32  1  0  0  0  0
M  END
> <BCLConfClusterSize>
1

> <ConfClashScore>
0 

> <ConfOneFourInteractionScore>
-0.956972 

> <ConfScore>
0.161304 

> <ConfScorePBest>
0.00327691 

> <ConfTolerance>
0.316229 

> <RosettaParamsInstructions>
M  ROOT 3
M  POLY_N_BB 3
M  POLY_CA_BB 4
M  POLY_C_BB 2
M  POLY_O_BB 5
M  POLY_IGNORE 9 10 11 12 13 14 15 16 17 18 
M  POLY_UPPER 6
M  POLY_LOWER 8
M  POLY_CHG 0
M  POLY_PROPERTIES ALPHA_AA L_AA PROTEIN AROMATIC POLYMER 
M  END

$$$$



 32 32  0  0  0  0  0  0  0  0999 V2000
    0.5397    3.6512    0.9796 H   0  0  0  1  0  0  0  0  0  0  0  0
    0.9684    1.6135    1.2334 C   0  0  0  1  0  0  0  0  0  0  0  0
   -0.0501    2.6612   -0.7388 N   0  0  0  1  0  0  0  0  0  0  0  0
    0.0664    2.7242    0.7315 C   0  0  0  1  0  0  0  0  0  0  0  0
    0.5225    0.4960    1.4903 O   0  0  0  1  0  0  0  0  0  0  0  0
    2.2645    1.9334    1.3741 N   0  0  0  1  0  0  0  0  0  0  0  0
   -0.8443    2.2250   -1.1122 H   0  0  0  1  0  0  0  0  0  0  0  0
    0.8495    3.1562   -1.6026 C   0  0  0  1  0  0  0  0  0  0  0  0
    3.2802    0.9408    1.6916 C   0  0  0  1  0  0  0  0  0  0  0  0
    0.4640    2.9703   -3.0572 C   0  0  0  1  0  0  0  0  0  0  0  0
    1.8886    3.7092   -1.2820 O   0  0  0  1  0  0  0  0  0  0  0  0
    2.5362    2.8680    1.2589 H   0  0  0  1  0  0  0  0  0  0  0  0
    4.1004    1.4154    2.1887 H   0  0  0  1  0  0  0  0  0  0  0  0
    3.6270    0.4841    0.7882 H   0  0  0  1  0  0  0  0  0  0  0  0
    2.8601    0.1931    2.3314 H   0  0  0  1  0  0  0  0  0  0  0  0
    0.3695    1.9261   -3.2710 H   0  0  0  1  0  0  0  0  0  0  0  0
    1.2204    3.3953   -3.6835 H   0  0  0  1  0  0  0  0  0  0  0  0
   -0.4698    3.4582   -3.2437 H   0  0  0  1  0  0  0  0  0  0  0  0
   -3.8776    7.6820    0.4566 F   0  0  0  1  0  0  0  0  0  0  0  0
   -3.2895    6.4882    0.6637 C   0  0  0  1  0  0  0  0  0  0  0  0
   -2.0337    6.4261    1.2474 C   0  0  0  1  0  0  0  0  0  0  0  0
   -1.4277    5.2014    1.4551 C   0  0  0  1  0  0  0  0  0  0  0  0
   -2.0782    4.0347    1.0847 C   0  0  0  1  0  0  0  0  0  0  0  0
   -3.3304    4.0964    0.5027 C   0  0  0  1  0  0  0  0  0  0  0  0
   -3.9380    5.3248    0.2944 C   0  0  0  1  0  0  0  0  0  0  0  0
   -1.3297    2.7524    1.3617 C   0  0  0  1  0  0  0  0  0  0  0  0
   -1.5474    7.3012    1.5290 H   0  0  0  1  0  0  0  0  0  0  0  0
   -0.4838    5.1552    1.8893 H   0  0  0  1  0  0  0  0  0  0  0  0
   -3.8166    3.2213    0.2211 H   0  0  0  1  0  0  0  0  0  0  0  0
   -4.8818    5.3711   -0.1398 H   0  0  0  1  0  0  0  0  0  0  0  0
   -1.2276    2.6397    2.4209 H   0  0  0  1  0  0  0  0  0  0  0  0
   -1.8974    1.9350    0.9687 H   0  0  0  1  0  0  0  0  0  0  0  0
  1  4  1  0  0  0  0
  2  4  1  0  0  0  0
  2  5  2  0  0  0  0
  2  6  1  0  0  0  0
  3  4  1  0  0  0  0
  3  7  1  0  0  0  0
  3  8  1  0  0  0  0
  4 26  1  0  0  0  0
  6  9  1  0  0  0  0
  6 12  1  0  0  0  0
  8 10  1  0  0  0  0
  8 11  2  0  0  0  0
  9 13  1  0  0  0  0
  9 14  1  0  0  0  0
  9 15  1  0  0  0  0
 10 16  1  0  0  0  0
 10 17  1  0  0  0  0
 10 18  1  0  0  0  0
 19 20  1  0  0  0  0
 20 21  4  0  0  0  0
 20 25  4  0  0  0  0
 21 22  4  0  0  0  0
 21 27  1  0  0  0  0
 22 23  4  0  0  0  0
 22 28  1  0  0  0  0
 23 24  4  0  0  0  0
 23 26  1  0  0  0  0
 24 25  4  0  0  0  0
 24 29  1  0  0  0  0
 25 30  1  0  0  0  0
 26 31  1  0  0  0  0
 26 32  1  0  0  0  0
M  END
> <BCLConfClusterSize>
1

> <ConfClashScore>
0 

> <ConfOneFourInteractionScore>
-0.967579 

> <ConfScore>
0.161961 

> <ConfScorePBest>
0.00324843 

> <ConfTolerance>
0.574794 

> <RosettaParamsInstructions>
M  ROOT 3
M  POLY_N_BB 3
M  POLY_CA_BB 4
M  POLY_C_BB 2
M  POLY_O_BB 5
M  POLY_IGNORE 9 10 11 12 13 14 15 16 17 18 
M  POLY_UPPER 6
M  POLY_LOWER 8
M  POLY_CHG 0
M  POLY_PROPERTIES ALPHA_AA L_AA PROTEIN AROMATIC POLYMER 
M  END

$$$$



 32 32  0  0  0  0  0  0  0  0999 V2000
    0.0450    1.4073    0.5179 H   0  0  0  1  0  0  0  0  0  0  0  0
   -1.1515    2.0225   -1.0863 C   0  0  0  1  0  0  0  0  0  0  0  0
    0.6230    3.3076    0.0144 N   0  0  0  1  0  0  0  0  0  0  0  0
   -0.4246    2.3185    0.2111 C   0  0  0  1  0  0  0  0  0  0  0  0
   -2.1745    1.3392   -1.1035 O   0  0  0  1  0  0  0  0  0  0  0  0
   -0.6068    2.5510   -2.1936 N   0  0  0  1  0  0  0  0  0  0  0  0
    0.5261    3.9264   -0.7393 H   0  0  0  1  0  0  0  0  0  0  0  0
    1.7323    3.4393    0.8014 C   0  0  0  1  0  0  0  0  0  0  0  0
   -1.2794    2.5157   -3.4837 C   0  0  0  1  0  0  0  0  0  0  0  0
    2.7366    4.4431    0.2695 C   0  0  0  1  0  0  0  0  0  0  0  0
    1.8762    2.7983    1.8294 O   0  0  0  1  0  0  0  0  0  0  0  0
    0.2743    2.9753   -2.1311 H   0  0  0  1  0  0  0  0  0  0  0  0
   -2.3387    2.5004   -3.3340 H   0  0  0  1  0  0  0  0  0  0  0  0
   -0.9821    1.6368   -4.0167 H   0  0  0  1  0  0  0  0  0  0  0  0
   -1.0118    3.3839   -4.0490 H   0  0  0  1  0  0  0  0  0  0  0  0
    2.3081    5.4233    0.2918 H   0  0  0  1  0  0  0  0  0  0  0  0
    2.9946    4.1897   -0.7375 H   0  0  0  1  0  0  0  0  0  0  0  0
    3.6159    4.4246    0.8790 H   0  0  0  1  0  0  0  0  0  0  0  0
   -3.8843    7.6784    0.4533 F   0  0  0  1  0  0  0  0  0  0  0  0
   -3.2892    6.4887    0.6639 C   0  0  0  1  0  0  0  0  0  0  0  0
   -2.0333    6.4356    1.2481 C   0  0  0  1  0  0  0  0  0  0  0  0
   -1.4202    5.2151    1.4594 C   0  0  0  1  0  0  0  0  0  0  0  0
   -2.0637    4.0436    1.0920 C   0  0  0  1  0  0  0  0  0  0  0  0
   -3.3160    4.0963    0.5094 C   0  0  0  1  0  0  0  0  0  0  0  0
   -3.9307    5.3205    0.2975 C   0  0  0  1  0  0  0  0  0  0  0  0
   -1.3968    2.7090    1.3279 C   0  0  0  1  0  0  0  0  0  0  0  0
   -1.5523    7.3143    1.5275 H   0  0  0  1  0  0  0  0  0  0  0  0
   -0.4762    5.1756    1.8941 H   0  0  0  1  0  0  0  0  0  0  0  0
   -3.7969    3.2175    0.2300 H   0  0  0  1  0  0  0  0  0  0  0  0
   -4.8747    5.3600   -0.1371 H   0  0  0  1  0  0  0  0  0  0  0  0
   -0.8553    2.7571    2.2495 H   0  0  0  1  0  0  0  0  0  0  0  0
   -2.1549    1.9572    1.3979 H   0  0  0  1  0  0  0  0  0  0  0  0
  1  4  1  0  0  0  0
  2  4  1  0  0  0  0
  2  5  2  0  0  0  0
  2  6  1  0  0  0  0
  3  4  1  0  0  0  0
  3  7  1  0  0  0  0
  3  8  1  0  0  0  0
  4 26  1  0  0  0  0
  6  9  1  0  0  0  0
  6 12  1  0  0  0  0
  8 10  1  0  0  0  0
  8 11  2  0  0  0  0
  9 13  1  0  0  0  0
  9 14  1  0  0  0  0
  9 15  1  0  0  0  0
 10 16  1  0  0  0  0
 10 17  1  0  0  0  0
 10 18  1  0  0  0  0
 19 20  1  0  0  0  0
 20 21  4  0  0  0  0
 20 25  4  0  0  0  0
 21 22  4  0  0  0  0
 21 27  1  0  0  0  0
 22 23  4  0  0  0  0
 22 28  1  0  0  0  0
 23 24  4  0  0  0  0
 23 26  1  0  0  0  0
 24 25  4  0  0  0  0
 24 29  1  0  0  0  0
 25 30  1  0  0  0  0
 26 31  1  0  0  0  0
 26 32  1  0  0  0  0
M  END
> <BCLConfClusterSize>
1

> <ConfClashScore>
0 

> <ConfOneFourInteractionScore>
-0.932585 

> <ConfScore>
0.162418 

> <ConfScorePBest>
0.00321995 

> <ConfTolerance>
0.246354 

> <RosettaParamsInstructions>
M  ROOT 3
M  POLY_N_BB 3
M  POLY_CA_BB 4
M  POLY_C_BB 2
M  POLY_O_BB 5
M  POLY_IGNORE 9 10 11 12 13 14 15 16 17 18 
M  POLY_UPPER 6
M  POLY_LOWER 8
M  POLY_CHG 0
M  POLY_PROPERTIES ALPHA_AA L_AA PROTEIN AROMATIC POLYMER 
M  END

$$$$



 32 32  0  0  0  0  0  0  0  0999 V2000
   -2.6360    2.3585    2.9794 H   0  0  0  1  0  0  0  0  0  0  0  0
   -1.4215    0.6689    2.8372 C   0  0  0  1  0  0  0  0  0  0  0  0
   -0.8238    2.8855    3.7495 N   0  0  0  1  0  0  0  0  0  0  0  0
   -1.6071    2.1758    2.7493 C   0  0  0  1  0  0  0  0  0  0  0  0
   -0.8687    0.1501    3.8034 O   0  0  0  1  0  0  0  0  0  0  0  0
   -1.8953   -0.0355    1.8055 N   0  0  0  1  0  0  0  0  0  0  0  0
    0.1127    3.0810    3.5366 H   0  0  0  1  0  0  0  0  0  0  0  0
   -1.2843    3.2901    4.9342 C   0  0  0  1  0  0  0  0  0  0  0  0
   -1.7798   -1.4844    1.7349 C   0  0  0  1  0  0  0  0  0  0  0  0
   -0.2710    3.9619    5.8404 C   0  0  0  1  0  0  0  0  0  0  0  0
   -2.4511    3.1370    5.2859 O   0  0  0  1  0  0  0  0  0  0  0  0
   -2.3360    0.4402    1.0706 H   0  0  0  1  0  0  0  0  0  0  0  0
   -1.5608   -1.8731    2.7075 H   0  0  0  1  0  0  0  0  0  0  0  0
   -0.9916   -1.7467    1.0605 H   0  0  0  1  0  0  0  0  0  0  0  0
   -2.7021   -1.8989    1.3849 H   0  0  0  1  0  0  0  0  0  0  0  0
    0.0148    4.9035    5.4204 H   0  0  0  1  0  0  0  0  0  0  0  0
    0.5923    3.3369    5.9347 H   0  0  0  1  0  0  0  0  0  0  0  0
   -0.7052    4.1192    6.8056 H   0  0  0  1  0  0  0  0  0  0  0  0
   -3.8843    7.6784    0.4533 F   0  0  0  1  0  0  0  0  0  0  0  0
   -3.2892    6.4887    0.6639 C   0  0  0  1  0  0  0  0  0  0  0  0
   -2.0333    6.4356    1.2481 C   0  0  0  1  0  0  0  0  0  0  0  0
   -1.4202    5.2151    1.4594 C   0  0  0  1  0  0  0  0  0  0  0  0
   -2.0637    4.0436    1.0920 C   0  0  0  1  0  0  0  0  0  0  0  0
   -3.3160    4.0963    0.5094 C   0  0  0  1  0  0  0  0  0  0  0  0
   -3.9307    5.3205    0.2975 C   0  0  0  1  0  0  0  0  0  0  0  0
   -1.3968    2.7090    1.3279 C   0  0  0  1  0  0  0  0  0  0  0  0
   -1.5523    7.3143    1.5275 H   0  0  0  1  0  0  0  0  0  0  0  0
   -0.4762    5.1756    1.8941 H   0  0  0  1  0  0  0  0  0  0  0  0
   -3.7969    3.2175    0.2300 H   0  0  0  1  0  0  0  0  0  0  0  0
   -4.8747    5.3600   -0.1371 H   0  0  0  1  0  0  0  0  0  0  0  0
   -1.7994    1.9999    0.6351 H   0  0  0  1  0  0  0  0  0  0  0  0
   -0.3462    2.8184    1.1572 H   0  0  0  1  0  0  0  0  0  0  0  0
  1  4  1  0  0  0  0
  2  4  1  0  0  0  0
  2  5  2  0  0  0  0
  2  6  1  0  0  0  0
  3  4  1  0  0  0  0
  3  7  1  0  0  0  0
  3  8  1  0  0  0  0
  4 26  1  0  0  0  0
  6  9  1  0  0  0  0
  6 12  1  0  0  0  0
  8 10  1  0  0  0  0
  8 11  2  0  0  0  0
  9 13  1  0  0  0  0
  9 14  1  0  0  0  0
  9 15  1  0  0  0  0
 10 16  1  0  0  0  0
 10 17  1  0  0  0  0
 10 18  1  0  0  0  0
 19 20  1  0  0  0  0
 20 21  4  0  0  0  0
 20 25  4  0  0  0  0
 21 22  4  0  0  0  0
 21 27  1  0  0  0  0
 22 23  4  0  0  0  0
 22 28  1  0  0  0  0
 23 24  4  0  0  0  0
 23 26  1  0  0  0  0
 24 25  4  0  0  0  0
 24 29  1  0  0  0  0
 25 30  1  0  0  0  0
 26 31  1  0  0  0  0
 26 32  1  0  0  0  0
M  END
> <BCLConfClusterSize>
1

> <ConfClashScore>
0 

> <ConfOneFourInteractionScore>
-0.981931 

> <ConfScore>
0.168562 

> <ConfScorePBest>
0.00319147 

> <ConfTolerance>
0.511153 

> <RosettaParamsInstructions>
M  ROOT 3
M  POLY_N_BB 3
M  POLY_CA_BB 4
M  POLY_C_BB 2
M  POLY_O_BB 5
M  POLY_IGNORE 9 10 11 12 13 14 15 16 17 18 
M  POLY_UPPER 6
M  POLY_LOWER 8
M  POLY_CHG 0
M  POLY_PROPERTIES ALPHA_AA L_AA PROTEIN AROMATIC POLYMER 
M  END

$$$$



 32 32  0  0  0  0  0  0  0  0999 V2000
   -3.0875    1.6159    1.3090 H   0  0  0  1  0  0  0  0  0  0  0  0
   -1.5041    0.2272    1.3775 C   0  0  0  1  0  0  0  0  0  0  0  0
   -2.3440    1.5404    3.2288 N   0  0  0  1  0  0  0  0  0  0  0  0
   -2.1334    1.5497    1.7889 C   0  0  0  1  0  0  0  0  0  0  0  0
   -1.5887   -0.1786    0.2191 O   0  0  0  1  0  0  0  0  0  0  0  0
   -0.8551   -0.4815    2.3149 N   0  0  0  1  0  0  0  0  0  0  0  0
   -1.8930    2.2160    3.7771 H   0  0  0  1  0  0  0  0  0  0  0  0
   -3.1341    0.6391    3.8318 C   0  0  0  1  0  0  0  0  0  0  0  0
   -0.2886   -1.7812    1.9865 C   0  0  0  1  0  0  0  0  0  0  0  0
   -3.2725    0.7086    5.3358 C   0  0  0  1  0  0  0  0  0  0  0  0
   -3.7285   -0.2180    3.1835 O   0  0  0  1  0  0  0  0  0  0  0  0
   -0.7627   -0.1230    3.2223 H   0  0  0  1  0  0  0  0  0  0  0  0
    0.5713   -1.9606    2.5975 H   0  0  0  1  0  0  0  0  0  0  0  0
   -0.0025   -1.7951    0.9556 H   0  0  0  1  0  0  0  0  0  0  0  0
   -1.0180   -2.5434    2.1651 H   0  0  0  1  0  0  0  0  0  0  0  0
   -2.7666   -0.1232    5.7798 H   0  0  0  1  0  0  0  0  0  0  0  0
   -4.3089    0.6778    5.6001 H   0  0  0  1  0  0  0  0  0  0  0  0
   -2.8400    1.6202    5.6918 H   0  0  0  1  0  0  0  0  0  0  0  0
   -3.8497    7.6974    0.4705 F   0  0  0  1  0  0  0  0  0  0  0  0
   -3.2952    6.4849    0.6609 C   0  0  0  1  0  0  0  0  0  0  0  0
   -2.0393    6.4262    1.2447 C   0  0  0  1  0  0  0  0  0  0  0  0
   -1.4307    5.2031    1.4538 C   0  0  0  1  0  0  0  0  0  0  0  0
   -2.0786    4.0346    1.0845 C   0  0  0  1  0  0  0  0  0  0  0  0
   -3.3308    4.0928    0.5023 C   0  0  0  1  0  0  0  0  0  0  0  0
   -3.9410    5.3197    0.2927 C   0  0  0  1  0  0  0  0  0  0  0  0
   -1.3273    2.7542    1.3630 C   0  0  0  1  0  0  0  0  0  0  0  0
   -1.5550    7.3026    1.5255 H   0  0  0  1  0  0  0  0  0  0  0  0
   -0.4868    5.1593    1.8882 H   0  0  0  1  0  0  0  0  0  0  0  0
   -3.8151    3.2163    0.2216 H   0  0  0  1  0  0  0  0  0  0  0  0
   -4.8850    5.3634   -0.1417 H   0  0  0  1  0  0  0  0  0  0  0  0
   -0.8039    2.4890    0.4682 H   0  0  0  1  0  0  0  0  0  0  0  0
   -0.6226    2.9593    2.1416 H   0  0  0  1  0  0  0  0  0  0  0  0
  1  4  1  0  0  0  0
  2  4  1  0  0  0  0
  2  5  2  0  0  0  0
  2  6  1  0  0  0  0
  3  4  1  0  0  0  0
  3  7  1  0  0  0  0
  3  8  1  0  0  0  0
  4 26  1  0  0  0  0
  6  9  1  0  0  0  0
  6 12  1  0  0  0  0
  8 10  1  0  0  0  0
  8 11  2  0  0  0  0
  9 13  1  0  0  0  0
  9 14  1  0  0  0  0
  9 15  1  0  0  0  0
 10 16  1  0  0  0  0
 10 17  1  0  0  0  0
 10 18  1  0  0  0  0
 19 20  1  0  0  0  0
 20 21  4  0  0  0  0
 20 25  4  0  0  0  0
 21 22  4  0  0  0  0
 21 27  1  0  0  0  0
 22 23  4  0  0  0  0
 22 28  1  0  0  0  0
 23 24  4  0  0  0  0
 23 26  1  0  0  0  0
 24 25  4  0  0  0  0
 24 29  1  0  0  0  0
 25 30  1  0  0  0  0
 26 31  1  0  0  0  0
 26 32  1  0  0  0  0
M  END
> <BCLConfClusterSize>
1

> <ConfClashScore>
0 

> <ConfOneFourInteractionScore>
-0.940901 

> <ConfScore>
0.186925 

> <ConfScorePBest>
0.00316299 

> <ConfTolerance>
0.80834 

> <RosettaParamsInstructions>
M  ROOT 3
M  POLY_N_BB 3
M  POLY_CA_BB 4
M  POLY_C_BB 2
M  POLY_O_BB 5
M  POLY_IGNORE 9 10 11 12 13 14 15 16 17 18 
M  POLY_UPPER 6
M  POLY_LOWER 8
M  POLY_CHG 0
M  POLY_PROPERTIES ALPHA_AA L_AA PROTEIN AROMATIC POLYMER 
M  END

$$$$



 32 32  0  0  0  0  0  0  0  0999 V2000
   -1.4771    1.9767   -0.6684 H   0  0  0  1  0  0  0  0  0  0  0  0
    0.2666    3.1729   -0.4540 C   0  0  0  1  0  0  0  0  0  0  0  0
   -0.0581    0.8932    0.3911 N   0  0  0  1  0  0  0  0  0  0  0  0
   -0.7281    2.1462    0.0767 C   0  0  0  1  0  0  0  0  0  0  0  0
    0.8262    3.9684    0.2994 O   0  0  0  1  0  0  0  0  0  0  0  0
    0.4824    3.1452   -1.7787 N   0  0  0  1  0  0  0  0  0  0  0  0
    0.5107    0.8479    1.1878 H   0  0  0  1  0  0  0  0  0  0  0  0
   -0.1913   -0.1959   -0.3675 C   0  0  0  1  0  0  0  0  0  0  0  0
    1.4769    3.9453   -2.4777 C   0  0  0  1  0  0  0  0  0  0  0  0
    0.7317   -1.3605   -0.0229 C   0  0  0  1  0  0  0  0  0  0  0  0
   -1.0011   -0.2745   -1.2903 O   0  0  0  1  0  0  0  0  0  0  0  0
   -0.0716    2.5407   -2.3154 H   0  0  0  1  0  0  0  0  0  0  0  0
    2.4570    3.6010   -2.2208 H   0  0  0  1  0  0  0  0  0  0  0  0
    1.3735    4.9713   -2.1925 H   0  0  0  1  0  0  0  0  0  0  0  0
    1.3316    3.8516   -3.5336 H   0  0  0  1  0  0  0  0  0  0  0  0
    0.5087   -1.7136    0.9623 H   0  0  0  1  0  0  0  0  0  0  0  0
    1.7494   -1.0324   -0.0620 H   0  0  0  1  0  0  0  0  0  0  0  0
    0.5844   -2.1525   -0.7272 H   0  0  0  1  0  0  0  0  0  0  0  0
   -3.9116    7.6616    0.4395 F   0  0  0  1  0  0  0  0  0  0  0  0
   -3.2836    6.4921    0.6667 C   0  0  0  1  0  0  0  0  0  0  0  0
   -2.0277    6.4356    1.2507 C   0  0  0  1  0  0  0  0  0  0  0  0
   -1.4173    5.2135    1.4607 C   0  0  0  1  0  0  0  0  0  0  0  0
   -2.0634    4.0439    1.0921 C   0  0  0  1  0  0  0  0  0  0  0  0
   -3.3156    4.0999    0.5098 C   0  0  0  1  0  0  0  0  0  0  0  0
   -3.9277    5.3257    0.2993 C   0  0  0  1  0  0  0  0  0  0  0  0
   -1.3994    2.7076    1.3266 C   0  0  0  1  0  0  0  0  0  0  0  0
   -1.5447    7.3130    1.5309 H   0  0  0  1  0  0  0  0  0  0  0  0
   -0.4733    5.1715    1.8952 H   0  0  0  1  0  0  0  0  0  0  0  0
   -3.7986    3.2225    0.2296 H   0  0  0  1  0  0  0  0  0  0  0  0
   -4.8716    5.3677   -0.1352 H   0  0  0  1  0  0  0  0  0  0  0  0
   -0.6572    2.8251    2.0883 H   0  0  0  1  0  0  0  0  0  0  0  0
   -2.1422    2.0114    1.6561 H   0  0  0  1  0  0  0  0  0  0  0  0
  1  4  1  0  0  0  0
  2  4  1  0  0  0  0
  2  5  2  0  0  0  0
  2  6  1  0  0  0  0
  3  4  1  0  0  0  0
  3  7  1  0  0  0  0
  3  8  1  0  0  0  0
  4 26  1  0  0  0  0
  6  9  1  0  0  0  0
  6 12  1  0  0  0  0
  8 10  1  0  0  0  0
  8 11  2  0  0  0  0
  9 13  1  0  0  0  0
  9 14  1  0  0  0  0
  9 15  1  0  0  0  0
 10 16  1  0  0  0  0
 10 17  1  0  0  0  0
 10 18  1  0  0  0  0
 19 20  1  0  0  0  0
 20 21  4  0  0  0  0
 20 25  4  0  0  0  0
 21 22  4  0  0  0  0
 21 27  1  0  0  0  0
 22 23  4  0  0  0  0
 22 28  1  0  0  0  0
 23 24  4  0  0  0  0
 23 26  1  0  0  0  0
 24 25  4  0  0  0  0
 24 29  1  0  0  0  0
 25 30  1  0  0  0  0
 26 31  1  0  0  0  0
 26 32  1  0  0  0  0
M  END
> <BCLConfClusterSize>
1

> <ConfClashScore>
0 

> <ConfOneFourInteractionScore>
-0.979134 

> <ConfScore>
0.187713 

> <ConfScorePBest>
0.00313451 

> <ConfTolerance>
0.554385 

> <RosettaParamsInstructions>
M  ROOT 3
M  POLY_N_BB 3
M  POLY_CA_BB 4
M  POLY_C_BB 2
M  POLY_O_BB 5
M  POLY_IGNORE 9 10 11 12 13 14 15 16 17 18 
M  POLY_UPPER 6
M  POLY_LOWER 8
M  POLY_CHG 0
M  POLY_PROPERTIES ALPHA_AA L_AA PROTEIN AROMATIC POLYMER 
M  END

$$$$



 32 32  0  0  0  0  0  0  0  0999 V2000
    0.1230    3.2848   -0.1193 H   0  0  0  1  0  0  0  0  0  0  0  0
    0.4466    1.2394    0.2694 C   0  0  0  1  0  0  0  0  0  0  0  0
   -1.3051    2.1798   -1.1106 N   0  0  0  1  0  0  0  0  0  0  0  0
   -0.4854    2.4245    0.0668 C   0  0  0  1  0  0  0  0  0  0  0  0
    0.0432    0.0831    0.1546 O   0  0  0  1  0  0  0  0  0  0  0  0
    1.7176    1.5430    0.5770 N   0  0  0  1  0  0  0  0  0  0  0  0
   -1.2661    2.8164   -1.8546 H   0  0  0  1  0  0  0  0  0  0  0  0
   -2.1168    1.1071   -1.2134 C   0  0  0  1  0  0  0  0  0  0  0  0
    2.7350    0.5213    0.7742 C   0  0  0  1  0  0  0  0  0  0  0  0
   -2.9175    0.9387   -2.4900 C   0  0  0  1  0  0  0  0  0  0  0  0
   -2.2066    0.2881   -0.2996 O   0  0  0  1  0  0  0  0  0  0  0  0
    1.9690    2.4854    0.6721 H   0  0  0  1  0  0  0  0  0  0  0  0
    2.7992   -0.0922   -0.1001 H   0  0  0  1  0  0  0  0  0  0  0  0
    2.4732   -0.0845    1.6164 H   0  0  0  1  0  0  0  0  0  0  0  0
    3.6807    0.9896    0.9512 H   0  0  0  1  0  0  0  0  0  0  0  0
   -3.4431    1.8458   -2.7042 H   0  0  0  1  0  0  0  0  0  0  0  0
   -3.6194    0.1404   -2.3678 H   0  0  0  1  0  0  0  0  0  0  0  0
   -2.2550    0.7112   -3.2988 H   0  0  0  1  0  0  0  0  0  0  0  0
   -3.9004    7.6639    0.4225 F   0  0  0  1  0  0  0  0  0  0  0  0
   -3.2809    6.4920    0.6610 C   0  0  0  1  0  0  0  0  0  0  0  0
   -2.0281    6.4318    1.2513 C   0  0  0  1  0  0  0  0  0  0  0  0
   -1.4266    5.2074    1.4728 C   0  0  0  1  0  0  0  0  0  0  0  0
   -2.0785    4.0392    1.1097 C   0  0  0  1  0  0  0  0  0  0  0  0
   -3.3276    4.0990    0.5211 C   0  0  0  1  0  0  0  0  0  0  0  0
   -3.9308    5.3272    0.2989 C   0  0  0  1  0  0  0  0  0  0  0  0
   -1.3484    2.7286    1.2845 C   0  0  0  1  0  0  0  0  0  0  0  0
   -1.5408    7.3081    1.5274 H   0  0  0  1  0  0  0  0  0  0  0  0
   -0.4849    5.1625    1.9120 H   0  0  0  1  0  0  0  0  0  0  0  0
   -3.8149    3.2228    0.2450 H   0  0  0  1  0  0  0  0  0  0  0  0
   -4.8725    5.3722   -0.1402 H   0  0  0  1  0  0  0  0  0  0  0  0
   -0.7237    2.7878    2.1512 H   0  0  0  1  0  0  0  0  0  0  0  0
   -2.0635    1.9430    1.4126 H   0  0  0  1  0  0  0  0  0  0  0  0
  1  4  1  0  0  0  0
  2  4  1  0  0  0  0
  2  5  2  0  0  0  0
  2  6  1  0  0  0  0
  3  4  1  0  0  0  0
  3  7  1  0  0  0  0
  3  8  1  0  0  0  0
  4 26  1  0  0  0  0
  6  9  1  0  0  0  0
  6 12  1  0  0  0  0
  8 10  1  0  0  0  0
  8 11  2  0  0  0  0
  9 13  1  0  0  0  0
  9 14  1  0  0  0  0
  9 15  1  0  0  0  0
 10 16  1  0  0  0  0
 10 17  1  0  0  0  0
 10 18  1  0  0  0  0
 19 20  1  0  0  0  0
 20 21  4  0  0  0  0
 20 25  4  0  0  0  0
 21 22  4  0  0  0  0
 21 27  1  0  0  0  0
 22 23  4  0  0  0  0
 22 28  1  0  0  0  0
 23 24  4  0  0  0  0
 23 26  1  0  0  0  0
 24 25  4  0  0  0  0
 24 29  1  0  0  0  0
 25 30  1  0  0  0  0
 26 31  1  0  0  0  0
 26 32  1  0  0  0  0
M  END
> <BCLConfClusterSize>
1

> <ConfClashScore>
0 

> <ConfOneFourInteractionScore>
-0.980716 

> <ConfScore>
0.190027 

> <ConfScorePBest>
0.00310603 

> <ConfTolerance>
0.331924 

> <RosettaParamsInstructions>
M  ROOT 3
M  POLY_N_BB 3
M  POLY_CA_BB 4
M  POLY_C_BB 2
M  POLY_O_BB 5
M  POLY_IGNORE 9 10 11 12 13 14 15 16 17 18 
M  POLY_UPPER 6
M  POLY_LOWER 8
M  POLY_CHG 0
M  POLY_PROPERTIES ALPHA_AA L_AA PROTEIN AROMATIC POLYMER 
M  END

$$$$



 32 32  0  0  0  0  0  0  0  0999 V2000
   -2.2468    2.6500    3.2534 H   0  0  0  1  0  0  0  0  0  0  0  0
   -1.3983    0.7475    2.9339 C   0  0  0  1  0  0  0  0  0  0  0  0
   -0.2063    2.7735    3.5101 N   0  0  0  1  0  0  0  0  0  0  0  0
   -1.3634    2.2617    2.7910 C   0  0  0  1  0  0  0  0  0  0  0  0
   -0.3639    0.0923    3.0291 O   0  0  0  1  0  0  0  0  0  0  0  0
   -2.6122    0.1946    2.9480 N   0  0  0  1  0  0  0  0  0  0  0  0
    0.5235    3.1646    2.9859 H   0  0  0  1  0  0  0  0  0  0  0  0
   -0.0756    2.7441    4.8394 C   0  0  0  1  0  0  0  0  0  0  0  0
   -2.8758   -1.2351    3.0134 C   0  0  0  1  0  0  0  0  0  0  0  0
    1.2406    3.2538    5.3814 C   0  0  0  1  0  0  0  0  0  0  0  0
   -0.9572    2.3329    5.5891 O   0  0  0  1  0  0  0  0  0  0  0  0
   -3.3847    0.7966    2.9116 H   0  0  0  1  0  0  0  0  0  0  0  0
   -2.5044   -1.7076    2.1281 H   0  0  0  1  0  0  0  0  0  0  0  0
   -3.9303   -1.4000    3.0897 H   0  0  0  1  0  0  0  0  0  0  0  0
   -2.3866   -1.6489    3.8703 H   0  0  0  1  0  0  0  0  0  0  0  0
    1.9475    2.4512    5.4158 H   0  0  0  1  0  0  0  0  0  0  0  0
    1.0937    3.6419    6.3676 H   0  0  0  1  0  0  0  0  0  0  0  0
    1.6123    4.0289    4.7442 H   0  0  0  1  0  0  0  0  0  0  0  0
   -3.8810    7.6803    0.4549 F   0  0  0  1  0  0  0  0  0  0  0  0
   -3.2894    6.4885    0.6638 C   0  0  0  1  0  0  0  0  0  0  0  0
   -2.0335    6.4309    1.2477 C   0  0  0  1  0  0  0  0  0  0  0  0
   -1.4240    5.2083    1.4572 C   0  0  0  1  0  0  0  0  0  0  0  0
   -2.0710    4.0392    1.0883 C   0  0  0  1  0  0  0  0  0  0  0  0
   -3.3233    4.0964    0.5060 C   0  0  0  1  0  0  0  0  0  0  0  0
   -3.9344    5.3227    0.2959 C   0  0  0  1  0  0  0  0  0  0  0  0
   -1.3626    2.7301    1.3451 C   0  0  0  1  0  0  0  0  0  0  0  0
   -1.5498    7.3078    1.5282 H   0  0  0  1  0  0  0  0  0  0  0  0
   -0.4801    5.1654    1.8917 H   0  0  0  1  0  0  0  0  0  0  0  0
   -3.8069    3.2194    0.2255 H   0  0  0  1  0  0  0  0  0  0  0  0
   -4.8783    5.3657   -0.1385 H   0  0  0  1  0  0  0  0  0  0  0  0
   -1.8381    1.9759    0.7535 H   0  0  0  1  0  0  0  0  0  0  0  0
   -0.3447    2.8391    1.0340 H   0  0  0  1  0  0  0  0  0  0  0  0
  1  4  1  0  0  0  0
  2  4  1  0  0  0  0
  2  5  2  0  0  0  0
  2  6  1  0  0  0  0
  3  4  1  0  0  0  0
  3  7  1  0  0  0  0
  3  8  1  0  0  0  0
  4 26  1  0  0  0  0
  6  9  1  0  0  0  0
  6 12  1  0  0  0  0
  8 10  1  0  0  0  0
  8 11  2  0  0  0  0
  9 13  1  0  0  0  0
  9 14  1  0  0  0  0
  9 15  1  0  0  0  0
 10 16  1  0  0  0  0
 10 17  1  0  0  0  0
 10 18  1  0  0  0  0
 19 20  1  0  0  0  0
 20 21  4  0  0  0  0
 20 25  4  0  0  0  0
 21 22  4  0  0  0  0
 21 27  1  0  0  0  0
 22 23  4  0  0  0  0
 22 28  1  0  0  0  0
 23 24  4  0  0  0  0
 23 26  1  0  0  0  0
 24 25  4  0  0  0  0
 24 29  1  0  0  0  0
 25 30  1  0  0  0  0
 26 31  1  0  0  0  0
 26 32  1  0  0  0  0
M  END
> <BCLConfClusterSize>
1

> <ConfClashScore>
0 

> <ConfOneFourInteractionScore>
-0.970447 

> <ConfScore>
0.192001 

> <ConfScorePBest>
0.00307755 

> <ConfTolerance>
0.642557 

> <RosettaParamsInstructions>
M  ROOT 3
M  POLY_N_BB 3
M  POLY_CA_BB 4
M  POLY_C_BB 2
M  POLY_O_BB 5
M  POLY_IGNORE 9 10 11 12 13 14 15 16 17 18 
M  POLY_UPPER 6
M  POLY_LOWER 8
M  POLY_CHG 0
M  POLY_PROPERTIES ALPHA_AA L_AA PROTEIN AROMATIC POLYMER 
M  END

$$$$



 32 32  0  0  0  0  0  0  0  0999 V2000
    0.4564    3.0015    0.3644 H   0  0  0  1  0  0  0  0  0  0  0  0
    0.1898    0.9128    0.5501 C   0  0  0  1  0  0  0  0  0  0  0  0
   -0.9518    2.4081   -1.0283 N   0  0  0  1  0  0  0  0  0  0  0  0
   -0.3561    2.3087    0.2958 C   0  0  0  1  0  0  0  0  0  0  0  0
   -0.1934   -0.0526   -0.1094 O   0  0  0  1  0  0  0  0  0  0  0  0
    1.0976    0.8138    1.5225 N   0  0  0  1  0  0  0  0  0  0  0  0
   -0.6383    3.0928   -1.6553 H   0  0  0  1  0  0  0  0  0  0  0  0
   -1.9348    1.5595   -1.3943 C   0  0  0  1  0  0  0  0  0  0  0  0
    1.7230   -0.4269    1.9552 C   0  0  0  1  0  0  0  0  0  0  0  0
   -2.5589    1.8206   -2.7513 C   0  0  0  1  0  0  0  0  0  0  0  0
   -2.3139    0.6279   -0.6858 O   0  0  0  1  0  0  0  0  0  0  0  0
    1.3633    1.6388    1.9798 H   0  0  0  1  0  0  0  0  0  0  0  0
    1.7980   -1.0976    1.1249 H   0  0  0  1  0  0  0  0  0  0  0  0
    1.1294   -0.8761    2.7238 H   0  0  0  1  0  0  0  0  0  0  0  0
    2.7015   -0.2192    2.3351 H   0  0  0  1  0  0  0  0  0  0  0  0
   -2.3754    2.8346   -3.0397 H   0  0  0  1  0  0  0  0  0  0  0  0
   -3.6140    1.6509   -2.6969 H   0  0  0  1  0  0  0  0  0  0  0  0
   -2.1278    1.1607   -3.4749 H   0  0  0  1  0  0  0  0  0  0  0  0
   -3.9116    7.6616    0.4395 F   0  0  0  1  0  0  0  0  0  0  0  0
   -3.2836    6.4921    0.6667 C   0  0  0  1  0  0  0  0  0  0  0  0
   -2.0277    6.4356    1.2507 C   0  0  0  1  0  0  0  0  0  0  0  0
   -1.4173    5.2135    1.4607 C   0  0  0  1  0  0  0  0  0  0  0  0
   -2.0634    4.0439    1.0921 C   0  0  0  1  0  0  0  0  0  0  0  0
   -3.3156    4.0999    0.5098 C   0  0  0  1  0  0  0  0  0  0  0  0
   -3.9277    5.3257    0.2993 C   0  0  0  1  0  0  0  0  0  0  0  0
   -1.3994    2.7076    1.3266 C   0  0  0  1  0  0  0  0  0  0  0  0
   -1.5447    7.3130    1.5309 H   0  0  0  1  0  0  0  0  0  0  0  0
   -0.4733    5.1715    1.8952 H   0  0  0  1  0  0  0  0  0  0  0  0
   -3.7986    3.2225    0.2296 H   0  0  0  1  0  0  0  0  0  0  0  0
   -4.8716    5.3677   -0.1352 H   0  0  0  1  0  0  0  0  0  0  0  0
   -0.9223    2.7395    2.2838 H   0  0  0  1  0  0  0  0  0  0  0  0
   -2.1617    1.9567    1.3323 H   0  0  0  1  0  0  0  0  0  0  0  0
  1  4  1  0  0  0  0
  2  4  1  0  0  0  0
  2  5  2  0  0  0  0
  2  6  1  0  0  0  0
  3  4  1  0  0  0  0
  3  7  1  0  0  0  0
  3  8  1  0  0  0  0
  4 26  1  0  0  0  0
  6  9  1  0  0  0  0
  6 12  1  0  0  0  0
  8 10  1  0  0  0  0
  8 11  2  0  0  0  0
  9 13  1  0  0  0  0
  9 14  1  0  0  0  0
  9 15  1  0  0  0  0
 10 16  1  0  0  0  0
 10 17  1  0  0  0  0
 10 18  1  0  0  0  0
 19 20  1  0  0  0  0
 20 21  4  0  0  0  0
 20 25  4  0  0  0  0
 21 22  4  0  0  0  0
 21 27  1  0  0  0  0
 22 23  4  0  0  0  0
 22 28  1  0  0  0  0
 23 24  4  0  0  0  0
 23 26  1  0  0  0  0
 24 25  4  0  0  0  0
 24 29  1  0  0  0  0
 25 30  1  0  0  0  0
 26 31  1  0  0  0  0
 26 32  1  0  0  0  0
M  END
> <BCLConfClusterSize>
1

> <ConfClashScore>
0 

> <ConfOneFourInteractionScore>
-0.984592 

> <ConfScore>
0.195278 

> <ConfScorePBest>
0.00304907 

> <ConfTolerance>
0.352373 

> <RosettaParamsInstructions>
M  ROOT 3
M  POLY_N_BB 3
M  POLY_CA_BB 4
M  POLY_C_BB 2
M  POLY_O_BB 5
M  POLY_IGNORE 9 10 11 12 13 14 15 16 17 18 
M  POLY_UPPER 6
M  POLY_LOWER 8
M  POLY_CHG 0
M  POLY_PROPERTIES ALPHA_AA L_AA PROTEIN AROMATIC POLYMER 
M  END

$$$$



 32 32  0  0  0  0  0  0  0  0999 V2000
   -2.9073    1.3992    0.5379 H   0  0  0  1  0  0  0  0  0  0  0  0
   -1.7199    2.1213   -1.0608 C   0  0  0  1  0  0  0  0  0  0  0  0
   -1.0977    0.3984    0.5578 N   0  0  0  1  0  0  0  0  0  0  0  0
   -1.8729    1.6157    0.3706 C   0  0  0  1  0  0  0  0  0  0  0  0
   -0.6148    2.2919   -1.5686 O   0  0  0  1  0  0  0  0  0  0  0  0
   -2.8931    2.3512   -1.6821 N   0  0  0  1  0  0  0  0  0  0  0  0
   -0.4756    0.3453    1.3131 H   0  0  0  1  0  0  0  0  0  0  0  0
   -1.2056   -0.6596   -0.2725 C   0  0  0  1  0  0  0  0  0  0  0  0
   -2.9129    2.7499   -3.0816 C   0  0  0  1  0  0  0  0  0  0  0  0
   -0.3533   -1.8805    0.0141 C   0  0  0  1  0  0  0  0  0  0  0  0
   -1.9723   -0.6369   -1.2344 O   0  0  0  1  0  0  0  0  0  0  0  0
   -3.7348    2.2498   -1.1906 H   0  0  0  1  0  0  0  0  0  0  0  0
   -2.0058    3.2652   -3.3191 H   0  0  0  1  0  0  0  0  0  0  0  0
   -3.7468    3.3973   -3.2560 H   0  0  0  1  0  0  0  0  0  0  0  0
   -3.0008    1.8802   -3.6987 H   0  0  0  1  0  0  0  0  0  0  0  0
   -0.5075   -2.1944    1.0253 H   0  0  0  1  0  0  0  0  0  0  0  0
    0.6786   -1.6366   -0.1299 H   0  0  0  1  0  0  0  0  0  0  0  0
   -0.6294   -2.6720   -0.6509 H   0  0  0  1  0  0  0  0  0  0  0  0
   -3.8674    7.6913    0.4843 F   0  0  0  1  0  0  0  0  0  0  0  0
   -3.2973    6.4848    0.6668 C   0  0  0  1  0  0  0  0  0  0  0  0
   -2.0383    6.4389    1.2450 C   0  0  0  1  0  0  0  0  0  0  0  0
   -1.4139    5.2224    1.4460 C   0  0  0  1  0  0  0  0  0  0  0  0
   -2.0490    4.0477    1.0742 C   0  0  0  1  0  0  0  0  0  0  0  0
   -3.3043    4.0932    0.4977 C   0  0  0  1  0  0  0  0  0  0  0  0
   -3.9305    5.3135    0.2962 C   0  0  0  1  0  0  0  0  0  0  0  0
   -1.4467    2.6947    1.3710 C   0  0  0  1  0  0  0  0  0  0  0  0
   -1.5635    7.3200    1.5276 H   0  0  0  1  0  0  0  0  0  0  0  0
   -0.4676    5.1883    1.8761 H   0  0  0  1  0  0  0  0  0  0  0  0
   -3.7791    3.2121    0.2151 H   0  0  0  1  0  0  0  0  0  0  0  0
   -4.8767    5.3476   -0.1340 H   0  0  0  1  0  0  0  0  0  0  0  0
   -0.3807    2.7830    1.3432 H   0  0  0  1  0  0  0  0  0  0  0  0
   -1.7547    2.3922    2.3500 H   0  0  0  1  0  0  0  0  0  0  0  0
  1  4  1  0  0  0  0
  2  4  1  0  0  0  0
  2  5  2  0  0  0  0
  2  6  1  0  0  0  0
  3  4  1  0  0  0  0
  3  7  1  0  0  0  0
  3  8  1  0  0  0  0
  4 26  1  0  0  0  0
  6  9  1  0  0  0  0
  6 12  1  0  0  0  0
  8 10  1  0  0  0  0
  8 11  2  0  0  0  0
  9 13  1  0  0  0  0
  9 14  1  0  0  0  0
  9 15  1  0  0  0  0
 10 16  1  0  0  0  0
 10 17  1  0  0  0  0
 10 18  1  0  0  0  0
 19 20  1  0  0  0  0
 20 21  4  0  0  0  0
 20 25  4  0  0  0  0
 21 22  4  0  0  0  0
 21 27  1  0  0  0  0
 22 23  4  0  0  0  0
 22 28  1  0  0  0  0
 23 24  4  0  0  0  0
 23 26  1  0  0  0  0
 24 25  4  0  0  0  0
 24 29  1  0  0  0  0
 25 30  1  0  0  0  0
 26 31  1  0  0  0  0
 26 32  1  0  0  0  0
M  END
> <BCLConfClusterSize>
1

> <ConfClashScore>
0 

> <ConfOneFourInteractionScore>
-0.97449 

> <ConfScore>
0.203044 

> <ConfScorePBest>
0.00302059 

> <ConfTolerance>
0.838787 

> <RosettaParamsInstructions>
M  ROOT 3
M  POLY_N_BB 3
M  POLY_CA_BB 4
M  POLY_C_BB 2
M  POLY_O_BB 5
M  POLY_IGNORE 9 10 11 12 13 14 15 16 17 18 
M  POLY_UPPER 6
M  POLY_LOWER 8
M  POLY_CHG 0
M  POLY_PROPERTIES ALPHA_AA L_AA PROTEIN AROMATIC POLYMER 
M  END

$$$$



 32 32  0  0  0  0  0  0  0  0999 V2000
   -0.1497    1.2463    0.4030 H   0  0  0  1  0  0  0  0  0  0  0  0
   -0.9848    2.4493   -1.1470 C   0  0  0  1  0  0  0  0  0  0  0  0
    0.7986    3.0977    0.3622 N   0  0  0  1  0  0  0  0  0  0  0  0
   -0.3978    2.2763    0.2536 C   0  0  0  1  0  0  0  0  0  0  0  0
   -2.1127    2.0367   -1.4138 O   0  0  0  1  0  0  0  0  0  0  0  0
   -0.2338    3.0638   -2.0746 N   0  0  0  1  0  0  0  0  0  0  0  0
    0.8905    3.8791   -0.2222 H   0  0  0  1  0  0  0  0  0  0  0  0
    1.7761    2.8237    1.2307 C   0  0  0  1  0  0  0  0  0  0  0  0
   -0.7355    3.2256   -3.4311 C   0  0  0  1  0  0  0  0  0  0  0  0
    2.9022    3.8244    1.2865 C   0  0  0  1  0  0  0  0  0  0  0  0
    1.7746    1.8254    1.9461 O   0  0  0  1  0  0  0  0  0  0  0  0
    0.6542    3.4040   -1.8379 H   0  0  0  1  0  0  0  0  0  0  0  0
   -1.0145    2.2707   -3.8250 H   0  0  0  1  0  0  0  0  0  0  0  0
    0.0286    3.6550   -4.0448 H   0  0  0  1  0  0  0  0  0  0  0  0
   -1.5895    3.8702   -3.4206 H   0  0  0  1  0  0  0  0  0  0  0  0
    2.6564    4.6727    0.6826 H   0  0  0  1  0  0  0  0  0  0  0  0
    3.7993    3.3724    0.9179 H   0  0  0  1  0  0  0  0  0  0  0  0
    3.0503    4.1382    2.2987 H   0  0  0  1  0  0  0  0  0  0  0  0
   -3.8843    7.6784    0.4533 F   0  0  0  1  0  0  0  0  0  0  0  0
   -3.2892    6.4887    0.6639 C   0  0  0  1  0  0  0  0  0  0  0  0
   -2.0333    6.4356    1.2481 C   0  0  0  1  0  0  0  0  0  0  0  0
   -1.4202    5.2151    1.4594 C   0  0  0  1  0  0  0  0  0  0  0  0
   -2.0637    4.0436    1.0920 C   0  0  0  1  0  0  0  0  0  0  0  0
   -3.3160    4.0963    0.5094 C   0  0  0  1  0  0  0  0  0  0  0  0
   -3.9307    5.3205    0.2975 C   0  0  0  1  0  0  0  0  0  0  0  0
   -1.3968    2.7090    1.3279 C   0  0  0  1  0  0  0  0  0  0  0  0
   -1.5523    7.3143    1.5275 H   0  0  0  1  0  0  0  0  0  0  0  0
   -0.4762    5.1756    1.8941 H   0  0  0  1  0  0  0  0  0  0  0  0
   -3.7969    3.2175    0.2300 H   0  0  0  1  0  0  0  0  0  0  0  0
   -4.8747    5.3600   -0.1371 H   0  0  0  1  0  0  0  0  0  0  0  0
   -0.8762    2.7607    2.2613 H   0  0  0  1  0  0  0  0  0  0  0  0
   -2.1620    1.9635    1.3865 H   0  0  0  1  0  0  0  0  0  0  0  0
  1  4  1  0  0  0  0
  2  4  1  0  0  0  0
  2  5  2  0  0  0  0
  2  6  1  0  0  0  0
  3  4  1  0  0  0  0
  3  7  1  0  0  0  0
  3  8  1  0  0  0  0
  4 26  1  0  0  0  0
  6  9  1  0  0  0  0
  6 12  1  0  0  0  0
  8 10  1  0  0  0  0
  8 11  2  0  0  0  0
  9 13  1  0  0  0  0
  9 14  1  0  0  0  0
  9 15  1  0  0  0  0
 10 16  1  0  0  0  0
 10 17  1  0  0  0  0
 10 18  1  0  0  0  0
 19 20  1  0  0  0  0
 20 21  4  0  0  0  0
 20 25  4  0  0  0  0
 21 22  4  0  0  0  0
 21 27  1  0  0  0  0
 22 23  4  0  0  0  0
 22 28  1  0  0  0  0
 23 24  4  0  0  0  0
 23 26  1  0  0  0  0
 24 25  4  0  0  0  0
 24 29  1  0  0  0  0
 25 30  1  0  0  0  0
 26 31  1  0  0  0  0
 26 32  1  0  0  0  0
M  END
> <BCLConfClusterSize>
1

> <ConfClashScore>
0 

> <ConfOneFourInteractionScore>
-0.957723 

> <ConfScore>
0.206571 

> <ConfScorePBest>
0.00299211 

> <ConfTolerance>
0.453865 

> <RosettaParamsInstructions>
M  ROOT 3
M  POLY_N_BB 3
M  POLY_CA_BB 4
M  POLY_C_BB 2
M  POLY_O_BB 5
M  POLY_IGNORE 9 10 11 12 13 14 15 16 17 18 
M  POLY_UPPER 6
M  POLY_LOWER 8
M  POLY_CHG 0
M  POLY_PROPERTIES ALPHA_AA L_AA PROTEIN AROMATIC POLYMER 
M  END

$$$$



 32 32  0  0  0  0  0  0  0  0999 V2000
   -2.6013    1.5110    0.1946 H   0  0  0  1  0  0  0  0  0  0  0  0
   -1.3851    0.2093    1.2908 C   0  0  0  1  0  0  0  0  0  0  0  0
   -3.3600    1.5126    2.0935 N   0  0  0  1  0  0  0  0  0  0  0  0
   -2.2139    1.4839    1.1917 C   0  0  0  1  0  0  0  0  0  0  0  0
   -0.2141    0.1846    0.9170 O   0  0  0  1  0  0  0  0  0  0  0  0
   -2.0531   -0.8727    1.7318 N   0  0  0  1  0  0  0  0  0  0  0  0
   -4.2528    1.2892    1.7567 H   0  0  0  1  0  0  0  0  0  0  0  0
   -3.1949    1.8429    3.3788 C   0  0  0  1  0  0  0  0  0  0  0  0
   -1.3723   -2.1585    1.7009 C   0  0  0  1  0  0  0  0  0  0  0  0
   -4.4454    1.8114    4.2666 C   0  0  0  1  0  0  0  0  0  0  0  0
   -2.0962    2.0865    3.8758 O   0  0  0  1  0  0  0  0  0  0  0  0
   -2.9719   -0.7968    2.0642 H   0  0  0  1  0  0  0  0  0  0  0  0
   -0.7158   -2.1949    0.8567 H   0  0  0  1  0  0  0  0  0  0  0  0
   -2.0957   -2.9432    1.6239 H   0  0  0  1  0  0  0  0  0  0  0  0
   -0.8047   -2.2830    2.5993 H   0  0  0  1  0  0  0  0  0  0  0  0
   -5.0837    2.6321    4.0139 H   0  0  0  1  0  0  0  0  0  0  0  0
   -4.1553    1.8886    5.2937 H   0  0  0  1  0  0  0  0  0  0  0  0
   -4.9694    0.8914    4.1117 H   0  0  0  1  0  0  0  0  0  0  0  0
   -3.8531    7.6958    0.4688 F   0  0  0  1  0  0  0  0  0  0  0  0
   -3.2951    6.4852    0.6609 C   0  0  0  1  0  0  0  0  0  0  0  0
   -2.0392    6.4310    1.2451 C   0  0  0  1  0  0  0  0  0  0  0  0
   -1.4270    5.2099    1.4560 C   0  0  0  1  0  0  0  0  0  0  0  0
   -2.0714    4.0390    1.0881 C   0  0  0  1  0  0  0  0  0  0  0  0
   -3.3237    4.0928    0.5056 C   0  0  0  1  0  0  0  0  0  0  0  0
   -3.9375    5.3176    0.2942 C   0  0  0  1  0  0  0  0  0  0  0  0
   -1.3601    2.7318    1.3464 C   0  0  0  1  0  0  0  0  0  0  0  0
   -1.5575    7.3092    1.5248 H   0  0  0  1  0  0  0  0  0  0  0  0
   -0.4831    5.1696    1.8906 H   0  0  0  1  0  0  0  0  0  0  0  0
   -3.8053    3.2146    0.2260 H   0  0  0  1  0  0  0  0  0  0  0  0
   -4.8815    5.3580   -0.1404 H   0  0  0  1  0  0  0  0  0  0  0  0
   -0.5426    2.6596    0.6598 H   0  0  0  1  0  0  0  0  0  0  0  0
   -0.9845    2.7527    2.3481 H   0  0  0  1  0  0  0  0  0  0  0  0
  1  4  1  0  0  0  0
  2  4  1  0  0  0  0
  2  5  2  0  0  0  0
  2  6  1  0  0  0  0
  3  4  1  0  0  0  0
  3  7  1  0  0  0  0
  3  8  1  0  0  0  0
  4 26  1  0  0  0  0
  6  9  1  0  0  0  0
  6 12  1  0  0  0  0
  8 10  1  0  0  0  0
  8 11  2  0  0  0  0
  9 13  1  0  0  0  0
  9 14  1  0  0  0  0
  9 15  1  0  0  0  0
 10 16  1  0  0  0  0
 10 17  1  0  0  0  0
 10 18  1  0  0  0  0
 19 20  1  0  0  0  0
 20 21  4  0  0  0  0
 20 25  4  0  0  0  0
 21 22  4  0  0  0  0
 21 27  1  0  0  0  0
 22 23  4  0  0  0  0
 22 28  1  0  0  0  0
 23 24  4  0  0  0  0
 23 26  1  0  0  0  0
 24 25  4  0  0  0  0
 24 29  1  0  0  0  0
 25 30  1  0  0  0  0
 26 31  1  0  0  0  0
 26 32  1  0  0  0  0
M  END
> <BCLConfClusterSize>
1

> <ConfClashScore>
0 

> <ConfOneFourInteractionScore>
-0.949889 

> <ConfScore>
0.213568 

> <ConfScorePBest>
0.00296363 

> <ConfTolerance>
0.476581 

> <RosettaParamsInstructions>
M  ROOT 3
M  POLY_N_BB 3
M  POLY_CA_BB 4
M  POLY_C_BB 2
M  POLY_O_BB 5
M  POLY_IGNORE 9 10 11 12 13 14 15 16 17 18 
M  POLY_UPPER 6
M  POLY_LOWER 8
M  POLY_CHG 0
M  POLY_PROPERTIES ALPHA_AA L_AA PROTEIN AROMATIC POLYMER 
M  END

$$$$



 32 32  0  0  0  0  0  0  0  0999 V2000
   -2.9359    2.1789    2.7603 H   0  0  0  1  0  0  0  0  0  0  0  0
   -1.4657    0.6941    2.9521 C   0  0  0  1  0  0  0  0  0  0  0  0
   -1.3505    3.0275    3.7715 N   0  0  0  1  0  0  0  0  0  0  0  0
   -1.8673    2.1385    2.7251 C   0  0  0  1  0  0  0  0  0  0  0  0
   -0.3193    0.3945    3.2753 O   0  0  0  1  0  0  0  0  0  0  0  0
   -2.4372   -0.2157    2.7772 N   0  0  0  1  0  0  0  0  0  0  0  0
   -0.3903    3.2170    3.8219 H   0  0  0  1  0  0  0  0  0  0  0  0
   -2.1897    3.5818    4.6596 C   0  0  0  1  0  0  0  0  0  0  0  0
   -3.7264    0.1258    2.1948 C   0  0  0  1  0  0  0  0  0  0  0  0
   -1.5465    4.4877    5.7018 C   0  0  0  1  0  0  0  0  0  0  0  0
   -3.3941    3.3844    4.6486 O   0  0  0  1  0  0  0  0  0  0  0  0
   -2.2725   -1.1421    3.0511 H   0  0  0  1  0  0  0  0  0  0  0  0
   -3.5831    0.8160    1.3898 H   0  0  0  1  0  0  0  0  0  0  0  0
   -4.3476    0.5738    2.9420 H   0  0  0  1  0  0  0  0  0  0  0  0
   -4.1964   -0.7612    1.8244 H   0  0  0  1  0  0  0  0  0  0  0  0
   -1.8668    5.4965    5.5446 H   0  0  0  1  0  0  0  0  0  0  0  0
   -0.4816    4.4338    5.6123 H   0  0  0  1  0  0  0  0  0  0  0  0
   -1.8394    4.1691    6.6803 H   0  0  0  1  0  0  0  0  0  0  0  0
   -3.8674    7.6913    0.4843 F   0  0  0  1  0  0  0  0  0  0  0  0
   -3.2973    6.4848    0.6668 C   0  0  0  1  0  0  0  0  0  0  0  0
   -2.0383    6.4389    1.2450 C   0  0  0  1  0  0  0  0  0  0  0  0
   -1.4139    5.2224    1.4460 C   0  0  0  1  0  0  0  0  0  0  0  0
   -2.0490    4.0477    1.0742 C   0  0  0  1  0  0  0  0  0  0  0  0
   -3.3043    4.0932    0.4977 C   0  0  0  1  0  0  0  0  0  0  0  0
   -3.9305    5.3135    0.2962 C   0  0  0  1  0  0  0  0  0  0  0  0
   -1.4467    2.6947    1.3710 C   0  0  0  1  0  0  0  0  0  0  0  0
   -1.5635    7.3200    1.5276 H   0  0  0  1  0  0  0  0  0  0  0  0
   -0.4676    5.1883    1.8761 H   0  0  0  1  0  0  0  0  0  0  0  0
   -3.7791    3.2121    0.2151 H   0  0  0  1  0  0  0  0  0  0  0  0
   -4.8767    5.3476   -0.1340 H   0  0  0  1  0  0  0  0  0  0  0  0
   -1.7571    2.0095    0.6100 H   0  0  0  1  0  0  0  0  0  0  0  0
   -0.3807    2.7859    1.3564 H   0  0  0  1  0  0  0  0  0  0  0  0
  1  4  1  0  0  0  0
  2  4  1  0  0  0  0
  2  5  2  0  0  0  0
  2  6  1  0  0  0  0
  3  4  1  0  0  0  0
  3  7  1  0  0  0  0
  3  8  1  0  0  0  0
  4 26  1  0  0  0  0
  6  9  1  0  0  0  0
  6 12  1  0  0  0  0
  8 10  1  0  0  0  0
  8 11  2  0  0  0  0
  9 13  1  0  0  0  0
  9 14  1  0  0  0  0
  9 15  1  0  0  0  0
 10 16  1  0  0  0  0
 10 17  1  0  0  0  0
 10 18  1  0  0  0  0
 19 20  1  0  0  0  0
 20 21  4  0  0  0  0
 20 25  4  0  0  0  0
 21 22  4  0  0  0  0
 21 27  1  0  0  0  0
 22 23  4  0  0  0  0
 22 28  1  0  0  0  0
 23 24  4  0  0  0  0
 23 26  1  0  0  0  0
 24 25  4  0  0  0  0
 24 29  1  0  0  0  0
 25 30  1  0  0  0  0
 26 31  1  0  0  0  0
 26 32  1  0  0  0  0
M  END
> <BCLConfClusterSize>
1

> <ConfClashScore>
0 

> <ConfOneFourInteractionScore>
-0.974251 

> <ConfScore>
0.218883 

> <ConfScorePBest>
0.00293515 

> <ConfTolerance>
0.941429 

> <RosettaParamsInstructions>
M  ROOT 3
M  POLY_N_BB 3
M  POLY_CA_BB 4
M  POLY_C_BB 2
M  POLY_O_BB 5
M  POLY_IGNORE 9 10 11 12 13 14 15 16 17 18 
M  POLY_UPPER 6
M  POLY_LOWER 8
M  POLY_CHG 0
M  POLY_PROPERTIES ALPHA_AA L_AA PROTEIN AROMATIC POLYMER 
M  END

$$$$



 32 32  0  0  0  0  0  0  0  0999 V2000
   -1.1096    1.2438    2.8268 H   0  0  0  1  0  0  0  0  0  0  0  0
   -0.6454    3.1224    3.6788 C   0  0  0  1  0  0  0  0  0  0  0  0
   -2.8760    2.2400    3.2285 N   0  0  0  1  0  0  0  0  0  0  0  0
   -1.4935    2.2412    2.7741 C   0  0  0  1  0  0  0  0  0  0  0  0
    0.2301    3.8539    3.2189 O   0  0  0  1  0  0  0  0  0  0  0  0
   -0.9178    3.0443    4.9910 N   0  0  0  1  0  0  0  0  0  0  0  0
   -3.1874    3.0195    3.7343 H   0  0  0  1  0  0  0  0  0  0  0  0
   -3.7514    1.2579    3.0084 C   0  0  0  1  0  0  0  0  0  0  0  0
   -0.1623    3.7887    5.9874 C   0  0  0  1  0  0  0  0  0  0  0  0
   -5.0683    1.3816    3.7714 C   0  0  0  1  0  0  0  0  0  0  0  0
   -3.5146    0.2745    2.3080 O   0  0  0  1  0  0  0  0  0  0  0  0
   -1.6510    2.4659    5.2882 H   0  0  0  1  0  0  0  0  0  0  0  0
    0.8681    3.5044    5.9402 H   0  0  0  1  0  0  0  0  0  0  0  0
   -0.5475    3.5720    6.9619 H   0  0  0  1  0  0  0  0  0  0  0  0
   -0.2521    4.8370    5.7929 H   0  0  0  1  0  0  0  0  0  0  0  0
   -4.8664    1.4979    4.8157 H   0  0  0  1  0  0  0  0  0  0  0  0
   -5.6535    0.4991    3.6176 H   0  0  0  1  0  0  0  0  0  0  0  0
   -5.6076    2.2344    3.4155 H   0  0  0  1  0  0  0  0  0  0  0  0
   -3.8843    7.6784    0.4533 F   0  0  0  1  0  0  0  0  0  0  0  0
   -3.2892    6.4887    0.6639 C   0  0  0  1  0  0  0  0  0  0  0  0
   -2.0333    6.4356    1.2481 C   0  0  0  1  0  0  0  0  0  0  0  0
   -1.4202    5.2151    1.4594 C   0  0  0  1  0  0  0  0  0  0  0  0
   -2.0637    4.0436    1.0920 C   0  0  0  1  0  0  0  0  0  0  0  0
   -3.3160    4.0963    0.5094 C   0  0  0  1  0  0  0  0  0  0  0  0
   -3.9307    5.3205    0.2975 C   0  0  0  1  0  0  0  0  0  0  0  0
   -1.3968    2.7090    1.3279 C   0  0  0  1  0  0  0  0  0  0  0  0
   -1.5523    7.3143    1.5275 H   0  0  0  1  0  0  0  0  0  0  0  0
   -0.4762    5.1756    1.8941 H   0  0  0  1  0  0  0  0  0  0  0  0
   -3.7969    3.2175    0.2300 H   0  0  0  1  0  0  0  0  0  0  0  0
   -4.8747    5.3600   -0.1371 H   0  0  0  1  0  0  0  0  0  0  0  0
   -1.8653    1.9788    0.7017 H   0  0  0  1  0  0  0  0  0  0  0  0
   -0.3629    2.7939    1.0658 H   0  0  0  1  0  0  0  0  0  0  0  0
  1  4  1  0  0  0  0
  2  4  1  0  0  0  0
  2  5  2  0  0  0  0
  2  6  1  0  0  0  0
  3  4  1  0  0  0  0
  3  7  1  0  0  0  0
  3  8  1  0  0  0  0
  4 26  1  0  0  0  0
  6  9  1  0  0  0  0
  6 12  1  0  0  0  0
  8 10  1  0  0  0  0
  8 11  2  0  0  0  0
  9 13  1  0  0  0  0
  9 14  1  0  0  0  0
  9 15  1  0  0  0  0
 10 16  1  0  0  0  0
 10 17  1  0  0  0  0
 10 18  1  0  0  0  0
 19 20  1  0  0  0  0
 20 21  4  0  0  0  0
 20 25  4  0  0  0  0
 21 22  4  0  0  0  0
 21 27  1  0  0  0  0
 22 23  4  0  0  0  0
 22 28  1  0  0  0  0
 23 24  4  0  0  0  0
 23 26  1  0  0  0  0
 24 25  4  0  0  0  0
 24 29  1  0  0  0  0
 25 30  1  0  0  0  0
 26 31  1  0  0  0  0
 26 32  1  0  0  0  0
M  END
> <BCLConfClusterSize>
1

> <ConfClashScore>
0 

> <ConfOneFourInteractionScore>
-0.950895 

> <ConfScore>
0.224448 

> <ConfScorePBest>
0.00290666 

> <ConfTolerance>
0.599157 

> <RosettaParamsInstructions>
M  ROOT 3
M  POLY_N_BB 3
M  POLY_CA_BB 4
M  POLY_C_BB 2
M  POLY_O_BB 5
M  POLY_IGNORE 9 10 11 12 13 14 15 16 17 18 
M  POLY_UPPER 6
M  POLY_LOWER 8
M  POLY_CHG 0
M  POLY_PROPERTIES ALPHA_AA L_AA PROTEIN AROMATIC POLYMER 
M  END

$$$$



 32 32  0  0  0  0  0  0  0  0999 V2000
   -1.1071    2.4596   -0.7153 H   0  0  0  1  0  0  0  0  0  0  0  0
    0.7572    3.0503   -0.0220 C   0  0  0  1  0  0  0  0  0  0  0  0
   -0.2867    0.8060    0.1666 N   0  0  0  1  0  0  0  0  0  0  0  0
   -0.5256    2.2628    0.1611 C   0  0  0  1  0  0  0  0  0  0  0  0
    1.8420    2.5966    0.3399 O   0  0  0  1  0  0  0  0  0  0  0  0
    0.6243    4.2560   -0.5972 N   0  0  0  1  0  0  0  0  0  0  0  0
   -0.0282    0.3723    1.0066 H   0  0  0  1  0  0  0  0  0  0  0  0
   -0.4117    0.0509   -0.9444 C   0  0  0  1  0  0  0  0  0  0  0  0
    1.7588    5.1391   -0.8224 C   0  0  0  1  0  0  0  0  0  0  0  0
   -0.0327   -1.4146   -0.8567 C   0  0  0  1  0  0  0  0  0  0  0  0
   -0.8208    0.5348   -1.9990 O   0  0  0  1  0  0  0  0  0  0  0  0
   -0.2678    4.5517   -0.8750 H   0  0  0  1  0  0  0  0  0  0  0  0
    1.8347    5.8363   -0.0143 H   0  0  0  1  0  0  0  0  0  0  0  0
    1.6196    5.6711   -1.7403 H   0  0  0  1  0  0  0  0  0  0  0  0
    2.6563    4.5592   -0.8783 H   0  0  0  1  0  0  0  0  0  0  0  0
   -0.7909   -1.9483   -0.3227 H   0  0  0  1  0  0  0  0  0  0  0  0
    0.9006   -1.5113   -0.3422 H   0  0  0  1  0  0  0  0  0  0  0  0
    0.0598   -1.8186   -1.8432 H   0  0  0  1  0  0  0  0  0  0  0  0
   -3.9116    7.6616    0.4395 F   0  0  0  1  0  0  0  0  0  0  0  0
   -3.2836    6.4921    0.6667 C   0  0  0  1  0  0  0  0  0  0  0  0
   -2.0277    6.4356    1.2507 C   0  0  0  1  0  0  0  0  0  0  0  0
   -1.4173    5.2135    1.4607 C   0  0  0  1  0  0  0  0  0  0  0  0
   -2.0634    4.0439    1.0921 C   0  0  0  1  0  0  0  0  0  0  0  0
   -3.3156    4.0999    0.5098 C   0  0  0  1  0  0  0  0  0  0  0  0
   -3.9277    5.3257    0.2993 C   0  0  0  1  0  0  0  0  0  0  0  0
   -1.3994    2.7076    1.3266 C   0  0  0  1  0  0  0  0  0  0  0  0
   -1.5447    7.3130    1.5309 H   0  0  0  1  0  0  0  0  0  0  0  0
   -0.4733    5.1715    1.8952 H   0  0  0  1  0  0  0  0  0  0  0  0
   -3.7986    3.2225    0.2296 H   0  0  0  1  0  0  0  0  0  0  0  0
   -4.8716    5.3677   -0.1352 H   0  0  0  1  0  0  0  0  0  0  0  0
   -0.7885    2.7798    2.2021 H   0  0  0  1  0  0  0  0  0  0  0  0
   -2.1605    1.9717    1.4819 H   0  0  0  1  0  0  0  0  0  0  0  0
  1  4  1  0  0  0  0
  2  4  1  0  0  0  0
  2  5  2  0  0  0  0
  2  6  1  0  0  0  0
  3  4  1  0  0  0  0
  3  7  1  0  0  0  0
  3  8  1  0  0  0  0
  4 26  1  0  0  0  0
  6  9  1  0  0  0  0
  6 12  1  0  0  0  0
  8 10  1  0  0  0  0
  8 11  2  0  0  0  0
  9 13  1  0  0  0  0
  9 14  1  0  0  0  0
  9 15  1  0  0  0  0
 10 16  1  0  0  0  0
 10 17  1  0  0  0  0
 10 18  1  0  0  0  0
 19 20  1  0  0  0  0
 20 21  4  0  0  0  0
 20 25  4  0  0  0  0
 21 22  4  0  0  0  0
 21 27  1  0  0  0  0
 22 23  4  0  0  0  0
 22 28  1  0  0  0  0
 23 24  4  0  0  0  0
 23 26  1  0  0  0  0
 24 25  4  0  0  0  0
 24 29  1  0  0  0  0
 25 30  1  0  0  0  0
 26 31  1  0  0  0  0
 26 32  1  0  0  0  0
M  END
> <BCLConfClusterSize>
1

> <ConfClashScore>
0 

> <ConfOneFourInteractionScore>
-0.985807 

> <ConfScore>
0.226011 

> <ConfScorePBest>
0.00287818 

> <ConfTolerance>
0.672022 

> <RosettaParamsInstructions>
M  ROOT 3
M  POLY_N_BB 3
M  POLY_CA_BB 4
M  POLY_C_BB 2
M  POLY_O_BB 5
M  POLY_IGNORE 9 10 11 12 13 14 15 16 17 18 
M  POLY_UPPER 6
M  POLY_LOWER 8
M  POLY_CHG 0
M  POLY_PROPERTIES ALPHA_AA L_AA PROTEIN AROMATIC POLYMER 
M  END

$$$$



 32 32  0  0  0  0  0  0  0  0999 V2000
   -3.1851    1.7863    1.8067 H   0  0  0  1  0  0  0  0  0  0  0  0
   -1.6793    0.3284    2.0223 C   0  0  0  1  0  0  0  0  0  0  0  0
   -2.2055    2.1938    3.5693 N   0  0  0  1  0  0  0  0  0  0  0  0
   -2.1830    1.7588    2.1808 C   0  0  0  1  0  0  0  0  0  0  0  0
   -1.2927   -0.0973    0.9301 O   0  0  0  1  0  0  0  0  0  0  0  0
   -1.6871   -0.4180    3.1348 N   0  0  0  1  0  0  0  0  0  0  0  0
   -3.0342    2.5427    3.9590 H   0  0  0  1  0  0  0  0  0  0  0  0
   -1.1005    2.1186    4.3127 C   0  0  0  1  0  0  0  0  0  0  0  0
   -0.9811   -1.6875    3.2243 C   0  0  0  1  0  0  0  0  0  0  0  0
   -1.2285    2.6252    5.7362 C   0  0  0  1  0  0  0  0  0  0  0  0
   -0.0384    1.6708    3.8887 O   0  0  0  1  0  0  0  0  0  0  0  0
   -2.1856   -0.0981    3.9155 H   0  0  0  1  0  0  0  0  0  0  0  0
   -0.0370   -1.6069    2.7272 H   0  0  0  1  0  0  0  0  0  0  0  0
   -1.5649   -2.4536    2.7584 H   0  0  0  1  0  0  0  0  0  0  0  0
   -0.8223   -1.9352    4.2530 H   0  0  0  1  0  0  0  0  0  0  0  0
   -2.1757    3.1072    5.8599 H   0  0  0  1  0  0  0  0  0  0  0  0
   -0.4438    3.3242    5.9376 H   0  0  0  1  0  0  0  0  0  0  0  0
   -1.1562    1.8016    6.4154 H   0  0  0  1  0  0  0  0  0  0  0  0
   -3.8811    7.6806    0.4549 F   0  0  0  1  0  0  0  0  0  0  0  0
   -3.2895    6.4888    0.6637 C   0  0  0  1  0  0  0  0  0  0  0  0
   -2.0337    6.4312    1.2477 C   0  0  0  1  0  0  0  0  0  0  0  0
   -1.4242    5.2085    1.4572 C   0  0  0  1  0  0  0  0  0  0  0  0
   -2.0712    4.0395    1.0882 C   0  0  0  1  0  0  0  0  0  0  0  0
   -3.3234    4.0967    0.5060 C   0  0  0  1  0  0  0  0  0  0  0  0
   -3.9346    5.3231    0.2959 C   0  0  0  1  0  0  0  0  0  0  0  0
   -1.3609    2.7268    1.3457 C   0  0  0  1  0  0  0  0  0  0  0  0
   -1.5500    7.3081    1.5282 H   0  0  0  1  0  0  0  0  0  0  0  0
   -0.4803    5.1656    1.8916 H   0  0  0  1  0  0  0  0  0  0  0  0
   -3.8071    3.2198    0.2255 H   0  0  0  1  0  0  0  0  0  0  0  0
   -4.8785    5.3660   -0.1385 H   0  0  0  1  0  0  0  0  0  0  0  0
   -1.1448    2.2661    0.4045 H   0  0  0  1  0  0  0  0  0  0  0  0
   -0.4461    2.9302    1.8622 H   0  0  0  1  0  0  0  0  0  0  0  0
  1  4  1  0  0  0  0
  2  4  1  0  0  0  0
  2  5  2  0  0  0  0
  2  6  1  0  0  0  0
  3  4  1  0  0  0  0
  3  7  1  0  0  0  0
  3  8  1  0  0  0  0
  4 26  1  0  0  0  0
  6  9  1  0  0  0  0
  6 12  1  0  0  0  0
  8 10  1  0  0  0  0
  8 11  2  0  0  0  0
  9 13  1  0  0  0  0
  9 14  1  0  0  0  0
  9 15  1  0  0  0  0
 10 16  1  0  0  0  0
 10 17  1  0  0  0  0
 10 18  1  0  0  0  0
 19 20  1  0  0  0  0
 20 21  4  0  0  0  0
 20 25  4  0  0  0  0
 21 22  4  0  0  0  0
 21 27  1  0  0  0  0
 22 23  4  0  0  0  0
 22 28  1  0  0  0  0
 23 24  4  0  0  0  0
 23 26  1  0  0  0  0
 24 25  4  0  0  0  0
 24 29  1  0  0  0  0
 25 30  1  0  0  0  0
 26 31  1  0  0  0  0
 26 32  1  0  0  0  0
M  END
> <BCLConfClusterSize>
1

> <ConfClashScore>
0 

> <ConfOneFourInteractionScore>
-0.957723 

> <ConfScore>
0.233075 

> <ConfScorePBest>
0.0028497 

> <ConfTolerance>
0.543346 

> <RosettaParamsInstructions>
M  ROOT 3
M  POLY_N_BB 3
M  POLY_CA_BB 4
M  POLY_C_BB 2
M  POLY_O_BB 5
M  POLY_IGNORE 9 10 11 12 13 14 15 16 17 18 
M  POLY_UPPER 6
M  POLY_LOWER 8
M  POLY_CHG 0
M  POLY_PROPERTIES ALPHA_AA L_AA PROTEIN AROMATIC POLYMER 
M  END

$$$$



 32 32  0  0  0  0  0  0  0  0999 V2000
   -1.2176    1.1760    2.7831 H   0  0  0  1  0  0  0  0  0  0  0  0
   -1.0995    3.0407    3.7897 C   0  0  0  1  0  0  0  0  0  0  0  0
   -3.1204    2.0034    2.8726 N   0  0  0  1  0  0  0  0  0  0  0  0
   -1.6795    2.1385    2.7123 C   0  0  0  1  0  0  0  0  0  0  0  0
    0.0215    2.8399    4.2553 O   0  0  0  1  0  0  0  0  0  0  0  0
   -1.8821    4.0484    4.1861 N   0  0  0  1  0  0  0  0  0  0  0  0
   -3.6297    2.6439    3.4118 H   0  0  0  1  0  0  0  0  0  0  0  0
   -3.7328    0.9738    2.2591 C   0  0  0  1  0  0  0  0  0  0  0  0
   -1.5106    5.0204    5.2035 C   0  0  0  1  0  0  0  0  0  0  0  0
   -5.2448    1.0119    2.3676 C   0  0  0  1  0  0  0  0  0  0  0  0
   -3.1519    0.0707    1.6586 O   0  0  0  1  0  0  0  0  0  0  0  0
   -2.7623    4.1388    3.7650 H   0  0  0  1  0  0  0  0  0  0  0  0
   -2.3129    5.7141    5.3447 H   0  0  0  1  0  0  0  0  0  0  0  0
   -0.6344    5.5481    4.8893 H   0  0  0  1  0  0  0  0  0  0  0  0
   -1.3113    4.5137    6.1247 H   0  0  0  1  0  0  0  0  0  0  0  0
   -5.6118    1.9151    1.9268 H   0  0  0  1  0  0  0  0  0  0  0  0
   -5.5291    0.9772    3.3985 H   0  0  0  1  0  0  0  0  0  0  0  0
   -5.6603    0.1702    1.8540 H   0  0  0  1  0  0  0  0  0  0  0  0
   -3.8531    7.6958    0.4688 F   0  0  0  1  0  0  0  0  0  0  0  0
   -3.2951    6.4852    0.6609 C   0  0  0  1  0  0  0  0  0  0  0  0
   -2.0392    6.4310    1.2451 C   0  0  0  1  0  0  0  0  0  0  0  0
   -1.4270    5.2099    1.4560 C   0  0  0  1  0  0  0  0  0  0  0  0
   -2.0714    4.0390    1.0881 C   0  0  0  1  0  0  0  0  0  0  0  0
   -3.3237    4.0928    0.5056 C   0  0  0  1  0  0  0  0  0  0  0  0
   -3.9375    5.3176    0.2942 C   0  0  0  1  0  0  0  0  0  0  0  0
   -1.3601    2.7318    1.3464 C   0  0  0  1  0  0  0  0  0  0  0  0
   -1.5575    7.3092    1.5248 H   0  0  0  1  0  0  0  0  0  0  0  0
   -0.4831    5.1696    1.8906 H   0  0  0  1  0  0  0  0  0  0  0  0
   -3.8053    3.2146    0.2260 H   0  0  0  1  0  0  0  0  0  0  0  0
   -4.8815    5.3580   -0.1404 H   0  0  0  1  0  0  0  0  0  0  0  0
   -1.6529    2.0302    0.5934 H   0  0  0  1  0  0  0  0  0  0  0  0
   -0.3052    2.9005    1.2865 H   0  0  0  1  0  0  0  0  0  0  0  0
  1  4  1  0  0  0  0
  2  4  1  0  0  0  0
  2  5  2  0  0  0  0
  2  6  1  0  0  0  0
  3  4  1  0  0  0  0
  3  7  1  0  0  0  0
  3  8  1  0  0  0  0
  4 26  1  0  0  0  0
  6  9  1  0  0  0  0
  6 12  1  0  0  0  0
  8 10  1  0  0  0  0
  8 11  2  0  0  0  0
  9 13  1  0  0  0  0
  9 14  1  0  0  0  0
  9 15  1  0  0  0  0
 10 16  1  0  0  0  0
 10 17  1  0  0  0  0
 10 18  1  0  0  0  0
 19 20  1  0  0  0  0
 20 21  4  0  0  0  0
 20 25  4  0  0  0  0
 21 22  4  0  0  0  0
 21 27  1  0  0  0  0
 22 23  4  0  0  0  0
 22 28  1  0  0  0  0
 23 24  4  0  0  0  0
 23 26  1  0  0  0  0
 24 25  4  0  0  0  0
 24 29  1  0  0  0  0
 25 30  1  0  0  0  0
 26 31  1  0  0  0  0
 26 32  1  0  0  0  0
M  END
> <BCLConfClusterSize>
1

> <ConfClashScore>
0 

> <ConfOneFourInteractionScore>
-0.9553 

> <ConfScore>
0.237291 

> <ConfScorePBest>
0.00282122 

> <ConfTolerance>
0.647138 

> <RosettaParamsInstructions>
M  ROOT 3
M  POLY_N_BB 3
M  POLY_CA_BB 4
M  POLY_C_BB 2
M  POLY_O_BB 5
M  POLY_IGNORE 9 10 11 12 13 14 15 16 17 18 
M  POLY_UPPER 6
M  POLY_LOWER 8
M  POLY_CHG 0
M  POLY_PROPERTIES ALPHA_AA L_AA PROTEIN AROMATIC POLYMER 
M  END

$$$$



 32 32  0  0  0  0  0  0  0  0999 V2000
   -0.7448    2.4257   -0.6382 H   0  0  0  1  0  0  0  0  0  0  0  0
   -0.3984    0.5774    0.2834 C   0  0  0  1  0  0  0  0  0  0  0  0
   -2.5739    1.4937   -0.4658 N   0  0  0  1  0  0  0  0  0  0  0  0
   -1.2480    1.8303    0.0947 C   0  0  0  1  0  0  0  0  0  0  0  0
    0.3917    0.4770    1.2211 O   0  0  0  1  0  0  0  0  0  0  0  0
   -0.5729   -0.3876   -0.6306 N   0  0  0  1  0  0  0  0  0  0  0  0
   -2.7922    1.7893   -1.3743 H   0  0  0  1  0  0  0  0  0  0  0  0
   -3.4850    0.8006    0.2231 C   0  0  0  1  0  0  0  0  0  0  0  0
    0.2702   -1.5728   -0.6803 C   0  0  0  1  0  0  0  0  0  0  0  0
   -4.7914    0.5315   -0.4979 C   0  0  0  1  0  0  0  0  0  0  0  0
   -3.2940    0.3983    1.3700 O   0  0  0  1  0  0  0  0  0  0  0  0
   -1.2933   -0.2917   -1.2880 H   0  0  0  1  0  0  0  0  0  0  0  0
    1.2530   -1.3267   -0.3363 H   0  0  0  1  0  0  0  0  0  0  0  0
    0.3242   -1.9297   -1.6876 H   0  0  0  1  0  0  0  0  0  0  0  0
   -0.1467   -2.3334   -0.0537 H   0  0  0  1  0  0  0  0  0  0  0  0
   -5.6108    0.8034    0.1342 H   0  0  0  1  0  0  0  0  0  0  0  0
   -4.8575   -0.5088   -0.7394 H   0  0  0  1  0  0  0  0  0  0  0  0
   -4.8279    1.1099   -1.3973 H   0  0  0  1  0  0  0  0  0  0  0  0
   -3.9116    7.6616    0.4395 F   0  0  0  1  0  0  0  0  0  0  0  0
   -3.2836    6.4921    0.6667 C   0  0  0  1  0  0  0  0  0  0  0  0
   -2.0277    6.4356    1.2507 C   0  0  0  1  0  0  0  0  0  0  0  0
   -1.4173    5.2135    1.4607 C   0  0  0  1  0  0  0  0  0  0  0  0
   -2.0634    4.0439    1.0921 C   0  0  0  1  0  0  0  0  0  0  0  0
   -3.3156    4.0999    0.5098 C   0  0  0  1  0  0  0  0  0  0  0  0
   -3.9277    5.3257    0.2993 C   0  0  0  1  0  0  0  0  0  0  0  0
   -1.3994    2.7076    1.3266 C   0  0  0  1  0  0  0  0  0  0  0  0
   -1.5447    7.3130    1.5309 H   0  0  0  1  0  0  0  0  0  0  0  0
   -0.4733    5.1715    1.8952 H   0  0  0  1  0  0  0  0  0  0  0  0
   -3.7986    3.2225    0.2296 H   0  0  0  1  0  0  0  0  0  0  0  0
   -4.8716    5.3677   -0.1352 H   0  0  0  1  0  0  0  0  0  0  0  0
   -0.4229    2.8895    1.7244 H   0  0  0  1  0  0  0  0  0  0  0  0
   -1.9832    2.1704    2.0446 H   0  0  0  1  0  0  0  0  0  0  0  0
  1  4  1  0  0  0  0
  2  4  1  0  0  0  0
  2  5  2  0  0  0  0
  2  6  1  0  0  0  0
  3  4  1  0  0  0  0
  3  7  1  0  0  0  0
  3  8  1  0  0  0  0
  4 26  1  0  0  0  0
  6  9  1  0  0  0  0
  6 12  1  0  0  0  0
  8 10  1  0  0  0  0
  8 11  2  0  0  0  0
  9 13  1  0  0  0  0
  9 14  1  0  0  0  0
  9 15  1  0  0  0  0
 10 16  1  0  0  0  0
 10 17  1  0  0  0  0
 10 18  1  0  0  0  0
 19 20  1  0  0  0  0
 20 21  4  0  0  0  0
 20 25  4  0  0  0  0
 21 22  4  0  0  0  0
 21 27  1  0  0  0  0
 22 23  4  0  0  0  0
 22 28  1  0  0  0  0
 23 24  4  0  0  0  0
 23 26  1  0  0  0  0
 24 25  4  0  0  0  0
 24 29  1  0  0  0  0
 25 30  1  0  0  0  0
 26 31  1  0  0  0  0
 26 32  1  0  0  0  0
M  END
> <BCLConfClusterSize>
1

> <ConfClashScore>
0 

> <ConfOneFourInteractionScore>
-0.953096 

> <ConfScore>
0.248389 

> <ConfScorePBest>
0.00279274 

> <ConfTolerance>
0.635442 

> <RosettaParamsInstructions>
M  ROOT 3
M  POLY_N_BB 3
M  POLY_CA_BB 4
M  POLY_C_BB 2
M  POLY_O_BB 5
M  POLY_IGNORE 9 10 11 12 13 14 15 16 17 18 
M  POLY_UPPER 6
M  POLY_LOWER 8
M  POLY_CHG 0
M  POLY_PROPERTIES ALPHA_AA L_AA PROTEIN AROMATIC POLYMER 
M  END

$$$$



 32 32  0  0  0  0  0  0  0  0999 V2000
   -2.9986    1.4881    1.8270 H   0  0  0  1  0  0  0  0  0  0  0  0
   -1.2119    0.4578    2.2879 C   0  0  0  1  0  0  0  0  0  0  0  0
   -2.2442    2.3241    3.5526 N   0  0  0  1  0  0  0  0  0  0  0  0
   -2.0421    1.7409    2.2347 C   0  0  0  1  0  0  0  0  0  0  0  0
   -1.1132   -0.1950    3.3235 O   0  0  0  1  0  0  0  0  0  0  0  0
   -0.6105    0.1044    1.1409 N   0  0  0  1  0  0  0  0  0  0  0  0
   -1.9255    3.2317    3.7398 H   0  0  0  1  0  0  0  0  0  0  0  0
   -2.8686    1.6188    4.5159 C   0  0  0  1  0  0  0  0  0  0  0  0
    0.1977   -1.1045    1.0820 C   0  0  0  1  0  0  0  0  0  0  0  0
   -3.0107    2.2519    5.8815 C   0  0  0  1  0  0  0  0  0  0  0  0
   -3.3110    0.4925    4.2934 O   0  0  0  1  0  0  0  0  0  0  0  0
   -0.7158    0.6616    0.3417 H   0  0  0  1  0  0  0  0  0  0  0  0
    1.0450   -0.9995    1.7270 H   0  0  0  1  0  0  0  0  0  0  0  0
    0.5316   -1.2613    0.0776 H   0  0  0  1  0  0  0  0  0  0  0  0
   -0.3893   -1.9414    1.3980 H   0  0  0  1  0  0  0  0  0  0  0  0
   -2.0507    2.3087    6.3505 H   0  0  0  1  0  0  0  0  0  0  0  0
   -3.6667    1.6581    6.4831 H   0  0  0  1  0  0  0  0  0  0  0  0
   -3.4153    3.2370    5.7773 H   0  0  0  1  0  0  0  0  0  0  0  0
   -3.8763    7.6788    0.4350 F   0  0  0  1  0  0  0  0  0  0  0  0
   -3.2865    6.4888    0.6583 C   0  0  0  1  0  0  0  0  0  0  0  0
   -2.0335    6.4362    1.2490 C   0  0  0  1  0  0  0  0  0  0  0  0
   -1.4258    5.2154    1.4734 C   0  0  0  1  0  0  0  0  0  0  0  0
   -2.0717    4.0431    1.1127 C   0  0  0  1  0  0  0  0  0  0  0  0
   -3.3210    4.0953    0.5237 C   0  0  0  1  0  0  0  0  0  0  0  0
   -3.9304    5.3199    0.2987 C   0  0  0  1  0  0  0  0  0  0  0  0
   -1.3785    2.7104    1.2703 C   0  0  0  1  0  0  0  0  0  0  0  0
   -1.5507    7.3155    1.5233 H   0  0  0  1  0  0  0  0  0  0  0  0
   -0.4841    5.1762    1.9129 H   0  0  0  1  0  0  0  0  0  0  0  0
   -3.8038    3.2159    0.2494 H   0  0  0  1  0  0  0  0  0  0  0  0
   -4.8721    5.3591   -0.1408 H   0  0  0  1  0  0  0  0  0  0  0  0
   -1.3382    2.2435    0.3084 H   0  0  0  1  0  0  0  0  0  0  0  0
   -0.3841    2.8949    1.6198 H   0  0  0  1  0  0  0  0  0  0  0  0
  1  4  1  0  0  0  0
  2  4  1  0  0  0  0
  2  5  2  0  0  0  0
  2  6  1  0  0  0  0
  3  4  1  0  0  0  0
  3  7  1  0  0  0  0
  3  8  1  0  0  0  0
  4 26  1  0  0  0  0
  6  9  1  0  0  0  0
  6 12  1  0  0  0  0
  8 10  1  0  0  0  0
  8 11  2  0  0  0  0
  9 13  1  0  0  0  0
  9 14  1  0  0  0  0
  9 15  1  0  0  0  0
 10 16  1  0  0  0  0
 10 17  1  0  0  0  0
 10 18  1  0  0  0  0
 19 20  1  0  0  0  0
 20 21  4  0  0  0  0
 20 25  4  0  0  0  0
 21 22  4  0  0  0  0
 21 27  1  0  0  0  0
 22 23  4  0  0  0  0
 22 28  1  0  0  0  0
 23 24  4  0  0  0  0
 23 26  1  0  0  0  0
 24 25  4  0  0  0  0
 24 29  1  0  0  0  0
 25 30  1  0  0  0  0
 26 31  1  0  0  0  0
 26 32  1  0  0  0  0
M  END
> <BCLConfClusterSize>
1

> <ConfClashScore>
0 

> <ConfOneFourInteractionScore>
-0.958855 

> <ConfScore>
0.260329 

> <ConfScorePBest>
0.00276426 

> <ConfTolerance>
0.77124 

> <RosettaParamsInstructions>
M  ROOT 3
M  POLY_N_BB 3
M  POLY_CA_BB 4
M  POLY_C_BB 2
M  POLY_O_BB 5
M  POLY_IGNORE 9 10 11 12 13 14 15 16 17 18 
M  POLY_UPPER 6
M  POLY_LOWER 8
M  POLY_CHG 0
M  POLY_PROPERTIES ALPHA_AA L_AA PROTEIN AROMATIC POLYMER 
M  END

$$$$



 32 32  0  0  0  0  0  0  0  0999 V2000
   -0.2673    1.3346    0.1850 H   0  0  0  1  0  0  0  0  0  0  0  0
   -2.2776    0.9853   -0.3266 C   0  0  0  1  0  0  0  0  0  0  0  0
   -0.9073    2.8252   -1.0847 N   0  0  0  1  0  0  0  0  0  0  0  0
   -1.1456    1.9270    0.0353 C   0  0  0  1  0  0  0  0  0  0  0  0
   -2.2551   -0.1984    0.0081 O   0  0  0  1  0  0  0  0  0  0  0  0
   -3.2868    1.5281   -1.0259 N   0  0  0  1  0  0  0  0  0  0  0  0
   -0.7471    3.7782   -0.9217 H   0  0  0  1  0  0  0  0  0  0  0  0
   -0.9065    2.3534   -2.3346 C   0  0  0  1  0  0  0  0  0  0  0  0
   -4.3774    0.6916   -1.5040 C   0  0  0  1  0  0  0  0  0  0  0  0
   -0.6902    3.4029   -3.4225 C   0  0  0  1  0  0  0  0  0  0  0  0
   -1.1352    1.1815   -2.6226 O   0  0  0  1  0  0  0  0  0  0  0  0
   -3.2891    2.4897   -1.2148 H   0  0  0  1  0  0  0  0  0  0  0  0
   -5.2851    0.9723   -1.0118 H   0  0  0  1  0  0  0  0  0  0  0  0
   -4.1593   -0.3342   -1.2916 H   0  0  0  1  0  0  0  0  0  0  0  0
   -4.4898    0.8216   -2.5601 H   0  0  0  1  0  0  0  0  0  0  0  0
   -1.4950    4.1078   -3.4038 H   0  0  0  1  0  0  0  0  0  0  0  0
   -0.6581    2.9238   -4.3786 H   0  0  0  1  0  0  0  0  0  0  0  0
    0.2341    3.9126   -3.2472 H   0  0  0  1  0  0  0  0  0  0  0  0
   -3.8843    7.6784    0.4533 F   0  0  0  1  0  0  0  0  0  0  0  0
   -3.2892    6.4887    0.6639 C   0  0  0  1  0  0  0  0  0  0  0  0
   -2.0333    6.4356    1.2481 C   0  0  0  1  0  0  0  0  0  0  0  0
   -1.4202    5.2151    1.4594 C   0  0  0  1  0  0  0  0  0  0  0  0
   -2.0637    4.0436    1.0920 C   0  0  0  1  0  0  0  0  0  0  0  0
   -3.3160    4.0963    0.5094 C   0  0  0  1  0  0  0  0  0  0  0  0
   -3.9307    5.3205    0.2975 C   0  0  0  1  0  0  0  0  0  0  0  0
   -1.3968    2.7090    1.3279 C   0  0  0  1  0  0  0  0  0  0  0  0
   -1.5523    7.3143    1.5275 H   0  0  0  1  0  0  0  0  0  0  0  0
   -0.4762    5.1756    1.8941 H   0  0  0  1  0  0  0  0  0  0  0  0
   -3.7969    3.2175    0.2300 H   0  0  0  1  0  0  0  0  0  0  0  0
   -4.8747    5.3600   -0.1371 H   0  0  0  1  0  0  0  0  0  0  0  0
   -0.4575    2.8785    1.8115 H   0  0  0  1  0  0  0  0  0  0  0  0
   -2.0254    2.1220    1.9644 H   0  0  0  1  0  0  0  0  0  0  0  0
  1  4  1  0  0  0  0
  2  4  1  0  0  0  0
  2  5  2  0  0  0  0
  2  6  1  0  0  0  0
  3  4  1  0  0  0  0
  3  7  1  0  0  0  0
  3  8  1  0  0  0  0
  4 26  1  0  0  0  0
  6  9  1  0  0  0  0
  6 12  1  0  0  0  0
  8 10  1  0  0  0  0
  8 11  2  0  0  0  0
  9 13  1  0  0  0  0
  9 14  1  0  0  0  0
  9 15  1  0  0  0  0
 10 16  1  0  0  0  0
 10 17  1  0  0  0  0
 10 18  1  0  0  0  0
 19 20  1  0  0  0  0
 20 21  4  0  0  0  0
 20 25  4  0  0  0  0
 21 22  4  0  0  0  0
 21 27  1  0  0  0  0
 22 23  4  0  0  0  0
 22 28  1  0  0  0  0
 23 24  4  0  0  0  0
 23 26  1  0  0  0  0
 24 25  4  0  0  0  0
 24 29  1  0  0  0  0
 25 30  1  0  0  0  0
 26 31  1  0  0  0  0
 26 32  1  0  0  0  0
M  END
> <BCLConfClusterSize>
1

> <ConfClashScore>
0.000137509 

> <ConfOneFourInteractionScore>
-0.921083 

> <ConfScore>
0.266943 

> <ConfScorePBest>
0.00273578 

> <ConfTolerance>
0.793398 

> <RosettaParamsInstructions>
M  ROOT 3
M  POLY_N_BB 3
M  POLY_CA_BB 4
M  POLY_C_BB 2
M  POLY_O_BB 5
M  POLY_IGNORE 9 10 11 12 13 14 15 16 17 18 
M  POLY_UPPER 6
M  POLY_LOWER 8
M  POLY_CHG 0
M  POLY_PROPERTIES ALPHA_AA L_AA PROTEIN AROMATIC POLYMER 
M  END

$$$$



 32 32  0  0  0  0  0  0  0  0999 V2000
   -1.7255    2.6433    3.4193 H   0  0  0  1  0  0  0  0  0  0  0  0
   -0.2986    1.1503    2.9600 C   0  0  0  1  0  0  0  0  0  0  0  0
    0.1364    3.5018    3.1335 N   0  0  0  1  0  0  0  0  0  0  0  0
   -0.8915    2.5378    2.7574 C   0  0  0  1  0  0  0  0  0  0  0  0
    0.1393    0.4986    2.0129 O   0  0  0  1  0  0  0  0  0  0  0  0
   -0.2892    0.7013    4.2183 N   0  0  0  1  0  0  0  0  0  0  0  0
    0.6408    3.9314    2.4114 H   0  0  0  1  0  0  0  0  0  0  0  0
    0.4418    3.8428    4.3865 C   0  0  0  1  0  0  0  0  0  0  0  0
    0.2955   -0.5809    4.5818 C   0  0  0  1  0  0  0  0  0  0  0  0
    1.4824    4.9293    4.5365 C   0  0  0  1  0  0  0  0  0  0  0  0
   -0.0795    3.3179    5.3695 O   0  0  0  1  0  0  0  0  0  0  0  0
   -0.6899    1.2546    4.9209 H   0  0  0  1  0  0  0  0  0  0  0  0
    1.3260   -0.5978    4.2945 H   0  0  0  1  0  0  0  0  0  0  0  0
   -0.2279   -1.3667    4.0784 H   0  0  0  1  0  0  0  0  0  0  0  0
    0.2181   -0.7208    5.6398 H   0  0  0  1  0  0  0  0  0  0  0  0
    1.3872    5.6286    3.7322 H   0  0  0  1  0  0  0  0  0  0  0  0
    2.4591    4.4928    4.5154 H   0  0  0  1  0  0  0  0  0  0  0  0
    1.3375    5.4355    5.4679 H   0  0  0  1  0  0  0  0  0  0  0  0
   -3.8843    7.6784    0.4533 F   0  0  0  1  0  0  0  0  0  0  0  0
   -3.2892    6.4887    0.6639 C   0  0  0  1  0  0  0  0  0  0  0  0
   -2.0333    6.4356    1.2481 C   0  0  0  1  0  0  0  0  0  0  0  0
   -1.4202    5.2151    1.4594 C   0  0  0  1  0  0  0  0  0  0  0  0
   -2.0637    4.0436    1.0920 C   0  0  0  1  0  0  0  0  0  0  0  0
   -3.3160    4.0963    0.5094 C   0  0  0  1  0  0  0  0  0  0  0  0
   -3.9307    5.3205    0.2975 C   0  0  0  1  0  0  0  0  0  0  0  0
   -1.3968    2.7090    1.3279 C   0  0  0  1  0  0  0  0  0  0  0  0
   -1.5523    7.3143    1.5275 H   0  0  0  1  0  0  0  0  0  0  0  0
   -0.4762    5.1756    1.8941 H   0  0  0  1  0  0  0  0  0  0  0  0
   -3.7969    3.2175    0.2300 H   0  0  0  1  0  0  0  0  0  0  0  0
   -4.8747    5.3600   -0.1371 H   0  0  0  1  0  0  0  0  0  0  0  0
   -2.1045    1.9335    1.1217 H   0  0  0  1  0  0  0  0  0  0  0  0
   -0.5656    2.6209    0.6600 H   0  0  0  1  0  0  0  0  0  0  0  0
  1  4  1  0  0  0  0
  2  4  1  0  0  0  0
  2  5  2  0  0  0  0
  2  6  1  0  0  0  0
  3  4  1  0  0  0  0
  3  7  1  0  0  0  0
  3  8  1  0  0  0  0
  4 26  1  0  0  0  0
  6  9  1  0  0  0  0
  6 12  1  0  0  0  0
  8 10  1  0  0  0  0
  8 11  2  0  0  0  0
  9 13  1  0  0  0  0
  9 14  1  0  0  0  0
  9 15  1  0  0  0  0
 10 16  1  0  0  0  0
 10 17  1  0  0  0  0
 10 18  1  0  0  0  0
 19 20  1  0  0  0  0
 20 21  4  0  0  0  0
 20 25  4  0  0  0  0
 21 22  4  0  0  0  0
 21 27  1  0  0  0  0
 22 23  4  0  0  0  0
 22 28  1  0  0  0  0
 23 24  4  0  0  0  0
 23 26  1  0  0  0  0
 24 25  4  0  0  0  0
 24 29  1  0  0  0  0
 25 30  1  0  0  0  0
 26 31  1  0  0  0  0
 26 32  1  0  0  0  0
M  END
> <BCLConfClusterSize>
1

> <ConfClashScore>
0 

> <ConfOneFourInteractionScore>
-0.975259 

> <ConfScore>
0.271978 

> <ConfScorePBest>
0.0027073 

> <ConfTolerance>
0.858797 

> <RosettaParamsInstructions>
M  ROOT 3
M  POLY_N_BB 3
M  POLY_CA_BB 4
M  POLY_C_BB 2
M  POLY_O_BB 5
M  POLY_IGNORE 9 10 11 12 13 14 15 16 17 18 
M  POLY_UPPER 6
M  POLY_LOWER 8
M  POLY_CHG 0
M  POLY_PROPERTIES ALPHA_AA L_AA PROTEIN AROMATIC POLYMER 
M  END

$$$$



 32 32  0  0  0  0  0  0  0  0999 V2000
   -1.2248    2.9245    3.4101 H   0  0  0  1  0  0  0  0  0  0  0  0
   -3.1533    2.1245    3.0524 C   0  0  0  1  0  0  0  0  0  0  0  0
   -1.0315    0.9137    2.9668 N   0  0  0  1  0  0  0  0  0  0  0  0
   -1.6608    2.2073    2.7465 C   0  0  0  1  0  0  0  0  0  0  0  0
   -3.9021    3.0680    2.8020 O   0  0  0  1  0  0  0  0  0  0  0  0
   -3.6228    0.9939    3.6016 N   0  0  0  1  0  0  0  0  0  0  0  0
   -1.4123    0.1087    2.5578 H   0  0  0  1  0  0  0  0  0  0  0  0
    0.0690    0.8210    3.7287 C   0  0  0  1  0  0  0  0  0  0  0  0
   -5.0539    0.8159    3.7970 C   0  0  0  1  0  0  0  0  0  0  0  0
    0.8301   -0.4749    3.7160 C   0  0  0  1  0  0  0  0  0  0  0  0
    0.4462    1.7675    4.4184 O   0  0  0  1  0  0  0  0  0  0  0  0
   -3.0008    0.2865    3.8718 H   0  0  0  1  0  0  0  0  0  0  0  0
   -5.3296   -0.1825    3.5287 H   0  0  0  1  0  0  0  0  0  0  0  0
   -5.5867    1.5104    3.1816 H   0  0  0  1  0  0  0  0  0  0  0  0
   -5.2976    0.9891    4.8244 H   0  0  0  1  0  0  0  0  0  0  0  0
    1.2839   -0.6320    4.6722 H   0  0  0  1  0  0  0  0  0  0  0  0
    1.5895   -0.4349    2.9633 H   0  0  0  1  0  0  0  0  0  0  0  0
    0.1586   -1.2805    3.5035 H   0  0  0  1  0  0  0  0  0  0  0  0
   -3.8601    7.6920    0.4654 F   0  0  0  1  0  0  0  0  0  0  0  0
   -3.2947    6.4854    0.6611 C   0  0  0  1  0  0  0  0  0  0  0  0
   -2.0387    6.4406    1.2459 C   0  0  0  1  0  0  0  0  0  0  0  0
   -1.4191    5.2239    1.4605 C   0  0  0  1  0  0  0  0  0  0  0  0
   -2.0561    4.0481    1.0958 C   0  0  0  1  0  0  0  0  0  0  0  0
   -3.3084    4.0925    0.5127 C   0  0  0  1  0  0  0  0  0  0  0  0
   -3.9297    5.3128    0.2975 C   0  0  0  1  0  0  0  0  0  0  0  0
   -1.4317    2.6896    1.3105 C   0  0  0  1  0  0  0  0  0  0  0  0
   -1.5625    7.3226    1.5232 H   0  0  0  1  0  0  0  0  0  0  0  0
   -0.4751    5.1906    1.8956 H   0  0  0  1  0  0  0  0  0  0  0  0
   -3.7846    3.2104    0.2354 H   0  0  0  1  0  0  0  0  0  0  0  0
   -4.8738    5.3462   -0.1376 H   0  0  0  1  0  0  0  0  0  0  0  0
   -1.8716    1.9899    0.6310 H   0  0  0  1  0  0  0  0  0  0  0  0
   -0.3797    2.7539    1.1257 H   0  0  0  1  0  0  0  0  0  0  0  0
  1  4  1  0  0  0  0
  2  4  1  0  0  0  0
  2  5  2  0  0  0  0
  2  6  1  0  0  0  0
  3  4  1  0  0  0  0
  3  7  1  0  0  0  0
  3  8  1  0  0  0  0
  4 26  1  0  0  0  0
  6  9  1  0  0  0  0
  6 12  1  0  0  0  0
  8 10  1  0  0  0  0
  8 11  2  0  0  0  0
  9 13  1  0  0  0  0
  9 14  1  0  0  0  0
  9 15  1  0  0  0  0
 10 16  1  0  0  0  0
 10 17  1  0  0  0  0
 10 18  1  0  0  0  0
 19 20  1  0  0  0  0
 20 21  4  0  0  0  0
 20 25  4  0  0  0  0
 21 22  4  0  0  0  0
 21 27  1  0  0  0  0
 22 23  4  0  0  0  0
 22 28  1  0  0  0  0
 23 24  4  0  0  0  0
 23 26  1  0  0  0  0
 24 25  4  0  0  0  0
 24 29  1  0  0  0  0
 25 30  1  0  0  0  0
 26 31  1  0  0  0  0
 26 32  1  0  0  0  0
M  END
> <BCLConfClusterSize>
1

> <ConfClashScore>
0 

> <ConfOneFourInteractionScore>
-0.946346 

> <ConfScore>
0.272513 

> <ConfScorePBest>
0.00267882 

> <ConfTolerance>
0.502696 

> <RosettaParamsInstructions>
M  ROOT 3
M  POLY_N_BB 3
M  POLY_CA_BB 4
M  POLY_C_BB 2
M  POLY_O_BB 5
M  POLY_IGNORE 9 10 11 12 13 14 15 16 17 18 
M  POLY_UPPER 6
M  POLY_LOWER 8
M  POLY_CHG 0
M  POLY_PROPERTIES ALPHA_AA L_AA PROTEIN AROMATIC POLYMER 
M  END

$$$$



 32 32  0  0  0  0  0  0  0  0999 V2000
   -0.6456    1.1087    0.1302 H   0  0  0  1  0  0  0  0  0  0  0  0
   -1.3897    2.5740   -1.1947 C   0  0  0  1  0  0  0  0  0  0  0  0
    0.6900    2.6859    0.0700 N   0  0  0  1  0  0  0  0  0  0  0  0
   -0.6735    2.1772    0.0815 C   0  0  0  1  0  0  0  0  0  0  0  0
   -1.0715    3.5757   -1.8141 O   0  0  0  1  0  0  0  0  0  0  0  0
   -2.3809    1.7572   -1.5853 N   0  0  0  1  0  0  0  0  0  0  0  0
    0.8341    3.6539    0.1211 H   0  0  0  1  0  0  0  0  0  0  0  0
    1.7625    1.8711   -0.0086 C   0  0  0  1  0  0  0  0  0  0  0  0
   -3.2062    2.0383   -2.7505 C   0  0  0  1  0  0  0  0  0  0  0  0
    3.1275    2.5053   -0.1927 C   0  0  0  1  0  0  0  0  0  0  0  0
    1.6396    0.6514    0.0665 O   0  0  0  1  0  0  0  0  0  0  0  0
   -2.5548    0.9434   -1.0677 H   0  0  0  1  0  0  0  0  0  0  0  0
   -2.5965    2.4437   -3.5307 H   0  0  0  1  0  0  0  0  0  0  0  0
   -3.9653    2.7451   -2.4875 H   0  0  0  1  0  0  0  0  0  0  0  0
   -3.6638    1.1326   -3.0900 H   0  0  0  1  0  0  0  0  0  0  0  0
    3.1580    3.0218   -1.1293 H   0  0  0  1  0  0  0  0  0  0  0  0
    3.8789    1.7436   -0.1811 H   0  0  0  1  0  0  0  0  0  0  0  0
    3.3088    3.1980    0.6024 H   0  0  0  1  0  0  0  0  0  0  0  0
   -3.9151    7.6593    0.4378 F   0  0  0  1  0  0  0  0  0  0  0  0
   -3.2833    6.4921    0.6668 C   0  0  0  1  0  0  0  0  0  0  0  0
   -2.0274    6.4405    1.2512 C   0  0  0  1  0  0  0  0  0  0  0  0
   -1.4131    5.2207    1.4631 C   0  0  0  1  0  0  0  0  0  0  0  0
   -2.0554    4.0484    1.0961 C   0  0  0  1  0  0  0  0  0  0  0  0
   -3.3077    4.0996    0.5134 C   0  0  0  1  0  0  0  0  0  0  0  0
   -3.9236    5.3232    0.3010 C   0  0  0  1  0  0  0  0  0  0  0  0
   -1.4370    2.6868    1.3079 C   0  0  0  1  0  0  0  0  0  0  0  0
   -1.5472    7.3199    1.5302 H   0  0  0  1  0  0  0  0  0  0  0  0
   -0.4691    5.1823    1.8978 H   0  0  0  1  0  0  0  0  0  0  0  0
   -3.7878    3.2203    0.2345 H   0  0  0  1  0  0  0  0  0  0  0  0
   -4.8676    5.3615   -0.1338 H   0  0  0  1  0  0  0  0  0  0  0  0
   -0.7570    2.7460    2.1320 H   0  0  0  1  0  0  0  0  0  0  0  0
   -2.2165    1.9906    1.5373 H   0  0  0  1  0  0  0  0  0  0  0  0
  1  4  1  0  0  0  0
  2  4  1  0  0  0  0
  2  5  2  0  0  0  0
  2  6  1  0  0  0  0
  3  4  1  0  0  0  0
  3  7  1  0  0  0  0
  3  8  1  0  0  0  0
  4 26  1  0  0  0  0
  6  9  1  0  0  0  0
  6 12  1  0  0  0  0
  8 10  1  0  0  0  0
  8 11  2  0  0  0  0
  9 13  1  0  0  0  0
  9 14  1  0  0  0  0
  9 15  1  0  0  0  0
 10 16  1  0  0  0  0
 10 17  1  0  0  0  0
 10 18  1  0  0  0  0
 19 20  1  0  0  0  0
 20 21  4  0  0  0  0
 20 25  4  0  0  0  0
 21 22  4  0  0  0  0
 21 27  1  0  0  0  0
 22 23  4  0  0  0  0
 22 28  1  0  0  0  0
 23 24  4  0  0  0  0
 23 26  1  0  0  0  0
 24 25  4  0  0  0  0
 24 29  1  0  0  0  0
 25 30  1  0  0  0  0
 26 31  1  0  0  0  0
 26 32  1  0  0  0  0
M  END
> <BCLConfClusterSize>
1

> <ConfClashScore>
0 

> <ConfOneFourInteractionScore>
-0.974883 

> <ConfScore>
0.274118 

> <ConfScorePBest>
0.00265034 

> <ConfTolerance>
0.938099 

> <RosettaParamsInstructions>
M  ROOT 3
M  POLY_N_BB 3
M  POLY_CA_BB 4
M  POLY_C_BB 2
M  POLY_O_BB 5
M  POLY_IGNORE 9 10 11 12 13 14 15 16 17 18 
M  POLY_UPPER 6
M  POLY_LOWER 8
M  POLY_CHG 0
M  POLY_PROPERTIES ALPHA_AA L_AA PROTEIN AROMATIC POLYMER 
M  END

$$$$



 32 32  0  0  0  0  0  0  0  0999 V2000
    0.4507    3.1226    0.4027 H   0  0  0  1  0  0  0  0  0  0  0  0
    0.3249    1.0377    0.5491 C   0  0  0  1  0  0  0  0  0  0  0  0
   -0.8157    2.4790   -1.0761 N   0  0  0  1  0  0  0  0  0  0  0  0
   -0.3173    2.3864    0.2888 C   0  0  0  1  0  0  0  0  0  0  0  0
    1.2713    0.9206    1.3264 O   0  0  0  1  0  0  0  0  0  0  0  0
   -0.2052    0.0007   -0.1185 N   0  0  0  1  0  0  0  0  0  0  0  0
   -0.9581    1.6446   -1.5701 H   0  0  0  1  0  0  0  0  0  0  0  0
   -1.0925    3.6338   -1.7006 C   0  0  0  1  0  0  0  0  0  0  0  0
    0.2964   -1.3574    0.0293 C   0  0  0  1  0  0  0  0  0  0  0  0
   -1.8044    3.5070   -3.0413 C   0  0  0  1  0  0  0  0  0  0  0  0
   -0.7979    4.7341   -1.2357 O   0  0  0  1  0  0  0  0  0  0  0  0
   -0.9562    0.1639   -0.7267 H   0  0  0  1  0  0  0  0  0  0  0  0
    0.9062   -1.4193    0.9064 H   0  0  0  1  0  0  0  0  0  0  0  0
    0.8795   -1.6174   -0.8293 H   0  0  0  1  0  0  0  0  0  0  0  0
   -0.5277   -2.0338    0.1197 H   0  0  0  1  0  0  0  0  0  0  0  0
   -2.3050    2.5627   -3.0920 H   0  0  0  1  0  0  0  0  0  0  0  0
   -1.0877    3.5734   -3.8331 H   0  0  0  1  0  0  0  0  0  0  0  0
   -2.5205    4.2958   -3.1406 H   0  0  0  1  0  0  0  0  0  0  0  0
   -3.8565    7.6941    0.4672 F   0  0  0  1  0  0  0  0  0  0  0  0
   -3.2949    6.4853    0.6610 C   0  0  0  1  0  0  0  0  0  0  0  0
   -2.0390    6.4357    1.2455 C   0  0  0  1  0  0  0  0  0  0  0  0
   -1.4232    5.2167    1.4581 C   0  0  0  1  0  0  0  0  0  0  0  0
   -2.0640    4.0435    1.0918 C   0  0  0  1  0  0  0  0  0  0  0  0
   -3.3163    4.0927    0.5090 C   0  0  0  1  0  0  0  0  0  0  0  0
   -3.9338    5.3154    0.2958 C   0  0  0  1  0  0  0  0  0  0  0  0
   -1.3943    2.7106    1.3292 C   0  0  0  1  0  0  0  0  0  0  0  0
   -1.5599    7.3158    1.5240 H   0  0  0  1  0  0  0  0  0  0  0  0
   -0.4792    5.1798    1.8930 H   0  0  0  1  0  0  0  0  0  0  0  0
   -3.7954    3.2126    0.2305 H   0  0  0  1  0  0  0  0  0  0  0  0
   -4.8778    5.3524   -0.1391 H   0  0  0  1  0  0  0  0  0  0  0  0
   -0.9389    2.7260    2.2973 H   0  0  0  1  0  0  0  0  0  0  0  0
   -2.1402    1.9442    1.2975 H   0  0  0  1  0  0  0  0  0  0  0  0
  1  4  1  0  0  0  0
  2  4  1  0  0  0  0
  2  5  2  0  0  0  0
  2  6  1  0  0  0  0
  3  4  1  0  0  0  0
  3  7  1  0  0  0  0
  3  8  1  0  0  0  0
  4 26  1  0  0  0  0
  6  9  1  0  0  0  0
  6 12  1  0  0  0  0
  8 10  1  0  0  0  0
  8 11  2  0  0  0  0
  9 13  1  0  0  0  0
  9 14  1  0  0  0  0
  9 15  1  0  0  0  0
 10 16  1  0  0  0  0
 10 17  1  0  0  0  0
 10 18  1  0  0  0  0
 19 20  1  0  0  0  0
 20 21  4  0  0  0  0
 20 25  4  0  0  0  0
 21 22  4  0  0  0  0
 21 27  1  0  0  0  0
 22 23  4  0  0  0  0
 22 28  1  0  0  0  0
 23 24  4  0  0  0  0
 23 26  1  0  0  0  0
 24 25  4  0  0  0  0
 24 29  1  0  0  0  0
 25 30  1  0  0  0  0
 26 31  1  0  0  0  0
 26 32  1  0  0  0  0
M  END
> <BCLConfClusterSize>
1

> <ConfClashScore>
0 

> <ConfOneFourInteractionScore>
-0.946346 

> <ConfScore>
0.308253 

> <ConfScorePBest>
0.00262186 

> <ConfTolerance>
0.798846 

> <RosettaParamsInstructions>
M  ROOT 3
M  POLY_N_BB 3
M  POLY_CA_BB 4
M  POLY_C_BB 2
M  POLY_O_BB 5
M  POLY_IGNORE 9 10 11 12 13 14 15 16 17 18 
M  POLY_UPPER 6
M  POLY_LOWER 8
M  POLY_CHG 0
M  POLY_PROPERTIES ALPHA_AA L_AA PROTEIN AROMATIC POLYMER 
M  END

$$$$



 32 32  0  0  0  0  0  0  0  0999 V2000
   -2.4936    2.3957    3.1014 H   0  0  0  1  0  0  0  0  0  0  0  0
   -1.1832    0.7556    2.8914 C   0  0  0  1  0  0  0  0  0  0  0  0
   -0.6014    2.9782    3.6685 N   0  0  0  1  0  0  0  0  0  0  0  0
   -1.4854    2.2456    2.7761 C   0  0  0  1  0  0  0  0  0  0  0  0
   -0.1108    0.4292    3.3668 O   0  0  0  1  0  0  0  0  0  0  0  0
   -2.1328   -0.0769    2.4554 N   0  0  0  1  0  0  0  0  0  0  0  0
    0.3568    2.9718    3.4628 H   0  0  0  1  0  0  0  0  0  0  0  0
   -0.9894    3.6461    4.7267 C   0  0  0  1  0  0  0  0  0  0  0  0
   -1.9820   -1.5235    2.5071 C   0  0  0  1  0  0  0  0  0  0  0  0
   -2.5107    3.6338    5.0911 C   0  0  0  1  0  0  0  0  0  0  0  0
   -0.2627    4.2550    5.4201 O   0  0  0  1  0  0  0  0  0  0  0  0
   -2.9597    0.2996    2.0881 H   0  0  0  1  0  0  0  0  0  0  0  0
   -0.9430   -1.7759    2.4663 H   0  0  0  1  0  0  0  0  0  0  0  0
   -2.4889   -1.9646    1.6744 H   0  0  0  1  0  0  0  0  0  0  0  0
   -2.4032   -1.8934    3.4184 H   0  0  0  1  0  0  0  0  0  0  0  0
   -3.0747    4.0528    4.2841 H   0  0  0  1  0  0  0  0  0  0  0  0
   -2.6699    4.2138    5.9760 H   0  0  0  1  0  0  0  0  0  0  0  0
   -2.8280    2.6264    5.2624 H   0  0  0  1  0  0  0  0  0  0  0  0
   -3.8843    7.6784    0.4533 F   0  0  0  1  0  0  0  0  0  0  0  0
   -3.2892    6.4887    0.6639 C   0  0  0  1  0  0  0  0  0  0  0  0
   -2.0333    6.4356    1.2481 C   0  0  0  1  0  0  0  0  0  0  0  0
   -1.4202    5.2151    1.4594 C   0  0  0  1  0  0  0  0  0  0  0  0
   -2.0637    4.0436    1.0920 C   0  0  0  1  0  0  0  0  0  0  0  0
   -3.3160    4.0963    0.5094 C   0  0  0  1  0  0  0  0  0  0  0  0
   -3.9307    5.3205    0.2975 C   0  0  0  1  0  0  0  0  0  0  0  0
   -1.3968    2.7090    1.3279 C   0  0  0  1  0  0  0  0  0  0  0  0
   -1.5523    7.3143    1.5275 H   0  0  0  1  0  0  0  0  0  0  0  0
   -0.4762    5.1756    1.8941 H   0  0  0  1  0  0  0  0  0  0  0  0
   -3.7969    3.2175    0.2300 H   0  0  0  1  0  0  0  0  0  0  0  0
   -4.8747    5.3600   -0.1371 H   0  0  0  1  0  0  0  0  0  0  0  0
   -1.8698    1.9774    0.7067 H   0  0  0  1  0  0  0  0  0  0  0  0
   -0.3644    2.7920    1.0594 H   0  0  0  1  0  0  0  0  0  0  0  0
  1  4  1  0  0  0  0
  2  4  1  0  0  0  0
  2  5  2  0  0  0  0
  2  6  1  0  0  0  0
  3  4  1  0  0  0  0
  3  7  1  0  0  0  0
  3  8  1  0  0  0  0
  4 26  1  0  0  0  0
  6  9  1  0  0  0  0
  6 12  1  0  0  0  0
  8 10  1  0  0  0  0
  8 11  2  0  0  0  0
  9 13  1  0  0  0  0
  9 14  1  0  0  0  0
  9 15  1  0  0  0  0
 10 16  1  0  0  0  0
 10 17  1  0  0  0  0
 10 18  1  0  0  0  0
 19 20  1  0  0  0  0
 20 21  4  0  0  0  0
 20 25  4  0  0  0  0
 21 22  4  0  0  0  0
 21 27  1  0  0  0  0
 22 23  4  0  0  0  0
 22 28  1  0  0  0  0
 23 24  4  0  0  0  0
 23 26  1  0  0  0  0
 24 25  4  0  0  0  0
 24 29  1  0  0  0  0
 25 30  1  0  0  0  0
 26 31  1  0  0  0  0
 26 32  1  0  0  0  0
M  END
> <BCLConfClusterSize>
1

> <ConfClashScore>
0 

> <ConfOneFourInteractionScore>
-0.988515 

> <ConfScore>
0.311488 

> <ConfScorePBest>
0.00259338 

> <ConfTolerance>
0.910532 

> <RosettaParamsInstructions>
M  ROOT 3
M  POLY_N_BB 3
M  POLY_CA_BB 4
M  POLY_C_BB 2
M  POLY_O_BB 5
M  POLY_IGNORE 9 10 11 12 13 14 15 16 17 18 
M  POLY_UPPER 6
M  POLY_LOWER 8
M  POLY_CHG 0
M  POLY_PROPERTIES ALPHA_AA L_AA PROTEIN AROMATIC POLYMER 
M  END

$$$$



 32 32  0  0  0  0  0  0  0  0999 V2000
   -1.1361    1.1509    2.7354 H   0  0  0  1  0  0  0  0  0  0  0  0
   -0.9112    2.9828    3.7724 C   0  0  0  1  0  0  0  0  0  0  0  0
   -3.0091    1.9773    3.0247 N   0  0  0  1  0  0  0  0  0  0  0  0
   -1.5935    2.1181    2.7181 C   0  0  0  1  0  0  0  0  0  0  0  0
    0.1001    3.6320    3.5088 O   0  0  0  1  0  0  0  0  0  0  0  0
   -1.4845    2.9836    4.9862 N   0  0  0  1  0  0  0  0  0  0  0  0
   -3.3951    1.0779    3.0745 H   0  0  0  1  0  0  0  0  0  0  0  0
   -3.8008    3.0316    3.2407 C   0  0  0  1  0  0  0  0  0  0  0  0
   -0.9264    3.7221    6.1091 C   0  0  0  1  0  0  0  0  0  0  0  0
   -5.2750    2.7233    3.4166 C   0  0  0  1  0  0  0  0  0  0  0  0
   -3.3789    4.1859    3.2965 O   0  0  0  1  0  0  0  0  0  0  0  0
   -2.3075    2.4688    5.1209 H   0  0  0  1  0  0  0  0  0  0  0  0
   -0.2629    4.4784    5.7448 H   0  0  0  1  0  0  0  0  0  0  0  0
   -0.3873    3.0510    6.7446 H   0  0  0  1  0  0  0  0  0  0  0  0
   -1.7187    4.1801    6.6636 H   0  0  0  1  0  0  0  0  0  0  0  0
   -5.6824    3.3510    4.1814 H   0  0  0  1  0  0  0  0  0  0  0  0
   -5.3937    1.6975    3.6967 H   0  0  0  1  0  0  0  0  0  0  0  0
   -5.7892    2.9039    2.4958 H   0  0  0  1  0  0  0  0  0  0  0  0
   -3.8565    7.6941    0.4672 F   0  0  0  1  0  0  0  0  0  0  0  0
   -3.2949    6.4853    0.6610 C   0  0  0  1  0  0  0  0  0  0  0  0
   -2.0390    6.4357    1.2455 C   0  0  0  1  0  0  0  0  0  0  0  0
   -1.4232    5.2167    1.4581 C   0  0  0  1  0  0  0  0  0  0  0  0
   -2.0640    4.0435    1.0918 C   0  0  0  1  0  0  0  0  0  0  0  0
   -3.3163    4.0927    0.5090 C   0  0  0  1  0  0  0  0  0  0  0  0
   -3.9338    5.3154    0.2958 C   0  0  0  1  0  0  0  0  0  0  0  0
   -1.3943    2.7106    1.3292 C   0  0  0  1  0  0  0  0  0  0  0  0
   -1.5599    7.3158    1.5240 H   0  0  0  1  0  0  0  0  0  0  0  0
   -0.4792    5.1798    1.8930 H   0  0  0  1  0  0  0  0  0  0  0  0
   -3.7954    3.2126    0.2305 H   0  0  0  1  0  0  0  0  0  0  0  0
   -4.8778    5.3524   -0.1391 H   0  0  0  1  0  0  0  0  0  0  0  0
   -1.7816    2.0146    0.6147 H   0  0  0  1  0  0  0  0  0  0  0  0
   -0.3434    2.8366    1.1717 H   0  0  0  1  0  0  0  0  0  0  0  0
  1  4  1  0  0  0  0
  2  4  1  0  0  0  0
  2  5  2  0  0  0  0
  2  6  1  0  0  0  0
  3  4  1  0  0  0  0
  3  7  1  0  0  0  0
  3  8  1  0  0  0  0
  4 26  1  0  0  0  0
  6  9  1  0  0  0  0
  6 12  1  0  0  0  0
  8 10  1  0  0  0  0
  8 11  2  0  0  0  0
  9 13  1  0  0  0  0
  9 14  1  0  0  0  0
  9 15  1  0  0  0  0
 10 16  1  0  0  0  0
 10 17  1  0  0  0  0
 10 18  1  0  0  0  0
 19 20  1  0  0  0  0
 20 21  4  0  0  0  0
 20 25  4  0  0  0  0
 21 22  4  0  0  0  0
 21 27  1  0  0  0  0
 22 23  4  0  0  0  0
 22 28  1  0  0  0  0
 23 24  4  0  0  0  0
 23 26  1  0  0  0  0
 24 25  4  0  0  0  0
 24 29  1  0  0  0  0
 25 30  1  0  0  0  0
 26 31  1  0  0  0  0
 26 32  1  0  0  0  0
M  END
> <BCLConfClusterSize>
1

> <ConfClashScore>
0 

> <ConfOneFourInteractionScore>
-0.928983 

> <ConfScore>
0.32001 

> <ConfScorePBest>
0.0025649 

> <ConfTolerance>
0.477468 

> <RosettaParamsInstructions>
M  ROOT 3
M  POLY_N_BB 3
M  POLY_CA_BB 4
M  POLY_C_BB 2
M  POLY_O_BB 5
M  POLY_IGNORE 9 10 11 12 13 14 15 16 17 18 
M  POLY_UPPER 6
M  POLY_LOWER 8
M  POLY_CHG 0
M  POLY_PROPERTIES ALPHA_AA L_AA PROTEIN AROMATIC POLYMER 
M  END

$$$$



 32 32  0  0  0  0  0  0  0  0999 V2000
   -2.1183    1.5755   -0.2046 H   0  0  0  1  0  0  0  0  0  0  0  0
   -0.5093    2.5645   -1.0699 C   0  0  0  1  0  0  0  0  0  0  0  0
   -0.4435    0.5994    0.4498 N   0  0  0  1  0  0  0  0  0  0  0  0
   -1.1389    1.8591    0.1198 C   0  0  0  1  0  0  0  0  0  0  0  0
   -0.4556    2.0317   -2.1661 O   0  0  0  1  0  0  0  0  0  0  0  0
   -0.0283    3.7879   -0.8313 N   0  0  0  1  0  0  0  0  0  0  0  0
   -0.0891    0.4780    1.3554 H   0  0  0  1  0  0  0  0  0  0  0  0
   -0.2804   -0.3809   -0.4432 C   0  0  0  1  0  0  0  0  0  0  0  0
    0.4271    4.6660   -1.8987 C   0  0  0  1  0  0  0  0  0  0  0  0
    0.4231   -1.6284    0.0864 C   0  0  0  1  0  0  0  0  0  0  0  0
   -0.5946   -0.2857   -1.6289 O   0  0  0  1  0  0  0  0  0  0  0  0
    0.0196    4.1050    0.0948 H   0  0  0  1  0  0  0  0  0  0  0  0
    1.3214    4.2684   -2.3313 H   0  0  0  1  0  0  0  0  0  0  0  0
    0.6262    5.6387   -1.4996 H   0  0  0  1  0  0  0  0  0  0  0  0
   -0.3314    4.7367   -2.6501 H   0  0  0  1  0  0  0  0  0  0  0  0
    0.4445   -2.3777   -0.6771 H   0  0  0  1  0  0  0  0  0  0  0  0
   -0.1068   -2.0021    0.9376 H   0  0  0  1  0  0  0  0  0  0  0  0
    1.4244   -1.3797    0.3699 H   0  0  0  1  0  0  0  0  0  0  0  0
   -3.8810    7.6803    0.4549 F   0  0  0  1  0  0  0  0  0  0  0  0
   -3.2894    6.4885    0.6638 C   0  0  0  1  0  0  0  0  0  0  0  0
   -2.0335    6.4309    1.2477 C   0  0  0  1  0  0  0  0  0  0  0  0
   -1.4240    5.2083    1.4572 C   0  0  0  1  0  0  0  0  0  0  0  0
   -2.0710    4.0392    1.0883 C   0  0  0  1  0  0  0  0  0  0  0  0
   -3.3233    4.0964    0.5060 C   0  0  0  1  0  0  0  0  0  0  0  0
   -3.9344    5.3227    0.2959 C   0  0  0  1  0  0  0  0  0  0  0  0
   -1.3626    2.7301    1.3451 C   0  0  0  1  0  0  0  0  0  0  0  0
   -1.5498    7.3078    1.5282 H   0  0  0  1  0  0  0  0  0  0  0  0
   -0.4801    5.1654    1.8917 H   0  0  0  1  0  0  0  0  0  0  0  0
   -3.8069    3.2194    0.2255 H   0  0  0  1  0  0  0  0  0  0  0  0
   -4.8783    5.3657   -0.1385 H   0  0  0  1  0  0  0  0  0  0  0  0
   -0.4068    2.9504    1.7725 H   0  0  0  1  0  0  0  0  0  0  0  0
   -1.9467    2.1706    2.0456 H   0  0  0  1  0  0  0  0  0  0  0  0
  1  4  1  0  0  0  0
  2  4  1  0  0  0  0
  2  5  2  0  0  0  0
  2  6  1  0  0  0  0
  3  4  1  0  0  0  0
  3  7  1  0  0  0  0
  3  8  1  0  0  0  0
  4 26  1  0  0  0  0
  6  9  1  0  0  0  0
  6 12  1  0  0  0  0
  8 10  1  0  0  0  0
  8 11  2  0  0  0  0
  9 13  1  0  0  0  0
  9 14  1  0  0  0  0
  9 15  1  0  0  0  0
 10 16  1  0  0  0  0
 10 17  1  0  0  0  0
 10 18  1  0  0  0  0
 19 20  1  0  0  0  0
 20 21  4  0  0  0  0
 20 25  4  0  0  0  0
 21 22  4  0  0  0  0
 21 27  1  0  0  0  0
 22 23  4  0  0  0  0
 22 28  1  0  0  0  0
 23 24  4  0  0  0  0
 23 26  1  0  0  0  0
 24 25  4  0  0  0  0
 24 29  1  0  0  0  0
 25 30  1  0  0  0  0
 26 31  1  0  0  0  0
 26 32  1  0  0  0  0
M  END
> <BCLConfClusterSize>
1

> <ConfClashScore>
0 

> <ConfOneFourInteractionScore>
-0.952541 

> <ConfScore>
0.325393 

> <ConfScorePBest>
0.00253641 

> <ConfTolerance>
0.912145 

> <RosettaParamsInstructions>
M  ROOT 3
M  POLY_N_BB 3
M  POLY_CA_BB 4
M  POLY_C_BB 2
M  POLY_O_BB 5
M  POLY_IGNORE 9 10 11 12 13 14 15 16 17 18 
M  POLY_UPPER 6
M  POLY_LOWER 8
M  POLY_CHG 0
M  POLY_PROPERTIES ALPHA_AA L_AA PROTEIN AROMATIC POLYMER 
M  END

$$$$



 32 32  0  0  0  0  0  0  0  0999 V2000
   -0.1966    1.4096    0.1903 H   0  0  0  1  0  0  0  0  0  0  0  0
   -2.1694    1.1664   -0.4887 C   0  0  0  1  0  0  0  0  0  0  0  0
   -0.6424    3.0524   -0.9644 N   0  0  0  1  0  0  0  0  0  0  0  0
   -1.0381    2.0451    0.0086 C   0  0  0  1  0  0  0  0  0  0  0  0
   -3.0468    1.6118   -1.2100 O   0  0  0  1  0  0  0  0  0  0  0  0
   -2.1349   -0.1132   -0.0844 N   0  0  0  1  0  0  0  0  0  0  0  0
   -0.7337    4.0038   -0.7479 H   0  0  0  1  0  0  0  0  0  0  0  0
   -0.1528    2.6812   -2.1572 C   0  0  0  1  0  0  0  0  0  0  0  0
   -3.1758   -1.0677   -0.4354 C   0  0  0  1  0  0  0  0  0  0  0  0
    0.4751    3.7861   -2.9843 C   0  0  0  1  0  0  0  0  0  0  0  0
   -0.2012    1.5253   -2.5696 O   0  0  0  1  0  0  0  0  0  0  0  0
   -1.3825   -0.4151    0.4662 H   0  0  0  1  0  0  0  0  0  0  0  0
   -2.8138   -2.0631   -0.2833 H   0  0  0  1  0  0  0  0  0  0  0  0
   -3.4451   -0.9396   -1.4630 H   0  0  0  1  0  0  0  0  0  0  0  0
   -4.0340   -0.9023    0.1820 H   0  0  0  1  0  0  0  0  0  0  0  0
   -0.2870    4.4575   -3.3208 H   0  0  0  1  0  0  0  0  0  0  0  0
    0.9730    3.3594   -3.8298 H   0  0  0  1  0  0  0  0  0  0  0  0
    1.1826    4.3211   -2.3858 H   0  0  0  1  0  0  0  0  0  0  0  0
   -3.8843    7.6784    0.4533 F   0  0  0  1  0  0  0  0  0  0  0  0
   -3.2892    6.4887    0.6639 C   0  0  0  1  0  0  0  0  0  0  0  0
   -2.0333    6.4356    1.2481 C   0  0  0  1  0  0  0  0  0  0  0  0
   -1.4202    5.2151    1.4594 C   0  0  0  1  0  0  0  0  0  0  0  0
   -2.0637    4.0436    1.0920 C   0  0  0  1  0  0  0  0  0  0  0  0
   -3.3160    4.0963    0.5094 C   0  0  0  1  0  0  0  0  0  0  0  0
   -3.9307    5.3205    0.2975 C   0  0  0  1  0  0  0  0  0  0  0  0
   -1.3968    2.7090    1.3279 C   0  0  0  1  0  0  0  0  0  0  0  0
   -1.5523    7.3143    1.5275 H   0  0  0  1  0  0  0  0  0  0  0  0
   -0.4762    5.1756    1.8941 H   0  0  0  1  0  0  0  0  0  0  0  0
   -3.7969    3.2175    0.2300 H   0  0  0  1  0  0  0  0  0  0  0  0
   -4.8747    5.3600   -0.1371 H   0  0  0  1  0  0  0  0  0  0  0  0
   -0.5046    2.8588    1.8993 H   0  0  0  1  0  0  0  0  0  0  0  0
   -2.0656    2.0736    1.8700 H   0  0  0  1  0  0  0  0  0  0  0  0
  1  4  1  0  0  0  0
  2  4  1  0  0  0  0
  2  5  2  0  0  0  0
  2  6  1  0  0  0  0
  3  4  1  0  0  0  0
  3  7  1  0  0  0  0
  3  8  1  0  0  0  0
  4 26  1  0  0  0  0
  6  9  1  0  0  0  0
  6 12  1  0  0  0  0
  8 10  1  0  0  0  0
  8 11  2  0  0  0  0
  9 13  1  0  0  0  0
  9 14  1  0  0  0  0
  9 15  1  0  0  0  0
 10 16  1  0  0  0  0
 10 17  1  0  0  0  0
 10 18  1  0  0  0  0
 19 20  1  0  0  0  0
 20 21  4  0  0  0  0
 20 25  4  0  0  0  0
 21 22  4  0  0  0  0
 21 27  1  0  0  0  0
 22 23  4  0  0  0  0
 22 28  1  0  0  0  0
 23 24  4  0  0  0  0
 23 26  1  0  0  0  0
 24 25  4  0  0  0  0
 24 29  1  0  0  0  0
 25 30  1  0  0  0  0
 26 31  1  0  0  0  0
 26 32  1  0  0  0  0
M  END
> <BCLConfClusterSize>
1

> <ConfClashScore>
0 

> <ConfOneFourInteractionScore>
-0.962556 

> <ConfScore>
0.33366 

> <ConfScorePBest>
0.00250793 

> <ConfTolerance>
0.828519 

> <RosettaParamsInstructions>
M  ROOT 3
M  POLY_N_BB 3
M  POLY_CA_BB 4
M  POLY_C_BB 2
M  POLY_O_BB 5
M  POLY_IGNORE 9 10 11 12 13 14 15 16 17 18 
M  POLY_UPPER 6
M  POLY_LOWER 8
M  POLY_CHG 0
M  POLY_PROPERTIES ALPHA_AA L_AA PROTEIN AROMATIC POLYMER 
M  END

$$$$



 32 32  0  0  0  0  0  0  0  0999 V2000
   -1.5946    1.9146   -0.6470 H   0  0  0  1  0  0  0  0  0  0  0  0
    0.2092    3.0083   -0.5204 C   0  0  0  1  0  0  0  0  0  0  0  0
   -0.2625    0.7532    0.4221 N   0  0  0  1  0  0  0  0  0  0  0  0
   -0.8164    2.0532    0.0741 C   0  0  0  1  0  0  0  0  0  0  0  0
    0.1031    4.2178   -0.4291 O   0  0  0  1  0  0  0  0  0  0  0  0
    1.2655    2.5067   -1.1666 N   0  0  0  1  0  0  0  0  0  0  0  0
   -0.6172   -0.0458   -0.0207 H   0  0  0  1  0  0  0  0  0  0  0  0
    0.7168    0.6107    1.3281 C   0  0  0  1  0  0  0  0  0  0  0  0
    2.3298    3.3506   -1.6893 C   0  0  0  1  0  0  0  0  0  0  0  0
    1.0369   -0.8318    1.7136 C   0  0  0  1  0  0  0  0  0  0  0  0
    1.2796    1.5527    1.8796 O   0  0  0  1  0  0  0  0  0  0  0  0
    1.3258    1.5368   -1.2931 H   0  0  0  1  0  0  0  0  0  0  0  0
    2.9366    3.7018   -0.8810 H   0  0  0  1  0  0  0  0  0  0  0  0
    1.9023    4.1861   -2.2032 H   0  0  0  1  0  0  0  0  0  0  0  0
    2.9329    2.7843   -2.3678 H   0  0  0  1  0  0  0  0  0  0  0  0
    0.2262   -1.2380    2.2816 H   0  0  0  1  0  0  0  0  0  0  0  0
    1.9304   -0.8536    2.3018 H   0  0  0  1  0  0  0  0  0  0  0  0
    1.1784   -1.4145    0.8274 H   0  0  0  1  0  0  0  0  0  0  0  0
   -3.8878    7.6762    0.4515 F   0  0  0  1  0  0  0  0  0  0  0  0
   -3.2890    6.4887    0.6640 C   0  0  0  1  0  0  0  0  0  0  0  0
   -2.0330    6.4405    1.2486 C   0  0  0  1  0  0  0  0  0  0  0  0
   -1.4161    5.2223    1.4618 C   0  0  0  1  0  0  0  0  0  0  0  0
   -2.0557    4.0482    1.0959 C   0  0  0  1  0  0  0  0  0  0  0  0
   -3.3080    4.0960    0.5131 C   0  0  0  1  0  0  0  0  0  0  0  0
   -3.9267    5.3180    0.2992 C   0  0  0  1  0  0  0  0  0  0  0  0
   -1.4343    2.6881    1.3092 C   0  0  0  1  0  0  0  0  0  0  0  0
   -1.5548    7.3212    1.5267 H   0  0  0  1  0  0  0  0  0  0  0  0
   -0.4721    5.1864    1.8967 H   0  0  0  1  0  0  0  0  0  0  0  0
   -3.7862    3.2153    0.2349 H   0  0  0  1  0  0  0  0  0  0  0  0
   -4.8707    5.3538   -0.1357 H   0  0  0  1  0  0  0  0  0  0  0  0
   -0.6667    2.7881    2.0480 H   0  0  0  1  0  0  0  0  0  0  0  0
   -2.1961    2.0304    1.6724 H   0  0  0  1  0  0  0  0  0  0  0  0
  1  4  1  0  0  0  0
  2  4  1  0  0  0  0
  2  5  2  0  0  0  0
  2  6  1  0  0  0  0
  3  4  1  0  0  0  0
  3  7  1  0  0  0  0
  3  8  1  0  0  0  0
  4 26  1  0  0  0  0
  6  9  1  0  0  0  0
  6 12  1  0  0  0  0
  8 10  1  0  0  0  0
  8 11  2  0  0  0  0
  9 13  1  0  0  0  0
  9 14  1  0  0  0  0
  9 15  1  0  0  0  0
 10 16  1  0  0  0  0
 10 17  1  0  0  0  0
 10 18  1  0  0  0  0
 19 20  1  0  0  0  0
 20 21  4  0  0  0  0
 20 25  4  0  0  0  0
 21 22  4  0  0  0  0
 21 27  1  0  0  0  0
 22 23  4  0  0  0  0
 22 28  1  0  0  0  0
 23 24  4  0  0  0  0
 23 26  1  0  0  0  0
 24 25  4  0  0  0  0
 24 29  1  0  0  0  0
 25 30  1  0  0  0  0
 26 31  1  0  0  0  0
 26 32  1  0  0  0  0
M  END
> <BCLConfClusterSize>
1

> <ConfClashScore>
0 

> <ConfOneFourInteractionScore>
-0.956972 

> <ConfScore>
0.337909 

> <ConfScorePBest>
0.00247945 

> <ConfTolerance>
0.357376 

> <RosettaParamsInstructions>
M  ROOT 3
M  POLY_N_BB 3
M  POLY_CA_BB 4
M  POLY_C_BB 2
M  POLY_O_BB 5
M  POLY_IGNORE 9 10 11 12 13 14 15 16 17 18 
M  POLY_UPPER 6
M  POLY_LOWER 8
M  POLY_CHG 0
M  POLY_PROPERTIES ALPHA_AA L_AA PROTEIN AROMATIC POLYMER 
M  END

$$$$



 32 32  0  0  0  0  0  0  0  0999 V2000
   -0.7988    3.0129    3.3362 H   0  0  0  1  0  0  0  0  0  0  0  0
   -2.7369    2.1708    3.3526 C   0  0  0  1  0  0  0  0  0  0  0  0
   -0.5866    1.0108    2.8759 N   0  0  0  1  0  0  0  0  0  0  0  0
   -1.3262    2.2610    2.7872 C   0  0  0  1  0  0  0  0  0  0  0  0
   -3.2047    3.0302    4.0764 O   0  0  0  1  0  0  0  0  0  0  0  0
   -3.4959    1.1080    3.0450 N   0  0  0  1  0  0  0  0  0  0  0  0
   -1.0842    0.1737    2.9860 H   0  0  0  1  0  0  0  0  0  0  0  0
    0.7535    0.9643    2.8120 C   0  0  0  1  0  0  0  0  0  0  0  0
   -4.8275    0.9712    3.6161 C   0  0  0  1  0  0  0  0  0  0  0  0
    1.3831   -0.3731    3.1500 C   0  0  0  1  0  0  0  0  0  0  0  0
    1.4422    1.9327    2.5017 O   0  0  0  1  0  0  0  0  0  0  0  0
   -3.1529    0.4224    2.4345 H   0  0  0  1  0  0  0  0  0  0  0  0
   -5.0191   -0.0589    3.8328 H   0  0  0  1  0  0  0  0  0  0  0  0
   -5.5537    1.3294    2.9167 H   0  0  0  1  0  0  0  0  0  0  0  0
   -4.8886    1.5426    4.5187 H   0  0  0  1  0  0  0  0  0  0  0  0
    0.9450   -1.1377    2.5431 H   0  0  0  1  0  0  0  0  0  0  0  0
    1.2128   -0.5964    4.1825 H   0  0  0  1  0  0  0  0  0  0  0  0
    2.4357   -0.3290    2.9630 H   0  0  0  1  0  0  0  0  0  0  0  0
   -3.8843    7.6784    0.4533 F   0  0  0  1  0  0  0  0  0  0  0  0
   -3.2892    6.4887    0.6639 C   0  0  0  1  0  0  0  0  0  0  0  0
   -2.0333    6.4356    1.2481 C   0  0  0  1  0  0  0  0  0  0  0  0
   -1.4202    5.2151    1.4594 C   0  0  0  1  0  0  0  0  0  0  0  0
   -2.0637    4.0436    1.0920 C   0  0  0  1  0  0  0  0  0  0  0  0
   -3.3160    4.0963    0.5094 C   0  0  0  1  0  0  0  0  0  0  0  0
   -3.9307    5.3205    0.2975 C   0  0  0  1  0  0  0  0  0  0  0  0
   -1.3968    2.7090    1.3279 C   0  0  0  1  0  0  0  0  0  0  0  0
   -1.5523    7.3143    1.5275 H   0  0  0  1  0  0  0  0  0  0  0  0
   -0.4762    5.1756    1.8941 H   0  0  0  1  0  0  0  0  0  0  0  0
   -3.7969    3.2175    0.2300 H   0  0  0  1  0  0  0  0  0  0  0  0
   -4.8747    5.3600   -0.1371 H   0  0  0  1  0  0  0  0  0  0  0  0
   -1.9402    1.9672    0.7808 H   0  0  0  1  0  0  0  0  0  0  0  0
   -0.3967    2.7688    0.9522 H   0  0  0  1  0  0  0  0  0  0  0  0
  1  4  1  0  0  0  0
  2  4  1  0  0  0  0
  2  5  2  0  0  0  0
  2  6  1  0  0  0  0
  3  4  1  0  0  0  0
  3  7  1  0  0  0  0
  3  8  1  0  0  0  0
  4 26  1  0  0  0  0
  6  9  1  0  0  0  0
  6 12  1  0  0  0  0
  8 10  1  0  0  0  0
  8 11  2  0  0  0  0
  9 13  1  0  0  0  0
  9 14  1  0  0  0  0
  9 15  1  0  0  0  0
 10 16  1  0  0  0  0
 10 17  1  0  0  0  0
 10 18  1  0  0  0  0
 19 20  1  0  0  0  0
 20 21  4  0  0  0  0
 20 25  4  0  0  0  0
 21 22  4  0  0  0  0
 21 27  1  0  0  0  0
 22 23  4  0  0  0  0
 22 28  1  0  0  0  0
 23 24  4  0  0  0  0
 23 26  1  0  0  0  0
 24 25  4  0  0  0  0
 24 29  1  0  0  0  0
 25 30  1  0  0  0  0
 26 31  1  0  0  0  0
 26 32  1  0  0  0  0
M  END
> <BCLConfClusterSize>
1

> <ConfClashScore>
0 

> <ConfOneFourInteractionScore>
-0.965014 

> <ConfScore>
0.355913 

> <ConfScorePBest>
0.00245097 

> <ConfTolerance>
0.79511 

> <RosettaParamsInstructions>
M  ROOT 3
M  POLY_N_BB 3
M  POLY_CA_BB 4
M  POLY_C_BB 2
M  POLY_O_BB 5
M  POLY_IGNORE 9 10 11 12 13 14 15 16 17 18 
M  POLY_UPPER 6
M  POLY_LOWER 8
M  POLY_CHG 0
M  POLY_PROPERTIES ALPHA_AA L_AA PROTEIN AROMATIC POLYMER 
M  END

$$$$



 32 32  0  0  0  0  0  0  0  0999 V2000
   -1.0342    1.2886    2.8536 H   0  0  0  1  0  0  0  0  0  0  0  0
   -0.7216    3.1656    3.7364 C   0  0  0  1  0  0  0  0  0  0  0  0
   -2.8871    2.1280    3.1613 N   0  0  0  1  0  0  0  0  0  0  0  0
   -1.4839    2.2579    2.7978 C   0  0  0  1  0  0  0  0  0  0  0  0
   -1.2610    4.1475    4.2397 O   0  0  0  1  0  0  0  0  0  0  0  0
    0.5537    2.8675    4.0007 N   0  0  0  1  0  0  0  0  0  0  0  0
   -3.2349    1.2144    3.2308 H   0  0  0  1  0  0  0  0  0  0  0  0
   -3.7560    3.1138    3.4113 C   0  0  0  1  0  0  0  0  0  0  0  0
    1.4274    3.7712    4.7341 C   0  0  0  1  0  0  0  0  0  0  0  0
   -5.1945    2.6853    3.6262 C   0  0  0  1  0  0  0  0  0  0  0  0
   -3.4275    4.2982    3.4672 O   0  0  0  1  0  0  0  0  0  0  0  0
    0.9133    2.0104    3.6899 H   0  0  0  1  0  0  0  0  0  0  0  0
    0.8372    4.4165    5.3507 H   0  0  0  1  0  0  0  0  0  0  0  0
    1.9937    4.3590    4.0424 H   0  0  0  1  0  0  0  0  0  0  0  0
    2.0935    3.2024    5.3486 H   0  0  0  1  0  0  0  0  0  0  0  0
   -5.2638    2.1026    4.5210 H   0  0  0  1  0  0  0  0  0  0  0  0
   -5.5199    2.0984    2.7927 H   0  0  0  1  0  0  0  0  0  0  0  0
   -5.8150    3.5523    3.7164 H   0  0  0  1  0  0  0  0  0  0  0  0
   -3.8531    7.6958    0.4688 F   0  0  0  1  0  0  0  0  0  0  0  0
   -3.2951    6.4852    0.6609 C   0  0  0  1  0  0  0  0  0  0  0  0
   -2.0392    6.4310    1.2451 C   0  0  0  1  0  0  0  0  0  0  0  0
   -1.4270    5.2099    1.4560 C   0  0  0  1  0  0  0  0  0  0  0  0
   -2.0714    4.0390    1.0881 C   0  0  0  1  0  0  0  0  0  0  0  0
   -3.3237    4.0928    0.5056 C   0  0  0  1  0  0  0  0  0  0  0  0
   -3.9375    5.3176    0.2942 C   0  0  0  1  0  0  0  0  0  0  0  0
   -1.3601    2.7318    1.3464 C   0  0  0  1  0  0  0  0  0  0  0  0
   -1.5575    7.3092    1.5248 H   0  0  0  1  0  0  0  0  0  0  0  0
   -0.4831    5.1696    1.8906 H   0  0  0  1  0  0  0  0  0  0  0  0
   -3.8053    3.2146    0.2260 H   0  0  0  1  0  0  0  0  0  0  0  0
   -4.8815    5.3580   -0.1404 H   0  0  0  1  0  0  0  0  0  0  0  0
   -1.7798    1.9836    0.7068 H   0  0  0  1  0  0  0  0  0  0  0  0
   -0.3227    2.8573    1.1164 H   0  0  0  1  0  0  0  0  0  0  0  0
  1  4  1  0  0  0  0
  2  4  1  0  0  0  0
  2  5  2  0  0  0  0
  2  6  1  0  0  0  0
  3  4  1  0  0  0  0
  3  7  1  0  0  0  0
  3  8  1  0  0  0  0
  4 26  1  0  0  0  0
  6  9  1  0  0  0  0
  6 12  1  0  0  0  0
  8 10  1  0  0  0  0
  8 11  2  0  0  0  0
  9 13  1  0  0  0  0
  9 14  1  0  0  0  0
  9 15  1  0  0  0  0
 10 16  1  0  0  0  0
 10 17  1  0  0  0  0
 10 18  1  0  0  0  0
 19 20  1  0  0  0  0
 20 21  4  0  0  0  0
 20 25  4  0  0  0  0
 21 22  4  0  0  0  0
 21 27  1  0  0  0  0
 22 23  4  0  0  0  0
 22 28  1  0  0  0  0
 23 24  4  0  0  0  0
 23 26  1  0  0  0  0
 24 25  4  0  0  0  0
 24 29  1  0  0  0  0
 25 30  1  0  0  0  0
 26 31  1  0  0  0  0
 26 32  1  0  0  0  0
M  END
> <BCLConfClusterSize>
1

> <ConfClashScore>
0 

> <ConfOneFourInteractionScore>
-0.977545 

> <ConfScore>
0.356216 

> <ConfScorePBest>
0.00242249 

> <ConfTolerance>
1.10269 

> <RosettaParamsInstructions>
M  ROOT 3
M  POLY_N_BB 3
M  POLY_CA_BB 4
M  POLY_C_BB 2
M  POLY_O_BB 5
M  POLY_IGNORE 9 10 11 12 13 14 15 16 17 18 
M  POLY_UPPER 6
M  POLY_LOWER 8
M  POLY_CHG 0
M  POLY_PROPERTIES ALPHA_AA L_AA PROTEIN AROMATIC POLYMER 
M  END

$$$$



 32 32  0  0  0  0  0  0  0  0999 V2000
   -2.5999    2.3497    3.0420 H   0  0  0  1  0  0  0  0  0  0  0  0
   -1.1682    0.8034    3.0069 C   0  0  0  1  0  0  0  0  0  0  0  0
   -0.7796    3.1073    3.6484 N   0  0  0  1  0  0  0  0  0  0  0  0
   -1.5696    2.2516    2.7703 C   0  0  0  1  0  0  0  0  0  0  0  0
   -2.0045   -0.0980    2.9656 O   0  0  0  1  0  0  0  0  0  0  0  0
    0.1298    0.5387    3.2627 N   0  0  0  1  0  0  0  0  0  0  0  0
   -0.2454    3.8269    3.2521 H   0  0  0  1  0  0  0  0  0  0  0  0
   -0.7587    2.9424    4.9873 C   0  0  0  1  0  0  0  0  0  0  0  0
    0.5565   -0.8245    3.5407 C   0  0  0  1  0  0  0  0  0  0  0  0
   -1.6874    1.9135    5.5914 C   0  0  0  1  0  0  0  0  0  0  0  0
   -0.0071    3.6085    5.6980 O   0  0  0  1  0  0  0  0  0  0  0  0
    0.7866    1.2660    3.2613 H   0  0  0  1  0  0  0  0  0  0  0  0
   -0.2416   -1.3596    4.0117 H   0  0  0  1  0  0  0  0  0  0  0  0
    1.4060   -0.8065    4.1910 H   0  0  0  1  0  0  0  0  0  0  0  0
    0.8187   -1.3099    2.6239 H   0  0  0  1  0  0  0  0  0  0  0  0
   -2.3255    1.5172    4.8294 H   0  0  0  1  0  0  0  0  0  0  0  0
   -2.2833    2.3739    6.3515 H   0  0  0  1  0  0  0  0  0  0  0  0
   -1.1105    1.1212    6.0208 H   0  0  0  1  0  0  0  0  0  0  0  0
   -3.9151    7.6593    0.4378 F   0  0  0  1  0  0  0  0  0  0  0  0
   -3.2833    6.4921    0.6668 C   0  0  0  1  0  0  0  0  0  0  0  0
   -2.0274    6.4405    1.2512 C   0  0  0  1  0  0  0  0  0  0  0  0
   -1.4131    5.2207    1.4631 C   0  0  0  1  0  0  0  0  0  0  0  0
   -2.0554    4.0484    1.0961 C   0  0  0  1  0  0  0  0  0  0  0  0
   -3.3077    4.0996    0.5134 C   0  0  0  1  0  0  0  0  0  0  0  0
   -3.9236    5.3232    0.3010 C   0  0  0  1  0  0  0  0  0  0  0  0
   -1.4370    2.6868    1.3079 C   0  0  0  1  0  0  0  0  0  0  0  0
   -1.5472    7.3199    1.5302 H   0  0  0  1  0  0  0  0  0  0  0  0
   -0.4691    5.1823    1.8978 H   0  0  0  1  0  0  0  0  0  0  0  0
   -3.7878    3.2203    0.2345 H   0  0  0  1  0  0  0  0  0  0  0  0
   -4.8676    5.3615   -0.1338 H   0  0  0  1  0  0  0  0  0  0  0  0
   -1.9345    1.9745    0.6834 H   0  0  0  1  0  0  0  0  0  0  0  0
   -0.4001    2.7280    1.0468 H   0  0  0  1  0  0  0  0  0  0  0  0
  1  4  1  0  0  0  0
  2  4  1  0  0  0  0
  2  5  2  0  0  0  0
  2  6  1  0  0  0  0
  3  4  1  0  0  0  0
  3  7  1  0  0  0  0
  3  8  1  0  0  0  0
  4 26  1  0  0  0  0
  6  9  1  0  0  0  0
  6 12  1  0  0  0  0
  8 10  1  0  0  0  0
  8 11  2  0  0  0  0
  9 13  1  0  0  0  0
  9 14  1  0  0  0  0
  9 15  1  0  0  0  0
 10 16  1  0  0  0  0
 10 17  1  0  0  0  0
 10 18  1  0  0  0  0
 19 20  1  0  0  0  0
 20 21  4  0  0  0  0
 20 25  4  0  0  0  0
 21 22  4  0  0  0  0
 21 27  1  0  0  0  0
 22 23  4  0  0  0  0
 22 28  1  0  0  0  0
 23 24  4  0  0  0  0
 23 26  1  0  0  0  0
 24 25  4  0  0  0  0
 24 29  1  0  0  0  0
 25 30  1  0  0  0  0
 26 31  1  0  0  0  0
 26 32  1  0  0  0  0
M  END
> <BCLConfClusterSize>
1

> <ConfClashScore>
0 

> <ConfOneFourInteractionScore>
-0.956443 

> <ConfScore>
0.370288 

> <ConfScorePBest>
0.00239401 

> <ConfTolerance>
0.979279 

> <RosettaParamsInstructions>
M  ROOT 3
M  POLY_N_BB 3
M  POLY_CA_BB 4
M  POLY_C_BB 2
M  POLY_O_BB 5
M  POLY_IGNORE 9 10 11 12 13 14 15 16 17 18 
M  POLY_UPPER 6
M  POLY_LOWER 8
M  POLY_CHG 0
M  POLY_PROPERTIES ALPHA_AA L_AA PROTEIN AROMATIC POLYMER 
M  END

$$$$



 32 32  0  0  0  0  0  0  0  0999 V2000
    0.1259    1.5770    0.4273 H   0  0  0  1  0  0  0  0  0  0  0  0
    0.1316    3.3940   -0.6195 C   0  0  0  1  0  0  0  0  0  0  0  0
    1.0732    2.9772    1.5921 N   0  0  0  1  0  0  0  0  0  0  0  0
   -0.0131    2.6073    0.6806 C   0  0  0  1  0  0  0  0  0  0  0  0
   -0.6374    3.2565   -1.5534 O   0  0  0  1  0  0  0  0  0  0  0  0
    1.1363    4.2662   -0.7423 N   0  0  0  1  0  0  0  0  0  0  0  0
    1.1220    3.8994    1.9200 H   0  0  0  1  0  0  0  0  0  0  0  0
    1.9992    2.1010    1.9916 C   0  0  0  1  0  0  0  0  0  0  0  0
    1.3504    5.0394   -1.9564 C   0  0  0  1  0  0  0  0  0  0  0  0
    2.9201    2.6058    3.1039 C   0  0  0  1  0  0  0  0  0  0  0  0
    2.0867    0.9437    1.5832 O   0  0  0  1  0  0  0  0  0  0  0  0
    1.7503    4.3895    0.0115 H   0  0  0  1  0  0  0  0  0  0  0  0
    0.5296    5.7101   -2.1022 H   0  0  0  1  0  0  0  0  0  0  0  0
    1.4220    4.3764   -2.7932 H   0  0  0  1  0  0  0  0  0  0  0  0
    2.2573    5.6002   -1.8665 H   0  0  0  1  0  0  0  0  0  0  0  0
    3.4391    3.4795    2.7689 H   0  0  0  1  0  0  0  0  0  0  0  0
    3.6289    1.8439    3.3531 H   0  0  0  1  0  0  0  0  0  0  0  0
    2.3366    2.8472    3.9677 H   0  0  0  1  0  0  0  0  0  0  0  0
   -3.8843    7.6784    0.4533 F   0  0  0  1  0  0  0  0  0  0  0  0
   -3.2892    6.4887    0.6639 C   0  0  0  1  0  0  0  0  0  0  0  0
   -2.0333    6.4356    1.2481 C   0  0  0  1  0  0  0  0  0  0  0  0
   -1.4202    5.2151    1.4594 C   0  0  0  1  0  0  0  0  0  0  0  0
   -2.0637    4.0436    1.0920 C   0  0  0  1  0  0  0  0  0  0  0  0
   -3.3160    4.0963    0.5094 C   0  0  0  1  0  0  0  0  0  0  0  0
   -3.9307    5.3205    0.2975 C   0  0  0  1  0  0  0  0  0  0  0  0
   -1.3968    2.7090    1.3279 C   0  0  0  1  0  0  0  0  0  0  0  0
   -1.5523    7.3143    1.5275 H   0  0  0  1  0  0  0  0  0  0  0  0
   -0.4762    5.1756    1.8941 H   0  0  0  1  0  0  0  0  0  0  0  0
   -3.7969    3.2175    0.2300 H   0  0  0  1  0  0  0  0  0  0  0  0
   -4.8747    5.3600   -0.1371 H   0  0  0  1  0  0  0  0  0  0  0  0
   -1.2910    2.5629    2.3826 H   0  0  0  1  0  0  0  0  0  0  0  0
   -2.0203    1.9402    0.9216 H   0  0  0  1  0  0  0  0  0  0  0  0
  1  4  1  0  0  0  0
  2  4  1  0  0  0  0
  2  5  2  0  0  0  0
  2  6  1  0  0  0  0
  3  4  1  0  0  0  0
  3  7  1  0  0  0  0
  3  8  1  0  0  0  0
  4 26  1  0  0  0  0
  6  9  1  0  0  0  0
  6 12  1  0  0  0  0
  8 10  1  0  0  0  0
  8 11  2  0  0  0  0
  9 13  1  0  0  0  0
  9 14  1  0  0  0  0
  9 15  1  0  0  0  0
 10 16  1  0  0  0  0
 10 17  1  0  0  0  0
 10 18  1  0  0  0  0
 19 20  1  0  0  0  0
 20 21  4  0  0  0  0
 20 25  4  0  0  0  0
 21 22  4  0  0  0  0
 21 27  1  0  0  0  0
 22 23  4  0  0  0  0
 22 28  1  0  0  0  0
 23 24  4  0  0  0  0
 23 26  1  0  0  0  0
 24 25  4  0  0  0  0
 24 29  1  0  0  0  0
 25 30  1  0  0  0  0
 26 31  1  0  0  0  0
 26 32  1  0  0  0  0
M  END
> <BCLConfClusterSize>
1

> <ConfClashScore>
0 

> <ConfOneFourInteractionScore>
-0.95409 

> <ConfScore>
0.383084 

> <ConfScorePBest>
0.00236553 

> <ConfTolerance>
1.08209 

> <RosettaParamsInstructions>
M  ROOT 3
M  POLY_N_BB 3
M  POLY_CA_BB 4
M  POLY_C_BB 2
M  POLY_O_BB 5
M  POLY_IGNORE 9 10 11 12 13 14 15 16 17 18 
M  POLY_UPPER 6
M  POLY_LOWER 8
M  POLY_CHG 0
M  POLY_PROPERTIES ALPHA_AA L_AA PROTEIN AROMATIC POLYMER 
M  END

$$$$



 32 32  0  0  0  0  0  0  0  0999 V2000
    0.1515    2.8137   -0.0125 H   0  0  0  1  0  0  0  0  0  0  0  0
    0.1138    0.8481    0.7191 C   0  0  0  1  0  0  0  0  0  0  0  0
   -1.4461    1.8691   -0.8998 N   0  0  0  1  0  0  0  0  0  0  0  0
   -0.5981    2.1004    0.2600 C   0  0  0  1  0  0  0  0  0  0  0  0
    0.3859   -0.0505   -0.0760 O   0  0  0  1  0  0  0  0  0  0  0  0
    0.4390    0.7470    2.0176 N   0  0  0  1  0  0  0  0  0  0  0  0
   -1.1585    2.2114   -1.7719 H   0  0  0  1  0  0  0  0  0  0  0  0
   -2.6469    1.1811   -0.8140 C   0  0  0  1  0  0  0  0  0  0  0  0
    1.0138   -0.4645    2.5831 C   0  0  0  1  0  0  0  0  0  0  0  0
   -3.4228    0.9063   -2.0715 C   0  0  0  1  0  0  0  0  0  0  0  0
   -3.0344    0.8210    0.2826 O   0  0  0  1  0  0  0  0  0  0  0  0
    0.2839    1.5159    2.6052 H   0  0  0  1  0  0  0  0  0  0  0  0
    1.1848   -1.1765    1.8029 H   0  0  0  1  0  0  0  0  0  0  0  0
    0.3373   -0.8783    3.3014 H   0  0  0  1  0  0  0  0  0  0  0  0
    1.9420   -0.2293    3.0607 H   0  0  0  1  0  0  0  0  0  0  0  0
   -2.7502    0.8544   -2.9020 H   0  0  0  1  0  0  0  0  0  0  0  0
   -4.1293    1.6934   -2.2336 H   0  0  0  1  0  0  0  0  0  0  0  0
   -3.9413   -0.0246   -1.9741 H   0  0  0  1  0  0  0  0  0  0  0  0
   -3.8641    7.6931    0.4856 F   0  0  0  1  0  0  0  0  0  0  0  0
   -3.2975    6.4848    0.6666 C   0  0  0  1  0  0  0  0  0  0  0  0
   -2.0385    6.4346    1.2447 C   0  0  0  1  0  0  0  0  0  0  0  0
   -1.4176    5.2160    1.4441 C   0  0  0  1  0  0  0  0  0  0  0  0
   -2.0561    4.0437    1.0710 C   0  0  0  1  0  0  0  0  0  0  0  0
   -3.3114    4.0934    0.4947 C   0  0  0  1  0  0  0  0  0  0  0  0
   -3.9340    5.3157    0.2947 C   0  0  0  1  0  0  0  0  0  0  0  0
   -1.4136    2.7136    1.3865 C   0  0  0  1  0  0  0  0  0  0  0  0
   -1.5612    7.3139    1.5283 H   0  0  0  1  0  0  0  0  0  0  0  0
   -0.4714    5.1788    1.8741 H   0  0  0  1  0  0  0  0  0  0  0  0
   -3.7887    3.2140    0.2111 H   0  0  0  1  0  0  0  0  0  0  0  0
   -4.8802    5.3530   -0.1353 H   0  0  0  1  0  0  0  0  0  0  0  0
   -0.7651    2.8513    2.2264 H   0  0  0  1  0  0  0  0  0  0  0  0
   -2.1906    2.0246    1.6444 H   0  0  0  1  0  0  0  0  0  0  0  0
  1  4  1  0  0  0  0
  2  4  1  0  0  0  0
  2  5  2  0  0  0  0
  2  6  1  0  0  0  0
  3  4  1  0  0  0  0
  3  7  1  0  0  0  0
  3  8  1  0  0  0  0
  4 26  1  0  0  0  0
  6  9  1  0  0  0  0
  6 12  1  0  0  0  0
  8 10  1  0  0  0  0
  8 11  2  0  0  0  0
  9 13  1  0  0  0  0
  9 14  1  0  0  0  0
  9 15  1  0  0  0  0
 10 16  1  0  0  0  0
 10 17  1  0  0  0  0
 10 18  1  0  0  0  0
 19 20  1  0  0  0  0
 20 21  4  0  0  0  0
 20 25  4  0  0  0  0
 21 22  4  0  0  0  0
 21 27  1  0  0  0  0
 22 23  4  0  0  0  0
 22 28  1  0  0  0  0
 23 24  4  0  0  0  0
 23 26  1  0  0  0  0
 24 25  4  0  0  0  0
 24 29  1  0  0  0  0
 25 30  1  0  0  0  0
 26 31  1  0  0  0  0
 26 32  1  0  0  0  0
M  END
> <BCLConfClusterSize>
1

> <ConfClashScore>
0 

> <ConfOneFourInteractionScore>
-0.933542 

> <ConfScore>
0.387152 

> <ConfScorePBest>
0.00233705 

> <ConfTolerance>
1.03856 

> <RosettaParamsInstructions>
M  ROOT 3
M  POLY_N_BB 3
M  POLY_CA_BB 4
M  POLY_C_BB 2
M  POLY_O_BB 5
M  POLY_IGNORE 9 10 11 12 13 14 15 16 17 18 
M  POLY_UPPER 6
M  POLY_LOWER 8
M  POLY_CHG 0
M  POLY_PROPERTIES ALPHA_AA L_AA PROTEIN AROMATIC POLYMER 
M  END

$$$$



 32 32  0  0  0  0  0  0  0  0999 V2000
   -2.7411    1.9284   -0.1172 H   0  0  0  1  0  0  0  0  0  0  0  0
   -1.1729    0.5274    0.1078 C   0  0  0  1  0  0  0  0  0  0  0  0
   -3.0280    0.8949    1.6508 N   0  0  0  1  0  0  0  0  0  0  0  0
   -2.1501    1.5399    0.6858 C   0  0  0  1  0  0  0  0  0  0  0  0
   -0.4010   -0.0998    0.8315 O   0  0  0  1  0  0  0  0  0  0  0  0
   -1.2145    0.3719   -1.2249 N   0  0  0  1  0  0  0  0  0  0  0  0
   -2.7535    0.8607    2.5909 H   0  0  0  1  0  0  0  0  0  0  0  0
   -4.2393    0.3270    1.2862 C   0  0  0  1  0  0  0  0  0  0  0  0
   -0.3638   -0.5459   -1.9677 C   0  0  0  1  0  0  0  0  0  0  0  0
   -4.9685   -0.5368    2.2766 C   0  0  0  1  0  0  0  0  0  0  0  0
   -4.6737    0.5483    0.1706 O   0  0  0  1  0  0  0  0  0  0  0  0
   -1.8589    0.9107   -1.7298 H   0  0  0  1  0  0  0  0  0  0  0  0
   -0.1415   -0.1291   -2.9278 H   0  0  0  1  0  0  0  0  0  0  0  0
   -0.8710   -1.4796   -2.0932 H   0  0  0  1  0  0  0  0  0  0  0  0
    0.5467   -0.7037   -1.4282 H   0  0  0  1  0  0  0  0  0  0  0  0
   -4.2607   -1.0302    2.9094 H   0  0  0  1  0  0  0  0  0  0  0  0
   -5.5486   -1.2676    1.7529 H   0  0  0  1  0  0  0  0  0  0  0  0
   -5.6154    0.0725    2.8726 H   0  0  0  1  0  0  0  0  0  0  0  0
   -3.8843    7.6784    0.4533 F   0  0  0  1  0  0  0  0  0  0  0  0
   -3.2892    6.4887    0.6639 C   0  0  0  1  0  0  0  0  0  0  0  0
   -2.0333    6.4356    1.2481 C   0  0  0  1  0  0  0  0  0  0  0  0
   -1.4202    5.2151    1.4594 C   0  0  0  1  0  0  0  0  0  0  0  0
   -2.0637    4.0436    1.0920 C   0  0  0  1  0  0  0  0  0  0  0  0
   -3.3160    4.0963    0.5094 C   0  0  0  1  0  0  0  0  0  0  0  0
   -3.9307    5.3205    0.2975 C   0  0  0  1  0  0  0  0  0  0  0  0
   -1.3968    2.7090    1.3279 C   0  0  0  1  0  0  0  0  0  0  0  0
   -1.5523    7.3143    1.5275 H   0  0  0  1  0  0  0  0  0  0  0  0
   -0.4762    5.1756    1.8941 H   0  0  0  1  0  0  0  0  0  0  0  0
   -3.7969    3.2175    0.2300 H   0  0  0  1  0  0  0  0  0  0  0  0
   -4.8747    5.3600   -0.1371 H   0  0  0  1  0  0  0  0  0  0  0  0
   -0.4093    2.7444    0.9174 H   0  0  0  1  0  0  0  0  0  0  0  0
   -1.3392    2.5389    2.3827 H   0  0  0  1  0  0  0  0  0  0  0  0
  1  4  1  0  0  0  0
  2  4  1  0  0  0  0
  2  5  2  0  0  0  0
  2  6  1  0  0  0  0
  3  4  1  0  0  0  0
  3  7  1  0  0  0  0
  3  8  1  0  0  0  0
  4 26  1  0  0  0  0
  6  9  1  0  0  0  0
  6 12  1  0  0  0  0
  8 10  1  0  0  0  0
  8 11  2  0  0  0  0
  9 13  1  0  0  0  0
  9 14  1  0  0  0  0
  9 15  1  0  0  0  0
 10 16  1  0  0  0  0
 10 17  1  0  0  0  0
 10 18  1  0  0  0  0
 19 20  1  0  0  0  0
 20 21  4  0  0  0  0
 20 25  4  0  0  0  0
 21 22  4  0  0  0  0
 21 27  1  0  0  0  0
 22 23  4  0  0  0  0
 22 28  1  0  0  0  0
 23 24  4  0  0  0  0
 23 26  1  0  0  0  0
 24 25  4  0  0  0  0
 24 29  1  0  0  0  0
 25 30  1  0  0  0  0
 26 31  1  0  0  0  0
 26 32  1  0  0  0  0
M  END
> <BCLConfClusterSize>
1

> <ConfClashScore>
0 

> <ConfOneFourInteractionScore>
-0.963005 

> <ConfScore>
0.408186 

> <ConfScorePBest>
0.00230857 

> <ConfTolerance>
1.07702 

> <RosettaParamsInstructions>
M  ROOT 3
M  POLY_N_BB 3
M  POLY_CA_BB 4
M  POLY_C_BB 2
M  POLY_O_BB 5
M  POLY_IGNORE 9 10 11 12 13 14 15 16 17 18 
M  POLY_UPPER 6
M  POLY_LOWER 8
M  POLY_CHG 0
M  POLY_PROPERTIES ALPHA_AA L_AA PROTEIN AROMATIC POLYMER 
M  END

$$$$



 32 32  0  0  0  0  0  0  0  0999 V2000
   -0.1426    3.1904    2.9908 H   0  0  0  1  0  0  0  0  0  0  0  0
   -2.0807    3.0466    3.8155 C   0  0  0  1  0  0  0  0  0  0  0  0
   -0.6125    1.1752    3.0451 N   0  0  0  1  0  0  0  0  0  0  0  0
   -1.0050    2.5744    2.8434 C   0  0  0  1  0  0  0  0  0  0  0  0
   -3.1270    2.4335    3.9487 O   0  0  0  1  0  0  0  0  0  0  0  0
   -1.7969    4.1648    4.5006 N   0  0  0  1  0  0  0  0  0  0  0  0
    0.2979    0.9787    3.3502 H   0  0  0  1  0  0  0  0  0  0  0  0
   -1.4529    0.1597    2.8273 C   0  0  0  1  0  0  0  0  0  0  0  0
   -2.7793    4.7326    5.4119 C   0  0  0  1  0  0  0  0  0  0  0  0
   -0.8332   -1.2328    2.8660 C   0  0  0  1  0  0  0  0  0  0  0  0
   -2.6529    0.3186    2.6078 O   0  0  0  1  0  0  0  0  0  0  0  0
   -0.9263    4.6002    4.3870 H   0  0  0  1  0  0  0  0  0  0  0  0
   -3.7617    4.4387    5.1063 H   0  0  0  1  0  0  0  0  0  0  0  0
   -2.7054    5.7999    5.3957 H   0  0  0  1  0  0  0  0  0  0  0  0
   -2.5930    4.3766    6.4036 H   0  0  0  1  0  0  0  0  0  0  0  0
   -0.1164   -1.3268    2.0772 H   0  0  0  1  0  0  0  0  0  0  0  0
   -1.6004   -1.9680    2.7399 H   0  0  0  1  0  0  0  0  0  0  0  0
   -0.3480   -1.3809    3.8081 H   0  0  0  1  0  0  0  0  0  0  0  0
   -3.9193    7.6607    0.4580 F   0  0  0  1  0  0  0  0  0  0  0  0
   -3.2861    6.4915    0.6723 C   0  0  0  1  0  0  0  0  0  0  0  0
   -2.0272    6.4345    1.2499 C   0  0  0  1  0  0  0  0  0  0  0  0
   -1.4116    5.2128    1.4467 C   0  0  0  1  0  0  0  0  0  0  0  0
   -2.0555    4.0441    1.0713 C   0  0  0  1  0  0  0  0  0  0  0  0
   -3.3106    4.1006    0.4954 C   0  0  0  1  0  0  0  0  0  0  0  0
   -3.9279    5.3260    0.2981 C   0  0  0  1  0  0  0  0  0  0  0  0
   -1.4188    2.7105    1.3840 C   0  0  0  1  0  0  0  0  0  0  0  0
   -1.5459    7.3112    1.5352 H   0  0  0  1  0  0  0  0  0  0  0  0
   -0.4655    5.1705    1.8764 H   0  0  0  1  0  0  0  0  0  0  0  0
   -3.7919    3.2239    0.2102 H   0  0  0  1  0  0  0  0  0  0  0  0
   -4.8741    5.3684   -0.1315 H   0  0  0  1  0  0  0  0  0  0  0  0
   -2.1207    1.9360    1.1553 H   0  0  0  1  0  0  0  0  0  0  0  0
   -0.5489    2.5964    0.7713 H   0  0  0  1  0  0  0  0  0  0  0  0
  1  4  1  0  0  0  0
  2  4  1  0  0  0  0
  2  5  2  0  0  0  0
  2  6  1  0  0  0  0
  3  4  1  0  0  0  0
  3  7  1  0  0  0  0
  3  8  1  0  0  0  0
  4 26  1  0  0  0  0
  6  9  1  0  0  0  0
  6 12  1  0  0  0  0
  8 10  1  0  0  0  0
  8 11  2  0  0  0  0
  9 13  1  0  0  0  0
  9 14  1  0  0  0  0
  9 15  1  0  0  0  0
 10 16  1  0  0  0  0
 10 17  1  0  0  0  0
 10 18  1  0  0  0  0
 19 20  1  0  0  0  0
 20 21  4  0  0  0  0
 20 25  4  0  0  0  0
 21 22  4  0  0  0  0
 21 27  1  0  0  0  0
 22 23  4  0  0  0  0
 22 28  1  0  0  0  0
 23 24  4  0  0  0  0
 23 26  1  0  0  0  0
 24 25  4  0  0  0  0
 24 29  1  0  0  0  0
 25 30  1  0  0  0  0
 26 31  1  0  0  0  0
 26 32  1  0  0  0  0
M  END
> <BCLConfClusterSize>
1

> <ConfClashScore>
0 

> <ConfOneFourInteractionScore>
-0.980324 

> <ConfScore>
0.413412 

> <ConfScorePBest>
0.00228009 

> <ConfTolerance>
0.793575 

> <RosettaParamsInstructions>
M  ROOT 3
M  POLY_N_BB 3
M  POLY_CA_BB 4
M  POLY_C_BB 2
M  POLY_O_BB 5
M  POLY_IGNORE 9 10 11 12 13 14 15 16 17 18 
M  POLY_UPPER 6
M  POLY_LOWER 8
M  POLY_CHG 0
M  POLY_PROPERTIES ALPHA_AA L_AA PROTEIN AROMATIC POLYMER 
M  END

$$$$



 32 32  0  0  0  0  0  0  0  0999 V2000
   -1.9352    2.8386    3.4364 H   0  0  0  1  0  0  0  0  0  0  0  0
   -3.2100    1.4288    2.4990 C   0  0  0  1  0  0  0  0  0  0  0  0
   -0.8686    1.0864    3.1174 N   0  0  0  1  0  0  0  0  0  0  0  0
   -1.8511    2.0728    2.6939 C   0  0  0  1  0  0  0  0  0  0  0  0
   -4.0099    1.8638    1.6716 O   0  0  0  1  0  0  0  0  0  0  0  0
   -3.4708    0.3693    3.2810 N   0  0  0  1  0  0  0  0  0  0  0  0
   -0.2752    1.3015    3.8671 H   0  0  0  1  0  0  0  0  0  0  0  0
   -0.7427   -0.1473    2.4971 C   0  0  0  1  0  0  0  0  0  0  0  0
   -4.7304   -0.3563    3.2123 C   0  0  0  1  0  0  0  0  0  0  0  0
    0.3693   -1.0665    2.9182 C   0  0  0  1  0  0  0  0  0  0  0  0
   -1.5411   -0.4460    1.6278 O   0  0  0  1  0  0  0  0  0  0  0  0
   -2.7892    0.0742    3.9203 H   0  0  0  1  0  0  0  0  0  0  0  0
   -4.5552   -1.3947    3.4018 H   0  0  0  1  0  0  0  0  0  0  0  0
   -5.1568   -0.2388    2.2380 H   0  0  0  1  0  0  0  0  0  0  0  0
   -5.4054    0.0311    3.9466 H   0  0  0  1  0  0  0  0  0  0  0  0
    0.1465   -1.4795    3.8798 H   0  0  0  1  0  0  0  0  0  0  0  0
    1.2858   -0.5168    2.9701 H   0  0  0  1  0  0  0  0  0  0  0  0
    0.4673   -1.8577    2.2046 H   0  0  0  1  0  0  0  0  0  0  0  0
   -3.8920    7.6774    0.4717 F   0  0  0  1  0  0  0  0  0  0  0  0
   -3.2918    6.4881    0.6695 C   0  0  0  1  0  0  0  0  0  0  0  0
   -2.0329    6.4345    1.2473 C   0  0  0  1  0  0  0  0  0  0  0  0
   -1.4146    5.2144    1.4454 C   0  0  0  1  0  0  0  0  0  0  0  0
   -2.0558    4.0438    1.0712 C   0  0  0  1  0  0  0  0  0  0  0  0
   -3.3110    4.0970    0.4951 C   0  0  0  1  0  0  0  0  0  0  0  0
   -3.9309    5.3208    0.2964 C   0  0  0  1  0  0  0  0  0  0  0  0
   -1.4162    2.7120    1.3853 C   0  0  0  1  0  0  0  0  0  0  0  0
   -1.5535    7.3125    1.5317 H   0  0  0  1  0  0  0  0  0  0  0  0
   -0.4684    5.1746    1.8753 H   0  0  0  1  0  0  0  0  0  0  0  0
   -3.7903    3.2189    0.2106 H   0  0  0  1  0  0  0  0  0  0  0  0
   -4.8771    5.3607   -0.1334 H   0  0  0  1  0  0  0  0  0  0  0  0
   -1.6558    2.0354    0.5917 H   0  0  0  1  0  0  0  0  0  0  0  0
   -0.3566    2.8557    1.4243 H   0  0  0  1  0  0  0  0  0  0  0  0
  1  4  1  0  0  0  0
  2  4  1  0  0  0  0
  2  5  2  0  0  0  0
  2  6  1  0  0  0  0
  3  4  1  0  0  0  0
  3  7  1  0  0  0  0
  3  8  1  0  0  0  0
  4 26  1  0  0  0  0
  6  9  1  0  0  0  0
  6 12  1  0  0  0  0
  8 10  1  0  0  0  0
  8 11  2  0  0  0  0
  9 13  1  0  0  0  0
  9 14  1  0  0  0  0
  9 15  1  0  0  0  0
 10 16  1  0  0  0  0
 10 17  1  0  0  0  0
 10 18  1  0  0  0  0
 19 20  1  0  0  0  0
 20 21  4  0  0  0  0
 20 25  4  0  0  0  0
 21 22  4  0  0  0  0
 21 27  1  0  0  0  0
 22 23  4  0  0  0  0
 22 28  1  0  0  0  0
 23 24  4  0  0  0  0
 23 26  1  0  0  0  0
 24 25  4  0  0  0  0
 24 29  1  0  0  0  0
 25 30  1  0  0  0  0
 26 31  1  0  0  0  0
 26 32  1  0  0  0  0
M  END
> <BCLConfClusterSize>
1

> <ConfClashScore>
0 

> <ConfOneFourInteractionScore>
-0.949684 

> <ConfScore>
0.438672 

> <ConfScorePBest>
0.00225161 

> <ConfTolerance>
0.89167 

> <RosettaParamsInstructions>
M  ROOT 3
M  POLY_N_BB 3
M  POLY_CA_BB 4
M  POLY_C_BB 2
M  POLY_O_BB 5
M  POLY_IGNORE 9 10 11 12 13 14 15 16 17 18 
M  POLY_UPPER 6
M  POLY_LOWER 8
M  POLY_CHG 0
M  POLY_PROPERTIES ALPHA_AA L_AA PROTEIN AROMATIC POLYMER 
M  END

$$$$



 32 32  0  0  0  0  0  0  0  0999 V2000
    0.5862    2.8183    0.6257 H   0  0  0  1  0  0  0  0  0  0  0  0
   -0.1080    0.8698    0.2510 C   0  0  0  1  0  0  0  0  0  0  0  0
   -0.6436    2.9718   -1.0091 N   0  0  0  1  0  0  0  0  0  0  0  0
   -0.3272    2.3795    0.2820 C   0  0  0  1  0  0  0  0  0  0  0  0
   -0.4101    0.1588    1.2137 O   0  0  0  1  0  0  0  0  0  0  0  0
    0.4249    0.3837   -0.8735 N   0  0  0  1  0  0  0  0  0  0  0  0
   -0.0293    3.6342   -1.3889 H   0  0  0  1  0  0  0  0  0  0  0  0
   -1.7439    2.6435   -1.6955 C   0  0  0  1  0  0  0  0  0  0  0  0
    0.6588   -1.0390   -1.0712 C   0  0  0  1  0  0  0  0  0  0  0  0
   -2.0387    3.3996   -2.9922 C   0  0  0  1  0  0  0  0  0  0  0  0
   -2.5291    1.7747   -1.3490 O   0  0  0  1  0  0  0  0  0  0  0  0
    0.6667    1.0068   -1.5902 H   0  0  0  1  0  0  0  0  0  0  0  0
   -0.1397   -1.5971   -0.6288 H   0  0  0  1  0  0  0  0  0  0  0  0
    1.5845   -1.3153   -0.6111 H   0  0  0  1  0  0  0  0  0  0  0  0
    0.7037   -1.2506   -2.1191 H   0  0  0  1  0  0  0  0  0  0  0  0
   -1.1193    3.6272   -3.4899 H   0  0  0  1  0  0  0  0  0  0  0  0
   -2.5555    4.3086   -2.7651 H   0  0  0  1  0  0  0  0  0  0  0  0
   -2.6476    2.7920   -3.6285 H   0  0  0  1  0  0  0  0  0  0  0  0
   -3.8843    7.6784    0.4533 F   0  0  0  1  0  0  0  0  0  0  0  0
   -3.2892    6.4887    0.6639 C   0  0  0  1  0  0  0  0  0  0  0  0
   -2.0333    6.4356    1.2481 C   0  0  0  1  0  0  0  0  0  0  0  0
   -1.4202    5.2151    1.4594 C   0  0  0  1  0  0  0  0  0  0  0  0
   -2.0637    4.0436    1.0920 C   0  0  0  1  0  0  0  0  0  0  0  0
   -3.3160    4.0963    0.5094 C   0  0  0  1  0  0  0  0  0  0  0  0
   -3.9307    5.3205    0.2975 C   0  0  0  1  0  0  0  0  0  0  0  0
   -1.3968    2.7090    1.3279 C   0  0  0  1  0  0  0  0  0  0  0  0
   -1.5523    7.3143    1.5275 H   0  0  0  1  0  0  0  0  0  0  0  0
   -0.4762    5.1756    1.8941 H   0  0  0  1  0  0  0  0  0  0  0  0
   -3.7969    3.2175    0.2300 H   0  0  0  1  0  0  0  0  0  0  0  0
   -4.8747    5.3600   -0.1371 H   0  0  0  1  0  0  0  0  0  0  0  0
   -0.9357    2.7247    2.2933 H   0  0  0  1  0  0  0  0  0  0  0  0
   -2.1454    1.9449    1.3019 H   0  0  0  1  0  0  0  0  0  0  0  0
  1  4  1  0  0  0  0
  2  4  1  0  0  0  0
  2  5  2  0  0  0  0
  2  6  1  0  0  0  0
  3  4  1  0  0  0  0
  3  7  1  0  0  0  0
  3  8  1  0  0  0  0
  4 26  1  0  0  0  0
  6  9  1  0  0  0  0
  6 12  1  0  0  0  0
  8 10  1  0  0  0  0
  8 11  2  0  0  0  0
  9 13  1  0  0  0  0
  9 14  1  0  0  0  0
  9 15  1  0  0  0  0
 10 16  1  0  0  0  0
 10 17  1  0  0  0  0
 10 18  1  0  0  0  0
 19 20  1  0  0  0  0
 20 21  4  0  0  0  0
 20 25  4  0  0  0  0
 21 22  4  0  0  0  0
 21 27  1  0  0  0  0
 22 23  4  0  0  0  0
 22 28  1  0  0  0  0
 23 24  4  0  0  0  0
 23 26  1  0  0  0  0
 24 25  4  0  0  0  0
 24 29  1  0  0  0  0
 25 30  1  0  0  0  0
 26 31  1  0  0  0  0
 26 32  1  0  0  0  0
M  END
> <BCLConfClusterSize>
1

> <ConfClashScore>
0 

> <ConfOneFourInteractionScore>
-0.93372 

> <ConfScore>
0.441584 

> <ConfScorePBest>
0.00222313 

> <ConfTolerance>
1.62804 

> <RosettaParamsInstructions>
M  ROOT 3
M  POLY_N_BB 3
M  POLY_CA_BB 4
M  POLY_C_BB 2
M  POLY_O_BB 5
M  POLY_IGNORE 9 10 11 12 13 14 15 16 17 18 
M  POLY_UPPER 6
M  POLY_LOWER 8
M  POLY_CHG 0
M  POLY_PROPERTIES ALPHA_AA L_AA PROTEIN AROMATIC POLYMER 
M  END

$$$$



 32 32  0  0  0  0  0  0  0  0999 V2000
   -1.3168    2.1973   -0.7033 H   0  0  0  1  0  0  0  0  0  0  0  0
    0.5456    3.1050   -0.2437 C   0  0  0  1  0  0  0  0  0  0  0  0
   -0.1639    0.8332    0.3442 N   0  0  0  1  0  0  0  0  0  0  0  0
   -0.6320    2.1962    0.1189 C   0  0  0  1  0  0  0  0  0  0  0  0
    0.3066    4.1202   -0.8963 O   0  0  0  1  0  0  0  0  0  0  0  0
    1.7452    2.7155    0.1831 N   0  0  0  1  0  0  0  0  0  0  0  0
   -0.2388    0.4727    1.2524 H   0  0  0  1  0  0  0  0  0  0  0  0
    0.3614    0.0358   -0.5984 C   0  0  0  1  0  0  0  0  0  0  0  0
    3.0225    3.3725   -0.0509 C   0  0  0  1  0  0  0  0  0  0  0  0
    0.4715    0.5778   -2.0102 C   0  0  0  1  0  0  0  0  0  0  0  0
    0.7433   -1.1019   -0.3277 O   0  0  0  1  0  0  0  0  0  0  0  0
    1.7709    1.8930    0.7152 H   0  0  0  1  0  0  0  0  0  0  0  0
    2.8537    4.3883   -0.3417 H   0  0  0  1  0  0  0  0  0  0  0  0
    3.5487    2.8615   -0.8299 H   0  0  0  1  0  0  0  0  0  0  0  0
    3.6042    3.3508    0.8469 H   0  0  0  1  0  0  0  0  0  0  0  0
    0.5468   -0.2363   -2.7005 H   0  0  0  1  0  0  0  0  0  0  0  0
    1.3432    1.1934   -2.0887 H   0  0  0  1  0  0  0  0  0  0  0  0
   -0.3977    1.1588   -2.2378 H   0  0  0  1  0  0  0  0  0  0  0  0
   -3.8810    7.6803    0.4549 F   0  0  0  1  0  0  0  0  0  0  0  0
   -3.2894    6.4885    0.6638 C   0  0  0  1  0  0  0  0  0  0  0  0
   -2.0335    6.4309    1.2477 C   0  0  0  1  0  0  0  0  0  0  0  0
   -1.4240    5.2083    1.4572 C   0  0  0  1  0  0  0  0  0  0  0  0
   -2.0710    4.0392    1.0883 C   0  0  0  1  0  0  0  0  0  0  0  0
   -3.3233    4.0964    0.5060 C   0  0  0  1  0  0  0  0  0  0  0  0
   -3.9344    5.3227    0.2959 C   0  0  0  1  0  0  0  0  0  0  0  0
   -1.3626    2.7301    1.3451 C   0  0  0  1  0  0  0  0  0  0  0  0
   -1.5498    7.3078    1.5282 H   0  0  0  1  0  0  0  0  0  0  0  0
   -0.4801    5.1654    1.8917 H   0  0  0  1  0  0  0  0  0  0  0  0
   -3.8069    3.2194    0.2255 H   0  0  0  1  0  0  0  0  0  0  0  0
   -4.8783    5.3657   -0.1385 H   0  0  0  1  0  0  0  0  0  0  0  0
   -0.6496    2.8769    2.1293 H   0  0  0  1  0  0  0  0  0  0  0  0
   -2.0873    2.0053    1.6522 H   0  0  0  1  0  0  0  0  0  0  0  0
  1  4  1  0  0  0  0
  2  4  1  0  0  0  0
  2  5  2  0  0  0  0
  2  6  1  0  0  0  0
  3  4  1  0  0  0  0
  3  7  1  0  0  0  0
  3  8  1  0  0  0  0
  4 26  1  0  0  0  0
  6  9  1  0  0  0  0
  6 12  1  0  0  0  0
  8 10  1  0  0  0  0
  8 11  2  0  0  0  0
  9 13  1  0  0  0  0
  9 14  1  0  0  0  0
  9 15  1  0  0  0  0
 10 16  1  0  0  0  0
 10 17  1  0  0  0  0
 10 18  1  0  0  0  0
 19 20  1  0  0  0  0
 20 21  4  0  0  0  0
 20 25  4  0  0  0  0
 21 22  4  0  0  0  0
 21 27  1  0  0  0  0
 22 23  4  0  0  0  0
 22 28  1  0  0  0  0
 23 24  4  0  0  0  0
 23 26  1  0  0  0  0
 24 25  4  0  0  0  0
 24 29  1  0  0  0  0
 25 30  1  0  0  0  0
 26 31  1  0  0  0  0
 26 32  1  0  0  0  0
M  END
> <BCLConfClusterSize>
1

> <ConfClashScore>
0 

> <ConfOneFourInteractionScore>
-0.960318 

> <ConfScore>
0.44859 

> <ConfScorePBest>
0.00219465 

> <ConfTolerance>
1.32072 

> <RosettaParamsInstructions>
M  ROOT 3
M  POLY_N_BB 3
M  POLY_CA_BB 4
M  POLY_C_BB 2
M  POLY_O_BB 5
M  POLY_IGNORE 9 10 11 12 13 14 15 16 17 18 
M  POLY_UPPER 6
M  POLY_LOWER 8
M  POLY_CHG 0
M  POLY_PROPERTIES ALPHA_AA L_AA PROTEIN AROMATIC POLYMER 
M  END

$$$$



 32 32  0  0  0  0  0  0  0  0999 V2000
   -0.1213    3.3084    2.9403 H   0  0  0  1  0  0  0  0  0  0  0  0
   -1.8694    2.4906    3.7869 C   0  0  0  1  0  0  0  0  0  0  0  0
   -0.0453    1.2547    2.7185 N   0  0  0  1  0  0  0  0  0  0  0  0
   -0.7926    2.5034    2.7255 C   0  0  0  1  0  0  0  0  0  0  0  0
   -2.3423    1.4300    4.1932 O   0  0  0  1  0  0  0  0  0  0  0  0
   -2.2923    3.6691    4.2710 N   0  0  0  1  0  0  0  0  0  0  0  0
   -0.2883    0.5544    3.3595 H   0  0  0  1  0  0  0  0  0  0  0  0
    0.9607    1.0298    1.8684 C   0  0  0  1  0  0  0  0  0  0  0  0
   -3.3137    3.7094    5.3069 C   0  0  0  1  0  0  0  0  0  0  0  0
    1.6666   -0.3133    2.0180 C   0  0  0  1  0  0  0  0  0  0  0  0
    1.3094    1.8425    1.0131 O   0  0  0  1  0  0  0  0  0  0  0  0
   -1.9125    4.5041    3.9261 H   0  0  0  1  0  0  0  0  0  0  0  0
   -4.1533    3.1194    5.0038 H   0  0  0  1  0  0  0  0  0  0  0  0
   -3.6259    4.7212    5.4605 H   0  0  0  1  0  0  0  0  0  0  0  0
   -2.9128    3.3171    6.2181 H   0  0  0  1  0  0  0  0  0  0  0  0
    2.6885   -0.1513    2.2907 H   0  0  0  1  0  0  0  0  0  0  0  0
    1.6251   -0.8431    1.0893 H   0  0  0  1  0  0  0  0  0  0  0  0
    1.1815   -0.8881    2.7791 H   0  0  0  1  0  0  0  0  0  0  0  0
   -3.8810    7.6803    0.4549 F   0  0  0  1  0  0  0  0  0  0  0  0
   -3.2894    6.4885    0.6638 C   0  0  0  1  0  0  0  0  0  0  0  0
   -2.0335    6.4309    1.2477 C   0  0  0  1  0  0  0  0  0  0  0  0
   -1.4240    5.2083    1.4572 C   0  0  0  1  0  0  0  0  0  0  0  0
   -2.0710    4.0392    1.0883 C   0  0  0  1  0  0  0  0  0  0  0  0
   -3.3233    4.0964    0.5060 C   0  0  0  1  0  0  0  0  0  0  0  0
   -3.9344    5.3227    0.2959 C   0  0  0  1  0  0  0  0  0  0  0  0
   -1.3626    2.7301    1.3451 C   0  0  0  1  0  0  0  0  0  0  0  0
   -1.5498    7.3078    1.5282 H   0  0  0  1  0  0  0  0  0  0  0  0
   -0.4801    5.1654    1.8917 H   0  0  0  1  0  0  0  0  0  0  0  0
   -3.8069    3.2194    0.2255 H   0  0  0  1  0  0  0  0  0  0  0  0
   -4.8783    5.3657   -0.1385 H   0  0  0  1  0  0  0  0  0  0  0  0
   -2.0634    1.9442    1.1550 H   0  0  0  1  0  0  0  0  0  0  0  0
   -0.5527    2.6625    0.6492 H   0  0  0  1  0  0  0  0  0  0  0  0
  1  4  1  0  0  0  0
  2  4  1  0  0  0  0
  2  5  2  0  0  0  0
  2  6  1  0  0  0  0
  3  4  1  0  0  0  0
  3  7  1  0  0  0  0
  3  8  1  0  0  0  0
  4 26  1  0  0  0  0
  6  9  1  0  0  0  0
  6 12  1  0  0  0  0
  8 10  1  0  0  0  0
  8 11  2  0  0  0  0
  9 13  1  0  0  0  0
  9 14  1  0  0  0  0
  9 15  1  0  0  0  0
 10 16  1  0  0  0  0
 10 17  1  0  0  0  0
 10 18  1  0  0  0  0
 19 20  1  0  0  0  0
 20 21  4  0  0  0  0
 20 25  4  0  0  0  0
 21 22  4  0  0  0  0
 21 27  1  0  0  0  0
 22 23  4  0  0  0  0
 22 28  1  0  0  0  0
 23 24  4  0  0  0  0
 23 26  1  0  0  0  0
 24 25  4  0  0  0  0
 24 29  1  0  0  0  0
 25 30  1  0  0  0  0
 26 31  1  0  0  0  0
 26 32  1  0  0  0  0
M  END
> <BCLConfClusterSize>
1

> <ConfClashScore>
0 

> <ConfOneFourInteractionScore>
-0.987836 

> <ConfScore>
0.456944 

> <ConfScorePBest>
0.00216617 

> <ConfTolerance>
1.98115 

> <RosettaParamsInstructions>
M  ROOT 3
M  POLY_N_BB 3
M  POLY_CA_BB 4
M  POLY_C_BB 2
M  POLY_O_BB 5
M  POLY_IGNORE 9 10 11 12 13 14 15 16 17 18 
M  POLY_UPPER 6
M  POLY_LOWER 8
M  POLY_CHG 0
M  POLY_PROPERTIES ALPHA_AA L_AA PROTEIN AROMATIC POLYMER 
M  END

$$$$
