


 35 35  0  0  0  0  0  0  0  0999 V2000
   -2.5651    1.9970    3.1045 H   0  0  0  1  0  0  0  0  0  0  0  0
   -0.7534    0.9337    3.0580 C   0  0  0  1  0  0  0  0  0  0  0  0
   -1.0939    3.2713    3.7962 N   0  0  0  1  0  0  0  0  0  0  0  0
   -1.5360    2.2103    2.9035 C   0  0  0  1  0  0  0  0  0  0  0  0
   -1.2359   -0.1452    2.7553 O   0  0  0  1  0  0  0  0  0  0  0  0
    0.4908    1.0676    3.5440 N   0  0  0  1  0  0  0  0  0  0  0  0
   -0.9216    4.1614    3.4240 H   0  0  0  1  0  0  0  0  0  0  0  0
   -0.9138    3.0731    5.1116 C   0  0  0  1  0  0  0  0  0  0  0  0
    1.4048   -0.0426    3.7676 C   0  0  0  1  0  0  0  0  0  0  0  0
   -0.5979    4.3118    5.9272 C   0  0  0  1  0  0  0  0  0  0  0  0
   -0.9957    1.9668    5.6386 O   0  0  0  1  0  0  0  0  0  0  0  0
    0.8035    1.9704    3.7621 H   0  0  0  1  0  0  0  0  0  0  0  0
    1.2729   -0.7744    2.9981 H   0  0  0  1  0  0  0  0  0  0  0  0
    1.2009   -0.4859    4.7198 H   0  0  0  1  0  0  0  0  0  0  0  0
    2.4127    0.3163    3.7491 H   0  0  0  1  0  0  0  0  0  0  0  0
   -1.5032    4.8430    6.1351 H   0  0  0  1  0  0  0  0  0  0  0  0
    0.0665    4.9426    5.3745 H   0  0  0  1  0  0  0  0  0  0  0  0
   -0.1342    4.0238    6.8475 H   0  0  0  1  0  0  0  0  0  0  0  0
   -0.8442    7.8450    2.2015 F   0  0  0  1  0  0  0  0  0  0  0  0
   -1.6027    7.7170    1.1114 C   0  0  0  1  0  0  0  0  0  0  0  0
   -2.4767    8.7215    1.1913 F   0  0  0  1  0  0  0  0  0  0  0  0
   -0.8445    7.9882    0.0692 F   0  0  0  1  0  0  0  0  0  0  0  0
   -2.2895    6.3748    1.0209 C   0  0  0  1  0  0  0  0  0  0  0  0
   -1.5933    5.1946    1.2594 C   0  0  0  1  0  0  0  0  0  0  0  0
   -2.2204    3.9605    1.1728 C   0  0  0  1  0  0  0  0  0  0  0  0
   -3.5559    3.8866    0.8502 C   0  0  0  1  0  0  0  0  0  0  0  0
   -4.2749    5.0497    0.6175 C   0  0  0  1  0  0  0  0  0  0  0  0
   -3.6406    6.2788    0.6959 C   0  0  0  1  0  0  0  0  0  0  0  0
   -1.4362    2.6960    1.4328 C   0  0  0  1  0  0  0  0  0  0  0  0
   -0.5842    5.2383    1.5073 H   0  0  0  1  0  0  0  0  0  0  0  0
   -4.0252    2.9611    0.7810 H   0  0  0  1  0  0  0  0  0  0  0  0
   -5.2872    4.9993    0.3848 H   0  0  0  1  0  0  0  0  0  0  0  0
   -4.1832    7.1461    0.5086 H   0  0  0  1  0  0  0  0  0  0  0  0
   -1.8117    1.9248    0.7932 H   0  0  0  1  0  0  0  0  0  0  0  0
   -0.4073    2.8803    1.2041 H   0  0  0  1  0  0  0  0  0  0  0  0
  1  4  1  0  0  0  0
  2  4  1  0  0  0  0
  2  5  2  0  0  0  0
  2  6  1  0  0  0  0
  3  4  1  0  0  0  0
  3  7  1  0  0  0  0
  3  8  1  0  0  0  0
  4 29  1  0  0  0  0
  6  9  1  0  0  0  0
  6 12  1  0  0  0  0
  8 10  1  0  0  0  0
  8 11  2  0  0  0  0
  9 13  1  0  0  0  0
  9 14  1  0  0  0  0
  9 15  1  0  0  0  0
 10 16  1  0  0  0  0
 10 17  1  0  0  0  0
 10 18  1  0  0  0  0
 19 20  1  0  0  0  0
 20 21  1  0  0  0  0
 20 22  1  0  0  0  0
 20 23  1  0  0  0  0
 23 24  4  0  0  0  0
 23 28  4  0  0  0  0
 24 25  4  0  0  0  0
 24 30  1  0  0  0  0
 25 26  4  0  0  0  0
 25 29  1  0  0  0  0
 26 27  4  0  0  0  0
 26 31  1  0  0  0  0
 27 28  4  0  0  0  0
 27 32  1  0  0  0  0
 28 33  1  0  0  0  0
 29 34  1  0  0  0  0
 29 35  1  0  0  0  0
M  END
> <BCLConfClusterSize>
1

> <ConfClashScore>
0 

> <ConfOneFourInteractionScore>
-0.960318 

> <ConfScore>
-0.237469 

> <ConfScorePBest>
0.00783383 

> <ConfTolerance>
0.266497 

> <RosettaParamsInstructions>
M  ROOT 3
M  POLY_N_BB 3
M  POLY_CA_BB 4
M  POLY_C_BB 2
M  POLY_O_BB 5
M  POLY_IGNORE 9 10 11 12 13 14 15 16 17 18 
M  POLY_UPPER 6
M  POLY_LOWER 8
M  POLY_CHG 0
M  POLY_PROPERTIES ALPHA_AA L_AA PROTEIN AROMATIC POLYMER 
M  END

$$$$



 35 35  0  0  0  0  0  0  0  0999 V2000
    0.1568    3.2136   -0.0837 H   0  0  0  1  0  0  0  0  0  0  0  0
    0.0986    1.0916    0.1230 C   0  0  0  1  0  0  0  0  0  0  0  0
   -1.4986    2.4833   -1.1158 N   0  0  0  1  0  0  0  0  0  0  0  0
   -0.5866    2.4508    0.0178 C   0  0  0  1  0  0  0  0  0  0  0  0
    1.1934    0.9691    0.6706 O   0  0  0  1  0  0  0  0  0  0  0  0
   -0.5687    0.0589   -0.4159 N   0  0  0  1  0  0  0  0  0  0  0  0
   -2.4638    2.4623   -0.9470 H   0  0  0  1  0  0  0  0  0  0  0  0
   -1.0641    2.5411   -2.3839 C   0  0  0  1  0  0  0  0  0  0  0  0
   -0.0308   -1.2933   -0.4272 C   0  0  0  1  0  0  0  0  0  0  0  0
   -2.1358    2.5894   -3.4803 C   0  0  0  1  0  0  0  0  0  0  0  0
    0.1232    2.6336   -2.6842 O   0  0  0  1  0  0  0  0  0  0  0  0
   -1.4487    0.2212   -0.8155 H   0  0  0  1  0  0  0  0  0  0  0  0
    0.7035   -1.3921    0.3448 H   0  0  0  1  0  0  0  0  0  0  0  0
    0.4218   -1.4889   -1.3768 H   0  0  0  1  0  0  0  0  0  0  0  0
   -0.8223   -1.9932   -0.2579 H   0  0  0  1  0  0  0  0  0  0  0  0
   -2.6764    3.5102   -3.4110 H   0  0  0  1  0  0  0  0  0  0  0  0
   -2.8114    1.7692   -3.3547 H   0  0  0  1  0  0  0  0  0  0  0  0
   -1.6672    2.5225   -4.4399 H   0  0  0  1  0  0  0  0  0  0  0  0
   -0.5423    7.6531    1.8996 F   0  0  0  1  0  0  0  0  0  0  0  0
   -1.6176    7.7073    1.1117 C   0  0  0  1  0  0  0  0  0  0  0  0
   -2.4260    8.6283    1.6385 F   0  0  0  1  0  0  0  0  0  0  0  0
   -1.2144    8.1662   -0.0738 F   0  0  0  1  0  0  0  0  0  0  0  0
   -2.3007    6.3633    1.0198 C   0  0  0  1  0  0  0  0  0  0  0  0
   -1.5674    5.2028    1.1811 C   0  0  0  1  0  0  0  0  0  0  0  0
   -2.1952    3.9695    1.1020 C   0  0  0  1  0  0  0  0  0  0  0  0
   -3.5536    3.9001    0.8565 C   0  0  0  1  0  0  0  0  0  0  0  0
   -4.2891    5.0639    0.6946 C   0  0  0  1  0  0  0  0  0  0  0  0
   -3.6630    6.2935    0.7735 C   0  0  0  1  0  0  0  0  0  0  0  0
   -1.3949    2.7015    1.2841 C   0  0  0  1  0  0  0  0  0  0  0  0
   -0.5446    5.2550    1.3619 H   0  0  0  1  0  0  0  0  0  0  0  0
   -4.0239    2.9748    0.7931 H   0  0  0  1  0  0  0  0  0  0  0  0
   -5.3119    5.0117    0.5139 H   0  0  0  1  0  0  0  0  0  0  0  0
   -4.2141    7.1665    0.6481 H   0  0  0  1  0  0  0  0  0  0  0  0
   -0.7335    2.8095    2.1183 H   0  0  0  1  0  0  0  0  0  0  0  0
   -2.0571    1.8792    1.4576 H   0  0  0  1  0  0  0  0  0  0  0  0
  1  4  1  0  0  0  0
  2  4  1  0  0  0  0
  2  5  2  0  0  0  0
  2  6  1  0  0  0  0
  3  4  1  0  0  0  0
  3  7  1  0  0  0  0
  3  8  1  0  0  0  0
  4 29  1  0  0  0  0
  6  9  1  0  0  0  0
  6 12  1  0  0  0  0
  8 10  1  0  0  0  0
  8 11  2  0  0  0  0
  9 13  1  0  0  0  0
  9 14  1  0  0  0  0
  9 15  1  0  0  0  0
 10 16  1  0  0  0  0
 10 17  1  0  0  0  0
 10 18  1  0  0  0  0
 19 20  1  0  0  0  0
 20 21  1  0  0  0  0
 20 22  1  0  0  0  0
 20 23  1  0  0  0  0
 23 24  4  0  0  0  0
 23 28  4  0  0  0  0
 24 25  4  0  0  0  0
 24 30  1  0  0  0  0
 25 26  4  0  0  0  0
 25 29  1  0  0  0  0
 26 27  4  0  0  0  0
 26 31  1  0  0  0  0
 27 28  4  0  0  0  0
 27 32  1  0  0  0  0
 28 33  1  0  0  0  0
 29 34  1  0  0  0  0
 29 35  1  0  0  0  0
M  END
> <BCLConfClusterSize>
1

> <ConfClashScore>
0 

> <ConfOneFourInteractionScore>
-0.94165 

> <ConfScore>
-0.225259 

> <ConfScorePBest>
0.00780535 

> <ConfTolerance>
0.271297 

> <RosettaParamsInstructions>
M  ROOT 3
M  POLY_N_BB 3
M  POLY_CA_BB 4
M  POLY_C_BB 2
M  POLY_O_BB 5
M  POLY_IGNORE 9 10 11 12 13 14 15 16 17 18 
M  POLY_UPPER 6
M  POLY_LOWER 8
M  POLY_CHG 0
M  POLY_PROPERTIES ALPHA_AA L_AA PROTEIN AROMATIC POLYMER 
M  END

$$$$



 35 35  0  0  0  0  0  0  0  0999 V2000
   -0.0127    2.7707   -0.1781 H   0  0  0  1  0  0  0  0  0  0  0  0
    0.0020    0.8329    0.7053 C   0  0  0  1  0  0  0  0  0  0  0  0
   -1.6813    1.6874   -0.8014 N   0  0  0  1  0  0  0  0  0  0  0  0
   -0.7227    2.0773    0.2218 C   0  0  0  1  0  0  0  0  0  0  0  0
    1.1682    0.8525    1.0548 O   0  0  0  1  0  0  0  0  0  0  0  0
   -0.6581   -0.3253    0.7506 N   0  0  0  1  0  0  0  0  0  0  0  0
   -2.6386    1.7674   -0.6077 H   0  0  0  1  0  0  0  0  0  0  0  0
   -1.3015    1.2242   -1.9957 C   0  0  0  1  0  0  0  0  0  0  0  0
   -0.0921   -1.5900    1.1958 C   0  0  0  1  0  0  0  0  0  0  0  0
   -2.4200    0.8204   -2.9295 C   0  0  0  1  0  0  0  0  0  0  0  0
   -0.1226    1.1255   -2.3317 O   0  0  0  1  0  0  0  0  0  0  0  0
   -1.5947   -0.3246    0.4623 H   0  0  0  1  0  0  0  0  0  0  0  0
    0.1286   -1.5341    2.2413 H   0  0  0  1  0  0  0  0  0  0  0  0
    0.8074   -1.7891    0.6517 H   0  0  0  1  0  0  0  0  0  0  0  0
   -0.7964   -2.3765    1.0217 H   0  0  0  1  0  0  0  0  0  0  0  0
   -2.9295   -0.0312   -2.5293 H   0  0  0  1  0  0  0  0  0  0  0  0
   -2.0128    0.5742   -3.8879 H   0  0  0  1  0  0  0  0  0  0  0  0
   -3.1093    1.6323   -3.0322 H   0  0  0  1  0  0  0  0  0  0  0  0
   -0.7825    7.7833    2.1507 F   0  0  0  1  0  0  0  0  0  0  0  0
   -1.6201    7.7052    1.1151 C   0  0  0  1  0  0  0  0  0  0  0  0
   -2.4853    8.7103    1.2589 F   0  0  0  1  0  0  0  0  0  0  0  0
   -0.8985    7.9857    0.0292 F   0  0  0  1  0  0  0  0  0  0  0  0
   -2.3041    6.3615    1.0242 C   0  0  0  1  0  0  0  0  0  0  0  0
   -1.5829    5.1998    1.2520 C   0  0  0  1  0  0  0  0  0  0  0  0
   -2.2074    3.9700    1.1636 C   0  0  0  1  0  0  0  0  0  0  0  0
   -3.5563    3.8986    0.8523 C   0  0  0  1  0  0  0  0  0  0  0  0
   -4.2755    5.0569    0.6251 C   0  0  0  1  0  0  0  0  0  0  0  0
   -3.6489    6.2902    0.7138 C   0  0  0  1  0  0  0  0  0  0  0  0
   -1.4202    2.7039    1.4062 C   0  0  0  1  0  0  0  0  0  0  0  0
   -0.5719    5.2537    1.4896 H   0  0  0  1  0  0  0  0  0  0  0  0
   -4.0273    2.9735    0.7897 H   0  0  0  1  0  0  0  0  0  0  0  0
   -5.2866    5.0031    0.3875 H   0  0  0  1  0  0  0  0  0  0  0  0
   -4.1910    7.1619    0.5468 H   0  0  0  1  0  0  0  0  0  0  0  0
   -0.6715    2.9276    2.1371 H   0  0  0  1  0  0  0  0  0  0  0  0
   -2.0981    1.9760    1.8004 H   0  0  0  1  0  0  0  0  0  0  0  0
  1  4  1  0  0  0  0
  2  4  1  0  0  0  0
  2  5  2  0  0  0  0
  2  6  1  0  0  0  0
  3  4  1  0  0  0  0
  3  7  1  0  0  0  0
  3  8  1  0  0  0  0
  4 29  1  0  0  0  0
  6  9  1  0  0  0  0
  6 12  1  0  0  0  0
  8 10  1  0  0  0  0
  8 11  2  0  0  0  0
  9 13  1  0  0  0  0
  9 14  1  0  0  0  0
  9 15  1  0  0  0  0
 10 16  1  0  0  0  0
 10 17  1  0  0  0  0
 10 18  1  0  0  0  0
 19 20  1  0  0  0  0
 20 21  1  0  0  0  0
 20 22  1  0  0  0  0
 20 23  1  0  0  0  0
 23 24  4  0  0  0  0
 23 28  4  0  0  0  0
 24 25  4  0  0  0  0
 24 30  1  0  0  0  0
 25 26  4  0  0  0  0
 25 29  1  0  0  0  0
 26 27  4  0  0  0  0
 26 31  1  0  0  0  0
 27 28  4  0  0  0  0
 27 32  1  0  0  0  0
 28 33  1  0  0  0  0
 29 34  1  0  0  0  0
 29 35  1  0  0  0  0
M  END
> <BCLConfClusterSize>
1

> <ConfClashScore>
0 

> <ConfOneFourInteractionScore>
-0.960318 

> <ConfScore>
-0.213905 

> <ConfScorePBest>
0.00777687 

> <ConfTolerance>
0.22842 

> <RosettaParamsInstructions>
M  ROOT 3
M  POLY_N_BB 3
M  POLY_CA_BB 4
M  POLY_C_BB 2
M  POLY_O_BB 5
M  POLY_IGNORE 9 10 11 12 13 14 15 16 17 18 
M  POLY_UPPER 6
M  POLY_LOWER 8
M  POLY_CHG 0
M  POLY_PROPERTIES ALPHA_AA L_AA PROTEIN AROMATIC POLYMER 
M  END

$$$$



 35 35  0  0  0  0  0  0  0  0999 V2000
   -0.2818    3.1293   -0.6541 H   0  0  0  1  0  0  0  0  0  0  0  0
    0.1261    1.1111   -0.1167 C   0  0  0  1  0  0  0  0  0  0  0  0
   -1.8891    1.9148   -1.1603 N   0  0  0  1  0  0  0  0  0  0  0  0
   -0.8228    2.3002   -0.2481 C   0  0  0  1  0  0  0  0  0  0  0  0
    1.3461    1.2690   -0.1327 O   0  0  0  1  0  0  0  0  0  0  0  0
   -0.4708   -0.0904   -0.0680 N   0  0  0  1  0  0  0  0  0  0  0  0
   -2.8193    2.0008   -0.8639 H   0  0  0  1  0  0  0  0  0  0  0  0
   -1.6417    1.4434   -2.4000 C   0  0  0  1  0  0  0  0  0  0  0  0
    0.2750   -1.3343   -0.1882 C   0  0  0  1  0  0  0  0  0  0  0  0
   -2.8229    1.0816   -3.2717 C   0  0  0  1  0  0  0  0  0  0  0  0
   -0.4898    1.3108   -2.8114 O   0  0  0  1  0  0  0  0  0  0  0  0
   -1.4424   -0.1312    0.0527 H   0  0  0  1  0  0  0  0  0  0  0  0
    0.9829   -1.4050    0.6111 H   0  0  0  1  0  0  0  0  0  0  0  0
    0.7921   -1.3508   -1.1248 H   0  0  0  1  0  0  0  0  0  0  0  0
   -0.4017   -2.1617   -0.1392 H   0  0  0  1  0  0  0  0  0  0  0  0
   -3.2638    0.1734   -2.9169 H   0  0  0  1  0  0  0  0  0  0  0  0
   -2.4933    0.9473   -4.2808 H   0  0  0  1  0  0  0  0  0  0  0  0
   -3.5476    1.8679   -3.2343 H   0  0  0  1  0  0  0  0  0  0  0  0
   -0.3430    7.6086    1.4902 F   0  0  0  1  0  0  0  0  0  0  0  0
   -1.6185    7.7080    1.1119 C   0  0  0  1  0  0  0  0  0  0  0  0
   -2.2047    8.5247    1.9886 F   0  0  0  1  0  0  0  0  0  0  0  0
   -1.6127    8.3543   -0.0547 F   0  0  0  1  0  0  0  0  0  0  0  0
   -2.3047    6.3606    1.0253 C   0  0  0  1  0  0  0  0  0  0  0  0
   -1.5589    5.1956    1.1168 C   0  0  0  1  0  0  0  0  0  0  0  0
   -2.1845    3.9661    1.0325 C   0  0  0  1  0  0  0  0  0  0  0  0
   -3.5584    3.8978    0.8618 C   0  0  0  1  0  0  0  0  0  0  0  0
   -4.3021    5.0592    0.7706 C   0  0  0  1  0  0  0  0  0  0  0  0
   -3.6747    6.2923    0.8552 C   0  0  0  1  0  0  0  0  0  0  0  0
   -1.3710    2.6968    1.1263 C   0  0  0  1  0  0  0  0  0  0  0  0
   -0.5286    5.2469    1.2488 H   0  0  0  1  0  0  0  0  0  0  0  0
   -4.0296    2.9726    0.8024 H   0  0  0  1  0  0  0  0  0  0  0  0
   -5.3324    5.0079    0.6386 H   0  0  0  1  0  0  0  0  0  0  0  0
   -4.2348    7.1662    0.7906 H   0  0  0  1  0  0  0  0  0  0  0  0
   -0.5533    2.8530    1.7984 H   0  0  0  1  0  0  0  0  0  0  0  0
   -1.9924    1.9085    1.4969 H   0  0  0  1  0  0  0  0  0  0  0  0
  1  4  1  0  0  0  0
  2  4  1  0  0  0  0
  2  5  2  0  0  0  0
  2  6  1  0  0  0  0
  3  4  1  0  0  0  0
  3  7  1  0  0  0  0
  3  8  1  0  0  0  0
  4 29  1  0  0  0  0
  6  9  1  0  0  0  0
  6 12  1  0  0  0  0
  8 10  1  0  0  0  0
  8 11  2  0  0  0  0
  9 13  1  0  0  0  0
  9 14  1  0  0  0  0
  9 15  1  0  0  0  0
 10 16  1  0  0  0  0
 10 17  1  0  0  0  0
 10 18  1  0  0  0  0
 19 20  1  0  0  0  0
 20 21  1  0  0  0  0
 20 22  1  0  0  0  0
 20 23  1  0  0  0  0
 23 24  4  0  0  0  0
 23 28  4  0  0  0  0
 24 25  4  0  0  0  0
 24 30  1  0  0  0  0
 25 26  4  0  0  0  0
 25 29  1  0  0  0  0
 26 27  4  0  0  0  0
 26 31  1  0  0  0  0
 27 28  4  0  0  0  0
 27 32  1  0  0  0  0
 28 33  1  0  0  0  0
 29 34  1  0  0  0  0
 29 35  1  0  0  0  0
M  END
> <BCLConfClusterSize>
1

> <ConfClashScore>
0 

> <ConfOneFourInteractionScore>
-0.960318 

> <ConfScore>
-0.203895 

> <ConfScorePBest>
0.00774839 

> <ConfTolerance>
0.24022 

> <RosettaParamsInstructions>
M  ROOT 3
M  POLY_N_BB 3
M  POLY_CA_BB 4
M  POLY_C_BB 2
M  POLY_O_BB 5
M  POLY_IGNORE 9 10 11 12 13 14 15 16 17 18 
M  POLY_UPPER 6
M  POLY_LOWER 8
M  POLY_CHG 0
M  POLY_PROPERTIES ALPHA_AA L_AA PROTEIN AROMATIC POLYMER 
M  END

$$$$



 35 35  0  0  0  0  0  0  0  0999 V2000
   -2.6490    2.2883    3.0606 H   0  0  0  1  0  0  0  0  0  0  0  0
   -1.1119    0.8594    3.0772 C   0  0  0  1  0  0  0  0  0  0  0  0
   -0.9694    3.2811    3.7134 N   0  0  0  1  0  0  0  0  0  0  0  0
   -1.5980    2.2792    2.8599 C   0  0  0  1  0  0  0  0  0  0  0  0
    0.0113    0.6391    3.5282 O   0  0  0  1  0  0  0  0  0  0  0  0
   -1.9428   -0.1472    2.7631 N   0  0  0  1  0  0  0  0  0  0  0  0
    0.0030    3.3953    3.6715 H   0  0  0  1  0  0  0  0  0  0  0  0
   -1.6722    4.0473    4.5491 C   0  0  0  1  0  0  0  0  0  0  0  0
   -1.5936   -1.5593    2.8040 C   0  0  0  1  0  0  0  0  0  0  0  0
   -0.8703    5.0511    5.3545 C   0  0  0  1  0  0  0  0  0  0  0  0
   -2.8927    3.9597    4.6720 O   0  0  0  1  0  0  0  0  0  0  0  0
   -2.8531    0.0866    2.4854 H   0  0  0  1  0  0  0  0  0  0  0  0
   -0.8834   -1.7291    3.5861 H   0  0  0  1  0  0  0  0  0  0  0  0
   -1.1670   -1.8483    1.8663 H   0  0  0  1  0  0  0  0  0  0  0  0
   -2.4737   -2.1389    2.9897 H   0  0  0  1  0  0  0  0  0  0  0  0
   -0.3540    5.7116    4.6897 H   0  0  0  1  0  0  0  0  0  0  0  0
   -0.1603    4.5328    5.9646 H   0  0  0  1  0  0  0  0  0  0  0  0
   -1.5308    5.6172    5.9776 H   0  0  0  1  0  0  0  0  0  0  0  0
   -0.7552    7.7709    2.1287 F   0  0  0  1  0  0  0  0  0  0  0  0
   -1.6201    7.7051    1.1150 C   0  0  0  1  0  0  0  0  0  0  0  0
   -2.4827    8.7065    1.2954 F   0  0  0  1  0  0  0  0  0  0  0  0
   -0.9283    8.0016    0.0140 F   0  0  0  1  0  0  0  0  0  0  0  0
   -2.3041    6.3614    1.0243 C   0  0  0  1  0  0  0  0  0  0  0  0
   -1.5814    5.1996    1.2460 C   0  0  0  1  0  0  0  0  0  0  0  0
   -2.2061    3.9699    1.1577 C   0  0  0  1  0  0  0  0  0  0  0  0
   -3.5565    3.8986    0.8527 C   0  0  0  1  0  0  0  0  0  0  0  0
   -4.2769    5.0572    0.6316 C   0  0  0  1  0  0  0  0  0  0  0  0
   -3.6505    6.2906    0.7201 C   0  0  0  1  0  0  0  0  0  0  0  0
   -1.4174    2.7035    1.3936 C   0  0  0  1  0  0  0  0  0  0  0  0
   -0.5692    5.2531    1.4788 H   0  0  0  1  0  0  0  0  0  0  0  0
   -4.0274    2.9734    0.7902 H   0  0  0  1  0  0  0  0  0  0  0  0
   -5.2891    5.0036    0.3988 H   0  0  0  1  0  0  0  0  0  0  0  0
   -4.1936    7.1626    0.5577 H   0  0  0  1  0  0  0  0  0  0  0  0
   -1.7765    1.9298    0.7477 H   0  0  0  1  0  0  0  0  0  0  0  0
   -0.3812    2.8822    1.1952 H   0  0  0  1  0  0  0  0  0  0  0  0
  1  4  1  0  0  0  0
  2  4  1  0  0  0  0
  2  5  2  0  0  0  0
  2  6  1  0  0  0  0
  3  4  1  0  0  0  0
  3  7  1  0  0  0  0
  3  8  1  0  0  0  0
  4 29  1  0  0  0  0
  6  9  1  0  0  0  0
  6 12  1  0  0  0  0
  8 10  1  0  0  0  0
  8 11  2  0  0  0  0
  9 13  1  0  0  0  0
  9 14  1  0  0  0  0
  9 15  1  0  0  0  0
 10 16  1  0  0  0  0
 10 17  1  0  0  0  0
 10 18  1  0  0  0  0
 19 20  1  0  0  0  0
 20 21  1  0  0  0  0
 20 22  1  0  0  0  0
 20 23  1  0  0  0  0
 23 24  4  0  0  0  0
 23 28  4  0  0  0  0
 24 25  4  0  0  0  0
 24 30  1  0  0  0  0
 25 26  4  0  0  0  0
 25 29  1  0  0  0  0
 26 27  4  0  0  0  0
 26 31  1  0  0  0  0
 27 28  4  0  0  0  0
 27 32  1  0  0  0  0
 28 33  1  0  0  0  0
 29 34  1  0  0  0  0
 29 35  1  0  0  0  0
M  END
> <BCLConfClusterSize>
1

> <ConfClashScore>
0 

> <ConfOneFourInteractionScore>
-0.985807 

> <ConfScore>
-0.201796 

> <ConfScorePBest>
0.00771991 

> <ConfTolerance>
0.295951 

> <RosettaParamsInstructions>
M  ROOT 3
M  POLY_N_BB 3
M  POLY_CA_BB 4
M  POLY_C_BB 2
M  POLY_O_BB 5
M  POLY_IGNORE 9 10 11 12 13 14 15 16 17 18 
M  POLY_UPPER 6
M  POLY_LOWER 8
M  POLY_CHG 0
M  POLY_PROPERTIES ALPHA_AA L_AA PROTEIN AROMATIC POLYMER 
M  END

$$$$



 35 35  0  0  0  0  0  0  0  0999 V2000
   -0.5203    2.7727   -1.0566 H   0  0  0  1  0  0  0  0  0  0  0  0
   -0.4048    0.7849   -0.3627 C   0  0  0  1  0  0  0  0  0  0  0  0
   -2.4241    1.9815   -1.1759 N   0  0  0  1  0  0  0  0  0  0  0  0
   -1.1415    2.1032   -0.4992 C   0  0  0  1  0  0  0  0  0  0  0  0
    0.8124    0.7304   -0.4252 O   0  0  0  1  0  0  0  0  0  0  0  0
   -1.1761   -0.2971   -0.1716 N   0  0  0  1  0  0  0  0  0  0  0  0
   -3.2562    2.0959   -0.6709 H   0  0  0  1  0  0  0  0  0  0  0  0
   -2.4697    1.7142   -2.4841 C   0  0  0  1  0  0  0  0  0  0  0  0
   -0.5746   -1.6206   -0.1049 C   0  0  0  1  0  0  0  0  0  0  0  0
   -3.8565    1.6325   -3.0918 C   0  0  0  1  0  0  0  0  0  0  0  0
   -1.4702    1.5437   -3.1625 O   0  0  0  1  0  0  0  0  0  0  0  0
   -2.1461   -0.1955   -0.0768 H   0  0  0  1  0  0  0  0  0  0  0  0
    0.3285   -1.5742    0.4671 H   0  0  0  1  0  0  0  0  0  0  0  0
   -0.3525   -1.9614   -1.0946 H   0  0  0  1  0  0  0  0  0  0  0  0
   -1.2576   -2.2994    0.3617 H   0  0  0  1  0  0  0  0  0  0  0  0
   -4.3293    2.5906   -3.0328 H   0  0  0  1  0  0  0  0  0  0  0  0
   -4.4393    0.9137   -2.5546 H   0  0  0  1  0  0  0  0  0  0  0  0
   -3.7795    1.3356   -4.1169 H   0  0  0  1  0  0  0  0  0  0  0  0
   -0.5515    7.7848    0.3144 F   0  0  0  1  0  0  0  0  0  0  0  0
   -1.6199    7.7055    1.1095 C   0  0  0  1  0  0  0  0  0  0  0  0
   -1.1898    7.9849    2.3409 F   0  0  0  1  0  0  0  0  0  0  0  0
   -2.4230    8.7103    0.7572 F   0  0  0  1  0  0  0  0  0  0  0  0
   -2.3043    6.3615    1.0267 C   0  0  0  1  0  0  0  0  0  0  0  0
   -1.5490    5.1995    0.9986 C   0  0  0  1  0  0  0  0  0  0  0  0
   -2.1749    3.9700    0.9175 C   0  0  0  1  0  0  0  0  0  0  0  0
   -3.5583    3.8985    0.8696 C   0  0  0  1  0  0  0  0  0  0  0  0
   -4.3117    5.0570    0.8976 C   0  0  0  1  0  0  0  0  0  0  0  0
   -3.6838    6.2901    0.9790 C   0  0  0  1  0  0  0  0  0  0  0  0
   -1.3514    2.7042    0.8810 C   0  0  0  1  0  0  0  0  0  0  0  0
   -0.5111    5.2530    1.0386 H   0  0  0  1  0  0  0  0  0  0  0  0
   -4.0295    2.9731    0.8126 H   0  0  0  1  0  0  0  0  0  0  0  0
   -5.3496    5.0035    0.8576 H   0  0  0  1  0  0  0  0  0  0  0  0
   -4.2507    7.1616    1.0041 H   0  0  0  1  0  0  0  0  0  0  0  0
   -0.3896    2.9241    1.2950 H   0  0  0  1  0  0  0  0  0  0  0  0
   -1.8430    1.9731    1.4881 H   0  0  0  1  0  0  0  0  0  0  0  0
  1  4  1  0  0  0  0
  2  4  1  0  0  0  0
  2  5  2  0  0  0  0
  2  6  1  0  0  0  0
  3  4  1  0  0  0  0
  3  7  1  0  0  0  0
  3  8  1  0  0  0  0
  4 29  1  0  0  0  0
  6  9  1  0  0  0  0
  6 12  1  0  0  0  0
  8 10  1  0  0  0  0
  8 11  2  0  0  0  0
  9 13  1  0  0  0  0
  9 14  1  0  0  0  0
  9 15  1  0  0  0  0
 10 16  1  0  0  0  0
 10 17  1  0  0  0  0
 10 18  1  0  0  0  0
 19 20  1  0  0  0  0
 20 21  1  0  0  0  0
 20 22  1  0  0  0  0
 20 23  1  0  0  0  0
 23 24  4  0  0  0  0
 23 28  4  0  0  0  0
 24 25  4  0  0  0  0
 24 30  1  0  0  0  0
 25 26  4  0  0  0  0
 25 29  1  0  0  0  0
 26 27  4  0  0  0  0
 26 31  1  0  0  0  0
 27 28  4  0  0  0  0
 27 32  1  0  0  0  0
 28 33  1  0  0  0  0
 29 34  1  0  0  0  0
 29 35  1  0  0  0  0
M  END
> <BCLConfClusterSize>
1

> <ConfClashScore>
0 

> <ConfOneFourInteractionScore>
-0.960318 

> <ConfScore>
-0.19959 

> <ConfScorePBest>
0.00769143 

> <ConfTolerance>
0.286898 

> <RosettaParamsInstructions>
M  ROOT 3
M  POLY_N_BB 3
M  POLY_CA_BB 4
M  POLY_C_BB 2
M  POLY_O_BB 5
M  POLY_IGNORE 9 10 11 12 13 14 15 16 17 18 
M  POLY_UPPER 6
M  POLY_LOWER 8
M  POLY_CHG 0
M  POLY_PROPERTIES ALPHA_AA L_AA PROTEIN AROMATIC POLYMER 
M  END

$$$$



 35 35  0  0  0  0  0  0  0  0999 V2000
   -2.1830    1.9539    3.0999 H   0  0  0  1  0  0  0  0  0  0  0  0
   -0.2455    1.1490    2.8705 C   0  0  0  1  0  0  0  0  0  0  0  0
   -0.7995    3.4225    3.5497 N   0  0  0  1  0  0  0  0  0  0  0  0
   -1.2331    2.2923    2.7419 C   0  0  0  1  0  0  0  0  0  0  0  0
   -0.6034   -0.0122    2.7608 O   0  0  0  1  0  0  0  0  0  0  0  0
    1.0274    1.5020    3.1094 N   0  0  0  1  0  0  0  0  0  0  0  0
   -0.4970    4.2267    3.0785 H   0  0  0  1  0  0  0  0  0  0  0  0
   -0.7827    3.4462    4.8855 C   0  0  0  1  0  0  0  0  0  0  0  0
    2.1232    0.5460    3.0520 C   0  0  0  1  0  0  0  0  0  0  0  0
   -0.2184    4.7050    5.5149 C   0  0  0  1  0  0  0  0  0  0  0  0
   -1.1945    2.5158    5.5772 O   0  0  0  1  0  0  0  0  0  0  0  0
    1.2258    2.4360    3.3302 H   0  0  0  1  0  0  0  0  0  0  0  0
    2.0447   -0.1369    3.8719 H   0  0  0  1  0  0  0  0  0  0  0  0
    3.0552    1.0681    3.1110 H   0  0  0  1  0  0  0  0  0  0  0  0
    2.0752    0.0038    2.1307 H   0  0  0  1  0  0  0  0  0  0  0  0
    0.4380    5.1877    4.8214 H   0  0  0  1  0  0  0  0  0  0  0  0
    0.3248    4.4481    6.4002 H   0  0  0  1  0  0  0  0  0  0  0  0
   -1.0199    5.3675    5.7672 H   0  0  0  1  0  0  0  0  0  0  0  0
   -0.5346    7.6918    1.8936 F   0  0  0  1  0  0  0  0  0  0  0  0
   -1.6216    7.7032    1.1202 C   0  0  0  1  0  0  0  0  0  0  0  0
   -2.4147    8.6685    1.5876 F   0  0  0  1  0  0  0  0  0  0  0  0
   -1.2033    8.1410   -0.0681 F   0  0  0  1  0  0  0  0  0  0  0  0
   -2.3055    6.3596    1.0287 C   0  0  0  1  0  0  0  0  0  0  0  0
   -1.5716    5.1956    1.1956 C   0  0  0  1  0  0  0  0  0  0  0  0
   -2.1965    3.9660    1.1066 C   0  0  0  1  0  0  0  0  0  0  0  0
   -3.5580    3.8969    0.8556 C   0  0  0  1  0  0  0  0  0  0  0  0
   -4.2897    5.0575    0.6891 C   0  0  0  1  0  0  0  0  0  0  0  0
   -3.6631    6.2908    0.7784 C   0  0  0  1  0  0  0  0  0  0  0  0
   -1.3957    2.6975    1.2827 C   0  0  0  1  0  0  0  0  0  0  0  0
   -0.5508    5.2474    1.3879 H   0  0  0  1  0  0  0  0  0  0  0  0
   -4.0288    2.9717    0.7926 H   0  0  0  1  0  0  0  0  0  0  0  0
   -5.3104    5.0056    0.4969 H   0  0  0  1  0  0  0  0  0  0  0  0
   -4.2144    7.1643    0.6571 H   0  0  0  1  0  0  0  0  0  0  0  0
   -1.8933    1.9057    0.7628 H   0  0  0  1  0  0  0  0  0  0  0  0
   -0.4239    2.8468    0.8605 H   0  0  0  1  0  0  0  0  0  0  0  0
  1  4  1  0  0  0  0
  2  4  1  0  0  0  0
  2  5  2  0  0  0  0
  2  6  1  0  0  0  0
  3  4  1  0  0  0  0
  3  7  1  0  0  0  0
  3  8  1  0  0  0  0
  4 29  1  0  0  0  0
  6  9  1  0  0  0  0
  6 12  1  0  0  0  0
  8 10  1  0  0  0  0
  8 11  2  0  0  0  0
  9 13  1  0  0  0  0
  9 14  1  0  0  0  0
  9 15  1  0  0  0  0
 10 16  1  0  0  0  0
 10 17  1  0  0  0  0
 10 18  1  0  0  0  0
 19 20  1  0  0  0  0
 20 21  1  0  0  0  0
 20 22  1  0  0  0  0
 20 23  1  0  0  0  0
 23 24  4  0  0  0  0
 23 28  4  0  0  0  0
 24 25  4  0  0  0  0
 24 30  1  0  0  0  0
 25 26  4  0  0  0  0
 25 29  1  0  0  0  0
 26 27  4  0  0  0  0
 26 31  1  0  0  0  0
 27 28  4  0  0  0  0
 27 32  1  0  0  0  0
 28 33  1  0  0  0  0
 29 34  1  0  0  0  0
 29 35  1  0  0  0  0
M  END
> <BCLConfClusterSize>
1

> <ConfClashScore>
0 

> <ConfOneFourInteractionScore>
-0.94165 

> <ConfScore>
-0.192165 

> <ConfScorePBest>
0.00766295 

> <ConfTolerance>
0.349929 

> <RosettaParamsInstructions>
M  ROOT 3
M  POLY_N_BB 3
M  POLY_CA_BB 4
M  POLY_C_BB 2
M  POLY_O_BB 5
M  POLY_IGNORE 9 10 11 12 13 14 15 16 17 18 
M  POLY_UPPER 6
M  POLY_LOWER 8
M  POLY_CHG 0
M  POLY_PROPERTIES ALPHA_AA L_AA PROTEIN AROMATIC POLYMER 
M  END

$$$$



 35 35  0  0  0  0  0  0  0  0999 V2000
   -2.3608    2.1224    2.8533 H   0  0  0  1  0  0  0  0  0  0  0  0
   -0.7781    0.7655    2.6583 C   0  0  0  1  0  0  0  0  0  0  0  0
   -0.6191    3.0983    3.3932 N   0  0  0  1  0  0  0  0  0  0  0  0
   -1.3461    2.1595    2.5159 C   0  0  0  1  0  0  0  0  0  0  0  0
   -1.4591   -0.2294    2.4134 O   0  0  0  1  0  0  0  0  0  0  0  0
    0.4935    0.6954    3.0621 N   0  0  0  1  0  0  0  0  0  0  0  0
   -0.1430    3.8526    2.9874 H   0  0  0  1  0  0  0  0  0  0  0  0
   -0.5878    2.9553    4.7212 C   0  0  0  1  0  0  0  0  0  0  0  0
    1.2257   -0.5400    3.2983 C   0  0  0  1  0  0  0  0  0  0  0  0
    0.2178    3.9942    5.4768 C   0  0  0  1  0  0  0  0  0  0  0  0
   -1.1681    2.0469    5.3099 O   0  0  0  1  0  0  0  0  0  0  0  0
    0.9690    1.5393    3.2104 H   0  0  0  1  0  0  0  0  0  0  0  0
    2.0340   -0.3525    3.9738 H   0  0  0  1  0  0  0  0  0  0  0  0
    1.6138   -0.9070    2.3712 H   0  0  0  1  0  0  0  0  0  0  0  0
    0.5675   -1.2686    3.7235 H   0  0  0  1  0  0  0  0  0  0  0  0
   -0.2385    4.9548    5.3593 H   0  0  0  1  0  0  0  0  0  0  0  0
    1.2147    4.0233    5.0891 H   0  0  0  1  0  0  0  0  0  0  0  0
    0.2458    3.7375    6.5152 H   0  0  0  1  0  0  0  0  0  0  0  0
   -0.3114    7.6009    1.3637 F   0  0  0  1  0  0  0  0  0  0  0  0
   -1.6177    7.7076    1.1145 C   0  0  0  1  0  0  0  0  0  0  0  0
   -2.1210    8.4723    2.0846 F   0  0  0  1  0  0  0  0  0  0  0  0
   -1.7266    8.4131   -0.0120 F   0  0  0  1  0  0  0  0  0  0  0  0
   -2.3031    6.3597    1.0235 C   0  0  0  1  0  0  0  0  0  0  0  0
   -1.5563    5.1987    1.0917 C   0  0  0  1  0  0  0  0  0  0  0  0
   -2.1841    3.9653    1.0138 C   0  0  0  1  0  0  0  0  0  0  0  0
   -3.5563    3.8965    0.8625 C   0  0  0  1  0  0  0  0  0  0  0  0
   -4.3051    5.0610    0.7941 C   0  0  0  1  0  0  0  0  0  0  0  0
   -3.6793    6.2908    0.8718 C   0  0  0  1  0  0  0  0  0  0  0  0
   -1.3687    2.6964    1.0942 C   0  0  0  1  0  0  0  0  0  0  0  0
   -0.5234    5.2505    1.2014 H   0  0  0  1  0  0  0  0  0  0  0  0
   -4.0268    2.9711    0.8000 H   0  0  0  1  0  0  0  0  0  0  0  0
   -5.3380    5.0092    0.6844 H   0  0  0  1  0  0  0  0  0  0  0  0
   -4.2407    7.1645    0.8165 H   0  0  0  1  0  0  0  0  0  0  0  0
   -1.8002    1.9606    0.4481 H   0  0  0  1  0  0  0  0  0  0  0  0
   -0.3666    2.9030    0.7812 H   0  0  0  1  0  0  0  0  0  0  0  0
  1  4  1  0  0  0  0
  2  4  1  0  0  0  0
  2  5  2  0  0  0  0
  2  6  1  0  0  0  0
  3  4  1  0  0  0  0
  3  7  1  0  0  0  0
  3  8  1  0  0  0  0
  4 29  1  0  0  0  0
  6  9  1  0  0  0  0
  6 12  1  0  0  0  0
  8 10  1  0  0  0  0
  8 11  2  0  0  0  0
  9 13  1  0  0  0  0
  9 14  1  0  0  0  0
  9 15  1  0  0  0  0
 10 16  1  0  0  0  0
 10 17  1  0  0  0  0
 10 18  1  0  0  0  0
 19 20  1  0  0  0  0
 20 21  1  0  0  0  0
 20 22  1  0  0  0  0
 20 23  1  0  0  0  0
 23 24  4  0  0  0  0
 23 28  4  0  0  0  0
 24 25  4  0  0  0  0
 24 30  1  0  0  0  0
 25 26  4  0  0  0  0
 25 29  1  0  0  0  0
 26 27  4  0  0  0  0
 26 31  1  0  0  0  0
 27 28  4  0  0  0  0
 27 32  1  0  0  0  0
 28 33  1  0  0  0  0
 29 34  1  0  0  0  0
 29 35  1  0  0  0  0
M  END
> <BCLConfClusterSize>
1

> <ConfClashScore>
0 

> <ConfOneFourInteractionScore>
-0.960318 

> <ConfScore>
-0.189185 

> <ConfScorePBest>
0.00763447 

> <ConfTolerance>
0.2567 

> <RosettaParamsInstructions>
M  ROOT 3
M  POLY_N_BB 3
M  POLY_CA_BB 4
M  POLY_C_BB 2
M  POLY_O_BB 5
M  POLY_IGNORE 9 10 11 12 13 14 15 16 17 18 
M  POLY_UPPER 6
M  POLY_LOWER 8
M  POLY_CHG 0
M  POLY_PROPERTIES ALPHA_AA L_AA PROTEIN AROMATIC POLYMER 
M  END

$$$$



 35 35  0  0  0  0  0  0  0  0999 V2000
   -0.7300    2.8269   -0.9008 H   0  0  0  1  0  0  0  0  0  0  0  0
    0.0144    1.0151   -0.0730 C   0  0  0  1  0  0  0  0  0  0  0  0
   -2.2926    1.4650   -0.7772 N   0  0  0  1  0  0  0  0  0  0  0  0
   -1.0812    2.0642   -0.2375 C   0  0  0  1  0  0  0  0  0  0  0  0
    1.1896    1.2818   -0.3208 O   0  0  0  1  0  0  0  0  0  0  0  0
   -0.4164   -0.2079    0.2743 N   0  0  0  1  0  0  0  0  0  0  0  0
   -3.1059    1.4681   -0.2304 H   0  0  0  1  0  0  0  0  0  0  0  0
   -2.3349    0.9062   -2.0024 C   0  0  0  1  0  0  0  0  0  0  0  0
    0.5401   -1.2749    0.5280 C   0  0  0  1  0  0  0  0  0  0  0  0
   -3.7334    0.5322   -2.4536 C   0  0  0  1  0  0  0  0  0  0  0  0
   -1.3602    0.7057   -2.7082 O   0  0  0  1  0  0  0  0  0  0  0  0
   -1.3772   -0.3826    0.3572 H   0  0  0  1  0  0  0  0  0  0  0  0
    1.2533   -0.9495    1.2563 H   0  0  0  1  0  0  0  0  0  0  0  0
    1.0469   -1.5228   -0.3812 H   0  0  0  1  0  0  0  0  0  0  0  0
    0.0235   -2.1369    0.8954 H   0  0  0  1  0  0  0  0  0  0  0  0
   -4.3136    0.2315   -1.6064 H   0  0  0  1  0  0  0  0  0  0  0  0
   -3.6781   -0.2760   -3.1527 H   0  0  0  1  0  0  0  0  0  0  0  0
   -4.1953    1.3771   -2.9202 H   0  0  0  1  0  0  0  0  0  0  0  0
   -0.3366    7.6030    1.4677 F   0  0  0  1  0  0  0  0  0  0  0  0
   -1.6192    7.7047    1.1147 C   0  0  0  1  0  0  0  0  0  0  0  0
   -2.1904    8.5086    2.0130 F   0  0  0  1  0  0  0  0  0  0  0  0
   -1.6364    8.3663   -0.0432 F   0  0  0  1  0  0  0  0  0  0  0  0
   -2.3025    6.3608    1.0234 C   0  0  0  1  0  0  0  0  0  0  0  0
   -1.5577    5.1996    1.1075 C   0  0  0  1  0  0  0  0  0  0  0  0
   -2.1854    3.9661    1.0291 C   0  0  0  1  0  0  0  0  0  0  0  0
   -3.5556    3.8976    0.8615 C   0  0  0  1  0  0  0  0  0  0  0  0
   -4.3028    5.0621    0.7772 C   0  0  0  1  0  0  0  0  0  0  0  0
   -3.6768    6.2919    0.8553 C   0  0  0  1  0  0  0  0  0  0  0  0
   -1.3720    2.6972    1.1269 C   0  0  0  1  0  0  0  0  0  0  0  0
   -0.5262    5.2512    1.2296 H   0  0  0  1  0  0  0  0  0  0  0  0
   -4.0260    2.9723    0.7987 H   0  0  0  1  0  0  0  0  0  0  0  0
   -5.3343    5.0105    0.6551 H   0  0  0  1  0  0  0  0  0  0  0  0
   -4.2368    7.1656    0.7880 H   0  0  0  1  0  0  0  0  0  0  0  0
   -0.4408    2.9252    1.6019 H   0  0  0  1  0  0  0  0  0  0  0  0
   -1.9128    1.9909    1.7216 H   0  0  0  1  0  0  0  0  0  0  0  0
  1  4  1  0  0  0  0
  2  4  1  0  0  0  0
  2  5  2  0  0  0  0
  2  6  1  0  0  0  0
  3  4  1  0  0  0  0
  3  7  1  0  0  0  0
  3  8  1  0  0  0  0
  4 29  1  0  0  0  0
  6  9  1  0  0  0  0
  6 12  1  0  0  0  0
  8 10  1  0  0  0  0
  8 11  2  0  0  0  0
  9 13  1  0  0  0  0
  9 14  1  0  0  0  0
  9 15  1  0  0  0  0
 10 16  1  0  0  0  0
 10 17  1  0  0  0  0
 10 18  1  0  0  0  0
 19 20  1  0  0  0  0
 20 21  1  0  0  0  0
 20 22  1  0  0  0  0
 20 23  1  0  0  0  0
 23 24  4  0  0  0  0
 23 28  4  0  0  0  0
 24 25  4  0  0  0  0
 24 30  1  0  0  0  0
 25 26  4  0  0  0  0
 25 29  1  0  0  0  0
 26 27  4  0  0  0  0
 26 31  1  0  0  0  0
 27 28  4  0  0  0  0
 27 32  1  0  0  0  0
 28 33  1  0  0  0  0
 29 34  1  0  0  0  0
 29 35  1  0  0  0  0
M  END
> <BCLConfClusterSize>
1

> <ConfClashScore>
0 

> <ConfOneFourInteractionScore>
-0.956443 

> <ConfScore>
-0.18899 

> <ConfScorePBest>
0.00760599 

> <ConfTolerance>
0.294449 

> <RosettaParamsInstructions>
M  ROOT 3
M  POLY_N_BB 3
M  POLY_CA_BB 4
M  POLY_C_BB 2
M  POLY_O_BB 5
M  POLY_IGNORE 9 10 11 12 13 14 15 16 17 18 
M  POLY_UPPER 6
M  POLY_LOWER 8
M  POLY_CHG 0
M  POLY_PROPERTIES ALPHA_AA L_AA PROTEIN AROMATIC POLYMER 
M  END

$$$$



 35 35  0  0  0  0  0  0  0  0999 V2000
   -0.1758    2.7688   -0.2280 H   0  0  0  1  0  0  0  0  0  0  0  0
    0.0509    0.8535    0.6032 C   0  0  0  1  0  0  0  0  0  0  0  0
   -1.8222    1.6720   -0.7634 N   0  0  0  1  0  0  0  0  0  0  0  0
   -0.8215    2.0448    0.2235 C   0  0  0  1  0  0  0  0  0  0  0  0
   -0.3567   -0.2983    0.4593 O   0  0  0  1  0  0  0  0  0  0  0  0
    1.2737    1.0994    1.0978 N   0  0  0  1  0  0  0  0  0  0  0  0
   -2.6263    1.2083   -0.4489 H   0  0  0  1  0  0  0  0  0  0  0  0
   -1.7148    1.9222   -2.0772 C   0  0  0  1  0  0  0  0  0  0  0  0
    2.2129    0.0657    1.5069 C   0  0  0  1  0  0  0  0  0  0  0  0
   -2.8196    1.3625   -2.9642 C   0  0  0  1  0  0  0  0  0  0  0  0
   -0.8244    2.6317   -2.5434 O   0  0  0  1  0  0  0  0  0  0  0  0
    1.5520    2.0345    1.1895 H   0  0  0  1  0  0  0  0  0  0  0  0
    1.8171   -0.8962    1.2560 H   0  0  0  1  0  0  0  0  0  0  0  0
    2.3676    0.1228    2.5641 H   0  0  0  1  0  0  0  0  0  0  0  0
    3.1448    0.2106    1.0012 H   0  0  0  1  0  0  0  0  0  0  0  0
   -2.5648    0.3685   -3.2677 H   0  0  0  1  0  0  0  0  0  0  0  0
   -2.9302    1.9820   -3.8295 H   0  0  0  1  0  0  0  0  0  0  0  0
   -3.7397    1.3436   -2.4184 H   0  0  0  1  0  0  0  0  0  0  0  0
   -0.8717    7.7963    2.2181 F   0  0  0  1  0  0  0  0  0  0  0  0
   -1.6161    7.7064    1.1146 C   0  0  0  1  0  0  0  0  0  0  0  0
   -2.5042    8.6998    1.1757 F   0  0  0  1  0  0  0  0  0  0  0  0
   -0.8150    7.9552    0.0778 F   0  0  0  1  0  0  0  0  0  0  0  0
   -2.2993    6.3626    1.0196 C   0  0  0  1  0  0  0  0  0  0  0  0
   -1.5838    5.2049    1.2607 C   0  0  0  1  0  0  0  0  0  0  0  0
   -2.2119    3.9720    1.1789 C   0  0  0  1  0  0  0  0  0  0  0  0
   -3.5525    3.9000    0.8509 C   0  0  0  1  0  0  0  0  0  0  0  0
   -4.2704    5.0609    0.6090 C   0  0  0  1  0  0  0  0  0  0  0  0
   -3.6440    6.2903    0.6907 C   0  0  0  1  0  0  0  0  0  0  0  0
   -1.4312    2.7072    1.4481 C   0  0  0  1  0  0  0  0  0  0  0  0
   -0.5739    5.2589    1.5036 H   0  0  0  1  0  0  0  0  0  0  0  0
   -4.0229    2.9748    0.7855 H   0  0  0  1  0  0  0  0  0  0  0  0
   -5.2802    5.0069    0.3662 H   0  0  0  1  0  0  0  0  0  0  0  0
   -4.1815    7.1611    0.5053 H   0  0  0  1  0  0  0  0  0  0  0  0
   -0.6368    2.9472    2.1235 H   0  0  0  1  0  0  0  0  0  0  0  0
   -2.0920    2.0034    1.9095 H   0  0  0  1  0  0  0  0  0  0  0  0
  1  4  1  0  0  0  0
  2  4  1  0  0  0  0
  2  5  2  0  0  0  0
  2  6  1  0  0  0  0
  3  4  1  0  0  0  0
  3  7  1  0  0  0  0
  3  8  1  0  0  0  0
  4 29  1  0  0  0  0
  6  9  1  0  0  0  0
  6 12  1  0  0  0  0
  8 10  1  0  0  0  0
  8 11  2  0  0  0  0
  9 13  1  0  0  0  0
  9 14  1  0  0  0  0
  9 15  1  0  0  0  0
 10 16  1  0  0  0  0
 10 17  1  0  0  0  0
 10 18  1  0  0  0  0
 19 20  1  0  0  0  0
 20 21  1  0  0  0  0
 20 22  1  0  0  0  0
 20 23  1  0  0  0  0
 23 24  4  0  0  0  0
 23 28  4  0  0  0  0
 24 25  4  0  0  0  0
 24 30  1  0  0  0  0
 25 26  4  0  0  0  0
 25 29  1  0  0  0  0
 26 27  4  0  0  0  0
 26 31  1  0  0  0  0
 27 28  4  0  0  0  0
 27 32  1  0  0  0  0
 28 33  1  0  0  0  0
 29 34  1  0  0  0  0
 29 35  1  0  0  0  0
M  END
> <BCLConfClusterSize>
1

> <ConfClashScore>
0 

> <ConfOneFourInteractionScore>
-0.985807 

> <ConfScore>
-0.185684 

> <ConfScorePBest>
0.00757751 

> <ConfTolerance>
0.261474 

> <RosettaParamsInstructions>
M  ROOT 3
M  POLY_N_BB 3
M  POLY_CA_BB 4
M  POLY_C_BB 2
M  POLY_O_BB 5
M  POLY_IGNORE 9 10 11 12 13 14 15 16 17 18 
M  POLY_UPPER 6
M  POLY_LOWER 8
M  POLY_CHG 0
M  POLY_PROPERTIES ALPHA_AA L_AA PROTEIN AROMATIC POLYMER 
M  END

$$$$



 35 35  0  0  0  0  0  0  0  0999 V2000
   -2.2234    2.0322    2.9378 H   0  0  0  1  0  0  0  0  0  0  0  0
   -0.6931    0.6708    2.4176 C   0  0  0  1  0  0  0  0  0  0  0  0
   -0.4295    2.9251    3.4138 N   0  0  0  1  0  0  0  0  0  0  0  0
   -1.2354    2.0960    2.5319 C   0  0  0  1  0  0  0  0  0  0  0  0
    0.5061    0.4312    2.5527 O   0  0  0  1  0  0  0  0  0  0  0  0
   -1.6047   -0.2815    2.1639 N   0  0  0  1  0  0  0  0  0  0  0  0
    0.4827    3.1846    3.1670 H   0  0  0  1  0  0  0  0  0  0  0  0
   -0.9704    3.3246    4.5748 C   0  0  0  1  0  0  0  0  0  0  0  0
   -1.2392   -1.6778    1.9784 C   0  0  0  1  0  0  0  0  0  0  0  0
   -0.0951    4.1872    5.4631 C   0  0  0  1  0  0  0  0  0  0  0  0
   -2.1357    3.0814    4.8771 O   0  0  0  1  0  0  0  0  0  0  0  0
   -2.5491   -0.0275    2.1015 H   0  0  0  1  0  0  0  0  0  0  0  0
   -0.9505   -2.0994    2.9185 H   0  0  0  1  0  0  0  0  0  0  0  0
   -0.4211   -1.7439    1.2918 H   0  0  0  1  0  0  0  0  0  0  0  0
   -2.0772   -2.2168    1.5883 H   0  0  0  1  0  0  0  0  0  0  0  0
    0.3353    4.9762    4.8824 H   0  0  0  1  0  0  0  0  0  0  0  0
    0.6851    3.5882    5.8843 H   0  0  0  1  0  0  0  0  0  0  0  0
   -0.6880    4.6058    6.2492 H   0  0  0  1  0  0  0  0  0  0  0  0
   -0.3593    7.5973    1.4825 F   0  0  0  1  0  0  0  0  0  0  0  0
   -1.6343    7.7146    1.1078 C   0  0  0  1  0  0  0  0  0  0  0  0
   -2.1672    8.5072    2.0089 F   0  0  0  1  0  0  0  0  0  0  0  0
   -1.5894    8.3493   -0.0380 F   0  0  0  1  0  0  0  0  0  0  0  0
   -2.3188    6.3664    1.0197 C   0  0  0  1  0  0  0  0  0  0  0  0
   -1.5700    5.2023    1.1079 C   0  0  0  1  0  0  0  0  0  0  0  0
   -2.1723    3.9509    1.0347 C   0  0  0  1  0  0  0  0  0  0  0  0
   -3.5540    3.9027    0.8651 C   0  0  0  1  0  0  0  0  0  0  0  0
   -4.3063    5.0619    0.7665 C   0  0  0  1  0  0  0  0  0  0  0  0
   -3.6829    6.2979    0.8524 C   0  0  0  1  0  0  0  0  0  0  0  0
   -1.3546    2.6849    1.1358 C   0  0  0  1  0  0  0  0  0  0  0  0
   -0.5393    5.2664    1.2310 H   0  0  0  1  0  0  0  0  0  0  0  0
   -4.0298    2.9795    0.8115 H   0  0  0  1  0  0  0  0  0  0  0  0
   -5.3355    5.0054    0.6284 H   0  0  0  1  0  0  0  0  0  0  0  0
   -4.2450    7.1707    0.7906 H   0  0  0  1  0  0  0  0  0  0  0  0
   -1.8067    1.9487    0.5045 H   0  0  0  1  0  0  0  0  0  0  0  0
   -0.3676    2.9004    0.7831 H   0  0  0  1  0  0  0  0  0  0  0  0
  1  4  1  0  0  0  0
  2  4  1  0  0  0  0
  2  5  2  0  0  0  0
  2  6  1  0  0  0  0
  3  4  1  0  0  0  0
  3  7  1  0  0  0  0
  3  8  1  0  0  0  0
  4 29  1  0  0  0  0
  6  9  1  0  0  0  0
  6 12  1  0  0  0  0
  8 10  1  0  0  0  0
  8 11  2  0  0  0  0
  9 13  1  0  0  0  0
  9 14  1  0  0  0  0
  9 15  1  0  0  0  0
 10 16  1  0  0  0  0
 10 17  1  0  0  0  0
 10 18  1  0  0  0  0
 19 20  1  0  0  0  0
 20 21  1  0  0  0  0
 20 22  1  0  0  0  0
 20 23  1  0  0  0  0
 23 24  4  0  0  0  0
 23 28  4  0  0  0  0
 24 25  4  0  0  0  0
 24 30  1  0  0  0  0
 25 26  4  0  0  0  0
 25 29  1  0  0  0  0
 26 27  4  0  0  0  0
 26 31  1  0  0  0  0
 27 28  4  0  0  0  0
 27 32  1  0  0  0  0
 28 33  1  0  0  0  0
 29 34  1  0  0  0  0
 29 35  1  0  0  0  0
M  END
> <BCLConfClusterSize>
1

> <ConfClashScore>
0 

> <ConfOneFourInteractionScore>
-0.982002 

> <ConfScore>
-0.181549 

> <ConfScorePBest>
0.00754903 

> <ConfTolerance>
0.311336 

> <RosettaParamsInstructions>
M  ROOT 3
M  POLY_N_BB 3
M  POLY_CA_BB 4
M  POLY_C_BB 2
M  POLY_O_BB 5
M  POLY_IGNORE 9 10 11 12 13 14 15 16 17 18 
M  POLY_UPPER 6
M  POLY_LOWER 8
M  POLY_CHG 0
M  POLY_PROPERTIES ALPHA_AA L_AA PROTEIN AROMATIC POLYMER 
M  END

$$$$



 35 35  0  0  0  0  0  0  0  0999 V2000
   -1.7000    1.9619   -0.7040 H   0  0  0  1  0  0  0  0  0  0  0  0
    0.0441    3.1507   -0.7385 C   0  0  0  1  0  0  0  0  0  0  0  0
   -0.1509    0.8891    0.1472 N   0  0  0  1  0  0  0  0  0  0  0  0
   -0.8628    2.1410   -0.0622 C   0  0  0  1  0  0  0  0  0  0  0  0
   -0.4105    3.9802   -1.5218 O   0  0  0  1  0  0  0  0  0  0  0  0
    1.3557    3.1101   -0.4553 N   0  0  0  1  0  0  0  0  0  0  0  0
   -0.0150    0.5699    1.0637 H   0  0  0  1  0  0  0  0  0  0  0  0
    0.3260    0.1564   -0.8715 C   0  0  0  1  0  0  0  0  0  0  0  0
    2.2864    4.1203   -0.9360 C   0  0  0  1  0  0  0  0  0  0  0  0
    0.9574   -1.1597   -0.4360 C   0  0  0  1  0  0  0  0  0  0  0  0
    0.2748    0.4858   -2.0536 O   0  0  0  1  0  0  0  0  0  0  0  0
    1.6983    2.3745    0.0942 H   0  0  0  1  0  0  0  0  0  0  0  0
    1.9468    4.5001   -1.8769 H   0  0  0  1  0  0  0  0  0  0  0  0
    3.2556    3.6834   -1.0568 H   0  0  0  1  0  0  0  0  0  0  0  0
    2.3411    4.9204   -0.2276 H   0  0  0  1  0  0  0  0  0  0  0  0
    0.2425   -1.7334    0.1160 H   0  0  0  1  0  0  0  0  0  0  0  0
    1.8077   -0.9599    0.1820 H   0  0  0  1  0  0  0  0  0  0  0  0
    1.2655   -1.7104   -1.3002 H   0  0  0  1  0  0  0  0  0  0  0  0
   -0.4999    7.6732    1.8294 F   0  0  0  1  0  0  0  0  0  0  0  0
   -1.6214    7.7035    1.1258 C   0  0  0  1  0  0  0  0  0  0  0  0
   -2.3809    8.6361    1.6638 F   0  0  0  1  0  0  0  0  0  0  0  0
   -1.2736    8.1844   -0.0713 F   0  0  0  1  0  0  0  0  0  0  0  0
   -2.3037    6.3595    1.0284 C   0  0  0  1  0  0  0  0  0  0  0  0
   -1.5686    5.1987    1.1779 C   0  0  0  1  0  0  0  0  0  0  0  0
   -2.1956    3.9653    1.0939 C   0  0  0  1  0  0  0  0  0  0  0  0
   -3.5553    3.8963    0.8553 C   0  0  0  1  0  0  0  0  0  0  0  0
   -4.2927    5.0604    0.7053 C   0  0  0  1  0  0  0  0  0  0  0  0
   -3.6673    6.2900    0.7891 C   0  0  0  1  0  0  0  0  0  0  0  0
   -1.3932    2.6968    1.2631 C   0  0  0  1  0  0  0  0  0  0  0  0
   -0.5448    5.2506    1.3535 H   0  0  0  1  0  0  0  0  0  0  0  0
   -4.0251    2.9709    0.7882 H   0  0  0  1  0  0  0  0  0  0  0  0
   -5.3165    5.0085    0.5297 H   0  0  0  1  0  0  0  0  0  0  0  0
   -4.2199    7.1634    0.6726 H   0  0  0  1  0  0  0  0  0  0  0  0
   -0.5610    2.9031    1.9032 H   0  0  0  1  0  0  0  0  0  0  0  0
   -2.0181    1.9565    1.7171 H   0  0  0  1  0  0  0  0  0  0  0  0
  1  4  1  0  0  0  0
  2  4  1  0  0  0  0
  2  5  2  0  0  0  0
  2  6  1  0  0  0  0
  3  4  1  0  0  0  0
  3  7  1  0  0  0  0
  3  8  1  0  0  0  0
  4 29  1  0  0  0  0
  6  9  1  0  0  0  0
  6 12  1  0  0  0  0
  8 10  1  0  0  0  0
  8 11  2  0  0  0  0
  9 13  1  0  0  0  0
  9 14  1  0  0  0  0
  9 15  1  0  0  0  0
 10 16  1  0  0  0  0
 10 17  1  0  0  0  0
 10 18  1  0  0  0  0
 19 20  1  0  0  0  0
 20 21  1  0  0  0  0
 20 22  1  0  0  0  0
 20 23  1  0  0  0  0
 23 24  4  0  0  0  0
 23 28  4  0  0  0  0
 24 25  4  0  0  0  0
 24 30  1  0  0  0  0
 25 26  4  0  0  0  0
 25 29  1  0  0  0  0
 26 27  4  0  0  0  0
 26 31  1  0  0  0  0
 27 28  4  0  0  0  0
 27 32  1  0  0  0  0
 28 33  1  0  0  0  0
 29 34  1  0  0  0  0
 29 35  1  0  0  0  0
M  END
> <BCLConfClusterSize>
1

> <ConfClashScore>
0 

> <ConfOneFourInteractionScore>
-0.960318 

> <ConfScore>
-0.179146 

> <ConfScorePBest>
0.00752055 

> <ConfTolerance>
0.262955 

> <RosettaParamsInstructions>
M  ROOT 3
M  POLY_N_BB 3
M  POLY_CA_BB 4
M  POLY_C_BB 2
M  POLY_O_BB 5
M  POLY_IGNORE 9 10 11 12 13 14 15 16 17 18 
M  POLY_UPPER 6
M  POLY_LOWER 8
M  POLY_CHG 0
M  POLY_PROPERTIES ALPHA_AA L_AA PROTEIN AROMATIC POLYMER 
M  END

$$$$



 35 35  0  0  0  0  0  0  0  0999 V2000
   -1.7857    1.6753   -0.5879 H   0  0  0  1  0  0  0  0  0  0  0  0
   -0.3592    3.2205   -0.9552 C   0  0  0  1  0  0  0  0  0  0  0  0
    0.0577    1.0831    0.1808 N   0  0  0  1  0  0  0  0  0  0  0  0
   -0.9427    2.1052   -0.0885 C   0  0  0  1  0  0  0  0  0  0  0  0
   -1.0428    3.7745   -1.8150 O   0  0  0  1  0  0  0  0  0  0  0  0
    0.9189    3.5761   -0.7499 N   0  0  0  1  0  0  0  0  0  0  0  0
    0.3887    0.9751    1.0968 H   0  0  0  1  0  0  0  0  0  0  0  0
    0.5404    0.2869   -0.7774 C   0  0  0  1  0  0  0  0  0  0  0  0
    1.5248    4.6235   -1.5584 C   0  0  0  1  0  0  0  0  0  0  0  0
    1.6234   -0.6822   -0.3449 C   0  0  0  1  0  0  0  0  0  0  0  0
    0.1472    0.3231   -1.9317 O   0  0  0  1  0  0  0  0  0  0  0  0
    1.4450    3.1294   -0.0541 H   0  0  0  1  0  0  0  0  0  0  0  0
    0.7737    5.3257   -1.8544 H   0  0  0  1  0  0  0  0  0  0  0  0
    1.9696    4.1892   -2.4292 H   0  0  0  1  0  0  0  0  0  0  0  0
    2.2765    5.1257   -0.9860 H   0  0  0  1  0  0  0  0  0  0  0  0
    2.4314   -0.1397    0.0998 H   0  0  0  1  0  0  0  0  0  0  0  0
    1.9819   -1.2198   -1.1978 H   0  0  0  1  0  0  0  0  0  0  0  0
    1.2213   -1.3710    0.3683 H   0  0  0  1  0  0  0  0  0  0  0  0
   -0.4926    7.6821    1.8437 F   0  0  0  1  0  0  0  0  0  0  0  0
   -1.6103    7.7250    1.1165 C   0  0  0  1  0  0  0  0  0  0  0  0
   -2.3848    8.6547    1.6780 F   0  0  0  1  0  0  0  0  0  0  0  0
   -1.2601    8.2024   -0.0785 F   0  0  0  1  0  0  0  0  0  0  0  0
   -2.2951    6.3772    1.0250 C   0  0  0  1  0  0  0  0  0  0  0  0
   -1.5766    5.1937    1.1784 C   0  0  0  1  0  0  0  0  0  0  0  0
   -2.1989    3.9592    1.0898 C   0  0  0  1  0  0  0  0  0  0  0  0
   -3.5649    3.8904    0.8596 C   0  0  0  1  0  0  0  0  0  0  0  0
   -4.2922    5.0482    0.7051 C   0  0  0  1  0  0  0  0  0  0  0  0
   -3.6617    6.2810    0.7851 C   0  0  0  1  0  0  0  0  0  0  0  0
   -1.3920    2.6916    1.2435 C   0  0  0  1  0  0  0  0  0  0  0  0
   -0.5541    5.2377    1.3629 H   0  0  0  1  0  0  0  0  0  0  0  0
   -4.0384    2.9661    0.8039 H   0  0  0  1  0  0  0  0  0  0  0  0
   -5.3158    4.9989    0.5282 H   0  0  0  1  0  0  0  0  0  0  0  0
   -4.2210    7.1494    0.6634 H   0  0  0  1  0  0  0  0  0  0  0  0
   -0.5239    2.9095    1.8298 H   0  0  0  1  0  0  0  0  0  0  0  0
   -1.9922    1.9651    1.7503 H   0  0  0  1  0  0  0  0  0  0  0  0
  1  4  1  0  0  0  0
  2  4  1  0  0  0  0
  2  5  2  0  0  0  0
  2  6  1  0  0  0  0
  3  4  1  0  0  0  0
  3  7  1  0  0  0  0
  3  8  1  0  0  0  0
  4 29  1  0  0  0  0
  6  9  1  0  0  0  0
  6 12  1  0  0  0  0
  8 10  1  0  0  0  0
  8 11  2  0  0  0  0
  9 13  1  0  0  0  0
  9 14  1  0  0  0  0
  9 15  1  0  0  0  0
 10 16  1  0  0  0  0
 10 17  1  0  0  0  0
 10 18  1  0  0  0  0
 19 20  1  0  0  0  0
 20 21  1  0  0  0  0
 20 22  1  0  0  0  0
 20 23  1  0  0  0  0
 23 24  4  0  0  0  0
 23 28  4  0  0  0  0
 24 25  4  0  0  0  0
 24 30  1  0  0  0  0
 25 26  4  0  0  0  0
 25 29  1  0  0  0  0
 26 27  4  0  0  0  0
 26 31  1  0  0  0  0
 27 28  4  0  0  0  0
 27 32  1  0  0  0  0
 28 33  1  0  0  0  0
 29 34  1  0  0  0  0
 29 35  1  0  0  0  0
M  END
> <BCLConfClusterSize>
1

> <ConfClashScore>
0 

> <ConfOneFourInteractionScore>
-0.949394 

> <ConfScore>
-0.178841 

> <ConfScorePBest>
0.00749207 

> <ConfTolerance>
0.368867 

> <RosettaParamsInstructions>
M  ROOT 3
M  POLY_N_BB 3
M  POLY_CA_BB 4
M  POLY_C_BB 2
M  POLY_O_BB 5
M  POLY_IGNORE 9 10 11 12 13 14 15 16 17 18 
M  POLY_UPPER 6
M  POLY_LOWER 8
M  POLY_CHG 0
M  POLY_PROPERTIES ALPHA_AA L_AA PROTEIN AROMATIC POLYMER 
M  END

$$$$



 35 35  0  0  0  0  0  0  0  0999 V2000
   -1.7967    2.0980    2.8979 H   0  0  0  1  0  0  0  0  0  0  0  0
   -0.1005    1.0071    2.2471 C   0  0  0  1  0  0  0  0  0  0  0  0
   -0.1453    3.3555    2.9291 N   0  0  0  1  0  0  0  0  0  0  0  0
   -0.9166    2.2831    2.3183 C   0  0  0  1  0  0  0  0  0  0  0  0
   -0.6166   -0.0910    2.4373 O   0  0  0  1  0  0  0  0  0  0  0  0
    1.2022    1.1633    1.9663 N   0  0  0  1  0  0  0  0  0  0  0  0
   -0.1482    4.2399    2.5068 H   0  0  0  1  0  0  0  0  0  0  0  0
    0.5653    3.1766    4.0436 C   0  0  0  1  0  0  0  0  0  0  0  0
    2.1769    0.0842    1.9066 C   0  0  0  1  0  0  0  0  0  0  0  0
    1.2990    4.3989    4.5604 C   0  0  0  1  0  0  0  0  0  0  0  0
    0.6330    2.0973    4.6284 O   0  0  0  1  0  0  0  0  0  0  0  0
    1.5214    2.0725    1.7879 H   0  0  0  1  0  0  0  0  0  0  0  0
    1.6809   -0.8320    1.6627 H   0  0  0  1  0  0  0  0  0  0  0  0
    2.6589   -0.0136    2.8569 H   0  0  0  1  0  0  0  0  0  0  0  0
    2.9073    0.3048    1.1566 H   0  0  0  1  0  0  0  0  0  0  0  0
    0.6321    5.2354    4.5766 H   0  0  0  1  0  0  0  0  0  0  0  0
    2.1270    4.6155    3.9181 H   0  0  0  1  0  0  0  0  0  0  0  0
    1.6557    4.2081    5.5509 H   0  0  0  1  0  0  0  0  0  0  0  0
   -0.8488    7.9550    0.0527 F   0  0  0  1  0  0  0  0  0  0  0  0
   -1.6215    7.7075    1.1117 C   0  0  0  1  0  0  0  0  0  0  0  0
   -0.8313    7.8092    2.1816 F   0  0  0  1  0  0  0  0  0  0  0  0
   -2.4860    8.7202    1.1881 F   0  0  0  1  0  0  0  0  0  0  0  0
   -2.3107    6.3618    1.0252 C   0  0  0  1  0  0  0  0  0  0  0  0
   -1.5568    5.1979    0.9991 C   0  0  0  1  0  0  0  0  0  0  0  0
   -2.1629    3.9484    0.9244 C   0  0  0  1  0  0  0  0  0  0  0  0
   -3.5541    3.9022    0.8719 C   0  0  0  1  0  0  0  0  0  0  0  0
   -4.3122    5.0616    0.8877 C   0  0  0  1  0  0  0  0  0  0  0  0
   -3.6840    6.2953    0.9726 C   0  0  0  1  0  0  0  0  0  0  0  0
   -1.3393    2.6825    0.9009 C   0  0  0  1  0  0  0  0  0  0  0  0
   -0.5193    5.2607    1.0360 H   0  0  0  1  0  0  0  0  0  0  0  0
   -4.0325    2.9803    0.8200 H   0  0  0  1  0  0  0  0  0  0  0  0
   -5.3495    5.0071    0.8361 H   0  0  0  1  0  0  0  0  0  0  0  0
   -4.2496    7.1677    0.9965 H   0  0  0  1  0  0  0  0  0  0  0  0
   -1.9213    1.8932    0.4729 H   0  0  0  1  0  0  0  0  0  0  0  0
   -0.4645    2.8441    0.3063 H   0  0  0  1  0  0  0  0  0  0  0  0
  1  4  1  0  0  0  0
  2  4  1  0  0  0  0
  2  5  2  0  0  0  0
  2  6  1  0  0  0  0
  3  4  1  0  0  0  0
  3  7  1  0  0  0  0
  3  8  1  0  0  0  0
  4 29  1  0  0  0  0
  6  9  1  0  0  0  0
  6 12  1  0  0  0  0
  8 10  1  0  0  0  0
  8 11  2  0  0  0  0
  9 13  1  0  0  0  0
  9 14  1  0  0  0  0
  9 15  1  0  0  0  0
 10 16  1  0  0  0  0
 10 17  1  0  0  0  0
 10 18  1  0  0  0  0
 19 20  1  0  0  0  0
 20 21  1  0  0  0  0
 20 22  1  0  0  0  0
 20 23  1  0  0  0  0
 23 24  4  0  0  0  0
 23 28  4  0  0  0  0
 24 25  4  0  0  0  0
 24 30  1  0  0  0  0
 25 26  4  0  0  0  0
 25 29  1  0  0  0  0
 26 27  4  0  0  0  0
 26 31  1  0  0  0  0
 27 28  4  0  0  0  0
 27 32  1  0  0  0  0
 28 33  1  0  0  0  0
 29 34  1  0  0  0  0
 29 35  1  0  0  0  0
M  END
> <BCLConfClusterSize>
1

> <ConfClashScore>
0 

> <ConfOneFourInteractionScore>
-0.960318 

> <ConfScore>
-0.176835 

> <ConfScorePBest>
0.00746359 

> <ConfTolerance>
0.293765 

> <RosettaParamsInstructions>
M  ROOT 3
M  POLY_N_BB 3
M  POLY_CA_BB 4
M  POLY_C_BB 2
M  POLY_O_BB 5
M  POLY_IGNORE 9 10 11 12 13 14 15 16 17 18 
M  POLY_UPPER 6
M  POLY_LOWER 8
M  POLY_CHG 0
M  POLY_PROPERTIES ALPHA_AA L_AA PROTEIN AROMATIC POLYMER 
M  END

$$$$



 35 35  0  0  0  0  0  0  0  0999 V2000
   -2.2482    2.4365    3.2314 H   0  0  0  1  0  0  0  0  0  0  0  0
   -0.8300    0.8990    2.9302 C   0  0  0  1  0  0  0  0  0  0  0  0
   -0.3837    3.2710    3.4940 N   0  0  0  1  0  0  0  0  0  0  0  0
   -1.2737    2.3564    2.7970 C   0  0  0  1  0  0  0  0  0  0  0  0
   -1.6408   -0.0262    2.9108 O   0  0  0  1  0  0  0  0  0  0  0  0
    0.4971    0.7493    3.0658 N   0  0  0  1  0  0  0  0  0  0  0  0
    0.1003    3.9473    2.9754 H   0  0  0  1  0  0  0  0  0  0  0  0
   -0.2019    3.2213    4.8231 C   0  0  0  1  0  0  0  0  0  0  0  0
    1.1152   -0.5514    3.2758 C   0  0  0  1  0  0  0  0  0  0  0  0
    0.6543    4.3499    5.3638 C   0  0  0  1  0  0  0  0  0  0  0  0
   -0.6701    2.3582    5.5609 O   0  0  0  1  0  0  0  0  0  0  0  0
    1.0696    1.5434    3.0220 H   0  0  0  1  0  0  0  0  0  0  0  0
    0.7748   -0.9632    4.2028 H   0  0  0  1  0  0  0  0  0  0  0  0
    2.1790   -0.4400    3.3045 H   0  0  0  1  0  0  0  0  0  0  0  0
    0.8462   -1.2073    2.4743 H   0  0  0  1  0  0  0  0  0  0  0  0
    0.3905    5.2643    4.8746 H   0  0  0  1  0  0  0  0  0  0  0  0
    1.6862    4.1331    5.1817 H   0  0  0  1  0  0  0  0  0  0  0  0
    0.4905    4.4488    6.4165 H   0  0  0  1  0  0  0  0  0  0  0  0
   -0.5732    7.7111    1.9551 F   0  0  0  1  0  0  0  0  0  0  0  0
   -1.6104    7.7216    1.1160 C   0  0  0  1  0  0  0  0  0  0  0  0
   -2.4283    8.6835    1.5463 F   0  0  0  1  0  0  0  0  0  0  0  0
   -1.1351    8.1337   -0.0600 F   0  0  0  1  0  0  0  0  0  0  0  0
   -2.2946    6.3781    1.0250 C   0  0  0  1  0  0  0  0  0  0  0  0
   -1.5827    5.1965    1.2017 C   0  0  0  1  0  0  0  0  0  0  0  0
   -2.2076    3.9613    1.1143 C   0  0  0  1  0  0  0  0  0  0  0  0
   -3.5565    3.8878    0.8528 C   0  0  0  1  0  0  0  0  0  0  0  0
   -4.2907    5.0521    0.6825 C   0  0  0  1  0  0  0  0  0  0  0  0
   -3.6590    6.2825    0.7612 C   0  0  0  1  0  0  0  0  0  0  0  0
   -1.4063    2.6954    1.3064 C   0  0  0  1  0  0  0  0  0  0  0  0
   -0.5633    5.2399    1.4031 H   0  0  0  1  0  0  0  0  0  0  0  0
   -4.0242    2.9615    0.7831 H   0  0  0  1  0  0  0  0  0  0  0  0
   -5.3127    5.0015    0.4962 H   0  0  0  1  0  0  0  0  0  0  0  0
   -4.2138    7.1509    0.6208 H   0  0  0  1  0  0  0  0  0  0  0  0
   -1.8996    1.8886    0.8057 H   0  0  0  1  0  0  0  0  0  0  0  0
   -0.4304    2.8312    0.8893 H   0  0  0  1  0  0  0  0  0  0  0  0
  1  4  1  0  0  0  0
  2  4  1  0  0  0  0
  2  5  2  0  0  0  0
  2  6  1  0  0  0  0
  3  4  1  0  0  0  0
  3  7  1  0  0  0  0
  3  8  1  0  0  0  0
  4 29  1  0  0  0  0
  6  9  1  0  0  0  0
  6 12  1  0  0  0  0
  8 10  1  0  0  0  0
  8 11  2  0  0  0  0
  9 13  1  0  0  0  0
  9 14  1  0  0  0  0
  9 15  1  0  0  0  0
 10 16  1  0  0  0  0
 10 17  1  0  0  0  0
 10 18  1  0  0  0  0
 19 20  1  0  0  0  0
 20 21  1  0  0  0  0
 20 22  1  0  0  0  0
 20 23  1  0  0  0  0
 23 24  4  0  0  0  0
 23 28  4  0  0  0  0
 24 25  4  0  0  0  0
 24 30  1  0  0  0  0
 25 26  4  0  0  0  0
 25 29  1  0  0  0  0
 26 27  4  0  0  0  0
 26 31  1  0  0  0  0
 27 28  4  0  0  0  0
 27 32  1  0  0  0  0
 28 33  1  0  0  0  0
 29 34  1  0  0  0  0
 29 35  1  0  0  0  0
M  END
> <BCLConfClusterSize>
1

> <ConfClashScore>
0 

> <ConfOneFourInteractionScore>
-0.956443 

> <ConfScore>
-0.17149 

> <ConfScorePBest>
0.0074351 

> <ConfTolerance>
0.321131 

> <RosettaParamsInstructions>
M  ROOT 3
M  POLY_N_BB 3
M  POLY_CA_BB 4
M  POLY_C_BB 2
M  POLY_O_BB 5
M  POLY_IGNORE 9 10 11 12 13 14 15 16 17 18 
M  POLY_UPPER 6
M  POLY_LOWER 8
M  POLY_CHG 0
M  POLY_PROPERTIES ALPHA_AA L_AA PROTEIN AROMATIC POLYMER 
M  END

$$$$



 35 35  0  0  0  0  0  0  0  0999 V2000
   -0.0705    3.2349   -0.2956 H   0  0  0  1  0  0  0  0  0  0  0  0
    0.3808    1.2318    0.2502 C   0  0  0  1  0  0  0  0  0  0  0  0
   -1.5308    1.9973   -1.0796 N   0  0  0  1  0  0  0  0  0  0  0  0
   -0.6212    2.3649   -0.0046 C   0  0  0  1  0  0  0  0  0  0  0  0
    1.4036    1.4521    0.8976 O   0  0  0  1  0  0  0  0  0  0  0  0
    0.0367    0.0101   -0.1870 N   0  0  0  1  0  0  0  0  0  0  0  0
   -2.4424    1.7181   -0.8530 H   0  0  0  1  0  0  0  0  0  0  0  0
   -1.1661    2.0271   -2.3646 C   0  0  0  1  0  0  0  0  0  0  0  0
    0.8701   -1.1607    0.0418 C   0  0  0  1  0  0  0  0  0  0  0  0
   -2.2535    1.7323   -3.3793 C   0  0  0  1  0  0  0  0  0  0  0  0
   -0.0357    2.3544   -2.7223 O   0  0  0  1  0  0  0  0  0  0  0  0
   -0.8051   -0.0970   -0.6773 H   0  0  0  1  0  0  0  0  0  0  0  0
    1.0247   -1.2893    1.0927 H   0  0  0  1  0  0  0  0  0  0  0  0
    1.8142   -1.0266   -0.4436 H   0  0  0  1  0  0  0  0  0  0  0  0
    0.3842   -2.0273   -0.3556 H   0  0  0  1  0  0  0  0  0  0  0  0
   -3.1042    2.3503   -3.1811 H   0  0  0  1  0  0  0  0  0  0  0  0
   -2.5369    0.7028   -3.3092 H   0  0  0  1  0  0  0  0  0  0  0  0
   -1.8869    1.9355   -4.3638 H   0  0  0  1  0  0  0  0  0  0  0  0
   -0.5313    7.6780    1.8864 F   0  0  0  1  0  0  0  0  0  0  0  0
   -1.6185    7.7081    1.1137 C   0  0  0  1  0  0  0  0  0  0  0  0
   -2.4113    8.6527    1.6223 F   0  0  0  1  0  0  0  0  0  0  0  0
   -1.2182    8.1572   -0.0766 F   0  0  0  1  0  0  0  0  0  0  0  0
   -2.3047    6.3605    1.0247 C   0  0  0  1  0  0  0  0  0  0  0  0
   -1.5702    5.1964    1.1889 C   0  0  0  1  0  0  0  0  0  0  0  0
   -2.1952    3.9667    1.1024 C   0  0  0  1  0  0  0  0  0  0  0  0
   -3.5577    3.8978    0.8567 C   0  0  0  1  0  0  0  0  0  0  0  0
   -4.2902    5.0583    0.6930 C   0  0  0  1  0  0  0  0  0  0  0  0
   -3.6632    6.2915    0.7798 C   0  0  0  1  0  0  0  0  0  0  0  0
   -1.3938    2.6982    1.2755 C   0  0  0  1  0  0  0  0  0  0  0  0
   -0.5487    5.2483    1.3771 H   0  0  0  1  0  0  0  0  0  0  0  0
   -4.0288    2.9726    0.7956 H   0  0  0  1  0  0  0  0  0  0  0  0
   -5.3117    5.0063    0.5047 H   0  0  0  1  0  0  0  0  0  0  0  0
   -4.2151    7.1649    0.6606 H   0  0  0  1  0  0  0  0  0  0  0  0
   -0.7003    2.8284    2.0799 H   0  0  0  1  0  0  0  0  0  0  0  0
   -2.0586    1.8916    1.5040 H   0  0  0  1  0  0  0  0  0  0  0  0
  1  4  1  0  0  0  0
  2  4  1  0  0  0  0
  2  5  2  0  0  0  0
  2  6  1  0  0  0  0
  3  4  1  0  0  0  0
  3  7  1  0  0  0  0
  3  8  1  0  0  0  0
  4 29  1  0  0  0  0
  6  9  1  0  0  0  0
  6 12  1  0  0  0  0
  8 10  1  0  0  0  0
  8 11  2  0  0  0  0
  9 13  1  0  0  0  0
  9 14  1  0  0  0  0
  9 15  1  0  0  0  0
 10 16  1  0  0  0  0
 10 17  1  0  0  0  0
 10 18  1  0  0  0  0
 19 20  1  0  0  0  0
 20 21  1  0  0  0  0
 20 22  1  0  0  0  0
 20 23  1  0  0  0  0
 23 24  4  0  0  0  0
 23 28  4  0  0  0  0
 24 25  4  0  0  0  0
 24 30  1  0  0  0  0
 25 26  4  0  0  0  0
 25 29  1  0  0  0  0
 26 27  4  0  0  0  0
 26 31  1  0  0  0  0
 27 28  4  0  0  0  0
 27 32  1  0  0  0  0
 28 33  1  0  0  0  0
 29 34  1  0  0  0  0
 29 35  1  0  0  0  0
M  END
> <BCLConfClusterSize>
1

> <ConfClashScore>
0 

> <ConfOneFourInteractionScore>
-0.960318 

> <ConfScore>
-0.166216 

> <ConfScorePBest>
0.00740662 

> <ConfTolerance>
0.257854 

> <RosettaParamsInstructions>
M  ROOT 3
M  POLY_N_BB 3
M  POLY_CA_BB 4
M  POLY_C_BB 2
M  POLY_O_BB 5
M  POLY_IGNORE 9 10 11 12 13 14 15 16 17 18 
M  POLY_UPPER 6
M  POLY_LOWER 8
M  POLY_CHG 0
M  POLY_PROPERTIES ALPHA_AA L_AA PROTEIN AROMATIC POLYMER 
M  END

$$$$



 35 35  0  0  0  0  0  0  0  0999 V2000
   -1.9272    2.2314    2.9198 H   0  0  0  1  0  0  0  0  0  0  0  0
   -0.4370    0.8366    2.3279 C   0  0  0  1  0  0  0  0  0  0  0  0
   -0.0509    3.1205    2.9735 N   0  0  0  1  0  0  0  0  0  0  0  0
   -1.0253    2.2417    2.3441 C   0  0  0  1  0  0  0  0  0  0  0  0
    0.7707    0.6600    2.1734 O   0  0  0  1  0  0  0  0  0  0  0  0
   -1.2743   -0.1997    2.4869 N   0  0  0  1  0  0  0  0  0  0  0  0
    0.8352    3.1560    2.5564 H   0  0  0  1  0  0  0  0  0  0  0  0
   -0.2270    3.8844    4.0554 C   0  0  0  1  0  0  0  0  0  0  0  0
   -0.7834   -1.5630    2.3524 C   0  0  0  1  0  0  0  0  0  0  0  0
    0.9759    4.7196    4.4794 C   0  0  0  1  0  0  0  0  0  0  0  0
   -1.2849    3.9243    4.6822 O   0  0  0  1  0  0  0  0  0  0  0  0
   -2.2184   -0.0381    2.6940 H   0  0  0  1  0  0  0  0  0  0  0  0
   -0.0030   -1.7335    3.0644 H   0  0  0  1  0  0  0  0  0  0  0  0
   -0.4016   -1.7084    1.3635 H   0  0  0  1  0  0  0  0  0  0  0  0
   -1.5845   -2.2495    2.5305 H   0  0  0  1  0  0  0  0  0  0  0  0
    1.3111    5.3091    3.6517 H   0  0  0  1  0  0  0  0  0  0  0  0
    1.7653    4.0715    4.7983 H   0  0  0  1  0  0  0  0  0  0  0  0
    0.6955    5.3645    5.2859 H   0  0  0  1  0  0  0  0  0  0  0  0
   -0.3314    7.6749    0.7343 F   0  0  0  1  0  0  0  0  0  0  0  0
   -1.6096    7.7262    1.1130 C   0  0  0  1  0  0  0  0  0  0  0  0
   -1.6119    8.2221    2.3513 F   0  0  0  1  0  0  0  0  0  0  0  0
   -2.1911    8.6454    0.3413 F   0  0  0  1  0  0  0  0  0  0  0  0
   -2.2956    6.3768    1.0263 C   0  0  0  1  0  0  0  0  0  0  0  0
   -1.5589    5.1946    1.0226 C   0  0  0  1  0  0  0  0  0  0  0  0
   -2.1822    3.9603    0.9380 C   0  0  0  1  0  0  0  0  0  0  0  0
   -3.5658    3.8896    0.8708 C   0  0  0  1  0  0  0  0  0  0  0  0
   -4.3111    5.0462    0.8730 C   0  0  0  1  0  0  0  0  0  0  0  0
   -3.6807    6.2794    0.9480 C   0  0  0  1  0  0  0  0  0  0  0  0
   -1.3574    2.6951    0.9189 C   0  0  0  1  0  0  0  0  0  0  0  0
   -0.5217    5.2394    1.0845 H   0  0  0  1  0  0  0  0  0  0  0  0
   -4.0386    2.9648    0.8189 H   0  0  0  1  0  0  0  0  0  0  0  0
   -5.3485    4.9957    0.8185 H   0  0  0  1  0  0  0  0  0  0  0  0
   -4.2542    7.1469    0.9456 H   0  0  0  1  0  0  0  0  0  0  0  0
   -1.9101    1.9234    0.4251 H   0  0  0  1  0  0  0  0  0  0  0  0
   -0.4467    2.8780    0.3878 H   0  0  0  1  0  0  0  0  0  0  0  0
  1  4  1  0  0  0  0
  2  4  1  0  0  0  0
  2  5  2  0  0  0  0
  2  6  1  0  0  0  0
  3  4  1  0  0  0  0
  3  7  1  0  0  0  0
  3  8  1  0  0  0  0
  4 29  1  0  0  0  0
  6  9  1  0  0  0  0
  6 12  1  0  0  0  0
  8 10  1  0  0  0  0
  8 11  2  0  0  0  0
  9 13  1  0  0  0  0
  9 14  1  0  0  0  0
  9 15  1  0  0  0  0
 10 16  1  0  0  0  0
 10 17  1  0  0  0  0
 10 18  1  0  0  0  0
 19 20  1  0  0  0  0
 20 21  1  0  0  0  0
 20 22  1  0  0  0  0
 20 23  1  0  0  0  0
 23 24  4  0  0  0  0
 23 28  4  0  0  0  0
 24 25  4  0  0  0  0
 24 30  1  0  0  0  0
 25 26  4  0  0  0  0
 25 29  1  0  0  0  0
 26 27  4  0  0  0  0
 26 31  1  0  0  0  0
 27 28  4  0  0  0  0
 27 32  1  0  0  0  0
 28 33  1  0  0  0  0
 29 34  1  0  0  0  0
 29 35  1  0  0  0  0
M  END
> <BCLConfClusterSize>
1

> <ConfClashScore>
0 

> <ConfOneFourInteractionScore>
-0.986627 

> <ConfScore>
-0.16589 

> <ConfScorePBest>
0.00737814 

> <ConfTolerance>
0.3207 

> <RosettaParamsInstructions>
M  ROOT 3
M  POLY_N_BB 3
M  POLY_CA_BB 4
M  POLY_C_BB 2
M  POLY_O_BB 5
M  POLY_IGNORE 9 10 11 12 13 14 15 16 17 18 
M  POLY_UPPER 6
M  POLY_LOWER 8
M  POLY_CHG 0
M  POLY_PROPERTIES ALPHA_AA L_AA PROTEIN AROMATIC POLYMER 
M  END

$$$$



 35 35  0  0  0  0  0  0  0  0999 V2000
   -0.7526    2.8939   -1.0957 H   0  0  0  1  0  0  0  0  0  0  0  0
   -0.1756    0.9503   -0.5832 C   0  0  0  1  0  0  0  0  0  0  0  0
   -2.4197    1.7058   -1.1214 N   0  0  0  1  0  0  0  0  0  0  0  0
   -1.1612    2.1039   -0.5008 C   0  0  0  1  0  0  0  0  0  0  0  0
    0.9918    1.2096   -0.8724 O   0  0  0  1  0  0  0  0  0  0  0  0
   -0.6247   -0.2789   -0.3389 N   0  0  0  1  0  0  0  0  0  0  0  0
   -3.2464    1.8920   -0.6292 H   0  0  0  1  0  0  0  0  0  0  0  0
   -2.5303    1.1064   -2.3103 C   0  0  0  1  0  0  0  0  0  0  0  0
    0.1398   -1.5007   -0.5408 C   0  0  0  1  0  0  0  0  0  0  0  0
   -3.9418    0.8699   -2.7979 C   0  0  0  1  0  0  0  0  0  0  0  0
   -1.5591    0.7625   -2.9787 O   0  0  0  1  0  0  0  0  0  0  0  0
   -1.5390   -0.3677    0.0026 H   0  0  0  1  0  0  0  0  0  0  0  0
    0.7893   -1.3806   -1.3826 H   0  0  0  1  0  0  0  0  0  0  0  0
   -0.5307   -2.3149   -0.7211 H   0  0  0  1  0  0  0  0  0  0  0  0
    0.7227   -1.7048    0.3330 H   0  0  0  1  0  0  0  0  0  0  0  0
   -3.9141    0.4450   -3.7795 H   0  0  0  1  0  0  0  0  0  0  0  0
   -4.4695    1.8003   -2.8270 H   0  0  0  1  0  0  0  0  0  0  0  0
   -4.4407    0.1970   -2.1322 H   0  0  0  1  0  0  0  0  0  0  0  0
   -0.4308    7.7363    0.5050 F   0  0  0  1  0  0  0  0  0  0  0  0
   -1.6152    7.7043    1.1182 C   0  0  0  1  0  0  0  0  0  0  0  0
   -1.4077    8.1036    2.3740 F   0  0  0  1  0  0  0  0  0  0  0  0
   -2.3289    8.6805    0.5558 F   0  0  0  1  0  0  0  0  0  0  0  0
   -2.3047    6.3588    1.0230 C   0  0  0  1  0  0  0  0  0  0  0  0
   -1.5549    5.1943    0.9982 C   0  0  0  1  0  0  0  0  0  0  0  0
   -2.1649    3.9440    0.9267 C   0  0  0  1  0  0  0  0  0  0  0  0
   -3.5540    3.9010    0.8751 C   0  0  0  1  0  0  0  0  0  0  0  0
   -4.3099    5.0638    0.8897 C   0  0  0  1  0  0  0  0  0  0  0  0
   -3.6886    6.2894    0.9606 C   0  0  0  1  0  0  0  0  0  0  0  0
   -1.3442    2.6761    0.9058 C   0  0  0  1  0  0  0  0  0  0  0  0
   -0.5172    5.2546    1.0335 H   0  0  0  1  0  0  0  0  0  0  0  0
   -4.0347    2.9801    0.8247 H   0  0  0  1  0  0  0  0  0  0  0  0
   -5.3476    5.0092    0.8471 H   0  0  0  1  0  0  0  0  0  0  0  0
   -4.2552    7.1615    0.9672 H   0  0  0  1  0  0  0  0  0  0  0  0
   -0.3788    2.8886    1.3153 H   0  0  0  1  0  0  0  0  0  0  0  0
   -1.8352    1.9426    1.5106 H   0  0  0  1  0  0  0  0  0  0  0  0
  1  4  1  0  0  0  0
  2  4  1  0  0  0  0
  2  5  2  0  0  0  0
  2  6  1  0  0  0  0
  3  4  1  0  0  0  0
  3  7  1  0  0  0  0
  3  8  1  0  0  0  0
  4 29  1  0  0  0  0
  6  9  1  0  0  0  0
  6 12  1  0  0  0  0
  8 10  1  0  0  0  0
  8 11  2  0  0  0  0
  9 13  1  0  0  0  0
  9 14  1  0  0  0  0
  9 15  1  0  0  0  0
 10 16  1  0  0  0  0
 10 17  1  0  0  0  0
 10 18  1  0  0  0  0
 19 20  1  0  0  0  0
 20 21  1  0  0  0  0
 20 22  1  0  0  0  0
 20 23  1  0  0  0  0
 23 24  4  0  0  0  0
 23 28  4  0  0  0  0
 24 25  4  0  0  0  0
 24 30  1  0  0  0  0
 25 26  4  0  0  0  0
 25 29  1  0  0  0  0
 26 27  4  0  0  0  0
 26 31  1  0  0  0  0
 27 28  4  0  0  0  0
 27 32  1  0  0  0  0
 28 33  1  0  0  0  0
 29 34  1  0  0  0  0
 29 35  1  0  0  0  0
M  END
> <BCLConfClusterSize>
1

> <ConfClashScore>
0 

> <ConfOneFourInteractionScore>
-0.948581 

> <ConfScore>
-0.165545 

> <ConfScorePBest>
0.00734966 

> <ConfTolerance>
0.331778 

> <RosettaParamsInstructions>
M  ROOT 3
M  POLY_N_BB 3
M  POLY_CA_BB 4
M  POLY_C_BB 2
M  POLY_O_BB 5
M  POLY_IGNORE 9 10 11 12 13 14 15 16 17 18 
M  POLY_UPPER 6
M  POLY_LOWER 8
M  POLY_CHG 0
M  POLY_PROPERTIES ALPHA_AA L_AA PROTEIN AROMATIC POLYMER 
M  END

$$$$



 35 35  0  0  0  0  0  0  0  0999 V2000
    0.0622    3.1482   -0.4332 H   0  0  0  1  0  0  0  0  0  0  0  0
    0.0887    1.0624   -0.1819 C   0  0  0  1  0  0  0  0  0  0  0  0
   -1.6218    2.4087   -1.3607 N   0  0  0  1  0  0  0  0  0  0  0  0
   -0.6609    2.3779   -0.2639 C   0  0  0  1  0  0  0  0  0  0  0  0
   -0.3904    0.0326   -0.6548 O   0  0  0  1  0  0  0  0  0  0  0  0
    1.2881    1.0560    0.4210 N   0  0  0  1  0  0  0  0  0  0  0  0
   -2.4131    1.8325   -1.3126 H   0  0  0  1  0  0  0  0  0  0  0  0
   -1.4609    3.1951   -2.4287 C   0  0  0  1  0  0  0  0  0  0  0  0
    2.0432   -0.1501    0.7261 C   0  0  0  1  0  0  0  0  0  0  0  0
   -2.5269    3.0814   -3.4948 C   0  0  0  1  0  0  0  0  0  0  0  0
   -0.5130    3.9681   -2.5541 O   0  0  0  1  0  0  0  0  0  0  0  0
    1.6803    1.9184    0.6717 H   0  0  0  1  0  0  0  0  0  0  0  0
    2.1852   -0.7187   -0.1691 H   0  0  0  1  0  0  0  0  0  0  0  0
    1.5037   -0.7374    1.4395 H   0  0  0  1  0  0  0  0  0  0  0  0
    2.9958    0.1189    1.1323 H   0  0  0  1  0  0  0  0  0  0  0  0
   -3.4545    2.7973   -3.0435 H   0  0  0  1  0  0  0  0  0  0  0  0
   -2.2374    2.3408   -4.2108 H   0  0  0  1  0  0  0  0  0  0  0  0
   -2.6433    4.0255   -3.9847 H   0  0  0  1  0  0  0  0  0  0  0  0
   -0.2974    7.6002    1.2633 F   0  0  0  1  0  0  0  0  0  0  0  0
   -1.6184    7.7082    1.1111 C   0  0  0  1  0  0  0  0  0  0  0  0
   -2.0535    8.4390    2.1386 F   0  0  0  1  0  0  0  0  0  0  0  0
   -1.8091    8.4488    0.0185 F   0  0  0  1  0  0  0  0  0  0  0  0
   -2.3048    6.3604    1.0256 C   0  0  0  1  0  0  0  0  0  0  0  0
   -1.5550    5.1959    1.0831 C   0  0  0  1  0  0  0  0  0  0  0  0
   -2.1809    3.9664    0.9998 C   0  0  0  1  0  0  0  0  0  0  0  0
   -3.5587    3.8976    0.8641 C   0  0  0  1  0  0  0  0  0  0  0  0
   -4.3061    5.0588    0.8068 C   0  0  0  1  0  0  0  0  0  0  0  0
   -3.6786    6.2920    0.8904 C   0  0  0  1  0  0  0  0  0  0  0  0
   -1.3634    2.6976    1.0566 C   0  0  0  1  0  0  0  0  0  0  0  0
   -0.5217    5.2474    1.1890 H   0  0  0  1  0  0  0  0  0  0  0  0
   -4.0300    2.9724    0.8055 H   0  0  0  1  0  0  0  0  0  0  0  0
   -5.3394    5.0073    0.7010 H   0  0  0  1  0  0  0  0  0  0  0  0
   -4.2415    7.1656    0.8513 H   0  0  0  1  0  0  0  0  0  0  0  0
   -0.6214    2.8044    1.8200 H   0  0  0  1  0  0  0  0  0  0  0  0
   -2.0138    1.8841    1.3020 H   0  0  0  1  0  0  0  0  0  0  0  0
  1  4  1  0  0  0  0
  2  4  1  0  0  0  0
  2  5  2  0  0  0  0
  2  6  1  0  0  0  0
  3  4  1  0  0  0  0
  3  7  1  0  0  0  0
  3  8  1  0  0  0  0
  4 29  1  0  0  0  0
  6  9  1  0  0  0  0
  6 12  1  0  0  0  0
  8 10  1  0  0  0  0
  8 11  2  0  0  0  0
  9 13  1  0  0  0  0
  9 14  1  0  0  0  0
  9 15  1  0  0  0  0
 10 16  1  0  0  0  0
 10 17  1  0  0  0  0
 10 18  1  0  0  0  0
 19 20  1  0  0  0  0
 20 21  1  0  0  0  0
 20 22  1  0  0  0  0
 20 23  1  0  0  0  0
 23 24  4  0  0  0  0
 23 28  4  0  0  0  0
 24 25  4  0  0  0  0
 24 30  1  0  0  0  0
 25 26  4  0  0  0  0
 25 29  1  0  0  0  0
 26 27  4  0  0  0  0
 26 31  1  0  0  0  0
 27 28  4  0  0  0  0
 27 32  1  0  0  0  0
 28 33  1  0  0  0  0
 29 34  1  0  0  0  0
 29 35  1  0  0  0  0
M  END
> <BCLConfClusterSize>
1

> <ConfClashScore>
0 

> <ConfOneFourInteractionScore>
-0.985807 

> <ConfScore>
-0.165126 

> <ConfScorePBest>
0.00732118 

> <ConfTolerance>
0.320405 

> <RosettaParamsInstructions>
M  ROOT 3
M  POLY_N_BB 3
M  POLY_CA_BB 4
M  POLY_C_BB 2
M  POLY_O_BB 5
M  POLY_IGNORE 9 10 11 12 13 14 15 16 17 18 
M  POLY_UPPER 6
M  POLY_LOWER 8
M  POLY_CHG 0
M  POLY_PROPERTIES ALPHA_AA L_AA PROTEIN AROMATIC POLYMER 
M  END

$$$$



 35 35  0  0  0  0  0  0  0  0999 V2000
   -1.9486    1.9310    2.9363 H   0  0  0  1  0  0  0  0  0  0  0  0
   -0.0527    1.0793    2.4592 C   0  0  0  1  0  0  0  0  0  0  0  0
   -0.4542    3.3552    3.1895 N   0  0  0  1  0  0  0  0  0  0  0  0
   -1.0430    2.2437    2.4599 C   0  0  0  1  0  0  0  0  0  0  0  0
    1.1508    1.2647    2.6343 O   0  0  0  1  0  0  0  0  0  0  0  0
   -0.5831   -0.1372    2.2572 N   0  0  0  1  0  0  0  0  0  0  0  0
    0.3211    3.8269    2.8196 H   0  0  0  1  0  0  0  0  0  0  0  0
   -0.9702    3.7364    4.3679 C   0  0  0  1  0  0  0  0  0  0  0  0
    0.2348   -1.3381    2.1754 C   0  0  0  1  0  0  0  0  0  0  0  0
   -0.3558    4.9775    4.9854 C   0  0  0  1  0  0  0  0  0  0  0  0
   -1.8819    3.1314    4.9258 O   0  0  0  1  0  0  0  0  0  0  0  0
   -1.5550   -0.2195    2.1614 H   0  0  0  1  0  0  0  0  0  0  0  0
    1.2667   -1.0752    2.2798 H   0  0  0  1  0  0  0  0  0  0  0  0
    0.0814   -1.8100    1.2274 H   0  0  0  1  0  0  0  0  0  0  0  0
   -0.0423   -2.0121    2.9589 H   0  0  0  1  0  0  0  0  0  0  0  0
   -0.3987    5.7842    4.2838 H   0  0  0  1  0  0  0  0  0  0  0  0
    0.6645    4.7809    5.2406 H   0  0  0  1  0  0  0  0  0  0  0  0
   -0.8998    5.2432    5.8677 H   0  0  0  1  0  0  0  0  0  0  0  0
   -0.2895    7.6006    1.1461 F   0  0  0  1  0  0  0  0  0  0  0  0
   -1.6192    7.7047    1.1136 C   0  0  0  1  0  0  0  0  0  0  0  0
   -1.9669    8.3827    2.2084 F   0  0  0  1  0  0  0  0  0  0  0  0
   -1.9067    8.4943    0.0780 F   0  0  0  1  0  0  0  0  0  0  0  0
   -2.3027    6.3607    1.0238 C   0  0  0  1  0  0  0  0  0  0  0  0
   -1.5529    5.2003    1.0621 C   0  0  0  1  0  0  0  0  0  0  0  0
   -2.1808    3.9668    0.9851 C   0  0  0  1  0  0  0  0  0  0  0  0
   -3.5559    3.8975    0.8646 C   0  0  0  1  0  0  0  0  0  0  0  0
   -4.3076    5.0615    0.8262 C   0  0  0  1  0  0  0  0  0  0  0  0
   -3.6818    6.2914    0.9030 C   0  0  0  1  0  0  0  0  0  0  0  0
   -1.3620    2.6984    1.0328 C   0  0  0  1  0  0  0  0  0  0  0  0
   -0.5178    5.2525    1.1487 H   0  0  0  1  0  0  0  0  0  0  0  0
   -4.0266    2.9721    0.8028 H   0  0  0  1  0  0  0  0  0  0  0  0
   -5.3427    5.0093    0.7396 H   0  0  0  1  0  0  0  0  0  0  0  0
   -4.2456    7.1647    0.8701 H   0  0  0  1  0  0  0  0  0  0  0  0
   -1.9094    1.9210    0.5420 H   0  0  0  1  0  0  0  0  0  0  0  0
   -0.4409    2.8679    0.5155 H   0  0  0  1  0  0  0  0  0  0  0  0
  1  4  1  0  0  0  0
  2  4  1  0  0  0  0
  2  5  2  0  0  0  0
  2  6  1  0  0  0  0
  3  4  1  0  0  0  0
  3  7  1  0  0  0  0
  3  8  1  0  0  0  0
  4 29  1  0  0  0  0
  6  9  1  0  0  0  0
  6 12  1  0  0  0  0
  8 10  1  0  0  0  0
  8 11  2  0  0  0  0
  9 13  1  0  0  0  0
  9 14  1  0  0  0  0
  9 15  1  0  0  0  0
 10 16  1  0  0  0  0
 10 17  1  0  0  0  0
 10 18  1  0  0  0  0
 19 20  1  0  0  0  0
 20 21  1  0  0  0  0
 20 22  1  0  0  0  0
 20 23  1  0  0  0  0
 23 24  4  0  0  0  0
 23 28  4  0  0  0  0
 24 25  4  0  0  0  0
 24 30  1  0  0  0  0
 25 26  4  0  0  0  0
 25 29  1  0  0  0  0
 26 27  4  0  0  0  0
 26 31  1  0  0  0  0
 27 28  4  0  0  0  0
 27 32  1  0  0  0  0
 28 33  1  0  0  0  0
 29 34  1  0  0  0  0
 29 35  1  0  0  0  0
M  END
> <BCLConfClusterSize>
1

> <ConfClashScore>
0 

> <ConfOneFourInteractionScore>
-0.987695 

> <ConfScore>
-0.164484 

> <ConfScorePBest>
0.0072927 

> <ConfTolerance>
0.390742 

> <RosettaParamsInstructions>
M  ROOT 3
M  POLY_N_BB 3
M  POLY_CA_BB 4
M  POLY_C_BB 2
M  POLY_O_BB 5
M  POLY_IGNORE 9 10 11 12 13 14 15 16 17 18 
M  POLY_UPPER 6
M  POLY_LOWER 8
M  POLY_CHG 0
M  POLY_PROPERTIES ALPHA_AA L_AA PROTEIN AROMATIC POLYMER 
M  END

$$$$



 35 35  0  0  0  0  0  0  0  0999 V2000
   -2.2113    1.6095    2.6531 H   0  0  0  1  0  0  0  0  0  0  0  0
   -0.2136    0.9443    2.5029 C   0  0  0  1  0  0  0  0  0  0  0  0
   -0.9664    3.0426    3.4545 N   0  0  0  1  0  0  0  0  0  0  0  0
   -1.2619    2.0506    2.4316 C   0  0  0  1  0  0  0  0  0  0  0  0
   -0.4534   -0.1859    2.0806 O   0  0  0  1  0  0  0  0  0  0  0  0
    0.9903    1.2973    2.9623 N   0  0  0  1  0  0  0  0  0  0  0  0
   -0.4625    3.8449    3.2038 H   0  0  0  1  0  0  0  0  0  0  0  0
   -1.3614    2.8964    4.7343 C   0  0  0  1  0  0  0  0  0  0  0  0
    2.1718    0.4479    2.9417 C   0  0  0  1  0  0  0  0  0  0  0  0
   -1.0147    4.0908    5.6250 C   0  0  0  1  0  0  0  0  0  0  0  0
   -1.9473    1.9097    5.1779 O   0  0  0  1  0  0  0  0  0  0  0  0
    1.0848    2.1959    3.3417 H   0  0  0  1  0  0  0  0  0  0  0  0
    1.9014   -0.5472    3.2270 H   0  0  0  1  0  0  0  0  0  0  0  0
    2.8979    0.8307    3.6281 H   0  0  0  1  0  0  0  0  0  0  0  0
    2.5849    0.4359    1.9547 H   0  0  0  1  0  0  0  0  0  0  0  0
    0.0091    4.3630    5.4749 H   0  0  0  1  0  0  0  0  0  0  0  0
   -1.1666    3.8265    6.6507 H   0  0  0  1  0  0  0  0  0  0  0  0
   -1.6442    4.9184    5.3724 H   0  0  0  1  0  0  0  0  0  0  0  0
   -0.2887    7.6161    1.2281 F   0  0  0  1  0  0  0  0  0  0  0  0
   -1.6155    7.7048    1.1200 C   0  0  0  1  0  0  0  0  0  0  0  0
   -2.0356    8.4417    2.1495 F   0  0  0  1  0  0  0  0  0  0  0  0
   -1.8313    8.4602    0.0392 F   0  0  0  1  0  0  0  0  0  0  0  0
   -2.3025    6.3565    1.0272 C   0  0  0  1  0  0  0  0  0  0  0  0
   -1.5551    5.1950    1.0771 C   0  0  0  1  0  0  0  0  0  0  0  0
   -2.1836    3.9621    0.9976 C   0  0  0  1  0  0  0  0  0  0  0  0
   -3.5575    3.8944    0.8630 C   0  0  0  1  0  0  0  0  0  0  0  0
   -4.3074    5.0592    0.8129 C   0  0  0  1  0  0  0  0  0  0  0  0
   -3.6804    6.2884    0.8922 C   0  0  0  1  0  0  0  0  0  0  0  0
   -1.3671    2.6928    1.0580 C   0  0  0  1  0  0  0  0  0  0  0  0
   -0.5209    5.2461    1.1743 H   0  0  0  1  0  0  0  0  0  0  0  0
   -4.0287    2.9695    0.7993 H   0  0  0  1  0  0  0  0  0  0  0  0
   -5.3416    5.0082    0.7157 H   0  0  0  1  0  0  0  0  0  0  0  0
   -4.2426    7.1624    0.8506 H   0  0  0  1  0  0  0  0  0  0  0  0
   -1.8130    1.9816    0.3944 H   0  0  0  1  0  0  0  0  0  0  0  0
   -0.3767    2.9212    0.7237 H   0  0  0  1  0  0  0  0  0  0  0  0
  1  4  1  0  0  0  0
  2  4  1  0  0  0  0
  2  5  2  0  0  0  0
  2  6  1  0  0  0  0
  3  4  1  0  0  0  0
  3  7  1  0  0  0  0
  3  8  1  0  0  0  0
  4 29  1  0  0  0  0
  6  9  1  0  0  0  0
  6 12  1  0  0  0  0
  8 10  1  0  0  0  0
  8 11  2  0  0  0  0
  9 13  1  0  0  0  0
  9 14  1  0  0  0  0
  9 15  1  0  0  0  0
 10 16  1  0  0  0  0
 10 17  1  0  0  0  0
 10 18  1  0  0  0  0
 19 20  1  0  0  0  0
 20 21  1  0  0  0  0
 20 22  1  0  0  0  0
 20 23  1  0  0  0  0
 23 24  4  0  0  0  0
 23 28  4  0  0  0  0
 24 25  4  0  0  0  0
 24 30  1  0  0  0  0
 25 26  4  0  0  0  0
 25 29  1  0  0  0  0
 26 27  4  0  0  0  0
 26 31  1  0  0  0  0
 27 28  4  0  0  0  0
 27 32  1  0  0  0  0
 28 33  1  0  0  0  0
 29 34  1  0  0  0  0
 29 35  1  0  0  0  0
M  END
> <BCLConfClusterSize>
1

> <ConfClashScore>
0 

> <ConfOneFourInteractionScore>
-0.94165 

> <ConfScore>
-0.16273 

> <ConfScorePBest>
0.00726422 

> <ConfTolerance>
0.349355 

> <RosettaParamsInstructions>
M  ROOT 3
M  POLY_N_BB 3
M  POLY_CA_BB 4
M  POLY_C_BB 2
M  POLY_O_BB 5
M  POLY_IGNORE 9 10 11 12 13 14 15 16 17 18 
M  POLY_UPPER 6
M  POLY_LOWER 8
M  POLY_CHG 0
M  POLY_PROPERTIES ALPHA_AA L_AA PROTEIN AROMATIC POLYMER 
M  END

$$$$



 35 35  0  0  0  0  0  0  0  0999 V2000
    0.2149    3.3791   -0.0058 H   0  0  0  1  0  0  0  0  0  0  0  0
    0.5650    1.3231    0.2124 C   0  0  0  1  0  0  0  0  0  0  0  0
   -1.0502    2.3815   -1.2782 N   0  0  0  1  0  0  0  0  0  0  0  0
   -0.3914    2.4980    0.0256 C   0  0  0  1  0  0  0  0  0  0  0  0
    1.6025    1.5197    0.8437 O   0  0  0  1  0  0  0  0  0  0  0  0
    0.2285    0.1484   -0.3160 N   0  0  0  1  0  0  0  0  0  0  0  0
   -2.0247    2.2827   -1.3085 H   0  0  0  1  0  0  0  0  0  0  0  0
   -0.3685    2.4052   -2.4270 C   0  0  0  1  0  0  0  0  0  0  0  0
    1.1266   -0.9965   -0.3013 C   0  0  0  1  0  0  0  0  0  0  0  0
   -1.1773    2.1262   -3.6789 C   0  0  0  1  0  0  0  0  0  0  0  0
    0.8284    2.6347   -2.4846 O   0  0  0  1  0  0  0  0  0  0  0  0
   -0.6548    0.0514   -0.7292 H   0  0  0  1  0  0  0  0  0  0  0  0
    1.9106   -0.8265    0.4068 H   0  0  0  1  0  0  0  0  0  0  0  0
    1.5490   -1.1307   -1.2753 H   0  0  0  1  0  0  0  0  0  0  0  0
    0.5807   -1.8742   -0.0247 H   0  0  0  1  0  0  0  0  0  0  0  0
   -1.9578    1.4303   -3.4521 H   0  0  0  1  0  0  0  0  0  0  0  0
   -0.5386    1.7127   -4.4311 H   0  0  0  1  0  0  0  0  0  0  0  0
   -1.6063    3.0388   -4.0367 H   0  0  0  1  0  0  0  0  0  0  0  0
   -0.3860    7.6222    1.6219 F   0  0  0  1  0  0  0  0  0  0  0  0
   -1.6173    7.7085    1.1156 C   0  0  0  1  0  0  0  0  0  0  0  0
   -2.2804    8.5667    1.8922 F   0  0  0  1  0  0  0  0  0  0  0  0
   -1.4917    8.3002   -0.0729 F   0  0  0  1  0  0  0  0  0  0  0  0
   -2.3031    6.3594    1.0232 C   0  0  0  1  0  0  0  0  0  0  0  0
   -1.5617    5.1982    1.1327 C   0  0  0  1  0  0  0  0  0  0  0  0
   -2.1893    3.9648    1.0535 C   0  0  0  1  0  0  0  0  0  0  0  0
   -3.5560    3.8963    0.8597 C   0  0  0  1  0  0  0  0  0  0  0  0
   -4.2999    5.0608    0.7498 C   0  0  0  1  0  0  0  0  0  0  0  0
   -3.6739    6.2905    0.8288 C   0  0  0  1  0  0  0  0  0  0  0  0
   -1.3797    2.6958    1.1791 C   0  0  0  1  0  0  0  0  0  0  0  0
   -0.5327    5.2498    1.2745 H   0  0  0  1  0  0  0  0  0  0  0  0
   -4.0264    2.9709    0.7963 H   0  0  0  1  0  0  0  0  0  0  0  0
   -5.3289    5.0092    0.6080 H   0  0  0  1  0  0  0  0  0  0  0  0
   -4.2314    7.1642    0.7423 H   0  0  0  1  0  0  0  0  0  0  0  0
   -0.8299    2.7320    2.0963 H   0  0  0  1  0  0  0  0  0  0  0  0
   -2.0519    1.8635    1.1982 H   0  0  0  1  0  0  0  0  0  0  0  0
  1  4  1  0  0  0  0
  2  4  1  0  0  0  0
  2  5  2  0  0  0  0
  2  6  1  0  0  0  0
  3  4  1  0  0  0  0
  3  7  1  0  0  0  0
  3  8  1  0  0  0  0
  4 29  1  0  0  0  0
  6  9  1  0  0  0  0
  6 12  1  0  0  0  0
  8 10  1  0  0  0  0
  8 11  2  0  0  0  0
  9 13  1  0  0  0  0
  9 14  1  0  0  0  0
  9 15  1  0  0  0  0
 10 16  1  0  0  0  0
 10 17  1  0  0  0  0
 10 18  1  0  0  0  0
 19 20  1  0  0  0  0
 20 21  1  0  0  0  0
 20 22  1  0  0  0  0
 20 23  1  0  0  0  0
 23 24  4  0  0  0  0
 23 28  4  0  0  0  0
 24 25  4  0  0  0  0
 24 30  1  0  0  0  0
 25 26  4  0  0  0  0
 25 29  1  0  0  0  0
 26 27  4  0  0  0  0
 26 31  1  0  0  0  0
 27 28  4  0  0  0  0
 27 32  1  0  0  0  0
 28 33  1  0  0  0  0
 29 34  1  0  0  0  0
 29 35  1  0  0  0  0
M  END
> <BCLConfClusterSize>
1

> <ConfClashScore>
0 

> <ConfOneFourInteractionScore>
-0.960318 

> <ConfScore>
-0.156896 

> <ConfScorePBest>
0.00723574 

> <ConfTolerance>
0.321162 

> <RosettaParamsInstructions>
M  ROOT 3
M  POLY_N_BB 3
M  POLY_CA_BB 4
M  POLY_C_BB 2
M  POLY_O_BB 5
M  POLY_IGNORE 9 10 11 12 13 14 15 16 17 18 
M  POLY_UPPER 6
M  POLY_LOWER 8
M  POLY_CHG 0
M  POLY_PROPERTIES ALPHA_AA L_AA PROTEIN AROMATIC POLYMER 
M  END

$$$$



 35 35  0  0  0  0  0  0  0  0999 V2000
   -1.6752    2.4164    2.9683 H   0  0  0  1  0  0  0  0  0  0  0  0
   -0.4381    0.8371    2.3420 C   0  0  0  1  0  0  0  0  0  0  0  0
    0.2216    3.1694    2.7730 N   0  0  0  1  0  0  0  0  0  0  0  0
   -0.8494    2.3070    2.2967 C   0  0  0  1  0  0  0  0  0  0  0  0
   -1.2063   -0.0182    2.7501 O   0  0  0  1  0  0  0  0  0  0  0  0
    0.8318    0.5904    1.9831 N   0  0  0  1  0  0  0  0  0  0  0  0
    0.6544    3.8131    2.1741 H   0  0  0  1  0  0  0  0  0  0  0  0
    0.6018    3.0575    4.0627 C   0  0  0  1  0  0  0  0  0  0  0  0
    1.3921   -0.7527    1.9814 C   0  0  0  1  0  0  0  0  0  0  0  0
    1.8249    3.8313    4.5150 C   0  0  0  1  0  0  0  0  0  0  0  0
   -0.0237    2.3491    4.8505 O   0  0  0  1  0  0  0  0  0  0  0  0
    1.4012    1.3408    1.7129 H   0  0  0  1  0  0  0  0  0  0  0  0
    1.3349   -1.1648    2.9672 H   0  0  0  1  0  0  0  0  0  0  0  0
    2.4153   -0.7116    1.6710 H   0  0  0  1  0  0  0  0  0  0  0  0
    0.8381   -1.3692    1.3047 H   0  0  0  1  0  0  0  0  0  0  0  0
    2.6644    3.5575    3.9107 H   0  0  0  1  0  0  0  0  0  0  0  0
    2.0331    3.6019    5.5392 H   0  0  0  1  0  0  0  0  0  0  0  0
    1.6402    4.8804    4.4144 H   0  0  0  1  0  0  0  0  0  0  0  0
   -0.4203    7.6954    0.5622 F   0  0  0  1  0  0  0  0  0  0  0  0
   -1.6311    7.7136    1.1223 C   0  0  0  1  0  0  0  0  0  0  0  0
   -1.4125    8.0984    2.3585 F   0  0  0  1  0  0  0  0  0  0  0  0
   -2.2769    8.6646    0.4928 F   0  0  0  1  0  0  0  0  0  0  0  0
   -2.3117    6.3640    1.0295 C   0  0  0  1  0  0  0  0  0  0  0  0
   -1.5545    5.2080    1.0102 C   0  0  0  1  0  0  0  0  0  0  0  0
   -2.1776    3.9723    0.9306 C   0  0  0  1  0  0  0  0  0  0  0  0
   -3.5561    3.8966    0.8651 C   0  0  0  1  0  0  0  0  0  0  0  0
   -4.3158    5.0560    0.8843 C   0  0  0  1  0  0  0  0  0  0  0  0
   -3.6942    6.2880    0.9637 C   0  0  0  1  0  0  0  0  0  0  0  0
   -1.3502    2.7087    0.9155 C   0  0  0  1  0  0  0  0  0  0  0  0
   -0.5171    5.2652    1.0555 H   0  0  0  1  0  0  0  0  0  0  0  0
   -4.0235    2.9698    0.8013 H   0  0  0  1  0  0  0  0  0  0  0  0
   -5.3532    4.9989    0.8390 H   0  0  0  1  0  0  0  0  0  0  0  0
   -4.2639    7.1580    0.9741 H   0  0  0  1  0  0  0  0  0  0  0  0
   -1.9506    1.9132    0.5262 H   0  0  0  1  0  0  0  0  0  0  0  0
   -0.5047    2.8629    0.2782 H   0  0  0  1  0  0  0  0  0  0  0  0
  1  4  1  0  0  0  0
  2  4  1  0  0  0  0
  2  5  2  0  0  0  0
  2  6  1  0  0  0  0
  3  4  1  0  0  0  0
  3  7  1  0  0  0  0
  3  8  1  0  0  0  0
  4 29  1  0  0  0  0
  6  9  1  0  0  0  0
  6 12  1  0  0  0  0
  8 10  1  0  0  0  0
  8 11  2  0  0  0  0
  9 13  1  0  0  0  0
  9 14  1  0  0  0  0
  9 15  1  0  0  0  0
 10 16  1  0  0  0  0
 10 17  1  0  0  0  0
 10 18  1  0  0  0  0
 19 20  1  0  0  0  0
 20 21  1  0  0  0  0
 20 22  1  0  0  0  0
 20 23  1  0  0  0  0
 23 24  4  0  0  0  0
 23 28  4  0  0  0  0
 24 25  4  0  0  0  0
 24 30  1  0  0  0  0
 25 26  4  0  0  0  0
 25 29  1  0  0  0  0
 26 27  4  0  0  0  0
 26 31  1  0  0  0  0
 27 28  4  0  0  0  0
 27 32  1  0  0  0  0
 28 33  1  0  0  0  0
 29 34  1  0  0  0  0
 29 35  1  0  0  0  0
M  END
> <BCLConfClusterSize>
1

> <ConfClashScore>
0 

> <ConfOneFourInteractionScore>
-0.944706 

> <ConfScore>
-0.155363 

> <ConfScorePBest>
0.00720726 

> <ConfTolerance>
0.345733 

> <RosettaParamsInstructions>
M  ROOT 3
M  POLY_N_BB 3
M  POLY_CA_BB 4
M  POLY_C_BB 2
M  POLY_O_BB 5
M  POLY_IGNORE 9 10 11 12 13 14 15 16 17 18 
M  POLY_UPPER 6
M  POLY_LOWER 8
M  POLY_CHG 0
M  POLY_PROPERTIES ALPHA_AA L_AA PROTEIN AROMATIC POLYMER 
M  END

$$$$



 35 35  0  0  0  0  0  0  0  0999 V2000
   -0.4446    3.1419   -0.9287 H   0  0  0  1  0  0  0  0  0  0  0  0
    0.1450    1.1782   -0.3853 C   0  0  0  1  0  0  0  0  0  0  0  0
   -2.0310    1.8613   -1.2747 N   0  0  0  1  0  0  0  0  0  0  0  0
   -0.9008    2.2921   -0.4654 C   0  0  0  1  0  0  0  0  0  0  0  0
   -0.1542    0.0082   -0.6204 O   0  0  0  1  0  0  0  0  0  0  0  0
    1.4060    1.5626   -0.1355 N   0  0  0  1  0  0  0  0  0  0  0  0
   -2.5683    1.1006   -0.9699 H   0  0  0  1  0  0  0  0  0  0  0  0
   -2.3614    2.4669   -2.4189 C   0  0  0  1  0  0  0  0  0  0  0  0
    2.5190    0.6250   -0.1363 C   0  0  0  1  0  0  0  0  0  0  0  0
   -3.5324    1.8631   -3.1694 C   0  0  0  1  0  0  0  0  0  0  0  0
   -1.7654    3.4523   -2.8517 O   0  0  0  1  0  0  0  0  0  0  0  0
    1.5837    2.5075    0.0540 H   0  0  0  1  0  0  0  0  0  0  0  0
    2.4036   -0.0658   -0.9452 H   0  0  0  1  0  0  0  0  0  0  0  0
    2.5347    0.0897    0.7900 H   0  0  0  1  0  0  0  0  0  0  0  0
    3.4371    1.1618   -0.2542 H   0  0  0  1  0  0  0  0  0  0  0  0
   -3.7484    0.8928   -2.7735 H   0  0  0  1  0  0  0  0  0  0  0  0
   -3.2850    1.7777   -4.2069 H   0  0  0  1  0  0  0  0  0  0  0  0
   -4.3903    2.4928   -3.0575 H   0  0  0  1  0  0  0  0  0  0  0  0
   -0.3605    7.6716    0.6676 F   0  0  0  1  0  0  0  0  0  0  0  0
   -1.6177    7.7075    1.1127 C   0  0  0  1  0  0  0  0  0  0  0  0
   -1.5575    8.1691    2.3627 F   0  0  0  1  0  0  0  0  0  0  0  0
   -2.2404    8.6454    0.3976 F   0  0  0  1  0  0  0  0  0  0  0  0
   -2.3033    6.3598    1.0242 C   0  0  0  1  0  0  0  0  0  0  0  0
   -1.5502    5.2009    1.0124 C   0  0  0  1  0  0  0  0  0  0  0  0
   -2.1780    3.9673    0.9367 C   0  0  0  1  0  0  0  0  0  0  0  0
   -3.5565    3.8964    0.8678 C   0  0  0  1  0  0  0  0  0  0  0  0
   -4.3117    5.0587    0.8796 C   0  0  0  1  0  0  0  0  0  0  0  0
   -3.6860    6.2888    0.9550 C   0  0  0  1  0  0  0  0  0  0  0  0
   -1.3553    2.7006    0.9297 C   0  0  0  1  0  0  0  0  0  0  0  0
   -0.5127    5.2544    1.0602 H   0  0  0  1  0  0  0  0  0  0  0  0
   -4.0272    2.9710    0.8070 H   0  0  0  1  0  0  0  0  0  0  0  0
   -5.3492    5.0052    0.8318 H   0  0  0  1  0  0  0  0  0  0  0  0
   -4.2524    7.1610    0.9598 H   0  0  0  1  0  0  0  0  0  0  0  0
   -0.4891    2.8536    1.5389 H   0  0  0  1  0  0  0  0  0  0  0  0
   -1.9459    1.9087    1.3410 H   0  0  0  1  0  0  0  0  0  0  0  0
  1  4  1  0  0  0  0
  2  4  1  0  0  0  0
  2  5  2  0  0  0  0
  2  6  1  0  0  0  0
  3  4  1  0  0  0  0
  3  7  1  0  0  0  0
  3  8  1  0  0  0  0
  4 29  1  0  0  0  0
  6  9  1  0  0  0  0
  6 12  1  0  0  0  0
  8 10  1  0  0  0  0
  8 11  2  0  0  0  0
  9 13  1  0  0  0  0
  9 14  1  0  0  0  0
  9 15  1  0  0  0  0
 10 16  1  0  0  0  0
 10 17  1  0  0  0  0
 10 18  1  0  0  0  0
 19 20  1  0  0  0  0
 20 21  1  0  0  0  0
 20 22  1  0  0  0  0
 20 23  1  0  0  0  0
 23 24  4  0  0  0  0
 23 28  4  0  0  0  0
 24 25  4  0  0  0  0
 24 30  1  0  0  0  0
 25 26  4  0  0  0  0
 25 29  1  0  0  0  0
 26 27  4  0  0  0  0
 26 31  1  0  0  0  0
 27 28  4  0  0  0  0
 27 32  1  0  0  0  0
 28 33  1  0  0  0  0
 29 34  1  0  0  0  0
 29 35  1  0  0  0  0
M  END
> <BCLConfClusterSize>
1

> <ConfClashScore>
0 

> <ConfOneFourInteractionScore>
-0.985807 

> <ConfScore>
-0.155228 

> <ConfScorePBest>
0.00717878 

> <ConfTolerance>
0.328362 

> <RosettaParamsInstructions>
M  ROOT 3
M  POLY_N_BB 3
M  POLY_CA_BB 4
M  POLY_C_BB 2
M  POLY_O_BB 5
M  POLY_IGNORE 9 10 11 12 13 14 15 16 17 18 
M  POLY_UPPER 6
M  POLY_LOWER 8
M  POLY_CHG 0
M  POLY_PROPERTIES ALPHA_AA L_AA PROTEIN AROMATIC POLYMER 
M  END

$$$$



 35 35  0  0  0  0  0  0  0  0999 V2000
   -0.2225    2.9051   -0.7471 H   0  0  0  1  0  0  0  0  0  0  0  0
   -0.3403    0.8399   -0.2863 C   0  0  0  1  0  0  0  0  0  0  0  0
   -2.1210    2.2218   -1.2357 N   0  0  0  1  0  0  0  0  0  0  0  0
   -0.9543    2.2241   -0.3658 C   0  0  0  1  0  0  0  0  0  0  0  0
    0.8723    0.6952   -0.1368 O   0  0  0  1  0  0  0  0  0  0  0  0
   -1.1584   -0.2200   -0.3836 N   0  0  0  1  0  0  0  0  0  0  0  0
   -2.9886    2.5198   -0.8909 H   0  0  0  1  0  0  0  0  0  0  0  0
   -2.0118    1.8144   -2.5034 C   0  0  0  1  0  0  0  0  0  0  0  0
   -0.6594   -1.5866   -0.4172 C   0  0  0  1  0  0  0  0  0  0  0  0
   -3.2761    1.8984   -3.3679 C   0  0  0  1  0  0  0  0  0  0  0  0
   -0.9558    1.4630   -3.0034 O   0  0  0  1  0  0  0  0  0  0  0  0
   -2.1252   -0.0681   -0.4339 H   0  0  0  1  0  0  0  0  0  0  0  0
    0.3969   -1.5771   -0.5877 H   0  0  0  1  0  0  0  0  0  0  0  0
   -1.1429   -2.1233   -1.2065 H   0  0  0  1  0  0  0  0  0  0  0  0
   -0.8652   -2.0643    0.5178 H   0  0  0  1  0  0  0  0  0  0  0  0
   -3.0154    1.7606   -4.3964 H   0  0  0  1  0  0  0  0  0  0  0  0
   -3.7314    2.8584   -3.2412 H   0  0  0  1  0  0  0  0  0  0  0  0
   -3.9636    1.1349   -3.0690 H   0  0  0  1  0  0  0  0  0  0  0  0
   -0.2900    7.6126    1.1969 F   0  0  0  1  0  0  0  0  0  0  0  0
   -1.6191    7.7023    1.1230 C   0  0  0  1  0  0  0  0  0  0  0  0
   -2.0140    8.4210    2.1751 F   0  0  0  1  0  0  0  0  0  0  0  0
   -1.8612    8.4746    0.0630 F   0  0  0  1  0  0  0  0  0  0  0  0
   -2.3053    6.3603    1.0243 C   0  0  0  1  0  0  0  0  0  0  0  0
   -1.5592    5.1939    1.0668 C   0  0  0  1  0  0  0  0  0  0  0  0
   -2.1689    3.9436    0.9933 C   0  0  0  1  0  0  0  0  0  0  0  0
   -3.5535    3.9024    0.8698 C   0  0  0  1  0  0  0  0  0  0  0  0
   -4.3052    5.0668    0.8167 C   0  0  0  1  0  0  0  0  0  0  0  0
   -3.6842    6.2925    0.8907 C   0  0  0  1  0  0  0  0  0  0  0  0
   -1.3526    2.6738    1.0461 C   0  0  0  1  0  0  0  0  0  0  0  0
   -0.5246    5.2528    1.1553 H   0  0  0  1  0  0  0  0  0  0  0  0
   -4.0341    2.9816    0.8162 H   0  0  0  1  0  0  0  0  0  0  0  0
   -5.3394    5.0135    0.7208 H   0  0  0  1  0  0  0  0  0  0  0  0
   -4.2473    7.1657    0.8467 H   0  0  0  1  0  0  0  0  0  0  0  0
   -0.4675    2.8494    1.6211 H   0  0  0  1  0  0  0  0  0  0  0  0
   -1.9325    1.9030    1.5093 H   0  0  0  1  0  0  0  0  0  0  0  0
  1  4  1  0  0  0  0
  2  4  1  0  0  0  0
  2  5  2  0  0  0  0
  2  6  1  0  0  0  0
  3  4  1  0  0  0  0
  3  7  1  0  0  0  0
  3  8  1  0  0  0  0
  4 29  1  0  0  0  0
  6  9  1  0  0  0  0
  6 12  1  0  0  0  0
  8 10  1  0  0  0  0
  8 11  2  0  0  0  0
  9 13  1  0  0  0  0
  9 14  1  0  0  0  0
  9 15  1  0  0  0  0
 10 16  1  0  0  0  0
 10 17  1  0  0  0  0
 10 18  1  0  0  0  0
 19 20  1  0  0  0  0
 20 21  1  0  0  0  0
 20 22  1  0  0  0  0
 20 23  1  0  0  0  0
 23 24  4  0  0  0  0
 23 28  4  0  0  0  0
 24 25  4  0  0  0  0
 24 30  1  0  0  0  0
 25 26  4  0  0  0  0
 25 29  1  0  0  0  0
 26 27  4  0  0  0  0
 26 31  1  0  0  0  0
 27 28  4  0  0  0  0
 27 32  1  0  0  0  0
 28 33  1  0  0  0  0
 29 34  1  0  0  0  0
 29 35  1  0  0  0  0
M  END
> <BCLConfClusterSize>
1

> <ConfClashScore>
0 

> <ConfOneFourInteractionScore>
-0.94165 

> <ConfScore>
-0.154712 

> <ConfScorePBest>
0.0071503 

> <ConfTolerance>
0.403724 

> <RosettaParamsInstructions>
M  ROOT 3
M  POLY_N_BB 3
M  POLY_CA_BB 4
M  POLY_C_BB 2
M  POLY_O_BB 5
M  POLY_IGNORE 9 10 11 12 13 14 15 16 17 18 
M  POLY_UPPER 6
M  POLY_LOWER 8
M  POLY_CHG 0
M  POLY_PROPERTIES ALPHA_AA L_AA PROTEIN AROMATIC POLYMER 
M  END

$$$$



 35 35  0  0  0  0  0  0  0  0999 V2000
   -2.8444    1.7807    2.5409 H   0  0  0  1  0  0  0  0  0  0  0  0
   -1.0653    0.6733    2.7679 C   0  0  0  1  0  0  0  0  0  0  0  0
   -1.5967    2.7731    3.8325 N   0  0  0  1  0  0  0  0  0  0  0  0
   -1.8013    2.0070    2.6154 C   0  0  0  1  0  0  0  0  0  0  0  0
   -1.5264   -0.3640    2.2943 O   0  0  0  1  0  0  0  0  0  0  0  0
    0.1375    0.7215    3.3619 N   0  0  0  1  0  0  0  0  0  0  0  0
   -1.0929    3.6123    3.7840 H   0  0  0  1  0  0  0  0  0  0  0  0
   -2.0715    2.3735    5.0156 C   0  0  0  1  0  0  0  0  0  0  0  0
    0.9719   -0.4596    3.5249 C   0  0  0  1  0  0  0  0  0  0  0  0
   -1.6043    3.1723    6.2168 C   0  0  0  1  0  0  0  0  0  0  0  0
   -2.8382    1.4224    5.1418 O   0  0  0  1  0  0  0  0  0  0  0  0
    0.4652    1.5820    3.6975 H   0  0  0  1  0  0  0  0  0  0  0  0
    0.4094   -1.2303    4.0092 H   0  0  0  1  0  0  0  0  0  0  0  0
    1.8257   -0.2134    4.1210 H   0  0  0  1  0  0  0  0  0  0  0  0
    1.2942   -0.8037    2.5643 H   0  0  0  1  0  0  0  0  0  0  0  0
   -1.9078    4.1925    6.1073 H   0  0  0  1  0  0  0  0  0  0  0  0
   -0.5375    3.1231    6.2844 H   0  0  0  1  0  0  0  0  0  0  0  0
   -2.0377    2.7650    7.1062 H   0  0  0  1  0  0  0  0  0  0  0  0
   -0.6086    7.7067    1.9841 F   0  0  0  1  0  0  0  0  0  0  0  0
   -1.6200    7.7051    1.1140 C   0  0  0  1  0  0  0  0  0  0  0  0
   -2.4483    8.6754    1.5037 F   0  0  0  1  0  0  0  0  0  0  0  0
   -1.1087    8.0968   -0.0537 F   0  0  0  1  0  0  0  0  0  0  0  0
   -2.3042    6.3615    1.0246 C   0  0  0  1  0  0  0  0  0  0  0  0
   -1.5737    5.1981    1.2103 C   0  0  0  1  0  0  0  0  0  0  0  0
   -2.1987    3.9685    1.1231 C   0  0  0  1  0  0  0  0  0  0  0  0
   -3.5570    3.8987    0.8553 C   0  0  0  1  0  0  0  0  0  0  0  0
   -4.2852    5.0587    0.6701 C   0  0  0  1  0  0  0  0  0  0  0  0
   -3.6585    6.2921    0.7575 C   0  0  0  1  0  0  0  0  0  0  0  0
   -1.4016    2.7007    1.3197 C   0  0  0  1  0  0  0  0  0  0  0  0
   -0.5554    5.2505    1.4152 H   0  0  0  1  0  0  0  0  0  0  0  0
   -4.0280    2.9735    0.7937 H   0  0  0  1  0  0  0  0  0  0  0  0
   -5.3035    5.0062    0.4652 H   0  0  0  1  0  0  0  0  0  0  0  0
   -4.2073    7.1650    0.6222 H   0  0  0  1  0  0  0  0  0  0  0  0
   -1.5841    2.0405    0.4976 H   0  0  0  1  0  0  0  0  0  0  0  0
   -0.3602    2.9434    1.3585 H   0  0  0  1  0  0  0  0  0  0  0  0
  1  4  1  0  0  0  0
  2  4  1  0  0  0  0
  2  5  2  0  0  0  0
  2  6  1  0  0  0  0
  3  4  1  0  0  0  0
  3  7  1  0  0  0  0
  3  8  1  0  0  0  0
  4 29  1  0  0  0  0
  6  9  1  0  0  0  0
  6 12  1  0  0  0  0
  8 10  1  0  0  0  0
  8 11  2  0  0  0  0
  9 13  1  0  0  0  0
  9 14  1  0  0  0  0
  9 15  1  0  0  0  0
 10 16  1  0  0  0  0
 10 17  1  0  0  0  0
 10 18  1  0  0  0  0
 19 20  1  0  0  0  0
 20 21  1  0  0  0  0
 20 22  1  0  0  0  0
 20 23  1  0  0  0  0
 23 24  4  0  0  0  0
 23 28  4  0  0  0  0
 24 25  4  0  0  0  0
 24 30  1  0  0  0  0
 25 26  4  0  0  0  0
 25 29  1  0  0  0  0
 26 27  4  0  0  0  0
 26 31  1  0  0  0  0
 27 28  4  0  0  0  0
 27 32  1  0  0  0  0
 28 33  1  0  0  0  0
 29 34  1  0  0  0  0
 29 35  1  0  0  0  0
M  END
> <BCLConfClusterSize>
1

> <ConfClashScore>
0 

> <ConfOneFourInteractionScore>
-0.94165 

> <ConfScore>
-0.154477 

> <ConfScorePBest>
0.00712182 

> <ConfTolerance>
0.3089 

> <RosettaParamsInstructions>
M  ROOT 3
M  POLY_N_BB 3
M  POLY_CA_BB 4
M  POLY_C_BB 2
M  POLY_O_BB 5
M  POLY_IGNORE 9 10 11 12 13 14 15 16 17 18 
M  POLY_UPPER 6
M  POLY_LOWER 8
M  POLY_CHG 0
M  POLY_PROPERTIES ALPHA_AA L_AA PROTEIN AROMATIC POLYMER 
M  END

$$$$



 35 35  0  0  0  0  0  0  0  0999 V2000
   -0.4609    3.1222   -0.5745 H   0  0  0  1  0  0  0  0  0  0  0  0
    0.3614    1.2907   -0.0021 C   0  0  0  1  0  0  0  0  0  0  0  0
   -1.8886    1.6827   -0.9402 N   0  0  0  1  0  0  0  0  0  0  0  0
   -0.8182    2.2398   -0.0861 C   0  0  0  1  0  0  0  0  0  0  0  0
    1.4899    1.7010    0.2136 O   0  0  0  1  0  0  0  0  0  0  0  0
    0.0777   -0.0094   -0.1792 N   0  0  0  1  0  0  0  0  0  0  0  0
   -2.7927    1.6285   -0.5659 H   0  0  0  1  0  0  0  0  0  0  0  0
   -1.6950    1.2321   -2.2371 C   0  0  0  1  0  0  0  0  0  0  0  0
    1.0617   -1.0813   -0.2021 C   0  0  0  1  0  0  0  0  0  0  0  0
   -2.8680    0.6908   -3.0051 C   0  0  0  1  0  0  0  0  0  0  0  0
   -0.5757    1.2904   -2.7127 O   0  0  0  1  0  0  0  0  0  0  0  0
   -0.8630   -0.2552   -0.3023 H   0  0  0  1  0  0  0  0  0  0  0  0
    0.7481   -1.8395   -0.8889 H   0  0  0  1  0  0  0  0  0  0  0  0
    1.1525   -1.5028    0.7771 H   0  0  0  1  0  0  0  0  0  0  0  0
    2.0082   -0.6896   -0.5115 H   0  0  0  1  0  0  0  0  0  0  0  0
   -3.7436    1.2575   -2.7663 H   0  0  0  1  0  0  0  0  0  0  0  0
   -3.0241   -0.3344   -2.7415 H   0  0  0  1  0  0  0  0  0  0  0  0
   -2.6714    0.7639   -4.0544 H   0  0  0  1  0  0  0  0  0  0  0  0
   -0.5048    7.6670    1.8469 F   0  0  0  1  0  0  0  0  0  0  0  0
   -1.6185    7.7079    1.1135 C   0  0  0  1  0  0  0  0  0  0  0  0
   -2.3948    8.6413    1.6663 F   0  0  0  1  0  0  0  0  0  0  0  0
   -1.2613    8.1790   -0.0820 F   0  0  0  1  0  0  0  0  0  0  0  0
   -2.3047    6.3606    1.0248 C   0  0  0  1  0  0  0  0  0  0  0  0
   -1.5687    5.1963    1.1807 C   0  0  0  1  0  0  0  0  0  0  0  0
   -2.1938    3.9666    1.0945 C   0  0  0  1  0  0  0  0  0  0  0  0
   -3.5578    3.8978    0.8573 C   0  0  0  1  0  0  0  0  0  0  0  0
   -4.2918    5.0585    0.7018 C   0  0  0  1  0  0  0  0  0  0  0  0
   -3.6647    6.2918    0.7883 C   0  0  0  1  0  0  0  0  0  0  0  0
   -1.3907    2.6980    1.2586 C   0  0  0  1  0  0  0  0  0  0  0  0
   -0.5461    5.2481    1.3626 H   0  0  0  1  0  0  0  0  0  0  0  0
   -4.0289    2.9726    0.7964 H   0  0  0  1  0  0  0  0  0  0  0  0
   -5.3144    5.0067    0.5198 H   0  0  0  1  0  0  0  0  0  0  0  0
   -4.2176    7.1653    0.6753 H   0  0  0  1  0  0  0  0  0  0  0  0
   -0.5853    2.8782    1.9396 H   0  0  0  1  0  0  0  0  0  0  0  0
   -2.0244    1.9298    1.6502 H   0  0  0  1  0  0  0  0  0  0  0  0
  1  4  1  0  0  0  0
  2  4  1  0  0  0  0
  2  5  2  0  0  0  0
  2  6  1  0  0  0  0
  3  4  1  0  0  0  0
  3  7  1  0  0  0  0
  3  8  1  0  0  0  0
  4 29  1  0  0  0  0
  6  9  1  0  0  0  0
  6 12  1  0  0  0  0
  8 10  1  0  0  0  0
  8 11  2  0  0  0  0
  9 13  1  0  0  0  0
  9 14  1  0  0  0  0
  9 15  1  0  0  0  0
 10 16  1  0  0  0  0
 10 17  1  0  0  0  0
 10 18  1  0  0  0  0
 19 20  1  0  0  0  0
 20 21  1  0  0  0  0
 20 22  1  0  0  0  0
 20 23  1  0  0  0  0
 23 24  4  0  0  0  0
 23 28  4  0  0  0  0
 24 25  4  0  0  0  0
 24 30  1  0  0  0  0
 25 26  4  0  0  0  0
 25 29  1  0  0  0  0
 26 27  4  0  0  0  0
 26 31  1  0  0  0  0
 27 28  4  0  0  0  0
 27 32  1  0  0  0  0
 28 33  1  0  0  0  0
 29 34  1  0  0  0  0
 29 35  1  0  0  0  0
M  END
> <BCLConfClusterSize>
1

> <ConfClashScore>
0 

> <ConfOneFourInteractionScore>
-0.956443 

> <ConfScore>
-0.152593 

> <ConfScorePBest>
0.00709334 

> <ConfTolerance>
0.356191 

> <RosettaParamsInstructions>
M  ROOT 3
M  POLY_N_BB 3
M  POLY_CA_BB 4
M  POLY_C_BB 2
M  POLY_O_BB 5
M  POLY_IGNORE 9 10 11 12 13 14 15 16 17 18 
M  POLY_UPPER 6
M  POLY_LOWER 8
M  POLY_CHG 0
M  POLY_PROPERTIES ALPHA_AA L_AA PROTEIN AROMATIC POLYMER 
M  END

$$$$



 35 35  0  0  0  0  0  0  0  0999 V2000
   -1.8185    2.2626    2.9988 H   0  0  0  1  0  0  0  0  0  0  0  0
   -0.3383    0.8804    2.3770 C   0  0  0  1  0  0  0  0  0  0  0  0
    0.0424    3.1654    2.9964 N   0  0  0  1  0  0  0  0  0  0  0  0
   -0.9408    2.2822    2.3871 C   0  0  0  1  0  0  0  0  0  0  0  0
   -1.0445   -0.1170    2.2350 O   0  0  0  1  0  0  0  0  0  0  0  0
    0.9930    0.8170    2.5315 N   0  0  0  1  0  0  0  0  0  0  0  0
    0.7821    3.4999    2.4475 H   0  0  0  1  0  0  0  0  0  0  0  0
   -0.0285    3.5361    4.2780 C   0  0  0  1  0  0  0  0  0  0  0  0
    1.6963   -0.4452    2.7043 C   0  0  0  1  0  0  0  0  0  0  0  0
    1.0169    4.5356    4.7334 C   0  0  0  1  0  0  0  0  0  0  0  0
   -0.8788    3.1056    5.0526 O   0  0  0  1  0  0  0  0  0  0  0  0
    1.5097    1.6497    2.5277 H   0  0  0  1  0  0  0  0  0  0  0  0
    1.0969   -1.2437    2.3195 H   0  0  0  1  0  0  0  0  0  0  0  0
    1.8833   -0.6095    3.7450 H   0  0  0  1  0  0  0  0  0  0  0  0
    2.6259   -0.4106    2.1755 H   0  0  0  1  0  0  0  0  0  0  0  0
    1.8756    4.4685    4.0986 H   0  0  0  1  0  0  0  0  0  0  0  0
    1.3014    4.3192    5.7419 H   0  0  0  1  0  0  0  0  0  0  0  0
    0.6113    5.5244    4.6810 H   0  0  0  1  0  0  0  0  0  0  0  0
   -0.2977    7.5897    0.9943 F   0  0  0  1  0  0  0  0  0  0  0  0
   -1.6217    7.7096    1.1068 C   0  0  0  1  0  0  0  0  0  0  0  0
   -1.8494    8.2988    2.2816 F   0  0  0  1  0  0  0  0  0  0  0  0
   -2.0227    8.5545    0.1560 F   0  0  0  1  0  0  0  0  0  0  0  0
   -2.3049    6.3651    1.0238 C   0  0  0  1  0  0  0  0  0  0  0  0
   -1.5510    5.2020    1.0462 C   0  0  0  1  0  0  0  0  0  0  0  0
   -2.1760    3.9719    0.9649 C   0  0  0  1  0  0  0  0  0  0  0  0
   -3.5568    3.9010    0.8663 C   0  0  0  1  0  0  0  0  0  0  0  0
   -4.3083    5.0607    0.8440 C   0  0  0  1  0  0  0  0  0  0  0  0
   -3.6818    6.2945    0.9255 C   0  0  0  1  0  0  0  0  0  0  0  0
   -1.3542    2.7047    0.9834 C   0  0  0  1  0  0  0  0  0  0  0  0
   -0.5153    5.2550    1.1242 H   0  0  0  1  0  0  0  0  0  0  0  0
   -4.0273    2.9753    0.8092 H   0  0  0  1  0  0  0  0  0  0  0  0
   -5.3440    5.0077    0.7660 H   0  0  0  1  0  0  0  0  0  0  0  0
   -4.2476    7.1670    0.9127 H   0  0  0  1  0  0  0  0  0  0  0  0
   -1.9326    1.9173    0.5472 H   0  0  0  1  0  0  0  0  0  0  0  0
   -0.4705    2.8633    0.4014 H   0  0  0  1  0  0  0  0  0  0  0  0
  1  4  1  0  0  0  0
  2  4  1  0  0  0  0
  2  5  2  0  0  0  0
  2  6  1  0  0  0  0
  3  4  1  0  0  0  0
  3  7  1  0  0  0  0
  3  8  1  0  0  0  0
  4 29  1  0  0  0  0
  6  9  1  0  0  0  0
  6 12  1  0  0  0  0
  8 10  1  0  0  0  0
  8 11  2  0  0  0  0
  9 13  1  0  0  0  0
  9 14  1  0  0  0  0
  9 15  1  0  0  0  0
 10 16  1  0  0  0  0
 10 17  1  0  0  0  0
 10 18  1  0  0  0  0
 19 20  1  0  0  0  0
 20 21  1  0  0  0  0
 20 22  1  0  0  0  0
 20 23  1  0  0  0  0
 23 24  4  0  0  0  0
 23 28  4  0  0  0  0
 24 25  4  0  0  0  0
 24 30  1  0  0  0  0
 25 26  4  0  0  0  0
 25 29  1  0  0  0  0
 26 27  4  0  0  0  0
 26 31  1  0  0  0  0
 27 28  4  0  0  0  0
 27 32  1  0  0  0  0
 28 33  1  0  0  0  0
 29 34  1  0  0  0  0
 29 35  1  0  0  0  0
M  END
> <BCLConfClusterSize>
1

> <ConfClashScore>
0 

> <ConfOneFourInteractionScore>
-0.94165 

> <ConfScore>
-0.149647 

> <ConfScorePBest>
0.00706485 

> <ConfTolerance>
0.33744 

> <RosettaParamsInstructions>
M  ROOT 3
M  POLY_N_BB 3
M  POLY_CA_BB 4
M  POLY_C_BB 2
M  POLY_O_BB 5
M  POLY_IGNORE 9 10 11 12 13 14 15 16 17 18 
M  POLY_UPPER 6
M  POLY_LOWER 8
M  POLY_CHG 0
M  POLY_PROPERTIES ALPHA_AA L_AA PROTEIN AROMATIC POLYMER 
M  END

$$$$



 35 35  0  0  0  0  0  0  0  0999 V2000
   -0.0385    3.0280   -0.6498 H   0  0  0  1  0  0  0  0  0  0  0  0
   -0.0636    0.9605   -0.2364 C   0  0  0  1  0  0  0  0  0  0  0  0
   -1.8196    2.2878   -1.3877 N   0  0  0  1  0  0  0  0  0  0  0  0
   -0.7695    2.2947   -0.3802 C   0  0  0  1  0  0  0  0  0  0  0  0
   -0.7295   -0.0628   -0.3885 O   0  0  0  1  0  0  0  0  0  0  0  0
    1.2475    0.9648    0.0485 N   0  0  0  1  0  0  0  0  0  0  0  0
   -2.7263    2.0256   -1.1241 H   0  0  0  1  0  0  0  0  0  0  0  0
   -1.5906    2.6267   -2.6596 C   0  0  0  1  0  0  0  0  0  0  0  0
    1.9497   -0.2891    0.2773 C   0  0  0  1  0  0  0  0  0  0  0  0
   -2.8285    2.6622   -3.5529 C   0  0  0  1  0  0  0  0  0  0  0  0
   -0.4780    2.8251   -3.1192 O   0  0  0  1  0  0  0  0  0  0  0  0
    1.7333    1.8142    0.1026 H   0  0  0  1  0  0  0  0  0  0  0  0
    1.4863   -1.0671   -0.2927 H   0  0  0  1  0  0  0  0  0  0  0  0
    1.9081   -0.5362    1.3175 H   0  0  0  1  0  0  0  0  0  0  0  0
    2.9710   -0.1859   -0.0248 H   0  0  0  1  0  0  0  0  0  0  0  0
   -2.7652    1.8817   -4.2821 H   0  0  0  1  0  0  0  0  0  0  0  0
   -2.8836    3.6090   -4.0482 H   0  0  0  1  0  0  0  0  0  0  0  0
   -3.7041    2.5206   -2.9544 H   0  0  0  1  0  0  0  0  0  0  0  0
   -0.3065    7.6425    0.8705 F   0  0  0  1  0  0  0  0  0  0  0  0
   -1.6169    7.7013    1.1140 C   0  0  0  1  0  0  0  0  0  0  0  0
   -1.7600    8.2928    2.3010 F   0  0  0  1  0  0  0  0  0  0  0  0
   -2.1002    8.5744    0.2293 F   0  0  0  1  0  0  0  0  0  0  0  0
   -2.3028    6.3583    1.0287 C   0  0  0  1  0  0  0  0  0  0  0  0
   -1.5507    5.1939    1.0397 C   0  0  0  1  0  0  0  0  0  0  0  0
   -2.1778    3.9651    0.9563 C   0  0  0  1  0  0  0  0  0  0  0  0
   -3.5594    3.8970    0.8670 C   0  0  0  1  0  0  0  0  0  0  0  0
   -4.3095    5.0578    0.8561 C   0  0  0  1  0  0  0  0  0  0  0  0
   -3.6803    6.2902    0.9397 C   0  0  0  1  0  0  0  0  0  0  0  0
   -1.3578    2.6967    0.9624 C   0  0  0  1  0  0  0  0  0  0  0  0
   -0.5144    5.2450    1.1108 H   0  0  0  1  0  0  0  0  0  0  0  0
   -4.0316    2.9722    0.8083 H   0  0  0  1  0  0  0  0  0  0  0  0
   -5.3458    5.0067    0.7850 H   0  0  0  1  0  0  0  0  0  0  0  0
   -4.2449    7.1636    0.9355 H   0  0  0  1  0  0  0  0  0  0  0  0
   -0.5493    2.8296    1.6505 H   0  0  0  1  0  0  0  0  0  0  0  0
   -1.9862    1.8990    1.2996 H   0  0  0  1  0  0  0  0  0  0  0  0
  1  4  1  0  0  0  0
  2  4  1  0  0  0  0
  2  5  2  0  0  0  0
  2  6  1  0  0  0  0
  3  4  1  0  0  0  0
  3  7  1  0  0  0  0
  3  8  1  0  0  0  0
  4 29  1  0  0  0  0
  6  9  1  0  0  0  0
  6 12  1  0  0  0  0
  8 10  1  0  0  0  0
  8 11  2  0  0  0  0
  9 13  1  0  0  0  0
  9 14  1  0  0  0  0
  9 15  1  0  0  0  0
 10 16  1  0  0  0  0
 10 17  1  0  0  0  0
 10 18  1  0  0  0  0
 19 20  1  0  0  0  0
 20 21  1  0  0  0  0
 20 22  1  0  0  0  0
 20 23  1  0  0  0  0
 23 24  4  0  0  0  0
 23 28  4  0  0  0  0
 24 25  4  0  0  0  0
 24 30  1  0  0  0  0
 25 26  4  0  0  0  0
 25 29  1  0  0  0  0
 26 27  4  0  0  0  0
 26 31  1  0  0  0  0
 27 28  4  0  0  0  0
 27 32  1  0  0  0  0
 28 33  1  0  0  0  0
 29 34  1  0  0  0  0
 29 35  1  0  0  0  0
M  END
> <BCLConfClusterSize>
1

> <ConfClashScore>
0 

> <ConfOneFourInteractionScore>
-0.985807 

> <ConfScore>
-0.148673 

> <ConfScorePBest>
0.00703637 

> <ConfTolerance>
0.364897 

> <RosettaParamsInstructions>
M  ROOT 3
M  POLY_N_BB 3
M  POLY_CA_BB 4
M  POLY_C_BB 2
M  POLY_O_BB 5
M  POLY_IGNORE 9 10 11 12 13 14 15 16 17 18 
M  POLY_UPPER 6
M  POLY_LOWER 8
M  POLY_CHG 0
M  POLY_PROPERTIES ALPHA_AA L_AA PROTEIN AROMATIC POLYMER 
M  END

$$$$



 35 35  0  0  0  0  0  0  0  0999 V2000
   -0.1311    2.6826   -0.3310 H   0  0  0  1  0  0  0  0  0  0  0  0
   -0.3802    0.6830    0.2983 C   0  0  0  1  0  0  0  0  0  0  0  0
   -1.9975    2.0269   -0.9327 N   0  0  0  1  0  0  0  0  0  0  0  0
   -0.9257    2.0759    0.0505 C   0  0  0  1  0  0  0  0  0  0  0  0
    0.8108    0.4975    0.5337 O   0  0  0  1  0  0  0  0  0  0  0  0
   -1.2738   -0.3087    0.2427 N   0  0  0  1  0  0  0  0  0  0  0  0
   -2.9098    1.8379   -0.6288 H   0  0  0  1  0  0  0  0  0  0  0  0
   -1.7799    2.2316   -2.2415 C   0  0  0  1  0  0  0  0  0  0  0  0
   -0.9204   -1.6907    0.5307 C   0  0  0  1  0  0  0  0  0  0  0  0
   -2.9972    2.1694   -3.1435 C   0  0  0  1  0  0  0  0  0  0  0  0
   -0.6760    2.5344   -2.6865 O   0  0  0  1  0  0  0  0  0  0  0  0
   -2.1995   -0.0980   -0.0005 H   0  0  0  1  0  0  0  0  0  0  0  0
   -0.1285   -1.9997   -0.1192 H   0  0  0  1  0  0  0  0  0  0  0  0
   -1.7740   -2.3168    0.3750 H   0  0  0  1  0  0  0  0  0  0  0  0
   -0.5988   -1.7718    1.5480 H   0  0  0  1  0  0  0  0  0  0  0  0
   -3.8716    2.4232   -2.5815 H   0  0  0  1  0  0  0  0  0  0  0  0
   -3.1003    1.1790   -3.5352 H   0  0  0  1  0  0  0  0  0  0  0  0
   -2.8786    2.8620   -3.9504 H   0  0  0  1  0  0  0  0  0  0  0  0
   -0.6847    7.7352    2.0789 F   0  0  0  1  0  0  0  0  0  0  0  0
   -1.6109    7.7270    1.1186 C   0  0  0  1  0  0  0  0  0  0  0  0
   -2.4755    8.7080    1.3824 F   0  0  0  1  0  0  0  0  0  0  0  0
   -1.0005    8.0341   -0.0203 F   0  0  0  1  0  0  0  0  0  0  0  0
   -2.2933    6.3827    1.0255 C   0  0  0  1  0  0  0  0  0  0  0  0
   -1.5850    5.2010    1.2313 C   0  0  0  1  0  0  0  0  0  0  0  0
   -2.2066    3.9663    1.1411 C   0  0  0  1  0  0  0  0  0  0  0  0
   -3.5622    3.8957    0.8563 C   0  0  0  1  0  0  0  0  0  0  0  0
   -4.2792    5.0518    0.6495 C   0  0  0  1  0  0  0  0  0  0  0  0
   -3.6491    6.2847    0.7314 C   0  0  0  1  0  0  0  0  0  0  0  0
   -1.4102    2.7003    1.3524 C   0  0  0  1  0  0  0  0  0  0  0  0
   -0.5708    5.2466    1.4568 H   0  0  0  1  0  0  0  0  0  0  0  0
   -4.0355    2.9715    0.7991 H   0  0  0  1  0  0  0  0  0  0  0  0
   -5.2948    5.0011    0.4316 H   0  0  0  1  0  0  0  0  0  0  0  0
   -4.2005    7.1516    0.5700 H   0  0  0  1  0  0  0  0  0  0  0  0
   -0.5583    2.9308    1.9574 H   0  0  0  1  0  0  0  0  0  0  0  0
   -2.0281    1.9903    1.8614 H   0  0  0  1  0  0  0  0  0  0  0  0
  1  4  1  0  0  0  0
  2  4  1  0  0  0  0
  2  5  2  0  0  0  0
  2  6  1  0  0  0  0
  3  4  1  0  0  0  0
  3  7  1  0  0  0  0
  3  8  1  0  0  0  0
  4 29  1  0  0  0  0
  6  9  1  0  0  0  0
  6 12  1  0  0  0  0
  8 10  1  0  0  0  0
  8 11  2  0  0  0  0
  9 13  1  0  0  0  0
  9 14  1  0  0  0  0
  9 15  1  0  0  0  0
 10 16  1  0  0  0  0
 10 17  1  0  0  0  0
 10 18  1  0  0  0  0
 19 20  1  0  0  0  0
 20 21  1  0  0  0  0
 20 22  1  0  0  0  0
 20 23  1  0  0  0  0
 23 24  4  0  0  0  0
 23 28  4  0  0  0  0
 24 25  4  0  0  0  0
 24 30  1  0  0  0  0
 25 26  4  0  0  0  0
 25 29  1  0  0  0  0
 26 27  4  0  0  0  0
 26 31  1  0  0  0  0
 27 28  4  0  0  0  0
 27 32  1  0  0  0  0
 28 33  1  0  0  0  0
 29 34  1  0  0  0  0
 29 35  1  0  0  0  0
M  END
> <BCLConfClusterSize>
1

> <ConfClashScore>
0 

> <ConfOneFourInteractionScore>
-0.928132 

> <ConfScore>
-0.144583 

> <ConfScorePBest>
0.00700789 

> <ConfTolerance>
0.430976 

> <RosettaParamsInstructions>
M  ROOT 3
M  POLY_N_BB 3
M  POLY_CA_BB 4
M  POLY_C_BB 2
M  POLY_O_BB 5
M  POLY_IGNORE 9 10 11 12 13 14 15 16 17 18 
M  POLY_UPPER 6
M  POLY_LOWER 8
M  POLY_CHG 0
M  POLY_PROPERTIES ALPHA_AA L_AA PROTEIN AROMATIC POLYMER 
M  END

$$$$



 35 35  0  0  0  0  0  0  0  0999 V2000
   -2.7824    1.3682    1.8455 H   0  0  0  1  0  0  0  0  0  0  0  0
   -0.8824    0.5308    2.2037 C   0  0  0  1  0  0  0  0  0  0  0  0
   -1.8783    2.4452    3.3591 N   0  0  0  1  0  0  0  0  0  0  0  0
   -1.8054    1.7236    2.0987 C   0  0  0  1  0  0  0  0  0  0  0  0
   -1.0128   -0.4359    1.4539 O   0  0  0  1  0  0  0  0  0  0  0  0
    0.0769    0.5587    3.1333 N   0  0  0  1  0  0  0  0  0  0  0  0
   -1.6781    3.4045    3.3671 H   0  0  0  1  0  0  0  0  0  0  0  0
   -2.2102    1.8430    4.5120 C   0  0  0  1  0  0  0  0  0  0  0  0
    0.9086   -0.5987    3.4271 C   0  0  0  1  0  0  0  0  0  0  0  0
   -2.2799    2.7210    5.7618 C   0  0  0  1  0  0  0  0  0  0  0  0
   -2.3722    0.6286    4.5978 O   0  0  0  1  0  0  0  0  0  0  0  0
    0.2255    1.3875    3.6347 H   0  0  0  1  0  0  0  0  0  0  0  0
    0.2892   -1.4141    3.7376 H   0  0  0  1  0  0  0  0  0  0  0  0
    1.5955   -0.3544    4.2103 H   0  0  0  1  0  0  0  0  0  0  0  0
    1.4527   -0.8787    2.5493 H   0  0  0  1  0  0  0  0  0  0  0  0
   -1.3663    3.2685    5.8651 H   0  0  0  1  0  0  0  0  0  0  0  0
   -2.4248    2.1036    6.6235 H   0  0  0  1  0  0  0  0  0  0  0  0
   -3.0973    3.4056    5.6713 H   0  0  0  1  0  0  0  0  0  0  0  0
   -0.2894    7.6115    1.0340 F   0  0  0  1  0  0  0  0  0  0  0  0
   -1.6177    7.7075    1.1134 C   0  0  0  1  0  0  0  0  0  0  0  0
   -1.8780    8.3380    2.2598 F   0  0  0  1  0  0  0  0  0  0  0  0
   -1.9912    8.5365    0.1378 F   0  0  0  1  0  0  0  0  0  0  0  0
   -2.3032    6.3598    1.0238 C   0  0  0  1  0  0  0  0  0  0  0  0
   -1.5525    5.1996    1.0484 C   0  0  0  1  0  0  0  0  0  0  0  0
   -2.1801    3.9661    0.9718 C   0  0  0  1  0  0  0  0  0  0  0  0
   -3.5564    3.8965    0.8654 C   0  0  0  1  0  0  0  0  0  0  0  0
   -4.3095    5.0601    0.8408 C   0  0  0  1  0  0  0  0  0  0  0  0
   -3.6835    6.2899    0.9172 C   0  0  0  1  0  0  0  0  0  0  0  0
   -1.3600    2.6980    1.0045 C   0  0  0  1  0  0  0  0  0  0  0  0
   -0.5166    5.2521    1.1243 H   0  0  0  1  0  0  0  0  0  0  0  0
   -4.0270    2.9711    0.8039 H   0  0  0  1  0  0  0  0  0  0  0  0
   -5.3454    5.0076    0.7648 H   0  0  0  1  0  0  0  0  0  0  0  0
   -4.2481    7.1630    0.8947 H   0  0  0  1  0  0  0  0  0  0  0  0
   -1.4498    2.2098    0.0566 H   0  0  0  1  0  0  0  0  0  0  0  0
   -0.3366    2.9587    1.1765 H   0  0  0  1  0  0  0  0  0  0  0  0
  1  4  1  0  0  0  0
  2  4  1  0  0  0  0
  2  5  2  0  0  0  0
  2  6  1  0  0  0  0
  3  4  1  0  0  0  0
  3  7  1  0  0  0  0
  3  8  1  0  0  0  0
  4 29  1  0  0  0  0
  6  9  1  0  0  0  0
  6 12  1  0  0  0  0
  8 10  1  0  0  0  0
  8 11  2  0  0  0  0
  9 13  1  0  0  0  0
  9 14  1  0  0  0  0
  9 15  1  0  0  0  0
 10 16  1  0  0  0  0
 10 17  1  0  0  0  0
 10 18  1  0  0  0  0
 19 20  1  0  0  0  0
 20 21  1  0  0  0  0
 20 22  1  0  0  0  0
 20 23  1  0  0  0  0
 23 24  4  0  0  0  0
 23 28  4  0  0  0  0
 24 25  4  0  0  0  0
 24 30  1  0  0  0  0
 25 26  4  0  0  0  0
 25 29  1  0  0  0  0
 26 27  4  0  0  0  0
 26 31  1  0  0  0  0
 27 28  4  0  0  0  0
 27 32  1  0  0  0  0
 28 33  1  0  0  0  0
 29 34  1  0  0  0  0
 29 35  1  0  0  0  0
M  END
> <BCLConfClusterSize>
1

> <ConfClashScore>
0 

> <ConfOneFourInteractionScore>
-0.960318 

> <ConfScore>
-0.143351 

> <ConfScorePBest>
0.00697941 

> <ConfTolerance>
0.33013 

> <RosettaParamsInstructions>
M  ROOT 3
M  POLY_N_BB 3
M  POLY_CA_BB 4
M  POLY_C_BB 2
M  POLY_O_BB 5
M  POLY_IGNORE 9 10 11 12 13 14 15 16 17 18 
M  POLY_UPPER 6
M  POLY_LOWER 8
M  POLY_CHG 0
M  POLY_PROPERTIES ALPHA_AA L_AA PROTEIN AROMATIC POLYMER 
M  END

$$$$



 35 35  0  0  0  0  0  0  0  0999 V2000
   -0.4259    2.8864   -0.4115 H   0  0  0  1  0  0  0  0  0  0  0  0
    0.2631    1.1151    0.4828 C   0  0  0  1  0  0  0  0  0  0  0  0
   -1.9164    1.4852   -0.6253 N   0  0  0  1  0  0  0  0  0  0  0  0
   -0.8527    2.0905    0.1622 C   0  0  0  1  0  0  0  0  0  0  0  0
    0.0577   -0.0970    0.5299 O   0  0  0  1  0  0  0  0  0  0  0  0
    1.4687    1.6614    0.7071 N   0  0  0  1  0  0  0  0  0  0  0  0
   -2.3948    0.7254   -0.2324 H   0  0  0  1  0  0  0  0  0  0  0  0
   -2.2892    1.8866   -1.8415 C   0  0  0  1  0  0  0  0  0  0  0  0
    2.6565    0.8540    0.9419 C   0  0  0  1  0  0  0  0  0  0  0  0
   -3.5249    1.2141   -2.4072 C   0  0  0  1  0  0  0  0  0  0  0  0
   -1.6828    2.7445   -2.4776 O   0  0  0  1  0  0  0  0  0  0  0  0
    1.5517    2.6379    0.7129 H   0  0  0  1  0  0  0  0  0  0  0  0
    2.3774   -0.0608    1.4216 H   0  0  0  1  0  0  0  0  0  0  0  0
    3.3353    1.3928    1.5695 H   0  0  0  1  0  0  0  0  0  0  0  0
    3.1300    0.6365    0.0074 H   0  0  0  1  0  0  0  0  0  0  0  0
   -3.2494    0.6057   -3.2431 H   0  0  0  1  0  0  0  0  0  0  0  0
   -4.2232    1.9602   -2.7241 H   0  0  0  1  0  0  0  0  0  0  0  0
   -3.9740    0.6017   -1.6534 H   0  0  0  1  0  0  0  0  0  0  0  0
   -0.8130    7.7968    2.1785 F   0  0  0  1  0  0  0  0  0  0  0  0
   -1.6185    7.7072    1.1187 C   0  0  0  1  0  0  0  0  0  0  0  0
   -2.4864    8.7146    1.2240 F   0  0  0  1  0  0  0  0  0  0  0  0
   -0.8635    7.9743    0.0523 F   0  0  0  1  0  0  0  0  0  0  0  0
   -2.3026    6.3596    1.0223 C   0  0  0  1  0  0  0  0  0  0  0  0
   -1.5840    5.2018    1.2534 C   0  0  0  1  0  0  0  0  0  0  0  0
   -2.2116    3.9686    1.1704 C   0  0  0  1  0  0  0  0  0  0  0  0
   -3.5545    3.8965    0.8514 C   0  0  0  1  0  0  0  0  0  0  0  0
   -4.2750    5.0578    0.6197 C   0  0  0  1  0  0  0  0  0  0  0  0
   -3.6494    6.2875    0.7024 C   0  0  0  1  0  0  0  0  0  0  0  0
   -1.4277    2.7036    1.4286 C   0  0  0  1  0  0  0  0  0  0  0  0
   -0.5726    5.2559    1.4895 H   0  0  0  1  0  0  0  0  0  0  0  0
   -4.0243    2.9710    0.7852 H   0  0  0  1  0  0  0  0  0  0  0  0
   -5.2864    5.0038    0.3836 H   0  0  0  1  0  0  0  0  0  0  0  0
   -4.1891    7.1585    0.5246 H   0  0  0  1  0  0  0  0  0  0  0  0
   -0.6207    2.9326    2.0929 H   0  0  0  1  0  0  0  0  0  0  0  0
   -2.0771    1.9885    1.8887 H   0  0  0  1  0  0  0  0  0  0  0  0
  1  4  1  0  0  0  0
  2  4  1  0  0  0  0
  2  5  2  0  0  0  0
  2  6  1  0  0  0  0
  3  4  1  0  0  0  0
  3  7  1  0  0  0  0
  3  8  1  0  0  0  0
  4 29  1  0  0  0  0
  6  9  1  0  0  0  0
  6 12  1  0  0  0  0
  8 10  1  0  0  0  0
  8 11  2  0  0  0  0
  9 13  1  0  0  0  0
  9 14  1  0  0  0  0
  9 15  1  0  0  0  0
 10 16  1  0  0  0  0
 10 17  1  0  0  0  0
 10 18  1  0  0  0  0
 19 20  1  0  0  0  0
 20 21  1  0  0  0  0
 20 22  1  0  0  0  0
 20 23  1  0  0  0  0
 23 24  4  0  0  0  0
 23 28  4  0  0  0  0
 24 25  4  0  0  0  0
 24 30  1  0  0  0  0
 25 26  4  0  0  0  0
 25 29  1  0  0  0  0
 26 27  4  0  0  0  0
 26 31  1  0  0  0  0
 27 28  4  0  0  0  0
 27 32  1  0  0  0  0
 28 33  1  0  0  0  0
 29 34  1  0  0  0  0
 29 35  1  0  0  0  0
M  END
> <BCLConfClusterSize>
1

> <ConfClashScore>
0 

> <ConfOneFourInteractionScore>
-0.981931 

> <ConfScore>
-0.142996 

> <ConfScorePBest>
0.00695093 

> <ConfTolerance>
0.378971 

> <RosettaParamsInstructions>
M  ROOT 3
M  POLY_N_BB 3
M  POLY_CA_BB 4
M  POLY_C_BB 2
M  POLY_O_BB 5
M  POLY_IGNORE 9 10 11 12 13 14 15 16 17 18 
M  POLY_UPPER 6
M  POLY_LOWER 8
M  POLY_CHG 0
M  POLY_PROPERTIES ALPHA_AA L_AA PROTEIN AROMATIC POLYMER 
M  END

$$$$



 35 35  0  0  0  0  0  0  0  0999 V2000
   -1.1237    3.0185    3.3920 H   0  0  0  1  0  0  0  0  0  0  0  0
   -2.7866    1.7262    3.1682 C   0  0  0  1  0  0  0  0  0  0  0  0
   -0.4279    1.1218    2.9520 N   0  0  0  1  0  0  0  0  0  0  0  0
   -1.3922    2.1953    2.7634 C   0  0  0  1  0  0  0  0  0  0  0  0
   -3.6655    2.5294    3.4781 O   0  0  0  1  0  0  0  0  0  0  0  0
   -2.9798    0.3977    3.1612 N   0  0  0  1  0  0  0  0  0  0  0  0
    0.0165    0.7417    2.1656 H   0  0  0  1  0  0  0  0  0  0  0  0
   -0.1261    0.6344    4.1651 C   0  0  0  1  0  0  0  0  0  0  0  0
   -4.1808   -0.2562    3.6592 C   0  0  0  1  0  0  0  0  0  0  0  0
    0.9373   -0.4623    4.2305 C   0  0  0  1  0  0  0  0  0  0  0  0
   -0.7243    0.9791    5.1808 O   0  0  0  1  0  0  0  0  0  0  0  0
   -2.2668   -0.1677    2.7976 H   0  0  0  1  0  0  0  0  0  0  0  0
   -4.9906    0.4432    3.6683 H   0  0  0  1  0  0  0  0  0  0  0  0
   -4.0065   -0.6127    4.6529 H   0  0  0  1  0  0  0  0  0  0  0  0
   -4.4283   -1.0797    3.0225 H   0  0  0  1  0  0  0  0  0  0  0  0
    0.4797   -1.4142    4.0588 H   0  0  0  1  0  0  0  0  0  0  0  0
    1.3963   -0.4565    5.1970 H   0  0  0  1  0  0  0  0  0  0  0  0
    1.6801   -0.2836    3.4813 H   0  0  0  1  0  0  0  0  0  0  0  0
   -0.6097    7.6760    1.9879 F   0  0  0  1  0  0  0  0  0  0  0  0
   -1.6193    7.7083    1.1163 C   0  0  0  1  0  0  0  0  0  0  0  0
   -2.4595    8.6511    1.5460 F   0  0  0  1  0  0  0  0  0  0  0  0
   -1.1205    8.1239   -0.0486 F   0  0  0  1  0  0  0  0  0  0  0  0
   -2.3035    6.3654    1.0166 C   0  0  0  1  0  0  0  0  0  0  0  0
   -1.5754    5.2001    1.1929 C   0  0  0  1  0  0  0  0  0  0  0  0
   -2.1852    3.9498    1.1214 C   0  0  0  1  0  0  0  0  0  0  0  0
   -3.5508    3.9070    0.8611 C   0  0  0  1  0  0  0  0  0  0  0  0
   -4.2833    5.0698    0.6739 C   0  0  0  1  0  0  0  0  0  0  0  0
   -3.6625    6.2955    0.7483 C   0  0  0  1  0  0  0  0  0  0  0  0
   -1.3893    2.6816    1.3201 C   0  0  0  1  0  0  0  0  0  0  0  0
   -0.5545    5.2599    1.3821 H   0  0  0  1  0  0  0  0  0  0  0  0
   -4.0314    2.9864    0.8058 H   0  0  0  1  0  0  0  0  0  0  0  0
   -5.3030    5.0152    0.4770 H   0  0  0  1  0  0  0  0  0  0  0  0
   -4.2109    7.1673    0.6038 H   0  0  0  1  0  0  0  0  0  0  0  0
   -1.8089    1.9157    0.7018 H   0  0  0  1  0  0  0  0  0  0  0  0
   -0.3774    2.8647    1.0245 H   0  0  0  1  0  0  0  0  0  0  0  0
  1  4  1  0  0  0  0
  2  4  1  0  0  0  0
  2  5  2  0  0  0  0
  2  6  1  0  0  0  0
  3  4  1  0  0  0  0
  3  7  1  0  0  0  0
  3  8  1  0  0  0  0
  4 29  1  0  0  0  0
  6  9  1  0  0  0  0
  6 12  1  0  0  0  0
  8 10  1  0  0  0  0
  8 11  2  0  0  0  0
  9 13  1  0  0  0  0
  9 14  1  0  0  0  0
  9 15  1  0  0  0  0
 10 16  1  0  0  0  0
 10 17  1  0  0  0  0
 10 18  1  0  0  0  0
 19 20  1  0  0  0  0
 20 21  1  0  0  0  0
 20 22  1  0  0  0  0
 20 23  1  0  0  0  0
 23 24  4  0  0  0  0
 23 28  4  0  0  0  0
 24 25  4  0  0  0  0
 24 30  1  0  0  0  0
 25 26  4  0  0  0  0
 25 29  1  0  0  0  0
 26 27  4  0  0  0  0
 26 31  1  0  0  0  0
 27 28  4  0  0  0  0
 27 32  1  0  0  0  0
 28 33  1  0  0  0  0
 29 34  1  0  0  0  0
 29 35  1  0  0  0  0
M  END
> <BCLConfClusterSize>
1

> <ConfClashScore>
0 

> <ConfOneFourInteractionScore>
-0.960318 

> <ConfScore>
-0.142461 

> <ConfScorePBest>
0.00692245 

> <ConfTolerance>
0.344867 

> <RosettaParamsInstructions>
M  ROOT 3
M  POLY_N_BB 3
M  POLY_CA_BB 4
M  POLY_C_BB 2
M  POLY_O_BB 5
M  POLY_IGNORE 9 10 11 12 13 14 15 16 17 18 
M  POLY_UPPER 6
M  POLY_LOWER 8
M  POLY_CHG 0
M  POLY_PROPERTIES ALPHA_AA L_AA PROTEIN AROMATIC POLYMER 
M  END

$$$$



 35 35  0  0  0  0  0  0  0  0999 V2000
   -0.1695    3.1967   -0.6701 H   0  0  0  1  0  0  0  0  0  0  0  0
    0.2301    1.1861   -0.1331 C   0  0  0  1  0  0  0  0  0  0  0  0
   -1.7573    2.0137   -1.2939 N   0  0  0  1  0  0  0  0  0  0  0  0
   -0.7239    2.3489   -0.3256 C   0  0  0  1  0  0  0  0  0  0  0  0
    1.4411    1.3670   -0.0129 O   0  0  0  1  0  0  0  0  0  0  0  0
   -0.3334   -0.0320   -0.1042 N   0  0  0  1  0  0  0  0  0  0  0  0
   -2.5597    1.5433   -0.9855 H   0  0  0  1  0  0  0  0  0  0  0  0
   -1.6494    2.3266   -2.5949 C   0  0  0  1  0  0  0  0  0  0  0  0
    0.4608   -1.1961    0.2591 C   0  0  0  1  0  0  0  0  0  0  0  0
   -2.7626    1.8167   -3.4895 C   0  0  0  1  0  0  0  0  0  0  0  0
   -0.7163    2.9829   -3.0498 O   0  0  0  1  0  0  0  0  0  0  0  0
   -1.2816   -0.1375   -0.3282 H   0  0  0  1  0  0  0  0  0  0  0  0
    0.8988   -1.0429    1.2232 H   0  0  0  1  0  0  0  0  0  0  0  0
    1.2350   -1.3395   -0.4654 H   0  0  0  1  0  0  0  0  0  0  0  0
   -0.1675   -2.0618    0.2865 H   0  0  0  1  0  0  0  0  0  0  0  0
   -3.5957    1.5181   -2.8881 H   0  0  0  1  0  0  0  0  0  0  0  0
   -2.4109    0.9778   -4.0530 H   0  0  0  1  0  0  0  0  0  0  0  0
   -3.0665    2.5944   -4.1586 H   0  0  0  1  0  0  0  0  0  0  0  0
   -0.2909    7.6219    1.0987 F   0  0  0  1  0  0  0  0  0  0  0  0
   -1.6223    7.7062    1.1108 C   0  0  0  1  0  0  0  0  0  0  0  0
   -1.9124    8.3718    2.2298 F   0  0  0  1  0  0  0  0  0  0  0  0
   -1.9272    8.5190    0.1129 F   0  0  0  1  0  0  0  0  0  0  0  0
   -2.3065    6.3582    1.0221 C   0  0  0  1  0  0  0  0  0  0  0  0
   -1.5556    5.1984    1.0559 C   0  0  0  1  0  0  0  0  0  0  0  0
   -2.1821    3.9643    0.9801 C   0  0  0  1  0  0  0  0  0  0  0  0
   -3.5577    3.8937    0.8651 C   0  0  0  1  0  0  0  0  0  0  0  0
   -4.3111    5.0568    0.8311 C   0  0  0  1  0  0  0  0  0  0  0  0
   -3.6861    6.2873    0.9068 C   0  0  0  1  0  0  0  0  0  0  0  0
   -1.3618    2.6967    1.0230 C   0  0  0  1  0  0  0  0  0  0  0  0
   -0.5202    5.2516    1.1384 H   0  0  0  1  0  0  0  0  0  0  0  0
   -4.0276    2.9679    0.8042 H   0  0  0  1  0  0  0  0  0  0  0  0
   -5.3464    5.0036    0.7487 H   0  0  0  1  0  0  0  0  0  0  0  0
   -4.2509    7.1600    0.8772 H   0  0  0  1  0  0  0  0  0  0  0  0
   -0.5831    2.8194    1.7466 H   0  0  0  1  0  0  0  0  0  0  0  0
   -1.9986    1.8887    1.3171 H   0  0  0  1  0  0  0  0  0  0  0  0
  1  4  1  0  0  0  0
  2  4  1  0  0  0  0
  2  5  2  0  0  0  0
  2  6  1  0  0  0  0
  3  4  1  0  0  0  0
  3  7  1  0  0  0  0
  3  8  1  0  0  0  0
  4 29  1  0  0  0  0
  6  9  1  0  0  0  0
  6 12  1  0  0  0  0
  8 10  1  0  0  0  0
  8 11  2  0  0  0  0
  9 13  1  0  0  0  0
  9 14  1  0  0  0  0
  9 15  1  0  0  0  0
 10 16  1  0  0  0  0
 10 17  1  0  0  0  0
 10 18  1  0  0  0  0
 19 20  1  0  0  0  0
 20 21  1  0  0  0  0
 20 22  1  0  0  0  0
 20 23  1  0  0  0  0
 23 24  4  0  0  0  0
 23 28  4  0  0  0  0
 24 25  4  0  0  0  0
 24 30  1  0  0  0  0
 25 26  4  0  0  0  0
 25 29  1  0  0  0  0
 26 27  4  0  0  0  0
 26 31  1  0  0  0  0
 27 28  4  0  0  0  0
 27 32  1  0  0  0  0
 28 33  1  0  0  0  0
 29 34  1  0  0  0  0
 29 35  1  0  0  0  0
M  END
> <BCLConfClusterSize>
1

> <ConfClashScore>
0 

> <ConfOneFourInteractionScore>
-0.960318 

> <ConfScore>
-0.14191 

> <ConfScorePBest>
0.00689397 

> <ConfTolerance>
0.374682 

> <RosettaParamsInstructions>
M  ROOT 3
M  POLY_N_BB 3
M  POLY_CA_BB 4
M  POLY_C_BB 2
M  POLY_O_BB 5
M  POLY_IGNORE 9 10 11 12 13 14 15 16 17 18 
M  POLY_UPPER 6
M  POLY_LOWER 8
M  POLY_CHG 0
M  POLY_PROPERTIES ALPHA_AA L_AA PROTEIN AROMATIC POLYMER 
M  END

$$$$



 35 35  0  0  0  0  0  0  0  0999 V2000
   -0.5789    2.8935    3.0652 H   0  0  0  1  0  0  0  0  0  0  0  0
   -2.5222    2.1370    3.2918 C   0  0  0  1  0  0  0  0  0  0  0  0
   -0.5123    0.8931    2.6209 N   0  0  0  1  0  0  0  0  0  0  0  0
   -1.1912    2.1787    2.5562 C   0  0  0  1  0  0  0  0  0  0  0  0
   -2.8996    3.0930    3.9680 O   0  0  0  1  0  0  0  0  0  0  0  0
   -3.2666    1.0331    3.1813 N   0  0  0  1  0  0  0  0  0  0  0  0
   -0.4049    0.3555    1.8085 H   0  0  0  1  0  0  0  0  0  0  0  0
   -0.0333    0.4422    3.7902 C   0  0  0  1  0  0  0  0  0  0  0  0
   -4.4978    0.8470    3.9346 C   0  0  0  1  0  0  0  0  0  0  0  0
    0.8977   -0.7604    3.7044 C   0  0  0  1  0  0  0  0  0  0  0  0
   -0.3165    0.9543    4.8721 O   0  0  0  1  0  0  0  0  0  0  0  0
   -2.9734    0.3240    2.5716 H   0  0  0  1  0  0  0  0  0  0  0  0
   -5.1381    1.6914    3.7867 H   0  0  0  1  0  0  0  0  0  0  0  0
   -4.2679    0.7520    4.9753 H   0  0  0  1  0  0  0  0  0  0  0  0
   -4.9925   -0.0391    3.5957 H   0  0  0  1  0  0  0  0  0  0  0  0
    0.3315   -1.6332    3.4541 H   0  0  0  1  0  0  0  0  0  0  0  0
    1.3790   -0.9066    4.6488 H   0  0  0  1  0  0  0  0  0  0  0  0
    1.6363   -0.5863    2.9502 H   0  0  0  1  0  0  0  0  0  0  0  0
   -0.3459    7.5963    1.4452 F   0  0  0  1  0  0  0  0  0  0  0  0
   -1.6327    7.7164    1.1138 C   0  0  0  1  0  0  0  0  0  0  0  0
   -2.1395    8.4863    2.0488 F   0  0  0  1  0  0  0  0  0  0  0  0
   -1.6265    8.3766   -0.0184 F   0  0  0  1  0  0  0  0  0  0  0  0
   -2.3151    6.3667    1.0173 C   0  0  0  1  0  0  0  0  0  0  0  0
   -1.5675    5.2031    1.0966 C   0  0  0  1  0  0  0  0  0  0  0  0
   -2.1721    3.9502    1.0263 C   0  0  0  1  0  0  0  0  0  0  0  0
   -3.5530    3.9032    0.8679 C   0  0  0  1  0  0  0  0  0  0  0  0
   -4.3058    5.0646    0.7779 C   0  0  0  1  0  0  0  0  0  0  0  0
   -3.6899    6.2930    0.8494 C   0  0  0  1  0  0  0  0  0  0  0  0
   -1.3544    2.6836    1.1192 C   0  0  0  1  0  0  0  0  0  0  0  0
   -0.5357    5.2662    1.2108 H   0  0  0  1  0  0  0  0  0  0  0  0
   -4.0298    2.9804    0.8158 H   0  0  0  1  0  0  0  0  0  0  0  0
   -5.3371    5.0070    0.6563 H   0  0  0  1  0  0  0  0  0  0  0  0
   -4.2538    7.1639    0.7777 H   0  0  0  1  0  0  0  0  0  0  0  0
   -1.8388    1.9226    0.5438 H   0  0  0  1  0  0  0  0  0  0  0  0
   -0.3831    2.8747    0.7130 H   0  0  0  1  0  0  0  0  0  0  0  0
  1  4  1  0  0  0  0
  2  4  1  0  0  0  0
  2  5  2  0  0  0  0
  2  6  1  0  0  0  0
  3  4  1  0  0  0  0
  3  7  1  0  0  0  0
  3  8  1  0  0  0  0
  4 29  1  0  0  0  0
  6  9  1  0  0  0  0
  6 12  1  0  0  0  0
  8 10  1  0  0  0  0
  8 11  2  0  0  0  0
  9 13  1  0  0  0  0
  9 14  1  0  0  0  0
  9 15  1  0  0  0  0
 10 16  1  0  0  0  0
 10 17  1  0  0  0  0
 10 18  1  0  0  0  0
 19 20  1  0  0  0  0
 20 21  1  0  0  0  0
 20 22  1  0  0  0  0
 20 23  1  0  0  0  0
 23 24  4  0  0  0  0
 23 28  4  0  0  0  0
 24 25  4  0  0  0  0
 24 30  1  0  0  0  0
 25 26  4  0  0  0  0
 25 29  1  0  0  0  0
 26 27  4  0  0  0  0
 26 31  1  0  0  0  0
 27 28  4  0  0  0  0
 27 32  1  0  0  0  0
 28 33  1  0  0  0  0
 29 34  1  0  0  0  0
 29 35  1  0  0  0  0
M  END
> <BCLConfClusterSize>
1

> <ConfClashScore>
0 

> <ConfOneFourInteractionScore>
-0.960318 

> <ConfScore>
-0.13915 

> <ConfScorePBest>
0.00686549 

> <ConfTolerance>
0.326918 

> <RosettaParamsInstructions>
M  ROOT 3
M  POLY_N_BB 3
M  POLY_CA_BB 4
M  POLY_C_BB 2
M  POLY_O_BB 5
M  POLY_IGNORE 9 10 11 12 13 14 15 16 17 18 
M  POLY_UPPER 6
M  POLY_LOWER 8
M  POLY_CHG 0
M  POLY_PROPERTIES ALPHA_AA L_AA PROTEIN AROMATIC POLYMER 
M  END

$$$$



 35 35  0  0  0  0  0  0  0  0999 V2000
   -0.1945    2.8668   -0.3496 H   0  0  0  1  0  0  0  0  0  0  0  0
    0.0931    0.9125    0.3796 C   0  0  0  1  0  0  0  0  0  0  0  0
   -1.9006    1.8328   -0.8430 N   0  0  0  1  0  0  0  0  0  0  0  0
   -0.8104    2.1054    0.0816 C   0  0  0  1  0  0  0  0  0  0  0  0
   -0.3114   -0.0460    1.0323 O   0  0  0  1  0  0  0  0  0  0  0  0
    1.3330    0.9862   -0.1127 N   0  0  0  1  0  0  0  0  0  0  0  0
   -2.6856    1.3194   -0.5592 H   0  0  0  1  0  0  0  0  0  0  0  0
   -1.8000    2.3057   -2.0991 C   0  0  0  1  0  0  0  0  0  0  0  0
    2.2573   -0.0956    0.1926 C   0  0  0  1  0  0  0  0  0  0  0  0
   -2.8817    1.8549   -3.0613 C   0  0  0  1  0  0  0  0  0  0  0  0
   -0.8955    3.0567   -2.4617 O   0  0  0  1  0  0  0  0  0  0  0  0
    1.6120    1.7471   -0.6636 H   0  0  0  1  0  0  0  0  0  0  0  0
    1.7498   -1.0337    0.1075 H   0  0  0  1  0  0  0  0  0  0  0  0
    2.6256    0.0212    1.1904 H   0  0  0  1  0  0  0  0  0  0  0  0
    3.0761   -0.0696   -0.4957 H   0  0  0  1  0  0  0  0  0  0  0  0
   -2.8413    0.7913   -3.1712 H   0  0  0  1  0  0  0  0  0  0  0  0
   -2.7271    2.3177   -4.0136 H   0  0  0  1  0  0  0  0  0  0  0  0
   -3.8399    2.1375   -2.6782 H   0  0  0  1  0  0  0  0  0  0  0  0
   -0.6942    7.7375    2.0734 F   0  0  0  1  0  0  0  0  0  0  0  0
   -1.6230    7.7047    1.1163 C   0  0  0  1  0  0  0  0  0  0  0  0
   -2.4734    8.6959    1.3880 F   0  0  0  1  0  0  0  0  0  0  0  0
   -1.0046    8.0429   -0.0159 F   0  0  0  1  0  0  0  0  0  0  0  0
   -2.3096    6.3627    1.0220 C   0  0  0  1  0  0  0  0  0  0  0  0
   -1.5842    5.1978    1.2239 C   0  0  0  1  0  0  0  0  0  0  0  0
   -2.1911    3.9488    1.1475 C   0  0  0  1  0  0  0  0  0  0  0  0
   -3.5526    3.9037    0.8568 C   0  0  0  1  0  0  0  0  0  0  0  0
   -4.2804    5.0631    0.6443 C   0  0  0  1  0  0  0  0  0  0  0  0
   -3.6539    6.2971    0.7359 C   0  0  0  1  0  0  0  0  0  0  0  0
   -1.3995    2.6823    1.3726 C   0  0  0  1  0  0  0  0  0  0  0  0
   -0.5680    5.2596    1.4363 H   0  0  0  1  0  0  0  0  0  0  0  0
   -4.0317    2.9824    0.7981 H   0  0  0  1  0  0  0  0  0  0  0  0
   -5.2938    5.0084    0.4169 H   0  0  0  1  0  0  0  0  0  0  0  0
   -4.1987    7.1707    0.5886 H   0  0  0  1  0  0  0  0  0  0  0  0
   -0.5969    2.8975    2.0468 H   0  0  0  1  0  0  0  0  0  0  0  0
   -2.0458    1.9497    1.8091 H   0  0  0  1  0  0  0  0  0  0  0  0
  1  4  1  0  0  0  0
  2  4  1  0  0  0  0
  2  5  2  0  0  0  0
  2  6  1  0  0  0  0
  3  4  1  0  0  0  0
  3  7  1  0  0  0  0
  3  8  1  0  0  0  0
  4 29  1  0  0  0  0
  6  9  1  0  0  0  0
  6 12  1  0  0  0  0
  8 10  1  0  0  0  0
  8 11  2  0  0  0  0
  9 13  1  0  0  0  0
  9 14  1  0  0  0  0
  9 15  1  0  0  0  0
 10 16  1  0  0  0  0
 10 17  1  0  0  0  0
 10 18  1  0  0  0  0
 19 20  1  0  0  0  0
 20 21  1  0  0  0  0
 20 22  1  0  0  0  0
 20 23  1  0  0  0  0
 23 24  4  0  0  0  0
 23 28  4  0  0  0  0
 24 25  4  0  0  0  0
 24 30  1  0  0  0  0
 25 26  4  0  0  0  0
 25 29  1  0  0  0  0
 26 27  4  0  0  0  0
 26 31  1  0  0  0  0
 27 28  4  0  0  0  0
 27 32  1  0  0  0  0
 28 33  1  0  0  0  0
 29 34  1  0  0  0  0
 29 35  1  0  0  0  0
M  END
> <BCLConfClusterSize>
1

> <ConfClashScore>
0 

> <ConfOneFourInteractionScore>
-0.979134 

> <ConfScore>
-0.135336 

> <ConfScorePBest>
0.00683701 

> <ConfTolerance>
0.313927 

> <RosettaParamsInstructions>
M  ROOT 3
M  POLY_N_BB 3
M  POLY_CA_BB 4
M  POLY_C_BB 2
M  POLY_O_BB 5
M  POLY_IGNORE 9 10 11 12 13 14 15 16 17 18 
M  POLY_UPPER 6
M  POLY_LOWER 8
M  POLY_CHG 0
M  POLY_PROPERTIES ALPHA_AA L_AA PROTEIN AROMATIC POLYMER 
M  END

$$$$



 35 35  0  0  0  0  0  0  0  0999 V2000
   -2.4758    1.8483    2.6835 H   0  0  0  1  0  0  0  0  0  0  0  0
   -0.8802    0.5356    2.3447 C   0  0  0  1  0  0  0  0  0  0  0  0
   -0.8045    2.6831    3.5276 N   0  0  0  1  0  0  0  0  0  0  0  0
   -1.4367    1.9425    2.4461 C   0  0  0  1  0  0  0  0  0  0  0  0
    0.2824    0.2847    2.6591 O   0  0  0  1  0  0  0  0  0  0  0  0
   -1.7335   -0.3981    1.8950 N   0  0  0  1  0  0  0  0  0  0  0  0
   -0.0924    3.3206    3.3111 H   0  0  0  1  0  0  0  0  0  0  0  0
   -1.1641    2.5228    4.8160 C   0  0  0  1  0  0  0  0  0  0  0  0
   -1.3513   -1.7946    1.7486 C   0  0  0  1  0  0  0  0  0  0  0  0
   -0.5060    3.5103    5.7599 C   0  0  0  1  0  0  0  0  0  0  0  0
   -1.9425    1.6743    5.2193 O   0  0  0  1  0  0  0  0  0  0  0  0
   -2.6456   -0.1299    1.6571 H   0  0  0  1  0  0  0  0  0  0  0  0
   -0.6898   -2.0691    2.5436 H   0  0  0  1  0  0  0  0  0  0  0  0
   -0.8567   -1.9322    0.8098 H   0  0  0  1  0  0  0  0  0  0  0  0
   -2.2263   -2.4093    1.7848 H   0  0  0  1  0  0  0  0  0  0  0  0
   -0.8464    4.4997    5.5358 H   0  0  0  1  0  0  0  0  0  0  0  0
    0.5563    3.4634    5.6408 H   0  0  0  1  0  0  0  0  0  0  0  0
   -0.7635    3.2648    6.7690 H   0  0  0  1  0  0  0  0  0  0  0  0
   -0.3257    7.6118    1.4222 F   0  0  0  1  0  0  0  0  0  0  0  0
   -1.6219    7.7017    1.1192 C   0  0  0  1  0  0  0  0  0  0  0  0
   -2.1711    8.5158    2.0219 F   0  0  0  1  0  0  0  0  0  0  0  0
   -1.6684    8.3751   -0.0310 F   0  0  0  1  0  0  0  0  0  0  0  0
   -2.3098    6.3601    1.0272 C   0  0  0  1  0  0  0  0  0  0  0  0
   -1.5646    5.1929    1.1045 C   0  0  0  1  0  0  0  0  0  0  0  0
   -2.1718    3.9440    1.0272 C   0  0  0  1  0  0  0  0  0  0  0  0
   -3.5546    3.9018    0.8648 C   0  0  0  1  0  0  0  0  0  0  0  0
   -4.3032    5.0642    0.7771 C   0  0  0  1  0  0  0  0  0  0  0  0
   -3.6749    6.2975    0.8669 C   0  0  0  1  0  0  0  0  0  0  0  0
   -1.3581    2.6746    1.1164 C   0  0  0  1  0  0  0  0  0  0  0  0
   -0.5330    5.2526    1.2224 H   0  0  0  1  0  0  0  0  0  0  0  0
   -4.0339    2.9806    0.8084 H   0  0  0  1  0  0  0  0  0  0  0  0
   -5.3334    5.0122    0.6443 H   0  0  0  1  0  0  0  0  0  0  0  0
   -4.2342    7.1726    0.8132 H   0  0  0  1  0  0  0  0  0  0  0  0
   -1.7006    2.0086    0.3522 H   0  0  0  1  0  0  0  0  0  0  0  0
   -0.3335    2.9261    0.9382 H   0  0  0  1  0  0  0  0  0  0  0  0
  1  4  1  0  0  0  0
  2  4  1  0  0  0  0
  2  5  2  0  0  0  0
  2  6  1  0  0  0  0
  3  4  1  0  0  0  0
  3  7  1  0  0  0  0
  3  8  1  0  0  0  0
  4 29  1  0  0  0  0
  6  9  1  0  0  0  0
  6 12  1  0  0  0  0
  8 10  1  0  0  0  0
  8 11  2  0  0  0  0
  9 13  1  0  0  0  0
  9 14  1  0  0  0  0
  9 15  1  0  0  0  0
 10 16  1  0  0  0  0
 10 17  1  0  0  0  0
 10 18  1  0  0  0  0
 19 20  1  0  0  0  0
 20 21  1  0  0  0  0
 20 22  1  0  0  0  0
 20 23  1  0  0  0  0
 23 24  4  0  0  0  0
 23 28  4  0  0  0  0
 24 25  4  0  0  0  0
 24 30  1  0  0  0  0
 25 26  4  0  0  0  0
 25 29  1  0  0  0  0
 26 27  4  0  0  0  0
 26 31  1  0  0  0  0
 27 28  4  0  0  0  0
 27 32  1  0  0  0  0
 28 33  1  0  0  0  0
 29 34  1  0  0  0  0
 29 35  1  0  0  0  0
M  END
> <BCLConfClusterSize>
1

> <ConfClashScore>
0 

> <ConfOneFourInteractionScore>
-0.985807 

> <ConfScore>
-0.13444 

> <ConfScorePBest>
0.00680853 

> <ConfTolerance>
0.294677 

> <RosettaParamsInstructions>
M  ROOT 3
M  POLY_N_BB 3
M  POLY_CA_BB 4
M  POLY_C_BB 2
M  POLY_O_BB 5
M  POLY_IGNORE 9 10 11 12 13 14 15 16 17 18 
M  POLY_UPPER 6
M  POLY_LOWER 8
M  POLY_CHG 0
M  POLY_PROPERTIES ALPHA_AA L_AA PROTEIN AROMATIC POLYMER 
M  END

$$$$



 35 35  0  0  0  0  0  0  0  0999 V2000
   -1.8594    2.1728   -1.0565 H   0  0  0  1  0  0  0  0  0  0  0  0
   -0.0437    3.2377   -1.1608 C   0  0  0  1  0  0  0  0  0  0  0  0
   -0.3755    0.8903   -0.4333 N   0  0  0  1  0  0  0  0  0  0  0  0
   -0.9577    2.2232   -0.4827 C   0  0  0  1  0  0  0  0  0  0  0  0
   -0.4723    4.0380   -1.9911 O   0  0  0  1  0  0  0  0  0  0  0  0
    1.2355    3.1613   -0.7633 N   0  0  0  1  0  0  0  0  0  0  0  0
   -0.2323    0.4688    0.4397 H   0  0  0  1  0  0  0  0  0  0  0  0
   -0.0295    0.2214   -1.5368 C   0  0  0  1  0  0  0  0  0  0  0  0
    2.3024    3.8905   -1.4325 C   0  0  0  1  0  0  0  0  0  0  0  0
    0.4155   -1.2127   -1.3255 C   0  0  0  1  0  0  0  0  0  0  0  0
   -0.0633    0.7194   -2.6590 O   0  0  0  1  0  0  0  0  0  0  0  0
    1.4592    2.5947    0.0044 H   0  0  0  1  0  0  0  0  0  0  0  0
    1.9093    4.7925   -1.8530 H   0  0  0  1  0  0  0  0  0  0  0  0
    2.7144    3.2840   -2.2118 H   0  0  0  1  0  0  0  0  0  0  0  0
    3.0680    4.1312   -0.7248 H   0  0  0  1  0  0  0  0  0  0  0  0
    0.1993   -1.5093   -0.3204 H   0  0  0  1  0  0  0  0  0  0  0  0
    1.4683   -1.2887   -1.5009 H   0  0  0  1  0  0  0  0  0  0  0  0
   -0.1071   -1.8520   -2.0060 H   0  0  0  1  0  0  0  0  0  0  0  0
   -0.3579    7.6699    0.6842 F   0  0  0  1  0  0  0  0  0  0  0  0
   -1.6194    7.7086    1.1165 C   0  0  0  1  0  0  0  0  0  0  0  0
   -1.5708    8.1706    2.3670 F   0  0  0  1  0  0  0  0  0  0  0  0
   -2.2328    8.6476    0.3949 F   0  0  0  1  0  0  0  0  0  0  0  0
   -2.3069    6.3624    1.0216 C   0  0  0  1  0  0  0  0  0  0  0  0
   -1.5559    5.1983    1.0082 C   0  0  0  1  0  0  0  0  0  0  0  0
   -2.1642    3.9473    0.9371 C   0  0  0  1  0  0  0  0  0  0  0  0
   -3.5529    3.9028    0.8741 C   0  0  0  1  0  0  0  0  0  0  0  0
   -4.3098    5.0650    0.8771 C   0  0  0  1  0  0  0  0  0  0  0  0
   -3.6901    6.2915    0.9478 C   0  0  0  1  0  0  0  0  0  0  0  0
   -1.3424    2.6800    0.9288 C   0  0  0  1  0  0  0  0  0  0  0  0
   -0.5186    5.2597    1.0520 H   0  0  0  1  0  0  0  0  0  0  0  0
   -4.0324    2.9813    0.8237 H   0  0  0  1  0  0  0  0  0  0  0  0
   -5.3471    5.0094    0.8260 H   0  0  0  1  0  0  0  0  0  0  0  0
   -4.2574    7.1631    0.9458 H   0  0  0  1  0  0  0  0  0  0  0  0
   -0.4460    2.8517    1.4873 H   0  0  0  1  0  0  0  0  0  0  0  0
   -1.9105    1.9026    1.3954 H   0  0  0  1  0  0  0  0  0  0  0  0
  1  4  1  0  0  0  0
  2  4  1  0  0  0  0
  2  5  2  0  0  0  0
  2  6  1  0  0  0  0
  3  4  1  0  0  0  0
  3  7  1  0  0  0  0
  3  8  1  0  0  0  0
  4 29  1  0  0  0  0
  6  9  1  0  0  0  0
  6 12  1  0  0  0  0
  8 10  1  0  0  0  0
  8 11  2  0  0  0  0
  9 13  1  0  0  0  0
  9 14  1  0  0  0  0
  9 15  1  0  0  0  0
 10 16  1  0  0  0  0
 10 17  1  0  0  0  0
 10 18  1  0  0  0  0
 19 20  1  0  0  0  0
 20 21  1  0  0  0  0
 20 22  1  0  0  0  0
 20 23  1  0  0  0  0
 23 24  4  0  0  0  0
 23 28  4  0  0  0  0
 24 25  4  0  0  0  0
 24 30  1  0  0  0  0
 25 26  4  0  0  0  0
 25 29  1  0  0  0  0
 26 27  4  0  0  0  0
 26 31  1  0  0  0  0
 27 28  4  0  0  0  0
 27 32  1  0  0  0  0
 28 33  1  0  0  0  0
 29 34  1  0  0  0  0
 29 35  1  0  0  0  0
M  END
> <BCLConfClusterSize>
1

> <ConfClashScore>
0 

> <ConfOneFourInteractionScore>
-0.960318 

> <ConfScore>
-0.13389 

> <ConfScorePBest>
0.00678005 

> <ConfTolerance>
0.310388 

> <RosettaParamsInstructions>
M  ROOT 3
M  POLY_N_BB 3
M  POLY_CA_BB 4
M  POLY_C_BB 2
M  POLY_O_BB 5
M  POLY_IGNORE 9 10 11 12 13 14 15 16 17 18 
M  POLY_UPPER 6
M  POLY_LOWER 8
M  POLY_CHG 0
M  POLY_PROPERTIES ALPHA_AA L_AA PROTEIN AROMATIC POLYMER 
M  END

$$$$



 35 35  0  0  0  0  0  0  0  0999 V2000
   -2.2971    1.7645    2.5648 H   0  0  0  1  0  0  0  0  0  0  0  0
   -0.4193    0.8226    2.2932 C   0  0  0  1  0  0  0  0  0  0  0  0
   -0.8208    3.0179    3.2906 N   0  0  0  1  0  0  0  0  0  0  0  0
   -1.3044    2.0654    2.3023 C   0  0  0  1  0  0  0  0  0  0  0  0
   -0.7616   -0.2173    1.7604 O   0  0  0  1  0  0  0  0  0  0  0  0
    0.7802    0.8719    2.8924 N   0  0  0  1  0  0  0  0  0  0  0  0
   -0.6403    3.9449    3.0288 H   0  0  0  1  0  0  0  0  0  0  0  0
   -0.6208    2.6280    4.5646 C   0  0  0  1  0  0  0  0  0  0  0  0
    1.6333   -0.3068    2.9178 C   0  0  0  1  0  0  0  0  0  0  0  0
   -0.2053    3.7559    5.4890 C   0  0  0  1  0  0  0  0  0  0  0  0
   -0.7534    1.4771    4.9724 O   0  0  0  1  0  0  0  0  0  0  0  0
    1.0825    1.7035    3.3138 H   0  0  0  1  0  0  0  0  0  0  0  0
    1.2150   -1.0363    3.5795 H   0  0  0  1  0  0  0  0  0  0  0  0
    2.6094   -0.0331    3.2604 H   0  0  0  1  0  0  0  0  0  0  0  0
    1.7029   -0.7178    1.9323 H   0  0  0  1  0  0  0  0  0  0  0  0
   -0.6578    3.6163    6.4485 H   0  0  0  1  0  0  0  0  0  0  0  0
   -0.5246    4.6903    5.0769 H   0  0  0  1  0  0  0  0  0  0  0  0
    0.8595    3.7569    5.5938 H   0  0  0  1  0  0  0  0  0  0  0  0
   -0.4355    7.7348    0.5045 F   0  0  0  1  0  0  0  0  0  0  0  0
   -1.6228    7.7068    1.1123 C   0  0  0  1  0  0  0  0  0  0  0  0
   -1.3743    8.0908    2.3654 F   0  0  0  1  0  0  0  0  0  0  0  0
   -2.3176    8.6879    0.5607 F   0  0  0  1  0  0  0  0  0  0  0  0
   -2.3071    6.3582    1.0240 C   0  0  0  1  0  0  0  0  0  0  0  0
   -1.5526    5.2004    1.0024 C   0  0  0  1  0  0  0  0  0  0  0  0
   -2.1789    3.9661    0.9270 C   0  0  0  1  0  0  0  0  0  0  0  0
   -3.5578    3.8934    0.8680 C   0  0  0  1  0  0  0  0  0  0  0  0
   -4.3147    5.0545    0.8897 C   0  0  0  1  0  0  0  0  0  0  0  0
   -3.6901    6.2852    0.9649 C   0  0  0  1  0  0  0  0  0  0  0  0
   -1.3544    2.7006    0.9092 C   0  0  0  1  0  0  0  0  0  0  0  0
   -0.5148    5.2552    1.0427 H   0  0  0  1  0  0  0  0  0  0  0  0
   -4.0276    2.9676    0.8074 H   0  0  0  1  0  0  0  0  0  0  0  0
   -5.3525    4.9996    0.8494 H   0  0  0  1  0  0  0  0  0  0  0  0
   -4.2578    7.1565    0.9771 H   0  0  0  1  0  0  0  0  0  0  0  0
   -1.7921    2.0064    0.2226 H   0  0  0  1  0  0  0  0  0  0  0  0
   -0.3589    2.9348    0.5945 H   0  0  0  1  0  0  0  0  0  0  0  0
  1  4  1  0  0  0  0
  2  4  1  0  0  0  0
  2  5  2  0  0  0  0
  2  6  1  0  0  0  0
  3  4  1  0  0  0  0
  3  7  1  0  0  0  0
  3  8  1  0  0  0  0
  4 29  1  0  0  0  0
  6  9  1  0  0  0  0
  6 12  1  0  0  0  0
  8 10  1  0  0  0  0
  8 11  2  0  0  0  0
  9 13  1  0  0  0  0
  9 14  1  0  0  0  0
  9 15  1  0  0  0  0
 10 16  1  0  0  0  0
 10 17  1  0  0  0  0
 10 18  1  0  0  0  0
 19 20  1  0  0  0  0
 20 21  1  0  0  0  0
 20 22  1  0  0  0  0
 20 23  1  0  0  0  0
 23 24  4  0  0  0  0
 23 28  4  0  0  0  0
 24 25  4  0  0  0  0
 24 30  1  0  0  0  0
 25 26  4  0  0  0  0
 25 29  1  0  0  0  0
 26 27  4  0  0  0  0
 26 31  1  0  0  0  0
 27 28  4  0  0  0  0
 27 32  1  0  0  0  0
 28 33  1  0  0  0  0
 29 34  1  0  0  0  0
 29 35  1  0  0  0  0
M  END
> <BCLConfClusterSize>
1

> <ConfClashScore>
0 

> <ConfOneFourInteractionScore>
-0.94165 

> <ConfScore>
-0.132874 

> <ConfScorePBest>
0.00675157 

> <ConfTolerance>
0.33196 

> <RosettaParamsInstructions>
M  ROOT 3
M  POLY_N_BB 3
M  POLY_CA_BB 4
M  POLY_C_BB 2
M  POLY_O_BB 5
M  POLY_IGNORE 9 10 11 12 13 14 15 16 17 18 
M  POLY_UPPER 6
M  POLY_LOWER 8
M  POLY_CHG 0
M  POLY_PROPERTIES ALPHA_AA L_AA PROTEIN AROMATIC POLYMER 
M  END

$$$$



 35 35  0  0  0  0  0  0  0  0999 V2000
   -0.3777    2.9980   -0.9620 H   0  0  0  1  0  0  0  0  0  0  0  0
   -0.2255    0.9482   -0.4829 C   0  0  0  1  0  0  0  0  0  0  0  0
   -2.2012    2.0961   -1.3291 N   0  0  0  1  0  0  0  0  0  0  0  0
   -1.0019    2.2501   -0.5192 C   0  0  0  1  0  0  0  0  0  0  0  0
    0.9469    0.9228   -0.1105 O   0  0  0  1  0  0  0  0  0  0  0  0
   -0.8550   -0.1730   -0.8685 N   0  0  0  1  0  0  0  0  0  0  0  0
   -3.0420    2.4427   -0.9641 H   0  0  0  1  0  0  0  0  0  0  0  0
   -2.2421    1.5196   -2.5286 C   0  0  0  1  0  0  0  0  0  0  0  0
   -0.2086   -1.4586   -1.0862 C   0  0  0  1  0  0  0  0  0  0  0  0
   -3.6306    1.3384   -3.1477 C   0  0  0  1  0  0  0  0  0  0  0  0
   -1.2727    1.1261   -3.1719 O   0  0  0  1  0  0  0  0  0  0  0  0
   -1.8227   -0.1220   -1.0145 H   0  0  0  1  0  0  0  0  0  0  0  0
   -0.8751   -2.2461   -0.8024 H   0  0  0  1  0  0  0  0  0  0  0  0
    0.6815   -1.5147   -0.4950 H   0  0  0  1  0  0  0  0  0  0  0  0
    0.0430   -1.5603   -2.1212 H   0  0  0  1  0  0  0  0  0  0  0  0
   -4.3463    1.1577   -2.3731 H   0  0  0  1  0  0  0  0  0  0  0  0
   -3.6152    0.5062   -3.8201 H   0  0  0  1  0  0  0  0  0  0  0  0
   -3.9007    2.2249   -3.6827 H   0  0  0  1  0  0  0  0  0  0  0  0
   -0.7256    7.8883    0.1389 F   0  0  0  1  0  0  0  0  0  0  0  0
   -1.6192    7.7047    1.1125 C   0  0  0  1  0  0  0  0  0  0  0  0
   -0.9590    7.8681    2.2600 F   0  0  0  1  0  0  0  0  0  0  0  0
   -2.4781    8.7214    1.0275 F   0  0  0  1  0  0  0  0  0  0  0  0
   -2.3028    6.3607    1.0245 C   0  0  0  1  0  0  0  0  0  0  0  0
   -1.5490    5.2027    0.9943 C   0  0  0  1  0  0  0  0  0  0  0  0
   -2.1767    3.9691    0.9190 C   0  0  0  1  0  0  0  0  0  0  0  0
   -3.5560    3.8973    0.8687 C   0  0  0  1  0  0  0  0  0  0  0  0
   -4.3120    5.0589    0.8990 C   0  0  0  1  0  0  0  0  0  0  0  0
   -3.6862    6.2889    0.9741 C   0  0  0  1  0  0  0  0  0  0  0  0
   -1.3531    2.7032    0.8918 C   0  0  0  1  0  0  0  0  0  0  0  0
   -0.5110    5.2569    1.0281 H   0  0  0  1  0  0  0  0  0  0  0  0
   -4.0267    2.9719    0.8082 H   0  0  0  1  0  0  0  0  0  0  0  0
   -5.3500    5.0047    0.8653 H   0  0  0  1  0  0  0  0  0  0  0  0
   -4.2533    7.1606    0.9928 H   0  0  0  1  0  0  0  0  0  0  0  0
   -0.4446    2.8764    1.4300 H   0  0  0  1  0  0  0  0  0  0  0  0
   -1.9092    1.9248    1.3710 H   0  0  0  1  0  0  0  0  0  0  0  0
  1  4  1  0  0  0  0
  2  4  1  0  0  0  0
  2  5  2  0  0  0  0
  2  6  1  0  0  0  0
  3  4  1  0  0  0  0
  3  7  1  0  0  0  0
  3  8  1  0  0  0  0
  4 29  1  0  0  0  0
  6  9  1  0  0  0  0
  6 12  1  0  0  0  0
  8 10  1  0  0  0  0
  8 11  2  0  0  0  0
  9 13  1  0  0  0  0
  9 14  1  0  0  0  0
  9 15  1  0  0  0  0
 10 16  1  0  0  0  0
 10 17  1  0  0  0  0
 10 18  1  0  0  0  0
 19 20  1  0  0  0  0
 20 21  1  0  0  0  0
 20 22  1  0  0  0  0
 20 23  1  0  0  0  0
 23 24  4  0  0  0  0
 23 28  4  0  0  0  0
 24 25  4  0  0  0  0
 24 30  1  0  0  0  0
 25 26  4  0  0  0  0
 25 29  1  0  0  0  0
 26 27  4  0  0  0  0
 26 31  1  0  0  0  0
 27 28  4  0  0  0  0
 27 32  1  0  0  0  0
 28 33  1  0  0  0  0
 29 34  1  0  0  0  0
 29 35  1  0  0  0  0
M  END
> <BCLConfClusterSize>
1

> <ConfClashScore>
0 

> <ConfOneFourInteractionScore>
-0.94165 

> <ConfScore>
-0.129576 

> <ConfScorePBest>
0.00672309 

> <ConfTolerance>
0.405778 

> <RosettaParamsInstructions>
M  ROOT 3
M  POLY_N_BB 3
M  POLY_CA_BB 4
M  POLY_C_BB 2
M  POLY_O_BB 5
M  POLY_IGNORE 9 10 11 12 13 14 15 16 17 18 
M  POLY_UPPER 6
M  POLY_LOWER 8
M  POLY_CHG 0
M  POLY_PROPERTIES ALPHA_AA L_AA PROTEIN AROMATIC POLYMER 
M  END

$$$$



 35 35  0  0  0  0  0  0  0  0999 V2000
   -2.4576    2.2407    3.0764 H   0  0  0  1  0  0  0  0  0  0  0  0
   -0.8994    0.8335    2.9215 C   0  0  0  1  0  0  0  0  0  0  0  0
   -0.7193    3.2118    3.5933 N   0  0  0  1  0  0  0  0  0  0  0  0
   -1.4335    2.2507    2.7663 C   0  0  0  1  0  0  0  0  0  0  0  0
   -1.2462   -0.0665    2.1582 O   0  0  0  1  0  0  0  0  0  0  0  0
   -0.0385    0.6423    3.9337 N   0  0  0  1  0  0  0  0  0  0  0  0
    0.1200    3.5918    3.2592 H   0  0  0  1  0  0  0  0  0  0  0  0
   -1.1680    3.5943    4.7923 C   0  0  0  1  0  0  0  0  0  0  0  0
    0.4688   -0.6914    4.2194 C   0  0  0  1  0  0  0  0  0  0  0  0
   -0.2222    4.4989    5.5789 C   0  0  0  1  0  0  0  0  0  0  0  0
   -2.2166    3.2057    5.2799 O   0  0  0  1  0  0  0  0  0  0  0  0
    0.2490    1.4025    4.4813 H   0  0  0  1  0  0  0  0  0  0  0  0
    0.2826   -1.3313    3.3823 H   0  0  0  1  0  0  0  0  0  0  0  0
   -0.0250   -1.0829    5.0841 H   0  0  0  1  0  0  0  0  0  0  0  0
    1.5219   -0.6407    4.4018 H   0  0  0  1  0  0  0  0  0  0  0  0
   -0.3494    4.3236    6.6267 H   0  0  0  1  0  0  0  0  0  0  0  0
   -0.4432    5.5225    5.3593 H   0  0  0  1  0  0  0  0  0  0  0  0
    0.7888    4.2844    5.3018 H   0  0  0  1  0  0  0  0  0  0  0  0
   -0.6081    7.7309    1.9985 F   0  0  0  1  0  0  0  0  0  0  0  0
   -1.6099    7.7260    1.1175 C   0  0  0  1  0  0  0  0  0  0  0  0
   -2.4427    8.6974    1.4947 F   0  0  0  1  0  0  0  0  0  0  0  0
   -1.0859    8.1139   -0.0460 F   0  0  0  1  0  0  0  0  0  0  0  0
   -2.2952    6.3768    1.0247 C   0  0  0  1  0  0  0  0  0  0  0  0
   -1.5831    5.1943    1.2115 C   0  0  0  1  0  0  0  0  0  0  0  0
   -2.2051    3.9596    1.1220 C   0  0  0  1  0  0  0  0  0  0  0  0
   -3.5648    3.8900    0.8571 C   0  0  0  1  0  0  0  0  0  0  0  0
   -4.2857    5.0469    0.6694 C   0  0  0  1  0  0  0  0  0  0  0  0
   -3.6552    6.2797    0.7504 C   0  0  0  1  0  0  0  0  0  0  0  0
   -1.4048    2.6929    1.3124 C   0  0  0  1  0  0  0  0  0  0  0  0
   -0.5657    5.2391    1.4221 H   0  0  0  1  0  0  0  0  0  0  0  0
   -4.0383    2.9658    0.8005 H   0  0  0  1  0  0  0  0  0  0  0  0
   -5.3044    4.9969    0.4664 H   0  0  0  1  0  0  0  0  0  0  0  0
   -4.2096    7.1473    0.6035 H   0  0  0  1  0  0  0  0  0  0  0  0
   -1.8220    1.9193    0.7021 H   0  0  0  1  0  0  0  0  0  0  0  0
   -0.3911    2.8710    1.0199 H   0  0  0  1  0  0  0  0  0  0  0  0
  1  4  1  0  0  0  0
  2  4  1  0  0  0  0
  2  5  2  0  0  0  0
  2  6  1  0  0  0  0
  3  4  1  0  0  0  0
  3  7  1  0  0  0  0
  3  8  1  0  0  0  0
  4 29  1  0  0  0  0
  6  9  1  0  0  0  0
  6 12  1  0  0  0  0
  8 10  1  0  0  0  0
  8 11  2  0  0  0  0
  9 13  1  0  0  0  0
  9 14  1  0  0  0  0
  9 15  1  0  0  0  0
 10 16  1  0  0  0  0
 10 17  1  0  0  0  0
 10 18  1  0  0  0  0
 19 20  1  0  0  0  0
 20 21  1  0  0  0  0
 20 22  1  0  0  0  0
 20 23  1  0  0  0  0
 23 24  4  0  0  0  0
 23 28  4  0  0  0  0
 24 25  4  0  0  0  0
 24 30  1  0  0  0  0
 25 26  4  0  0  0  0
 25 29  1  0  0  0  0
 26 27  4  0  0  0  0
 26 31  1  0  0  0  0
 27 28  4  0  0  0  0
 27 32  1  0  0  0  0
 28 33  1  0  0  0  0
 29 34  1  0  0  0  0
 29 35  1  0  0  0  0
M  END
> <BCLConfClusterSize>
1

> <ConfClashScore>
0 

> <ConfOneFourInteractionScore>
-0.956443 

> <ConfScore>
-0.125758 

> <ConfScorePBest>
0.0066946 

> <ConfTolerance>
0.323404 

> <RosettaParamsInstructions>
M  ROOT 3
M  POLY_N_BB 3
M  POLY_CA_BB 4
M  POLY_C_BB 2
M  POLY_O_BB 5
M  POLY_IGNORE 9 10 11 12 13 14 15 16 17 18 
M  POLY_UPPER 6
M  POLY_LOWER 8
M  POLY_CHG 0
M  POLY_PROPERTIES ALPHA_AA L_AA PROTEIN AROMATIC POLYMER 
M  END

$$$$



 35 35  0  0  0  0  0  0  0  0999 V2000
   -0.2869    3.0741    2.6993 H   0  0  0  1  0  0  0  0  0  0  0  0
   -2.0149    1.9737    3.2092 C   0  0  0  1  0  0  0  0  0  0  0  0
    0.0215    1.0892    2.1988 N   0  0  0  1  0  0  0  0  0  0  0  0
   -0.8450    2.2592    2.2878 C   0  0  0  1  0  0  0  0  0  0  0  0
   -2.4405    2.8289    3.9846 O   0  0  0  1  0  0  0  0  0  0  0  0
   -2.5421    0.7424    3.1181 N   0  0  0  1  0  0  0  0  0  0  0  0
    0.2316    0.7018    1.3235 H   0  0  0  1  0  0  0  0  0  0  0  0
    0.5318    0.5420    3.3134 C   0  0  0  1  0  0  0  0  0  0  0  0
   -3.5502    0.3067    4.0729 C   0  0  0  1  0  0  0  0  0  0  0  0
    1.4580   -0.6398    3.1025 C   0  0  0  1  0  0  0  0  0  0  0  0
    0.2763    0.9584    4.4402 O   0  0  0  1  0  0  0  0  0  0  0  0
   -2.2474    0.1357    2.4071 H   0  0  0  1  0  0  0  0  0  0  0  0
   -3.3427    0.7343    5.0315 H   0  0  0  1  0  0  0  0  0  0  0  0
   -3.5328   -0.7606    4.1474 H   0  0  0  1  0  0  0  0  0  0  0  0
   -4.5163    0.6259    3.7418 H   0  0  0  1  0  0  0  0  0  0  0  0
    0.9558   -1.5419    3.3835 H   0  0  0  1  0  0  0  0  0  0  0  0
    2.3345   -0.5176    3.7040 H   0  0  0  1  0  0  0  0  0  0  0  0
    1.7374   -0.6941    2.0710 H   0  0  0  1  0  0  0  0  0  0  0  0
   -0.4712    7.7483    0.4389 F   0  0  0  1  0  0  0  0  0  0  0  0
   -1.6181    7.7003    1.1124 C   0  0  0  1  0  0  0  0  0  0  0  0
   -1.3440    8.0735    2.3633 F   0  0  0  1  0  0  0  0  0  0  0  0
   -2.3626    8.6863    0.6101 F   0  0  0  1  0  0  0  0  0  0  0  0
   -2.3076    6.3592    1.0261 C   0  0  0  1  0  0  0  0  0  0  0  0
   -1.5555    5.1942    0.9995 C   0  0  0  1  0  0  0  0  0  0  0  0
   -2.1636    3.9456    0.9248 C   0  0  0  1  0  0  0  0  0  0  0  0
   -3.5549    3.9016    0.8728 C   0  0  0  1  0  0  0  0  0  0  0  0
   -4.3113    5.0621    0.8891 C   0  0  0  1  0  0  0  0  0  0  0  0
   -3.6811    6.2948    0.9740 C   0  0  0  1  0  0  0  0  0  0  0  0
   -1.3420    2.6784    0.9008 C   0  0  0  1  0  0  0  0  0  0  0  0
   -0.5180    5.2553    1.0361 H   0  0  0  1  0  0  0  0  0  0  0  0
   -4.0348    2.9804    0.8209 H   0  0  0  1  0  0  0  0  0  0  0  0
   -5.3486    5.0093    0.8378 H   0  0  0  1  0  0  0  0  0  0  0  0
   -4.2452    7.1682    0.9982 H   0  0  0  1  0  0  0  0  0  0  0  0
   -1.9447    1.8892    0.5021 H   0  0  0  1  0  0  0  0  0  0  0  0
   -0.4936    2.8345    0.2678 H   0  0  0  1  0  0  0  0  0  0  0  0
  1  4  1  0  0  0  0
  2  4  1  0  0  0  0
  2  5  2  0  0  0  0
  2  6  1  0  0  0  0
  3  4  1  0  0  0  0
  3  7  1  0  0  0  0
  3  8  1  0  0  0  0
  4 29  1  0  0  0  0
  6  9  1  0  0  0  0
  6 12  1  0  0  0  0
  8 10  1  0  0  0  0
  8 11  2  0  0  0  0
  9 13  1  0  0  0  0
  9 14  1  0  0  0  0
  9 15  1  0  0  0  0
 10 16  1  0  0  0  0
 10 17  1  0  0  0  0
 10 18  1  0  0  0  0
 19 20  1  0  0  0  0
 20 21  1  0  0  0  0
 20 22  1  0  0  0  0
 20 23  1  0  0  0  0
 23 24  4  0  0  0  0
 23 28  4  0  0  0  0
 24 25  4  0  0  0  0
 24 30  1  0  0  0  0
 25 26  4  0  0  0  0
 25 29  1  0  0  0  0
 26 27  4  0  0  0  0
 26 31  1  0  0  0  0
 27 28  4  0  0  0  0
 27 32  1  0  0  0  0
 28 33  1  0  0  0  0
 29 34  1  0  0  0  0
 29 35  1  0  0  0  0
M  END
> <BCLConfClusterSize>
1

> <ConfClashScore>
0 

> <ConfOneFourInteractionScore>
-0.960318 

> <ConfScore>
-0.122531 

> <ConfScorePBest>
0.00666612 

> <ConfTolerance>
0.332394 

> <RosettaParamsInstructions>
M  ROOT 3
M  POLY_N_BB 3
M  POLY_CA_BB 4
M  POLY_C_BB 2
M  POLY_O_BB 5
M  POLY_IGNORE 9 10 11 12 13 14 15 16 17 18 
M  POLY_UPPER 6
M  POLY_LOWER 8
M  POLY_CHG 0
M  POLY_PROPERTIES ALPHA_AA L_AA PROTEIN AROMATIC POLYMER 
M  END

$$$$



 35 35  0  0  0  0  0  0  0  0999 V2000
    0.2016    3.5232   -0.2477 H   0  0  0  1  0  0  0  0  0  0  0  0
    0.5567    1.4509   -0.1958 C   0  0  0  1  0  0  0  0  0  0  0  0
   -1.1108    2.5839   -1.5258 N   0  0  0  1  0  0  0  0  0  0  0  0
   -0.3912    2.6325   -0.2632 C   0  0  0  1  0  0  0  0  0  0  0  0
    1.7178    1.5849    0.1881 O   0  0  0  1  0  0  0  0  0  0  0  0
    0.0450    0.2703   -0.5786 N   0  0  0  1  0  0  0  0  0  0  0  0
   -2.0759    2.4139   -1.5139 H   0  0  0  1  0  0  0  0  0  0  0  0
   -0.5021    2.7629   -2.7016 C   0  0  0  1  0  0  0  0  0  0  0  0
    0.8135   -0.9643   -0.5241 C   0  0  0  1  0  0  0  0  0  0  0  0
   -1.3551    2.5593   -3.9385 C   0  0  0  1  0  0  0  0  0  0  0  0
    0.6617    3.1511   -2.7898 O   0  0  0  1  0  0  0  0  0  0  0  0
   -0.8781    0.2388   -0.9062 H   0  0  0  1  0  0  0  0  0  0  0  0
    1.4140   -0.9725    0.3615 H   0  0  0  1  0  0  0  0  0  0  0  0
    1.4464   -1.0286   -1.3844 H   0  0  0  1  0  0  0  0  0  0  0  0
    0.1451   -1.7998   -0.5092 H   0  0  0  1  0  0  0  0  0  0  0  0
   -0.7594    2.7170   -4.8132 H   0  0  0  1  0  0  0  0  0  0  0  0
   -2.1673    3.2559   -3.9301 H   0  0  0  1  0  0  0  0  0  0  0  0
   -1.7407    1.5612   -3.9452 H   0  0  0  1  0  0  0  0  0  0  0  0
   -0.3730    7.6741    0.6361 F   0  0  0  1  0  0  0  0  0  0  0  0
   -1.6199    7.7054    1.1096 C   0  0  0  1  0  0  0  0  0  0  0  0
   -1.5320    8.1576    2.3615 F   0  0  0  1  0  0  0  0  0  0  0  0
   -2.2592    8.6481    0.4158 F   0  0  0  1  0  0  0  0  0  0  0  0
   -2.3043    6.3615    1.0264 C   0  0  0  1  0  0  0  0  0  0  0  0
   -1.5497    5.1988    1.0153 C   0  0  0  1  0  0  0  0  0  0  0  0
   -2.1755    3.9693    0.9339 C   0  0  0  1  0  0  0  0  0  0  0  0
   -3.5583    3.8986    0.8687 C   0  0  0  1  0  0  0  0  0  0  0  0
   -4.3110    5.0578    0.8797 C   0  0  0  1  0  0  0  0  0  0  0  0
   -3.6831    6.2909    0.9614 C   0  0  0  1  0  0  0  0  0  0  0  0
   -1.3528    2.7027    0.9159 C   0  0  0  1  0  0  0  0  0  0  0  0
   -0.5123    5.2517    1.0683 H   0  0  0  1  0  0  0  0  0  0  0  0
   -4.0295    2.9732    0.8114 H   0  0  0  1  0  0  0  0  0  0  0  0
   -5.3483    5.0048    0.8268 H   0  0  0  1  0  0  0  0  0  0  0  0
   -4.2496    7.1630    0.9738 H   0  0  0  1  0  0  0  0  0  0  0  0
   -0.7854    2.6522    1.8216 H   0  0  0  1  0  0  0  0  0  0  0  0
   -2.0173    1.8656    0.8636 H   0  0  0  1  0  0  0  0  0  0  0  0
  1  4  1  0  0  0  0
  2  4  1  0  0  0  0
  2  5  2  0  0  0  0
  2  6  1  0  0  0  0
  3  4  1  0  0  0  0
  3  7  1  0  0  0  0
  3  8  1  0  0  0  0
  4 29  1  0  0  0  0
  6  9  1  0  0  0  0
  6 12  1  0  0  0  0
  8 10  1  0  0  0  0
  8 11  2  0  0  0  0
  9 13  1  0  0  0  0
  9 14  1  0  0  0  0
  9 15  1  0  0  0  0
 10 16  1  0  0  0  0
 10 17  1  0  0  0  0
 10 18  1  0  0  0  0
 19 20  1  0  0  0  0
 20 21  1  0  0  0  0
 20 22  1  0  0  0  0
 20 23  1  0  0  0  0
 23 24  4  0  0  0  0
 23 28  4  0  0  0  0
 24 25  4  0  0  0  0
 24 30  1  0  0  0  0
 25 26  4  0  0  0  0
 25 29  1  0  0  0  0
 26 27  4  0  0  0  0
 26 31  1  0  0  0  0
 27 28  4  0  0  0  0
 27 32  1  0  0  0  0
 28 33  1  0  0  0  0
 29 34  1  0  0  0  0
 29 35  1  0  0  0  0
M  END
> <BCLConfClusterSize>
1

> <ConfClashScore>
0 

> <ConfOneFourInteractionScore>
-0.960318 

> <ConfScore>
-0.114014 

> <ConfScorePBest>
0.00663764 

> <ConfTolerance>
0.307365 

> <RosettaParamsInstructions>
M  ROOT 3
M  POLY_N_BB 3
M  POLY_CA_BB 4
M  POLY_C_BB 2
M  POLY_O_BB 5
M  POLY_IGNORE 9 10 11 12 13 14 15 16 17 18 
M  POLY_UPPER 6
M  POLY_LOWER 8
M  POLY_CHG 0
M  POLY_PROPERTIES ALPHA_AA L_AA PROTEIN AROMATIC POLYMER 
M  END

$$$$



 35 35  0  0  0  0  0  0  0  0999 V2000
   -2.5637    1.9965    2.9841 H   0  0  0  1  0  0  0  0  0  0  0  0
   -0.7387    0.9566    3.0383 C   0  0  0  1  0  0  0  0  0  0  0  0
   -1.1479    3.3028    3.7136 N   0  0  0  1  0  0  0  0  0  0  0  0
   -1.5338    2.2269    2.8075 C   0  0  0  1  0  0  0  0  0  0  0  0
    0.3651    0.9840    3.5808 O   0  0  0  1  0  0  0  0  0  0  0  0
   -1.3172   -0.1785    2.6150 N   0  0  0  1  0  0  0  0  0  0  0  0
   -0.5490    3.9958    3.3650 H   0  0  0  1  0  0  0  0  0  0  0  0
   -1.5487    3.4145    4.9809 C   0  0  0  1  0  0  0  0  0  0  0  0
   -0.6527   -1.4701    2.7048 C   0  0  0  1  0  0  0  0  0  0  0  0
   -0.9438    4.5868    5.7500 C   0  0  0  1  0  0  0  0  0  0  0  0
   -2.2894    2.6065    5.5376 O   0  0  0  1  0  0  0  0  0  0  0  0
   -2.2183   -0.1358    2.2321 H   0  0  0  1  0  0  0  0  0  0  0  0
    0.3953   -1.3456    2.5286 H   0  0  0  1  0  0  0  0  0  0  0  0
   -1.0612   -2.1329    1.9709 H   0  0  0  1  0  0  0  0  0  0  0  0
   -0.8036   -1.8814    3.6810 H   0  0  0  1  0  0  0  0  0  0  0  0
   -1.5813    5.4412    5.6584 H   0  0  0  1  0  0  0  0  0  0  0  0
    0.0207    4.8171    5.3481 H   0  0  0  1  0  0  0  0  0  0  0  0
   -0.8469    4.3236    6.7826 H   0  0  0  1  0  0  0  0  0  0  0  0
   -0.6671    7.7513    2.0596 F   0  0  0  1  0  0  0  0  0  0  0  0
   -1.6105    7.7216    1.1167 C   0  0  0  1  0  0  0  0  0  0  0  0
   -2.4594    8.7085    1.4076 F   0  0  0  1  0  0  0  0  0  0  0  0
   -1.0106    8.0685   -0.0228 F   0  0  0  1  0  0  0  0  0  0  0  0
   -2.2946    6.3781    1.0248 C   0  0  0  1  0  0  0  0  0  0  0  0
   -1.5877    5.1974    1.2259 C   0  0  0  1  0  0  0  0  0  0  0  0
   -2.2124    3.9621    1.1378 C   0  0  0  1  0  0  0  0  0  0  0  0
   -3.5561    3.8877    0.8512 C   0  0  0  1  0  0  0  0  0  0  0  0
   -4.2855    5.0512    0.6562 C   0  0  0  1  0  0  0  0  0  0  0  0
   -3.6538    6.2816    0.7358 C   0  0  0  1  0  0  0  0  0  0  0  0
   -1.4166    2.6971    1.3567 C   0  0  0  1  0  0  0  0  0  0  0  0
   -0.5723    5.2414    1.4464 H   0  0  0  1  0  0  0  0  0  0  0  0
   -4.0236    2.9614    0.7810 H   0  0  0  1  0  0  0  0  0  0  0  0
   -5.3037    5.0001    0.4509 H   0  0  0  1  0  0  0  0  0  0  0  0
   -4.2046    7.1493    0.5769 H   0  0  0  1  0  0  0  0  0  0  0  0
   -1.7893    1.9316    0.7087 H   0  0  0  1  0  0  0  0  0  0  0  0
   -0.3879    2.8864    1.1313 H   0  0  0  1  0  0  0  0  0  0  0  0
  1  4  1  0  0  0  0
  2  4  1  0  0  0  0
  2  5  2  0  0  0  0
  2  6  1  0  0  0  0
  3  4  1  0  0  0  0
  3  7  1  0  0  0  0
  3  8  1  0  0  0  0
  4 29  1  0  0  0  0
  6  9  1  0  0  0  0
  6 12  1  0  0  0  0
  8 10  1  0  0  0  0
  8 11  2  0  0  0  0
  9 13  1  0  0  0  0
  9 14  1  0  0  0  0
  9 15  1  0  0  0  0
 10 16  1  0  0  0  0
 10 17  1  0  0  0  0
 10 18  1  0  0  0  0
 19 20  1  0  0  0  0
 20 21  1  0  0  0  0
 20 22  1  0  0  0  0
 20 23  1  0  0  0  0
 23 24  4  0  0  0  0
 23 28  4  0  0  0  0
 24 25  4  0  0  0  0
 24 30  1  0  0  0  0
 25 26  4  0  0  0  0
 25 29  1  0  0  0  0
 26 27  4  0  0  0  0
 26 31  1  0  0  0  0
 27 28  4  0  0  0  0
 27 32  1  0  0  0  0
 28 33  1  0  0  0  0
 29 34  1  0  0  0  0
 29 35  1  0  0  0  0
M  END
> <BCLConfClusterSize>
1

> <ConfClashScore>
0 

> <ConfOneFourInteractionScore>
-0.985807 

> <ConfScore>
-0.113373 

> <ConfScorePBest>
0.00660916 

> <ConfTolerance>
0.345307 

> <RosettaParamsInstructions>
M  ROOT 3
M  POLY_N_BB 3
M  POLY_CA_BB 4
M  POLY_C_BB 2
M  POLY_O_BB 5
M  POLY_IGNORE 9 10 11 12 13 14 15 16 17 18 
M  POLY_UPPER 6
M  POLY_LOWER 8
M  POLY_CHG 0
M  POLY_PROPERTIES ALPHA_AA L_AA PROTEIN AROMATIC POLYMER 
M  END

$$$$



 35 35  0  0  0  0  0  0  0  0999 V2000
   -2.3635    1.6639    2.4445 H   0  0  0  1  0  0  0  0  0  0  0  0
   -0.5080    0.7039    2.1412 C   0  0  0  1  0  0  0  0  0  0  0  0
   -0.8755    2.8130    3.3048 N   0  0  0  1  0  0  0  0  0  0  0  0
   -1.3569    1.9572    2.2307 C   0  0  0  1  0  0  0  0  0  0  0  0
   -1.0013   -0.3808    1.8353 O   0  0  0  1  0  0  0  0  0  0  0  0
    0.7959    0.8623    2.4150 N   0  0  0  1  0  0  0  0  0  0  0  0
   -0.0900    3.3767    3.1444 H   0  0  0  1  0  0  0  0  0  0  0  0
   -1.4720    2.8573    4.5120 C   0  0  0  1  0  0  0  0  0  0  0  0
    1.8051   -0.1792    2.2942 C   0  0  0  1  0  0  0  0  0  0  0  0
   -0.8147    3.8201    5.4816 C   0  0  0  1  0  0  0  0  0  0  0  0
   -2.4575    2.1934    4.8309 O   0  0  0  1  0  0  0  0  0  0  0  0
    1.0909    1.7460    2.7192 H   0  0  0  1  0  0  0  0  0  0  0  0
    1.3604   -1.1321    2.4922 H   0  0  0  1  0  0  0  0  0  0  0  0
    2.5897    0.0013    2.9990 H   0  0  0  1  0  0  0  0  0  0  0  0
    2.2072   -0.1726    1.3027 H   0  0  0  1  0  0  0  0  0  0  0  0
    0.2213    3.9237    5.2350 H   0  0  0  1  0  0  0  0  0  0  0  0
   -0.9078    3.4415    6.4781 H   0  0  0  1  0  0  0  0  0  0  0  0
   -1.2938    4.7746    5.4160 H   0  0  0  1  0  0  0  0  0  0  0  0
   -0.8640    7.9612    0.0362 F   0  0  0  1  0  0  0  0  0  0  0  0
   -1.6141    7.7268    1.1144 C   0  0  0  1  0  0  0  0  0  0  0  0
   -0.7952    7.7894    2.1655 F   0  0  0  1  0  0  0  0  0  0  0  0
   -2.4752    8.7395    1.2227 F   0  0  0  1  0  0  0  0  0  0  0  0
   -2.2968    6.3822    1.0279 C   0  0  0  1  0  0  0  0  0  0  0  0
   -1.5598    5.2030    1.0054 C   0  0  0  1  0  0  0  0  0  0  0  0
   -2.1838    3.9671    0.9216 C   0  0  0  1  0  0  0  0  0  0  0  0
   -3.5564    3.8902    0.8635 C   0  0  0  1  0  0  0  0  0  0  0  0
   -4.3145    5.0513    0.8945 C   0  0  0  1  0  0  0  0  0  0  0  0
   -3.6850    6.2831    0.9683 C   0  0  0  1  0  0  0  0  0  0  0  0
   -1.3557    2.7042    0.8943 C   0  0  0  1  0  0  0  0  0  0  0  0
   -0.5219    5.2487    1.0521 H   0  0  0  1  0  0  0  0  0  0  0  0
   -4.0242    2.9637    0.7965 H   0  0  0  1  0  0  0  0  0  0  0  0
   -5.3526    4.9973    0.8625 H   0  0  0  1  0  0  0  0  0  0  0  0
   -4.2594    7.1500    0.9793 H   0  0  0  1  0  0  0  0  0  0  0  0
   -1.7498    2.0548    0.1407 H   0  0  0  1  0  0  0  0  0  0  0  0
   -0.3468    2.9638    0.6501 H   0  0  0  1  0  0  0  0  0  0  0  0
  1  4  1  0  0  0  0
  2  4  1  0  0  0  0
  2  5  2  0  0  0  0
  2  6  1  0  0  0  0
  3  4  1  0  0  0  0
  3  7  1  0  0  0  0
  3  8  1  0  0  0  0
  4 29  1  0  0  0  0
  6  9  1  0  0  0  0
  6 12  1  0  0  0  0
  8 10  1  0  0  0  0
  8 11  2  0  0  0  0
  9 13  1  0  0  0  0
  9 14  1  0  0  0  0
  9 15  1  0  0  0  0
 10 16  1  0  0  0  0
 10 17  1  0  0  0  0
 10 18  1  0  0  0  0
 19 20  1  0  0  0  0
 20 21  1  0  0  0  0
 20 22  1  0  0  0  0
 20 23  1  0  0  0  0
 23 24  4  0  0  0  0
 23 28  4  0  0  0  0
 24 25  4  0  0  0  0
 24 30  1  0  0  0  0
 25 26  4  0  0  0  0
 25 29  1  0  0  0  0
 26 27  4  0  0  0  0
 26 31  1  0  0  0  0
 27 28  4  0  0  0  0
 27 32  1  0  0  0  0
 28 33  1  0  0  0  0
 29 34  1  0  0  0  0
 29 35  1  0  0  0  0
M  END
> <BCLConfClusterSize>
1

> <ConfClashScore>
0 

> <ConfOneFourInteractionScore>
-0.960318 

> <ConfScore>
-0.112822 

> <ConfScorePBest>
0.00658068 

> <ConfTolerance>
0.370631 

> <RosettaParamsInstructions>
M  ROOT 3
M  POLY_N_BB 3
M  POLY_CA_BB 4
M  POLY_C_BB 2
M  POLY_O_BB 5
M  POLY_IGNORE 9 10 11 12 13 14 15 16 17 18 
M  POLY_UPPER 6
M  POLY_LOWER 8
M  POLY_CHG 0
M  POLY_PROPERTIES ALPHA_AA L_AA PROTEIN AROMATIC POLYMER 
M  END

$$$$



 35 35  0  0  0  0  0  0  0  0999 V2000
   -0.4033    2.9780   -0.8447 H   0  0  0  1  0  0  0  0  0  0  0  0
   -0.2229    0.9367   -0.3700 C   0  0  0  1  0  0  0  0  0  0  0  0
   -2.2400    2.1163   -1.1876 N   0  0  0  1  0  0  0  0  0  0  0  0
   -1.0227    2.2285   -0.3980 C   0  0  0  1  0  0  0  0  0  0  0  0
   -0.6091   -0.0304    0.2851 O   0  0  0  1  0  0  0  0  0  0  0  0
    0.9078    0.8838   -1.0756 N   0  0  0  1  0  0  0  0  0  0  0  0
   -2.8589    1.3799   -1.0005 H   0  0  0  1  0  0  0  0  0  0  0  0
   -2.5445    2.9864   -2.1635 C   0  0  0  1  0  0  0  0  0  0  0  0
    1.7985   -0.2655   -1.1371 C   0  0  0  1  0  0  0  0  0  0  0  0
   -3.7139    2.6010   -3.0484 C   0  0  0  1  0  0  0  0  0  0  0  0
   -1.9268    4.0326   -2.3433 O   0  0  0  1  0  0  0  0  0  0  0  0
    1.1576    1.6787   -1.5916 H   0  0  0  1  0  0  0  0  0  0  0  0
    1.2797   -1.0969   -1.5665 H   0  0  0  1  0  0  0  0  0  0  0  0
    2.1220   -0.5189   -0.1491 H   0  0  0  1  0  0  0  0  0  0  0  0
    2.6488   -0.0255   -1.7408 H   0  0  0  1  0  0  0  0  0  0  0  0
   -3.5593    1.6156   -3.4356 H   0  0  0  1  0  0  0  0  0  0  0  0
   -3.7909    3.2946   -3.8595 H   0  0  0  1  0  0  0  0  0  0  0  0
   -4.6168    2.6209   -2.4746 H   0  0  0  1  0  0  0  0  0  0  0  0
   -0.2913    7.5840    1.0986 F   0  0  0  1  0  0  0  0  0  0  0  0
   -1.6193    7.7114    1.1099 C   0  0  0  1  0  0  0  0  0  0  0  0
   -1.9291    8.3400    2.2449 F   0  0  0  1  0  0  0  0  0  0  0  0
   -1.9454    8.5254    0.1050 F   0  0  0  1  0  0  0  0  0  0  0  0
   -2.3036    6.3633    1.0213 C   0  0  0  1  0  0  0  0  0  0  0  0
   -1.5522    5.2037    1.0526 C   0  0  0  1  0  0  0  0  0  0  0  0
   -2.1791    3.9696    0.9770 C   0  0  0  1  0  0  0  0  0  0  0  0
   -3.5549    3.8989    0.8648 C   0  0  0  1  0  0  0  0  0  0  0  0
   -4.3082    5.0621    0.8334 C   0  0  0  1  0  0  0  0  0  0  0  0
   -3.6834    6.2926    0.9089 C   0  0  0  1  0  0  0  0  0  0  0  0
   -1.3586    2.7021    1.0170 C   0  0  0  1  0  0  0  0  0  0  0  0
   -0.5167    5.2569    1.1330 H   0  0  0  1  0  0  0  0  0  0  0  0
   -4.0248    2.9732    0.8040 H   0  0  0  1  0  0  0  0  0  0  0  0
   -5.3437    5.0089    0.7531 H   0  0  0  1  0  0  0  0  0  0  0  0
   -4.2483    7.1653    0.8813 H   0  0  0  1  0  0  0  0  0  0  0  0
   -0.4495    2.8894    1.5494 H   0  0  0  1  0  0  0  0  0  0  0  0
   -1.9159    1.9392    1.5193 H   0  0  0  1  0  0  0  0  0  0  0  0
  1  4  1  0  0  0  0
  2  4  1  0  0  0  0
  2  5  2  0  0  0  0
  2  6  1  0  0  0  0
  3  4  1  0  0  0  0
  3  7  1  0  0  0  0
  3  8  1  0  0  0  0
  4 29  1  0  0  0  0
  6  9  1  0  0  0  0
  6 12  1  0  0  0  0
  8 10  1  0  0  0  0
  8 11  2  0  0  0  0
  9 13  1  0  0  0  0
  9 14  1  0  0  0  0
  9 15  1  0  0  0  0
 10 16  1  0  0  0  0
 10 17  1  0  0  0  0
 10 18  1  0  0  0  0
 19 20  1  0  0  0  0
 20 21  1  0  0  0  0
 20 22  1  0  0  0  0
 20 23  1  0  0  0  0
 23 24  4  0  0  0  0
 23 28  4  0  0  0  0
 24 25  4  0  0  0  0
 24 30  1  0  0  0  0
 25 26  4  0  0  0  0
 25 29  1  0  0  0  0
 26 27  4  0  0  0  0
 26 31  1  0  0  0  0
 27 28  4  0  0  0  0
 27 32  1  0  0  0  0
 28 33  1  0  0  0  0
 29 34  1  0  0  0  0
 29 35  1  0  0  0  0
M  END
> <BCLConfClusterSize>
1

> <ConfClashScore>
0 

> <ConfOneFourInteractionScore>
-0.98383 

> <ConfScore>
-0.112666 

> <ConfScorePBest>
0.0065522 

> <ConfTolerance>
0.37863 

> <RosettaParamsInstructions>
M  ROOT 3
M  POLY_N_BB 3
M  POLY_CA_BB 4
M  POLY_C_BB 2
M  POLY_O_BB 5
M  POLY_IGNORE 9 10 11 12 13 14 15 16 17 18 
M  POLY_UPPER 6
M  POLY_LOWER 8
M  POLY_CHG 0
M  POLY_PROPERTIES ALPHA_AA L_AA PROTEIN AROMATIC POLYMER 
M  END

$$$$



 35 35  0  0  0  0  0  0  0  0999 V2000
   -2.5904    1.9898    2.9643 H   0  0  0  1  0  0  0  0  0  0  0  0
   -0.8575    0.7929    2.9151 C   0  0  0  1  0  0  0  0  0  0  0  0
   -1.0829    3.1648    3.7265 N   0  0  0  1  0  0  0  0  0  0  0  0
   -1.5472    2.1492    2.7881 C   0  0  0  1  0  0  0  0  0  0  0  0
    0.3025    0.6308    2.5735 O   0  0  0  1  0  0  0  0  0  0  0  0
   -1.6444   -0.1667    3.4271 N   0  0  0  1  0  0  0  0  0  0  0  0
   -0.1968    3.5674    3.6124 H   0  0  0  1  0  0  0  0  0  0  0  0
   -1.8666    3.5489    4.7456 C   0  0  0  1  0  0  0  0  0  0  0  0
   -1.1237   -1.5114    3.6230 C   0  0  0  1  0  0  0  0  0  0  0  0
   -1.3242    4.5851    5.7106 C   0  0  0  1  0  0  0  0  0  0  0  0
   -2.9924    3.0757    4.8950 O   0  0  0  1  0  0  0  0  0  0  0  0
   -2.5715    0.0388    3.6694 H   0  0  0  1  0  0  0  0  0  0  0  0
   -0.2452   -1.4690    4.2325 H   0  0  0  1  0  0  0  0  0  0  0  0
   -0.8786   -1.9405    2.6740 H   0  0  0  1  0  0  0  0  0  0  0  0
   -1.8643   -2.1135    4.1067 H   0  0  0  1  0  0  0  0  0  0  0  0
   -0.3479    4.8897    5.3961 H   0  0  0  1  0  0  0  0  0  0  0  0
   -1.2669    4.1627    6.6921 H   0  0  0  1  0  0  0  0  0  0  0  0
   -1.9752    5.4342    5.7247 H   0  0  0  1  0  0  0  0  0  0  0  0
   -0.6957    7.7446    2.0759 F   0  0  0  1  0  0  0  0  0  0  0  0
   -1.6201    7.7052    1.1146 C   0  0  0  1  0  0  0  0  0  0  0  0
   -2.4733    8.6964    1.3771 F   0  0  0  1  0  0  0  0  0  0  0  0
   -0.9969    8.0383   -0.0165 F   0  0  0  1  0  0  0  0  0  0  0  0
   -2.3041    6.3615    1.0244 C   0  0  0  1  0  0  0  0  0  0  0  0
   -1.5784    5.1989    1.2322 C   0  0  0  1  0  0  0  0  0  0  0  0
   -2.2031    3.9691    1.1444 C   0  0  0  1  0  0  0  0  0  0  0  0
   -3.5566    3.8987    0.8537 C   0  0  0  1  0  0  0  0  0  0  0  0
   -4.2803    5.0578    0.6464 C   0  0  0  1  0  0  0  0  0  0  0  0
   -3.6537    6.2911    0.7345 C   0  0  0  1  0  0  0  0  0  0  0  0
   -1.4111    2.7021    1.3652 C   0  0  0  1  0  0  0  0  0  0  0  0
   -0.5637    5.2520    1.4543 H   0  0  0  1  0  0  0  0  0  0  0  0
   -4.0276    2.9736    0.7916 H   0  0  0  1  0  0  0  0  0  0  0  0
   -5.2950    5.0047    0.4244 H   0  0  0  1  0  0  0  0  0  0  0  0
   -4.1990    7.1635    0.5825 H   0  0  0  1  0  0  0  0  0  0  0  0
   -1.7573    1.9597    0.6768 H   0  0  0  1  0  0  0  0  0  0  0  0
   -0.3782    2.9091    1.1775 H   0  0  0  1  0  0  0  0  0  0  0  0
  1  4  1  0  0  0  0
  2  4  1  0  0  0  0
  2  5  2  0  0  0  0
  2  6  1  0  0  0  0
  3  4  1  0  0  0  0
  3  7  1  0  0  0  0
  3  8  1  0  0  0  0
  4 29  1  0  0  0  0
  6  9  1  0  0  0  0
  6 12  1  0  0  0  0
  8 10  1  0  0  0  0
  8 11  2  0  0  0  0
  9 13  1  0  0  0  0
  9 14  1  0  0  0  0
  9 15  1  0  0  0  0
 10 16  1  0  0  0  0
 10 17  1  0  0  0  0
 10 18  1  0  0  0  0
 19 20  1  0  0  0  0
 20 21  1  0  0  0  0
 20 22  1  0  0  0  0
 20 23  1  0  0  0  0
 23 24  4  0  0  0  0
 23 28  4  0  0  0  0
 24 25  4  0  0  0  0
 24 30  1  0  0  0  0
 25 26  4  0  0  0  0
 25 29  1  0  0  0  0
 26 27  4  0  0  0  0
 26 31  1  0  0  0  0
 27 28  4  0  0  0  0
 27 32  1  0  0  0  0
 28 33  1  0  0  0  0
 29 34  1  0  0  0  0
 29 35  1  0  0  0  0
M  END
> <BCLConfClusterSize>
1

> <ConfClashScore>
0 

> <ConfOneFourInteractionScore>
-0.971454 

> <ConfScore>
-0.106318 

> <ConfScorePBest>
0.00652372 

> <ConfTolerance>
0.36421 

> <RosettaParamsInstructions>
M  ROOT 3
M  POLY_N_BB 3
M  POLY_CA_BB 4
M  POLY_C_BB 2
M  POLY_O_BB 5
M  POLY_IGNORE 9 10 11 12 13 14 15 16 17 18 
M  POLY_UPPER 6
M  POLY_LOWER 8
M  POLY_CHG 0
M  POLY_PROPERTIES ALPHA_AA L_AA PROTEIN AROMATIC POLYMER 
M  END

$$$$



 35 35  0  0  0  0  0  0  0  0999 V2000
   -0.2179    3.0051   -0.3487 H   0  0  0  1  0  0  0  0  0  0  0  0
    0.3580    1.1320    0.4322 C   0  0  0  1  0  0  0  0  0  0  0  0
   -1.7079    1.6691   -0.8391 N   0  0  0  1  0  0  0  0  0  0  0  0
   -0.7122    2.1699    0.1018 C   0  0  0  1  0  0  0  0  0  0  0  0
    0.0578   -0.0569    0.3322 O   0  0  0  1  0  0  0  0  0  0  0  0
    1.5585    1.5655    0.8106 N   0  0  0  1  0  0  0  0  0  0  0  0
   -2.5939    1.4204   -0.5022 H   0  0  0  1  0  0  0  0  0  0  0  0
   -1.4517    1.5365   -2.1570 C   0  0  0  1  0  0  0  0  0  0  0  0
    2.6617    0.6573    1.0860 C   0  0  0  1  0  0  0  0  0  0  0  0
   -2.5966    1.1425   -3.0698 C   0  0  0  1  0  0  0  0  0  0  0  0
   -0.3251    1.7287   -2.6068 O   0  0  0  1  0  0  0  0  0  0  0  0
    1.7043    2.5298    0.9072 H   0  0  0  1  0  0  0  0  0  0  0  0
    3.2147    1.0127    1.9303 H   0  0  0  1  0  0  0  0  0  0  0  0
    3.3056    0.6096    0.2327 H   0  0  0  1  0  0  0  0  0  0  0  0
    2.2761   -0.3181    1.2975 H   0  0  0  1  0  0  0  0  0  0  0  0
   -3.3802    1.8671   -2.9929 H   0  0  0  1  0  0  0  0  0  0  0  0
   -2.9693    0.1823   -2.7799 H   0  0  0  1  0  0  0  0  0  0  0  0
   -2.2483    1.1002   -4.0806 H   0  0  0  1  0  0  0  0  0  0  0  0
   -0.6799    7.7510    2.0642 F   0  0  0  1  0  0  0  0  0  0  0  0
   -1.6242    7.7062    1.1228 C   0  0  0  1  0  0  0  0  0  0  0  0
   -2.4642    8.7114    1.3744 F   0  0  0  1  0  0  0  0  0  0  0  0
   -1.0073    8.0432   -0.0105 F   0  0  0  1  0  0  0  0  0  0  0  0
   -2.3121    6.3600    1.0257 C   0  0  0  1  0  0  0  0  0  0  0  0
   -1.5864    5.1953    1.2265 C   0  0  0  1  0  0  0  0  0  0  0  0
   -2.1926    3.9460    1.1478 C   0  0  0  1  0  0  0  0  0  0  0  0
   -3.5539    3.9007    0.8558 C   0  0  0  1  0  0  0  0  0  0  0  0
   -4.2820    5.0601    0.6445 C   0  0  0  1  0  0  0  0  0  0  0  0
   -3.6561    6.2943    0.7384 C   0  0  0  1  0  0  0  0  0  0  0  0
   -1.4006    2.6795    1.3717 C   0  0  0  1  0  0  0  0  0  0  0  0
   -0.5704    5.2571    1.4399 H   0  0  0  1  0  0  0  0  0  0  0  0
   -4.0324    2.9793    0.7954 H   0  0  0  1  0  0  0  0  0  0  0  0
   -5.2952    5.0053    0.4161 H   0  0  0  1  0  0  0  0  0  0  0  0
   -4.2012    7.1678    0.5919 H   0  0  0  1  0  0  0  0  0  0  0  0
   -0.6516    2.8725    2.1111 H   0  0  0  1  0  0  0  0  0  0  0  0
   -2.0657    1.9202    1.7267 H   0  0  0  1  0  0  0  0  0  0  0  0
  1  4  1  0  0  0  0
  2  4  1  0  0  0  0
  2  5  2  0  0  0  0
  2  6  1  0  0  0  0
  3  4  1  0  0  0  0
  3  7  1  0  0  0  0
  3  8  1  0  0  0  0
  4 29  1  0  0  0  0
  6  9  1  0  0  0  0
  6 12  1  0  0  0  0
  8 10  1  0  0  0  0
  8 11  2  0  0  0  0
  9 13  1  0  0  0  0
  9 14  1  0  0  0  0
  9 15  1  0  0  0  0
 10 16  1  0  0  0  0
 10 17  1  0  0  0  0
 10 18  1  0  0  0  0
 19 20  1  0  0  0  0
 20 21  1  0  0  0  0
 20 22  1  0  0  0  0
 20 23  1  0  0  0  0
 23 24  4  0  0  0  0
 23 28  4  0  0  0  0
 24 25  4  0  0  0  0
 24 30  1  0  0  0  0
 25 26  4  0  0  0  0
 25 29  1  0  0  0  0
 26 27  4  0  0  0  0
 26 31  1  0  0  0  0
 27 28  4  0  0  0  0
 27 32  1  0  0  0  0
 28 33  1  0  0  0  0
 29 34  1  0  0  0  0
 29 35  1  0  0  0  0
M  END
> <BCLConfClusterSize>
1

> <ConfClashScore>
0 

> <ConfOneFourInteractionScore>
-0.981931 

> <ConfScore>
-0.0986096 

> <ConfScorePBest>
0.00649524 

> <ConfTolerance>
0.366397 

> <RosettaParamsInstructions>
M  ROOT 3
M  POLY_N_BB 3
M  POLY_CA_BB 4
M  POLY_C_BB 2
M  POLY_O_BB 5
M  POLY_IGNORE 9 10 11 12 13 14 15 16 17 18 
M  POLY_UPPER 6
M  POLY_LOWER 8
M  POLY_CHG 0
M  POLY_PROPERTIES ALPHA_AA L_AA PROTEIN AROMATIC POLYMER 
M  END

$$$$



 35 35  0  0  0  0  0  0  0  0999 V2000
   -2.2599    1.8912   -0.8382 H   0  0  0  1  0  0  0  0  0  0  0  0
   -0.5906    3.0530   -1.4338 C   0  0  0  1  0  0  0  0  0  0  0  0
   -0.5266    0.8272   -0.4218 N   0  0  0  1  0  0  0  0  0  0  0  0
   -1.2662    2.0787   -0.4884 C   0  0  0  1  0  0  0  0  0  0  0  0
   -1.2438    3.8515   -2.1001 O   0  0  0  1  0  0  0  0  0  0  0  0
    0.7424    2.9799   -1.4873 N   0  0  0  1  0  0  0  0  0  0  0  0
   -0.0644    0.5758    0.4050 H   0  0  0  1  0  0  0  0  0  0  0  0
   -0.4760    0.0164   -1.4906 C   0  0  0  1  0  0  0  0  0  0  0  0
    1.5885    3.8038   -2.3377 C   0  0  0  1  0  0  0  0  0  0  0  0
    0.4592   -1.1713   -1.3727 C   0  0  0  1  0  0  0  0  0  0  0  0
   -1.1376    0.2083   -2.5074 O   0  0  0  1  0  0  0  0  0  0  0  0
    1.1837    2.3219   -0.9104 H   0  0  0  1  0  0  0  0  0  0  0  0
    2.6002    3.4612   -2.2744 H   0  0  0  1  0  0  0  0  0  0  0  0
    1.5361    4.8221   -2.0132 H   0  0  0  1  0  0  0  0  0  0  0  0
    1.2513    3.7340   -3.3508 H   0  0  0  1  0  0  0  0  0  0  0  0
    0.0787   -1.8544   -0.6424 H   0  0  0  1  0  0  0  0  0  0  0  0
    1.4290   -0.8329   -1.0731 H   0  0  0  1  0  0  0  0  0  0  0  0
    0.5298   -1.6647   -2.3196 H   0  0  0  1  0  0  0  0  0  0  0  0
   -0.7854    7.8994    0.0942 F   0  0  0  1  0  0  0  0  0  0  0  0
   -1.6246    7.7111    1.1141 C   0  0  0  1  0  0  0  0  0  0  0  0
   -0.8962    7.8144    2.2269 F   0  0  0  1  0  0  0  0  0  0  0  0
   -2.4748    8.7169    1.1089 F   0  0  0  1  0  0  0  0  0  0  0  0
   -2.3057    6.3659    1.0251 C   0  0  0  1  0  0  0  0  0  0  0  0
   -1.5499    5.2091    0.9967 C   0  0  0  1  0  0  0  0  0  0  0  0
   -2.1750    3.9742    0.9204 C   0  0  0  1  0  0  0  0  0  0  0  0
   -3.5541    3.9001    0.8674 C   0  0  0  1  0  0  0  0  0  0  0  0
   -4.3123    5.0602    0.8959 C   0  0  0  1  0  0  0  0  0  0  0  0
   -3.6888    6.2914    0.9719 C   0  0  0  1  0  0  0  0  0  0  0  0
   -1.3491    2.7098    0.8953 C   0  0  0  1  0  0  0  0  0  0  0  0
   -0.5120    5.2651    1.0326 H   0  0  0  1  0  0  0  0  0  0  0  0
   -4.0231    2.9738    0.8061 H   0  0  0  1  0  0  0  0  0  0  0  0
   -5.3502    5.0042    0.8600 H   0  0  0  1  0  0  0  0  0  0  0  0
   -4.2574    7.1620    0.9892 H   0  0  0  1  0  0  0  0  0  0  0  0
   -0.3577    2.9440    1.2227 H   0  0  0  1  0  0  0  0  0  0  0  0
   -1.7891    2.0022    1.5665 H   0  0  0  1  0  0  0  0  0  0  0  0
  1  4  1  0  0  0  0
  2  4  1  0  0  0  0
  2  5  2  0  0  0  0
  2  6  1  0  0  0  0
  3  4  1  0  0  0  0
  3  7  1  0  0  0  0
  3  8  1  0  0  0  0
  4 29  1  0  0  0  0
  6  9  1  0  0  0  0
  6 12  1  0  0  0  0
  8 10  1  0  0  0  0
  8 11  2  0  0  0  0
  9 13  1  0  0  0  0
  9 14  1  0  0  0  0
  9 15  1  0  0  0  0
 10 16  1  0  0  0  0
 10 17  1  0  0  0  0
 10 18  1  0  0  0  0
 19 20  1  0  0  0  0
 20 21  1  0  0  0  0
 20 22  1  0  0  0  0
 20 23  1  0  0  0  0
 23 24  4  0  0  0  0
 23 28  4  0  0  0  0
 24 25  4  0  0  0  0
 24 30  1  0  0  0  0
 25 26  4  0  0  0  0
 25 29  1  0  0  0  0
 26 27  4  0  0  0  0
 26 31  1  0  0  0  0
 27 28  4  0  0  0  0
 27 32  1  0  0  0  0
 28 33  1  0  0  0  0
 29 34  1  0  0  0  0
 29 35  1  0  0  0  0
M  END
> <BCLConfClusterSize>
1

> <ConfClashScore>
0 

> <ConfOneFourInteractionScore>
-0.960318 

> <ConfScore>
-0.0973981 

> <ConfScorePBest>
0.00646676 

> <ConfTolerance>
0.370773 

> <RosettaParamsInstructions>
M  ROOT 3
M  POLY_N_BB 3
M  POLY_CA_BB 4
M  POLY_C_BB 2
M  POLY_O_BB 5
M  POLY_IGNORE 9 10 11 12 13 14 15 16 17 18 
M  POLY_UPPER 6
M  POLY_LOWER 8
M  POLY_CHG 0
M  POLY_PROPERTIES ALPHA_AA L_AA PROTEIN AROMATIC POLYMER 
M  END

$$$$



 35 35  0  0  0  0  0  0  0  0999 V2000
   -1.6792    2.3369    2.9700 H   0  0  0  1  0  0  0  0  0  0  0  0
   -0.1854    0.9794    2.3195 C   0  0  0  1  0  0  0  0  0  0  0  0
    0.1024    3.3678    2.7676 N   0  0  0  1  0  0  0  0  0  0  0  0
   -0.8409    2.3606    2.3054 C   0  0  0  1  0  0  0  0  0  0  0  0
   -0.7851    0.0006    1.8662 O   0  0  0  1  0  0  0  0  0  0  0  0
    1.0101    0.8757    2.9214 N   0  0  0  1  0  0  0  0  0  0  0  0
    0.6816    3.8095    2.1121 H   0  0  0  1  0  0  0  0  0  0  0  0
    0.2094    3.7221    4.0954 C   0  0  0  1  0  0  0  0  0  0  0  0
    1.7736   -0.3564    3.0511 C   0  0  0  1  0  0  0  0  0  0  0  0
    1.2121    4.7938    4.4097 C   0  0  0  1  0  0  0  0  0  0  0  0
   -0.4873    3.1732    4.9331 O   0  0  0  1  0  0  0  0  0  0  0  0
    1.3978    1.6912    3.3022 H   0  0  0  1  0  0  0  0  0  0  0  0
    2.0990   -0.6783    2.0839 H   0  0  0  1  0  0  0  0  0  0  0  0
    1.1573   -1.1130    3.4899 H   0  0  0  1  0  0  0  0  0  0  0  0
    2.6257   -0.1837    3.6746 H   0  0  0  1  0  0  0  0  0  0  0  0
    1.0238    5.6501    3.7963 H   0  0  0  1  0  0  0  0  0  0  0  0
    2.1984    4.4269    4.2164 H   0  0  0  1  0  0  0  0  0  0  0  0
    1.1288    5.0686    5.4405 H   0  0  0  1  0  0  0  0  0  0  0  0
   -0.8183    7.9518    0.0827 F   0  0  0  1  0  0  0  0  0  0  0  0
   -1.6125    7.7000    1.1120 C   0  0  0  1  0  0  0  0  0  0  0  0
   -0.8808    7.8416    2.1985 F   0  0  0  1  0  0  0  0  0  0  0  0
   -2.4823    8.7138    1.1424 F   0  0  0  1  0  0  0  0  0  0  0  0
   -2.2988    6.3573    1.0244 C   0  0  0  1  0  0  0  0  0  0  0  0
   -1.5475    5.1974    0.9995 C   0  0  0  1  0  0  0  0  0  0  0  0
   -2.1775    3.9649    0.9245 C   0  0  0  1  0  0  0  0  0  0  0  0
   -3.5569    3.8963    0.8691 C   0  0  0  1  0  0  0  0  0  0  0  0
   -4.3104    5.0594    0.8940 C   0  0  0  1  0  0  0  0  0  0  0  0
   -3.6821    6.2882    0.9688 C   0  0  0  1  0  0  0  0  0  0  0  0
   -1.3567    2.6971    0.9032 C   0  0  0  1  0  0  0  0  0  0  0  0
   -0.5095    5.2493    1.0372 H   0  0  0  1  0  0  0  0  0  0  0  0
   -4.0294    2.9718    0.8087 H   0  0  0  1  0  0  0  0  0  0  0  0
   -5.3484    5.0075    0.8563 H   0  0  0  1  0  0  0  0  0  0  0  0
   -4.2473    7.1611    0.9834 H   0  0  0  1  0  0  0  0  0  0  0  0
   -1.9655    1.8909    0.5505 H   0  0  0  1  0  0  0  0  0  0  0  0
   -0.5234    2.8297    0.2453 H   0  0  0  1  0  0  0  0  0  0  0  0
  1  4  1  0  0  0  0
  2  4  1  0  0  0  0
  2  5  2  0  0  0  0
  2  6  1  0  0  0  0
  3  4  1  0  0  0  0
  3  7  1  0  0  0  0
  3  8  1  0  0  0  0
  4 29  1  0  0  0  0
  6  9  1  0  0  0  0
  6 12  1  0  0  0  0
  8 10  1  0  0  0  0
  8 11  2  0  0  0  0
  9 13  1  0  0  0  0
  9 14  1  0  0  0  0
  9 15  1  0  0  0  0
 10 16  1  0  0  0  0
 10 17  1  0  0  0  0
 10 18  1  0  0  0  0
 19 20  1  0  0  0  0
 20 21  1  0  0  0  0
 20 22  1  0  0  0  0
 20 23  1  0  0  0  0
 23 24  4  0  0  0  0
 23 28  4  0  0  0  0
 24 25  4  0  0  0  0
 24 30  1  0  0  0  0
 25 26  4  0  0  0  0
 25 29  1  0  0  0  0
 26 27  4  0  0  0  0
 26 31  1  0  0  0  0
 27 28  4  0  0  0  0
 27 32  1  0  0  0  0
 28 33  1  0  0  0  0
 29 34  1  0  0  0  0
 29 35  1  0  0  0  0
M  END
> <BCLConfClusterSize>
1

> <ConfClashScore>
0 

> <ConfOneFourInteractionScore>
-0.956443 

> <ConfScore>
-0.0963543 

> <ConfScorePBest>
0.00643828 

> <ConfTolerance>
0.427769 

> <RosettaParamsInstructions>
M  ROOT 3
M  POLY_N_BB 3
M  POLY_CA_BB 4
M  POLY_C_BB 2
M  POLY_O_BB 5
M  POLY_IGNORE 9 10 11 12 13 14 15 16 17 18 
M  POLY_UPPER 6
M  POLY_LOWER 8
M  POLY_CHG 0
M  POLY_PROPERTIES ALPHA_AA L_AA PROTEIN AROMATIC POLYMER 
M  END

$$$$



 35 35  0  0  0  0  0  0  0  0999 V2000
   -2.0798    1.8414    2.6713 H   0  0  0  1  0  0  0  0  0  0  0  0
   -0.2055    0.9751    2.3013 C   0  0  0  1  0  0  0  0  0  0  0  0
   -0.6576    3.2395    3.1759 N   0  0  0  1  0  0  0  0  0  0  0  0
   -1.1296    2.1718    2.3069 C   0  0  0  1  0  0  0  0  0  0  0  0
    0.9934    1.0931    2.5508 O   0  0  0  1  0  0  0  0  0  0  0  0
   -0.7789   -0.2031    2.0095 N   0  0  0  1  0  0  0  0  0  0  0  0
    0.2220    3.6257    2.9823 H   0  0  0  1  0  0  0  0  0  0  0  0
   -1.3332    3.7328    4.2177 C   0  0  0  1  0  0  0  0  0  0  0  0
   -0.0217   -1.4448    1.9589 C   0  0  0  1  0  0  0  0  0  0  0  0
   -0.5746    4.7146    5.0894 C   0  0  0  1  0  0  0  0  0  0  0  0
   -2.4869    3.4248    4.4673 O   0  0  0  1  0  0  0  0  0  0  0  0
   -1.7409   -0.2279    1.8242 H   0  0  0  1  0  0  0  0  0  0  0  0
    0.9922   -1.2568    2.2446 H   0  0  0  1  0  0  0  0  0  0  0  0
   -0.0447   -1.8359    0.9632 H   0  0  0  1  0  0  0  0  0  0  0  0
   -0.4558   -2.1547    2.6316 H   0  0  0  1  0  0  0  0  0  0  0  0
   -1.0419    4.7741    6.0502 H   0  0  0  1  0  0  0  0  0  0  0  0
   -0.5826    5.6803    4.6288 H   0  0  0  1  0  0  0  0  0  0  0  0
    0.4359    4.3821    5.2046 H   0  0  0  1  0  0  0  0  0  0  0  0
   -0.7323    7.8691    0.1334 F   0  0  0  1  0  0  0  0  0  0  0  0
   -1.6229    7.7098    1.1140 C   0  0  0  1  0  0  0  0  0  0  0  0
   -0.9513    7.8395    2.2592 F   0  0  0  1  0  0  0  0  0  0  0  0
   -2.4779    8.7305    1.0389 F   0  0  0  1  0  0  0  0  0  0  0  0
   -2.3046    6.3649    1.0250 C   0  0  0  1  0  0  0  0  0  0  0  0
   -1.5493    5.2078    0.9937 C   0  0  0  1  0  0  0  0  0  0  0  0
   -2.1751    3.9733    0.9175 C   0  0  0  1  0  0  0  0  0  0  0  0
   -3.5543    3.8998    0.8674 C   0  0  0  1  0  0  0  0  0  0  0  0
   -4.3120    5.0601    0.8988 C   0  0  0  1  0  0  0  0  0  0  0  0
   -3.6879    6.2909    0.9748 C   0  0  0  1  0  0  0  0  0  0  0  0
   -1.3497    2.7085    0.8892 C   0  0  0  1  0  0  0  0  0  0  0  0
   -0.5113    5.2634    1.0274 H   0  0  0  1  0  0  0  0  0  0  0  0
   -4.0238    2.9738    0.8062 H   0  0  0  1  0  0  0  0  0  0  0  0
   -5.3500    5.0045    0.8651 H   0  0  0  1  0  0  0  0  0  0  0  0
   -4.2562    7.1617    0.9943 H   0  0  0  1  0  0  0  0  0  0  0  0
   -1.8612    1.9688    0.3095 H   0  0  0  1  0  0  0  0  0  0  0  0
   -0.4005    2.9190    0.4424 H   0  0  0  1  0  0  0  0  0  0  0  0
  1  4  1  0  0  0  0
  2  4  1  0  0  0  0
  2  5  2  0  0  0  0
  2  6  1  0  0  0  0
  3  4  1  0  0  0  0
  3  7  1  0  0  0  0
  3  8  1  0  0  0  0
  4 29  1  0  0  0  0
  6  9  1  0  0  0  0
  6 12  1  0  0  0  0
  8 10  1  0  0  0  0
  8 11  2  0  0  0  0
  9 13  1  0  0  0  0
  9 14  1  0  0  0  0
  9 15  1  0  0  0  0
 10 16  1  0  0  0  0
 10 17  1  0  0  0  0
 10 18  1  0  0  0  0
 19 20  1  0  0  0  0
 20 21  1  0  0  0  0
 20 22  1  0  0  0  0
 20 23  1  0  0  0  0
 23 24  4  0  0  0  0
 23 28  4  0  0  0  0
 24 25  4  0  0  0  0
 24 30  1  0  0  0  0
 25 26  4  0  0  0  0
 25 29  1  0  0  0  0
 26 27  4  0  0  0  0
 26 31  1  0  0  0  0
 27 28  4  0  0  0  0
 27 32  1  0  0  0  0
 28 33  1  0  0  0  0
 29 34  1  0  0  0  0
 29 35  1  0  0  0  0
M  END
> <BCLConfClusterSize>
1

> <ConfClashScore>
0 

> <ConfOneFourInteractionScore>
-0.990503 

> <ConfScore>
-0.0958089 

> <ConfScorePBest>
0.0064098 

> <ConfTolerance>
0.421551 

> <RosettaParamsInstructions>
M  ROOT 3
M  POLY_N_BB 3
M  POLY_CA_BB 4
M  POLY_C_BB 2
M  POLY_O_BB 5
M  POLY_IGNORE 9 10 11 12 13 14 15 16 17 18 
M  POLY_UPPER 6
M  POLY_LOWER 8
M  POLY_CHG 0
M  POLY_PROPERTIES ALPHA_AA L_AA PROTEIN AROMATIC POLYMER 
M  END

$$$$



 35 35  0  0  0  0  0  0  0  0999 V2000
    0.3002    3.3244   -0.2867 H   0  0  0  1  0  0  0  0  0  0  0  0
    0.1625    1.2119   -0.3813 C   0  0  0  1  0  0  0  0  0  0  0  0
   -1.2675    2.8161   -1.5491 N   0  0  0  1  0  0  0  0  0  0  0  0
   -0.4735    2.5880   -0.3510 C   0  0  0  1  0  0  0  0  0  0  0  0
    1.2110    0.9797    0.2191 O   0  0  0  1  0  0  0  0  0  0  0  0
   -0.4863    0.2892   -1.0935 N   0  0  0  1  0  0  0  0  0  0  0  0
   -2.2417    2.8817   -1.4654 H   0  0  0  1  0  0  0  0  0  0  0  0
   -0.7145    2.9391   -2.7590 C   0  0  0  1  0  0  0  0  0  0  0  0
   -0.0186   -1.0851   -1.1951 C   0  0  0  1  0  0  0  0  0  0  0  0
   -1.6674    3.2843   -3.8868 C   0  0  0  1  0  0  0  0  0  0  0  0
    0.4868    2.7861   -2.9640 O   0  0  0  1  0  0  0  0  0  0  0  0
   -1.3064    0.5458   -1.5646 H   0  0  0  1  0  0  0  0  0  0  0  0
    0.5226   -1.3447   -0.3093 H   0  0  0  1  0  0  0  0  0  0  0  0
    0.6233   -1.1812   -2.0459 H   0  0  0  1  0  0  0  0  0  0  0  0
   -0.8576   -1.7399   -1.3050 H   0  0  0  1  0  0  0  0  0  0  0  0
   -1.5130    2.6106   -4.7037 H   0  0  0  1  0  0  0  0  0  0  0  0
   -1.4857    4.2871   -4.2126 H   0  0  0  1  0  0  0  0  0  0  0  0
   -2.6760    3.1986   -3.5400 H   0  0  0  1  0  0  0  0  0  0  0  0
   -0.8356    7.9686    0.0540 F   0  0  0  1  0  0  0  0  0  0  0  0
   -1.6104    7.7219    1.1118 C   0  0  0  1  0  0  0  0  0  0  0  0
   -0.8228    7.8274    2.1833 F   0  0  0  1  0  0  0  0  0  0  0  0
   -2.4769    8.7331    1.1840 F   0  0  0  1  0  0  0  0  0  0  0  0
   -2.2950    6.3782    1.0269 C   0  0  0  1  0  0  0  0  0  0  0  0
   -1.5596    5.1979    1.0041 C   0  0  0  1  0  0  0  0  0  0  0  0
   -2.1854    3.9629    0.9217 C   0  0  0  1  0  0  0  0  0  0  0  0
   -3.5581    3.8878    0.8651 C   0  0  0  1  0  0  0  0  0  0  0  0
   -4.3146    5.0499    0.8964 C   0  0  0  1  0  0  0  0  0  0  0  0
   -3.6833    6.2809    0.9688 C   0  0  0  1  0  0  0  0  0  0  0  0
   -1.3589    2.6989    0.8941 C   0  0  0  1  0  0  0  0  0  0  0  0
   -0.5215    5.2423    1.0496 H   0  0  0  1  0  0  0  0  0  0  0  0
   -4.0273    2.9619    0.7991 H   0  0  0  1  0  0  0  0  0  0  0  0
   -5.3528    4.9973    0.8656 H   0  0  0  1  0  0  0  0  0  0  0  0
   -4.2566    7.1486    0.9801 H   0  0  0  1  0  0  0  0  0  0  0  0
   -0.7316    2.6832    1.7607 H   0  0  0  1  0  0  0  0  0  0  0  0
   -2.0210    1.8586    0.9171 H   0  0  0  1  0  0  0  0  0  0  0  0
  1  4  1  0  0  0  0
  2  4  1  0  0  0  0
  2  5  2  0  0  0  0
  2  6  1  0  0  0  0
  3  4  1  0  0  0  0
  3  7  1  0  0  0  0
  3  8  1  0  0  0  0
  4 29  1  0  0  0  0
  6  9  1  0  0  0  0
  6 12  1  0  0  0  0
  8 10  1  0  0  0  0
  8 11  2  0  0  0  0
  9 13  1  0  0  0  0
  9 14  1  0  0  0  0
  9 15  1  0  0  0  0
 10 16  1  0  0  0  0
 10 17  1  0  0  0  0
 10 18  1  0  0  0  0
 19 20  1  0  0  0  0
 20 21  1  0  0  0  0
 20 22  1  0  0  0  0
 20 23  1  0  0  0  0
 23 24  4  0  0  0  0
 23 28  4  0  0  0  0
 24 25  4  0  0  0  0
 24 30  1  0  0  0  0
 25 26  4  0  0  0  0
 25 29  1  0  0  0  0
 26 27  4  0  0  0  0
 26 31  1  0  0  0  0
 27 28  4  0  0  0  0
 27 32  1  0  0  0  0
 28 33  1  0  0  0  0
 29 34  1  0  0  0  0
 29 35  1  0  0  0  0
M  END
> <BCLConfClusterSize>
1

> <ConfClashScore>
0 

> <ConfOneFourInteractionScore>
-0.94165 

> <ConfScore>
-0.0925442 

> <ConfScorePBest>
0.00638132 

> <ConfTolerance>
0.465926 

> <RosettaParamsInstructions>
M  ROOT 3
M  POLY_N_BB 3
M  POLY_CA_BB 4
M  POLY_C_BB 2
M  POLY_O_BB 5
M  POLY_IGNORE 9 10 11 12 13 14 15 16 17 18 
M  POLY_UPPER 6
M  POLY_LOWER 8
M  POLY_CHG 0
M  POLY_PROPERTIES ALPHA_AA L_AA PROTEIN AROMATIC POLYMER 
M  END

$$$$



 35 35  0  0  0  0  0  0  0  0999 V2000
   -2.2714    1.9382    2.6406 H   0  0  0  1  0  0  0  0  0  0  0  0
   -0.7300    0.6028    2.0973 C   0  0  0  1  0  0  0  0  0  0  0  0
   -0.4567    2.7688    3.1793 N   0  0  0  1  0  0  0  0  0  0  0  0
   -1.2780    2.0084    2.2492 C   0  0  0  1  0  0  0  0  0  0  0  0
   -1.4670   -0.3439    1.8247 O   0  0  0  1  0  0  0  0  0  0  0  0
    0.5935    0.4701    2.2789 N   0  0  0  1  0  0  0  0  0  0  0  0
    0.3693    3.1821    2.8519 H   0  0  0  1  0  0  0  0  0  0  0  0
   -0.7913    2.9237    4.4701 C   0  0  0  1  0  0  0  0  0  0  0  0
    1.2805   -0.7991    2.0912 C   0  0  0  1  0  0  0  0  0  0  0  0
    0.1675    3.7507    5.3044 C   0  0  0  1  0  0  0  0  0  0  0  0
   -1.8050    2.4345    4.9616 O   0  0  0  1  0  0  0  0  0  0  0  0
    1.1151    1.2551    2.5471 H   0  0  0  1  0  0  0  0  0  0  0  0
    1.2231   -1.3730    2.9925 H   0  0  0  1  0  0  0  0  0  0  0  0
    2.3068   -0.6165    1.8497 H   0  0  0  1  0  0  0  0  0  0  0  0
    0.8168   -1.3409    1.2935 H   0  0  0  1  0  0  0  0  0  0  0  0
    0.6267    4.4950    4.6881 H   0  0  0  1  0  0  0  0  0  0  0  0
    0.9222    3.1137    5.7162 H   0  0  0  1  0  0  0  0  0  0  0  0
   -0.3699    4.2268    6.0978 H   0  0  0  1  0  0  0  0  0  0  0  0
   -0.4407    7.7176    0.4849 F   0  0  0  1  0  0  0  0  0  0  0  0
   -1.6199    7.7054    1.1088 C   0  0  0  1  0  0  0  0  0  0  0  0
   -1.3796    8.0815    2.3700 F   0  0  0  1  0  0  0  0  0  0  0  0
   -2.3433    8.6817    0.5591 F   0  0  0  1  0  0  0  0  0  0  0  0
   -2.3043    6.3614    1.0262 C   0  0  0  1  0  0  0  0  0  0  0  0
   -1.5492    5.1992    1.0050 C   0  0  0  1  0  0  0  0  0  0  0  0
   -2.1752    3.9695    0.9240 C   0  0  0  1  0  0  0  0  0  0  0  0
   -3.5585    3.8985    0.8694 C   0  0  0  1  0  0  0  0  0  0  0  0
   -4.3115    5.0573    0.8906 C   0  0  0  1  0  0  0  0  0  0  0  0
   -3.6835    6.2903    0.9718 C   0  0  0  1  0  0  0  0  0  0  0  0
   -1.3521    2.7034    0.8950 C   0  0  0  1  0  0  0  0  0  0  0  0
   -0.5116    5.2524    1.0500 H   0  0  0  1  0  0  0  0  0  0  0  0
   -4.0297    2.9731    0.8126 H   0  0  0  1  0  0  0  0  0  0  0  0
   -5.3492    5.0041    0.8456 H   0  0  0  1  0  0  0  0  0  0  0  0
   -4.2502    7.1621    0.9917 H   0  0  0  1  0  0  0  0  0  0  0  0
   -1.7899    2.0287    0.1894 H   0  0  0  1  0  0  0  0  0  0  0  0
   -0.3584    2.9502    0.5841 H   0  0  0  1  0  0  0  0  0  0  0  0
  1  4  1  0  0  0  0
  2  4  1  0  0  0  0
  2  5  2  0  0  0  0
  2  6  1  0  0  0  0
  3  4  1  0  0  0  0
  3  7  1  0  0  0  0
  3  8  1  0  0  0  0
  4 29  1  0  0  0  0
  6  9  1  0  0  0  0
  6 12  1  0  0  0  0
  8 10  1  0  0  0  0
  8 11  2  0  0  0  0
  9 13  1  0  0  0  0
  9 14  1  0  0  0  0
  9 15  1  0  0  0  0
 10 16  1  0  0  0  0
 10 17  1  0  0  0  0
 10 18  1  0  0  0  0
 19 20  1  0  0  0  0
 20 21  1  0  0  0  0
 20 22  1  0  0  0  0
 20 23  1  0  0  0  0
 23 24  4  0  0  0  0
 23 28  4  0  0  0  0
 24 25  4  0  0  0  0
 24 30  1  0  0  0  0
 25 26  4  0  0  0  0
 25 29  1  0  0  0  0
 26 27  4  0  0  0  0
 26 31  1  0  0  0  0
 27 28  4  0  0  0  0
 27 32  1  0  0  0  0
 28 33  1  0  0  0  0
 29 34  1  0  0  0  0
 29 35  1  0  0  0  0
M  END
> <BCLConfClusterSize>
1

> <ConfClashScore>
0 

> <ConfOneFourInteractionScore>
-0.960318 

> <ConfScore>
-0.0877905 

> <ConfScorePBest>
0.00635284 

> <ConfTolerance>
0.42329 

> <RosettaParamsInstructions>
M  ROOT 3
M  POLY_N_BB 3
M  POLY_CA_BB 4
M  POLY_C_BB 2
M  POLY_O_BB 5
M  POLY_IGNORE 9 10 11 12 13 14 15 16 17 18 
M  POLY_UPPER 6
M  POLY_LOWER 8
M  POLY_CHG 0
M  POLY_PROPERTIES ALPHA_AA L_AA PROTEIN AROMATIC POLYMER 
M  END

$$$$



 35 35  0  0  0  0  0  0  0  0999 V2000
   -1.9789    1.8657   -0.8899 H   0  0  0  1  0  0  0  0  0  0  0  0
   -0.5185    3.2708   -1.4215 C   0  0  0  1  0  0  0  0  0  0  0  0
   -0.1383    1.0500   -0.4903 N   0  0  0  1  0  0  0  0  0  0  0  0
   -1.0492    2.1979   -0.4772 C   0  0  0  1  0  0  0  0  0  0  0  0
   -1.2592    4.0826   -1.9458 O   0  0  0  1  0  0  0  0  0  0  0  0
    0.8043    3.2208   -1.6019 N   0  0  0  1  0  0  0  0  0  0  0  0
    0.2369    0.7140    0.3504 H   0  0  0  1  0  0  0  0  0  0  0  0
    0.1817    0.4606   -1.6458 C   0  0  0  1  0  0  0  0  0  0  0  0
    1.5183    4.2080   -2.3979 C   0  0  0  1  0  0  0  0  0  0  0  0
    1.0266   -0.7948   -1.5493 C   0  0  0  1  0  0  0  0  0  0  0  0
   -0.2463    0.8561   -2.7291 O   0  0  0  1  0  0  0  0  0  0  0  0
    1.3116    2.4941   -1.1835 H   0  0  0  1  0  0  0  0  0  0  0  0
    2.5696    4.0160   -2.3461 H   0  0  0  1  0  0  0  0  0  0  0  0
    1.3156    5.1872   -2.0170 H   0  0  0  1  0  0  0  0  0  0  0  0
    1.1945    4.1467   -3.4159 H   0  0  0  1  0  0  0  0  0  0  0  0
    1.1832   -1.1961   -2.5287 H   0  0  0  1  0  0  0  0  0  0  0  0
    0.5217   -1.5185   -0.9441 H   0  0  0  1  0  0  0  0  0  0  0  0
    1.9710   -0.5556   -1.1068 H   0  0  0  1  0  0  0  0  0  0  0  0
   -0.3480    7.6776    0.6961 F   0  0  0  1  0  0  0  0  0  0  0  0
   -1.6151    7.7037    1.1130 C   0  0  0  1  0  0  0  0  0  0  0  0
   -1.6027    8.2137    2.3456 F   0  0  0  1  0  0  0  0  0  0  0  0
   -2.2142    8.6271    0.3601 F   0  0  0  1  0  0  0  0  0  0  0  0
   -2.3029    6.3572    1.0284 C   0  0  0  1  0  0  0  0  0  0  0  0
   -1.5499    5.1933    1.0230 C   0  0  0  1  0  0  0  0  0  0  0  0
   -2.1774    3.9646    0.9404 C   0  0  0  1  0  0  0  0  0  0  0  0
   -3.5600    3.8960    0.8682 C   0  0  0  1  0  0  0  0  0  0  0  0
   -4.3108    5.0563    0.8736 C   0  0  0  1  0  0  0  0  0  0  0  0
   -3.6814    6.2886    0.9565 C   0  0  0  1  0  0  0  0  0  0  0  0
   -1.3566    2.6967    0.9287 C   0  0  0  1  0  0  0  0  0  0  0  0
   -0.5128    5.2447    1.0812 H   0  0  0  1  0  0  0  0  0  0  0  0
   -4.0323    2.9713    0.8101 H   0  0  0  1  0  0  0  0  0  0  0  0
   -5.3479    5.0050    0.8154 H   0  0  0  1  0  0  0  0  0  0  0  0
   -4.2466    7.1616    0.9645 H   0  0  0  1  0  0  0  0  0  0  0  0
   -0.4319    2.8849    1.4330 H   0  0  0  1  0  0  0  0  0  0  0  0
   -1.8988    1.9352    1.4492 H   0  0  0  1  0  0  0  0  0  0  0  0
  1  4  1  0  0  0  0
  2  4  1  0  0  0  0
  2  5  2  0  0  0  0
  2  6  1  0  0  0  0
  3  4  1  0  0  0  0
  3  7  1  0  0  0  0
  3  8  1  0  0  0  0
  4 29  1  0  0  0  0
  6  9  1  0  0  0  0
  6 12  1  0  0  0  0
  8 10  1  0  0  0  0
  8 11  2  0  0  0  0
  9 13  1  0  0  0  0
  9 14  1  0  0  0  0
  9 15  1  0  0  0  0
 10 16  1  0  0  0  0
 10 17  1  0  0  0  0
 10 18  1  0  0  0  0
 19 20  1  0  0  0  0
 20 21  1  0  0  0  0
 20 22  1  0  0  0  0
 20 23  1  0  0  0  0
 23 24  4  0  0  0  0
 23 28  4  0  0  0  0
 24 25  4  0  0  0  0
 24 30  1  0  0  0  0
 25 26  4  0  0  0  0
 25 29  1  0  0  0  0
 26 27  4  0  0  0  0
 26 31  1  0  0  0  0
 27 28  4  0  0  0  0
 27 32  1  0  0  0  0
 28 33  1  0  0  0  0
 29 34  1  0  0  0  0
 29 35  1  0  0  0  0
M  END
> <BCLConfClusterSize>
1

> <ConfClashScore>
0 

> <ConfOneFourInteractionScore>
-0.94165 

> <ConfScore>
-0.0874205 

> <ConfScorePBest>
0.00632436 

> <ConfTolerance>
0.435544 

> <RosettaParamsInstructions>
M  ROOT 3
M  POLY_N_BB 3
M  POLY_CA_BB 4
M  POLY_C_BB 2
M  POLY_O_BB 5
M  POLY_IGNORE 9 10 11 12 13 14 15 16 17 18 
M  POLY_UPPER 6
M  POLY_LOWER 8
M  POLY_CHG 0
M  POLY_PROPERTIES ALPHA_AA L_AA PROTEIN AROMATIC POLYMER 
M  END

$$$$



 35 35  0  0  0  0  0  0  0  0999 V2000
   -1.9726    2.1770    2.8966 H   0  0  0  1  0  0  0  0  0  0  0  0
   -0.5440    0.7436    2.3012 C   0  0  0  1  0  0  0  0  0  0  0  0
   -0.0907    2.9975    3.0739 N   0  0  0  1  0  0  0  0  0  0  0  0
   -1.0524    2.1791    2.3506 C   0  0  0  1  0  0  0  0  0  0  0  0
    0.6192    0.4313    2.1248 O   0  0  0  1  0  0  0  0  0  0  0  0
   -1.5047   -0.1690    2.4720 N   0  0  0  1  0  0  0  0  0  0  0  0
    0.6150    3.4700    2.5848 H   0  0  0  1  0  0  0  0  0  0  0  0
   -0.1677    3.1059    4.4006 C   0  0  0  1  0  0  0  0  0  0  0  0
   -1.2206   -1.5951    2.5314 C   0  0  0  1  0  0  0  0  0  0  0  0
    0.9149    3.9532    5.0598 C   0  0  0  1  0  0  0  0  0  0  0  0
   -1.0485    2.5641    5.0669 O   0  0  0  1  0  0  0  0  0  0  0  0
   -2.4330    0.1324    2.5603 H   0  0  0  1  0  0  0  0  0  0  0  0
   -2.1180   -2.1286    2.7658 H   0  0  0  1  0  0  0  0  0  0  0  0
   -0.4873   -1.7812    3.2880 H   0  0  0  1  0  0  0  0  0  0  0  0
   -0.8476   -1.9239    1.5839 H   0  0  0  1  0  0  0  0  0  0  0  0
    1.8600    3.4600    4.9679 H   0  0  0  1  0  0  0  0  0  0  0  0
    0.6817    4.0866    6.0956 H   0  0  0  1  0  0  0  0  0  0  0  0
    0.9627    4.9078    4.5787 H   0  0  0  1  0  0  0  0  0  0  0  0
   -0.3258    7.6408    0.7948 F   0  0  0  1  0  0  0  0  0  0  0  0
   -1.6202    7.7055    1.1115 C   0  0  0  1  0  0  0  0  0  0  0  0
   -1.6781    8.2293    2.3271 F   0  0  0  1  0  0  0  0  0  0  0  0
   -2.1615    8.6075    0.2894 F   0  0  0  1  0  0  0  0  0  0  0  0
   -2.3044    6.3616    1.0272 C   0  0  0  1  0  0  0  0  0  0  0  0
   -1.5502    5.1986    1.0296 C   0  0  0  1  0  0  0  0  0  0  0  0
   -2.1760    3.9690    0.9471 C   0  0  0  1  0  0  0  0  0  0  0  0
   -3.5582    3.8987    0.8674 C   0  0  0  1  0  0  0  0  0  0  0  0
   -4.3100    5.0584    0.8650 C   0  0  0  1  0  0  0  0  0  0  0  0
   -3.6824    6.2916    0.9478 C   0  0  0  1  0  0  0  0  0  0  0  0
   -1.3539    2.7019    0.9438 C   0  0  0  1  0  0  0  0  0  0  0  0
   -0.5134    5.2512    1.0934 H   0  0  0  1  0  0  0  0  0  0  0  0
   -4.0293    2.9733    0.8093 H   0  0  0  1  0  0  0  0  0  0  0  0
   -5.3467    5.0059    0.8012 H   0  0  0  1  0  0  0  0  0  0  0  0
   -4.2485    7.1641    0.9501 H   0  0  0  1  0  0  0  0  0  0  0  0
   -1.8924    1.9480    0.4084 H   0  0  0  1  0  0  0  0  0  0  0  0
   -0.4266    2.8989    0.4476 H   0  0  0  1  0  0  0  0  0  0  0  0
  1  4  1  0  0  0  0
  2  4  1  0  0  0  0
  2  5  2  0  0  0  0
  2  6  1  0  0  0  0
  3  4  1  0  0  0  0
  3  7  1  0  0  0  0
  3  8  1  0  0  0  0
  4 29  1  0  0  0  0
  6  9  1  0  0  0  0
  6 12  1  0  0  0  0
  8 10  1  0  0  0  0
  8 11  2  0  0  0  0
  9 13  1  0  0  0  0
  9 14  1  0  0  0  0
  9 15  1  0  0  0  0
 10 16  1  0  0  0  0
 10 17  1  0  0  0  0
 10 18  1  0  0  0  0
 19 20  1  0  0  0  0
 20 21  1  0  0  0  0
 20 22  1  0  0  0  0
 20 23  1  0  0  0  0
 23 24  4  0  0  0  0
 23 28  4  0  0  0  0
 24 25  4  0  0  0  0
 24 30  1  0  0  0  0
 25 26  4  0  0  0  0
 25 29  1  0  0  0  0
 26 27  4  0  0  0  0
 26 31  1  0  0  0  0
 27 28  4  0  0  0  0
 27 32  1  0  0  0  0
 28 33  1  0  0  0  0
 29 34  1  0  0  0  0
 29 35  1  0  0  0  0
M  END
> <BCLConfClusterSize>
1

> <ConfClashScore>
0 

> <ConfOneFourInteractionScore>
-0.978127 

> <ConfScore>
-0.0822402 

> <ConfScorePBest>
0.00629587 

> <ConfTolerance>
0.342583 

> <RosettaParamsInstructions>
M  ROOT 3
M  POLY_N_BB 3
M  POLY_CA_BB 4
M  POLY_C_BB 2
M  POLY_O_BB 5
M  POLY_IGNORE 9 10 11 12 13 14 15 16 17 18 
M  POLY_UPPER 6
M  POLY_LOWER 8
M  POLY_CHG 0
M  POLY_PROPERTIES ALPHA_AA L_AA PROTEIN AROMATIC POLYMER 
M  END

$$$$



 35 35  0  0  0  0  0  0  0  0999 V2000
   -0.4895    3.1275   -0.9459 H   0  0  0  1  0  0  0  0  0  0  0  0
    0.1245    1.1814   -0.4477 C   0  0  0  1  0  0  0  0  0  0  0  0
   -2.0751    1.8781   -1.3030 N   0  0  0  1  0  0  0  0  0  0  0  0
   -0.9397    2.2742   -0.4834 C   0  0  0  1  0  0  0  0  0  0  0  0
    1.1812    1.3389    0.1625 O   0  0  0  1  0  0  0  0  0  0  0  0
   -0.1716    0.0568   -1.1184 N   0  0  0  1  0  0  0  0  0  0  0  0
   -2.7833    1.3344   -0.8990 H   0  0  0  1  0  0  0  0  0  0  0  0
   -2.1861    2.2317   -2.5933 C   0  0  0  1  0  0  0  0  0  0  0  0
    0.8248   -0.9947   -1.2577 C   0  0  0  1  0  0  0  0  0  0  0  0
   -3.4216    1.7246   -3.3113 C   0  0  0  1  0  0  0  0  0  0  0  0
   -1.3505    2.9211   -3.1720 O   0  0  0  1  0  0  0  0  0  0  0  0
   -1.0606   -0.0562   -1.5150 H   0  0  0  1  0  0  0  0  0  0  0  0
    0.4534   -1.7540   -1.9138 H   0  0  0  1  0  0  0  0  0  0  0  0
    1.0290   -1.4216   -0.2981 H   0  0  0  1  0  0  0  0  0  0  0  0
    1.7245   -0.5817   -1.6637 H   0  0  0  1  0  0  0  0  0  0  0  0
   -4.2599    1.7586   -2.6472 H   0  0  0  1  0  0  0  0  0  0  0  0
   -3.2600    0.7160   -3.6298 H   0  0  0  1  0  0  0  0  0  0  0  0
   -3.6168    2.3413   -4.1636 H   0  0  0  1  0  0  0  0  0  0  0  0
   -0.3900    7.6880    0.5938 F   0  0  0  1  0  0  0  0  0  0  0  0
   -1.6191    7.7048    1.1124 C   0  0  0  1  0  0  0  0  0  0  0  0
   -1.4872    8.1296    2.3700 F   0  0  0  1  0  0  0  0  0  0  0  0
   -2.2853    8.6605    0.4631 F   0  0  0  1  0  0  0  0  0  0  0  0
   -2.3028    6.3608    1.0243 C   0  0  0  1  0  0  0  0  0  0  0  0
   -1.5496    5.2021    1.0070 C   0  0  0  1  0  0  0  0  0  0  0  0
   -2.1772    3.9684    0.9315 C   0  0  0  1  0  0  0  0  0  0  0  0
   -3.5560    3.8974    0.8682 C   0  0  0  1  0  0  0  0  0  0  0  0
   -4.3116    5.0595    0.8855 C   0  0  0  1  0  0  0  0  0  0  0  0
   -3.6856    6.2894    0.9608 C   0  0  0  1  0  0  0  0  0  0  0  0
   -1.3542    2.7019    0.9184 C   0  0  0  1  0  0  0  0  0  0  0  0
   -0.5119    5.2558    1.0505 H   0  0  0  1  0  0  0  0  0  0  0  0
   -4.0267    2.9720    0.8075 H   0  0  0  1  0  0  0  0  0  0  0  0
   -5.3493    5.0058    0.8420 H   0  0  0  1  0  0  0  0  0  0  0  0
   -4.2522    7.1615    0.9698 H   0  0  0  1  0  0  0  0  0  0  0  0
   -0.4709    2.8637    1.5003 H   0  0  0  1  0  0  0  0  0  0  0  0
   -1.9321    1.9157    1.3575 H   0  0  0  1  0  0  0  0  0  0  0  0
  1  4  1  0  0  0  0
  2  4  1  0  0  0  0
  2  5  2  0  0  0  0
  2  6  1  0  0  0  0
  3  4  1  0  0  0  0
  3  7  1  0  0  0  0
  3  8  1  0  0  0  0
  4 29  1  0  0  0  0
  6  9  1  0  0  0  0
  6 12  1  0  0  0  0
  8 10  1  0  0  0  0
  8 11  2  0  0  0  0
  9 13  1  0  0  0  0
  9 14  1  0  0  0  0
  9 15  1  0  0  0  0
 10 16  1  0  0  0  0
 10 17  1  0  0  0  0
 10 18  1  0  0  0  0
 19 20  1  0  0  0  0
 20 21  1  0  0  0  0
 20 22  1  0  0  0  0
 20 23  1  0  0  0  0
 23 24  4  0  0  0  0
 23 28  4  0  0  0  0
 24 25  4  0  0  0  0
 24 30  1  0  0  0  0
 25 26  4  0  0  0  0
 25 29  1  0  0  0  0
 26 27  4  0  0  0  0
 26 31  1  0  0  0  0
 27 28  4  0  0  0  0
 27 32  1  0  0  0  0
 28 33  1  0  0  0  0
 29 34  1  0  0  0  0
 29 35  1  0  0  0  0
M  END
> <BCLConfClusterSize>
1

> <ConfClashScore>
0 

> <ConfOneFourInteractionScore>
-0.94165 

> <ConfScore>
-0.0797933 

> <ConfScorePBest>
0.00626739 

> <ConfTolerance>
0.385001 

> <RosettaParamsInstructions>
M  ROOT 3
M  POLY_N_BB 3
M  POLY_CA_BB 4
M  POLY_C_BB 2
M  POLY_O_BB 5
M  POLY_IGNORE 9 10 11 12 13 14 15 16 17 18 
M  POLY_UPPER 6
M  POLY_LOWER 8
M  POLY_CHG 0
M  POLY_PROPERTIES ALPHA_AA L_AA PROTEIN AROMATIC POLYMER 
M  END

$$$$



 35 35  0  0  0  0  0  0  0  0999 V2000
   -1.6300    2.3306   -1.1714 H   0  0  0  1  0  0  0  0  0  0  0  0
    0.0274    3.6228   -0.9754 C   0  0  0  1  0  0  0  0  0  0  0  0
   -0.0044    1.2304   -0.5308 N   0  0  0  1  0  0  0  0  0  0  0  0
   -0.8011    2.4435   -0.5043 C   0  0  0  1  0  0  0  0  0  0  0  0
   -0.4893    4.5727   -1.5579 O   0  0  0  1  0  0  0  0  0  0  0  0
    1.3361    3.5538   -0.7152 N   0  0  0  1  0  0  0  0  0  0  0  0
    0.2592    0.7824    0.2999 H   0  0  0  1  0  0  0  0  0  0  0  0
    0.3620    0.7385   -1.7288 C   0  0  0  1  0  0  0  0  0  0  0  0
    2.3170    4.5559   -1.1043 C   0  0  0  1  0  0  0  0  0  0  0  0
    1.1067   -0.5820   -1.6989 C   0  0  0  1  0  0  0  0  0  0  0  0
    0.1177    1.3086   -2.7889 O   0  0  0  1  0  0  0  0  0  0  0  0
    1.6598    2.7691   -0.2253 H   0  0  0  1  0  0  0  0  0  0  0  0
    3.2759    4.2883   -0.7122 H   0  0  0  1  0  0  0  0  0  0  0  0
    2.0262    5.5092   -0.7152 H   0  0  0  1  0  0  0  0  0  0  0  0
    2.3701    4.6069   -2.1718 H   0  0  0  1  0  0  0  0  0  0  0  0
    1.1482   -0.9459   -0.6936 H   0  0  0  1  0  0  0  0  0  0  0  0
    2.1009   -0.4390   -2.0676 H   0  0  0  1  0  0  0  0  0  0  0  0
    0.5963   -1.2930   -2.3145 H   0  0  0  1  0  0  0  0  0  0  0  0
   -0.8229    7.9653    0.0797 F   0  0  0  1  0  0  0  0  0  0  0  0
   -1.6181    7.7256    1.1025 C   0  0  0  1  0  0  0  0  0  0  0  0
   -0.8244    7.8217    2.1752 F   0  0  0  1  0  0  0  0  0  0  0  0
   -2.4600    8.7344    1.1924 F   0  0  0  1  0  0  0  0  0  0  0  0
   -2.2999    6.3803    1.0213 C   0  0  0  1  0  0  0  0  0  0  0  0
   -1.5621    5.2015    1.0022 C   0  0  0  1  0  0  0  0  0  0  0  0
   -2.1853    3.9649    0.9233 C   0  0  0  1  0  0  0  0  0  0  0  0
   -3.5579    3.8868    0.8664 C   0  0  0  1  0  0  0  0  0  0  0  0
   -4.3167    5.0475    0.8939 C   0  0  0  1  0  0  0  0  0  0  0  0
   -3.6880    6.2800    0.9629 C   0  0  0  1  0  0  0  0  0  0  0  0
   -1.3563    2.7025    0.8997 C   0  0  0  1  0  0  0  0  0  0  0  0
   -0.5241    5.2480    1.0481 H   0  0  0  1  0  0  0  0  0  0  0  0
   -4.0251    2.9598    0.8029 H   0  0  0  1  0  0  0  0  0  0  0  0
   -5.3548    4.9927    0.8628 H   0  0  0  1  0  0  0  0  0  0  0  0
   -4.2631    7.1465    0.9714 H   0  0  0  1  0  0  0  0  0  0  0  0
   -0.5416    2.8050    1.5858 H   0  0  0  1  0  0  0  0  0  0  0  0
   -1.9684    1.8753    1.1930 H   0  0  0  1  0  0  0  0  0  0  0  0
  1  4  1  0  0  0  0
  2  4  1  0  0  0  0
  2  5  2  0  0  0  0
  2  6  1  0  0  0  0
  3  4  1  0  0  0  0
  3  7  1  0  0  0  0
  3  8  1  0  0  0  0
  4 29  1  0  0  0  0
  6  9  1  0  0  0  0
  6 12  1  0  0  0  0
  8 10  1  0  0  0  0
  8 11  2  0  0  0  0
  9 13  1  0  0  0  0
  9 14  1  0  0  0  0
  9 15  1  0  0  0  0
 10 16  1  0  0  0  0
 10 17  1  0  0  0  0
 10 18  1  0  0  0  0
 19 20  1  0  0  0  0
 20 21  1  0  0  0  0
 20 22  1  0  0  0  0
 20 23  1  0  0  0  0
 23 24  4  0  0  0  0
 23 28  4  0  0  0  0
 24 25  4  0  0  0  0
 24 30  1  0  0  0  0
 25 26  4  0  0  0  0
 25 29  1  0  0  0  0
 26 27  4  0  0  0  0
 26 31  1  0  0  0  0
 27 28  4  0  0  0  0
 27 32  1  0  0  0  0
 28 33  1  0  0  0  0
 29 34  1  0  0  0  0
 29 35  1  0  0  0  0
M  END
> <BCLConfClusterSize>
1

> <ConfClashScore>
0 

> <ConfOneFourInteractionScore>
-0.94165 

> <ConfScore>
-0.0770002 

> <ConfScorePBest>
0.00623891 

> <ConfTolerance>
0.614992 

> <RosettaParamsInstructions>
M  ROOT 3
M  POLY_N_BB 3
M  POLY_CA_BB 4
M  POLY_C_BB 2
M  POLY_O_BB 5
M  POLY_IGNORE 9 10 11 12 13 14 15 16 17 18 
M  POLY_UPPER 6
M  POLY_LOWER 8
M  POLY_CHG 0
M  POLY_PROPERTIES ALPHA_AA L_AA PROTEIN AROMATIC POLYMER 
M  END

$$$$



 35 35  0  0  0  0  0  0  0  0999 V2000
   -1.7358    2.4326    3.1684 H   0  0  0  1  0  0  0  0  0  0  0  0
   -0.3984    0.9013    2.6530 C   0  0  0  1  0  0  0  0  0  0  0  0
    0.1403    3.2771    2.9552 N   0  0  0  1  0  0  0  0  0  0  0  0
   -0.8980    2.3263    2.5113 C   0  0  0  1  0  0  0  0  0  0  0  0
    0.7600    0.5996    2.3687 O   0  0  0  1  0  0  0  0  0  0  0  0
   -1.2963    0.0105    3.1028 N   0  0  0  1  0  0  0  0  0  0  0  0
    0.4107    3.9988    2.3499 H   0  0  0  1  0  0  0  0  0  0  0  0
    0.7464    3.1845    4.1989 C   0  0  0  1  0  0  0  0  0  0  0  0
   -1.0749   -1.4255    3.0211 C   0  0  0  1  0  0  0  0  0  0  0  0
    1.7533    4.2257    4.6000 C   0  0  0  1  0  0  0  0  0  0  0  0
    0.4411    2.2583    4.9279 O   0  0  0  1  0  0  0  0  0  0  0  0
   -2.1300    0.3386    3.5000 H   0  0  0  1  0  0  0  0  0  0  0  0
   -0.0483   -1.6412    3.2321 H   0  0  0  1  0  0  0  0  0  0  0  0
   -1.3159   -1.7679    2.0365 H   0  0  0  1  0  0  0  0  0  0  0  0
   -1.6976   -1.9234    3.7348 H   0  0  0  1  0  0  0  0  0  0  0  0
    2.5780    4.2063    3.9186 H   0  0  0  1  0  0  0  0  0  0  0  0
    2.1039    4.0198    5.5898 H   0  0  0  1  0  0  0  0  0  0  0  0
    1.2949    5.1922    4.5774 H   0  0  0  1  0  0  0  0  0  0  0  0
   -0.3287    7.6203    1.4515 F   0  0  0  1  0  0  0  0  0  0  0  0
   -1.6177    7.7048    1.1179 C   0  0  0  1  0  0  0  0  0  0  0  0
   -2.1877    8.5311    1.9964 F   0  0  0  1  0  0  0  0  0  0  0  0
   -1.6384    8.3618   -0.0425 F   0  0  0  1  0  0  0  0  0  0  0  0
   -2.3045    6.3575    1.0291 C   0  0  0  1  0  0  0  0  0  0  0  0
   -1.5586    5.1923    1.1155 C   0  0  0  1  0  0  0  0  0  0  0  0
   -2.1847    3.9631    1.0291 C   0  0  0  1  0  0  0  0  0  0  0  0
   -3.5591    3.8955    0.8614 C   0  0  0  1  0  0  0  0  0  0  0  0
   -4.3026    5.0574    0.7752 C   0  0  0  1  0  0  0  0  0  0  0  0
   -3.6748    6.2902    0.8619 C   0  0  0  1  0  0  0  0  0  0  0  0
   -1.3748    2.6989    1.1170 C   0  0  0  1  0  0  0  0  0  0  0  0
   -0.5280    5.2430    1.2454 H   0  0  0  1  0  0  0  0  0  0  0  0
   -4.0307    2.9706    0.8004 H   0  0  0  1  0  0  0  0  0  0  0  0
   -5.3332    5.0068    0.6454 H   0  0  0  1  0  0  0  0  0  0  0  0
   -4.2349    7.1644    0.8011 H   0  0  0  1  0  0  0  0  0  0  0  0
   -1.9769    1.8949    0.7482 H   0  0  0  1  0  0  0  0  0  0  0  0
   -0.5131    2.8149    0.4935 H   0  0  0  1  0  0  0  0  0  0  0  0
  1  4  1  0  0  0  0
  2  4  1  0  0  0  0
  2  5  2  0  0  0  0
  2  6  1  0  0  0  0
  3  4  1  0  0  0  0
  3  7  1  0  0  0  0
  3  8  1  0  0  0  0
  4 29  1  0  0  0  0
  6  9  1  0  0  0  0
  6 12  1  0  0  0  0
  8 10  1  0  0  0  0
  8 11  2  0  0  0  0
  9 13  1  0  0  0  0
  9 14  1  0  0  0  0
  9 15  1  0  0  0  0
 10 16  1  0  0  0  0
 10 17  1  0  0  0  0
 10 18  1  0  0  0  0
 19 20  1  0  0  0  0
 20 21  1  0  0  0  0
 20 22  1  0  0  0  0
 20 23  1  0  0  0  0
 23 24  4  0  0  0  0
 23 28  4  0  0  0  0
 24 25  4  0  0  0  0
 24 30  1  0  0  0  0
 25 26  4  0  0  0  0
 25 29  1  0  0  0  0
 26 27  4  0  0  0  0
 26 31  1  0  0  0  0
 27 28  4  0  0  0  0
 27 32  1  0  0  0  0
 28 33  1  0  0  0  0
 29 34  1  0  0  0  0
 29 35  1  0  0  0  0
M  END
> <BCLConfClusterSize>
1

> <ConfClashScore>
0 

> <ConfOneFourInteractionScore>
-0.974251 

> <ConfScore>
-0.0716354 

> <ConfScorePBest>
0.00621043 

> <ConfTolerance>
0.448512 

> <RosettaParamsInstructions>
M  ROOT 3
M  POLY_N_BB 3
M  POLY_CA_BB 4
M  POLY_C_BB 2
M  POLY_O_BB 5
M  POLY_IGNORE 9 10 11 12 13 14 15 16 17 18 
M  POLY_UPPER 6
M  POLY_LOWER 8
M  POLY_CHG 0
M  POLY_PROPERTIES ALPHA_AA L_AA PROTEIN AROMATIC POLYMER 
M  END

$$$$



 35 35  0  0  0  0  0  0  0  0999 V2000
   -0.2194    2.8497   -0.6399 H   0  0  0  1  0  0  0  0  0  0  0  0
   -0.1110    0.8400   -0.0216 C   0  0  0  1  0  0  0  0  0  0  0  0
   -1.9359    1.8768   -1.2110 N   0  0  0  1  0  0  0  0  0  0  0  0
   -0.8970    2.1333   -0.2247 C   0  0  0  1  0  0  0  0  0  0  0  0
   -0.6401   -0.2481   -0.1776 O   0  0  0  1  0  0  0  0  0  0  0  0
    1.1494    1.0023    0.4110 N   0  0  0  1  0  0  0  0  0  0  0  0
   -2.8698    2.0505   -0.9703 H   0  0  0  1  0  0  0  0  0  0  0  0
   -1.6593    1.4105   -2.4391 C   0  0  0  1  0  0  0  0  0  0  0  0
    2.0425   -0.1231    0.6434 C   0  0  0  1  0  0  0  0  0  0  0  0
   -2.8200    1.1346   -3.3750 C   0  0  0  1  0  0  0  0  0  0  0  0
   -0.5011    1.2124   -2.7966 O   0  0  0  1  0  0  0  0  0  0  0  0
    1.4797    1.9101    0.5760 H   0  0  0  1  0  0  0  0  0  0  0  0
    2.7344    0.1247    1.4211 H   0  0  0  1  0  0  0  0  0  0  0  0
    2.5801   -0.3429   -0.2552 H   0  0  0  1  0  0  0  0  0  0  0  0
    1.4696   -0.9784    0.9353 H   0  0  0  1  0  0  0  0  0  0  0  0
   -3.6171    0.6744   -2.8293 H   0  0  0  1  0  0  0  0  0  0  0  0
   -2.4989    0.4792   -4.1575 H   0  0  0  1  0  0  0  0  0  0  0  0
   -3.1630    2.0554   -3.7985 H   0  0  0  1  0  0  0  0  0  0  0  0
   -0.3445    7.6324    1.4081 F   0  0  0  1  0  0  0  0  0  0  0  0
   -1.6179    7.6993    1.1117 C   0  0  0  1  0  0  0  0  0  0  0  0
   -2.1331    8.5069    2.0163 F   0  0  0  1  0  0  0  0  0  0  0  0
   -1.6764    8.3955   -0.0025 F   0  0  0  1  0  0  0  0  0  0  0  0
   -2.3038    6.3563    1.0256 C   0  0  0  1  0  0  0  0  0  0  0  0
   -1.5581    5.1906    1.1076 C   0  0  0  1  0  0  0  0  0  0  0  0
   -2.1850    3.9617    1.0235 C   0  0  0  1  0  0  0  0  0  0  0  0
   -3.5602    3.8949    0.8625 C   0  0  0  1  0  0  0  0  0  0  0  0
   -4.3038    5.0570    0.7807 C   0  0  0  1  0  0  0  0  0  0  0  0
   -3.6749    6.2895    0.8651 C   0  0  0  1  0  0  0  0  0  0  0  0
   -1.3717    2.6917    1.1069 C   0  0  0  1  0  0  0  0  0  0  0  0
   -0.5269    5.2407    1.2324 H   0  0  0  1  0  0  0  0  0  0  0  0
   -4.0324    2.9702    0.8032 H   0  0  0  1  0  0  0  0  0  0  0  0
   -5.3351    5.0069    0.6559 H   0  0  0  1  0  0  0  0  0  0  0  0
   -4.2349    7.1640    0.8077 H   0  0  0  1  0  0  0  0  0  0  0  0
   -0.5090    2.8911    1.7076 H   0  0  0  1  0  0  0  0  0  0  0  0
   -1.9731    1.9452    1.5823 H   0  0  0  1  0  0  0  0  0  0  0  0
  1  4  1  0  0  0  0
  2  4  1  0  0  0  0
  2  5  2  0  0  0  0
  2  6  1  0  0  0  0
  3  4  1  0  0  0  0
  3  7  1  0  0  0  0
  3  8  1  0  0  0  0
  4 29  1  0  0  0  0
  6  9  1  0  0  0  0
  6 12  1  0  0  0  0
  8 10  1  0  0  0  0
  8 11  2  0  0  0  0
  9 13  1  0  0  0  0
  9 14  1  0  0  0  0
  9 15  1  0  0  0  0
 10 16  1  0  0  0  0
 10 17  1  0  0  0  0
 10 18  1  0  0  0  0
 19 20  1  0  0  0  0
 20 21  1  0  0  0  0
 20 22  1  0  0  0  0
 20 23  1  0  0  0  0
 23 24  4  0  0  0  0
 23 28  4  0  0  0  0
 24 25  4  0  0  0  0
 24 30  1  0  0  0  0
 25 26  4  0  0  0  0
 25 29  1  0  0  0  0
 26 27  4  0  0  0  0
 26 31  1  0  0  0  0
 27 28  4  0  0  0  0
 27 32  1  0  0  0  0
 28 33  1  0  0  0  0
 29 34  1  0  0  0  0
 29 35  1  0  0  0  0
M  END
> <BCLConfClusterSize>
1

> <ConfClashScore>
0 

> <ConfOneFourInteractionScore>
-0.987695 

> <ConfScore>
-0.0708108 

> <ConfScorePBest>
0.00618195 

> <ConfTolerance>
0.431493 

> <RosettaParamsInstructions>
M  ROOT 3
M  POLY_N_BB 3
M  POLY_CA_BB 4
M  POLY_C_BB 2
M  POLY_O_BB 5
M  POLY_IGNORE 9 10 11 12 13 14 15 16 17 18 
M  POLY_UPPER 6
M  POLY_LOWER 8
M  POLY_CHG 0
M  POLY_PROPERTIES ALPHA_AA L_AA PROTEIN AROMATIC POLYMER 
M  END

$$$$



 35 35  0  0  0  0  0  0  0  0999 V2000
   -0.6810    2.7102   -0.9312 H   0  0  0  1  0  0  0  0  0  0  0  0
   -0.2813    0.7742   -0.1682 C   0  0  0  1  0  0  0  0  0  0  0  0
   -2.4153    1.5853   -0.9005 N   0  0  0  1  0  0  0  0  0  0  0  0
   -1.1687    2.0108   -0.2847 C   0  0  0  1  0  0  0  0  0  0  0  0
   -0.6516   -0.2211    0.4531 O   0  0  0  1  0  0  0  0  0  0  0  0
    0.9101    0.8513   -0.7820 N   0  0  0  1  0  0  0  0  0  0  0  0
   -3.0477    1.0340   -0.3940 H   0  0  0  1  0  0  0  0  0  0  0  0
   -2.7112    1.9579   -2.2029 C   0  0  0  1  0  0  0  0  0  0  0  0
    1.9153   -0.1942   -0.6624 C   0  0  0  1  0  0  0  0  0  0  0  0
   -4.0734    1.6509   -2.7589 C   0  0  0  1  0  0  0  0  0  0  0  0
   -1.8535    2.5242   -2.8556 O   0  0  0  1  0  0  0  0  0  0  0  0
    1.1099    1.6391   -1.3296 H   0  0  0  1  0  0  0  0  0  0  0  0
    2.8899    0.2472   -0.6493 H   0  0  0  1  0  0  0  0  0  0  0  0
    1.8372   -0.8607   -1.4958 H   0  0  0  1  0  0  0  0  0  0  0  0
    1.7580   -0.7378    0.2457 H   0  0  0  1  0  0  0  0  0  0  0  0
   -3.9905    1.4216   -3.8007 H   0  0  0  1  0  0  0  0  0  0  0  0
   -4.7106    2.5008   -2.6305 H   0  0  0  1  0  0  0  0  0  0  0  0
   -4.4887    0.8116   -2.2412 H   0  0  0  1  0  0  0  0  0  0  0  0
   -0.3054    7.6144    1.2979 F   0  0  0  1  0  0  0  0  0  0  0  0
   -1.6236    7.7076    1.1147 C   0  0  0  1  0  0  0  0  0  0  0  0
   -2.0588    8.4492    2.1345 F   0  0  0  1  0  0  0  0  0  0  0  0
   -1.7711    8.4529    0.0320 F   0  0  0  1  0  0  0  0  0  0  0  0
   -2.3097    6.3604    1.0187 C   0  0  0  1  0  0  0  0  0  0  0  0
   -1.5630    5.1949    1.0755 C   0  0  0  1  0  0  0  0  0  0  0  0
   -2.1709    3.9436    1.0050 C   0  0  0  1  0  0  0  0  0  0  0  0
   -3.5544    3.9003    0.8697 C   0  0  0  1  0  0  0  0  0  0  0  0
   -4.3066    5.0636    0.8023 C   0  0  0  1  0  0  0  0  0  0  0  0
   -3.6874    6.2903    0.8736 C   0  0  0  1  0  0  0  0  0  0  0  0
   -1.3541    2.6749    1.0734 C   0  0  0  1  0  0  0  0  0  0  0  0
   -0.5293    5.2553    1.1726 H   0  0  0  1  0  0  0  0  0  0  0  0
   -4.0337    2.9787    0.8182 H   0  0  0  1  0  0  0  0  0  0  0  0
   -5.3399    5.0087    0.6978 H   0  0  0  1  0  0  0  0  0  0  0  0
   -4.2508    7.1627    0.8188 H   0  0  0  1  0  0  0  0  0  0  0  0
   -0.3894    2.9120    1.4711 H   0  0  0  1  0  0  0  0  0  0  0  0
   -1.8494    1.9856    1.7248 H   0  0  0  1  0  0  0  0  0  0  0  0
  1  4  1  0  0  0  0
  2  4  1  0  0  0  0
  2  5  2  0  0  0  0
  2  6  1  0  0  0  0
  3  4  1  0  0  0  0
  3  7  1  0  0  0  0
  3  8  1  0  0  0  0
  4 29  1  0  0  0  0
  6  9  1  0  0  0  0
  6 12  1  0  0  0  0
  8 10  1  0  0  0  0
  8 11  2  0  0  0  0
  9 13  1  0  0  0  0
  9 14  1  0  0  0  0
  9 15  1  0  0  0  0
 10 16  1  0  0  0  0
 10 17  1  0  0  0  0
 10 18  1  0  0  0  0
 19 20  1  0  0  0  0
 20 21  1  0  0  0  0
 20 22  1  0  0  0  0
 20 23  1  0  0  0  0
 23 24  4  0  0  0  0
 23 28  4  0  0  0  0
 24 25  4  0  0  0  0
 24 30  1  0  0  0  0
 25 26  4  0  0  0  0
 25 29  1  0  0  0  0
 26 27  4  0  0  0  0
 26 31  1  0  0  0  0
 27 28  4  0  0  0  0
 27 32  1  0  0  0  0
 28 33  1  0  0  0  0
 29 34  1  0  0  0  0
 29 35  1  0  0  0  0
M  END
> <BCLConfClusterSize>
1

> <ConfClashScore>
0 

> <ConfOneFourInteractionScore>
-0.985807 

> <ConfScore>
-0.070117 

> <ConfScorePBest>
0.00615347 

> <ConfTolerance>
0.394289 

> <RosettaParamsInstructions>
M  ROOT 3
M  POLY_N_BB 3
M  POLY_CA_BB 4
M  POLY_C_BB 2
M  POLY_O_BB 5
M  POLY_IGNORE 9 10 11 12 13 14 15 16 17 18 
M  POLY_UPPER 6
M  POLY_LOWER 8
M  POLY_CHG 0
M  POLY_PROPERTIES ALPHA_AA L_AA PROTEIN AROMATIC POLYMER 
M  END

$$$$



 35 35  0  0  0  0  0  0  0  0999 V2000
   -1.7402    2.3160    3.0642 H   0  0  0  1  0  0  0  0  0  0  0  0
   -0.1922    1.0070    2.6042 C   0  0  0  1  0  0  0  0  0  0  0  0
   -0.0398    3.4528    3.0279 N   0  0  0  1  0  0  0  0  0  0  0  0
   -0.8604    2.3664    2.4573 C   0  0  0  1  0  0  0  0  0  0  0  0
    0.8892    0.7552    2.1048 O   0  0  0  1  0  0  0  0  0  0  0  0
   -0.8101    0.0521    3.3052 N   0  0  0  1  0  0  0  0  0  0  0  0
    0.7302    3.7814    2.5186 H   0  0  0  1  0  0  0  0  0  0  0  0
   -0.3105    4.0037    4.2147 C   0  0  0  1  0  0  0  0  0  0  0  0
   -0.2049   -1.2489    3.5480 C   0  0  0  1  0  0  0  0  0  0  0  0
    0.7295    4.9720    4.7440 C   0  0  0  1  0  0  0  0  0  0  0  0
   -1.3327    3.7535    4.8519 O   0  0  0  1  0  0  0  0  0  0  0  0
   -1.7019    0.2342    3.6686 H   0  0  0  1  0  0  0  0  0  0  0  0
   -0.9636   -1.9487    3.8300 H   0  0  0  1  0  0  0  0  0  0  0  0
    0.5142   -1.1660    4.3360 H   0  0  0  1  0  0  0  0  0  0  0  0
    0.2797   -1.5885    2.6566 H   0  0  0  1  0  0  0  0  0  0  0  0
    0.4256    5.3326    5.7045 H   0  0  0  1  0  0  0  0  0  0  0  0
    0.8260    5.7959    4.0681 H   0  0  0  1  0  0  0  0  0  0  0  0
    1.6706    4.4708    4.8328 H   0  0  0  1  0  0  0  0  0  0  0  0
   -0.2988    7.6143    1.2267 F   0  0  0  1  0  0  0  0  0  0  0  0
   -1.6247    7.7046    1.1088 C   0  0  0  1  0  0  0  0  0  0  0  0
   -2.0104    8.4235    2.1537 F   0  0  0  1  0  0  0  0  0  0  0  0
   -1.8269    8.4664    0.0466 F   0  0  0  1  0  0  0  0  0  0  0  0
   -2.3078    6.3601    1.0245 C   0  0  0  1  0  0  0  0  0  0  0  0
   -1.5566    5.1963    1.0785 C   0  0  0  1  0  0  0  0  0  0  0  0
   -2.1811    3.9661    0.9959 C   0  0  0  1  0  0  0  0  0  0  0  0
   -3.5593    3.8960    0.8645 C   0  0  0  1  0  0  0  0  0  0  0  0
   -4.3084    5.0562    0.8107 C   0  0  0  1  0  0  0  0  0  0  0  0
   -3.6819    6.2900    0.8934 C   0  0  0  1  0  0  0  0  0  0  0  0
   -1.3620    2.6981    1.0489 C   0  0  0  1  0  0  0  0  0  0  0  0
   -0.5230    5.2489    1.1811 H   0  0  0  1  0  0  0  0  0  0  0  0
   -4.0296    2.9703    0.8064 H   0  0  0  1  0  0  0  0  0  0  0  0
   -5.3420    5.0036    0.7080 H   0  0  0  1  0  0  0  0  0  0  0  0
   -4.2460    7.1630    0.8570 H   0  0  0  1  0  0  0  0  0  0  0  0
   -1.9677    1.8867    0.7032 H   0  0  0  1  0  0  0  0  0  0  0  0
   -0.5158    2.8121    0.4041 H   0  0  0  1  0  0  0  0  0  0  0  0
  1  4  1  0  0  0  0
  2  4  1  0  0  0  0
  2  5  2  0  0  0  0
  2  6  1  0  0  0  0
  3  4  1  0  0  0  0
  3  7  1  0  0  0  0
  3  8  1  0  0  0  0
  4 29  1  0  0  0  0
  6  9  1  0  0  0  0
  6 12  1  0  0  0  0
  8 10  1  0  0  0  0
  8 11  2  0  0  0  0
  9 13  1  0  0  0  0
  9 14  1  0  0  0  0
  9 15  1  0  0  0  0
 10 16  1  0  0  0  0
 10 17  1  0  0  0  0
 10 18  1  0  0  0  0
 19 20  1  0  0  0  0
 20 21  1  0  0  0  0
 20 22  1  0  0  0  0
 20 23  1  0  0  0  0
 23 24  4  0  0  0  0
 23 28  4  0  0  0  0
 24 25  4  0  0  0  0
 24 30  1  0  0  0  0
 25 26  4  0  0  0  0
 25 29  1  0  0  0  0
 26 27  4  0  0  0  0
 26 31  1  0  0  0  0
 27 28  4  0  0  0  0
 27 32  1  0  0  0  0
 28 33  1  0  0  0  0
 29 34  1  0  0  0  0
 29 35  1  0  0  0  0
M  END
> <BCLConfClusterSize>
1

> <ConfClashScore>
0 

> <ConfOneFourInteractionScore>
-0.985807 

> <ConfScore>
-0.0696971 

> <ConfScorePBest>
0.00612499 

> <ConfTolerance>
0.456986 

> <RosettaParamsInstructions>
M  ROOT 3
M  POLY_N_BB 3
M  POLY_CA_BB 4
M  POLY_C_BB 2
M  POLY_O_BB 5
M  POLY_IGNORE 9 10 11 12 13 14 15 16 17 18 
M  POLY_UPPER 6
M  POLY_LOWER 8
M  POLY_CHG 0
M  POLY_PROPERTIES ALPHA_AA L_AA PROTEIN AROMATIC POLYMER 
M  END

$$$$



 35 35  0  0  0  0  0  0  0  0999 V2000
   -0.5705    2.6085   -0.5348 H   0  0  0  1  0  0  0  0  0  0  0  0
    0.1558    0.9257    0.4881 C   0  0  0  1  0  0  0  0  0  0  0  0
   -2.0799    1.2218   -0.4911 N   0  0  0  1  0  0  0  0  0  0  0  0
   -0.9689    1.8993    0.1603 C   0  0  0  1  0  0  0  0  0  0  0  0
   -0.0746   -0.2443    0.7459 O   0  0  0  1  0  0  0  0  0  0  0  0
    1.3956    1.4402    0.4727 N   0  0  0  1  0  0  0  0  0  0  0  0
   -2.9633    1.2470   -0.0675 H   0  0  0  1  0  0  0  0  0  0  0  0
   -1.9369    0.5634   -1.6522 C   0  0  0  1  0  0  0  0  0  0  0  0
    2.5440    0.5877    0.7415 C   0  0  0  1  0  0  0  0  0  0  0  0
   -3.1297   -0.2043   -2.1880 C   0  0  0  1  0  0  0  0  0  0  0  0
   -0.8724    0.5808   -2.2645 O   0  0  0  1  0  0  0  0  0  0  0  0
    1.5276    2.3920    0.2800 H   0  0  0  1  0  0  0  0  0  0  0  0
    2.2739   -0.1600    1.4577 H   0  0  0  1  0  0  0  0  0  0  0  0
    3.3451    1.1810    1.1304 H   0  0  0  1  0  0  0  0  0  0  0  0
    2.8574    0.1153   -0.1660 H   0  0  0  1  0  0  0  0  0  0  0  0
   -2.8871   -0.6197   -3.1438 H   0  0  0  1  0  0  0  0  0  0  0  0
   -3.9639    0.4581   -2.2887 H   0  0  0  1  0  0  0  0  0  0  0  0
   -3.3798   -0.9931   -1.5097 H   0  0  0  1  0  0  0  0  0  0  0  0
   -0.7099    7.7425    2.0952 F   0  0  0  1  0  0  0  0  0  0  0  0
   -1.6217    7.7060    1.1219 C   0  0  0  1  0  0  0  0  0  0  0  0
   -2.4778    8.6970    1.3758 F   0  0  0  1  0  0  0  0  0  0  0  0
   -0.9838    8.0415   -0.0002 F   0  0  0  1  0  0  0  0  0  0  0  0
   -2.3052    6.3629    1.0194 C   0  0  0  1  0  0  0  0  0  0  0  0
   -1.5827    5.1986    1.2229 C   0  0  0  1  0  0  0  0  0  0  0  0
   -2.1924    3.9483    1.1495 C   0  0  0  1  0  0  0  0  0  0  0  0
   -3.5518    3.9045    0.8590 C   0  0  0  1  0  0  0  0  0  0  0  0
   -4.2785    5.0663    0.6444 C   0  0  0  1  0  0  0  0  0  0  0  0
   -3.6579    6.2920    0.7213 C   0  0  0  1  0  0  0  0  0  0  0  0
   -1.4028    2.6811    1.3779 C   0  0  0  1  0  0  0  0  0  0  0  0
   -0.5663    5.2590    1.4345 H   0  0  0  1  0  0  0  0  0  0  0  0
   -4.0322    2.9839    0.8015 H   0  0  0  1  0  0  0  0  0  0  0  0
   -5.2936    5.0109    0.4252 H   0  0  0  1  0  0  0  0  0  0  0  0
   -4.2018    7.1629    0.5563 H   0  0  0  1  0  0  0  0  0  0  0  0
   -0.5189    2.9478    1.9188 H   0  0  0  1  0  0  0  0  0  0  0  0
   -2.0060    2.0316    1.9772 H   0  0  0  1  0  0  0  0  0  0  0  0
  1  4  1  0  0  0  0
  2  4  1  0  0  0  0
  2  5  2  0  0  0  0
  2  6  1  0  0  0  0
  3  4  1  0  0  0  0
  3  7  1  0  0  0  0
  3  8  1  0  0  0  0
  4 29  1  0  0  0  0
  6  9  1  0  0  0  0
  6 12  1  0  0  0  0
  8 10  1  0  0  0  0
  8 11  2  0  0  0  0
  9 13  1  0  0  0  0
  9 14  1  0  0  0  0
  9 15  1  0  0  0  0
 10 16  1  0  0  0  0
 10 17  1  0  0  0  0
 10 18  1  0  0  0  0
 19 20  1  0  0  0  0
 20 21  1  0  0  0  0
 20 22  1  0  0  0  0
 20 23  1  0  0  0  0
 23 24  4  0  0  0  0
 23 28  4  0  0  0  0
 24 25  4  0  0  0  0
 24 30  1  0  0  0  0
 25 26  4  0  0  0  0
 25 29  1  0  0  0  0
 26 27  4  0  0  0  0
 26 31  1  0  0  0  0
 27 28  4  0  0  0  0
 27 32  1  0  0  0  0
 28 33  1  0  0  0  0
 29 34  1  0  0  0  0
 29 35  1  0  0  0  0
M  END
> <BCLConfClusterSize>
1

> <ConfClashScore>
0 

> <ConfOneFourInteractionScore>
-0.981931 

> <ConfScore>
-0.0655288 

> <ConfScorePBest>
0.00609651 

> <ConfTolerance>
0.428079 

> <RosettaParamsInstructions>
M  ROOT 3
M  POLY_N_BB 3
M  POLY_CA_BB 4
M  POLY_C_BB 2
M  POLY_O_BB 5
M  POLY_IGNORE 9 10 11 12 13 14 15 16 17 18 
M  POLY_UPPER 6
M  POLY_LOWER 8
M  POLY_CHG 0
M  POLY_PROPERTIES ALPHA_AA L_AA PROTEIN AROMATIC POLYMER 
M  END

$$$$



 35 35  0  0  0  0  0  0  0  0999 V2000
   -0.2948    3.2285    3.1163 H   0  0  0  1  0  0  0  0  0  0  0  0
   -2.2239    2.6654    3.7627 C   0  0  0  1  0  0  0  0  0  0  0  0
   -0.4322    1.1659    3.0710 N   0  0  0  1  0  0  0  0  0  0  0  0
   -1.0178    2.4818    2.8622 C   0  0  0  1  0  0  0  0  0  0  0  0
   -2.4956    3.7679    4.2365 O   0  0  0  1  0  0  0  0  0  0  0  0
   -2.9841    1.5909    4.0264 N   0  0  0  1  0  0  0  0  0  0  0  0
   -0.2527    0.5992    2.2919 H   0  0  0  1  0  0  0  0  0  0  0  0
   -0.1293    0.7016    4.2936 C   0  0  0  1  0  0  0  0  0  0  0  0
   -4.1206    1.5968    4.9353 C   0  0  0  1  0  0  0  0  0  0  0  0
    0.5003   -0.6771    4.3372 C   0  0  0  1  0  0  0  0  0  0  0  0
   -0.3413    1.3383    5.3222 O   0  0  0  1  0  0  0  0  0  0  0  0
   -2.7595    0.7488    3.5782 H   0  0  0  1  0  0  0  0  0  0  0  0
   -4.6309    2.5345    4.8631 H   0  0  0  1  0  0  0  0  0  0  0  0
   -3.7756    1.4551    5.9382 H   0  0  0  1  0  0  0  0  0  0  0  0
   -4.7909    0.8051    4.6730 H   0  0  0  1  0  0  0  0  0  0  0  0
    0.2722   -1.1446    5.2723 H   0  0  0  1  0  0  0  0  0  0  0  0
    1.5615   -0.5878    4.2329 H   0  0  0  1  0  0  0  0  0  0  0  0
    0.1116   -1.2720    3.5372 H   0  0  0  1  0  0  0  0  0  0  0  0
   -0.7419    7.7610    2.1256 F   0  0  0  1  0  0  0  0  0  0  0  0
   -1.6199    7.7097    1.1224 C   0  0  0  1  0  0  0  0  0  0  0  0
   -2.4813    8.7069    1.3296 F   0  0  0  1  0  0  0  0  0  0  0  0
   -0.9430    8.0244    0.0172 F   0  0  0  1  0  0  0  0  0  0  0  0
   -2.3059    6.3616    1.0193 C   0  0  0  1  0  0  0  0  0  0  0  0
   -1.5851    5.1975    1.2306 C   0  0  0  1  0  0  0  0  0  0  0  0
   -2.1948    3.9473    1.1571 C   0  0  0  1  0  0  0  0  0  0  0  0
   -3.5524    3.9032    0.8583 C   0  0  0  1  0  0  0  0  0  0  0  0
   -4.2773    5.0646    0.6359 C   0  0  0  1  0  0  0  0  0  0  0  0
   -3.6568    6.2902    0.7130 C   0  0  0  1  0  0  0  0  0  0  0  0
   -1.4071    2.6805    1.3941 C   0  0  0  1  0  0  0  0  0  0  0  0
   -0.5700    5.2582    1.4483 H   0  0  0  1  0  0  0  0  0  0  0  0
   -4.0328    2.9826    0.8006 H   0  0  0  1  0  0  0  0  0  0  0  0
   -5.2911    5.0089    0.4106 H   0  0  0  1  0  0  0  0  0  0  0  0
   -4.1993    7.1609    0.5421 H   0  0  0  1  0  0  0  0  0  0  0  0
   -2.0014    1.8467    1.0835 H   0  0  0  1  0  0  0  0  0  0  0  0
   -0.5133    2.7204    0.8071 H   0  0  0  1  0  0  0  0  0  0  0  0
  1  4  1  0  0  0  0
  2  4  1  0  0  0  0
  2  5  2  0  0  0  0
  2  6  1  0  0  0  0
  3  4  1  0  0  0  0
  3  7  1  0  0  0  0
  3  8  1  0  0  0  0
  4 29  1  0  0  0  0
  6  9  1  0  0  0  0
  6 12  1  0  0  0  0
  8 10  1  0  0  0  0
  8 11  2  0  0  0  0
  9 13  1  0  0  0  0
  9 14  1  0  0  0  0
  9 15  1  0  0  0  0
 10 16  1  0  0  0  0
 10 17  1  0  0  0  0
 10 18  1  0  0  0  0
 19 20  1  0  0  0  0
 20 21  1  0  0  0  0
 20 22  1  0  0  0  0
 20 23  1  0  0  0  0
 23 24  4  0  0  0  0
 23 28  4  0  0  0  0
 24 25  4  0  0  0  0
 24 30  1  0  0  0  0
 25 26  4  0  0  0  0
 25 29  1  0  0  0  0
 26 27  4  0  0  0  0
 26 31  1  0  0  0  0
 27 28  4  0  0  0  0
 27 32  1  0  0  0  0
 28 33  1  0  0  0  0
 29 34  1  0  0  0  0
 29 35  1  0  0  0  0
M  END
> <BCLConfClusterSize>
1

> <ConfClashScore>
0 

> <ConfOneFourInteractionScore>
-0.960318 

> <ConfScore>
-0.0592087 

> <ConfScorePBest>
0.00606803 

> <ConfTolerance>
0.473856 

> <RosettaParamsInstructions>
M  ROOT 3
M  POLY_N_BB 3
M  POLY_CA_BB 4
M  POLY_C_BB 2
M  POLY_O_BB 5
M  POLY_IGNORE 9 10 11 12 13 14 15 16 17 18 
M  POLY_UPPER 6
M  POLY_LOWER 8
M  POLY_CHG 0
M  POLY_PROPERTIES ALPHA_AA L_AA PROTEIN AROMATIC POLYMER 
M  END

$$$$



 35 35  0  0  0  0  0  0  0  0999 V2000
   -0.3310    3.1358   -0.8967 H   0  0  0  1  0  0  0  0  0  0  0  0
   -0.0316    1.0751   -0.5982 C   0  0  0  1  0  0  0  0  0  0  0  0
   -2.0892    2.1660   -1.3948 N   0  0  0  1  0  0  0  0  0  0  0  0
   -0.9101    2.3188   -0.5198 C   0  0  0  1  0  0  0  0  0  0  0  0
   -0.5135   -0.0568   -0.5827 O   0  0  0  1  0  0  0  0  0  0  0  0
    1.2805    1.3458   -0.6830 N   0  0  0  1  0  0  0  0  0  0  0  0
   -2.6595    1.3764   -1.2865 H   0  0  0  1  0  0  0  0  0  0  0  0
   -2.4060    3.0668   -2.3293 C   0  0  0  1  0  0  0  0  0  0  0  0
    2.2956    0.3061   -0.6027 C   0  0  0  1  0  0  0  0  0  0  0  0
   -3.6657    2.7781   -3.1224 C   0  0  0  1  0  0  0  0  0  0  0  0
   -1.7367    4.0638   -2.5448 O   0  0  0  1  0  0  0  0  0  0  0  0
    1.5647    2.2760   -0.8032 H   0  0  0  1  0  0  0  0  0  0  0  0
    2.3476   -0.2151   -1.5358 H   0  0  0  1  0  0  0  0  0  0  0  0
    2.0403   -0.3818    0.1761 H   0  0  0  1  0  0  0  0  0  0  0  0
    3.2452    0.7508   -0.3895 H   0  0  0  1  0  0  0  0  0  0  0  0
   -4.1312    3.7002   -3.4016 H   0  0  0  1  0  0  0  0  0  0  0  0
   -4.3413    2.2052   -2.5222 H   0  0  0  1  0  0  0  0  0  0  0  0
   -3.4135    2.2252   -4.0031 H   0  0  0  1  0  0  0  0  0  0  0  0
   -0.8633    7.9893    0.0394 F   0  0  0  1  0  0  0  0  0  0  0  0
   -1.6099    7.7257    1.1132 C   0  0  0  1  0  0  0  0  0  0  0  0
   -0.7953    7.8183    2.1654 F   0  0  0  1  0  0  0  0  0  0  0  0
   -2.4767    8.7334    1.2218 F   0  0  0  1  0  0  0  0  0  0  0  0
   -2.2955    6.3770    1.0267 C   0  0  0  1  0  0  0  0  0  0  0  0
   -1.5580    5.1955    1.0057 C   0  0  0  1  0  0  0  0  0  0  0  0
   -2.1813    3.9612    0.9212 C   0  0  0  1  0  0  0  0  0  0  0  0
   -3.5656    3.8897    0.8715 C   0  0  0  1  0  0  0  0  0  0  0  0
   -4.3118    5.0456    0.8909 C   0  0  0  1  0  0  0  0  0  0  0  0
   -3.6815    6.2788    0.9657 C   0  0  0  1  0  0  0  0  0  0  0  0
   -1.3558    2.6969    0.8832 C   0  0  0  1  0  0  0  0  0  0  0  0
   -0.5201    5.2408    1.0545 H   0  0  0  1  0  0  0  0  0  0  0  0
   -4.0384    2.9648    0.8197 H   0  0  0  1  0  0  0  0  0  0  0  0
   -5.3497    4.9945    0.8494 H   0  0  0  1  0  0  0  0  0  0  0  0
   -4.2557    7.1459    0.9764 H   0  0  0  1  0  0  0  0  0  0  0  0
   -0.4862    2.8396    1.4900 H   0  0  0  1  0  0  0  0  0  0  0  0
   -1.9419    1.8954    1.2820 H   0  0  0  1  0  0  0  0  0  0  0  0
  1  4  1  0  0  0  0
  2  4  1  0  0  0  0
  2  5  2  0  0  0  0
  2  6  1  0  0  0  0
  3  4  1  0  0  0  0
  3  7  1  0  0  0  0
  3  8  1  0  0  0  0
  4 29  1  0  0  0  0
  6  9  1  0  0  0  0
  6 12  1  0  0  0  0
  8 10  1  0  0  0  0
  8 11  2  0  0  0  0
  9 13  1  0  0  0  0
  9 14  1  0  0  0  0
  9 15  1  0  0  0  0
 10 16  1  0  0  0  0
 10 17  1  0  0  0  0
 10 18  1  0  0  0  0
 19 20  1  0  0  0  0
 20 21  1  0  0  0  0
 20 22  1  0  0  0  0
 20 23  1  0  0  0  0
 23 24  4  0  0  0  0
 23 28  4  0  0  0  0
 24 25  4  0  0  0  0
 24 30  1  0  0  0  0
 25 26  4  0  0  0  0
 25 29  1  0  0  0  0
 26 27  4  0  0  0  0
 26 31  1  0  0  0  0
 27 28  4  0  0  0  0
 27 32  1  0  0  0  0
 28 33  1  0  0  0  0
 29 34  1  0  0  0  0
 29 35  1  0  0  0  0
M  END
> <BCLConfClusterSize>
1

> <ConfClashScore>
0 

> <ConfOneFourInteractionScore>
-0.990503 

> <ConfScore>
-0.0584115 

> <ConfScorePBest>
0.00603955 

> <ConfTolerance>
0.406776 

> <RosettaParamsInstructions>
M  ROOT 3
M  POLY_N_BB 3
M  POLY_CA_BB 4
M  POLY_C_BB 2
M  POLY_O_BB 5
M  POLY_IGNORE 9 10 11 12 13 14 15 16 17 18 
M  POLY_UPPER 6
M  POLY_LOWER 8
M  POLY_CHG 0
M  POLY_PROPERTIES ALPHA_AA L_AA PROTEIN AROMATIC POLYMER 
M  END

$$$$



 35 35  0  0  0  0  0  0  0  0999 V2000
   -2.8617    1.4300    0.3924 H   0  0  0  1  0  0  0  0  0  0  0  0
   -1.3811    0.2002    1.2582 C   0  0  0  1  0  0  0  0  0  0  0  0
   -3.1022    1.4504    2.4445 N   0  0  0  1  0  0  0  0  0  0  0  0
   -2.2472    1.4447    1.2682 C   0  0  0  1  0  0  0  0  0  0  0  0
   -1.0775   -0.3579    0.2046 O   0  0  0  1  0  0  0  0  0  0  0  0
   -0.9778   -0.2394    2.4607 N   0  0  0  1  0  0  0  0  0  0  0  0
   -2.9773    2.1755    3.0919 H   0  0  0  1  0  0  0  0  0  0  0  0
   -4.0544    0.5327    2.7117 C   0  0  0  1  0  0  0  0  0  0  0  0
   -0.1918   -1.4537    2.6211 C   0  0  0  1  0  0  0  0  0  0  0  0
   -4.7777    0.6240    4.0362 C   0  0  0  1  0  0  0  0  0  0  0  0
   -4.3279   -0.3533    1.9031 O   0  0  0  1  0  0  0  0  0  0  0  0
   -1.2211    0.2752    3.2584 H   0  0  0  1  0  0  0  0  0  0  0  0
    0.0904   -1.8262    1.6585 H   0  0  0  1  0  0  0  0  0  0  0  0
   -0.7753   -2.1911    3.1316 H   0  0  0  1  0  0  0  0  0  0  0  0
    0.6873   -1.2365    3.1910 H   0  0  0  1  0  0  0  0  0  0  0  0
   -4.0682    0.7883    4.8201 H   0  0  0  1  0  0  0  0  0  0  0  0
   -5.3047   -0.2893    4.2181 H   0  0  0  1  0  0  0  0  0  0  0  0
   -5.4722    1.4375    4.0077 H   0  0  0  1  0  0  0  0  0  0  0  0
   -0.4470    7.6411    1.7454 F   0  0  0  1  0  0  0  0  0  0  0  0
   -1.6199    7.7052    1.1128 C   0  0  0  1  0  0  0  0  0  0  0  0
   -2.3492    8.6081    1.7703 F   0  0  0  1  0  0  0  0  0  0  0  0
   -1.3687    8.2300   -0.0873 F   0  0  0  1  0  0  0  0  0  0  0  0
   -2.3042    6.3616    1.0250 C   0  0  0  1  0  0  0  0  0  0  0  0
   -1.5648    5.1969    1.1610 C   0  0  0  1  0  0  0  0  0  0  0  0
   -2.1901    3.9673    1.0754 C   0  0  0  1  0  0  0  0  0  0  0  0
   -3.5575    3.8988    0.8588 C   0  0  0  1  0  0  0  0  0  0  0  0
   -4.2948    5.0599    0.7231 C   0  0  0  1  0  0  0  0  0  0  0  0
   -3.6676    6.2931    0.8090 C   0  0  0  1  0  0  0  0  0  0  0  0
   -1.3835    2.6982    1.2178 C   0  0  0  1  0  0  0  0  0  0  0  0
   -0.5395    5.2484    1.3275 H   0  0  0  1  0  0  0  0  0  0  0  0
   -4.0287    2.9737    0.7983 H   0  0  0  1  0  0  0  0  0  0  0  0
   -5.3201    5.0084    0.5566 H   0  0  0  1  0  0  0  0  0  0  0  0
   -4.2230    7.1668    0.7110 H   0  0  0  1  0  0  0  0  0  0  0  0
   -0.7197    2.6210    0.3821 H   0  0  0  1  0  0  0  0  0  0  0  0
   -0.8142    2.7561    2.1219 H   0  0  0  1  0  0  0  0  0  0  0  0
  1  4  1  0  0  0  0
  2  4  1  0  0  0  0
  2  5  2  0  0  0  0
  2  6  1  0  0  0  0
  3  4  1  0  0  0  0
  3  7  1  0  0  0  0
  3  8  1  0  0  0  0
  4 29  1  0  0  0  0
  6  9  1  0  0  0  0
  6 12  1  0  0  0  0
  8 10  1  0  0  0  0
  8 11  2  0  0  0  0
  9 13  1  0  0  0  0
  9 14  1  0  0  0  0
  9 15  1  0  0  0  0
 10 16  1  0  0  0  0
 10 17  1  0  0  0  0
 10 18  1  0  0  0  0
 19 20  1  0  0  0  0
 20 21  1  0  0  0  0
 20 22  1  0  0  0  0
 20 23  1  0  0  0  0
 23 24  4  0  0  0  0
 23 28  4  0  0  0  0
 24 25  4  0  0  0  0
 24 30  1  0  0  0  0
 25 26  4  0  0  0  0
 25 29  1  0  0  0  0
 26 27  4  0  0  0  0
 26 31  1  0  0  0  0
 27 28  4  0  0  0  0
 27 32  1  0  0  0  0
 28 33  1  0  0  0  0
 29 34  1  0  0  0  0
 29 35  1  0  0  0  0
M  END
> <BCLConfClusterSize>
1

> <ConfClashScore>
0 

> <ConfOneFourInteractionScore>
-0.949001 

> <ConfScore>
-0.0554078 

> <ConfScorePBest>
0.00601107 

> <ConfTolerance>
0.378705 

> <RosettaParamsInstructions>
M  ROOT 3
M  POLY_N_BB 3
M  POLY_CA_BB 4
M  POLY_C_BB 2
M  POLY_O_BB 5
M  POLY_IGNORE 9 10 11 12 13 14 15 16 17 18 
M  POLY_UPPER 6
M  POLY_LOWER 8
M  POLY_CHG 0
M  POLY_PROPERTIES ALPHA_AA L_AA PROTEIN AROMATIC POLYMER 
M  END

$$$$



 35 35  0  0  0  0  0  0  0  0999 V2000
   -2.9083    1.4926    2.2283 H   0  0  0  1  0  0  0  0  0  0  0  0
   -1.0356    0.5483    2.5360 C   0  0  0  1  0  0  0  0  0  0  0  0
   -1.8571    2.4541    3.7391 N   0  0  0  1  0  0  0  0  0  0  0  0
   -1.9033    1.7885    2.4458 C   0  0  0  1  0  0  0  0  0  0  0  0
   -0.2416    0.3962    3.4497 O   0  0  0  1  0  0  0  0  0  0  0  0
   -1.2025   -0.3528    1.5550 N   0  0  0  1  0  0  0  0  0  0  0  0
   -0.9988    2.7559    4.1033 H   0  0  0  1  0  0  0  0  0  0  0  0
   -2.9823    2.6546    4.4310 C   0  0  0  1  0  0  0  0  0  0  0  0
   -0.5777   -1.6671    1.5375 C   0  0  0  1  0  0  0  0  0  0  0  0
   -2.8122    3.3000    5.7925 C   0  0  0  1  0  0  0  0  0  0  0  0
   -4.0848    2.3447    4.0106 O   0  0  0  1  0  0  0  0  0  0  0  0
   -1.7819   -0.1102    0.8028 H   0  0  0  1  0  0  0  0  0  0  0  0
   -0.4478   -2.0143    2.5412 H   0  0  0  1  0  0  0  0  0  0  0  0
    0.3759   -1.6020    1.0566 H   0  0  0  1  0  0  0  0  0  0  0  0
   -1.2019   -2.3513    1.0017 H   0  0  0  1  0  0  0  0  0  0  0  0
   -1.9818    3.9743    5.7669 H   0  0  0  1  0  0  0  0  0  0  0  0
   -2.6334    2.5422    6.5264 H   0  0  0  1  0  0  0  0  0  0  0  0
   -3.7013    3.8391    6.0450 H   0  0  0  1  0  0  0  0  0  0  0  0
   -0.6166    7.7295    2.0064 F   0  0  0  1  0  0  0  0  0  0  0  0
   -1.6104    7.7216    1.1163 C   0  0  0  1  0  0  0  0  0  0  0  0
   -2.4450    8.6963    1.4809 F   0  0  0  1  0  0  0  0  0  0  0  0
   -1.0753    8.1025   -0.0443 F   0  0  0  1  0  0  0  0  0  0  0  0
   -2.2946    6.3781    1.0249 C   0  0  0  1  0  0  0  0  0  0  0  0
   -1.5851    5.1969    1.2132 C   0  0  0  1  0  0  0  0  0  0  0  0
   -2.2098    3.9617    1.1255 C   0  0  0  1  0  0  0  0  0  0  0  0
   -3.5563    3.8877    0.8521 C   0  0  0  1  0  0  0  0  0  0  0  0
   -4.2883    5.0517    0.6700 C   0  0  0  1  0  0  0  0  0  0  0  0
   -3.6566    6.2821    0.7491 C   0  0  0  1  0  0  0  0  0  0  0  0
   -1.4111    2.6962    1.3304 C   0  0  0  1  0  0  0  0  0  0  0  0
   -0.5675    5.2405    1.4237 H   0  0  0  1  0  0  0  0  0  0  0  0
   -4.0240    2.9614    0.7821 H   0  0  0  1  0  0  0  0  0  0  0  0
   -5.3085    5.0009    0.4746 H   0  0  0  1  0  0  0  0  0  0  0  0
   -4.2095    7.1502    0.5999 H   0  0  0  1  0  0  0  0  0  0  0  0
   -1.4348    2.1393    0.4170 H   0  0  0  1  0  0  0  0  0  0  0  0
   -0.4022    2.9749    1.5527 H   0  0  0  1  0  0  0  0  0  0  0  0
  1  4  1  0  0  0  0
  2  4  1  0  0  0  0
  2  5  2  0  0  0  0
  2  6  1  0  0  0  0
  3  4  1  0  0  0  0
  3  7  1  0  0  0  0
  3  8  1  0  0  0  0
  4 29  1  0  0  0  0
  6  9  1  0  0  0  0
  6 12  1  0  0  0  0
  8 10  1  0  0  0  0
  8 11  2  0  0  0  0
  9 13  1  0  0  0  0
  9 14  1  0  0  0  0
  9 15  1  0  0  0  0
 10 16  1  0  0  0  0
 10 17  1  0  0  0  0
 10 18  1  0  0  0  0
 19 20  1  0  0  0  0
 20 21  1  0  0  0  0
 20 22  1  0  0  0  0
 20 23  1  0  0  0  0
 23 24  4  0  0  0  0
 23 28  4  0  0  0  0
 24 25  4  0  0  0  0
 24 30  1  0  0  0  0
 25 26  4  0  0  0  0
 25 29  1  0  0  0  0
 26 27  4  0  0  0  0
 26 31  1  0  0  0  0
 27 28  4  0  0  0  0
 27 32  1  0  0  0  0
 28 33  1  0  0  0  0
 29 34  1  0  0  0  0
 29 35  1  0  0  0  0
M  END
> <BCLConfClusterSize>
1

> <ConfClashScore>
0 

> <ConfOneFourInteractionScore>
-0.992391 

> <ConfScore>
-0.0528977 

> <ConfScorePBest>
0.00598259 

> <ConfTolerance>
0.409713 

> <RosettaParamsInstructions>
M  ROOT 3
M  POLY_N_BB 3
M  POLY_CA_BB 4
M  POLY_C_BB 2
M  POLY_O_BB 5
M  POLY_IGNORE 9 10 11 12 13 14 15 16 17 18 
M  POLY_UPPER 6
M  POLY_LOWER 8
M  POLY_CHG 0
M  POLY_PROPERTIES ALPHA_AA L_AA PROTEIN AROMATIC POLYMER 
M  END

$$$$



 35 35  0  0  0  0  0  0  0  0999 V2000
   -1.8236    2.2726    2.9501 H   0  0  0  1  0  0  0  0  0  0  0  0
   -0.5107    0.7551    2.2946 C   0  0  0  1  0  0  0  0  0  0  0  0
    0.0958    3.0388    2.8896 N   0  0  0  1  0  0  0  0  0  0  0  0
   -0.9558    2.2043    2.3279 C   0  0  0  1  0  0  0  0  0  0  0  0
    0.6517    0.4547    2.0782 O   0  0  0  1  0  0  0  0  0  0  0  0
   -1.4673   -0.1511    2.5155 N   0  0  0  1  0  0  0  0  0  0  0  0
    0.9519    3.1028    2.4170 H   0  0  0  1  0  0  0  0  0  0  0  0
   -0.0669    3.7275    4.0383 C   0  0  0  1  0  0  0  0  0  0  0  0
   -1.2391   -1.5787    2.3487 C   0  0  0  1  0  0  0  0  0  0  0  0
    1.1300    4.4700    4.5999 C   0  0  0  1  0  0  0  0  0  0  0  0
   -1.1533    3.7539    4.6151 O   0  0  0  1  0  0  0  0  0  0  0  0
   -2.3534    0.1562    2.7996 H   0  0  0  1  0  0  0  0  0  0  0  0
   -0.3024   -1.7355    1.8560 H   0  0  0  1  0  0  0  0  0  0  0  0
   -2.0268   -1.9990    1.7589 H   0  0  0  1  0  0  0  0  0  0  0  0
   -1.2205   -2.0512    3.3085 H   0  0  0  1  0  0  0  0  0  0  0  0
    0.7994    5.3626    5.0887 H   0  0  0  1  0  0  0  0  0  0  0  0
    1.7966    4.7260    3.8030 H   0  0  0  1  0  0  0  0  0  0  0  0
    1.6385    3.8454    5.3042 H   0  0  0  1  0  0  0  0  0  0  0  0
   -1.0093    8.0488   -0.0184 F   0  0  0  1  0  0  0  0  0  0  0  0
   -1.6209    7.7059    1.1166 C   0  0  0  1  0  0  0  0  0  0  0  0
   -0.6861    7.7364    2.0677 F   0  0  0  1  0  0  0  0  0  0  0  0
   -2.4708    8.6949    1.3963 F   0  0  0  1  0  0  0  0  0  0  0  0
   -2.3064    6.3634    1.0218 C   0  0  0  1  0  0  0  0  0  0  0  0
   -1.5553    5.1995    1.0062 C   0  0  0  1  0  0  0  0  0  0  0  0
   -2.1635    3.9484    0.9350 C   0  0  0  1  0  0  0  0  0  0  0  0
   -3.5523    3.9037    0.8741 C   0  0  0  1  0  0  0  0  0  0  0  0
   -4.3094    5.0658    0.8794 C   0  0  0  1  0  0  0  0  0  0  0  0
   -3.6897    6.2923    0.9501 C   0  0  0  1  0  0  0  0  0  0  0  0
   -1.3415    2.6812    0.9243 C   0  0  0  1  0  0  0  0  0  0  0  0
   -0.5179    5.2609    1.0484 H   0  0  0  1  0  0  0  0  0  0  0  0
   -4.0317    2.9823    0.8237 H   0  0  0  1  0  0  0  0  0  0  0  0
   -5.3467    5.0101    0.8298 H   0  0  0  1  0  0  0  0  0  0  0  0
   -4.2572    7.1639    0.9498 H   0  0  0  1  0  0  0  0  0  0  0  0
   -1.9099    1.9106    0.4469 H   0  0  0  1  0  0  0  0  0  0  0  0
   -0.4456    2.8612    0.3676 H   0  0  0  1  0  0  0  0  0  0  0  0
  1  4  1  0  0  0  0
  2  4  1  0  0  0  0
  2  5  2  0  0  0  0
  2  6  1  0  0  0  0
  3  4  1  0  0  0  0
  3  7  1  0  0  0  0
  3  8  1  0  0  0  0
  4 29  1  0  0  0  0
  6  9  1  0  0  0  0
  6 12  1  0  0  0  0
  8 10  1  0  0  0  0
  8 11  2  0  0  0  0
  9 13  1  0  0  0  0
  9 14  1  0  0  0  0
  9 15  1  0  0  0  0
 10 16  1  0  0  0  0
 10 17  1  0  0  0  0
 10 18  1  0  0  0  0
 19 20  1  0  0  0  0
 20 21  1  0  0  0  0
 20 22  1  0  0  0  0
 20 23  1  0  0  0  0
 23 24  4  0  0  0  0
 23 28  4  0  0  0  0
 24 25  4  0  0  0  0
 24 30  1  0  0  0  0
 25 26  4  0  0  0  0
 25 29  1  0  0  0  0
 26 27  4  0  0  0  0
 26 31  1  0  0  0  0
 27 28  4  0  0  0  0
 27 32  1  0  0  0  0
 28 33  1  0  0  0  0
 29 34  1  0  0  0  0
 29 35  1  0  0  0  0
M  END
> <BCLConfClusterSize>
1

> <ConfClashScore>
0 

> <ConfOneFourInteractionScore>
-0.974251 

> <ConfScore>
-0.0525453 

> <ConfScorePBest>
0.00595411 

> <ConfTolerance>
0.455846 

> <RosettaParamsInstructions>
M  ROOT 3
M  POLY_N_BB 3
M  POLY_CA_BB 4
M  POLY_C_BB 2
M  POLY_O_BB 5
M  POLY_IGNORE 9 10 11 12 13 14 15 16 17 18 
M  POLY_UPPER 6
M  POLY_LOWER 8
M  POLY_CHG 0
M  POLY_PROPERTIES ALPHA_AA L_AA PROTEIN AROMATIC POLYMER 
M  END

$$$$



 35 35  0  0  0  0  0  0  0  0999 V2000
   -2.3021    1.7361    2.5806 H   0  0  0  1  0  0  0  0  0  0  0  0
   -0.4832    0.6987    2.1408 C   0  0  0  1  0  0  0  0  0  0  0  0
   -0.6966    2.8935    3.2331 N   0  0  0  1  0  0  0  0  0  0  0  0
   -1.3077    1.9853    2.2741 C   0  0  0  1  0  0  0  0  0  0  0  0
    0.6674    0.6694    2.5454 O   0  0  0  1  0  0  0  0  0  0  0  0
   -1.1171   -0.3779    1.6496 N   0  0  0  1  0  0  0  0  0  0  0  0
   -0.3411    3.7492    2.9139 H   0  0  0  1  0  0  0  0  0  0  0  0
   -0.6035    2.6014    4.5335 C   0  0  0  1  0  0  0  0  0  0  0  0
   -0.4916   -1.6654    1.3874 C   0  0  0  1  0  0  0  0  0  0  0  0
    0.0375    3.6652    5.4033 C   0  0  0  1  0  0  0  0  0  0  0  0
   -1.0031    1.5512    5.0087 O   0  0  0  1  0  0  0  0  0  0  0  0
   -2.0731   -0.2901    1.4528 H   0  0  0  1  0  0  0  0  0  0  0  0
    0.5362   -1.5172    1.1292 H   0  0  0  1  0  0  0  0  0  0  0  0
   -0.9965   -2.1485    0.5771 H   0  0  0  1  0  0  0  0  0  0  0  0
   -0.5545   -2.2772    2.2630 H   0  0  0  1  0  0  0  0  0  0  0  0
   -0.3313    3.5784    6.4040 H   0  0  0  1  0  0  0  0  0  0  0  0
   -0.2032    4.6338    5.0175 H   0  0  0  1  0  0  0  0  0  0  0  0
    1.0995    3.5342    5.4023 H   0  0  0  1  0  0  0  0  0  0  0  0
   -0.3653    7.6968    0.6810 F   0  0  0  1  0  0  0  0  0  0  0  0
   -1.6044    7.7202    1.1282 C   0  0  0  1  0  0  0  0  0  0  0  0
   -1.5897    8.2206    2.3360 F   0  0  0  1  0  0  0  0  0  0  0  0
   -2.1977    8.6456    0.3730 F   0  0  0  1  0  0  0  0  0  0  0  0
   -2.2919    6.3739    1.0353 C   0  0  0  1  0  0  0  0  0  0  0  0
   -1.5573    5.1904    1.0283 C   0  0  0  1  0  0  0  0  0  0  0  0
   -2.1827    3.9575    0.9379 C   0  0  0  1  0  0  0  0  0  0  0  0
   -3.5662    3.8895    0.8679 C   0  0  0  1  0  0  0  0  0  0  0  0
   -4.3095    5.0474    0.8732 C   0  0  0  1  0  0  0  0  0  0  0  0
   -3.6771    6.2792    0.9540 C   0  0  0  1  0  0  0  0  0  0  0  0
   -1.3601    2.6909    0.9155 C   0  0  0  1  0  0  0  0  0  0  0  0
   -0.5202    5.2331    1.0923 H   0  0  0  1  0  0  0  0  0  0  0  0
   -4.0406    2.9658    0.8116 H   0  0  0  1  0  0  0  0  0  0  0  0
   -5.3469    4.9990    0.8166 H   0  0  0  1  0  0  0  0  0  0  0  0
   -4.2490    7.1478    0.9539 H   0  0  0  1  0  0  0  0  0  0  0  0
   -1.7872    2.0201    0.1996 H   0  0  0  1  0  0  0  0  0  0  0  0
   -0.3615    2.9385    0.6216 H   0  0  0  1  0  0  0  0  0  0  0  0
  1  4  1  0  0  0  0
  2  4  1  0  0  0  0
  2  5  2  0  0  0  0
  2  6  1  0  0  0  0
  3  4  1  0  0  0  0
  3  7  1  0  0  0  0
  3  8  1  0  0  0  0
  4 29  1  0  0  0  0
  6  9  1  0  0  0  0
  6 12  1  0  0  0  0
  8 10  1  0  0  0  0
  8 11  2  0  0  0  0
  9 13  1  0  0  0  0
  9 14  1  0  0  0  0
  9 15  1  0  0  0  0
 10 16  1  0  0  0  0
 10 17  1  0  0  0  0
 10 18  1  0  0  0  0
 19 20  1  0  0  0  0
 20 21  1  0  0  0  0
 20 22  1  0  0  0  0
 20 23  1  0  0  0  0
 23 24  4  0  0  0  0
 23 28  4  0  0  0  0
 24 25  4  0  0  0  0
 24 30  1  0  0  0  0
 25 26  4  0  0  0  0
 25 29  1  0  0  0  0
 26 27  4  0  0  0  0
 26 31  1  0  0  0  0
 27 28  4  0  0  0  0
 27 32  1  0  0  0  0
 28 33  1  0  0  0  0
 29 34  1  0  0  0  0
 29 35  1  0  0  0  0
M  END
> <BCLConfClusterSize>
1

> <ConfClashScore>
0 

> <ConfOneFourInteractionScore>
-0.985807 

> <ConfScore>
-0.050446 

> <ConfScorePBest>
0.00592562 

> <ConfTolerance>
0.414403 

> <RosettaParamsInstructions>
M  ROOT 3
M  POLY_N_BB 3
M  POLY_CA_BB 4
M  POLY_C_BB 2
M  POLY_O_BB 5
M  POLY_IGNORE 9 10 11 12 13 14 15 16 17 18 
M  POLY_UPPER 6
M  POLY_LOWER 8
M  POLY_CHG 0
M  POLY_PROPERTIES ALPHA_AA L_AA PROTEIN AROMATIC POLYMER 
M  END

$$$$



 35 35  0  0  0  0  0  0  0  0999 V2000
   -3.1090    1.7038    2.0946 H   0  0  0  1  0  0  0  0  0  0  0  0
   -1.5308    0.3669    2.4591 C   0  0  0  1  0  0  0  0  0  0  0  0
   -2.0379    2.4173    3.7148 N   0  0  0  1  0  0  0  0  0  0  0  0
   -2.0815    1.7811    2.3833 C   0  0  0  1  0  0  0  0  0  0  0  0
   -1.7575   -0.4473    1.5651 O   0  0  0  1  0  0  0  0  0  0  0  0
   -0.7948    0.0357    3.5238 N   0  0  0  1  0  0  0  0  0  0  0  0
   -1.4701    3.2055    3.8440 H   0  0  0  1  0  0  0  0  0  0  0  0
   -2.7457    1.9559    4.7498 C   0  0  0  1  0  0  0  0  0  0  0  0
   -0.2319   -1.2952    3.6962 C   0  0  0  1  0  0  0  0  0  0  0  0
   -2.5440    2.6506    6.0968 C   0  0  0  1  0  0  0  0  0  0  0  0
   -3.4692    0.9644    4.6645 O   0  0  0  1  0  0  0  0  0  0  0  0
   -0.6281    0.7126    4.2127 H   0  0  0  1  0  0  0  0  0  0  0  0
    0.0280   -1.4428    4.7236 H   0  0  0  1  0  0  0  0  0  0  0  0
    0.6440   -1.3931    3.0895 H   0  0  0  1  0  0  0  0  0  0  0  0
   -0.9537   -2.0283    3.4023 H   0  0  0  1  0  0  0  0  0  0  0  0
   -3.2791    3.4189    6.2160 H   0  0  0  1  0  0  0  0  0  0  0  0
   -1.5664    3.0841    6.1314 H   0  0  0  1  0  0  0  0  0  0  0  0
   -2.6455    1.9348    6.8856 H   0  0  0  1  0  0  0  0  0  0  0  0
   -2.2431    8.6300    0.3844 F   0  0  0  1  0  0  0  0  0  0  0  0
   -1.6214    7.7111    1.1253 C   0  0  0  1  0  0  0  0  0  0  0  0
   -0.3666    7.6498    0.6769 F   0  0  0  1  0  0  0  0  0  0  0  0
   -1.5731    8.1786    2.3735 F   0  0  0  1  0  0  0  0  0  0  0  0
   -2.3097    6.3639    1.0267 C   0  0  0  1  0  0  0  0  0  0  0  0
   -1.5826    5.1987    1.2202 C   0  0  0  1  0  0  0  0  0  0  0  0
   -2.1886    3.9495    1.1400 C   0  0  0  1  0  0  0  0  0  0  0  0
   -3.5512    3.9046    0.8541 C   0  0  0  1  0  0  0  0  0  0  0  0
   -4.2808    5.0644    0.6501 C   0  0  0  1  0  0  0  0  0  0  0  0
   -3.6550    6.2985    0.7453 C   0  0  0  1  0  0  0  0  0  0  0  0
   -1.3951    2.6826    1.3559 C   0  0  0  1  0  0  0  0  0  0  0  0
   -0.5656    5.2603    1.4290 H   0  0  0  1  0  0  0  0  0  0  0  0
   -4.0297    2.9832    0.7927 H   0  0  0  1  0  0  0  0  0  0  0  0
   -5.2950    5.0099    0.4262 H   0  0  0  1  0  0  0  0  0  0  0  0
   -4.2012    7.1723    0.6044 H   0  0  0  1  0  0  0  0  0  0  0  0
   -1.3134    2.1573    0.4273 H   0  0  0  1  0  0  0  0  0  0  0  0
   -0.4178    2.9368    1.7096 H   0  0  0  1  0  0  0  0  0  0  0  0
  1  4  1  0  0  0  0
  2  4  1  0  0  0  0
  2  5  2  0  0  0  0
  2  6  1  0  0  0  0
  3  4  1  0  0  0  0
  3  7  1  0  0  0  0
  3  8  1  0  0  0  0
  4 29  1  0  0  0  0
  6  9  1  0  0  0  0
  6 12  1  0  0  0  0
  8 10  1  0  0  0  0
  8 11  2  0  0  0  0
  9 13  1  0  0  0  0
  9 14  1  0  0  0  0
  9 15  1  0  0  0  0
 10 16  1  0  0  0  0
 10 17  1  0  0  0  0
 10 18  1  0  0  0  0
 19 20  1  0  0  0  0
 20 21  1  0  0  0  0
 20 22  1  0  0  0  0
 20 23  1  0  0  0  0
 23 24  4  0  0  0  0
 23 28  4  0  0  0  0
 24 25  4  0  0  0  0
 24 30  1  0  0  0  0
 25 26  4  0  0  0  0
 25 29  1  0  0  0  0
 26 27  4  0  0  0  0
 26 31  1  0  0  0  0
 27 28  4  0  0  0  0
 27 32  1  0  0  0  0
 28 33  1  0  0  0  0
 29 34  1  0  0  0  0
 29 35  1  0  0  0  0
M  END
> <BCLConfClusterSize>
1

> <ConfClashScore>
0 

> <ConfOneFourInteractionScore>
-0.960318 

> <ConfScore>
-0.0384648 

> <ConfScorePBest>
0.00589714 

> <ConfTolerance>
0.452559 

> <RosettaParamsInstructions>
M  ROOT 3
M  POLY_N_BB 3
M  POLY_CA_BB 4
M  POLY_C_BB 2
M  POLY_O_BB 5
M  POLY_IGNORE 9 10 11 12 13 14 15 16 17 18 
M  POLY_UPPER 6
M  POLY_LOWER 8
M  POLY_CHG 0
M  POLY_PROPERTIES ALPHA_AA L_AA PROTEIN AROMATIC POLYMER 
M  END

$$$$



 35 35  0  0  0  0  0  0  0  0999 V2000
   -0.5852    3.0501   -0.7396 H   0  0  0  1  0  0  0  0  0  0  0  0
    0.2356    1.2353   -0.0709 C   0  0  0  1  0  0  0  0  0  0  0  0
   -2.0590    1.6242   -0.9069 N   0  0  0  1  0  0  0  0  0  0  0  0
   -0.9294    2.1984   -0.1910 C   0  0  0  1  0  0  0  0  0  0  0  0
    1.1911    1.4838    0.6457 O   0  0  0  1  0  0  0  0  0  0  0  0
    0.1397    0.1106   -0.7975 N   0  0  0  1  0  0  0  0  0  0  0  0
   -2.7292    1.1165   -0.4035 H   0  0  0  1  0  0  0  0  0  0  0  0
   -2.2139    1.7652   -2.2264 C   0  0  0  1  0  0  0  0  0  0  0  0
    1.2929   -0.7649   -0.9444 C   0  0  0  1  0  0  0  0  0  0  0  0
   -3.5186    1.2431   -2.7959 C   0  0  0  1  0  0  0  0  0  0  0  0
   -1.3707    2.2785   -2.9432 O   0  0  0  1  0  0  0  0  0  0  0  0
   -0.7086   -0.1214   -1.2299 H   0  0  0  1  0  0  0  0  0  0  0  0
    1.8893   -0.4347   -1.7691 H   0  0  0  1  0  0  0  0  0  0  0  0
    0.9599   -1.7659   -1.1237 H   0  0  0  1  0  0  0  0  0  0  0  0
    1.8773   -0.7380   -0.0485 H   0  0  0  1  0  0  0  0  0  0  0  0
   -3.9944    2.0148   -3.3643 H   0  0  0  1  0  0  0  0  0  0  0  0
   -4.1617    0.9419   -1.9955 H   0  0  0  1  0  0  0  0  0  0  0  0
   -3.3205    0.4042   -3.4298 H   0  0  0  1  0  0  0  0  0  0  0  0
   -0.3950    7.6208    1.6390 F   0  0  0  1  0  0  0  0  0  0  0  0
   -1.6193    7.7046    1.1154 C   0  0  0  1  0  0  0  0  0  0  0  0
   -2.2920    8.5687    1.8771 F   0  0  0  1  0  0  0  0  0  0  0  0
   -1.4770    8.2882   -0.0753 F   0  0  0  1  0  0  0  0  0  0  0  0
   -2.3025    6.3607    1.0232 C   0  0  0  1  0  0  0  0  0  0  0  0
   -1.5613    5.1996    1.1358 C   0  0  0  1  0  0  0  0  0  0  0  0
   -2.1891    3.9663    1.0565 C   0  0  0  1  0  0  0  0  0  0  0  0
   -3.5554    3.8976    0.8596 C   0  0  0  1  0  0  0  0  0  0  0  0
   -4.2986    5.0622    0.7467 C   0  0  0  1  0  0  0  0  0  0  0  0
   -3.6728    6.2920    0.8257 C   0  0  0  1  0  0  0  0  0  0  0  0
   -1.3800    2.6973    1.1854 C   0  0  0  1  0  0  0  0  0  0  0  0
   -0.5326    5.2511    1.2800 H   0  0  0  1  0  0  0  0  0  0  0  0
   -4.0258    2.9722    0.7961 H   0  0  0  1  0  0  0  0  0  0  0  0
   -5.3273    5.0105    0.6025 H   0  0  0  1  0  0  0  0  0  0  0  0
   -4.2299    7.1657    0.7370 H   0  0  0  1  0  0  0  0  0  0  0  0
   -0.5173    2.8910    1.7880 H   0  0  0  1  0  0  0  0  0  0  0  0
   -1.9802    1.9445    1.6523 H   0  0  0  1  0  0  0  0  0  0  0  0
  1  4  1  0  0  0  0
  2  4  1  0  0  0  0
  2  5  2  0  0  0  0
  2  6  1  0  0  0  0
  3  4  1  0  0  0  0
  3  7  1  0  0  0  0
  3  8  1  0  0  0  0
  4 29  1  0  0  0  0
  6  9  1  0  0  0  0
  6 12  1  0  0  0  0
  8 10  1  0  0  0  0
  8 11  2  0  0  0  0
  9 13  1  0  0  0  0
  9 14  1  0  0  0  0
  9 15  1  0  0  0  0
 10 16  1  0  0  0  0
 10 17  1  0  0  0  0
 10 18  1  0  0  0  0
 19 20  1  0  0  0  0
 20 21  1  0  0  0  0
 20 22  1  0  0  0  0
 20 23  1  0  0  0  0
 23 24  4  0  0  0  0
 23 28  4  0  0  0  0
 24 25  4  0  0  0  0
 24 30  1  0  0  0  0
 25 26  4  0  0  0  0
 25 29  1  0  0  0  0
 26 27  4  0  0  0  0
 26 31  1  0  0  0  0
 27 28  4  0  0  0  0
 27 32  1  0  0  0  0
 28 33  1  0  0  0  0
 29 34  1  0  0  0  0
 29 35  1  0  0  0  0
M  END
> <BCLConfClusterSize>
1

> <ConfClashScore>
0 

> <ConfOneFourInteractionScore>
-0.956443 

> <ConfScore>
-0.0323238 

> <ConfScorePBest>
0.00586866 

> <ConfTolerance>
0.450015 

> <RosettaParamsInstructions>
M  ROOT 3
M  POLY_N_BB 3
M  POLY_CA_BB 4
M  POLY_C_BB 2
M  POLY_O_BB 5
M  POLY_IGNORE 9 10 11 12 13 14 15 16 17 18 
M  POLY_UPPER 6
M  POLY_LOWER 8
M  POLY_CHG 0
M  POLY_PROPERTIES ALPHA_AA L_AA PROTEIN AROMATIC POLYMER 
M  END

$$$$



 35 35  0  0  0  0  0  0  0  0999 V2000
   -2.5979    1.6143   -0.2127 H   0  0  0  1  0  0  0  0  0  0  0  0
   -1.1948    2.6191   -1.4126 C   0  0  0  1  0  0  0  0  0  0  0  0
   -0.8304    0.5838   -0.0766 N   0  0  0  1  0  0  0  0  0  0  0  0
   -1.5549    1.8440   -0.1473 C   0  0  0  1  0  0  0  0  0  0  0  0
   -2.0294    3.3141   -1.9888 O   0  0  0  1  0  0  0  0  0  0  0  0
    0.0468    2.4142   -1.8695 N   0  0  0  1  0  0  0  0  0  0  0  0
   -0.3057    0.3844    0.7268 H   0  0  0  1  0  0  0  0  0  0  0  0
   -0.8566   -0.3444   -1.1063 C   0  0  0  1  0  0  0  0  0  0  0  0
    0.5475    3.0573   -3.0752 C   0  0  0  1  0  0  0  0  0  0  0  0
   -0.0505   -1.6059   -0.9731 C   0  0  0  1  0  0  0  0  0  0  0  0
   -1.5350   -0.1053   -2.0886 O   0  0  0  1  0  0  0  0  0  0  0  0
    0.6391    1.8102   -1.3749 H   0  0  0  1  0  0  0  0  0  0  0  0
    0.2943    4.0967   -3.0571 H   0  0  0  1  0  0  0  0  0  0  0  0
    0.1052    2.5976   -3.9343 H   0  0  0  1  0  0  0  0  0  0  0  0
    1.6112    2.9503   -3.1208 H   0  0  0  1  0  0  0  0  0  0  0  0
    0.9188   -1.4573   -1.4013 H   0  0  0  1  0  0  0  0  0  0  0  0
   -0.5481   -2.4026   -1.4855 H   0  0  0  1  0  0  0  0  0  0  0  0
    0.0517   -1.8559    0.0622 H   0  0  0  1  0  0  0  0  0  0  0  0
   -0.3241    7.6000    1.4173 F   0  0  0  1  0  0  0  0  0  0  0  0
   -1.6192    7.7047    1.1145 C   0  0  0  1  0  0  0  0  0  0  0  0
   -2.1581    8.4898    2.0486 F   0  0  0  1  0  0  0  0  0  0  0  0
   -1.6813    8.3879   -0.0292 F   0  0  0  1  0  0  0  0  0  0  0  0
   -2.3026    6.3607    1.0235 C   0  0  0  1  0  0  0  0  0  0  0  0
   -1.5566    5.1997    1.0998 C   0  0  0  1  0  0  0  0  0  0  0  0
   -2.1845    3.9663    1.0216 C   0  0  0  1  0  0  0  0  0  0  0  0
   -3.5557    3.8975    0.8621 C   0  0  0  1  0  0  0  0  0  0  0  0
   -4.3036    5.0621    0.7856 C   0  0  0  1  0  0  0  0  0  0  0  0
   -3.6778    6.2919    0.8635 C   0  0  0  1  0  0  0  0  0  0  0  0
   -1.3701    2.6973    1.1108 C   0  0  0  1  0  0  0  0  0  0  0  0
   -0.5244    5.2514    1.2158 H   0  0  0  1  0  0  0  0  0  0  0  0
   -4.0262    2.9722    0.7994 H   0  0  0  1  0  0  0  0  0  0  0  0
   -5.3358    5.0105    0.6696 H   0  0  0  1  0  0  0  0  0  0  0  0
   -4.2385    7.1657    0.8021 H   0  0  0  1  0  0  0  0  0  0  0  0
   -0.3357    2.9508    1.2139 H   0  0  0  1  0  0  0  0  0  0  0  0
   -1.6872    2.1362    1.9649 H   0  0  0  1  0  0  0  0  0  0  0  0
  1  4  1  0  0  0  0
  2  4  1  0  0  0  0
  2  5  2  0  0  0  0
  2  6  1  0  0  0  0
  3  4  1  0  0  0  0
  3  7  1  0  0  0  0
  3  8  1  0  0  0  0
  4 29  1  0  0  0  0
  6  9  1  0  0  0  0
  6 12  1  0  0  0  0
  8 10  1  0  0  0  0
  8 11  2  0  0  0  0
  9 13  1  0  0  0  0
  9 14  1  0  0  0  0
  9 15  1  0  0  0  0
 10 16  1  0  0  0  0
 10 17  1  0  0  0  0
 10 18  1  0  0  0  0
 19 20  1  0  0  0  0
 20 21  1  0  0  0  0
 20 22  1  0  0  0  0
 20 23  1  0  0  0  0
 23 24  4  0  0  0  0
 23 28  4  0  0  0  0
 24 25  4  0  0  0  0
 24 30  1  0  0  0  0
 25 26  4  0  0  0  0
 25 29  1  0  0  0  0
 26 27  4  0  0  0  0
 26 31  1  0  0  0  0
 27 28  4  0  0  0  0
 27 32  1  0  0  0  0
 28 33  1  0  0  0  0
 29 34  1  0  0  0  0
 29 35  1  0  0  0  0
M  END
> <BCLConfClusterSize>
1

> <ConfClashScore>
0 

> <ConfOneFourInteractionScore>
-0.960318 

> <ConfScore>
-0.031539 

> <ConfScorePBest>
0.00584018 

> <ConfTolerance>
0.454566 

> <RosettaParamsInstructions>
M  ROOT 3
M  POLY_N_BB 3
M  POLY_CA_BB 4
M  POLY_C_BB 2
M  POLY_O_BB 5
M  POLY_IGNORE 9 10 11 12 13 14 15 16 17 18 
M  POLY_UPPER 6
M  POLY_LOWER 8
M  POLY_CHG 0
M  POLY_PROPERTIES ALPHA_AA L_AA PROTEIN AROMATIC POLYMER 
M  END

$$$$



 35 35  0  0  0  0  0  0  0  0999 V2000
    0.0907    3.2534    2.3837 H   0  0  0  1  0  0  0  0  0  0  0  0
   -1.5910    2.4909    3.4267 C   0  0  0  1  0  0  0  0  0  0  0  0
    0.0971    1.1910    2.2218 N   0  0  0  1  0  0  0  0  0  0  0  0
   -0.6152    2.4605    2.2500 C   0  0  0  1  0  0  0  0  0  0  0  0
   -1.9299    3.5635    3.9249 O   0  0  0  1  0  0  0  0  0  0  0  0
   -1.9752    1.3086    3.9334 N   0  0  0  1  0  0  0  0  0  0  0  0
    0.1015    0.6859    1.3820 H   0  0  0  1  0  0  0  0  0  0  0  0
    0.7517    0.6657    3.2782 C   0  0  0  1  0  0  0  0  0  0  0  0
   -2.8925    1.1394    5.0504 C   0  0  0  1  0  0  0  0  0  0  0  0
    1.5012   -0.6368    3.0766 C   0  0  0  1  0  0  0  0  0  0  0  0
    0.7422    1.2252    4.3739 O   0  0  0  1  0  0  0  0  0  0  0  0
   -1.6105    0.4984    3.5199 H   0  0  0  1  0  0  0  0  0  0  0  0
   -2.9710    2.0597    5.5907 H   0  0  0  1  0  0  0  0  0  0  0  0
   -2.5242    0.3743    5.7014 H   0  0  0  1  0  0  0  0  0  0  0  0
   -3.8569    0.8600    4.6805 H   0  0  0  1  0  0  0  0  0  0  0  0
    1.0511   -1.4037    3.6717 H   0  0  0  1  0  0  0  0  0  0  0  0
    2.5220   -0.5100    3.3712 H   0  0  0  1  0  0  0  0  0  0  0  0
    1.4594   -0.9160    2.0445 H   0  0  0  1  0  0  0  0  0  0  0  0
   -0.3582    7.6662    0.6783 F   0  0  0  1  0  0  0  0  0  0  0  0
   -1.6191    7.7048    1.1125 C   0  0  0  1  0  0  0  0  0  0  0  0
   -1.5693    8.1717    2.3610 F   0  0  0  1  0  0  0  0  0  0  0  0
   -2.2351    8.6399    0.3881 F   0  0  0  1  0  0  0  0  0  0  0  0
   -2.3028    6.3608    1.0242 C   0  0  0  1  0  0  0  0  0  0  0  0
   -1.5497    5.2018    1.0133 C   0  0  0  1  0  0  0  0  0  0  0  0
   -2.1775    3.9683    0.9377 C   0  0  0  1  0  0  0  0  0  0  0  0
   -3.5560    3.8973    0.8678 C   0  0  0  1  0  0  0  0  0  0  0  0
   -4.3111    5.0597    0.8787 C   0  0  0  1  0  0  0  0  0  0  0  0
   -3.6854    6.2898    0.9541 C   0  0  0  1  0  0  0  0  0  0  0  0
   -1.3550    2.7015    0.9316 C   0  0  0  1  0  0  0  0  0  0  0  0
   -0.5123    5.2553    1.0618 H   0  0  0  1  0  0  0  0  0  0  0  0
   -4.0267    2.9720    0.8070 H   0  0  0  1  0  0  0  0  0  0  0  0
   -5.3486    5.0063    0.8302 H   0  0  0  1  0  0  0  0  0  0  0  0
   -4.2518    7.1620    0.9583 H   0  0  0  1  0  0  0  0  0  0  0  0
   -2.0072    1.8728    0.7506 H   0  0  0  1  0  0  0  0  0  0  0  0
   -0.6340    2.7673    0.1437 H   0  0  0  1  0  0  0  0  0  0  0  0
  1  4  1  0  0  0  0
  2  4  1  0  0  0  0
  2  5  2  0  0  0  0
  2  6  1  0  0  0  0
  3  4  1  0  0  0  0
  3  7  1  0  0  0  0
  3  8  1  0  0  0  0
  4 29  1  0  0  0  0
  6  9  1  0  0  0  0
  6 12  1  0  0  0  0
  8 10  1  0  0  0  0
  8 11  2  0  0  0  0
  9 13  1  0  0  0  0
  9 14  1  0  0  0  0
  9 15  1  0  0  0  0
 10 16  1  0  0  0  0
 10 17  1  0  0  0  0
 10 18  1  0  0  0  0
 19 20  1  0  0  0  0
 20 21  1  0  0  0  0
 20 22  1  0  0  0  0
 20 23  1  0  0  0  0
 23 24  4  0  0  0  0
 23 28  4  0  0  0  0
 24 25  4  0  0  0  0
 24 30  1  0  0  0  0
 25 26  4  0  0  0  0
 25 29  1  0  0  0  0
 26 27  4  0  0  0  0
 26 31  1  0  0  0  0
 27 28  4  0  0  0  0
 27 32  1  0  0  0  0
 28 33  1  0  0  0  0
 29 34  1  0  0  0  0
 29 35  1  0  0  0  0
M  END
> <BCLConfClusterSize>
1

> <ConfClashScore>
0 

> <ConfOneFourInteractionScore>
-0.960318 

> <ConfScore>
-0.0310409 

> <ConfScorePBest>
0.0058117 

> <ConfTolerance>
0.600453 

> <RosettaParamsInstructions>
M  ROOT 3
M  POLY_N_BB 3
M  POLY_CA_BB 4
M  POLY_C_BB 2
M  POLY_O_BB 5
M  POLY_IGNORE 9 10 11 12 13 14 15 16 17 18 
M  POLY_UPPER 6
M  POLY_LOWER 8
M  POLY_CHG 0
M  POLY_PROPERTIES ALPHA_AA L_AA PROTEIN AROMATIC POLYMER 
M  END

$$$$



 35 35  0  0  0  0  0  0  0  0999 V2000
    0.3815    3.1055    0.3846 H   0  0  0  1  0  0  0  0  0  0  0  0
    0.2009    0.9954    0.5962 C   0  0  0  1  0  0  0  0  0  0  0  0
   -1.0445    2.4259   -0.9621 N   0  0  0  1  0  0  0  0  0  0  0  0
   -0.4008    2.3768    0.3408 C   0  0  0  1  0  0  0  0  0  0  0  0
   -0.3320   -0.0287    0.1711 O   0  0  0  1  0  0  0  0  0  0  0  0
    1.3364    1.0254    1.3116 N   0  0  0  1  0  0  0  0  0  0  0  0
   -1.9987    2.6393   -1.0283 H   0  0  0  1  0  0  0  0  0  0  0  0
   -0.3345    2.1797   -2.0744 C   0  0  0  1  0  0  0  0  0  0  0  0
    2.0814   -0.1813    1.6386 C   0  0  0  1  0  0  0  0  0  0  0  0
   -1.0815    2.3470   -3.3833 C   0  0  0  1  0  0  0  0  0  0  0  0
    0.8455    1.8397   -2.0530 O   0  0  0  1  0  0  0  0  0  0  0  0
    1.6756    1.8900    1.6246 H   0  0  0  1  0  0  0  0  0  0  0  0
    2.3185   -0.7094    0.7387 H   0  0  0  1  0  0  0  0  0  0  0  0
    1.4874   -0.8060    2.2725 H   0  0  0  1  0  0  0  0  0  0  0  0
    2.9858    0.0844    2.1448 H   0  0  0  1  0  0  0  0  0  0  0  0
   -1.9439    2.9606   -3.2264 H   0  0  0  1  0  0  0  0  0  0  0  0
   -1.3877    1.3873   -3.7441 H   0  0  0  1  0  0  0  0  0  0  0  0
   -0.4400    2.8111   -4.1030 H   0  0  0  1  0  0  0  0  0  0  0  0
   -0.8274    7.8003    2.1850 F   0  0  0  1  0  0  0  0  0  0  0  0
   -1.6218    7.7073    1.1172 C   0  0  0  1  0  0  0  0  0  0  0  0
   -2.4871    8.7185    1.2072 F   0  0  0  1  0  0  0  0  0  0  0  0
   -0.8545    7.9653    0.0574 F   0  0  0  1  0  0  0  0  0  0  0  0
   -2.3099    6.3617    1.0215 C   0  0  0  1  0  0  0  0  0  0  0  0
   -1.5915    5.1983    1.2538 C   0  0  0  1  0  0  0  0  0  0  0  0
   -2.1984    3.9493    1.1771 C   0  0  0  1  0  0  0  0  0  0  0  0
   -3.5527    3.9027    0.8545 C   0  0  0  1  0  0  0  0  0  0  0  0
   -4.2734    5.0606    0.6118 C   0  0  0  1  0  0  0  0  0  0  0  0
   -3.6472    6.2948    0.7043 C   0  0  0  1  0  0  0  0  0  0  0  0
   -1.4144    2.6843    1.4352 C   0  0  0  1  0  0  0  0  0  0  0  0
   -0.5805    5.2610    1.4896 H   0  0  0  1  0  0  0  0  0  0  0  0
   -4.0317    2.9815    0.7949 H   0  0  0  1  0  0  0  0  0  0  0  0
   -5.2811    5.0047    0.3609 H   0  0  0  1  0  0  0  0  0  0  0  0
   -4.1869    7.1673    0.5343 H   0  0  0  1  0  0  0  0  0  0  0  0
   -0.8922    2.7906    2.3630 H   0  0  0  1  0  0  0  0  0  0  0  0
   -2.1007    1.8662    1.5034 H   0  0  0  1  0  0  0  0  0  0  0  0
  1  4  1  0  0  0  0
  2  4  1  0  0  0  0
  2  5  2  0  0  0  0
  2  6  1  0  0  0  0
  3  4  1  0  0  0  0
  3  7  1  0  0  0  0
  3  8  1  0  0  0  0
  4 29  1  0  0  0  0
  6  9  1  0  0  0  0
  6 12  1  0  0  0  0
  8 10  1  0  0  0  0
  8 11  2  0  0  0  0
  9 13  1  0  0  0  0
  9 14  1  0  0  0  0
  9 15  1  0  0  0  0
 10 16  1  0  0  0  0
 10 17  1  0  0  0  0
 10 18  1  0  0  0  0
 19 20  1  0  0  0  0
 20 21  1  0  0  0  0
 20 22  1  0  0  0  0
 20 23  1  0  0  0  0
 23 24  4  0  0  0  0
 23 28  4  0  0  0  0
 24 25  4  0  0  0  0
 24 30  1  0  0  0  0
 25 26  4  0  0  0  0
 25 29  1  0  0  0  0
 26 27  4  0  0  0  0
 26 31  1  0  0  0  0
 27 28  4  0  0  0  0
 27 32  1  0  0  0  0
 28 33  1  0  0  0  0
 29 34  1  0  0  0  0
 29 35  1  0  0  0  0
M  END
> <BCLConfClusterSize>
1

> <ConfClashScore>
0 

> <ConfOneFourInteractionScore>
-0.985807 

> <ConfScore>
-0.0306627 

> <ConfScorePBest>
0.00578322 

> <ConfTolerance>
0.426168 

> <RosettaParamsInstructions>
M  ROOT 3
M  POLY_N_BB 3
M  POLY_CA_BB 4
M  POLY_C_BB 2
M  POLY_O_BB 5
M  POLY_IGNORE 9 10 11 12 13 14 15 16 17 18 
M  POLY_UPPER 6
M  POLY_LOWER 8
M  POLY_CHG 0
M  POLY_PROPERTIES ALPHA_AA L_AA PROTEIN AROMATIC POLYMER 
M  END

$$$$



 35 35  0  0  0  0  0  0  0  0999 V2000
   -2.9067    1.7130    2.4294 H   0  0  0  1  0  0  0  0  0  0  0  0
   -1.2145    0.5049    2.6873 C   0  0  0  1  0  0  0  0  0  0  0  0
   -1.6928    2.6099    3.8203 N   0  0  0  1  0  0  0  0  0  0  0  0
   -1.8581    1.8811    2.5597 C   0  0  0  1  0  0  0  0  0  0  0  0
   -0.1701    0.3444    3.3174 O   0  0  0  1  0  0  0  0  0  0  0  0
   -1.8593   -0.4996    2.0730 N   0  0  0  1  0  0  0  0  0  0  0  0
   -1.3904    3.5407    3.7693 H   0  0  0  1  0  0  0  0  0  0  0  0
   -1.9246    2.0986    5.0397 C   0  0  0  1  0  0  0  0  0  0  0  0
   -1.2634   -1.8262    2.0200 C   0  0  0  1  0  0  0  0  0  0  0  0
   -1.5924    3.0058    6.2084 C   0  0  0  1  0  0  0  0  0  0  0  0
   -2.3763    0.9703    5.2170 O   0  0  0  1  0  0  0  0  0  0  0  0
   -2.7331   -0.3392    1.6594 H   0  0  0  1  0  0  0  0  0  0  0  0
   -2.0255   -2.5657    2.1517 H   0  0  0  1  0  0  0  0  0  0  0  0
   -0.5359   -1.9216    2.7989 H   0  0  0  1  0  0  0  0  0  0  0  0
   -0.7905   -1.9669    1.0705 H   0  0  0  1  0  0  0  0  0  0  0  0
   -0.5501    3.2469    6.1884 H   0  0  0  1  0  0  0  0  0  0  0  0
   -1.8250    2.5055    7.1253 H   0  0  0  1  0  0  0  0  0  0  0  0
   -2.1678    3.9050    6.1364 H   0  0  0  1  0  0  0  0  0  0  0  0
   -0.6404    7.7292    2.0286 F   0  0  0  1  0  0  0  0  0  0  0  0
   -1.6252    7.7051    1.1289 C   0  0  0  1  0  0  0  0  0  0  0  0
   -2.4528    8.6906    1.4437 F   0  0  0  1  0  0  0  0  0  0  0  0
   -1.0598    8.0788   -0.0226 F   0  0  0  1  0  0  0  0  0  0  0  0
   -2.3078    6.3618    1.0239 C   0  0  0  1  0  0  0  0  0  0  0  0
   -1.5816    5.1971    1.2118 C   0  0  0  1  0  0  0  0  0  0  0  0
   -2.1902    3.9465    1.1358 C   0  0  0  1  0  0  0  0  0  0  0  0
   -3.5524    3.9027    0.8588 C   0  0  0  1  0  0  0  0  0  0  0  0
   -4.2829    5.0648    0.6599 C   0  0  0  1  0  0  0  0  0  0  0  0
   -3.6634    6.2909    0.7391 C   0  0  0  1  0  0  0  0  0  0  0  0
   -1.3964    2.6789    1.3472 C   0  0  0  1  0  0  0  0  0  0  0  0
   -0.5631    5.2576    1.4135 H   0  0  0  1  0  0  0  0  0  0  0  0
   -4.0321    2.9818    0.7998 H   0  0  0  1  0  0  0  0  0  0  0  0
   -5.3001    5.0095    0.4506 H   0  0  0  1  0  0  0  0  0  0  0  0
   -4.2102    7.1621    0.5857 H   0  0  0  1  0  0  0  0  0  0  0  0
   -1.4974    2.0647    0.4769 H   0  0  0  1  0  0  0  0  0  0  0  0
   -0.3677    2.9400    1.4828 H   0  0  0  1  0  0  0  0  0  0  0  0
  1  4  1  0  0  0  0
  2  4  1  0  0  0  0
  2  5  2  0  0  0  0
  2  6  1  0  0  0  0
  3  4  1  0  0  0  0
  3  7  1  0  0  0  0
  3  8  1  0  0  0  0
  4 29  1  0  0  0  0
  6  9  1  0  0  0  0
  6 12  1  0  0  0  0
  8 10  1  0  0  0  0
  8 11  2  0  0  0  0
  9 13  1  0  0  0  0
  9 14  1  0  0  0  0
  9 15  1  0  0  0  0
 10 16  1  0  0  0  0
 10 17  1  0  0  0  0
 10 18  1  0  0  0  0
 19 20  1  0  0  0  0
 20 21  1  0  0  0  0
 20 22  1  0  0  0  0
 20 23  1  0  0  0  0
 23 24  4  0  0  0  0
 23 28  4  0  0  0  0
 24 25  4  0  0  0  0
 24 30  1  0  0  0  0
 25 26  4  0  0  0  0
 25 29  1  0  0  0  0
 26 27  4  0  0  0  0
 26 31  1  0  0  0  0
 27 28  4  0  0  0  0
 27 32  1  0  0  0  0
 28 33  1  0  0  0  0
 29 34  1  0  0  0  0
 29 35  1  0  0  0  0
M  END
> <BCLConfClusterSize>
1

> <ConfClashScore>
0 

> <ConfOneFourInteractionScore>
-0.985807 

> <ConfScore>
-0.0267621 

> <ConfScorePBest>
0.00575474 

> <ConfTolerance>
0.464193 

> <RosettaParamsInstructions>
M  ROOT 3
M  POLY_N_BB 3
M  POLY_CA_BB 4
M  POLY_C_BB 2
M  POLY_O_BB 5
M  POLY_IGNORE 9 10 11 12 13 14 15 16 17 18 
M  POLY_UPPER 6
M  POLY_LOWER 8
M  POLY_CHG 0
M  POLY_PROPERTIES ALPHA_AA L_AA PROTEIN AROMATIC POLYMER 
M  END

$$$$



 35 35  0  0  0  0  0  0  0  0999 V2000
    0.0893    3.0033   -0.0168 H   0  0  0  1  0  0  0  0  0  0  0  0
    0.1297    0.9663    0.5344 C   0  0  0  1  0  0  0  0  0  0  0  0
   -1.4950    2.0394   -0.9301 N   0  0  0  1  0  0  0  0  0  0  0  0
   -0.6255    2.2427    0.2187 C   0  0  0  1  0  0  0  0  0  0  0  0
    0.9052    0.9114    1.4880 O   0  0  0  1  0  0  0  0  0  0  0  0
   -0.0733   -0.0992   -0.2566 N   0  0  0  1  0  0  0  0  0  0  0  0
   -2.2724    1.4502   -0.8365 H   0  0  0  1  0  0  0  0  0  0  0  0
   -1.2692    2.6309   -2.1139 C   0  0  0  1  0  0  0  0  0  0  0  0
    0.7428   -1.3046   -0.1646 C   0  0  0  1  0  0  0  0  0  0  0  0
   -2.2836    2.4204   -3.2210 C   0  0  0  1  0  0  0  0  0  0  0  0
   -0.2711    3.3228   -2.2973 O   0  0  0  1  0  0  0  0  0  0  0  0
   -0.7949   -0.0660   -0.9188 H   0  0  0  1  0  0  0  0  0  0  0  0
    1.0112   -1.4772    0.8567 H   0  0  0  1  0  0  0  0  0  0  0  0
    1.6298   -1.1801   -0.7500 H   0  0  0  1  0  0  0  0  0  0  0  0
    0.1861   -2.1408   -0.5330 H   0  0  0  1  0  0  0  0  0  0  0  0
   -3.2516    2.7242   -2.8810 H   0  0  0  1  0  0  0  0  0  0  0  0
   -2.3088    1.3848   -3.4891 H   0  0  0  1  0  0  0  0  0  0  0  0
   -2.0063    3.0035   -4.0742 H   0  0  0  1  0  0  0  0  0  0  0  0
   -0.8441    7.8117    2.1949 F   0  0  0  1  0  0  0  0  0  0  0  0
   -1.6213    7.7060    1.1157 C   0  0  0  1  0  0  0  0  0  0  0  0
   -2.4830    8.7103    1.1802 F   0  0  0  1  0  0  0  0  0  0  0  0
   -0.8374    7.9531    0.0654 F   0  0  0  1  0  0  0  0  0  0  0  0
   -2.3047    6.3621    1.0242 C   0  0  0  1  0  0  0  0  0  0  0  0
   -1.5862    5.2013    1.2648 C   0  0  0  1  0  0  0  0  0  0  0  0
   -2.2101    3.9712    1.1758 C   0  0  0  1  0  0  0  0  0  0  0  0
   -3.5559    3.8987    0.8512 C   0  0  0  1  0  0  0  0  0  0  0  0
   -4.2724    5.0560    0.6113 C   0  0  0  1  0  0  0  0  0  0  0  0
   -3.6464    6.2896    0.7006 C   0  0  0  1  0  0  0  0  0  0  0  0
   -1.4258    2.7061    1.4323 C   0  0  0  1  0  0  0  0  0  0  0  0
   -0.5776    5.2560    1.5122 H   0  0  0  1  0  0  0  0  0  0  0  0
   -4.0264    2.9734    0.7882 H   0  0  0  1  0  0  0  0  0  0  0  0
   -5.2810    5.0014    0.3639 H   0  0  0  1  0  0  0  0  0  0  0  0
   -4.1864    7.1607    0.5240 H   0  0  0  1  0  0  0  0  0  0  0  0
   -0.7471    2.8841    2.2401 H   0  0  0  1  0  0  0  0  0  0  0  0
   -2.1104    1.9304    1.7053 H   0  0  0  1  0  0  0  0  0  0  0  0
  1  4  1  0  0  0  0
  2  4  1  0  0  0  0
  2  5  2  0  0  0  0
  2  6  1  0  0  0  0
  3  4  1  0  0  0  0
  3  7  1  0  0  0  0
  3  8  1  0  0  0  0
  4 29  1  0  0  0  0
  6  9  1  0  0  0  0
  6 12  1  0  0  0  0
  8 10  1  0  0  0  0
  8 11  2  0  0  0  0
  9 13  1  0  0  0  0
  9 14  1  0  0  0  0
  9 15  1  0  0  0  0
 10 16  1  0  0  0  0
 10 17  1  0  0  0  0
 10 18  1  0  0  0  0
 19 20  1  0  0  0  0
 20 21  1  0  0  0  0
 20 22  1  0  0  0  0
 20 23  1  0  0  0  0
 23 24  4  0  0  0  0
 23 28  4  0  0  0  0
 24 25  4  0  0  0  0
 24 30  1  0  0  0  0
 25 26  4  0  0  0  0
 25 29  1  0  0  0  0
 26 27  4  0  0  0  0
 26 31  1  0  0  0  0
 27 28  4  0  0  0  0
 27 32  1  0  0  0  0
 28 33  1  0  0  0  0
 29 34  1  0  0  0  0
 29 35  1  0  0  0  0
M  END
> <BCLConfClusterSize>
1

> <ConfClashScore>
0 

> <ConfOneFourInteractionScore>
-0.94165 

> <ConfScore>
-0.0127459 

> <ConfScorePBest>
0.00572626 

> <ConfTolerance>
0.438218 

> <RosettaParamsInstructions>
M  ROOT 3
M  POLY_N_BB 3
M  POLY_CA_BB 4
M  POLY_C_BB 2
M  POLY_O_BB 5
M  POLY_IGNORE 9 10 11 12 13 14 15 16 17 18 
M  POLY_UPPER 6
M  POLY_LOWER 8
M  POLY_CHG 0
M  POLY_PROPERTIES ALPHA_AA L_AA PROTEIN AROMATIC POLYMER 
M  END

$$$$



 35 35  0  0  0  0  0  0  0  0999 V2000
   -0.9099    1.1324    2.5033 H   0  0  0  1  0  0  0  0  0  0  0  0
   -1.0538    2.9481    3.5985 C   0  0  0  1  0  0  0  0  0  0  0  0
   -2.9168    1.6269    2.7065 N   0  0  0  1  0  0  0  0  0  0  0  0
   -1.5273    2.0063    2.4984 C   0  0  0  1  0  0  0  0  0  0  0  0
    0.1320    3.0220    3.9180 O   0  0  0  1  0  0  0  0  0  0  0  0
   -2.0359    3.6581    4.1559 N   0  0  0  1  0  0  0  0  0  0  0  0
   -3.5878    1.9111    2.0513 H   0  0  0  1  0  0  0  0  0  0  0  0
   -3.3133    0.8977    3.7701 C   0  0  0  1  0  0  0  0  0  0  0  0
   -1.8631    4.6068    5.2459 C   0  0  0  1  0  0  0  0  0  0  0  0
   -4.7373    0.3770    3.7866 C   0  0  0  1  0  0  0  0  0  0  0  0
   -2.5440    0.6606    4.7005 O   0  0  0  1  0  0  0  0  0  0  0  0
   -2.9421    3.5313    3.8050 H   0  0  0  1  0  0  0  0  0  0  0  0
   -1.0235    4.3165    5.8423 H   0  0  0  1  0  0  0  0  0  0  0  0
   -2.7445    4.6172    5.8525 H   0  0  0  1  0  0  0  0  0  0  0  0
   -1.6943    5.5841    4.8444 H   0  0  0  1  0  0  0  0  0  0  0  0
   -4.9063   -0.2283    2.9206 H   0  0  0  1  0  0  0  0  0  0  0  0
   -5.4185    1.2022    3.7831 H   0  0  0  1  0  0  0  0  0  0  0  0
   -4.8920   -0.2101    4.6676 H   0  0  0  1  0  0  0  0  0  0  0  0
   -0.3669    7.5918    1.5630 F   0  0  0  1  0  0  0  0  0  0  0  0
   -1.6171    7.7123    1.1129 C   0  0  0  1  0  0  0  0  0  0  0  0
   -2.2615    8.5484    1.9284 F   0  0  0  1  0  0  0  0  0  0  0  0
   -1.5526    8.2922   -0.0741 F   0  0  0  1  0  0  0  0  0  0  0  0
   -2.3031    6.3651    1.0259 C   0  0  0  1  0  0  0  0  0  0  0  0
   -1.5587    5.2003    1.1297 C   0  0  0  1  0  0  0  0  0  0  0  0
   -2.1843    3.9708    1.0450 C   0  0  0  1  0  0  0  0  0  0  0  0
   -3.5566    3.9023    0.8616 C   0  0  0  1  0  0  0  0  0  0  0  0
   -4.2986    5.0637    0.7581 C   0  0  0  1  0  0  0  0  0  0  0  0
   -3.6714    6.2970    0.8431 C   0  0  0  1  0  0  0  0  0  0  0  0
   -1.3725    2.7015    1.1522 C   0  0  0  1  0  0  0  0  0  0  0  0
   -0.5297    5.2516    1.2713 H   0  0  0  1  0  0  0  0  0  0  0  0
   -4.0277    2.9771    0.8018 H   0  0  0  1  0  0  0  0  0  0  0  0
   -5.3276    5.0124    0.6165 H   0  0  0  1  0  0  0  0  0  0  0  0
   -4.2304    7.1709    0.7692 H   0  0  0  1  0  0  0  0  0  0  0  0
   -1.6893    2.0286    0.3829 H   0  0  0  1  0  0  0  0  0  0  0  0
   -0.3401    2.9446    1.0111 H   0  0  0  1  0  0  0  0  0  0  0  0
  1  4  1  0  0  0  0
  2  4  1  0  0  0  0
  2  5  2  0  0  0  0
  2  6  1  0  0  0  0
  3  4  1  0  0  0  0
  3  7  1  0  0  0  0
  3  8  1  0  0  0  0
  4 29  1  0  0  0  0
  6  9  1  0  0  0  0
  6 12  1  0  0  0  0
  8 10  1  0  0  0  0
  8 11  2  0  0  0  0
  9 13  1  0  0  0  0
  9 14  1  0  0  0  0
  9 15  1  0  0  0  0
 10 16  1  0  0  0  0
 10 17  1  0  0  0  0
 10 18  1  0  0  0  0
 19 20  1  0  0  0  0
 20 21  1  0  0  0  0
 20 22  1  0  0  0  0
 20 23  1  0  0  0  0
 23 24  4  0  0  0  0
 23 28  4  0  0  0  0
 24 25  4  0  0  0  0
 24 30  1  0  0  0  0
 25 26  4  0  0  0  0
 25 29  1  0  0  0  0
 26 27  4  0  0  0  0
 26 31  1  0  0  0  0
 27 28  4  0  0  0  0
 27 32  1  0  0  0  0
 28 33  1  0  0  0  0
 29 34  1  0  0  0  0
 29 35  1  0  0  0  0
M  END
> <BCLConfClusterSize>
1

> <ConfClashScore>
0 

> <ConfOneFourInteractionScore>
-0.931937 

> <ConfScore>
-0.0112361 

> <ConfScorePBest>
0.00569778 

> <ConfTolerance>
0.382266 

> <RosettaParamsInstructions>
M  ROOT 3
M  POLY_N_BB 3
M  POLY_CA_BB 4
M  POLY_C_BB 2
M  POLY_O_BB 5
M  POLY_IGNORE 9 10 11 12 13 14 15 16 17 18 
M  POLY_UPPER 6
M  POLY_LOWER 8
M  POLY_CHG 0
M  POLY_PROPERTIES ALPHA_AA L_AA PROTEIN AROMATIC POLYMER 
M  END

$$$$



 35 35  0  0  0  0  0  0  0  0999 V2000
   -0.6871    1.2734    2.4397 H   0  0  0  1  0  0  0  0  0  0  0  0
   -0.5110    3.1220    3.3898 C   0  0  0  1  0  0  0  0  0  0  0  0
   -2.5807    1.7948    2.9983 N   0  0  0  1  0  0  0  0  0  0  0  0
   -1.2705    2.1691    2.4873 C   0  0  0  1  0  0  0  0  0  0  0  0
   -1.0803    4.0714    3.9266 O   0  0  0  1  0  0  0  0  0  0  0  0
    0.7976    2.8984    3.5843 N   0  0  0  1  0  0  0  0  0  0  0  0
   -3.0932    2.4797    3.4764 H   0  0  0  1  0  0  0  0  0  0  0  0
   -3.1375    0.5876    2.8647 C   0  0  0  1  0  0  0  0  0  0  0  0
    1.6329    3.8003    4.3631 C   0  0  0  1  0  0  0  0  0  0  0  0
   -4.5346    0.4398    3.4352 C   0  0  0  1  0  0  0  0  0  0  0  0
   -2.5684   -0.3557    2.3170 O   0  0  0  1  0  0  0  0  0  0  0  0
    1.2050    2.1000    3.1881 H   0  0  0  1  0  0  0  0  0  0  0  0
    1.1765    3.9779    5.3145 H   0  0  0  1  0  0  0  0  0  0  0  0
    1.7398    4.7278    3.8404 H   0  0  0  1  0  0  0  0  0  0  0  0
    2.5967    3.3584    4.5071 H   0  0  0  1  0  0  0  0  0  0  0  0
   -4.6551    1.1077    4.2624 H   0  0  0  1  0  0  0  0  0  0  0  0
   -4.6798   -0.5673    3.7661 H   0  0  0  1  0  0  0  0  0  0  0  0
   -5.2548    0.6748    2.6795 H   0  0  0  1  0  0  0  0  0  0  0  0
   -0.2887    7.6134    1.2003 F   0  0  0  1  0  0  0  0  0  0  0  0
   -1.6175    7.7013    1.1191 C   0  0  0  1  0  0  0  0  0  0  0  0
   -2.0182    8.4275    2.1638 F   0  0  0  1  0  0  0  0  0  0  0  0
   -1.8549    8.4655    0.0522 F   0  0  0  1  0  0  0  0  0  0  0  0
   -2.3020    6.3580    1.0270 C   0  0  0  1  0  0  0  0  0  0  0  0
   -1.5541    5.1968    1.0735 C   0  0  0  1  0  0  0  0  0  0  0  0
   -2.1828    3.9640    0.9943 C   0  0  0  1  0  0  0  0  0  0  0  0
   -3.5571    3.8960    0.8635 C   0  0  0  1  0  0  0  0  0  0  0  0
   -4.3071    5.0609    0.8168 C   0  0  0  1  0  0  0  0  0  0  0  0
   -3.6803    6.2902    0.8958 C   0  0  0  1  0  0  0  0  0  0  0  0
   -1.3636    2.6909    1.0512 C   0  0  0  1  0  0  0  0  0  0  0  0
   -0.5196    5.2479    1.1679 H   0  0  0  1  0  0  0  0  0  0  0  0
   -4.0284    2.9711    0.8001 H   0  0  0  1  0  0  0  0  0  0  0  0
   -5.3416    5.0098    0.7224 H   0  0  0  1  0  0  0  0  0  0  0  0
   -4.2427    7.1642    0.8567 H   0  0  0  1  0  0  0  0  0  0  0  0
   -1.8276    1.9475    0.4372 H   0  0  0  1  0  0  0  0  0  0  0  0
   -0.3780    2.8914    0.6862 H   0  0  0  1  0  0  0  0  0  0  0  0
  1  4  1  0  0  0  0
  2  4  1  0  0  0  0
  2  5  2  0  0  0  0
  2  6  1  0  0  0  0
  3  4  1  0  0  0  0
  3  7  1  0  0  0  0
  3  8  1  0  0  0  0
  4 29  1  0  0  0  0
  6  9  1  0  0  0  0
  6 12  1  0  0  0  0
  8 10  1  0  0  0  0
  8 11  2  0  0  0  0
  9 13  1  0  0  0  0
  9 14  1  0  0  0  0
  9 15  1  0  0  0  0
 10 16  1  0  0  0  0
 10 17  1  0  0  0  0
 10 18  1  0  0  0  0
 19 20  1  0  0  0  0
 20 21  1  0  0  0  0
 20 22  1  0  0  0  0
 20 23  1  0  0  0  0
 23 24  4  0  0  0  0
 23 28  4  0  0  0  0
 24 25  4  0  0  0  0
 24 30  1  0  0  0  0
 25 26  4  0  0  0  0
 25 29  1  0  0  0  0
 26 27  4  0  0  0  0
 26 31  1  0  0  0  0
 27 28  4  0  0  0  0
 27 32  1  0  0  0  0
 28 33  1  0  0  0  0
 29 34  1  0  0  0  0
 29 35  1  0  0  0  0
M  END
> <BCLConfClusterSize>
1

> <ConfClashScore>
0 

> <ConfOneFourInteractionScore>
-0.980789 

> <ConfScore>
-0.0074987 

> <ConfScorePBest>
0.0056693 

> <ConfTolerance>
0.352867 

> <RosettaParamsInstructions>
M  ROOT 3
M  POLY_N_BB 3
M  POLY_CA_BB 4
M  POLY_C_BB 2
M  POLY_O_BB 5
M  POLY_IGNORE 9 10 11 12 13 14 15 16 17 18 
M  POLY_UPPER 6
M  POLY_LOWER 8
M  POLY_CHG 0
M  POLY_PROPERTIES ALPHA_AA L_AA PROTEIN AROMATIC POLYMER 
M  END

$$$$



 35 35  0  0  0  0  0  0  0  0999 V2000
   -1.8769    1.7660   -0.7597 H   0  0  0  1  0  0  0  0  0  0  0  0
   -0.2915    3.1324   -1.1292 C   0  0  0  1  0  0  0  0  0  0  0  0
   -0.0742    0.9666   -0.1074 N   0  0  0  1  0  0  0  0  0  0  0  0
   -0.9863    2.0898   -0.2628 C   0  0  0  1  0  0  0  0  0  0  0  0
    0.7506    3.6697   -0.7563 O   0  0  0  1  0  0  0  0  0  0  0  0
   -0.8497    3.4459   -2.3091 N   0  0  0  1  0  0  0  0  0  0  0  0
    0.7843    1.1131    0.3420 H   0  0  0  1  0  0  0  0  0  0  0  0
   -0.3677   -0.2633   -0.5584 C   0  0  0  1  0  0  0  0  0  0  0  0
   -0.3996    4.5172   -3.1853 C   0  0  0  1  0  0  0  0  0  0  0  0
    0.7352   -1.2950   -0.4236 C   0  0  0  1  0  0  0  0  0  0  0  0
   -1.4546   -0.5529   -1.0517 O   0  0  0  1  0  0  0  0  0  0  0  0
   -1.6182    2.9133   -2.6026 H   0  0  0  1  0  0  0  0  0  0  0  0
    0.6460    4.6868   -3.0340 H   0  0  0  1  0  0  0  0  0  0  0  0
   -0.9418    5.4121   -2.9616 H   0  0  0  1  0  0  0  0  0  0  0  0
   -0.5720    4.2404   -4.2044 H   0  0  0  1  0  0  0  0  0  0  0  0
    0.9408   -1.4647    0.6127 H   0  0  0  1  0  0  0  0  0  0  0  0
    1.6194   -0.9370   -0.9084 H   0  0  0  1  0  0  0  0  0  0  0  0
    0.4238   -2.2114   -0.8799 H   0  0  0  1  0  0  0  0  0  0  0  0
   -0.3105    7.6307    1.3925 F   0  0  0  1  0  0  0  0  0  0  0  0
   -1.6094    7.7210    1.1015 C   0  0  0  1  0  0  0  0  0  0  0  0
   -2.1182    8.4818    2.0719 F   0  0  0  1  0  0  0  0  0  0  0  0
   -1.7180    8.4327   -0.0013 F   0  0  0  1  0  0  0  0  0  0  0  0
   -2.2935    6.3769    1.0183 C   0  0  0  1  0  0  0  0  0  0  0  0
   -1.5638    5.1928    1.0937 C   0  0  0  1  0  0  0  0  0  0  0  0
   -2.1874    3.9585    1.0121 C   0  0  0  1  0  0  0  0  0  0  0  0
   -3.5652    3.8902    0.8681 C   0  0  0  1  0  0  0  0  0  0  0  0
   -4.3037    5.0486    0.7916 C   0  0  0  1  0  0  0  0  0  0  0  0
   -3.6724    6.2815    0.8639 C   0  0  0  1  0  0  0  0  0  0  0  0
   -1.3692    2.6906    1.0799 C   0  0  0  1  0  0  0  0  0  0  0  0
   -0.5316    5.2362    1.2134 H   0  0  0  1  0  0  0  0  0  0  0  0
   -4.0389    2.9657    0.8182 H   0  0  0  1  0  0  0  0  0  0  0  0
   -5.3364    4.9998    0.6794 H   0  0  0  1  0  0  0  0  0  0  0  0
   -4.2405    7.1504    0.8016 H   0  0  0  1  0  0  0  0  0  0  0  0
   -0.4675    2.9078    1.6135 H   0  0  0  1  0  0  0  0  0  0  0  0
   -1.9360    1.9604    1.6187 H   0  0  0  1  0  0  0  0  0  0  0  0
  1  4  1  0  0  0  0
  2  4  1  0  0  0  0
  2  5  2  0  0  0  0
  2  6  1  0  0  0  0
  3  4  1  0  0  0  0
  3  7  1  0  0  0  0
  3  8  1  0  0  0  0
  4 29  1  0  0  0  0
  6  9  1  0  0  0  0
  6 12  1  0  0  0  0
  8 10  1  0  0  0  0
  8 11  2  0  0  0  0
  9 13  1  0  0  0  0
  9 14  1  0  0  0  0
  9 15  1  0  0  0  0
 10 16  1  0  0  0  0
 10 17  1  0  0  0  0
 10 18  1  0  0  0  0
 19 20  1  0  0  0  0
 20 21  1  0  0  0  0
 20 22  1  0  0  0  0
 20 23  1  0  0  0  0
 23 24  4  0  0  0  0
 23 28  4  0  0  0  0
 24 25  4  0  0  0  0
 24 30  1  0  0  0  0
 25 26  4  0  0  0  0
 25 29  1  0  0  0  0
 26 27  4  0  0  0  0
 26 31  1  0  0  0  0
 27 28  4  0  0  0  0
 27 32  1  0  0  0  0
 28 33  1  0  0  0  0
 29 34  1  0  0  0  0
 29 35  1  0  0  0  0
M  END
> <BCLConfClusterSize>
1

> <ConfClashScore>
0 

> <ConfOneFourInteractionScore>
-0.990503 

> <ConfScore>
-0.006216 

> <ConfScorePBest>
0.00564082 

> <ConfTolerance>
0.370536 

> <RosettaParamsInstructions>
M  ROOT 3
M  POLY_N_BB 3
M  POLY_CA_BB 4
M  POLY_C_BB 2
M  POLY_O_BB 5
M  POLY_IGNORE 9 10 11 12 13 14 15 16 17 18 
M  POLY_UPPER 6
M  POLY_LOWER 8
M  POLY_CHG 0
M  POLY_PROPERTIES ALPHA_AA L_AA PROTEIN AROMATIC POLYMER 
M  END

$$$$



 35 35  0  0  0  0  0  0  0  0999 V2000
   -0.8655    1.3231    2.8922 H   0  0  0  1  0  0  0  0  0  0  0  0
   -0.4069    3.2278    3.6385 C   0  0  0  1  0  0  0  0  0  0  0  0
   -2.6299    2.1897    3.4833 N   0  0  0  1  0  0  0  0  0  0  0  0
   -1.3161    2.2931    2.8582 C   0  0  0  1  0  0  0  0  0  0  0  0
   -0.8672    4.1241    4.3444 O   0  0  0  1  0  0  0  0  0  0  0  0
    0.9041    3.0085    3.5039 N   0  0  0  1  0  0  0  0  0  0  0  0
   -2.9875    2.9901    3.9212 H   0  0  0  1  0  0  0  0  0  0  0  0
   -3.3812    1.0877    3.5037 C   0  0  0  1  0  0  0  0  0  0  0  0
    1.9039    3.9056    4.0639 C   0  0  0  1  0  0  0  0  0  0  0  0
   -4.7111    1.2103    4.2219 C   0  0  0  1  0  0  0  0  0  0  0  0
   -3.0371    0.0393    2.9834 O   0  0  0  1  0  0  0  0  0  0  0  0
    1.2029    2.2159    3.0110 H   0  0  0  1  0  0  0  0  0  0  0  0
    1.5051    4.3876    4.9319 H   0  0  0  1  0  0  0  0  0  0  0  0
    2.1679    4.6440    3.3358 H   0  0  0  1  0  0  0  0  0  0  0  0
    2.7737    3.3449    4.3355 H   0  0  0  1  0  0  0  0  0  0  0  0
   -4.5572    1.1173    5.2767 H   0  0  0  1  0  0  0  0  0  0  0  0
   -5.3692    0.4356    3.8880 H   0  0  0  1  0  0  0  0  0  0  0  0
   -5.1450    2.1647    4.0078 H   0  0  0  1  0  0  0  0  0  0  0  0
   -0.7116    7.7214    2.0918 F   0  0  0  1  0  0  0  0  0  0  0  0
   -1.6216    7.7095    1.1163 C   0  0  0  1  0  0  0  0  0  0  0  0
   -2.4863    8.6960    1.3580 F   0  0  0  1  0  0  0  0  0  0  0  0
   -0.9936    8.0040   -0.0099 F   0  0  0  1  0  0  0  0  0  0  0  0
   -2.3081    6.3673    1.0222 C   0  0  0  1  0  0  0  0  0  0  0  0
   -1.5835    5.2028    1.2287 C   0  0  0  1  0  0  0  0  0  0  0  0
   -2.1903    3.9537    1.1526 C   0  0  0  1  0  0  0  0  0  0  0  0
   -3.5508    3.9081    0.8572 C   0  0  0  1  0  0  0  0  0  0  0  0
   -4.2778    5.0673    0.6402 C   0  0  0  1  0  0  0  0  0  0  0  0
   -3.6514    6.3014    0.7316 C   0  0  0  1  0  0  0  0  0  0  0  0
   -1.3996    2.6874    1.3827 C   0  0  0  1  0  0  0  0  0  0  0  0
   -0.5681    5.2648    1.4444 H   0  0  0  1  0  0  0  0  0  0  0  0
   -4.0298    2.9869    0.7986 H   0  0  0  1  0  0  0  0  0  0  0  0
   -5.2903    5.0123    0.4093 H   0  0  0  1  0  0  0  0  0  0  0  0
   -4.1956    7.1747    0.5809 H   0  0  0  1  0  0  0  0  0  0  0  0
   -1.8678    1.8908    0.8432 H   0  0  0  1  0  0  0  0  0  0  0  0
   -0.4065    2.8341    1.0126 H   0  0  0  1  0  0  0  0  0  0  0  0
  1  4  1  0  0  0  0
  2  4  1  0  0  0  0
  2  5  2  0  0  0  0
  2  6  1  0  0  0  0
  3  4  1  0  0  0  0
  3  7  1  0  0  0  0
  3  8  1  0  0  0  0
  4 29  1  0  0  0  0
  6  9  1  0  0  0  0
  6 12  1  0  0  0  0
  8 10  1  0  0  0  0
  8 11  2  0  0  0  0
  9 13  1  0  0  0  0
  9 14  1  0  0  0  0
  9 15  1  0  0  0  0
 10 16  1  0  0  0  0
 10 17  1  0  0  0  0
 10 18  1  0  0  0  0
 19 20  1  0  0  0  0
 20 21  1  0  0  0  0
 20 22  1  0  0  0  0
 20 23  1  0  0  0  0
 23 24  4  0  0  0  0
 23 28  4  0  0  0  0
 24 25  4  0  0  0  0
 24 30  1  0  0  0  0
 25 26  4  0  0  0  0
 25 29  1  0  0  0  0
 26 27  4  0  0  0  0
 26 31  1  0  0  0  0
 27 28  4  0  0  0  0
 27 32  1  0  0  0  0
 28 33  1  0  0  0  0
 29 34  1  0  0  0  0
 29 35  1  0  0  0  0
M  END
> <BCLConfClusterSize>
1

> <ConfClashScore>
0 

> <ConfOneFourInteractionScore>
-0.982677 

> <ConfScore>
-0.00576979 

> <ConfScorePBest>
0.00561234 

> <ConfTolerance>
0.446722 

> <RosettaParamsInstructions>
M  ROOT 3
M  POLY_N_BB 3
M  POLY_CA_BB 4
M  POLY_C_BB 2
M  POLY_O_BB 5
M  POLY_IGNORE 9 10 11 12 13 14 15 16 17 18 
M  POLY_UPPER 6
M  POLY_LOWER 8
M  POLY_CHG 0
M  POLY_PROPERTIES ALPHA_AA L_AA PROTEIN AROMATIC POLYMER 
M  END

$$$$



 35 35  0  0  0  0  0  0  0  0999 V2000
   -2.9128    1.2098    1.3877 H   0  0  0  1  0  0  0  0  0  0  0  0
   -1.1854    0.3433    2.2550 C   0  0  0  1  0  0  0  0  0  0  0  0
   -2.7239    1.9143    3.3229 N   0  0  0  1  0  0  0  0  0  0  0  0
   -2.1339    1.5210    2.0520 C   0  0  0  1  0  0  0  0  0  0  0  0
   -0.9058   -0.4097    1.3231 O   0  0  0  1  0  0  0  0  0  0  0  0
   -0.6668    0.1545    3.4780 N   0  0  0  1  0  0  0  0  0  0  0  0
   -2.5782    2.8266    3.6498 H   0  0  0  1  0  0  0  0  0  0  0  0
   -3.4607    1.0708    4.0630 C   0  0  0  1  0  0  0  0  0  0  0  0
    0.3431   -0.8710    3.6932 C   0  0  0  1  0  0  0  0  0  0  0  0
   -4.0441    1.6489    5.3324 C   0  0  0  1  0  0  0  0  0  0  0  0
   -3.6592   -0.0989    3.7453 O   0  0  0  1  0  0  0  0  0  0  0  0
   -0.9688    0.7083    4.2280 H   0  0  0  1  0  0  0  0  0  0  0  0
    1.1662   -0.7065    3.0295 H   0  0  0  1  0  0  0  0  0  0  0  0
   -0.0812   -1.8346    3.5029 H   0  0  0  1  0  0  0  0  0  0  0  0
    0.6870   -0.8257    4.7054 H   0  0  0  1  0  0  0  0  0  0  0  0
   -4.2169    2.6966    5.2012 H   0  0  0  1  0  0  0  0  0  0  0  0
   -3.3586    1.4991    6.1402 H   0  0  0  1  0  0  0  0  0  0  0  0
   -4.9698    1.1600    5.5541 H   0  0  0  1  0  0  0  0  0  0  0  0
   -0.7628    7.7875    2.1381 F   0  0  0  1  0  0  0  0  0  0  0  0
   -1.6249    7.7063    1.1231 C   0  0  0  1  0  0  0  0  0  0  0  0
   -2.4754    8.7248    1.2601 F   0  0  0  1  0  0  0  0  0  0  0  0
   -0.9123    7.9920    0.0326 F   0  0  0  1  0  0  0  0  0  0  0  0
   -2.3123    6.3603    1.0254 C   0  0  0  1  0  0  0  0  0  0  0  0
   -1.5907    5.1964    1.2455 C   0  0  0  1  0  0  0  0  0  0  0  0
   -2.1968    3.9471    1.1667 C   0  0  0  1  0  0  0  0  0  0  0  0
   -3.5536    3.9007    0.8545 C   0  0  0  1  0  0  0  0  0  0  0  0
   -4.2774    5.0592    0.6238 C   0  0  0  1  0  0  0  0  0  0  0  0
   -3.6519    6.2935    0.7182 C   0  0  0  1  0  0  0  0  0  0  0  0
   -1.4094    2.6816    1.4116 C   0  0  0  1  0  0  0  0  0  0  0  0
   -0.5780    5.2590    1.4737 H   0  0  0  1  0  0  0  0  0  0  0  0
   -4.0320    2.9793    0.7935 H   0  0  0  1  0  0  0  0  0  0  0  0
   -5.2870    5.0035    0.3805 H   0  0  0  1  0  0  0  0  0  0  0  0
   -4.1940    7.1663    0.5573 H   0  0  0  1  0  0  0  0  0  0  0  0
   -1.0406    2.3458    0.4650 H   0  0  0  1  0  0  0  0  0  0  0  0
   -0.5861    2.9347    2.0464 H   0  0  0  1  0  0  0  0  0  0  0  0
  1  4  1  0  0  0  0
  2  4  1  0  0  0  0
  2  5  2  0  0  0  0
  2  6  1  0  0  0  0
  3  4  1  0  0  0  0
  3  7  1  0  0  0  0
  3  8  1  0  0  0  0
  4 29  1  0  0  0  0
  6  9  1  0  0  0  0
  6 12  1  0  0  0  0
  8 10  1  0  0  0  0
  8 11  2  0  0  0  0
  9 13  1  0  0  0  0
  9 14  1  0  0  0  0
  9 15  1  0  0  0  0
 10 16  1  0  0  0  0
 10 17  1  0  0  0  0
 10 18  1  0  0  0  0
 19 20  1  0  0  0  0
 20 21  1  0  0  0  0
 20 22  1  0  0  0  0
 20 23  1  0  0  0  0
 23 24  4  0  0  0  0
 23 28  4  0  0  0  0
 24 25  4  0  0  0  0
 24 30  1  0  0  0  0
 25 26  4  0  0  0  0
 25 29  1  0  0  0  0
 26 27  4  0  0  0  0
 26 31  1  0  0  0  0
 27 28  4  0  0  0  0
 27 32  1  0  0  0  0
 28 33  1  0  0  0  0
 29 34  1  0  0  0  0
 29 35  1  0  0  0  0
M  END
> <BCLConfClusterSize>
1

> <ConfClashScore>
0 

> <ConfOneFourInteractionScore>
-0.960318 

> <ConfScore>
-0.00414669 

> <ConfScorePBest>
0.00558386 

> <ConfTolerance>
0.519032 

> <RosettaParamsInstructions>
M  ROOT 3
M  POLY_N_BB 3
M  POLY_CA_BB 4
M  POLY_C_BB 2
M  POLY_O_BB 5
M  POLY_IGNORE 9 10 11 12 13 14 15 16 17 18 
M  POLY_UPPER 6
M  POLY_LOWER 8
M  POLY_CHG 0
M  POLY_PROPERTIES ALPHA_AA L_AA PROTEIN AROMATIC POLYMER 
M  END

$$$$



 35 35  0  0  0  0  0  0  0  0999 V2000
   -0.2531    1.2141    0.2813 H   0  0  0  1  0  0  0  0  0  0  0  0
   -1.6125    1.9719   -1.1442 C   0  0  0  1  0  0  0  0  0  0  0  0
    0.4024    3.0617   -0.3517 N   0  0  0  1  0  0  0  0  0  0  0  0
   -0.6758    2.1680    0.0442 C   0  0  0  1  0  0  0  0  0  0  0  0
   -1.5795    2.7273   -2.1146 O   0  0  0  1  0  0  0  0  0  0  0  0
   -2.4591    0.9339   -1.0544 N   0  0  0  1  0  0  0  0  0  0  0  0
    0.2795    3.7093   -1.0769 H   0  0  0  1  0  0  0  0  0  0  0  0
    1.5694    2.9736    0.3044 C   0  0  0  1  0  0  0  0  0  0  0  0
   -3.5047    0.6962   -2.0383 C   0  0  0  1  0  0  0  0  0  0  0  0
    2.6822    3.9253   -0.0896 C   0  0  0  1  0  0  0  0  0  0  0  0
    1.7341    2.1474    1.1980 O   0  0  0  1  0  0  0  0  0  0  0  0
   -2.3699    0.3148   -0.3000 H   0  0  0  1  0  0  0  0  0  0  0  0
   -4.1210   -0.1166   -1.7152 H   0  0  0  1  0  0  0  0  0  0  0  0
   -3.0591    0.4531   -2.9802 H   0  0  0  1  0  0  0  0  0  0  0  0
   -4.1027    1.5773   -2.1429 H   0  0  0  1  0  0  0  0  0  0  0  0
    2.9459    3.7622   -1.1137 H   0  0  0  1  0  0  0  0  0  0  0  0
    3.5366    3.7509    0.5305 H   0  0  0  1  0  0  0  0  0  0  0  0
    2.3495    4.9344    0.0364 H   0  0  0  1  0  0  0  0  0  0  0  0
   -0.5559    7.6785    1.9033 F   0  0  0  1  0  0  0  0  0  0  0  0
   -1.6216    7.7078    1.1177 C   0  0  0  1  0  0  0  0  0  0  0  0
   -2.4146    8.6508    1.6047 F   0  0  0  1  0  0  0  0  0  0  0  0
   -1.1988    8.1506   -0.0699 F   0  0  0  1  0  0  0  0  0  0  0  0
   -2.3102    6.3621    1.0236 C   0  0  0  1  0  0  0  0  0  0  0  0
   -1.5771    5.1960    1.1866 C   0  0  0  1  0  0  0  0  0  0  0  0
   -2.1838    3.9469    1.1097 C   0  0  0  1  0  0  0  0  0  0  0  0
   -3.5532    3.9030    0.8588 C   0  0  0  1  0  0  0  0  0  0  0  0
   -4.2891    5.0639    0.6853 C   0  0  0  1  0  0  0  0  0  0  0  0
   -3.6622    6.2978    0.7766 C   0  0  0  1  0  0  0  0  0  0  0  0
   -1.3836    2.6789    1.2924 C   0  0  0  1  0  0  0  0  0  0  0  0
   -0.5551    5.2568    1.3696 H   0  0  0  1  0  0  0  0  0  0  0  0
   -4.0322    2.9817    0.8006 H   0  0  0  1  0  0  0  0  0  0  0  0
   -5.3086    5.0103    0.4872 H   0  0  0  1  0  0  0  0  0  0  0  0
   -4.2128    7.1722    0.6586 H   0  0  0  1  0  0  0  0  0  0  0  0
   -0.6414    2.8619    2.0411 H   0  0  0  1  0  0  0  0  0  0  0  0
   -2.0506    1.9135    1.6302 H   0  0  0  1  0  0  0  0  0  0  0  0
  1  4  1  0  0  0  0
  2  4  1  0  0  0  0
  2  5  2  0  0  0  0
  2  6  1  0  0  0  0
  3  4  1  0  0  0  0
  3  7  1  0  0  0  0
  3  8  1  0  0  0  0
  4 29  1  0  0  0  0
  6  9  1  0  0  0  0
  6 12  1  0  0  0  0
  8 10  1  0  0  0  0
  8 11  2  0  0  0  0
  9 13  1  0  0  0  0
  9 14  1  0  0  0  0
  9 15  1  0  0  0  0
 10 16  1  0  0  0  0
 10 17  1  0  0  0  0
 10 18  1  0  0  0  0
 19 20  1  0  0  0  0
 20 21  1  0  0  0  0
 20 22  1  0  0  0  0
 20 23  1  0  0  0  0
 23 24  4  0  0  0  0
 23 28  4  0  0  0  0
 24 25  4  0  0  0  0
 24 30  1  0  0  0  0
 25 26  4  0  0  0  0
 25 29  1  0  0  0  0
 26 27  4  0  0  0  0
 26 31  1  0  0  0  0
 27 28  4  0  0  0  0
 27 32  1  0  0  0  0
 28 33  1  0  0  0  0
 29 34  1  0  0  0  0
 29 35  1  0  0  0  0
M  END
> <BCLConfClusterSize>
1

> <ConfClashScore>
0 

> <ConfOneFourInteractionScore>
-0.987258 

> <ConfScore>
-0.00314401 

> <ConfScorePBest>
0.00555537 

> <ConfTolerance>
0.39458 

> <RosettaParamsInstructions>
M  ROOT 3
M  POLY_N_BB 3
M  POLY_CA_BB 4
M  POLY_C_BB 2
M  POLY_O_BB 5
M  POLY_IGNORE 9 10 11 12 13 14 15 16 17 18 
M  POLY_UPPER 6
M  POLY_LOWER 8
M  POLY_CHG 0
M  POLY_PROPERTIES ALPHA_AA L_AA PROTEIN AROMATIC POLYMER 
M  END

$$$$



 35 35  0  0  0  0  0  0  0  0999 V2000
   -1.3294    2.3390   -0.7946 H   0  0  0  1  0  0  0  0  0  0  0  0
   -0.4397    0.6350    0.0195 C   0  0  0  1  0  0  0  0  0  0  0  0
   -2.8482    1.1763   -0.0292 N   0  0  0  1  0  0  0  0  0  0  0  0
   -1.4829    1.7339    0.0744 C   0  0  0  1  0  0  0  0  0  0  0  0
    0.6983    0.8550   -0.3929 O   0  0  0  1  0  0  0  0  0  0  0  0
   -0.8418   -0.5727    0.4460 N   0  0  0  1  0  0  0  0  0  0  0  0
   -3.4928    1.3681    0.6836 H   0  0  0  1  0  0  0  0  0  0  0  0
   -3.2338    0.4200   -1.0609 C   0  0  0  1  0  0  0  0  0  0  0  0
   -0.0024   -1.7562    0.3332 C   0  0  0  1  0  0  0  0  0  0  0  0
   -4.6432   -0.1336   -0.9813 C   0  0  0  1  0  0  0  0  0  0  0  0
   -2.5120    0.1794   -2.0146 O   0  0  0  1  0  0  0  0  0  0  0  0
   -1.7316   -0.6605    0.8472 H   0  0  0  1  0  0  0  0  0  0  0  0
    0.6979   -1.6226   -0.4647 H   0  0  0  1  0  0  0  0  0  0  0  0
   -0.6151   -2.6097    0.1306 H   0  0  0  1  0  0  0  0  0  0  0  0
    0.5271   -1.9063    1.2508 H   0  0  0  1  0  0  0  0  0  0  0  0
   -4.6269   -1.0820   -0.4863 H   0  0  0  1  0  0  0  0  0  0  0  0
   -5.0351   -0.2541   -1.9696 H   0  0  0  1  0  0  0  0  0  0  0  0
   -5.2620    0.5447   -0.4319 H   0  0  0  1  0  0  0  0  0  0  0  0
   -0.5189    7.6672    1.8641 F   0  0  0  1  0  0  0  0  0  0  0  0
   -1.6212    7.7075    1.1134 C   0  0  0  1  0  0  0  0  0  0  0  0
   -2.4028    8.6463    1.6491 F   0  0  0  1  0  0  0  0  0  0  0  0
   -1.2470    8.1675   -0.0701 F   0  0  0  1  0  0  0  0  0  0  0  0
   -2.3100    6.3620    1.0215 C   0  0  0  1  0  0  0  0  0  0  0  0
   -1.5754    5.1958    1.1768 C   0  0  0  1  0  0  0  0  0  0  0  0
   -2.1823    3.9467    1.1018 C   0  0  0  1  0  0  0  0  0  0  0  0
   -3.5536    3.9030    0.8606 C   0  0  0  1  0  0  0  0  0  0  0  0
   -4.2909    5.0640    0.6948 C   0  0  0  1  0  0  0  0  0  0  0  0
   -3.6638    6.2979    0.7841 C   0  0  0  1  0  0  0  0  0  0  0  0
   -1.3806    2.6785    1.2760 C   0  0  0  1  0  0  0  0  0  0  0  0
   -0.5522    5.2565    1.3526 H   0  0  0  1  0  0  0  0  0  0  0  0
   -4.0327    2.9817    0.8040 H   0  0  0  1  0  0  0  0  0  0  0  0
   -5.3119    5.0106    0.5040 H   0  0  0  1  0  0  0  0  0  0  0  0
   -4.2154    7.1724    0.6719 H   0  0  0  1  0  0  0  0  0  0  0  0
   -0.3529    2.9418    1.4157 H   0  0  0  1  0  0  0  0  0  0  0  0
   -1.7390    2.1656    2.1440 H   0  0  0  1  0  0  0  0  0  0  0  0
  1  4  1  0  0  0  0
  2  4  1  0  0  0  0
  2  5  2  0  0  0  0
  2  6  1  0  0  0  0
  3  4  1  0  0  0  0
  3  7  1  0  0  0  0
  3  8  1  0  0  0  0
  4 29  1  0  0  0  0
  6  9  1  0  0  0  0
  6 12  1  0  0  0  0
  8 10  1  0  0  0  0
  8 11  2  0  0  0  0
  9 13  1  0  0  0  0
  9 14  1  0  0  0  0
  9 15  1  0  0  0  0
 10 16  1  0  0  0  0
 10 17  1  0  0  0  0
 10 18  1  0  0  0  0
 19 20  1  0  0  0  0
 20 21  1  0  0  0  0
 20 22  1  0  0  0  0
 20 23  1  0  0  0  0
 23 24  4  0  0  0  0
 23 28  4  0  0  0  0
 24 25  4  0  0  0  0
 24 30  1  0  0  0  0
 25 26  4  0  0  0  0
 25 29  1  0  0  0  0
 26 27  4  0  0  0  0
 26 31  1  0  0  0  0
 27 28  4  0  0  0  0
 27 32  1  0  0  0  0
 28 33  1  0  0  0  0
 29 34  1  0  0  0  0
 29 35  1  0  0  0  0
M  END
> <BCLConfClusterSize>
1

> <ConfClashScore>
0 

> <ConfOneFourInteractionScore>
-0.956443 

> <ConfScore>
-0.00300106 

> <ConfScorePBest>
0.00552689 

> <ConfTolerance>
0.374638 

> <RosettaParamsInstructions>
M  ROOT 3
M  POLY_N_BB 3
M  POLY_CA_BB 4
M  POLY_C_BB 2
M  POLY_O_BB 5
M  POLY_IGNORE 9 10 11 12 13 14 15 16 17 18 
M  POLY_UPPER 6
M  POLY_LOWER 8
M  POLY_CHG 0
M  POLY_PROPERTIES ALPHA_AA L_AA PROTEIN AROMATIC POLYMER 
M  END

$$$$



 35 35  0  0  0  0  0  0  0  0999 V2000
   -1.1048    2.7521    3.5147 H   0  0  0  1  0  0  0  0  0  0  0  0
   -3.0669    2.0241    3.1901 C   0  0  0  1  0  0  0  0  0  0  0  0
   -0.9816    0.7873    2.8856 N   0  0  0  1  0  0  0  0  0  0  0  0
   -1.5905    2.1058    2.8137 C   0  0  0  1  0  0  0  0  0  0  0  0
   -3.7948    1.1511    2.7195 O   0  0  0  1  0  0  0  0  0  0  0  0
   -3.4898    2.8863    4.1121 N   0  0  0  1  0  0  0  0  0  0  0  0
   -1.3175    0.0786    2.2981 H   0  0  0  1  0  0  0  0  0  0  0  0
    0.0247    0.5072    3.7289 C   0  0  0  1  0  0  0  0  0  0  0  0
   -4.8590    2.8876    4.6052 C   0  0  0  1  0  0  0  0  0  0  0  0
    0.5091   -0.9297    3.7221 C   0  0  0  1  0  0  0  0  0  0  0  0
    0.5330    1.3477    4.4661 O   0  0  0  1  0  0  0  0  0  0  0  0
   -2.8571    3.5429    4.4712 H   0  0  0  1  0  0  0  0  0  0  0  0
   -5.5145    2.5272    3.8402 H   0  0  0  1  0  0  0  0  0  0  0  0
   -5.1398    3.8844    4.8747 H   0  0  0  1  0  0  0  0  0  0  0  0
   -4.9294    2.2524    5.4633 H   0  0  0  1  0  0  0  0  0  0  0  0
   -0.2357   -1.5556    3.2767 H   0  0  0  1  0  0  0  0  0  0  0  0
    0.6892   -1.2498    4.7271 H   0  0  0  1  0  0  0  0  0  0  0  0
    1.4157   -0.9975    3.1578 H   0  0  0  1  0  0  0  0  0  0  0  0
   -0.8147    7.7705    2.1786 F   0  0  0  1  0  0  0  0  0  0  0  0
   -1.6163    7.7065    1.1141 C   0  0  0  1  0  0  0  0  0  0  0  0
   -2.5029    8.6940    1.2487 F   0  0  0  1  0  0  0  0  0  0  0  0
   -0.8721    7.9862    0.0433 F   0  0  0  1  0  0  0  0  0  0  0  0
   -2.2995    6.3627    1.0196 C   0  0  0  1  0  0  0  0  0  0  0  0
   -1.5810    5.2045    1.2488 C   0  0  0  1  0  0  0  0  0  0  0  0
   -2.2091    3.9715    1.1674 C   0  0  0  1  0  0  0  0  0  0  0  0
   -3.5528    3.9000    0.8517 C   0  0  0  1  0  0  0  0  0  0  0  0
   -4.2736    5.0616    0.6218 C   0  0  0  1  0  0  0  0  0  0  0  0
   -3.6471    6.2909    0.7030 C   0  0  0  1  0  0  0  0  0  0  0  0
   -1.4251    2.7061    1.4237 C   0  0  0  1  0  0  0  0  0  0  0  0
   -0.5690    5.2581    1.4824 H   0  0  0  1  0  0  0  0  0  0  0  0
   -4.0231    2.9747    0.7867 H   0  0  0  1  0  0  0  0  0  0  0  0
   -5.2856    5.0080    0.3882 H   0  0  0  1  0  0  0  0  0  0  0  0
   -4.1869    7.1622    0.5265 H   0  0  0  1  0  0  0  0  0  0  0  0
   -1.7373    1.9739    0.7087 H   0  0  0  1  0  0  0  0  0  0  0  0
   -0.3877    2.9258    1.2804 H   0  0  0  1  0  0  0  0  0  0  0  0
  1  4  1  0  0  0  0
  2  4  1  0  0  0  0
  2  5  2  0  0  0  0
  2  6  1  0  0  0  0
  3  4  1  0  0  0  0
  3  7  1  0  0  0  0
  3  8  1  0  0  0  0
  4 29  1  0  0  0  0
  6  9  1  0  0  0  0
  6 12  1  0  0  0  0
  8 10  1  0  0  0  0
  8 11  2  0  0  0  0
  9 13  1  0  0  0  0
  9 14  1  0  0  0  0
  9 15  1  0  0  0  0
 10 16  1  0  0  0  0
 10 17  1  0  0  0  0
 10 18  1  0  0  0  0
 19 20  1  0  0  0  0
 20 21  1  0  0  0  0
 20 22  1  0  0  0  0
 20 23  1  0  0  0  0
 23 24  4  0  0  0  0
 23 28  4  0  0  0  0
 24 25  4  0  0  0  0
 24 30  1  0  0  0  0
 25 26  4  0  0  0  0
 25 29  1  0  0  0  0
 26 27  4  0  0  0  0
 26 31  1  0  0  0  0
 27 28  4  0  0  0  0
 27 32  1  0  0  0  0
 28 33  1  0  0  0  0
 29 34  1  0  0  0  0
 29 35  1  0  0  0  0
M  END
> <BCLConfClusterSize>
1

> <ConfClashScore>
0 

> <ConfOneFourInteractionScore>
-0.986627 

> <ConfScore>
-0.0014986 

> <ConfScorePBest>
0.00549841 

> <ConfTolerance>
0.359466 

> <RosettaParamsInstructions>
M  ROOT 3
M  POLY_N_BB 3
M  POLY_CA_BB 4
M  POLY_C_BB 2
M  POLY_O_BB 5
M  POLY_IGNORE 9 10 11 12 13 14 15 16 17 18 
M  POLY_UPPER 6
M  POLY_LOWER 8
M  POLY_CHG 0
M  POLY_PROPERTIES ALPHA_AA L_AA PROTEIN AROMATIC POLYMER 
M  END

$$$$



 35 35  0  0  0  0  0  0  0  0999 V2000
    0.3484    3.5976    0.4129 H   0  0  0  1  0  0  0  0  0  0  0  0
    0.8620    1.5881    0.7914 C   0  0  0  1  0  0  0  0  0  0  0  0
   -0.5317    2.4661   -1.0636 N   0  0  0  1  0  0  0  0  0  0  0  0
   -0.1331    2.6462    0.3244 C   0  0  0  1  0  0  0  0  0  0  0  0
    0.8735    0.4703    0.3027 O   0  0  0  1  0  0  0  0  0  0  0  0
    1.7037    1.9687    1.7566 N   0  0  0  1  0  0  0  0  0  0  0  0
   -1.4573    2.2115   -1.2607 H   0  0  0  1  0  0  0  0  0  0  0  0
    0.3288    2.6372   -2.0886 C   0  0  0  1  0  0  0  0  0  0  0  0
    2.5927    1.0317    2.4270 C   0  0  0  1  0  0  0  0  0  0  0  0
   -0.1927    2.4370   -3.4982 C   0  0  0  1  0  0  0  0  0  0  0  0
    1.5025    2.9467   -1.8880 O   0  0  0  1  0  0  0  0  0  0  0  0
    1.7231    2.9118    2.0225 H   0  0  0  1  0  0  0  0  0  0  0  0
    3.0925    1.5275    3.2327 H   0  0  0  1  0  0  0  0  0  0  0  0
    3.3171    0.6663    1.7293 H   0  0  0  1  0  0  0  0  0  0  0  0
    2.0223    0.2122    2.8117 H   0  0  0  1  0  0  0  0  0  0  0  0
   -0.7535    1.5270   -3.5457 H   0  0  0  1  0  0  0  0  0  0  0  0
    0.6312    2.3839   -4.1789 H   0  0  0  1  0  0  0  0  0  0  0  0
   -0.8239    3.2589   -3.7648 H   0  0  0  1  0  0  0  0  0  0  0  0
   -0.4481    7.6357    1.7433 F   0  0  0  1  0  0  0  0  0  0  0  0
   -1.6228    7.7047    1.1145 C   0  0  0  1  0  0  0  0  0  0  0  0
   -2.3484    8.6061    1.7780 F   0  0  0  1  0  0  0  0  0  0  0  0
   -1.3741    8.2343   -0.0840 F   0  0  0  1  0  0  0  0  0  0  0  0
   -2.3098    6.3627    1.0229 C   0  0  0  1  0  0  0  0  0  0  0  0
   -1.5712    5.1961    1.1536 C   0  0  0  1  0  0  0  0  0  0  0  0
   -2.1779    3.9469    1.0780 C   0  0  0  1  0  0  0  0  0  0  0  0
   -3.5533    3.9037    0.8618 C   0  0  0  1  0  0  0  0  0  0  0  0
   -4.2950    5.0652    0.7206 C   0  0  0  1  0  0  0  0  0  0  0  0
   -3.6677    6.2991    0.8099 C   0  0  0  1  0  0  0  0  0  0  0  0
   -1.3716    2.6782    1.2254 C   0  0  0  1  0  0  0  0  0  0  0  0
   -0.5449    5.2565    1.3110 H   0  0  0  1  0  0  0  0  0  0  0  0
   -4.0323    2.9823    0.8054 H   0  0  0  1  0  0  0  0  0  0  0  0
   -5.3192    5.0122    0.5482 H   0  0  0  1  0  0  0  0  0  0  0  0
   -4.2223    7.1738    0.7162 H   0  0  0  1  0  0  0  0  0  0  0  0
   -1.0542    2.5928    2.2437 H   0  0  0  1  0  0  0  0  0  0  0  0
   -1.9964    1.8465    0.9751 H   0  0  0  1  0  0  0  0  0  0  0  0
  1  4  1  0  0  0  0
  2  4  1  0  0  0  0
  2  5  2  0  0  0  0
  2  6  1  0  0  0  0
  3  4  1  0  0  0  0
  3  7  1  0  0  0  0
  3  8  1  0  0  0  0
  4 29  1  0  0  0  0
  6  9  1  0  0  0  0
  6 12  1  0  0  0  0
  8 10  1  0  0  0  0
  8 11  2  0  0  0  0
  9 13  1  0  0  0  0
  9 14  1  0  0  0  0
  9 15  1  0  0  0  0
 10 16  1  0  0  0  0
 10 17  1  0  0  0  0
 10 18  1  0  0  0  0
 19 20  1  0  0  0  0
 20 21  1  0  0  0  0
 20 22  1  0  0  0  0
 20 23  1  0  0  0  0
 23 24  4  0  0  0  0
 23 28  4  0  0  0  0
 24 25  4  0  0  0  0
 24 30  1  0  0  0  0
 25 26  4  0  0  0  0
 25 29  1  0  0  0  0
 26 27  4  0  0  0  0
 26 31  1  0  0  0  0
 27 28  4  0  0  0  0
 27 32  1  0  0  0  0
 28 33  1  0  0  0  0
 29 34  1  0  0  0  0
 29 35  1  0  0  0  0
M  END
> <BCLConfClusterSize>
1

> <ConfClashScore>
0 

> <ConfOneFourInteractionScore>
-0.978127 

> <ConfScore>
-0.00129552 

> <ConfScorePBest>
0.00546993 

> <ConfTolerance>
0.512145 

> <RosettaParamsInstructions>
M  ROOT 3
M  POLY_N_BB 3
M  POLY_CA_BB 4
M  POLY_C_BB 2
M  POLY_O_BB 5
M  POLY_IGNORE 9 10 11 12 13 14 15 16 17 18 
M  POLY_UPPER 6
M  POLY_LOWER 8
M  POLY_CHG 0
M  POLY_PROPERTIES ALPHA_AA L_AA PROTEIN AROMATIC POLYMER 
M  END

$$$$



 35 35  0  0  0  0  0  0  0  0999 V2000
   -0.8389    2.7509    3.0764 H   0  0  0  1  0  0  0  0  0  0  0  0
   -2.7413    1.8027    2.8435 C   0  0  0  1  0  0  0  0  0  0  0  0
   -0.5885    0.7944    2.4053 N   0  0  0  1  0  0  0  0  0  0  0  0
   -1.2988    2.0646    2.3964 C   0  0  0  1  0  0  0  0  0  0  0  0
   -3.3934    0.8679    2.3805 O   0  0  0  1  0  0  0  0  0  0  0  0
   -3.2309    2.6520    3.7595 N   0  0  0  1  0  0  0  0  0  0  0  0
   -0.9754    0.0147    1.9551 H   0  0  0  1  0  0  0  0  0  0  0  0
    0.5900    0.6892    3.0259 C   0  0  0  1  0  0  0  0  0  0  0  0
   -4.5512    2.5552    4.3640 C   0  0  0  1  0  0  0  0  0  0  0  0
    1.1639   -0.7114    3.1166 C   0  0  0  1  0  0  0  0  0  0  0  0
    1.1862    1.6554    3.4998 O   0  0  0  1  0  0  0  0  0  0  0  0
   -2.6561    3.3934    4.0430 H   0  0  0  1  0  0  0  0  0  0  0  0
   -4.5977    1.6834    4.9826 H   0  0  0  1  0  0  0  0  0  0  0  0
   -5.2913    2.4860    3.5943 H   0  0  0  1  0  0  0  0  0  0  0  0
   -4.7352    3.4249    4.9594 H   0  0  0  1  0  0  0  0  0  0  0  0
    1.3965   -1.0664    2.1344 H   0  0  0  1  0  0  0  0  0  0  0  0
    0.4457   -1.3622    3.5700 H   0  0  0  1  0  0  0  0  0  0  0  0
    2.0545   -0.6939    3.7095 H   0  0  0  1  0  0  0  0  0  0  0  0
   -0.2897    7.6028    1.1025 F   0  0  0  1  0  0  0  0  0  0  0  0
   -1.6198    7.7053    1.1105 C   0  0  0  1  0  0  0  0  0  0  0  0
   -1.9358    8.3707    2.2226 F   0  0  0  1  0  0  0  0  0  0  0  0
   -1.9387    8.5060    0.0927 F   0  0  0  1  0  0  0  0  0  0  0  0
   -2.3043    6.3615    1.0259 C   0  0  0  1  0  0  0  0  0  0  0  0
   -1.5527    5.1973    1.0622 C   0  0  0  1  0  0  0  0  0  0  0  0
   -2.1785    3.9678    0.9795 C   0  0  0  1  0  0  0  0  0  0  0  0
   -3.5582    3.8987    0.8656 C   0  0  0  1  0  0  0  0  0  0  0  0
   -4.3078    5.0594    0.8294 C   0  0  0  1  0  0  0  0  0  0  0  0
   -3.6800    6.2925    0.9123 C   0  0  0  1  0  0  0  0  0  0  0  0
   -1.3589    2.6994    1.0133 C   0  0  0  1  0  0  0  0  0  0  0  0
   -0.5179    5.2491    1.1518 H   0  0  0  1  0  0  0  0  0  0  0  0
   -4.0294    2.9734    0.8074 H   0  0  0  1  0  0  0  0  0  0  0  0
   -5.3426    5.0076    0.7399 H   0  0  0  1  0  0  0  0  0  0  0  0
   -4.2443    7.1658    0.8891 H   0  0  0  1  0  0  0  0  0  0  0  0
   -1.7926    1.9956    0.3340 H   0  0  0  1  0  0  0  0  0  0  0  0
   -0.3619    2.9298    0.7006 H   0  0  0  1  0  0  0  0  0  0  0  0
  1  4  1  0  0  0  0
  2  4  1  0  0  0  0
  2  5  2  0  0  0  0
  2  6  1  0  0  0  0
  3  4  1  0  0  0  0
  3  7  1  0  0  0  0
  3  8  1  0  0  0  0
  4 29  1  0  0  0  0
  6  9  1  0  0  0  0
  6 12  1  0  0  0  0
  8 10  1  0  0  0  0
  8 11  2  0  0  0  0
  9 13  1  0  0  0  0
  9 14  1  0  0  0  0
  9 15  1  0  0  0  0
 10 16  1  0  0  0  0
 10 17  1  0  0  0  0
 10 18  1  0  0  0  0
 19 20  1  0  0  0  0
 20 21  1  0  0  0  0
 20 22  1  0  0  0  0
 20 23  1  0  0  0  0
 23 24  4  0  0  0  0
 23 28  4  0  0  0  0
 24 25  4  0  0  0  0
 24 30  1  0  0  0  0
 25 26  4  0  0  0  0
 25 29  1  0  0  0  0
 26 27  4  0  0  0  0
 26 31  1  0  0  0  0
 27 28  4  0  0  0  0
 27 32  1  0  0  0  0
 28 33  1  0  0  0  0
 29 34  1  0  0  0  0
 29 35  1  0  0  0  0
M  END
> <BCLConfClusterSize>
1

> <ConfClashScore>
0 

> <ConfOneFourInteractionScore>
-0.990503 

> <ConfScore>
0.00168764 

> <ConfScorePBest>
0.00544145 

> <ConfTolerance>
0.366776 

> <RosettaParamsInstructions>
M  ROOT 3
M  POLY_N_BB 3
M  POLY_CA_BB 4
M  POLY_C_BB 2
M  POLY_O_BB 5
M  POLY_IGNORE 9 10 11 12 13 14 15 16 17 18 
M  POLY_UPPER 6
M  POLY_LOWER 8
M  POLY_CHG 0
M  POLY_PROPERTIES ALPHA_AA L_AA PROTEIN AROMATIC POLYMER 
M  END

$$$$



 35 35  0  0  0  0  0  0  0  0999 V2000
    0.5190    3.5061    0.5002 H   0  0  0  1  0  0  0  0  0  0  0  0
    0.6219    1.4109    0.2061 C   0  0  0  1  0  0  0  0  0  0  0  0
   -0.5118    3.0327   -1.2291 N   0  0  0  1  0  0  0  0  0  0  0  0
   -0.1325    2.7356    0.1441 C   0  0  0  1  0  0  0  0  0  0  0  0
    1.4267    1.1245    1.0771 O   0  0  0  1  0  0  0  0  0  0  0  0
    0.3556    0.5420   -0.7704 N   0  0  0  1  0  0  0  0  0  0  0  0
   -1.3992    2.7613   -1.5440 H   0  0  0  1  0  0  0  0  0  0  0  0
    0.3078    3.6627   -2.0755 C   0  0  0  1  0  0  0  0  0  0  0  0
    0.9871   -0.7604   -0.9218 C   0  0  0  1  0  0  0  0  0  0  0  0
   -0.2170    3.8474   -3.4861 C   0  0  0  1  0  0  0  0  0  0  0  0
    1.4113    4.0704   -1.7521 O   0  0  0  1  0  0  0  0  0  0  0  0
   -0.3158    0.8001   -1.4359 H   0  0  0  1  0  0  0  0  0  0  0  0
    1.9023   -0.6526   -1.4656 H   0  0  0  1  0  0  0  0  0  0  0  0
    0.3303   -1.4151   -1.4556 H   0  0  0  1  0  0  0  0  0  0  0  0
    1.1930   -1.1712    0.0446 H   0  0  0  1  0  0  0  0  0  0  0  0
    0.6026    3.8548   -4.1740 H   0  0  0  1  0  0  0  0  0  0  0  0
   -0.7453    4.7756   -3.5512 H   0  0  0  1  0  0  0  0  0  0  0  0
   -0.8785    3.0421   -3.7285 H   0  0  0  1  0  0  0  0  0  0  0  0
   -0.2964    7.6011    1.2589 F   0  0  0  1  0  0  0  0  0  0  0  0
   -1.6180    7.7090    1.1111 C   0  0  0  1  0  0  0  0  0  0  0  0
   -2.0498    8.4381    2.1413 F   0  0  0  1  0  0  0  0  0  0  0  0
   -1.8124    8.4514    0.0204 F   0  0  0  1  0  0  0  0  0  0  0  0
   -2.3050    6.3602    1.0256 C   0  0  0  1  0  0  0  0  0  0  0  0
   -1.5553    5.1956    1.0825 C   0  0  0  1  0  0  0  0  0  0  0  0
   -2.1809    3.9660    0.9992 C   0  0  0  1  0  0  0  0  0  0  0  0
   -3.5588    3.8974    0.8641 C   0  0  0  1  0  0  0  0  0  0  0  0
   -4.3065    5.0585    0.8074 C   0  0  0  1  0  0  0  0  0  0  0  0
   -3.6788    6.2916    0.8910 C   0  0  0  1  0  0  0  0  0  0  0  0
   -1.3633    2.6972    1.0553 C   0  0  0  1  0  0  0  0  0  0  0  0
   -0.5219    5.2471    1.1878 H   0  0  0  1  0  0  0  0  0  0  0  0
   -4.0301    2.9721    0.8055 H   0  0  0  1  0  0  0  0  0  0  0  0
   -5.3398    5.0070    0.7021 H   0  0  0  1  0  0  0  0  0  0  0  0
   -4.2417    7.1652    0.8524 H   0  0  0  1  0  0  0  0  0  0  0  0
   -1.0365    2.5469    2.0630 H   0  0  0  1  0  0  0  0  0  0  0  0
   -1.9838    1.8787    0.7552 H   0  0  0  1  0  0  0  0  0  0  0  0
  1  4  1  0  0  0  0
  2  4  1  0  0  0  0
  2  5  2  0  0  0  0
  2  6  1  0  0  0  0
  3  4  1  0  0  0  0
  3  7  1  0  0  0  0
  3  8  1  0  0  0  0
  4 29  1  0  0  0  0
  6  9  1  0  0  0  0
  6 12  1  0  0  0  0
  8 10  1  0  0  0  0
  8 11  2  0  0  0  0
  9 13  1  0  0  0  0
  9 14  1  0  0  0  0
  9 15  1  0  0  0  0
 10 16  1  0  0  0  0
 10 17  1  0  0  0  0
 10 18  1  0  0  0  0
 19 20  1  0  0  0  0
 20 21  1  0  0  0  0
 20 22  1  0  0  0  0
 20 23  1  0  0  0  0
 23 24  4  0  0  0  0
 23 28  4  0  0  0  0
 24 25  4  0  0  0  0
 24 30  1  0  0  0  0
 25 26  4  0  0  0  0
 25 29  1  0  0  0  0
 26 27  4  0  0  0  0
 26 31  1  0  0  0  0
 27 28  4  0  0  0  0
 27 32  1  0  0  0  0
 28 33  1  0  0  0  0
 29 34  1  0  0  0  0
 29 35  1  0  0  0  0
M  END
> <BCLConfClusterSize>
1

> <ConfClashScore>
0 

> <ConfOneFourInteractionScore>
-0.94165 

> <ConfScore>
0.00380366 

> <ConfScorePBest>
0.00541297 

> <ConfTolerance>
0.455987 

> <RosettaParamsInstructions>
M  ROOT 3
M  POLY_N_BB 3
M  POLY_CA_BB 4
M  POLY_C_BB 2
M  POLY_O_BB 5
M  POLY_IGNORE 9 10 11 12 13 14 15 16 17 18 
M  POLY_UPPER 6
M  POLY_LOWER 8
M  POLY_CHG 0
M  POLY_PROPERTIES ALPHA_AA L_AA PROTEIN AROMATIC POLYMER 
M  END

$$$$



 35 35  0  0  0  0  0  0  0  0999 V2000
    0.1949    3.5427   -0.1059 H   0  0  0  1  0  0  0  0  0  0  0  0
    0.6437    1.4863    0.1908 C   0  0  0  1  0  0  0  0  0  0  0  0
   -1.0362    2.4123   -1.3380 N   0  0  0  1  0  0  0  0  0  0  0  0
   -0.3428    2.6181   -0.0752 C   0  0  0  1  0  0  0  0  0  0  0  0
    0.3148    0.3395    0.4288 O   0  0  0  1  0  0  0  0  0  0  0  0
    1.9374    1.8175    0.1504 N   0  0  0  1  0  0  0  0  0  0  0  0
   -1.6037    1.6229   -1.4611 H   0  0  0  1  0  0  0  0  0  0  0  0
   -0.9001    3.3010   -2.3339 C   0  0  0  1  0  0  0  0  0  0  0  0
    2.9933    0.8682    0.4696 C   0  0  0  1  0  0  0  0  0  0  0  0
   -1.6734    2.9934   -3.6015 C   0  0  0  1  0  0  0  0  0  0  0  0
   -0.1986    4.3050   -2.2431 O   0  0  0  1  0  0  0  0  0  0  0  0
    2.1839    2.7315   -0.1031 H   0  0  0  1  0  0  0  0  0  0  0  0
    2.7001   -0.1114    0.1544 H   0  0  0  1  0  0  0  0  0  0  0  0
    3.1637    0.8666    1.5259 H   0  0  0  1  0  0  0  0  0  0  0  0
    3.8923    1.1514   -0.0368 H   0  0  0  1  0  0  0  0  0  0  0  0
   -1.7027    1.9347   -3.7540 H   0  0  0  1  0  0  0  0  0  0  0  0
   -1.1917    3.4604   -4.4350 H   0  0  0  1  0  0  0  0  0  0  0  0
   -2.6714    3.3681   -3.5099 H   0  0  0  1  0  0  0  0  0  0  0  0
   -0.3054    7.5956    1.3108 F   0  0  0  1  0  0  0  0  0  0  0  0
   -1.6210    7.7059    1.1181 C   0  0  0  1  0  0  0  0  0  0  0  0
   -2.0849    8.4445    2.1273 F   0  0  0  1  0  0  0  0  0  0  0  0
   -1.7766    8.4399    0.0155 F   0  0  0  1  0  0  0  0  0  0  0  0
   -2.3060    6.3632    1.0209 C   0  0  0  1  0  0  0  0  0  0  0  0
   -1.5603    5.1972    1.0778 C   0  0  0  1  0  0  0  0  0  0  0  0
   -2.1691    3.9464    1.0061 C   0  0  0  1  0  0  0  0  0  0  0  0
   -3.5525    3.9042    0.8693 C   0  0  0  1  0  0  0  0  0  0  0  0
   -4.3037    5.0682    0.8018 C   0  0  0  1  0  0  0  0  0  0  0  0
   -3.6836    6.2943    0.8743 C   0  0  0  1  0  0  0  0  0  0  0  0
   -1.3533    2.6770    1.0746 C   0  0  0  1  0  0  0  0  0  0  0  0
   -0.5266    5.2567    1.1760 H   0  0  0  1  0  0  0  0  0  0  0  0
   -4.0325    2.9831    0.8167 H   0  0  0  1  0  0  0  0  0  0  0  0
   -5.3369    5.0142    0.6961 H   0  0  0  1  0  0  0  0  0  0  0  0
   -4.2463    7.1672    0.8194 H   0  0  0  1  0  0  0  0  0  0  0  0
   -0.8272    2.6479    2.0059 H   0  0  0  1  0  0  0  0  0  0  0  0
   -2.0094    1.8344    1.0085 H   0  0  0  1  0  0  0  0  0  0  0  0
  1  4  1  0  0  0  0
  2  4  1  0  0  0  0
  2  5  2  0  0  0  0
  2  6  1  0  0  0  0
  3  4  1  0  0  0  0
  3  7  1  0  0  0  0
  3  8  1  0  0  0  0
  4 29  1  0  0  0  0
  6  9  1  0  0  0  0
  6 12  1  0  0  0  0
  8 10  1  0  0  0  0
  8 11  2  0  0  0  0
  9 13  1  0  0  0  0
  9 14  1  0  0  0  0
  9 15  1  0  0  0  0
 10 16  1  0  0  0  0
 10 17  1  0  0  0  0
 10 18  1  0  0  0  0
 19 20  1  0  0  0  0
 20 21  1  0  0  0  0
 20 22  1  0  0  0  0
 20 23  1  0  0  0  0
 23 24  4  0  0  0  0
 23 28  4  0  0  0  0
 24 25  4  0  0  0  0
 24 30  1  0  0  0  0
 25 26  4  0  0  0  0
 25 29  1  0  0  0  0
 26 27  4  0  0  0  0
 26 31  1  0  0  0  0
 27 28  4  0  0  0  0
 27 32  1  0  0  0  0
 28 33  1  0  0  0  0
 29 34  1  0  0  0  0
 29 35  1  0  0  0  0
M  END
> <BCLConfClusterSize>
1

> <ConfClashScore>
0 

> <ConfOneFourInteractionScore>
-0.971454 

> <ConfScore>
0.00482502 

> <ConfScorePBest>
0.00538449 

> <ConfTolerance>
0.532488 

> <RosettaParamsInstructions>
M  ROOT 3
M  POLY_N_BB 3
M  POLY_CA_BB 4
M  POLY_C_BB 2
M  POLY_O_BB 5
M  POLY_IGNORE 9 10 11 12 13 14 15 16 17 18 
M  POLY_UPPER 6
M  POLY_LOWER 8
M  POLY_CHG 0
M  POLY_PROPERTIES ALPHA_AA L_AA PROTEIN AROMATIC POLYMER 
M  END

$$$$



 35 35  0  0  0  0  0  0  0  0999 V2000
   -2.8090    1.4833    1.8292 H   0  0  0  1  0  0  0  0  0  0  0  0
   -0.9519    0.4748    1.9765 C   0  0  0  1  0  0  0  0  0  0  0  0
   -1.6864    2.3862    3.3165 N   0  0  0  1  0  0  0  0  0  0  0  0
   -1.7884    1.7504    2.0077 C   0  0  0  1  0  0  0  0  0  0  0  0
    0.0695    0.3658    2.6498 O   0  0  0  1  0  0  0  0  0  0  0  0
   -1.4031   -0.4947    1.1792 N   0  0  0  1  0  0  0  0  0  0  0  0
   -0.8085    2.6918    3.6267 H   0  0  0  1  0  0  0  0  0  0  0  0
   -2.7483    2.5664    4.1071 C   0  0  0  1  0  0  0  0  0  0  0  0
   -0.6608   -1.7399    1.0508 C   0  0  0  1  0  0  0  0  0  0  0  0
   -2.4381    3.1465    5.4851 C   0  0  0  1  0  0  0  0  0  0  0  0
   -3.8913    2.2297    3.8042 O   0  0  0  1  0  0  0  0  0  0  0  0
   -2.2362   -0.3683    0.6789 H   0  0  0  1  0  0  0  0  0  0  0  0
   -0.7506   -2.3042    1.9554 H   0  0  0  1  0  0  0  0  0  0  0  0
    0.3707   -1.5226    0.8671 H   0  0  0  1  0  0  0  0  0  0  0  0
   -1.0568   -2.3084    0.2353 H   0  0  0  1  0  0  0  0  0  0  0  0
   -3.3145    3.6164    5.8803 H   0  0  0  1  0  0  0  0  0  0  0  0
   -1.6540    3.8694    5.3993 H   0  0  0  1  0  0  0  0  0  0  0  0
   -2.1286    2.3601    6.1414 H   0  0  0  1  0  0  0  0  0  0  0  0
   -0.4361    7.6908    0.5053 F   0  0  0  1  0  0  0  0  0  0  0  0
   -1.6244    7.7117    1.1070 C   0  0  0  1  0  0  0  0  0  0  0  0
   -1.4012    8.0657    2.3699 F   0  0  0  1  0  0  0  0  0  0  0  0
   -2.3249    8.6752    0.5497 F   0  0  0  1  0  0  0  0  0  0  0  0
   -2.3065    6.3665    1.0249 C   0  0  0  1  0  0  0  0  0  0  0  0
   -1.5495    5.2055    1.0054 C   0  0  0  1  0  0  0  0  0  0  0  0
   -2.1734    3.9748    0.9249 C   0  0  0  1  0  0  0  0  0  0  0  0
   -3.5565    3.9014    0.8689 C   0  0  0  1  0  0  0  0  0  0  0  0
   -4.3115    5.0590    0.8883 C   0  0  0  1  0  0  0  0  0  0  0  0
   -3.6856    6.2932    0.9691 C   0  0  0  1  0  0  0  0  0  0  0  0
   -1.3482    2.7100    0.8978 C   0  0  0  1  0  0  0  0  0  0  0  0
   -0.5120    5.2604    1.0515 H   0  0  0  1  0  0  0  0  0  0  0  0
   -4.0261    2.9752    0.8123 H   0  0  0  1  0  0  0  0  0  0  0  0
   -5.3490    5.0040    0.8422 H   0  0  0  1  0  0  0  0  0  0  0  0
   -4.2538    7.1641    0.9877 H   0  0  0  1  0  0  0  0  0  0  0  0
   -1.4725    2.2302   -0.0505 H   0  0  0  1  0  0  0  0  0  0  0  0
   -0.3175    2.9605    1.0390 H   0  0  0  1  0  0  0  0  0  0  0  0
  1  4  1  0  0  0  0
  2  4  1  0  0  0  0
  2  5  2  0  0  0  0
  2  6  1  0  0  0  0
  3  4  1  0  0  0  0
  3  7  1  0  0  0  0
  3  8  1  0  0  0  0
  4 29  1  0  0  0  0
  6  9  1  0  0  0  0
  6 12  1  0  0  0  0
  8 10  1  0  0  0  0
  8 11  2  0  0  0  0
  9 13  1  0  0  0  0
  9 14  1  0  0  0  0
  9 15  1  0  0  0  0
 10 16  1  0  0  0  0
 10 17  1  0  0  0  0
 10 18  1  0  0  0  0
 19 20  1  0  0  0  0
 20 21  1  0  0  0  0
 20 22  1  0  0  0  0
 20 23  1  0  0  0  0
 23 24  4  0  0  0  0
 23 28  4  0  0  0  0
 24 25  4  0  0  0  0
 24 30  1  0  0  0  0
 25 26  4  0  0  0  0
 25 29  1  0  0  0  0
 26 27  4  0  0  0  0
 26 31  1  0  0  0  0
 27 28  4  0  0  0  0
 27 32  1  0  0  0  0
 28 33  1  0  0  0  0
 29 34  1  0  0  0  0
 29 35  1  0  0  0  0
M  END
> <BCLConfClusterSize>
1

> <ConfClashScore>
0 

> <ConfOneFourInteractionScore>
-0.990503 

> <ConfScore>
0.00869903 

> <ConfScorePBest>
0.00535601 

> <ConfTolerance>
0.483159 

> <RosettaParamsInstructions>
M  ROOT 3
M  POLY_N_BB 3
M  POLY_CA_BB 4
M  POLY_C_BB 2
M  POLY_O_BB 5
M  POLY_IGNORE 9 10 11 12 13 14 15 16 17 18 
M  POLY_UPPER 6
M  POLY_LOWER 8
M  POLY_CHG 0
M  POLY_PROPERTIES ALPHA_AA L_AA PROTEIN AROMATIC POLYMER 
M  END

$$$$



 35 35  0  0  0  0  0  0  0  0999 V2000
   -0.0961    1.4407    0.1429 H   0  0  0  1  0  0  0  0  0  0  0  0
   -1.9073    1.4572   -0.9078 C   0  0  0  1  0  0  0  0  0  0  0  0
   -0.1940    3.2144   -0.8831 N   0  0  0  1  0  0  0  0  0  0  0  0
   -0.8406    2.1700   -0.0995 C   0  0  0  1  0  0  0  0  0  0  0  0
   -2.5429    2.0430   -1.7833 O   0  0  0  1  0  0  0  0  0  0  0  0
   -2.1031    0.1645   -0.6035 N   0  0  0  1  0  0  0  0  0  0  0  0
   -0.6633    3.5808   -1.6615 H   0  0  0  1  0  0  0  0  0  0  0  0
    1.0267    3.6940   -0.5747 C   0  0  0  1  0  0  0  0  0  0  0  0
   -3.1864   -0.6152   -1.1834 C   0  0  0  1  0  0  0  0  0  0  0  0
    1.5216    4.7614   -1.5312 C   0  0  0  1  0  0  0  0  0  0  0  0
    1.7028    3.3236    0.3838 O   0  0  0  1  0  0  0  0  0  0  0  0
   -1.4953   -0.2693    0.0313 H   0  0  0  1  0  0  0  0  0  0  0  0
   -3.3164   -1.5177   -0.6234 H   0  0  0  1  0  0  0  0  0  0  0  0
   -2.9482   -0.8566   -2.1982 H   0  0  0  1  0  0  0  0  0  0  0  0
   -4.0911   -0.0446   -1.1549 H   0  0  0  1  0  0  0  0  0  0  0  0
    0.7845    5.5321   -1.6186 H   0  0  0  1  0  0  0  0  0  0  0  0
    1.6969    4.3252   -2.4924 H   0  0  0  1  0  0  0  0  0  0  0  0
    2.4325    5.1803   -1.1575 H   0  0  0  1  0  0  0  0  0  0  0  0
   -0.4527    7.6659    1.7785 F   0  0  0  1  0  0  0  0  0  0  0  0
   -1.6089    7.7246    1.1152 C   0  0  0  1  0  0  0  0  0  0  0  0
   -2.3530    8.6362    1.7433 F   0  0  0  1  0  0  0  0  0  0  0  0
   -1.3259    8.2350   -0.0839 F   0  0  0  1  0  0  0  0  0  0  0  0
   -2.2952    6.3771    1.0252 C   0  0  0  1  0  0  0  0  0  0  0  0
   -1.5767    5.1946    1.1654 C   0  0  0  1  0  0  0  0  0  0  0  0
   -2.2018    3.9595    1.0791 C   0  0  0  1  0  0  0  0  0  0  0  0
   -3.5575    3.8868    0.8552 C   0  0  0  1  0  0  0  0  0  0  0  0
   -4.2982    5.0518    0.7217 C   0  0  0  1  0  0  0  0  0  0  0  0
   -3.6665    6.2823    0.7991 C   0  0  0  1  0  0  0  0  0  0  0  0
   -1.3934    2.6927    1.2310 C   0  0  0  1  0  0  0  0  0  0  0  0
   -0.5521    5.2373    1.3383 H   0  0  0  1  0  0  0  0  0  0  0  0
   -4.0255    2.9606    0.7862 H   0  0  0  1  0  0  0  0  0  0  0  0
   -5.3249    5.0018    0.5640 H   0  0  0  1  0  0  0  0  0  0  0  0
   -4.2264    7.1514    0.6864 H   0  0  0  1  0  0  0  0  0  0  0  0
   -0.5716    2.8897    1.8873 H   0  0  0  1  0  0  0  0  0  0  0  0
   -2.0197    1.9383    1.6595 H   0  0  0  1  0  0  0  0  0  0  0  0
  1  4  1  0  0  0  0
  2  4  1  0  0  0  0
  2  5  2  0  0  0  0
  2  6  1  0  0  0  0
  3  4  1  0  0  0  0
  3  7  1  0  0  0  0
  3  8  1  0  0  0  0
  4 29  1  0  0  0  0
  6  9  1  0  0  0  0
  6 12  1  0  0  0  0
  8 10  1  0  0  0  0
  8 11  2  0  0  0  0
  9 13  1  0  0  0  0
  9 14  1  0  0  0  0
  9 15  1  0  0  0  0
 10 16  1  0  0  0  0
 10 17  1  0  0  0  0
 10 18  1  0  0  0  0
 19 20  1  0  0  0  0
 20 21  1  0  0  0  0
 20 22  1  0  0  0  0
 20 23  1  0  0  0  0
 23 24  4  0  0  0  0
 23 28  4  0  0  0  0
 24 25  4  0  0  0  0
 24 30  1  0  0  0  0
 25 26  4  0  0  0  0
 25 29  1  0  0  0  0
 26 27  4  0  0  0  0
 26 31  1  0  0  0  0
 27 28  4  0  0  0  0
 27 32  1  0  0  0  0
 28 33  1  0  0  0  0
 29 34  1  0  0  0  0
 29 35  1  0  0  0  0
M  END
> <BCLConfClusterSize>
1

> <ConfClashScore>
0 

> <ConfOneFourInteractionScore>
-0.982677 

> <ConfScore>
0.00933606 

> <ConfScorePBest>
0.00532753 

> <ConfTolerance>
0.514554 

> <RosettaParamsInstructions>
M  ROOT 3
M  POLY_N_BB 3
M  POLY_CA_BB 4
M  POLY_C_BB 2
M  POLY_O_BB 5
M  POLY_IGNORE 9 10 11 12 13 14 15 16 17 18 
M  POLY_UPPER 6
M  POLY_LOWER 8
M  POLY_CHG 0
M  POLY_PROPERTIES ALPHA_AA L_AA PROTEIN AROMATIC POLYMER 
M  END

$$$$



 35 35  0  0  0  0  0  0  0  0999 V2000
   -1.2501    2.9740    3.3738 H   0  0  0  1  0  0  0  0  0  0  0  0
   -0.1675    1.2116    2.9167 C   0  0  0  1  0  0  0  0  0  0  0  0
    0.5620    3.5134    2.5359 N   0  0  0  1  0  0  0  0  0  0  0  0
   -0.5996    2.6387    2.5932 C   0  0  0  1  0  0  0  0  0  0  0  0
   -0.8236    0.4969    3.6562 O   0  0  0  1  0  0  0  0  0  0  0  0
    0.9682    0.8475    2.3205 N   0  0  0  1  0  0  0  0  0  0  0  0
    0.7477    3.9651    1.6863 H   0  0  0  1  0  0  0  0  0  0  0  0
    1.3929    3.7466    3.5524 C   0  0  0  1  0  0  0  0  0  0  0  0
    1.5849   -0.4625    2.4673 C   0  0  0  1  0  0  0  0  0  0  0  0
    2.4603    4.7944    3.3036 C   0  0  0  1  0  0  0  0  0  0  0  0
    1.3139    3.1591    4.6304 O   0  0  0  1  0  0  0  0  0  0  0  0
    1.4162    1.5038    1.7470 H   0  0  0  1  0  0  0  0  0  0  0  0
    1.0007   -1.1926    1.9470 H   0  0  0  1  0  0  0  0  0  0  0  0
    1.6341   -0.7190    3.5049 H   0  0  0  1  0  0  0  0  0  0  0  0
    2.5732   -0.4391    2.0579 H   0  0  0  1  0  0  0  0  0  0  0  0
    3.4267    4.3661    3.4695 H   0  0  0  1  0  0  0  0  0  0  0  0
    2.3153    5.6167    3.9726 H   0  0  0  1  0  0  0  0  0  0  0  0
    2.3922    5.1396    2.2931 H   0  0  0  1  0  0  0  0  0  0  0  0
   -0.5214    7.6643    1.8668 F   0  0  0  1  0  0  0  0  0  0  0  0
   -1.6228    7.7047    1.1151 C   0  0  0  1  0  0  0  0  0  0  0  0
   -2.4051    8.6434    1.6501 F   0  0  0  1  0  0  0  0  0  0  0  0
   -1.2446    8.1683   -0.0769 F   0  0  0  1  0  0  0  0  0  0  0  0
   -2.3097    6.3627    1.0226 C   0  0  0  1  0  0  0  0  0  0  0  0
   -1.5752    5.1965    1.1776 C   0  0  0  1  0  0  0  0  0  0  0  0
   -2.1820    3.9473    1.1018 C   0  0  0  1  0  0  0  0  0  0  0  0
   -3.5531    3.9037    0.8601 C   0  0  0  1  0  0  0  0  0  0  0  0
   -4.2905    5.0647    0.6946 C   0  0  0  1  0  0  0  0  0  0  0  0
   -3.6634    6.2986    0.7846 C   0  0  0  1  0  0  0  0  0  0  0  0
   -1.3802    2.6792    1.2758 C   0  0  0  1  0  0  0  0  0  0  0  0
   -0.5520    5.2572    1.3538 H   0  0  0  1  0  0  0  0  0  0  0  0
   -4.0322    2.9824    0.8029 H   0  0  0  1  0  0  0  0  0  0  0  0
   -5.3114    5.0113    0.5033 H   0  0  0  1  0  0  0  0  0  0  0  0
   -4.2150    7.1731    0.6726 H   0  0  0  1  0  0  0  0  0  0  0  0
   -2.0511    1.8460    1.2517 H   0  0  0  1  0  0  0  0  0  0  0  0
   -0.6854    2.6017    0.4657 H   0  0  0  1  0  0  0  0  0  0  0  0
  1  4  1  0  0  0  0
  2  4  1  0  0  0  0
  2  5  2  0  0  0  0
  2  6  1  0  0  0  0
  3  4  1  0  0  0  0
  3  7  1  0  0  0  0
  3  8  1  0  0  0  0
  4 29  1  0  0  0  0
  6  9  1  0  0  0  0
  6 12  1  0  0  0  0
  8 10  1  0  0  0  0
  8 11  2  0  0  0  0
  9 13  1  0  0  0  0
  9 14  1  0  0  0  0
  9 15  1  0  0  0  0
 10 16  1  0  0  0  0
 10 17  1  0  0  0  0
 10 18  1  0  0  0  0
 19 20  1  0  0  0  0
 20 21  1  0  0  0  0
 20 22  1  0  0  0  0
 20 23  1  0  0  0  0
 23 24  4  0  0  0  0
 23 28  4  0  0  0  0
 24 25  4  0  0  0  0
 24 30  1  0  0  0  0
 25 26  4  0  0  0  0
 25 29  1  0  0  0  0
 26 27  4  0  0  0  0
 26 31  1  0  0  0  0
 27 28  4  0  0  0  0
 27 32  1  0  0  0  0
 28 33  1  0  0  0  0
 29 34  1  0  0  0  0
 29 35  1  0  0  0  0
M  END
> <BCLConfClusterSize>
1

> <ConfClashScore>
0 

> <ConfOneFourInteractionScore>
-0.944706 

> <ConfScore>
0.0109973 

> <ConfScorePBest>
0.00529905 

> <ConfTolerance>
0.55238 

> <RosettaParamsInstructions>
M  ROOT 3
M  POLY_N_BB 3
M  POLY_CA_BB 4
M  POLY_C_BB 2
M  POLY_O_BB 5
M  POLY_IGNORE 9 10 11 12 13 14 15 16 17 18 
M  POLY_UPPER 6
M  POLY_LOWER 8
M  POLY_CHG 0
M  POLY_PROPERTIES ALPHA_AA L_AA PROTEIN AROMATIC POLYMER 
M  END

$$$$



 35 35  0  0  0  0  0  0  0  0999 V2000
   -0.8980    1.0817    2.3233 H   0  0  0  1  0  0  0  0  0  0  0  0
   -0.3711    2.8721    3.3257 C   0  0  0  1  0  0  0  0  0  0  0  0
   -2.6293    1.9812    3.0168 N   0  0  0  1  0  0  0  0  0  0  0  0
   -1.3006    2.0682    2.4214 C   0  0  0  1  0  0  0  0  0  0  0  0
    0.8121    2.6098    3.4420 O   0  0  0  1  0  0  0  0  0  0  0  0
   -0.8703    3.9061    4.0198 N   0  0  0  1  0  0  0  0  0  0  0  0
   -3.3868    2.3002    2.4831 H   0  0  0  1  0  0  0  0  0  0  0  0
   -2.8940    1.4946    4.2470 C   0  0  0  1  0  0  0  0  0  0  0  0
   -0.0076    4.6797    4.9003 C   0  0  0  1  0  0  0  0  0  0  0  0
   -4.3460    1.3156    4.6456 C   0  0  0  1  0  0  0  0  0  0  0  0
   -1.9874    1.2044    5.0231 O   0  0  0  1  0  0  0  0  0  0  0  0
   -1.8178    4.1410    3.9336 H   0  0  0  1  0  0  0  0  0  0  0  0
    0.9947    4.3115    4.8320 H   0  0  0  1  0  0  0  0  0  0  0  0
   -0.3532    4.5876    5.9088 H   0  0  0  1  0  0  0  0  0  0  0  0
   -0.0301    5.7086    4.6076 H   0  0  0  1  0  0  0  0  0  0  0  0
   -4.8478    0.7223    3.9100 H   0  0  0  1  0  0  0  0  0  0  0  0
   -4.8178    2.2736    4.7131 H   0  0  0  1  0  0  0  0  0  0  0  0
   -4.3971    0.8246    5.5949 H   0  0  0  1  0  0  0  0  0  0  0  0
   -0.2806    7.6167    1.1446 F   0  0  0  1  0  0  0  0  0  0  0  0
   -1.6102    7.7218    1.1125 C   0  0  0  1  0  0  0  0  0  0  0  0
   -1.9568    8.4025    2.2061 F   0  0  0  1  0  0  0  0  0  0  0  0
   -1.8977    8.5094    0.0754 F   0  0  0  1  0  0  0  0  0  0  0  0
   -2.2949    6.3782    1.0260 C   0  0  0  1  0  0  0  0  0  0  0  0
   -1.5636    5.1959    1.0665 C   0  0  0  1  0  0  0  0  0  0  0  0
   -2.1892    3.9608    0.9829 C   0  0  0  1  0  0  0  0  0  0  0  0
   -3.5579    3.8879    0.8618 C   0  0  0  1  0  0  0  0  0  0  0  0
   -4.3107    5.0524    0.8291 C   0  0  0  1  0  0  0  0  0  0  0  0
   -3.6791    6.2831    0.9032 C   0  0  0  1  0  0  0  0  0  0  0  0
   -1.3671    2.6944    1.0249 C   0  0  0  1  0  0  0  0  0  0  0  0
   -0.5288    5.2386    1.1612 H   0  0  0  1  0  0  0  0  0  0  0  0
   -4.0267    2.9620    0.7948 H   0  0  0  1  0  0  0  0  0  0  0  0
   -5.3464    5.0017    0.7493 H   0  0  0  1  0  0  0  0  0  0  0  0
   -4.2491    7.1522    0.8663 H   0  0  0  1  0  0  0  0  0  0  0  0
   -1.8017    1.9838    0.3533 H   0  0  0  1  0  0  0  0  0  0  0  0
   -0.3716    2.9239    0.7069 H   0  0  0  1  0  0  0  0  0  0  0  0
  1  4  1  0  0  0  0
  2  4  1  0  0  0  0
  2  5  2  0  0  0  0
  2  6  1  0  0  0  0
  3  4  1  0  0  0  0
  3  7  1  0  0  0  0
  3  8  1  0  0  0  0
  4 29  1  0  0  0  0
  6  9  1  0  0  0  0
  6 12  1  0  0  0  0
  8 10  1  0  0  0  0
  8 11  2  0  0  0  0
  9 13  1  0  0  0  0
  9 14  1  0  0  0  0
  9 15  1  0  0  0  0
 10 16  1  0  0  0  0
 10 17  1  0  0  0  0
 10 18  1  0  0  0  0
 19 20  1  0  0  0  0
 20 21  1  0  0  0  0
 20 22  1  0  0  0  0
 20 23  1  0  0  0  0
 23 24  4  0  0  0  0
 23 28  4  0  0  0  0
 24 25  4  0  0  0  0
 24 30  1  0  0  0  0
 25 26  4  0  0  0  0
 25 29  1  0  0  0  0
 26 27  4  0  0  0  0
 26 31  1  0  0  0  0
 27 28  4  0  0  0  0
 27 32  1  0  0  0  0
 28 33  1  0  0  0  0
 29 34  1  0  0  0  0
 29 35  1  0  0  0  0
M  END
> <BCLConfClusterSize>
1

> <ConfClashScore>
0 

> <ConfOneFourInteractionScore>
-0.950605 

> <ConfScore>
0.0122788 

> <ConfScorePBest>
0.00527057 

> <ConfTolerance>
0.418325 

> <RosettaParamsInstructions>
M  ROOT 3
M  POLY_N_BB 3
M  POLY_CA_BB 4
M  POLY_C_BB 2
M  POLY_O_BB 5
M  POLY_IGNORE 9 10 11 12 13 14 15 16 17 18 
M  POLY_UPPER 6
M  POLY_LOWER 8
M  POLY_CHG 0
M  POLY_PROPERTIES ALPHA_AA L_AA PROTEIN AROMATIC POLYMER 
M  END

$$$$



 35 35  0  0  0  0  0  0  0  0999 V2000
    0.5609    3.4408    0.3225 H   0  0  0  1  0  0  0  0  0  0  0  0
    0.4906    1.3420   -0.0677 C   0  0  0  1  0  0  0  0  0  0  0  0
   -0.6162    3.1118   -1.3682 N   0  0  0  1  0  0  0  0  0  0  0  0
   -0.1515    2.7293   -0.0396 C   0  0  0  1  0  0  0  0  0  0  0  0
   -0.1633    0.3621   -0.4227 O   0  0  0  1  0  0  0  0  0  0  0  0
    1.7473    1.2401    0.3933 N   0  0  0  1  0  0  0  0  0  0  0  0
   -1.2646    2.5273   -1.8134 H   0  0  0  1  0  0  0  0  0  0  0  0
   -0.2149    4.2062   -2.0156 C   0  0  0  1  0  0  0  0  0  0  0  0
    2.5335    0.0155    0.4056 C   0  0  0  1  0  0  0  0  0  0  0  0
   -0.8250    4.4211   -3.3870 C   0  0  0  1  0  0  0  0  0  0  0  0
    0.5970    5.0019   -1.5464 O   0  0  0  1  0  0  0  0  0  0  0  0
    2.1668    2.0514    0.7483 H   0  0  0  1  0  0  0  0  0  0  0  0
    2.7346   -0.2899   -0.6000 H   0  0  0  1  0  0  0  0  0  0  0  0
    1.9867   -0.7541    0.9092 H   0  0  0  1  0  0  0  0  0  0  0  0
    3.4572    0.1901    0.9165 H   0  0  0  1  0  0  0  0  0  0  0  0
   -0.6539    3.5564   -3.9935 H   0  0  0  1  0  0  0  0  0  0  0  0
   -0.3737    5.2748   -3.8480 H   0  0  0  1  0  0  0  0  0  0  0  0
   -1.8778    4.5839   -3.2873 H   0  0  0  1  0  0  0  0  0  0  0  0
   -0.4549    7.7266    0.4598 F   0  0  0  1  0  0  0  0  0  0  0  0
   -1.6200    7.7055    1.1095 C   0  0  0  1  0  0  0  0  0  0  0  0
   -1.3529    8.0664    2.3656 F   0  0  0  1  0  0  0  0  0  0  0  0
   -2.3566    8.6869    0.5873 F   0  0  0  1  0  0  0  0  0  0  0  0
   -2.3043    6.3615    1.0266 C   0  0  0  1  0  0  0  0  0  0  0  0
   -1.5491    5.1993    1.0041 C   0  0  0  1  0  0  0  0  0  0  0  0
   -2.1750    3.9697    0.9229 C   0  0  0  1  0  0  0  0  0  0  0  0
   -3.5584    3.8985    0.8693 C   0  0  0  1  0  0  0  0  0  0  0  0
   -4.3115    5.0573    0.8918 C   0  0  0  1  0  0  0  0  0  0  0  0
   -3.6835    6.2903    0.9732 C   0  0  0  1  0  0  0  0  0  0  0  0
   -1.3518    2.7036    0.8924 C   0  0  0  1  0  0  0  0  0  0  0  0
   -0.5114    5.2526    1.0483 H   0  0  0  1  0  0  0  0  0  0  0  0
   -4.0296    2.9732    0.8123 H   0  0  0  1  0  0  0  0  0  0  0  0
   -5.3492    5.0040    0.8476 H   0  0  0  1  0  0  0  0  0  0  0  0
   -4.2503    7.1621    0.9942 H   0  0  0  1  0  0  0  0  0  0  0  0
   -0.9958    2.5175    1.8841 H   0  0  0  1  0  0  0  0  0  0  0  0
   -1.9907    1.9019    0.5859 H   0  0  0  1  0  0  0  0  0  0  0  0
  1  4  1  0  0  0  0
  2  4  1  0  0  0  0
  2  5  2  0  0  0  0
  2  6  1  0  0  0  0
  3  4  1  0  0  0  0
  3  7  1  0  0  0  0
  3  8  1  0  0  0  0
  4 29  1  0  0  0  0
  6  9  1  0  0  0  0
  6 12  1  0  0  0  0
  8 10  1  0  0  0  0
  8 11  2  0  0  0  0
  9 13  1  0  0  0  0
  9 14  1  0  0  0  0
  9 15  1  0  0  0  0
 10 16  1  0  0  0  0
 10 17  1  0  0  0  0
 10 18  1  0  0  0  0
 19 20  1  0  0  0  0
 20 21  1  0  0  0  0
 20 22  1  0  0  0  0
 20 23  1  0  0  0  0
 23 24  4  0  0  0  0
 23 28  4  0  0  0  0
 24 25  4  0  0  0  0
 24 30  1  0  0  0  0
 25 26  4  0  0  0  0
 25 29  1  0  0  0  0
 26 27  4  0  0  0  0
 26 31  1  0  0  0  0
 27 28  4  0  0  0  0
 27 32  1  0  0  0  0
 28 33  1  0  0  0  0
 29 34  1  0  0  0  0
 29 35  1  0  0  0  0
M  END
> <BCLConfClusterSize>
1

> <ConfClashScore>
0 

> <ConfOneFourInteractionScore>
-0.979134 

> <ConfScore>
0.0172234 

> <ConfScorePBest>
0.00524209 

> <ConfTolerance>
0.562482 

> <RosettaParamsInstructions>
M  ROOT 3
M  POLY_N_BB 3
M  POLY_CA_BB 4
M  POLY_C_BB 2
M  POLY_O_BB 5
M  POLY_IGNORE 9 10 11 12 13 14 15 16 17 18 
M  POLY_UPPER 6
M  POLY_LOWER 8
M  POLY_CHG 0
M  POLY_PROPERTIES ALPHA_AA L_AA PROTEIN AROMATIC POLYMER 
M  END

$$$$



 35 35  0  0  0  0  0  0  0  0999 V2000
   -0.4435    1.2888    2.2093 H   0  0  0  1  0  0  0  0  0  0  0  0
    0.2894    3.1515    2.7958 C   0  0  0  1  0  0  0  0  0  0  0  0
   -1.9533    2.1764    3.2574 N   0  0  0  1  0  0  0  0  0  0  0  0
   -0.8495    2.2730    2.3158 C   0  0  0  1  0  0  0  0  0  0  0  0
    0.1058    4.0613    3.6034 O   0  0  0  1  0  0  0  0  0  0  0  0
    1.4782    2.8351    2.2585 N   0  0  0  1  0  0  0  0  0  0  0  0
   -2.3020    2.9974    3.6632 H   0  0  0  1  0  0  0  0  0  0  0  0
   -2.5112    1.0016    3.5903 C   0  0  0  1  0  0  0  0  0  0  0  0
    2.6782    3.5500    2.6671 C   0  0  0  1  0  0  0  0  0  0  0  0
   -3.6805    1.0480    4.5820 C   0  0  0  1  0  0  0  0  0  0  0  0
   -2.1803   -0.0673    3.0839 O   0  0  0  1  0  0  0  0  0  0  0  0
    1.5382    2.1212    1.5898 H   0  0  0  1  0  0  0  0  0  0  0  0
    2.4158    4.5393    2.9789 H   0  0  0  1  0  0  0  0  0  0  0  0
    3.3584    3.6047    1.8429 H   0  0  0  1  0  0  0  0  0  0  0  0
    3.1426    3.0316    3.4797 H   0  0  0  1  0  0  0  0  0  0  0  0
   -3.3018    1.0173    5.5823 H   0  0  0  1  0  0  0  0  0  0  0  0
   -4.3210    0.2069    4.4174 H   0  0  0  1  0  0  0  0  0  0  0  0
   -4.2342    1.9522    4.4381 H   0  0  0  1  0  0  0  0  0  0  0  0
   -0.3703    7.6750    0.6524 F   0  0  0  1  0  0  0  0  0  0  0  0
   -1.6208    7.7059    1.1163 C   0  0  0  1  0  0  0  0  0  0  0  0
   -1.5420    8.1522    2.3709 F   0  0  0  1  0  0  0  0  0  0  0  0
   -2.2533    8.6527    0.4219 F   0  0  0  1  0  0  0  0  0  0  0  0
   -2.3064    6.3634    1.0217 C   0  0  0  1  0  0  0  0  0  0  0  0
   -1.5553    5.1994    1.0058 C   0  0  0  1  0  0  0  0  0  0  0  0
   -2.1636    3.9484    0.9347 C   0  0  0  1  0  0  0  0  0  0  0  0
   -3.5524    3.9038    0.8743 C   0  0  0  1  0  0  0  0  0  0  0  0
   -4.3094    5.0659    0.8799 C   0  0  0  1  0  0  0  0  0  0  0  0
   -3.6897    6.2924    0.9504 C   0  0  0  1  0  0  0  0  0  0  0  0
   -1.3416    2.6812    0.9237 C   0  0  0  1  0  0  0  0  0  0  0  0
   -0.5179    5.2609    1.0477 H   0  0  0  1  0  0  0  0  0  0  0  0
   -4.0319    2.9823    0.8240 H   0  0  0  1  0  0  0  0  0  0  0  0
   -5.3468    5.0102    0.8306 H   0  0  0  1  0  0  0  0  0  0  0  0
   -4.2572    7.1640    0.9503 H   0  0  0  1  0  0  0  0  0  0  0  0
   -1.9427    1.8888    0.5291 H   0  0  0  1  0  0  0  0  0  0  0  0
   -0.4910    2.8325    0.2926 H   0  0  0  1  0  0  0  0  0  0  0  0
  1  4  1  0  0  0  0
  2  4  1  0  0  0  0
  2  5  2  0  0  0  0
  2  6  1  0  0  0  0
  3  4  1  0  0  0  0
  3  7  1  0  0  0  0
  3  8  1  0  0  0  0
  4 29  1  0  0  0  0
  6  9  1  0  0  0  0
  6 12  1  0  0  0  0
  8 10  1  0  0  0  0
  8 11  2  0  0  0  0
  9 13  1  0  0  0  0
  9 14  1  0  0  0  0
  9 15  1  0  0  0  0
 10 16  1  0  0  0  0
 10 17  1  0  0  0  0
 10 18  1  0  0  0  0
 19 20  1  0  0  0  0
 20 21  1  0  0  0  0
 20 22  1  0  0  0  0
 20 23  1  0  0  0  0
 23 24  4  0  0  0  0
 23 28  4  0  0  0  0
 24 25  4  0  0  0  0
 24 30  1  0  0  0  0
 25 26  4  0  0  0  0
 25 29  1  0  0  0  0
 26 27  4  0  0  0  0
 26 31  1  0  0  0  0
 27 28  4  0  0  0  0
 27 32  1  0  0  0  0
 28 33  1  0  0  0  0
 29 34  1  0  0  0  0
 29 35  1  0  0  0  0
M  END
> <BCLConfClusterSize>
1

> <ConfClashScore>
0 

> <ConfOneFourInteractionScore>
-0.980789 

> <ConfScore>
0.0191639 

> <ConfScorePBest>
0.00521361 

> <ConfTolerance>
0.563709 

> <RosettaParamsInstructions>
M  ROOT 3
M  POLY_N_BB 3
M  POLY_CA_BB 4
M  POLY_C_BB 2
M  POLY_O_BB 5
M  POLY_IGNORE 9 10 11 12 13 14 15 16 17 18 
M  POLY_UPPER 6
M  POLY_LOWER 8
M  POLY_CHG 0
M  POLY_PROPERTIES ALPHA_AA L_AA PROTEIN AROMATIC POLYMER 
M  END

$$$$



 35 35  0  0  0  0  0  0  0  0999 V2000
   -2.8652    1.5833    2.3924 H   0  0  0  1  0  0  0  0  0  0  0  0
   -1.0272    0.5601    2.5372 C   0  0  0  1  0  0  0  0  0  0  0  0
   -1.7060    2.6169    3.7535 N   0  0  0  1  0  0  0  0  0  0  0  0
   -1.8361    1.8426    2.5282 C   0  0  0  1  0  0  0  0  0  0  0  0
   -1.0472   -0.2053    1.5741 O   0  0  0  1  0  0  0  0  0  0  0  0
   -0.2906    0.2861    3.6255 N   0  0  0  1  0  0  0  0  0  0  0  0
   -0.9003    3.1585    3.8875 H   0  0  0  1  0  0  0  0  0  0  0  0
   -2.6468    2.6152    4.7021 C   0  0  0  1  0  0  0  0  0  0  0  0
    0.5389   -0.8978    3.7937 C   0  0  0  1  0  0  0  0  0  0  0  0
   -2.3645    3.4853    5.9114 C   0  0  0  1  0  0  0  0  0  0  0  0
   -3.6736    1.9617    4.6182 O   0  0  0  1  0  0  0  0  0  0  0  0
   -0.3131    0.9320    4.3622 H   0  0  0  1  0  0  0  0  0  0  0  0
    0.8724   -0.9589    4.8086 H   0  0  0  1  0  0  0  0  0  0  0  0
    1.3861   -0.8347    3.1433 H   0  0  0  1  0  0  0  0  0  0  0  0
   -0.0321   -1.7701    3.5530 H   0  0  0  1  0  0  0  0  0  0  0  0
   -2.6863    4.4865    5.7140 H   0  0  0  1  0  0  0  0  0  0  0  0
   -1.3142    3.4823    6.1154 H   0  0  0  1  0  0  0  0  0  0  0  0
   -2.8939    3.1013    6.7583 H   0  0  0  1  0  0  0  0  0  0  0  0
   -0.6662    7.7559    2.0604 F   0  0  0  1  0  0  0  0  0  0  0  0
   -1.6100    7.7260    1.1179 C   0  0  0  1  0  0  0  0  0  0  0  0
   -2.4599    8.7117    1.4100 F   0  0  0  1  0  0  0  0  0  0  0  0
   -1.0109    8.0746   -0.0216 F   0  0  0  1  0  0  0  0  0  0  0  0
   -2.2952    6.3768    1.0246 C   0  0  0  1  0  0  0  0  0  0  0  0
   -1.5862    5.1948    1.2262 C   0  0  0  1  0  0  0  0  0  0  0  0
   -2.2081    3.9601    1.1363 C   0  0  0  1  0  0  0  0  0  0  0  0
   -3.5646    3.8900    0.8560 C   0  0  0  1  0  0  0  0  0  0  0  0
   -4.2824    5.0464    0.6535 C   0  0  0  1  0  0  0  0  0  0  0  0
   -3.6520    6.2791    0.7351 C   0  0  0  1  0  0  0  0  0  0  0  0
   -1.4110    2.6939    1.3430 C   0  0  0  1  0  0  0  0  0  0  0  0
   -0.5712    5.2401    1.4483 H   0  0  0  1  0  0  0  0  0  0  0  0
   -4.0381    2.9658    0.7990 H   0  0  0  1  0  0  0  0  0  0  0  0
   -5.2988    4.9959    0.4390 H   0  0  0  1  0  0  0  0  0  0  0  0
   -4.2040    7.1462    0.5769 H   0  0  0  1  0  0  0  0  0  0  0  0
   -1.5027    2.0981    0.4589 H   0  0  0  1  0  0  0  0  0  0  0  0
   -0.3864    2.9682    1.4842 H   0  0  0  1  0  0  0  0  0  0  0  0
  1  4  1  0  0  0  0
  2  4  1  0  0  0  0
  2  5  2  0  0  0  0
  2  6  1  0  0  0  0
  3  4  1  0  0  0  0
  3  7  1  0  0  0  0
  3  8  1  0  0  0  0
  4 29  1  0  0  0  0
  6  9  1  0  0  0  0
  6 12  1  0  0  0  0
  8 10  1  0  0  0  0
  8 11  2  0  0  0  0
  9 13  1  0  0  0  0
  9 14  1  0  0  0  0
  9 15  1  0  0  0  0
 10 16  1  0  0  0  0
 10 17  1  0  0  0  0
 10 18  1  0  0  0  0
 19 20  1  0  0  0  0
 20 21  1  0  0  0  0
 20 22  1  0  0  0  0
 20 23  1  0  0  0  0
 23 24  4  0  0  0  0
 23 28  4  0  0  0  0
 24 25  4  0  0  0  0
 24 30  1  0  0  0  0
 25 26  4  0  0  0  0
 25 29  1  0  0  0  0
 26 27  4  0  0  0  0
 26 31  1  0  0  0  0
 27 28  4  0  0  0  0
 27 32  1  0  0  0  0
 28 33  1  0  0  0  0
 29 34  1  0  0  0  0
 29 35  1  0  0  0  0
M  END
> <BCLConfClusterSize>
1

> <ConfClashScore>
0 

> <ConfOneFourInteractionScore>
-0.960318 

> <ConfScore>
0.0199591 

> <ConfScorePBest>
0.00518512 

> <ConfTolerance>
0.497201 

> <RosettaParamsInstructions>
M  ROOT 3
M  POLY_N_BB 3
M  POLY_CA_BB 4
M  POLY_C_BB 2
M  POLY_O_BB 5
M  POLY_IGNORE 9 10 11 12 13 14 15 16 17 18 
M  POLY_UPPER 6
M  POLY_LOWER 8
M  POLY_CHG 0
M  POLY_PROPERTIES ALPHA_AA L_AA PROTEIN AROMATIC POLYMER 
M  END

$$$$



 35 35  0  0  0  0  0  0  0  0999 V2000
    0.3368    3.5747    1.8543 H   0  0  0  1  0  0  0  0  0  0  0  0
    0.9301    1.6670    1.2169 C   0  0  0  1  0  0  0  0  0  0  0  0
    0.5845    3.6699   -0.1851 N   0  0  0  1  0  0  0  0  0  0  0  0
    0.1575    2.9492    1.0049 C   0  0  0  1  0  0  0  0  0  0  0  0
    0.9730    1.1222    2.3192 O   0  0  0  1  0  0  0  0  0  0  0  0
    1.5539    1.1762    0.1342 N   0  0  0  1  0  0  0  0  0  0  0  0
   -0.0955    3.9854   -0.8163 H   0  0  0  1  0  0  0  0  0  0  0  0
    1.8774    3.9174   -0.4483 C   0  0  0  1  0  0  0  0  0  0  0  0
    2.4211    0.0076    0.1501 C   0  0  0  1  0  0  0  0  0  0  0  0
    2.1147    4.5296   -1.8151 C   0  0  0  1  0  0  0  0  0  0  0  0
    2.8049    3.6828    0.3219 O   0  0  0  1  0  0  0  0  0  0  0  0
    1.4165    1.6339   -0.7213 H   0  0  0  1  0  0  0  0  0  0  0  0
    2.9737   -0.0395   -0.7650 H   0  0  0  1  0  0  0  0  0  0  0  0
    1.8267   -0.8760    0.2534 H   0  0  0  1  0  0  0  0  0  0  0  0
    3.1007    0.0793    0.9735 H   0  0  0  1  0  0  0  0  0  0  0  0
    2.7320    3.8770   -2.3964 H   0  0  0  1  0  0  0  0  0  0  0  0
    2.6028    5.4751   -1.7022 H   0  0  0  1  0  0  0  0  0  0  0  0
    1.1769    4.6687   -2.3111 H   0  0  0  1  0  0  0  0  0  0  0  0
   -0.3360    7.6188    0.7773 F   0  0  0  1  0  0  0  0  0  0  0  0
   -1.6251    7.7094    1.1089 C   0  0  0  1  0  0  0  0  0  0  0  0
   -1.6627    8.1958    2.3504 F   0  0  0  1  0  0  0  0  0  0  0  0
   -2.1741    8.6243    0.3087 F   0  0  0  1  0  0  0  0  0  0  0  0
   -2.3112    6.3665    1.0230 C   0  0  0  1  0  0  0  0  0  0  0  0
   -1.5570    5.2025    1.0186 C   0  0  0  1  0  0  0  0  0  0  0  0
   -2.1620    3.9524    0.9448 C   0  0  0  1  0  0  0  0  0  0  0  0
   -3.5522    3.9057    0.8706 C   0  0  0  1  0  0  0  0  0  0  0  0
   -4.3104    5.0651    0.8646 C   0  0  0  1  0  0  0  0  0  0  0  0
   -3.6835    6.2995    0.9491 C   0  0  0  1  0  0  0  0  0  0  0  0
   -1.3383    2.6863    0.9451 C   0  0  0  1  0  0  0  0  0  0  0  0
   -0.5203    5.2656    1.0715 H   0  0  0  1  0  0  0  0  0  0  0  0
   -4.0298    2.9833    0.8187 H   0  0  0  1  0  0  0  0  0  0  0  0
   -5.3467    5.0101    0.7968 H   0  0  0  1  0  0  0  0  0  0  0  0
   -4.2492    7.1721    0.9566 H   0  0  0  1  0  0  0  0  0  0  0  0
   -1.6154    2.0999    1.7961 H   0  0  0  1  0  0  0  0  0  0  0  0
   -1.5526    2.1404    0.0501 H   0  0  0  1  0  0  0  0  0  0  0  0
  1  4  1  0  0  0  0
  2  4  1  0  0  0  0
  2  5  2  0  0  0  0
  2  6  1  0  0  0  0
  3  4  1  0  0  0  0
  3  7  1  0  0  0  0
  3  8  1  0  0  0  0
  4 29  1  0  0  0  0
  6  9  1  0  0  0  0
  6 12  1  0  0  0  0
  8 10  1  0  0  0  0
  8 11  2  0  0  0  0
  9 13  1  0  0  0  0
  9 14  1  0  0  0  0
  9 15  1  0  0  0  0
 10 16  1  0  0  0  0
 10 17  1  0  0  0  0
 10 18  1  0  0  0  0
 19 20  1  0  0  0  0
 20 21  1  0  0  0  0
 20 22  1  0  0  0  0
 20 23  1  0  0  0  0
 23 24  4  0  0  0  0
 23 28  4  0  0  0  0
 24 25  4  0  0  0  0
 24 30  1  0  0  0  0
 25 26  4  0  0  0  0
 25 29  1  0  0  0  0
 26 27  4  0  0  0  0
 26 31  1  0  0  0  0
 27 28  4  0  0  0  0
 27 32  1  0  0  0  0
 28 33  1  0  0  0  0
 29 34  1  0  0  0  0
 29 35  1  0  0  0  0
M  END
> <BCLConfClusterSize>
1

> <ConfClashScore>
0 

> <ConfOneFourInteractionScore>
-0.949001 

> <ConfScore>
0.0205671 

> <ConfScorePBest>
0.00515664 

> <ConfTolerance>
0.468403 

> <RosettaParamsInstructions>
M  ROOT 3
M  POLY_N_BB 3
M  POLY_CA_BB 4
M  POLY_C_BB 2
M  POLY_O_BB 5
M  POLY_IGNORE 9 10 11 12 13 14 15 16 17 18 
M  POLY_UPPER 6
M  POLY_LOWER 8
M  POLY_CHG 0
M  POLY_PROPERTIES ALPHA_AA L_AA PROTEIN AROMATIC POLYMER 
M  END

$$$$



 35 35  0  0  0  0  0  0  0  0999 V2000
   -1.3307    2.1245   -0.7993 H   0  0  0  1  0  0  0  0  0  0  0  0
    0.2681    3.4821   -0.4781 C   0  0  0  1  0  0  0  0  0  0  0  0
    0.1855    1.1287    0.1936 N   0  0  0  1  0  0  0  0  0  0  0  0
   -0.6202    2.3209   -0.0237 C   0  0  0  1  0  0  0  0  0  0  0  0
    1.2983    3.6966    0.1552 O   0  0  0  1  0  0  0  0  0  0  0  0
   -0.1574    4.1735   -1.5392 N   0  0  0  1  0  0  0  0  0  0  0  0
    0.1439    0.6820    1.0649 H   0  0  0  1  0  0  0  0  0  0  0  0
    0.9838    0.6195   -0.7580 C   0  0  0  1  0  0  0  0  0  0  0  0
    0.5802    5.3080   -2.0746 C   0  0  0  1  0  0  0  0  0  0  0  0
    1.7243   -0.6505   -0.3865 C   0  0  0  1  0  0  0  0  0  0  0  0
    1.1185    1.1352   -1.8645 O   0  0  0  1  0  0  0  0  0  0  0  0
   -0.9954    3.9074   -1.9721 H   0  0  0  1  0  0  0  0  0  0  0  0
    1.1347    5.7766   -1.2886 H   0  0  0  1  0  0  0  0  0  0  0  0
   -0.1062    6.0127   -2.4957 H   0  0  0  1  0  0  0  0  0  0  0  0
    1.2543    4.9690   -2.8333 H   0  0  0  1  0  0  0  0  0  0  0  0
    1.9170   -0.6567    0.6660 H   0  0  0  1  0  0  0  0  0  0  0  0
    2.6516   -0.6912   -0.9188 H   0  0  0  1  0  0  0  0  0  0  0  0
    1.1269   -1.4999   -0.6444 H   0  0  0  1  0  0  0  0  0  0  0  0
   -0.4662    7.6645    1.7868 F   0  0  0  1  0  0  0  0  0  0  0  0
   -1.6209    7.7030    1.1196 C   0  0  0  1  0  0  0  0  0  0  0  0
   -2.3705    8.6388    1.7042 F   0  0  0  1  0  0  0  0  0  0  0  0
   -1.3175    8.1994   -0.0804 F   0  0  0  1  0  0  0  0  0  0  0  0
   -2.3051    6.3595    1.0289 C   0  0  0  1  0  0  0  0  0  0  0  0
   -1.5676    5.1948    1.1741 C   0  0  0  1  0  0  0  0  0  0  0  0
   -2.1927    3.9652    1.0857 C   0  0  0  1  0  0  0  0  0  0  0  0
   -3.5582    3.8970    0.8572 C   0  0  0  1  0  0  0  0  0  0  0  0
   -4.2937    5.0582    0.7124 C   0  0  0  1  0  0  0  0  0  0  0  0
   -3.6666    6.2912    0.8010 C   0  0  0  1  0  0  0  0  0  0  0  0
   -1.3880    2.6961    1.2381 C   0  0  0  1  0  0  0  0  0  0  0  0
   -0.5438    5.2462    1.3495 H   0  0  0  1  0  0  0  0  0  0  0  0
   -4.0294    2.9719    0.7947 H   0  0  0  1  0  0  0  0  0  0  0  0
   -5.3175    5.0068    0.5369 H   0  0  0  1  0  0  0  0  0  0  0  0
   -4.2207    7.1650    0.6961 H   0  0  0  1  0  0  0  0  0  0  0  0
   -0.6875    2.8308    2.0356 H   0  0  0  1  0  0  0  0  0  0  0  0
   -2.0561    1.8963    1.4808 H   0  0  0  1  0  0  0  0  0  0  0  0
  1  4  1  0  0  0  0
  2  4  1  0  0  0  0
  2  5  2  0  0  0  0
  2  6  1  0  0  0  0
  3  4  1  0  0  0  0
  3  7  1  0  0  0  0
  3  8  1  0  0  0  0
  4 29  1  0  0  0  0
  6  9  1  0  0  0  0
  6 12  1  0  0  0  0
  8 10  1  0  0  0  0
  8 11  2  0  0  0  0
  9 13  1  0  0  0  0
  9 14  1  0  0  0  0
  9 15  1  0  0  0  0
 10 16  1  0  0  0  0
 10 17  1  0  0  0  0
 10 18  1  0  0  0  0
 19 20  1  0  0  0  0
 20 21  1  0  0  0  0
 20 22  1  0  0  0  0
 20 23  1  0  0  0  0
 23 24  4  0  0  0  0
 23 28  4  0  0  0  0
 24 25  4  0  0  0  0
 24 30  1  0  0  0  0
 25 26  4  0  0  0  0
 25 29  1  0  0  0  0
 26 27  4  0  0  0  0
 26 31  1  0  0  0  0
 27 28  4  0  0  0  0
 27 32  1  0  0  0  0
 28 33  1  0  0  0  0
 29 34  1  0  0  0  0
 29 35  1  0  0  0  0
M  END
> <BCLConfClusterSize>
1

> <ConfClashScore>
0 

> <ConfOneFourInteractionScore>
-0.981931 

> <ConfScore>
0.0263903 

> <ConfScorePBest>
0.00512816 

> <ConfTolerance>
0.39548 

> <RosettaParamsInstructions>
M  ROOT 3
M  POLY_N_BB 3
M  POLY_CA_BB 4
M  POLY_C_BB 2
M  POLY_O_BB 5
M  POLY_IGNORE 9 10 11 12 13 14 15 16 17 18 
M  POLY_UPPER 6
M  POLY_LOWER 8
M  POLY_CHG 0
M  POLY_PROPERTIES ALPHA_AA L_AA PROTEIN AROMATIC POLYMER 
M  END

$$$$



 35 35  0  0  0  0  0  0  0  0999 V2000
   -0.3624    1.1538    0.3527 H   0  0  0  1  0  0  0  0  0  0  0  0
   -1.9110    1.8004   -0.9413 C   0  0  0  1  0  0  0  0  0  0  0  0
    0.1959    2.9550   -0.4932 N   0  0  0  1  0  0  0  0  0  0  0  0
   -0.8155    2.0851    0.0836 C   0  0  0  1  0  0  0  0  0  0  0  0
   -2.5084    0.7258   -0.9480 O   0  0  0  1  0  0  0  0  0  0  0  0
   -2.0981    2.7621   -1.8537 N   0  0  0  1  0  0  0  0  0  0  0  0
    0.5594    3.6979    0.0324 H   0  0  0  1  0  0  0  0  0  0  0  0
    0.6330    2.7429   -1.7439 C   0  0  0  1  0  0  0  0  0  0  0  0
   -3.1181    2.6070   -2.8801 C   0  0  0  1  0  0  0  0  0  0  0  0
    1.6607    3.7317   -2.2590 C   0  0  0  1  0  0  0  0  0  0  0  0
    0.2376    1.8129   -2.4419 O   0  0  0  1  0  0  0  0  0  0  0  0
   -1.5471    3.5722   -1.8303 H   0  0  0  1  0  0  0  0  0  0  0  0
   -3.8312    1.8733   -2.5671 H   0  0  0  1  0  0  0  0  0  0  0  0
   -2.6592    2.2910   -3.7936 H   0  0  0  1  0  0  0  0  0  0  0  0
   -3.6137    3.5427   -3.0344 H   0  0  0  1  0  0  0  0  0  0  0  0
    2.5172    3.7233   -1.6178 H   0  0  0  1  0  0  0  0  0  0  0  0
    1.2353    4.7134   -2.2726 H   0  0  0  1  0  0  0  0  0  0  0  0
    1.9548    3.4562   -3.2502 H   0  0  0  1  0  0  0  0  0  0  0  0
   -0.6319    7.7142    2.0144 F   0  0  0  1  0  0  0  0  0  0  0  0
   -1.6195    7.7047    1.1174 C   0  0  0  1  0  0  0  0  0  0  0  0
   -2.4571    8.6793    1.4749 F   0  0  0  1  0  0  0  0  0  0  0  0
   -1.0764    8.0846   -0.0399 F   0  0  0  1  0  0  0  0  0  0  0  0
   -2.3022    6.3607    1.0227 C   0  0  0  1  0  0  0  0  0  0  0  0
   -1.5744    5.2010    1.2110 C   0  0  0  1  0  0  0  0  0  0  0  0
   -2.2019    3.9677    1.1294 C   0  0  0  1  0  0  0  0  0  0  0  0
   -3.5546    3.8976    0.8544 C   0  0  0  1  0  0  0  0  0  0  0  0
   -4.2847    5.0606    0.6655 C   0  0  0  1  0  0  0  0  0  0  0  0
   -3.6588    6.2902    0.7469 C   0  0  0  1  0  0  0  0  0  0  0  0
   -1.4075    2.7005    1.3410 C   0  0  0  1  0  0  0  0  0  0  0  0
   -0.5557    5.2536    1.4140 H   0  0  0  1  0  0  0  0  0  0  0  0
   -4.0246    2.9721    0.7892 H   0  0  0  1  0  0  0  0  0  0  0  0
   -5.3034    5.0080    0.4625 H   0  0  0  1  0  0  0  0  0  0  0  0
   -4.2058    7.1627    0.6012 H   0  0  0  1  0  0  0  0  0  0  0  0
   -0.6026    2.9234    2.0099 H   0  0  0  1  0  0  0  0  0  0  0  0
   -2.0547    1.9763    1.7898 H   0  0  0  1  0  0  0  0  0  0  0  0
  1  4  1  0  0  0  0
  2  4  1  0  0  0  0
  2  5  2  0  0  0  0
  2  6  1  0  0  0  0
  3  4  1  0  0  0  0
  3  7  1  0  0  0  0
  3  8  1  0  0  0  0
  4 29  1  0  0  0  0
  6  9  1  0  0  0  0
  6 12  1  0  0  0  0
  8 10  1  0  0  0  0
  8 11  2  0  0  0  0
  9 13  1  0  0  0  0
  9 14  1  0  0  0  0
  9 15  1  0  0  0  0
 10 16  1  0  0  0  0
 10 17  1  0  0  0  0
 10 18  1  0  0  0  0
 19 20  1  0  0  0  0
 20 21  1  0  0  0  0
 20 22  1  0  0  0  0
 20 23  1  0  0  0  0
 23 24  4  0  0  0  0
 23 28  4  0  0  0  0
 24 25  4  0  0  0  0
 24 30  1  0  0  0  0
 25 26  4  0  0  0  0
 25 29  1  0  0  0  0
 26 27  4  0  0  0  0
 26 31  1  0  0  0  0
 27 28  4  0  0  0  0
 27 32  1  0  0  0  0
 28 33  1  0  0  0  0
 29 34  1  0  0  0  0
 29 35  1  0  0  0  0
M  END
> <BCLConfClusterSize>
1

> <ConfClashScore>
0 

> <ConfOneFourInteractionScore>
-0.957074 

> <ConfScore>
0.027895 

> <ConfScorePBest>
0.00509968 

> <ConfTolerance>
0.376709 

> <RosettaParamsInstructions>
M  ROOT 3
M  POLY_N_BB 3
M  POLY_CA_BB 4
M  POLY_C_BB 2
M  POLY_O_BB 5
M  POLY_IGNORE 9 10 11 12 13 14 15 16 17 18 
M  POLY_UPPER 6
M  POLY_LOWER 8
M  POLY_CHG 0
M  POLY_PROPERTIES ALPHA_AA L_AA PROTEIN AROMATIC POLYMER 
M  END

$$$$



 35 35  0  0  0  0  0  0  0  0999 V2000
   -2.1459    2.3738    3.2188 H   0  0  0  1  0  0  0  0  0  0  0  0
   -0.5782    0.9784    2.9997 C   0  0  0  1  0  0  0  0  0  0  0  0
   -0.3440    3.3568    3.3993 N   0  0  0  1  0  0  0  0  0  0  0  0
   -1.1820    2.3569    2.7545 C   0  0  0  1  0  0  0  0  0  0  0  0
    0.6403    0.8117    3.0320 O   0  0  0  1  0  0  0  0  0  0  0  0
   -1.4534   -0.0160    3.1736 N   0  0  0  1  0  0  0  0  0  0  0  0
    0.6035    3.1447    3.5323 H   0  0  0  1  0  0  0  0  0  0  0  0
   -0.7884    4.5572    3.8257 C   0  0  0  1  0  0  0  0  0  0  0  0
   -1.0979   -1.4111    3.3859 C   0  0  0  1  0  0  0  0  0  0  0  0
    0.2147    5.5087    4.4482 C   0  0  0  1  0  0  0  0  0  0  0  0
   -1.9702    4.8724    3.7140 O   0  0  0  1  0  0  0  0  0  0  0  0
   -2.4066    0.2112    3.1571 H   0  0  0  1  0  0  0  0  0  0  0  0
   -0.1997   -1.4668    3.9648 H   0  0  0  1  0  0  0  0  0  0  0  0
   -0.9425   -1.8872    2.4403 H   0  0  0  1  0  0  0  0  0  0  0  0
   -1.8900   -1.9053    3.9086 H   0  0  0  1  0  0  0  0  0  0  0  0
   -0.2778    6.1233    5.1725 H   0  0  0  1  0  0  0  0  0  0  0  0
    0.6398    6.1274    3.6857 H   0  0  0  1  0  0  0  0  0  0  0  0
    0.9901    4.9468    4.9257 H   0  0  0  1  0  0  0  0  0  0  0  0
   -0.5139    7.6654    1.8662 F   0  0  0  1  0  0  0  0  0  0  0  0
   -1.6195    7.7097    1.1208 C   0  0  0  1  0  0  0  0  0  0  0  0
   -2.4011    8.6417    1.6683 F   0  0  0  1  0  0  0  0  0  0  0  0
   -1.2489    8.1846   -0.0690 F   0  0  0  1  0  0  0  0  0  0  0  0
   -2.3062    6.3617    1.0198 C   0  0  0  1  0  0  0  0  0  0  0  0
   -1.5735    5.1958    1.1713 C   0  0  0  1  0  0  0  0  0  0  0  0
   -2.1829    3.9453    1.0984 C   0  0  0  1  0  0  0  0  0  0  0  0
   -3.5529    3.9031    0.8626 C   0  0  0  1  0  0  0  0  0  0  0  0
   -4.2902    5.0666    0.7003 C   0  0  0  1  0  0  0  0  0  0  0  0
   -3.6698    6.2924    0.7756 C   0  0  0  1  0  0  0  0  0  0  0  0
   -1.3818    2.6764    1.2700 C   0  0  0  1  0  0  0  0  0  0  0  0
   -0.5494    5.2552    1.3425 H   0  0  0  1  0  0  0  0  0  0  0  0
   -4.0332    2.9823    0.8069 H   0  0  0  1  0  0  0  0  0  0  0  0
   -5.3133    5.0124    0.5214 H   0  0  0  1  0  0  0  0  0  0  0  0
   -4.2219    7.1648    0.6497 H   0  0  0  1  0  0  0  0  0  0  0  0
   -1.9033    1.8666    0.8040 H   0  0  0  1  0  0  0  0  0  0  0  0
   -0.4256    2.7997    0.8059 H   0  0  0  1  0  0  0  0  0  0  0  0
  1  4  1  0  0  0  0
  2  4  1  0  0  0  0
  2  5  2  0  0  0  0
  2  6  1  0  0  0  0
  3  4  1  0  0  0  0
  3  7  1  0  0  0  0
  3  8  1  0  0  0  0
  4 29  1  0  0  0  0
  6  9  1  0  0  0  0
  6 12  1  0  0  0  0
  8 10  1  0  0  0  0
  8 11  2  0  0  0  0
  9 13  1  0  0  0  0
  9 14  1  0  0  0  0
  9 15  1  0  0  0  0
 10 16  1  0  0  0  0
 10 17  1  0  0  0  0
 10 18  1  0  0  0  0
 19 20  1  0  0  0  0
 20 21  1  0  0  0  0
 20 22  1  0  0  0  0
 20 23  1  0  0  0  0
 23 24  4  0  0  0  0
 23 28  4  0  0  0  0
 24 25  4  0  0  0  0
 24 30  1  0  0  0  0
 25 26  4  0  0  0  0
 25 29  1  0  0  0  0
 26 27  4  0  0  0  0
 26 31  1  0  0  0  0
 27 28  4  0  0  0  0
 27 32  1  0  0  0  0
 28 33  1  0  0  0  0
 29 34  1  0  0  0  0
 29 35  1  0  0  0  0
M  END
> <BCLConfClusterSize>
1

> <ConfClashScore>
0 

> <ConfOneFourInteractionScore>
-0.986627 

> <ConfScore>
0.0283103 

> <ConfScorePBest>
0.0050712 

> <ConfTolerance>
0.677143 

> <RosettaParamsInstructions>
M  ROOT 3
M  POLY_N_BB 3
M  POLY_CA_BB 4
M  POLY_C_BB 2
M  POLY_O_BB 5
M  POLY_IGNORE 9 10 11 12 13 14 15 16 17 18 
M  POLY_UPPER 6
M  POLY_LOWER 8
M  POLY_CHG 0
M  POLY_PROPERTIES ALPHA_AA L_AA PROTEIN AROMATIC POLYMER 
M  END

$$$$



 35 35  0  0  0  0  0  0  0  0999 V2000
   -1.9237    1.9068   -0.9782 H   0  0  0  1  0  0  0  0  0  0  0  0
   -0.3266    3.2181   -1.3367 C   0  0  0  1  0  0  0  0  0  0  0  0
   -0.2057    0.9412   -0.3893 N   0  0  0  1  0  0  0  0  0  0  0  0
   -1.0003    2.1556   -0.4982 C   0  0  0  1  0  0  0  0  0  0  0  0
    0.8626    3.4892   -1.1755 O   0  0  0  1  0  0  0  0  0  0  0  0
   -1.0640    3.8550   -2.2601 N   0  0  0  1  0  0  0  0  0  0  0  0
    0.7014    1.0007   -0.0233 H   0  0  0  1  0  0  0  0  0  0  0  0
   -0.6722   -0.2578   -0.7727 C   0  0  0  1  0  0  0  0  0  0  0  0
   -0.5362    4.9553   -3.0530 C   0  0  0  1  0  0  0  0  0  0  0  0
    0.2806   -1.4315   -0.7503 C   0  0  0  1  0  0  0  0  0  0  0  0
   -1.8382   -0.3997   -1.1316 O   0  0  0  1  0  0  0  0  0  0  0  0
   -1.9900    3.5690   -2.4054 H   0  0  0  1  0  0  0  0  0  0  0  0
    0.1977    5.4861   -2.4833 H   0  0  0  1  0  0  0  0  0  0  0  0
   -1.3327    5.6198   -3.3154 H   0  0  0  1  0  0  0  0  0  0  0  0
   -0.0853    4.5690   -3.9432 H   0  0  0  1  0  0  0  0  0  0  0  0
    0.6552   -1.5686    0.2426 H   0  0  0  1  0  0  0  0  0  0  0  0
    1.0964   -1.2411   -1.4159 H   0  0  0  1  0  0  0  0  0  0  0  0
   -0.2356   -2.3156   -1.0617 H   0  0  0  1  0  0  0  0  0  0  0  0
   -0.7472    7.9041    0.1274 F   0  0  0  1  0  0  0  0  0  0  0  0
   -1.6208    7.7059    1.1161 C   0  0  0  1  0  0  0  0  0  0  0  0
   -0.9374    7.8521    2.2523 F   0  0  0  1  0  0  0  0  0  0  0  0
   -2.4811    8.7237    1.0640 F   0  0  0  1  0  0  0  0  0  0  0  0
   -2.3065    6.3634    1.0219 C   0  0  0  1  0  0  0  0  0  0  0  0
   -1.5547    5.2002    0.9901 C   0  0  0  1  0  0  0  0  0  0  0  0
   -2.1629    3.9491    0.9191 C   0  0  0  1  0  0  0  0  0  0  0  0
   -3.5522    3.9037    0.8752 C   0  0  0  1  0  0  0  0  0  0  0  0
   -4.3101    5.0651    0.8968 C   0  0  0  1  0  0  0  0  0  0  0  0
   -3.6905    6.2917    0.9670 C   0  0  0  1  0  0  0  0  0  0  0  0
   -1.3401    2.6827    0.8907 C   0  0  0  1  0  0  0  0  0  0  0  0
   -0.5170    5.2623    1.0198 H   0  0  0  1  0  0  0  0  0  0  0  0
   -4.0316    2.9821    0.8254 H   0  0  0  1  0  0  0  0  0  0  0  0
   -5.3479    5.0088    0.8598 H   0  0  0  1  0  0  0  0  0  0  0  0
   -4.2586    7.1627    0.9789 H   0  0  0  1  0  0  0  0  0  0  0  0
   -0.4215    2.8742    1.4049 H   0  0  0  1  0  0  0  0  0  0  0  0
   -1.8870    1.9221    1.4077 H   0  0  0  1  0  0  0  0  0  0  0  0
  1  4  1  0  0  0  0
  2  4  1  0  0  0  0
  2  5  2  0  0  0  0
  2  6  1  0  0  0  0
  3  4  1  0  0  0  0
  3  7  1  0  0  0  0
  3  8  1  0  0  0  0
  4 29  1  0  0  0  0
  6  9  1  0  0  0  0
  6 12  1  0  0  0  0
  8 10  1  0  0  0  0
  8 11  2  0  0  0  0
  9 13  1  0  0  0  0
  9 14  1  0  0  0  0
  9 15  1  0  0  0  0
 10 16  1  0  0  0  0
 10 17  1  0  0  0  0
 10 18  1  0  0  0  0
 19 20  1  0  0  0  0
 20 21  1  0  0  0  0
 20 22  1  0  0  0  0
 20 23  1  0  0  0  0
 23 24  4  0  0  0  0
 23 28  4  0  0  0  0
 24 25  4  0  0  0  0
 24 30  1  0  0  0  0
 25 26  4  0  0  0  0
 25 29  1  0  0  0  0
 26 27  4  0  0  0  0
 26 31  1  0  0  0  0
 27 28  4  0  0  0  0
 27 32  1  0  0  0  0
 28 33  1  0  0  0  0
 29 34  1  0  0  0  0
 29 35  1  0  0  0  0
M  END
> <BCLConfClusterSize>
1

> <ConfClashScore>
0 

> <ConfOneFourInteractionScore>
-0.990503 

> <ConfScore>
0.02902 

> <ConfScorePBest>
0.00504272 

> <ConfTolerance>
0.419637 

> <RosettaParamsInstructions>
M  ROOT 3
M  POLY_N_BB 3
M  POLY_CA_BB 4
M  POLY_C_BB 2
M  POLY_O_BB 5
M  POLY_IGNORE 9 10 11 12 13 14 15 16 17 18 
M  POLY_UPPER 6
M  POLY_LOWER 8
M  POLY_CHG 0
M  POLY_PROPERTIES ALPHA_AA L_AA PROTEIN AROMATIC POLYMER 
M  END

$$$$



 35 35  0  0  0  0  0  0  0  0999 V2000
   -1.7037    2.3232   -1.0578 H   0  0  0  1  0  0  0  0  0  0  0  0
    0.2131    3.1989   -0.8796 C   0  0  0  1  0  0  0  0  0  0  0  0
   -0.3868    0.8918   -0.3555 N   0  0  0  1  0  0  0  0  0  0  0  0
   -0.8769    2.2618   -0.3813 C   0  0  0  1  0  0  0  0  0  0  0  0
    1.3698    3.0770   -0.5115 O   0  0  0  1  0  0  0  0  0  0  0  0
   -0.1824    4.1470   -1.7338 N   0  0  0  1  0  0  0  0  0  0  0  0
   -0.3759    0.3922    0.4875 H   0  0  0  1  0  0  0  0  0  0  0  0
    0.0482    0.3137   -1.4787 C   0  0  0  1  0  0  0  0  0  0  0  0
    0.7941    5.0447   -2.3324 C   0  0  0  1  0  0  0  0  0  0  0  0
    0.4418   -1.1457   -1.3587 C   0  0  0  1  0  0  0  0  0  0  0  0
    0.1304    0.9062   -2.5420 O   0  0  0  1  0  0  0  0  0  0  0  0
   -1.1321    4.2381   -1.9577 H   0  0  0  1  0  0  0  0  0  0  0  0
    1.5596    4.4712   -2.8120 H   0  0  0  1  0  0  0  0  0  0  0  0
    1.2310    5.6555   -1.5702 H   0  0  0  1  0  0  0  0  0  0  0  0
    0.3097    5.6674   -3.0553 H   0  0  0  1  0  0  0  0  0  0  0  0
    1.2434   -1.2429   -0.6566 H   0  0  0  1  0  0  0  0  0  0  0  0
    0.7586   -1.5092   -2.3139 H   0  0  0  1  0  0  0  0  0  0  0  0
   -0.3988   -1.7150   -1.0208 H   0  0  0  1  0  0  0  0  0  0  0  0
   -0.2793    7.6246    1.0652 F   0  0  0  1  0  0  0  0  0  0  0  0
   -1.6089    7.7245    1.1125 C   0  0  0  1  0  0  0  0  0  0  0  0
   -1.8940    8.3718    2.2435 F   0  0  0  1  0  0  0  0  0  0  0  0
   -1.9577    8.5404    0.1169 F   0  0  0  1  0  0  0  0  0  0  0  0
   -2.2954    6.3772    1.0261 C   0  0  0  1  0  0  0  0  0  0  0  0
   -1.5632    5.1951    1.0567 C   0  0  0  1  0  0  0  0  0  0  0  0
   -2.1889    3.9601    0.9734 C   0  0  0  1  0  0  0  0  0  0  0  0
   -3.5584    3.8869    0.8623 C   0  0  0  1  0  0  0  0  0  0  0  0
   -4.3120    5.0511    0.8396 C   0  0  0  1  0  0  0  0  0  0  0  0
   -3.6805    6.2819    0.9133 C   0  0  0  1  0  0  0  0  0  0  0  0
   -1.3659    2.6939    1.0046 C   0  0  0  1  0  0  0  0  0  0  0  0
   -0.5278    5.2380    1.1437 H   0  0  0  1  0  0  0  0  0  0  0  0
   -4.0273    2.9610    0.7955 H   0  0  0  1  0  0  0  0  0  0  0  0
   -5.3483    5.0002    0.7675 H   0  0  0  1  0  0  0  0  0  0  0  0
   -4.2511    7.1509    0.8839 H   0  0  0  1  0  0  0  0  0  0  0  0
   -0.5138    2.8570    1.6308 H   0  0  0  1  0  0  0  0  0  0  0  0
   -1.9653    1.9081    1.4145 H   0  0  0  1  0  0  0  0  0  0  0  0
  1  4  1  0  0  0  0
  2  4  1  0  0  0  0
  2  5  2  0  0  0  0
  2  6  1  0  0  0  0
  3  4  1  0  0  0  0
  3  7  1  0  0  0  0
  3  8  1  0  0  0  0
  4 29  1  0  0  0  0
  6  9  1  0  0  0  0
  6 12  1  0  0  0  0
  8 10  1  0  0  0  0
  8 11  2  0  0  0  0
  9 13  1  0  0  0  0
  9 14  1  0  0  0  0
  9 15  1  0  0  0  0
 10 16  1  0  0  0  0
 10 17  1  0  0  0  0
 10 18  1  0  0  0  0
 19 20  1  0  0  0  0
 20 21  1  0  0  0  0
 20 22  1  0  0  0  0
 20 23  1  0  0  0  0
 23 24  4  0  0  0  0
 23 28  4  0  0  0  0
 24 25  4  0  0  0  0
 24 30  1  0  0  0  0
 25 26  4  0  0  0  0
 25 29  1  0  0  0  0
 26 27  4  0  0  0  0
 26 31  1  0  0  0  0
 27 28  4  0  0  0  0
 27 32  1  0  0  0  0
 28 33  1  0  0  0  0
 29 34  1  0  0  0  0
 29 35  1  0  0  0  0
M  END
> <BCLConfClusterSize>
1

> <ConfClashScore>
0 

> <ConfOneFourInteractionScore>
-0.978127 

> <ConfScore>
0.0338172 

> <ConfScorePBest>
0.00501424 

> <ConfTolerance>
0.439695 

> <RosettaParamsInstructions>
M  ROOT 3
M  POLY_N_BB 3
M  POLY_CA_BB 4
M  POLY_C_BB 2
M  POLY_O_BB 5
M  POLY_IGNORE 9 10 11 12 13 14 15 16 17 18 
M  POLY_UPPER 6
M  POLY_LOWER 8
M  POLY_CHG 0
M  POLY_PROPERTIES ALPHA_AA L_AA PROTEIN AROMATIC POLYMER 
M  END

$$$$



 35 35  0  0  0  0  0  0  0  0999 V2000
   -0.9247    2.7503    3.2052 H   0  0  0  1  0  0  0  0  0  0  0  0
   -2.8411    1.8712    3.0004 C   0  0  0  1  0  0  0  0  0  0  0  0
   -0.6890    0.8028    2.5505 N   0  0  0  1  0  0  0  0  0  0  0  0
   -1.4030    2.0707    2.5312 C   0  0  0  1  0  0  0  0  0  0  0  0
   -3.5432    0.9749    2.5399 O   0  0  0  1  0  0  0  0  0  0  0  0
   -3.2739    2.7312    3.9359 N   0  0  0  1  0  0  0  0  0  0  0  0
   -0.4335    0.3908    1.6988 H   0  0  0  1  0  0  0  0  0  0  0  0
   -0.3697    0.1808    3.6891 C   0  0  0  1  0  0  0  0  0  0  0  0
   -4.6322    2.6942    4.4570 C   0  0  0  1  0  0  0  0  0  0  0  0
    0.4815   -1.0655    3.5425 C   0  0  0  1  0  0  0  0  0  0  0  0
   -0.7307    0.5756    4.7855 O   0  0  0  1  0  0  0  0  0  0  0  0
   -2.6536    3.4074    4.2799 H   0  0  0  1  0  0  0  0  0  0  0  0
   -4.9425    1.6768    4.5736 H   0  0  0  1  0  0  0  0  0  0  0  0
   -5.2894    3.1913    3.7745 H   0  0  0  1  0  0  0  0  0  0  0  0
   -4.6633    3.1873    5.4061 H   0  0  0  1  0  0  0  0  0  0  0  0
    1.1915   -0.9225    2.7548 H   0  0  0  1  0  0  0  0  0  0  0  0
   -0.1460   -1.9003    3.3097 H   0  0  0  1  0  0  0  0  0  0  0  0
    0.9997   -1.2530    4.4597 H   0  0  0  1  0  0  0  0  0  0  0  0
   -0.3322    7.6213    1.4711 F   0  0  0  1  0  0  0  0  0  0  0  0
   -1.6169    7.7050    1.1211 C   0  0  0  1  0  0  0  0  0  0  0  0
   -2.1978    8.5336    1.9902 F   0  0  0  1  0  0  0  0  0  0  0  0
   -1.6230    8.3591   -0.0411 F   0  0  0  1  0  0  0  0  0  0  0  0
   -2.3031    6.3571    1.0270 C   0  0  0  1  0  0  0  0  0  0  0  0
   -1.5592    5.1953    1.1128 C   0  0  0  1  0  0  0  0  0  0  0  0
   -2.1873    3.9623    1.0321 C   0  0  0  1  0  0  0  0  0  0  0  0
   -3.5571    3.8947    0.8606 C   0  0  0  1  0  0  0  0  0  0  0  0
   -4.3034    5.0596    0.7746 C   0  0  0  1  0  0  0  0  0  0  0  0
   -3.6769    6.2890    0.8550 C   0  0  0  1  0  0  0  0  0  0  0  0
   -1.3750    2.6928    1.1316 C   0  0  0  1  0  0  0  0  0  0  0  0
   -0.5280    5.2463    1.2378 H   0  0  0  1  0  0  0  0  0  0  0  0
   -4.0279    2.9696    0.7960 H   0  0  0  1  0  0  0  0  0  0  0  0
   -5.3346    5.0086    0.6495 H   0  0  0  1  0  0  0  0  0  0  0  0
   -4.2362    7.1631    0.7865 H   0  0  0  1  0  0  0  0  0  0  0  0
   -1.7675    1.9818    0.4350 H   0  0  0  1  0  0  0  0  0  0  0  0
   -0.3598    2.9174    0.8790 H   0  0  0  1  0  0  0  0  0  0  0  0
  1  4  1  0  0  0  0
  2  4  1  0  0  0  0
  2  5  2  0  0  0  0
  2  6  1  0  0  0  0
  3  4  1  0  0  0  0
  3  7  1  0  0  0  0
  3  8  1  0  0  0  0
  4 29  1  0  0  0  0
  6  9  1  0  0  0  0
  6 12  1  0  0  0  0
  8 10  1  0  0  0  0
  8 11  2  0  0  0  0
  9 13  1  0  0  0  0
  9 14  1  0  0  0  0
  9 15  1  0  0  0  0
 10 16  1  0  0  0  0
 10 17  1  0  0  0  0
 10 18  1  0  0  0  0
 19 20  1  0  0  0  0
 20 21  1  0  0  0  0
 20 22  1  0  0  0  0
 20 23  1  0  0  0  0
 23 24  4  0  0  0  0
 23 28  4  0  0  0  0
 24 25  4  0  0  0  0
 24 30  1  0  0  0  0
 25 26  4  0  0  0  0
 25 29  1  0  0  0  0
 26 27  4  0  0  0  0
 26 31  1  0  0  0  0
 27 28  4  0  0  0  0
 27 32  1  0  0  0  0
 28 33  1  0  0  0  0
 29 34  1  0  0  0  0
 29 35  1  0  0  0  0
M  END
> <BCLConfClusterSize>
1

> <ConfClashScore>
0 

> <ConfOneFourInteractionScore>
-0.981931 

> <ConfScore>
0.0368185 

> <ConfScorePBest>
0.00498576 

> <ConfTolerance>
0.366241 

> <RosettaParamsInstructions>
M  ROOT 3
M  POLY_N_BB 3
M  POLY_CA_BB 4
M  POLY_C_BB 2
M  POLY_O_BB 5
M  POLY_IGNORE 9 10 11 12 13 14 15 16 17 18 
M  POLY_UPPER 6
M  POLY_LOWER 8
M  POLY_CHG 0
M  POLY_PROPERTIES ALPHA_AA L_AA PROTEIN AROMATIC POLYMER 
M  END

$$$$



 35 35  0  0  0  0  0  0  0  0999 V2000
   -2.5311    1.3431    0.2957 H   0  0  0  1  0  0  0  0  0  0  0  0
   -1.1793    2.3720   -0.9606 C   0  0  0  1  0  0  0  0  0  0  0  0
   -0.6566    0.5578    0.6618 N   0  0  0  1  0  0  0  0  0  0  0  0
   -1.5203    1.6886    0.3564 C   0  0  0  1  0  0  0  0  0  0  0  0
   -2.0604    2.7303   -1.7408 O   0  0  0  1  0  0  0  0  0  0  0  0
    0.1226    2.5504   -1.2018 N   0  0  0  1  0  0  0  0  0  0  0  0
   -0.0903    0.5769    1.4613 H   0  0  0  1  0  0  0  0  0  0  0  0
   -0.6341   -0.5116   -0.1495 C   0  0  0  1  0  0  0  0  0  0  0  0
    0.6112    3.1216   -2.4480 C   0  0  0  1  0  0  0  0  0  0  0  0
    0.2976   -1.6336    0.2653 C   0  0  0  1  0  0  0  0  0  0  0  0
   -1.3174   -0.5937   -1.1668 O   0  0  0  1  0  0  0  0  0  0  0  0
    0.7712    2.2875   -0.5158 H   0  0  0  1  0  0  0  0  0  0  0  0
    0.3056    4.1448   -2.5159 H   0  0  0  1  0  0  0  0  0  0  0  0
    0.2077    2.5735   -3.2736 H   0  0  0  1  0  0  0  0  0  0  0  0
    1.6795    3.0664   -2.4707 H   0  0  0  1  0  0  0  0  0  0  0  0
    1.3038   -1.2707    0.2927 H   0  0  0  1  0  0  0  0  0  0  0  0
    0.2268   -2.4349   -0.4403 H   0  0  0  1  0  0  0  0  0  0  0  0
    0.0196   -1.9871    1.2362 H   0  0  0  1  0  0  0  0  0  0  0  0
   -2.3978    8.7153    0.7264 F   0  0  0  1  0  0  0  0  0  0  0  0
   -1.6257    7.7057    1.1320 C   0  0  0  1  0  0  0  0  0  0  0  0
   -0.5429    7.7792    0.3565 F   0  0  0  1  0  0  0  0  0  0  0  0
   -1.2108    7.9908    2.3490 F   0  0  0  1  0  0  0  0  0  0  0  0
   -2.3054    6.3607    1.0294 C   0  0  0  1  0  0  0  0  0  0  0  0
   -1.5929    5.2048    1.2871 C   0  0  0  1  0  0  0  0  0  0  0  0
   -2.2181    3.9707    1.1981 C   0  0  0  1  0  0  0  0  0  0  0  0
   -3.5527    3.8961    0.8464 C   0  0  0  1  0  0  0  0  0  0  0  0
   -4.2674    5.0553    0.5880 C   0  0  0  1  0  0  0  0  0  0  0  0
   -3.6439    6.2856    0.6767 C   0  0  0  1  0  0  0  0  0  0  0  0
   -1.4409    2.7078    1.4854 C   0  0  0  1  0  0  0  0  0  0  0  0
   -0.5877    5.2608    1.5477 H   0  0  0  1  0  0  0  0  0  0  0  0
   -4.0207    2.9701    0.7758 H   0  0  0  1  0  0  0  0  0  0  0  0
   -5.2726    4.9993    0.3273 H   0  0  0  1  0  0  0  0  0  0  0  0
   -4.1791    7.1551    0.4789 H   0  0  0  1  0  0  0  0  0  0  0  0
   -0.4142    2.9672    1.6385 H   0  0  0  1  0  0  0  0  0  0  0  0
   -1.8331    2.2616    2.3753 H   0  0  0  1  0  0  0  0  0  0  0  0
  1  4  1  0  0  0  0
  2  4  1  0  0  0  0
  2  5  2  0  0  0  0
  2  6  1  0  0  0  0
  3  4  1  0  0  0  0
  3  7  1  0  0  0  0
  3  8  1  0  0  0  0
  4 29  1  0  0  0  0
  6  9  1  0  0  0  0
  6 12  1  0  0  0  0
  8 10  1  0  0  0  0
  8 11  2  0  0  0  0
  9 13  1  0  0  0  0
  9 14  1  0  0  0  0
  9 15  1  0  0  0  0
 10 16  1  0  0  0  0
 10 17  1  0  0  0  0
 10 18  1  0  0  0  0
 19 20  1  0  0  0  0
 20 21  1  0  0  0  0
 20 22  1  0  0  0  0
 20 23  1  0  0  0  0
 23 24  4  0  0  0  0
 23 28  4  0  0  0  0
 24 25  4  0  0  0  0
 24 30  1  0  0  0  0
 25 26  4  0  0  0  0
 25 29  1  0  0  0  0
 26 27  4  0  0  0  0
 26 31  1  0  0  0  0
 27 28  4  0  0  0  0
 27 32  1  0  0  0  0
 28 33  1  0  0  0  0
 29 34  1  0  0  0  0
 29 35  1  0  0  0  0
M  END
> <BCLConfClusterSize>
1

> <ConfClashScore>
0 

> <ConfOneFourInteractionScore>
-0.960318 

> <ConfScore>
0.0385784 

> <ConfScorePBest>
0.00495728 

> <ConfTolerance>
0.631001 

> <RosettaParamsInstructions>
M  ROOT 3
M  POLY_N_BB 3
M  POLY_CA_BB 4
M  POLY_C_BB 2
M  POLY_O_BB 5
M  POLY_IGNORE 9 10 11 12 13 14 15 16 17 18 
M  POLY_UPPER 6
M  POLY_LOWER 8
M  POLY_CHG 0
M  POLY_PROPERTIES ALPHA_AA L_AA PROTEIN AROMATIC POLYMER 
M  END

$$$$



 35 35  0  0  0  0  0  0  0  0999 V2000
   -0.0623    3.6743    2.5528 H   0  0  0  1  0  0  0  0  0  0  0  0
    0.8268    1.8024    2.2731 C   0  0  0  1  0  0  0  0  0  0  0  0
    0.7966    3.6934    0.6800 N   0  0  0  1  0  0  0  0  0  0  0  0
    0.0408    2.9891    1.7374 C   0  0  0  1  0  0  0  0  0  0  0  0
    0.3688    1.0390    3.1037 O   0  0  0  1  0  0  0  0  0  0  0  0
    2.0645    1.5852    1.8193 N   0  0  0  1  0  0  0  0  0  0  0  0
    0.6203    3.4931   -0.2630 H   0  0  0  1  0  0  0  0  0  0  0  0
    1.7284    4.6114    1.0104 C   0  0  0  1  0  0  0  0  0  0  0  0
    2.8703    0.4593    2.2674 C   0  0  0  1  0  0  0  0  0  0  0  0
    2.3571    5.3589   -0.1495 C   0  0  0  1  0  0  0  0  0  0  0  0
    2.0599    4.8411    2.1727 O   0  0  0  1  0  0  0  0  0  0  0  0
    2.4429    2.2058    1.1619 H   0  0  0  1  0  0  0  0  0  0  0  0
    2.2317   -0.3680    2.4971 H   0  0  0  1  0  0  0  0  0  0  0  0
    3.4192    0.7395    3.1421 H   0  0  0  1  0  0  0  0  0  0  0  0
    3.5525    0.1784    1.4924 H   0  0  0  1  0  0  0  0  0  0  0  0
    1.5916    5.8421   -0.7199 H   0  0  0  1  0  0  0  0  0  0  0  0
    2.8850    4.6688   -0.7741 H   0  0  0  1  0  0  0  0  0  0  0  0
    3.0383    6.0931    0.2269 H   0  0  0  1  0  0  0  0  0  0  0  0
   -0.4914    7.6683    1.8334 F   0  0  0  1  0  0  0  0  0  0  0  0
   -1.6226    7.7038    1.1270 C   0  0  0  1  0  0  0  0  0  0  0  0
   -2.3894    8.6460    1.6781 F   0  0  0  1  0  0  0  0  0  0  0  0
   -1.2773    8.1896   -0.0661 F   0  0  0  1  0  0  0  0  0  0  0  0
   -2.3066    6.3610    1.0239 C   0  0  0  1  0  0  0  0  0  0  0  0
   -1.5732    5.1948    1.1699 C   0  0  0  1  0  0  0  0  0  0  0  0
   -2.1825    3.9445    1.0947 C   0  0  0  1  0  0  0  0  0  0  0  0
   -3.5531    3.9026    0.8621 C   0  0  0  1  0  0  0  0  0  0  0  0
   -4.2911    5.0664    0.7052 C   0  0  0  1  0  0  0  0  0  0  0  0
   -3.6708    6.2922    0.7828 C   0  0  0  1  0  0  0  0  0  0  0  0
   -1.3807    2.6752    1.2605 C   0  0  0  1  0  0  0  0  0  0  0  0
   -0.5488    5.2540    1.3389 H   0  0  0  1  0  0  0  0  0  0  0  0
   -4.0333    2.9819    0.8048 H   0  0  0  1  0  0  0  0  0  0  0  0
   -5.3146    5.0125    0.5287 H   0  0  0  1  0  0  0  0  0  0  0  0
   -4.2234    7.1647    0.6609 H   0  0  0  1  0  0  0  0  0  0  0  0
   -1.8620    2.0478    1.9812 H   0  0  0  1  0  0  0  0  0  0  0  0
   -1.3310    2.1664    0.3205 H   0  0  0  1  0  0  0  0  0  0  0  0
  1  4  1  0  0  0  0
  2  4  1  0  0  0  0
  2  5  2  0  0  0  0
  2  6  1  0  0  0  0
  3  4  1  0  0  0  0
  3  7  1  0  0  0  0
  3  8  1  0  0  0  0
  4 29  1  0  0  0  0
  6  9  1  0  0  0  0
  6 12  1  0  0  0  0
  8 10  1  0  0  0  0
  8 11  2  0  0  0  0
  9 13  1  0  0  0  0
  9 14  1  0  0  0  0
  9 15  1  0  0  0  0
 10 16  1  0  0  0  0
 10 17  1  0  0  0  0
 10 18  1  0  0  0  0
 19 20  1  0  0  0  0
 20 21  1  0  0  0  0
 20 22  1  0  0  0  0
 20 23  1  0  0  0  0
 23 24  4  0  0  0  0
 23 28  4  0  0  0  0
 24 25  4  0  0  0  0
 24 30  1  0  0  0  0
 25 26  4  0  0  0  0
 25 29  1  0  0  0  0
 26 27  4  0  0  0  0
 26 31  1  0  0  0  0
 27 28  4  0  0  0  0
 27 32  1  0  0  0  0
 28 33  1  0  0  0  0
 29 34  1  0  0  0  0
 29 35  1  0  0  0  0
M  END
> <BCLConfClusterSize>
1

> <ConfClashScore>
0 

> <ConfOneFourInteractionScore>
-0.949001 

> <ConfScore>
0.0424893 

> <ConfScorePBest>
0.0049288 

> <ConfTolerance>
0.676237 

> <RosettaParamsInstructions>
M  ROOT 3
M  POLY_N_BB 3
M  POLY_CA_BB 4
M  POLY_C_BB 2
M  POLY_O_BB 5
M  POLY_IGNORE 9 10 11 12 13 14 15 16 17 18 
M  POLY_UPPER 6
M  POLY_LOWER 8
M  POLY_CHG 0
M  POLY_PROPERTIES ALPHA_AA L_AA PROTEIN AROMATIC POLYMER 
M  END

$$$$



 35 35  0  0  0  0  0  0  0  0999 V2000
   -2.7560    1.5431   -0.1104 H   0  0  0  1  0  0  0  0  0  0  0  0
   -1.3467    0.1971    0.6915 C   0  0  0  1  0  0  0  0  0  0  0  0
   -3.1326    1.3445    1.9124 N   0  0  0  1  0  0  0  0  0  0  0  0
   -2.2009    1.4400    0.7985 C   0  0  0  1  0  0  0  0  0  0  0  0
   -0.9443   -0.2092   -0.3979 O   0  0  0  1  0  0  0  0  0  0  0  0
   -1.0652   -0.4186    1.8507 N   0  0  0  1  0  0  0  0  0  0  0  0
   -2.8478    1.6599    2.7955 H   0  0  0  1  0  0  0  0  0  0  0  0
   -4.3685    0.8395    1.7723 C   0  0  0  1  0  0  0  0  0  0  0  0
   -0.3898   -1.7038    1.9506 C   0  0  0  1  0  0  0  0  0  0  0  0
   -5.2277    0.9676    3.0236 C   0  0  0  1  0  0  0  0  0  0  0  0
   -4.7980    0.3170    0.7472 O   0  0  0  1  0  0  0  0  0  0  0  0
   -1.3315    0.0256    2.6826 H   0  0  0  1  0  0  0  0  0  0  0  0
   -0.7094   -2.3384    1.1506 H   0  0  0  1  0  0  0  0  0  0  0  0
   -0.6314   -2.1616    2.8870 H   0  0  0  1  0  0  0  0  0  0  0  0
    0.6682   -1.5563    1.8876 H   0  0  0  1  0  0  0  0  0  0  0  0
   -6.0204    1.6631    2.8428 H   0  0  0  1  0  0  0  0  0  0  0  0
   -4.6249    1.3173    3.8355 H   0  0  0  1  0  0  0  0  0  0  0  0
   -5.6412    0.0124    3.2713 H   0  0  0  1  0  0  0  0  0  0  0  0
   -0.2963    7.6329    0.9396 F   0  0  0  1  0  0  0  0  0  0  0  0
   -1.6172    7.7013    1.1145 C   0  0  0  1  0  0  0  0  0  0  0  0
   -1.8182    8.3236    2.2771 F   0  0  0  1  0  0  0  0  0  0  0  0
   -2.0516    8.5525    0.1842 F   0  0  0  1  0  0  0  0  0  0  0  0
   -2.3030    6.3583    1.0288 C   0  0  0  1  0  0  0  0  0  0  0  0
   -1.5511    5.1938    1.0472 C   0  0  0  1  0  0  0  0  0  0  0  0
   -2.1783    3.9651    0.9634 C   0  0  0  1  0  0  0  0  0  0  0  0
   -3.5594    3.8969    0.8665 C   0  0  0  1  0  0  0  0  0  0  0  0
   -4.3089    5.0581    0.8482 C   0  0  0  1  0  0  0  0  0  0  0  0
   -3.6800    6.2905    0.9322 C   0  0  0  1  0  0  0  0  0  0  0  0
   -1.3587    2.6964    0.9775 C   0  0  0  1  0  0  0  0  0  0  0  0
   -0.5152    5.2448    1.1239 H   0  0  0  1  0  0  0  0  0  0  0  0
   -4.0316    2.9721    0.8075 H   0  0  0  1  0  0  0  0  0  0  0  0
   -5.3448    5.0071    0.7715 H   0  0  0  1  0  0  0  0  0  0  0  0
   -4.2443    7.1640    0.9225 H   0  0  0  1  0  0  0  0  0  0  0  0
   -0.6443    2.7436    0.1824 H   0  0  0  1  0  0  0  0  0  0  0  0
   -0.8464    2.6323    1.9147 H   0  0  0  1  0  0  0  0  0  0  0  0
  1  4  1  0  0  0  0
  2  4  1  0  0  0  0
  2  5  2  0  0  0  0
  2  6  1  0  0  0  0
  3  4  1  0  0  0  0
  3  7  1  0  0  0  0
  3  8  1  0  0  0  0
  4 29  1  0  0  0  0
  6  9  1  0  0  0  0
  6 12  1  0  0  0  0
  8 10  1  0  0  0  0
  8 11  2  0  0  0  0
  9 13  1  0  0  0  0
  9 14  1  0  0  0  0
  9 15  1  0  0  0  0
 10 16  1  0  0  0  0
 10 17  1  0  0  0  0
 10 18  1  0  0  0  0
 19 20  1  0  0  0  0
 20 21  1  0  0  0  0
 20 22  1  0  0  0  0
 20 23  1  0  0  0  0
 23 24  4  0  0  0  0
 23 28  4  0  0  0  0
 24 25  4  0  0  0  0
 24 30  1  0  0  0  0
 25 26  4  0  0  0  0
 25 29  1  0  0  0  0
 26 27  4  0  0  0  0
 26 31  1  0  0  0  0
 27 28  4  0  0  0  0
 27 32  1  0  0  0  0
 28 33  1  0  0  0  0
 29 34  1  0  0  0  0
 29 35  1  0  0  0  0
M  END
> <BCLConfClusterSize>
1

> <ConfClashScore>
0 

> <ConfOneFourInteractionScore>
-0.949001 

> <ConfScore>
0.0426771 

> <ConfScorePBest>
0.00490032 

> <ConfTolerance>
0.619108 

> <RosettaParamsInstructions>
M  ROOT 3
M  POLY_N_BB 3
M  POLY_CA_BB 4
M  POLY_C_BB 2
M  POLY_O_BB 5
M  POLY_IGNORE 9 10 11 12 13 14 15 16 17 18 
M  POLY_UPPER 6
M  POLY_LOWER 8
M  POLY_CHG 0
M  POLY_PROPERTIES ALPHA_AA L_AA PROTEIN AROMATIC POLYMER 
M  END

$$$$



 35 35  0  0  0  0  0  0  0  0999 V2000
   -0.3771    1.2783   -0.1722 H   0  0  0  1  0  0  0  0  0  0  0  0
   -2.2591    1.4675   -1.0710 C   0  0  0  1  0  0  0  0  0  0  0  0
   -0.3625    3.0524   -1.2203 N   0  0  0  1  0  0  0  0  0  0  0  0
   -1.0617    2.0805   -0.3530 C   0  0  0  1  0  0  0  0  0  0  0  0
   -2.6328    0.3238   -0.8248 O   0  0  0  1  0  0  0  0  0  0  0  0
   -2.8603    2.2516   -1.9703 N   0  0  0  1  0  0  0  0  0  0  0  0
   -0.2772    3.9746   -0.9000 H   0  0  0  1  0  0  0  0  0  0  0  0
    0.1629    2.7521   -2.4186 C   0  0  0  1  0  0  0  0  0  0  0  0
   -4.0697    1.8456   -2.6707 C   0  0  0  1  0  0  0  0  0  0  0  0
    0.7018    3.9250   -3.2141 C   0  0  0  1  0  0  0  0  0  0  0  0
    0.2125    1.6067   -2.8589 O   0  0  0  1  0  0  0  0  0  0  0  0
   -2.4734    3.1306   -2.1652 H   0  0  0  1  0  0  0  0  0  0  0  0
   -4.7152    2.6908   -2.7881 H   0  0  0  1  0  0  0  0  0  0  0  0
   -4.5723    1.0892   -2.1049 H   0  0  0  1  0  0  0  0  0  0  0  0
   -3.8107    1.4583   -3.6339 H   0  0  0  1  0  0  0  0  0  0  0  0
    0.1116    4.0596   -4.0964 H   0  0  0  1  0  0  0  0  0  0  0  0
    1.7172    3.7317   -3.4906 H   0  0  0  1  0  0  0  0  0  0  0  0
    0.6570    4.8116   -2.6167 H   0  0  0  1  0  0  0  0  0  0  0  0
   -0.2896    7.6115    1.0314 F   0  0  0  1  0  0  0  0  0  0  0  0
   -1.6177    7.7072    1.1138 C   0  0  0  1  0  0  0  0  0  0  0  0
   -1.8756    8.3363    2.2614 F   0  0  0  1  0  0  0  0  0  0  0  0
   -1.9941    8.5389    0.1382 F   0  0  0  1  0  0  0  0  0  0  0  0
   -2.3031    6.3598    1.0240 C   0  0  0  1  0  0  0  0  0  0  0  0
   -1.5523    5.1995    1.0481 C   0  0  0  1  0  0  0  0  0  0  0  0
   -2.1801    3.9660    0.9713 C   0  0  0  1  0  0  0  0  0  0  0  0
   -3.5564    3.8966    0.8654 C   0  0  0  1  0  0  0  0  0  0  0  0
   -4.3094    5.0601    0.8413 C   0  0  0  1  0  0  0  0  0  0  0  0
   -3.6834    6.2899    0.9178 C   0  0  0  1  0  0  0  0  0  0  0  0
   -1.3601    2.6979    1.0034 C   0  0  0  1  0  0  0  0  0  0  0  0
   -0.5164    5.2520    1.1237 H   0  0  0  1  0  0  0  0  0  0  0  0
   -4.0271    2.9712    0.8037 H   0  0  0  1  0  0  0  0  0  0  0  0
   -5.3453    5.0077    0.7656 H   0  0  0  1  0  0  0  0  0  0  0  0
   -4.2480    7.1630    0.8957 H   0  0  0  1  0  0  0  0  0  0  0  0
   -0.4269    2.9202    1.4774 H   0  0  0  1  0  0  0  0  0  0  0  0
   -1.8928    1.9750    1.5852 H   0  0  0  1  0  0  0  0  0  0  0  0
  1  4  1  0  0  0  0
  2  4  1  0  0  0  0
  2  5  2  0  0  0  0
  2  6  1  0  0  0  0
  3  4  1  0  0  0  0
  3  7  1  0  0  0  0
  3  8  1  0  0  0  0
  4 29  1  0  0  0  0
  6  9  1  0  0  0  0
  6 12  1  0  0  0  0
  8 10  1  0  0  0  0
  8 11  2  0  0  0  0
  9 13  1  0  0  0  0
  9 14  1  0  0  0  0
  9 15  1  0  0  0  0
 10 16  1  0  0  0  0
 10 17  1  0  0  0  0
 10 18  1  0  0  0  0
 19 20  1  0  0  0  0
 20 21  1  0  0  0  0
 20 22  1  0  0  0  0
 20 23  1  0  0  0  0
 23 24  4  0  0  0  0
 23 28  4  0  0  0  0
 24 25  4  0  0  0  0
 24 30  1  0  0  0  0
 25 26  4  0  0  0  0
 25 29  1  0  0  0  0
 26 27  4  0  0  0  0
 26 31  1  0  0  0  0
 27 28  4  0  0  0  0
 27 32  1  0  0  0  0
 28 33  1  0  0  0  0
 29 34  1  0  0  0  0
 29 35  1  0  0  0  0
M  END
> <BCLConfClusterSize>
1

> <ConfClashScore>
0 

> <ConfOneFourInteractionScore>
-0.950605 

> <ConfScore>
0.0450026 

> <ConfScorePBest>
0.00487184 

> <ConfTolerance>
0.36658 

> <RosettaParamsInstructions>
M  ROOT 3
M  POLY_N_BB 3
M  POLY_CA_BB 4
M  POLY_C_BB 2
M  POLY_O_BB 5
M  POLY_IGNORE 9 10 11 12 13 14 15 16 17 18 
M  POLY_UPPER 6
M  POLY_LOWER 8
M  POLY_CHG 0
M  POLY_PROPERTIES ALPHA_AA L_AA PROTEIN AROMATIC POLYMER 
M  END

$$$$



 35 35  0  0  0  0  0  0  0  0999 V2000
   -0.5919    3.0614    3.2885 H   0  0  0  1  0  0  0  0  0  0  0  0
   -2.5324    2.2634    3.5767 C   0  0  0  1  0  0  0  0  0  0  0  0
   -0.5249    1.0254    2.9341 N   0  0  0  1  0  0  0  0  0  0  0  0
   -1.2015    2.3098    2.8319 C   0  0  0  1  0  0  0  0  0  0  0  0
   -3.3767    1.4055    3.3224 O   0  0  0  1  0  0  0  0  0  0  0  0
   -2.7105    3.2097    4.5121 N   0  0  0  1  0  0  0  0  0  0  0  0
   -0.2493    0.5520    2.1215 H   0  0  0  1  0  0  0  0  0  0  0  0
   -0.2776    0.4878    4.1391 C   0  0  0  1  0  0  0  0  0  0  0  0
   -3.9834    3.3177    5.2091 C   0  0  0  1  0  0  0  0  0  0  0  0
    0.5243   -0.7991    4.1342 C   0  0  0  1  0  0  0  0  0  0  0  0
   -0.6676    0.9918    5.1890 O   0  0  0  1  0  0  0  0  0  0  0  0
   -1.9818    3.8291    4.7260 H   0  0  0  1  0  0  0  0  0  0  0  0
   -3.9518    4.1473    5.8841 H   0  0  0  1  0  0  0  0  0  0  0  0
   -4.1664    2.4179    5.7586 H   0  0  0  1  0  0  0  0  0  0  0  0
   -4.7681    3.4672    4.4972 H   0  0  0  1  0  0  0  0  0  0  0  0
   -0.0166   -1.5549    3.6038 H   0  0  0  1  0  0  0  0  0  0  0  0
    0.6897   -1.1198    5.1415 H   0  0  0  1  0  0  0  0  0  0  0  0
    1.4654   -0.6309    3.6537 H   0  0  0  1  0  0  0  0  0  0  0  0
   -0.7326    7.7805    2.1197 F   0  0  0  1  0  0  0  0  0  0  0  0
   -1.6119    7.7223    1.1180 C   0  0  0  1  0  0  0  0  0  0  0  0
   -2.4738    8.7202    1.3201 F   0  0  0  1  0  0  0  0  0  0  0  0
   -0.9367    8.0305    0.0100 F   0  0  0  1  0  0  0  0  0  0  0  0
   -2.2945    6.3781    1.0246 C   0  0  0  1  0  0  0  0  0  0  0  0
   -1.5889    5.1968    1.2414 C   0  0  0  1  0  0  0  0  0  0  0  0
   -2.2106    3.9621    1.1511 C   0  0  0  1  0  0  0  0  0  0  0  0
   -3.5638    3.8914    0.8550 C   0  0  0  1  0  0  0  0  0  0  0  0
   -4.2781    5.0470    0.6373 C   0  0  0  1  0  0  0  0  0  0  0  0
   -3.6478    6.2798    0.7194 C   0  0  0  1  0  0  0  0  0  0  0  0
   -1.4171    2.6965    1.3746 C   0  0  0  1  0  0  0  0  0  0  0  0
   -0.5766    5.2426    1.4754 H   0  0  0  1  0  0  0  0  0  0  0  0
   -4.0373    2.9672    0.7976 H   0  0  0  1  0  0  0  0  0  0  0  0
   -5.2919    4.9961    0.4109 H   0  0  0  1  0  0  0  0  0  0  0  0
   -4.1971    7.1464    0.5496 H   0  0  0  1  0  0  0  0  0  0  0  0
   -1.9344    1.8931    0.8930 H   0  0  0  1  0  0  0  0  0  0  0  0
   -0.4562    2.8250    0.9216 H   0  0  0  1  0  0  0  0  0  0  0  0
  1  4  1  0  0  0  0
  2  4  1  0  0  0  0
  2  5  2  0  0  0  0
  2  6  1  0  0  0  0
  3  4  1  0  0  0  0
  3  7  1  0  0  0  0
  3  8  1  0  0  0  0
  4 29  1  0  0  0  0
  6  9  1  0  0  0  0
  6 12  1  0  0  0  0
  8 10  1  0  0  0  0
  8 11  2  0  0  0  0
  9 13  1  0  0  0  0
  9 14  1  0  0  0  0
  9 15  1  0  0  0  0
 10 16  1  0  0  0  0
 10 17  1  0  0  0  0
 10 18  1  0  0  0  0
 19 20  1  0  0  0  0
 20 21  1  0  0  0  0
 20 22  1  0  0  0  0
 20 23  1  0  0  0  0
 23 24  4  0  0  0  0
 23 28  4  0  0  0  0
 24 25  4  0  0  0  0
 24 30  1  0  0  0  0
 25 26  4  0  0  0  0
 25 29  1  0  0  0  0
 26 27  4  0  0  0  0
 26 31  1  0  0  0  0
 27 28  4  0  0  0  0
 27 32  1  0  0  0  0
 28 33  1  0  0  0  0
 29 34  1  0  0  0  0
 29 35  1  0  0  0  0
M  END
> <BCLConfClusterSize>
1

> <ConfClashScore>
0 

> <ConfOneFourInteractionScore>
-0.985807 

> <ConfScore>
0.0456369 

> <ConfScorePBest>
0.00484336 

> <ConfTolerance>
0.452384 

> <RosettaParamsInstructions>
M  ROOT 3
M  POLY_N_BB 3
M  POLY_CA_BB 4
M  POLY_C_BB 2
M  POLY_O_BB 5
M  POLY_IGNORE 9 10 11 12 13 14 15 16 17 18 
M  POLY_UPPER 6
M  POLY_LOWER 8
M  POLY_CHG 0
M  POLY_PROPERTIES ALPHA_AA L_AA PROTEIN AROMATIC POLYMER 
M  END

$$$$



 35 35  0  0  0  0  0  0  0  0999 V2000
   -1.0901    2.3643    2.9928 H   0  0  0  1  0  0  0  0  0  0  0  0
   -2.9762    1.5821    2.4571 C   0  0  0  1  0  0  0  0  0  0  0  0
   -0.8085    0.5485    2.0450 N   0  0  0  1  0  0  0  0  0  0  0  0
   -1.5061    1.8194    2.1713 C   0  0  0  1  0  0  0  0  0  0  0  0
   -3.6310    2.3741    3.1336 O   0  0  0  1  0  0  0  0  0  0  0  0
   -3.4971    0.4726    1.9309 N   0  0  0  1  0  0  0  0  0  0  0  0
   -0.4880    0.2706    1.1616 H   0  0  0  1  0  0  0  0  0  0  0  0
   -0.5898   -0.2532    3.0922 C   0  0  0  1  0  0  0  0  0  0  0  0
   -4.8710    0.0639    2.1822 C   0  0  0  1  0  0  0  0  0  0  0  0
    0.2466   -1.4870    2.8140 C   0  0  0  1  0  0  0  0  0  0  0  0
   -1.0300   -0.0216    4.2152 O   0  0  0  1  0  0  0  0  0  0  0  0
   -2.9350   -0.0868    1.3551 H   0  0  0  1  0  0  0  0  0  0  0  0
   -4.8867   -0.6862    2.9451 H   0  0  0  1  0  0  0  0  0  0  0  0
   -5.2949   -0.3330    1.2834 H   0  0  0  1  0  0  0  0  0  0  0  0
   -5.4417    0.9103    2.5027 H   0  0  0  1  0  0  0  0  0  0  0  0
    1.2685   -1.2018    2.6750 H   0  0  0  1  0  0  0  0  0  0  0  0
   -0.1125   -1.9688    1.9287 H   0  0  0  1  0  0  0  0  0  0  0  0
    0.1741   -2.1609    3.6419 H   0  0  0  1  0  0  0  0  0  0  0  0
   -0.4376    7.7241    0.4913 F   0  0  0  1  0  0  0  0  0  0  0  0
   -1.6184    7.7102    1.1122 C   0  0  0  1  0  0  0  0  0  0  0  0
   -1.3818    8.0821    2.3712 F   0  0  0  1  0  0  0  0  0  0  0  0
   -2.3404    8.6879    0.5632 F   0  0  0  1  0  0  0  0  0  0  0  0
   -2.3048    6.3620    1.0242 C   0  0  0  1  0  0  0  0  0  0  0  0
   -1.5516    5.2033    1.0012 C   0  0  0  1  0  0  0  0  0  0  0  0
   -2.1797    3.9699    0.9261 C   0  0  0  1  0  0  0  0  0  0  0  0
   -3.5588    3.8989    0.8688 C   0  0  0  1  0  0  0  0  0  0  0  0
   -4.3141    5.0610    0.8919 C   0  0  0  1  0  0  0  0  0  0  0  0
   -3.6880    6.2910    0.9667 C   0  0  0  1  0  0  0  0  0  0  0  0
   -1.3335    2.6660    0.9063 C   0  0  0  1  0  0  0  0  0  0  0  0
   -0.5137    5.2569    1.0403 H   0  0  0  1  0  0  0  0  0  0  0  0
   -4.0298    2.9737    0.8084 H   0  0  0  1  0  0  0  0  0  0  0  0
   -5.3519    5.0075    0.8528 H   0  0  0  1  0  0  0  0  0  0  0  0
   -4.2545    7.1630    0.9800 H   0  0  0  1  0  0  0  0  0  0  0  0
   -1.6302    2.0803    0.0614 H   0  0  0  1  0  0  0  0  0  0  0  0
   -0.3012    2.9313    0.8123 H   0  0  0  1  0  0  0  0  0  0  0  0
  1  4  1  0  0  0  0
  2  4  1  0  0  0  0
  2  5  2  0  0  0  0
  2  6  1  0  0  0  0
  3  4  1  0  0  0  0
  3  7  1  0  0  0  0
  3  8  1  0  0  0  0
  4 29  1  0  0  0  0
  6  9  1  0  0  0  0
  6 12  1  0  0  0  0
  8 10  1  0  0  0  0
  8 11  2  0  0  0  0
  9 13  1  0  0  0  0
  9 14  1  0  0  0  0
  9 15  1  0  0  0  0
 10 16  1  0  0  0  0
 10 17  1  0  0  0  0
 10 18  1  0  0  0  0
 19 20  1  0  0  0  0
 20 21  1  0  0  0  0
 20 22  1  0  0  0  0
 20 23  1  0  0  0  0
 23 24  4  0  0  0  0
 23 28  4  0  0  0  0
 24 25  4  0  0  0  0
 24 30  1  0  0  0  0
 25 26  4  0  0  0  0
 25 29  1  0  0  0  0
 26 27  4  0  0  0  0
 26 31  1  0  0  0  0
 27 28  4  0  0  0  0
 27 32  1  0  0  0  0
 28 33  1  0  0  0  0
 29 34  1  0  0  0  0
 29 35  1  0  0  0  0
M  END
> <BCLConfClusterSize>
1

> <ConfClashScore>
0 

> <ConfOneFourInteractionScore>
-0.956443 

> <ConfScore>
0.0475872 

> <ConfScorePBest>
0.00481488 

> <ConfTolerance>
0.53906 

> <RosettaParamsInstructions>
M  ROOT 3
M  POLY_N_BB 3
M  POLY_CA_BB 4
M  POLY_C_BB 2
M  POLY_O_BB 5
M  POLY_IGNORE 9 10 11 12 13 14 15 16 17 18 
M  POLY_UPPER 6
M  POLY_LOWER 8
M  POLY_CHG 0
M  POLY_PROPERTIES ALPHA_AA L_AA PROTEIN AROMATIC POLYMER 
M  END

$$$$



 35 35  0  0  0  0  0  0  0  0999 V2000
   -0.0305    3.0084    2.5466 H   0  0  0  1  0  0  0  0  0  0  0  0
   -1.9001    2.4426    3.3475 C   0  0  0  1  0  0  0  0  0  0  0  0
   -0.2697    0.9682    2.2902 N   0  0  0  1  0  0  0  0  0  0  0  0
   -0.8126    2.3219    2.2978 C   0  0  0  1  0  0  0  0  0  0  0  0
   -2.9222    1.7612    3.2785 O   0  0  0  1  0  0  0  0  0  0  0  0
   -1.7139    3.3135    4.3520 N   0  0  0  1  0  0  0  0  0  0  0  0
   -0.8411    0.2312    1.9888 H   0  0  0  1  0  0  0  0  0  0  0  0
    0.9794    0.6980    2.6797 C   0  0  0  1  0  0  0  0  0  0  0  0
   -2.7283    3.5590    5.3662 C   0  0  0  1  0  0  0  0  0  0  0  0
    1.4390   -0.7322    2.4732 C   0  0  0  1  0  0  0  0  0  0  0  0
    1.7175    1.5353    3.1721 O   0  0  0  1  0  0  0  0  0  0  0  0
   -0.8653    3.8009    4.4041 H   0  0  0  1  0  0  0  0  0  0  0  0
   -2.9578    2.6437    5.8707 H   0  0  0  1  0  0  0  0  0  0  0  0
   -3.6128    3.9408    4.9006 H   0  0  0  1  0  0  0  0  0  0  0  0
   -2.3601    4.2729    6.0731 H   0  0  0  1  0  0  0  0  0  0  0  0
    1.5961   -1.1977    3.4237 H   0  0  0  1  0  0  0  0  0  0  0  0
    2.3542   -0.7359    1.9189 H   0  0  0  1  0  0  0  0  0  0  0  0
    0.6910   -1.2722    1.9312 H   0  0  0  1  0  0  0  0  0  0  0  0
   -0.3994    7.6941    0.5720 F   0  0  0  1  0  0  0  0  0  0  0  0
   -1.6192    7.7048    1.1124 C   0  0  0  1  0  0  0  0  0  0  0  0
   -1.4655    8.1184    2.3712 F   0  0  0  1  0  0  0  0  0  0  0  0
   -2.2978    8.6653    0.4836 F   0  0  0  1  0  0  0  0  0  0  0  0
   -2.3028    6.3608    1.0243 C   0  0  0  1  0  0  0  0  0  0  0  0
   -1.5494    5.2022    1.0055 C   0  0  0  1  0  0  0  0  0  0  0  0
   -2.1771    3.9686    0.9300 C   0  0  0  1  0  0  0  0  0  0  0  0
   -3.5560    3.8973    0.8683 C   0  0  0  1  0  0  0  0  0  0  0  0
   -4.3115    5.0594    0.8871 C   0  0  0  1  0  0  0  0  0  0  0  0
   -3.6857    6.2895    0.9624 C   0  0  0  1  0  0  0  0  0  0  0  0
   -1.3541    2.7021    0.9153 C   0  0  0  1  0  0  0  0  0  0  0  0
   -0.5116    5.2559    1.0479 H   0  0  0  1  0  0  0  0  0  0  0  0
   -4.0268    2.9720    0.8076 H   0  0  0  1  0  0  0  0  0  0  0  0
   -5.3492    5.0057    0.8447 H   0  0  0  1  0  0  0  0  0  0  0  0
   -4.2524    7.1615    0.9725 H   0  0  0  1  0  0  0  0  0  0  0  0
   -1.9674    1.9015    0.5579 H   0  0  0  1  0  0  0  0  0  0  0  0
   -0.5263    2.8416    0.2519 H   0  0  0  1  0  0  0  0  0  0  0  0
  1  4  1  0  0  0  0
  2  4  1  0  0  0  0
  2  5  2  0  0  0  0
  2  6  1  0  0  0  0
  3  4  1  0  0  0  0
  3  7  1  0  0  0  0
  3  8  1  0  0  0  0
  4 29  1  0  0  0  0
  6  9  1  0  0  0  0
  6 12  1  0  0  0  0
  8 10  1  0  0  0  0
  8 11  2  0  0  0  0
  9 13  1  0  0  0  0
  9 14  1  0  0  0  0
  9 15  1  0  0  0  0
 10 16  1  0  0  0  0
 10 17  1  0  0  0  0
 10 18  1  0  0  0  0
 19 20  1  0  0  0  0
 20 21  1  0  0  0  0
 20 22  1  0  0  0  0
 20 23  1  0  0  0  0
 23 24  4  0  0  0  0
 23 28  4  0  0  0  0
 24 25  4  0  0  0  0
 24 30  1  0  0  0  0
 25 26  4  0  0  0  0
 25 29  1  0  0  0  0
 26 27  4  0  0  0  0
 26 31  1  0  0  0  0
 27 28  4  0  0  0  0
 27 32  1  0  0  0  0
 28 33  1  0  0  0  0
 29 34  1  0  0  0  0
 29 35  1  0  0  0  0
M  END
> <BCLConfClusterSize>
1

> <ConfClashScore>
0 

> <ConfOneFourInteractionScore>
-0.985807 

> <ConfScore>
0.0506257 

> <ConfScorePBest>
0.00478639 

> <ConfTolerance>
0.470401 

> <RosettaParamsInstructions>
M  ROOT 3
M  POLY_N_BB 3
M  POLY_CA_BB 4
M  POLY_C_BB 2
M  POLY_O_BB 5
M  POLY_IGNORE 9 10 11 12 13 14 15 16 17 18 
M  POLY_UPPER 6
M  POLY_LOWER 8
M  POLY_CHG 0
M  POLY_PROPERTIES ALPHA_AA L_AA PROTEIN AROMATIC POLYMER 
M  END

$$$$



 35 35  0  0  0  0  0  0  0  0999 V2000
   -1.3842    2.3110   -0.7438 H   0  0  0  1  0  0  0  0  0  0  0  0
   -0.4179    0.6745    0.1265 C   0  0  0  1  0  0  0  0  0  0  0  0
   -2.8506    1.1221    0.0258 N   0  0  0  1  0  0  0  0  0  0  0  0
   -1.5292    1.7216    0.1374 C   0  0  0  1  0  0  0  0  0  0  0  0
    0.7388    0.9722   -0.1222 O   0  0  0  1  0  0  0  0  0  0  0  0
   -0.8431   -0.5665    0.4115 N   0  0  0  1  0  0  0  0  0  0  0  0
   -3.5290    1.3444    0.6971 H   0  0  0  1  0  0  0  0  0  0  0  0
   -3.1710    0.2793   -0.9602 C   0  0  0  1  0  0  0  0  0  0  0  0
    0.0610   -1.7059    0.4607 C   0  0  0  1  0  0  0  0  0  0  0  0
   -4.5838   -0.2700   -0.9241 C   0  0  0  1  0  0  0  0  0  0  0  0
   -2.3835   -0.0422   -1.8490 O   0  0  0  1  0  0  0  0  0  0  0  0
   -1.7954   -0.7102    0.5928 H   0  0  0  1  0  0  0  0  0  0  0  0
    1.0634   -1.3605    0.6051 H   0  0  0  1  0  0  0  0  0  0  0  0
    0.0002   -2.2491   -0.4592 H   0  0  0  1  0  0  0  0  0  0  0  0
   -0.2159   -2.3458    1.2723 H   0  0  0  1  0  0  0  0  0  0  0  0
   -4.9333   -0.2908    0.0870 H   0  0  0  1  0  0  0  0  0  0  0  0
   -4.5907   -1.2624   -1.3241 H   0  0  0  1  0  0  0  0  0  0  0  0
   -5.2245    0.3557   -1.5098 H   0  0  0  1  0  0  0  0  0  0  0  0
   -2.1889    8.6465    0.3463 F   0  0  0  1  0  0  0  0  0  0  0  0
   -1.6105    7.7250    1.1184 C   0  0  0  1  0  0  0  0  0  0  0  0
   -0.3310    7.6753    0.7446 F   0  0  0  1  0  0  0  0  0  0  0  0
   -1.6188    8.2175    2.3578 F   0  0  0  1  0  0  0  0  0  0  0  0
   -2.2951    6.3771    1.0252 C   0  0  0  1  0  0  0  0  0  0  0  0
   -1.5833    5.1946    1.2130 C   0  0  0  1  0  0  0  0  0  0  0  0
   -2.2052    3.9600    1.1230 C   0  0  0  1  0  0  0  0  0  0  0  0
   -3.5645    3.8904    0.8563 C   0  0  0  1  0  0  0  0  0  0  0  0
   -4.2851    5.0473    0.6675 C   0  0  0  1  0  0  0  0  0  0  0  0
   -3.6547    6.2801    0.7492 C   0  0  0  1  0  0  0  0  0  0  0  0
   -1.4052    2.6932    1.3145 C   0  0  0  1  0  0  0  0  0  0  0  0
   -0.5660    5.2394    1.4248 H   0  0  0  1  0  0  0  0  0  0  0  0
   -4.0380    2.9662    0.7993 H   0  0  0  1  0  0  0  0  0  0  0  0
   -5.3036    4.9973    0.4633 H   0  0  0  1  0  0  0  0  0  0  0  0
   -4.2089    7.1476    0.6014 H   0  0  0  1  0  0  0  0  0  0  0  0
   -0.3746    2.9558    1.4323 H   0  0  0  1  0  0  0  0  0  0  0  0
   -1.7519    2.2020    2.1996 H   0  0  0  1  0  0  0  0  0  0  0  0
  1  4  1  0  0  0  0
  2  4  1  0  0  0  0
  2  5  2  0  0  0  0
  2  6  1  0  0  0  0
  3  4  1  0  0  0  0
  3  7  1  0  0  0  0
  3  8  1  0  0  0  0
  4 29  1  0  0  0  0
  6  9  1  0  0  0  0
  6 12  1  0  0  0  0
  8 10  1  0  0  0  0
  8 11  2  0  0  0  0
  9 13  1  0  0  0  0
  9 14  1  0  0  0  0
  9 15  1  0  0  0  0
 10 16  1  0  0  0  0
 10 17  1  0  0  0  0
 10 18  1  0  0  0  0
 19 20  1  0  0  0  0
 20 21  1  0  0  0  0
 20 22  1  0  0  0  0
 20 23  1  0  0  0  0
 23 24  4  0  0  0  0
 23 28  4  0  0  0  0
 24 25  4  0  0  0  0
 24 30  1  0  0  0  0
 25 26  4  0  0  0  0
 25 29  1  0  0  0  0
 26 27  4  0  0  0  0
 26 31  1  0  0  0  0
 27 28  4  0  0  0  0
 27 32  1  0  0  0  0
 28 33  1  0  0  0  0
 29 34  1  0  0  0  0
 29 35  1  0  0  0  0
M  END
> <BCLConfClusterSize>
1

> <ConfClashScore>
0 

> <ConfOneFourInteractionScore>
-0.937775 

> <ConfScore>
0.0529694 

> <ConfScorePBest>
0.00475791 

> <ConfTolerance>
0.500006 

> <RosettaParamsInstructions>
M  ROOT 3
M  POLY_N_BB 3
M  POLY_CA_BB 4
M  POLY_C_BB 2
M  POLY_O_BB 5
M  POLY_IGNORE 9 10 11 12 13 14 15 16 17 18 
M  POLY_UPPER 6
M  POLY_LOWER 8
M  POLY_CHG 0
M  POLY_PROPERTIES ALPHA_AA L_AA PROTEIN AROMATIC POLYMER 
M  END

$$$$



 35 35  0  0  0  0  0  0  0  0999 V2000
   -2.6997    1.2671    1.8507 H   0  0  0  1  0  0  0  0  0  0  0  0
   -0.6866    0.5892    2.0965 C   0  0  0  1  0  0  0  0  0  0  0  0
   -1.7870    2.2832    3.4241 N   0  0  0  1  0  0  0  0  0  0  0  0
   -1.7491    1.6939    2.0940 C   0  0  0  1  0  0  0  0  0  0  0  0
    0.2941    0.6498    2.8332 O   0  0  0  1  0  0  0  0  0  0  0  0
   -0.9031   -0.4300    1.2500 N   0  0  0  1  0  0  0  0  0  0  0  0
   -1.3713    3.1593    3.5653 H   0  0  0  1  0  0  0  0  0  0  0  0
   -2.3687    1.6712    4.4596 C   0  0  0  1  0  0  0  0  0  0  0  0
    0.0599   -1.5055    1.0658 C   0  0  0  1  0  0  0  0  0  0  0  0
   -2.1576    2.3219    5.8128 C   0  0  0  1  0  0  0  0  0  0  0  0
   -3.0355    0.6465    4.3422 O   0  0  0  1  0  0  0  0  0  0  0  0
   -1.7386   -0.4505    0.7382 H   0  0  0  1  0  0  0  0  0  0  0  0
    0.3276   -1.5720    0.0319 H   0  0  0  1  0  0  0  0  0  0  0  0
   -0.3745   -2.4309    1.3817 H   0  0  0  1  0  0  0  0  0  0  0  0
    0.9346   -1.3043    1.6482 H   0  0  0  1  0  0  0  0  0  0  0  0
   -3.1062    2.5638    6.2447 H   0  0  0  1  0  0  0  0  0  0  0  0
   -1.5824    3.2161    5.6924 H   0  0  0  1  0  0  0  0  0  0  0  0
   -1.6352    1.6451    6.4561 H   0  0  0  1  0  0  0  0  0  0  0  0
   -0.2825    7.6177    1.1653 F   0  0  0  1  0  0  0  0  0  0  0  0
   -1.6115    7.7224    1.1137 C   0  0  0  1  0  0  0  0  0  0  0  0
   -1.9736    8.4100    2.1979 F   0  0  0  1  0  0  0  0  0  0  0  0
   -1.8842    8.5034    0.0676 F   0  0  0  1  0  0  0  0  0  0  0  0
   -2.2948    6.3782    1.0260 C   0  0  0  1  0  0  0  0  0  0  0  0
   -1.5616    5.1946    1.0692 C   0  0  0  1  0  0  0  0  0  0  0  0
   -2.1846    3.9603    0.9834 C   0  0  0  1  0  0  0  0  0  0  0  0
   -3.5651    3.8912    0.8676 C   0  0  0  1  0  0  0  0  0  0  0  0
   -4.3070    5.0491    0.8231 C   0  0  0  1  0  0  0  0  0  0  0  0
   -3.6765    6.2821    0.8994 C   0  0  0  1  0  0  0  0  0  0  0  0
   -1.3629    2.6933    1.0160 C   0  0  0  1  0  0  0  0  0  0  0  0
   -0.5272    5.2385    1.1676 H   0  0  0  1  0  0  0  0  0  0  0  0
   -4.0381    2.9665    0.8146 H   0  0  0  1  0  0  0  0  0  0  0  0
   -5.3418    4.9997    0.7320 H   0  0  0  1  0  0  0  0  0  0  0  0
   -4.2473    7.1506    0.8614 H   0  0  0  1  0  0  0  0  0  0  0  0
   -1.4636    2.2101    0.0666 H   0  0  0  1  0  0  0  0  0  0  0  0
   -0.3402    2.9671    1.1707 H   0  0  0  1  0  0  0  0  0  0  0  0
  1  4  1  0  0  0  0
  2  4  1  0  0  0  0
  2  5  2  0  0  0  0
  2  6  1  0  0  0  0
  3  4  1  0  0  0  0
  3  7  1  0  0  0  0
  3  8  1  0  0  0  0
  4 29  1  0  0  0  0
  6  9  1  0  0  0  0
  6 12  1  0  0  0  0
  8 10  1  0  0  0  0
  8 11  2  0  0  0  0
  9 13  1  0  0  0  0
  9 14  1  0  0  0  0
  9 15  1  0  0  0  0
 10 16  1  0  0  0  0
 10 17  1  0  0  0  0
 10 18  1  0  0  0  0
 19 20  1  0  0  0  0
 20 21  1  0  0  0  0
 20 22  1  0  0  0  0
 20 23  1  0  0  0  0
 23 24  4  0  0  0  0
 23 28  4  0  0  0  0
 24 25  4  0  0  0  0
 24 30  1  0  0  0  0
 25 26  4  0  0  0  0
 25 29  1  0  0  0  0
 26 27  4  0  0  0  0
 26 31  1  0  0  0  0
 27 28  4  0  0  0  0
 27 32  1  0  0  0  0
 28 33  1  0  0  0  0
 29 34  1  0  0  0  0
 29 35  1  0  0  0  0
M  END
> <BCLConfClusterSize>
1

> <ConfClashScore>
0 

> <ConfOneFourInteractionScore>
-0.987695 

> <ConfScore>
0.0544601 

> <ConfScorePBest>
0.00472943 

> <ConfTolerance>
0.519662 

> <RosettaParamsInstructions>
M  ROOT 3
M  POLY_N_BB 3
M  POLY_CA_BB 4
M  POLY_C_BB 2
M  POLY_O_BB 5
M  POLY_IGNORE 9 10 11 12 13 14 15 16 17 18 
M  POLY_UPPER 6
M  POLY_LOWER 8
M  POLY_CHG 0
M  POLY_PROPERTIES ALPHA_AA L_AA PROTEIN AROMATIC POLYMER 
M  END

$$$$



 35 35  0  0  0  0  0  0  0  0999 V2000
   -0.4154    1.3741   -0.4757 H   0  0  0  1  0  0  0  0  0  0  0  0
   -2.1178    2.1798   -1.4250 C   0  0  0  1  0  0  0  0  0  0  0  0
    0.0273    3.3342   -0.9543 N   0  0  0  1  0  0  0  0  0  0  0  0
   -0.9163    2.3190   -0.5106 C   0  0  0  1  0  0  0  0  0  0  0  0
   -2.7750    1.1523   -1.4548 O   0  0  0  1  0  0  0  0  0  0  0  0
   -2.3997    3.2501   -2.1846 N   0  0  0  1  0  0  0  0  0  0  0  0
    0.0996    4.1679   -0.4443 H   0  0  0  1  0  0  0  0  0  0  0  0
    0.7984    3.1691   -2.0328 C   0  0  0  1  0  0  0  0  0  0  0  0
   -3.4387    3.2284   -3.2034 C   0  0  0  1  0  0  0  0  0  0  0  0
    1.9187    4.1768   -2.2020 C   0  0  0  1  0  0  0  0  0  0  0  0
    0.6258    2.2635   -2.8475 O   0  0  0  1  0  0  0  0  0  0  0  0
   -1.8880    4.0747   -2.0484 H   0  0  0  1  0  0  0  0  0  0  0  0
   -3.5563    2.2310   -3.5724 H   0  0  0  1  0  0  0  0  0  0  0  0
   -3.1616    3.8761   -4.0088 H   0  0  0  1  0  0  0  0  0  0  0  0
   -4.3620    3.5623   -2.7780 H   0  0  0  1  0  0  0  0  0  0  0  0
    2.8618    3.6736   -2.1555 H   0  0  0  1  0  0  0  0  0  0  0  0
    1.8643    4.9050   -1.4199 H   0  0  0  1  0  0  0  0  0  0  0  0
    1.8206    4.6630   -3.1501 H   0  0  0  1  0  0  0  0  0  0  0  0
   -0.3874    7.6999    0.6064 F   0  0  0  1  0  0  0  0  0  0  0  0
   -1.6251    7.7080    1.1042 C   0  0  0  1  0  0  0  0  0  0  0  0
   -1.4759    8.1100    2.3673 F   0  0  0  1  0  0  0  0  0  0  0  0
   -2.2868    8.6733    0.5003 F   0  0  0  1  0  0  0  0  0  0  0  0
   -2.3093    6.3643    1.0147 C   0  0  0  1  0  0  0  0  0  0  0  0
   -1.5566    5.2014    0.9978 C   0  0  0  1  0  0  0  0  0  0  0  0
   -2.1635    3.9493    0.9314 C   0  0  0  1  0  0  0  0  0  0  0  0
   -3.5524    3.9028    0.8767 C   0  0  0  1  0  0  0  0  0  0  0  0
   -4.3111    5.0639    0.8834 C   0  0  0  1  0  0  0  0  0  0  0  0
   -3.6928    6.2913    0.9493 C   0  0  0  1  0  0  0  0  0  0  0  0
   -1.3376    2.6798    0.9192 C   0  0  0  1  0  0  0  0  0  0  0  0
   -0.5192    5.2643    1.0353 H   0  0  0  1  0  0  0  0  0  0  0  0
   -4.0309    2.9805    0.8300 H   0  0  0  1  0  0  0  0  0  0  0  0
   -5.3486    5.0066    0.8385 H   0  0  0  1  0  0  0  0  0  0  0  0
   -4.2614    7.1621    0.9500 H   0  0  0  1  0  0  0  0  0  0  0  0
   -0.4620    2.8251    1.5168 H   0  0  0  1  0  0  0  0  0  0  0  0
   -1.9190    1.8791    1.3262 H   0  0  0  1  0  0  0  0  0  0  0  0
  1  4  1  0  0  0  0
  2  4  1  0  0  0  0
  2  5  2  0  0  0  0
  2  6  1  0  0  0  0
  3  4  1  0  0  0  0
  3  7  1  0  0  0  0
  3  8  1  0  0  0  0
  4 29  1  0  0  0  0
  6  9  1  0  0  0  0
  6 12  1  0  0  0  0
  8 10  1  0  0  0  0
  8 11  2  0  0  0  0
  9 13  1  0  0  0  0
  9 14  1  0  0  0  0
  9 15  1  0  0  0  0
 10 16  1  0  0  0  0
 10 17  1  0  0  0  0
 10 18  1  0  0  0  0
 19 20  1  0  0  0  0
 20 21  1  0  0  0  0
 20 22  1  0  0  0  0
 20 23  1  0  0  0  0
 23 24  4  0  0  0  0
 23 28  4  0  0  0  0
 24 25  4  0  0  0  0
 24 30  1  0  0  0  0
 25 26  4  0  0  0  0
 25 29  1  0  0  0  0
 26 27  4  0  0  0  0
 26 31  1  0  0  0  0
 27 28  4  0  0  0  0
 27 32  1  0  0  0  0
 28 33  1  0  0  0  0
 29 34  1  0  0  0  0
 29 35  1  0  0  0  0
M  END
> <BCLConfClusterSize>
1

> <ConfClashScore>
0 

> <ConfOneFourInteractionScore>
-0.957074 

> <ConfScore>
0.0565485 

> <ConfScorePBest>
0.00470095 

> <ConfTolerance>
0.458594 

> <RosettaParamsInstructions>
M  ROOT 3
M  POLY_N_BB 3
M  POLY_CA_BB 4
M  POLY_C_BB 2
M  POLY_O_BB 5
M  POLY_IGNORE 9 10 11 12 13 14 15 16 17 18 
M  POLY_UPPER 6
M  POLY_LOWER 8
M  POLY_CHG 0
M  POLY_PROPERTIES ALPHA_AA L_AA PROTEIN AROMATIC POLYMER 
M  END

$$$$



 35 35  0  0  0  0  0  0  0  0999 V2000
   -0.4248    2.8464   -0.9055 H   0  0  0  1  0  0  0  0  0  0  0  0
   -0.1799    0.8419   -0.2216 C   0  0  0  1  0  0  0  0  0  0  0  0
   -2.2246    1.8186   -1.0843 N   0  0  0  1  0  0  0  0  0  0  0  0
   -0.9987    2.1249   -0.3623 C   0  0  0  1  0  0  0  0  0  0  0  0
   -0.7244   -0.2462   -0.0396 O   0  0  0  1  0  0  0  0  0  0  0  0
    1.1454    0.9866   -0.3091 N   0  0  0  1  0  0  0  0  0  0  0  0
   -2.5287    0.8879   -1.1264 H   0  0  0  1  0  0  0  0  0  0  0  0
   -2.9499    2.7620   -1.6916 C   0  0  0  1  0  0  0  0  0  0  0  0
    2.0634   -0.1255   -0.1131 C   0  0  0  1  0  0  0  0  0  0  0  0
   -4.1990    2.2775   -2.4016 C   0  0  0  1  0  0  0  0  0  0  0  0
   -2.6405    3.9506   -1.6859 O   0  0  0  1  0  0  0  0  0  0  0  0
    1.5121    1.8724   -0.5123 H   0  0  0  1  0  0  0  0  0  0  0  0
    2.3959   -0.4860   -1.0641 H   0  0  0  1  0  0  0  0  0  0  0  0
    1.5630   -0.9126    0.4113 H   0  0  0  1  0  0  0  0  0  0  0  0
    2.9062    0.2044    0.4575 H   0  0  0  1  0  0  0  0  0  0  0  0
   -3.9314    1.5485   -3.1377 H   0  0  0  1  0  0  0  0  0  0  0  0
   -4.6817    3.1049   -2.8783 H   0  0  0  1  0  0  0  0  0  0  0  0
   -4.8655    1.8371   -1.6897 H   0  0  0  1  0  0  0  0  0  0  0  0
   -0.2905    7.6061    1.0559 F   0  0  0  1  0  0  0  0  0  0  0  0
   -1.6198    7.7054    1.1103 C   0  0  0  1  0  0  0  0  0  0  0  0
   -1.8993    8.3510    2.2436 F   0  0  0  1  0  0  0  0  0  0  0  0
   -1.9742    8.5224    0.1176 F   0  0  0  1  0  0  0  0  0  0  0  0
   -2.3043    6.3615    1.0260 C   0  0  0  1  0  0  0  0  0  0  0  0
   -1.5523    5.1975    1.0566 C   0  0  0  1  0  0  0  0  0  0  0  0
   -2.1780    3.9679    0.9741 C   0  0  0  1  0  0  0  0  0  0  0  0
   -3.5582    3.8987    0.8660 C   0  0  0  1  0  0  0  0  0  0  0  0
   -4.3083    5.0592    0.8354 C   0  0  0  1  0  0  0  0  0  0  0  0
   -3.6805    6.2924    0.9182 C   0  0  0  1  0  0  0  0  0  0  0  0
   -1.3580    2.6997    1.0016 C   0  0  0  1  0  0  0  0  0  0  0  0
   -0.5171    5.2493    1.1417 H   0  0  0  1  0  0  0  0  0  0  0  0
   -4.0295    2.9734    0.8079 H   0  0  0  1  0  0  0  0  0  0  0  0
   -5.3435    5.0073    0.7503 H   0  0  0  1  0  0  0  0  0  0  0  0
   -4.2451    7.1656    0.8993 H   0  0  0  1  0  0  0  0  0  0  0  0
   -0.4469    2.9071    1.5228 H   0  0  0  1  0  0  0  0  0  0  0  0
   -1.9145    1.9584    1.5360 H   0  0  0  1  0  0  0  0  0  0  0  0
  1  4  1  0  0  0  0
  2  4  1  0  0  0  0
  2  5  2  0  0  0  0
  2  6  1  0  0  0  0
  3  4  1  0  0  0  0
  3  7  1  0  0  0  0
  3  8  1  0  0  0  0
  4 29  1  0  0  0  0
  6  9  1  0  0  0  0
  6 12  1  0  0  0  0
  8 10  1  0  0  0  0
  8 11  2  0  0  0  0
  9 13  1  0  0  0  0
  9 14  1  0  0  0  0
  9 15  1  0  0  0  0
 10 16  1  0  0  0  0
 10 17  1  0  0  0  0
 10 18  1  0  0  0  0
 19 20  1  0  0  0  0
 20 21  1  0  0  0  0
 20 22  1  0  0  0  0
 20 23  1  0  0  0  0
 23 24  4  0  0  0  0
 23 28  4  0  0  0  0
 24 25  4  0  0  0  0
 24 30  1  0  0  0  0
 25 26  4  0  0  0  0
 25 29  1  0  0  0  0
 26 27  4  0  0  0  0
 26 31  1  0  0  0  0
 27 28  4  0  0  0  0
 27 32  1  0  0  0  0
 28 33  1  0  0  0  0
 29 34  1  0  0  0  0
 29 35  1  0  0  0  0
M  END
> <BCLConfClusterSize>
1

> <ConfClashScore>
0 

> <ConfOneFourInteractionScore>
-0.990503 

> <ConfScore>
0.057152 

> <ConfScorePBest>
0.00467247 

> <ConfTolerance>
0.651061 

> <RosettaParamsInstructions>
M  ROOT 3
M  POLY_N_BB 3
M  POLY_CA_BB 4
M  POLY_C_BB 2
M  POLY_O_BB 5
M  POLY_IGNORE 9 10 11 12 13 14 15 16 17 18 
M  POLY_UPPER 6
M  POLY_LOWER 8
M  POLY_CHG 0
M  POLY_PROPERTIES ALPHA_AA L_AA PROTEIN AROMATIC POLYMER 
M  END

$$$$



 35 35  0  0  0  0  0  0  0  0999 V2000
   -0.4414    1.3814   -0.4764 H   0  0  0  1  0  0  0  0  0  0  0  0
   -2.4966    1.4005   -0.9437 C   0  0  0  1  0  0  0  0  0  0  0  0
   -0.8171    3.1549   -1.4492 N   0  0  0  1  0  0  0  0  0  0  0  0
   -1.2191    2.1153   -0.5135 C   0  0  0  1  0  0  0  0  0  0  0  0
   -2.8230    0.3228   -0.4482 O   0  0  0  1  0  0  0  0  0  0  0  0
   -3.2243    2.0226   -1.8849 N   0  0  0  1  0  0  0  0  0  0  0  0
   -0.5646    4.0347   -1.0989 H   0  0  0  1  0  0  0  0  0  0  0  0
   -0.7800    2.9508   -2.7748 C   0  0  0  1  0  0  0  0  0  0  0  0
   -4.3796    1.3989   -2.5127 C   0  0  0  1  0  0  0  0  0  0  0  0
   -0.5763    4.1888   -3.6264 C   0  0  0  1  0  0  0  0  0  0  0  0
   -0.9016    1.8379   -3.2849 O   0  0  0  1  0  0  0  0  0  0  0  0
   -2.9686    2.9282   -2.1586 H   0  0  0  1  0  0  0  0  0  0  0  0
   -4.8298    0.7106   -1.8284 H   0  0  0  1  0  0  0  0  0  0  0  0
   -4.0678    0.8749   -3.3920 H   0  0  0  1  0  0  0  0  0  0  0  0
   -5.0905    2.1528   -2.7795 H   0  0  0  1  0  0  0  0  0  0  0  0
   -1.0596    5.0239   -3.1640 H   0  0  0  1  0  0  0  0  0  0  0  0
   -0.9963    4.0266   -4.5971 H   0  0  0  1  0  0  0  0  0  0  0  0
    0.4706    4.3893   -3.7191 H   0  0  0  1  0  0  0  0  0  0  0  0
   -0.7102    7.9023    0.1419 F   0  0  0  1  0  0  0  0  0  0  0  0
   -1.6090    7.7246    1.1117 C   0  0  0  1  0  0  0  0  0  0  0  0
   -0.9545    7.8932    2.2618 F   0  0  0  1  0  0  0  0  0  0  0  0
   -2.4664    8.7417    1.0172 F   0  0  0  1  0  0  0  0  0  0  0  0
   -2.2955    6.3772    1.0268 C   0  0  0  1  0  0  0  0  0  0  0  0
   -1.5599    5.1972    0.9987 C   0  0  0  1  0  0  0  0  0  0  0  0
   -2.1857    3.9622    0.9166 C   0  0  0  1  0  0  0  0  0  0  0  0
   -3.5586    3.8868    0.8655 C   0  0  0  1  0  0  0  0  0  0  0  0
   -4.3153    5.0486    0.9021 C   0  0  0  1  0  0  0  0  0  0  0  0
   -3.6840    6.2797    0.9743 C   0  0  0  1  0  0  0  0  0  0  0  0
   -1.3591    2.6984    0.8831 C   0  0  0  1  0  0  0  0  0  0  0  0
   -0.5216    5.2417    1.0401 H   0  0  0  1  0  0  0  0  0  0  0  0
   -4.0278    2.9609    0.7997 H   0  0  0  1  0  0  0  0  0  0  0  0
   -5.3536    4.9958    0.8755 H   0  0  0  1  0  0  0  0  0  0  0  0
   -4.2575    7.1472    0.9896 H   0  0  0  1  0  0  0  0  0  0  0  0
   -0.3822    2.9204    1.2590 H   0  0  0  1  0  0  0  0  0  0  0  0
   -1.8263    1.9691    1.5114 H   0  0  0  1  0  0  0  0  0  0  0  0
  1  4  1  0  0  0  0
  2  4  1  0  0  0  0
  2  5  2  0  0  0  0
  2  6  1  0  0  0  0
  3  4  1  0  0  0  0
  3  7  1  0  0  0  0
  3  8  1  0  0  0  0
  4 29  1  0  0  0  0
  6  9  1  0  0  0  0
  6 12  1  0  0  0  0
  8 10  1  0  0  0  0
  8 11  2  0  0  0  0
  9 13  1  0  0  0  0
  9 14  1  0  0  0  0
  9 15  1  0  0  0  0
 10 16  1  0  0  0  0
 10 17  1  0  0  0  0
 10 18  1  0  0  0  0
 19 20  1  0  0  0  0
 20 21  1  0  0  0  0
 20 22  1  0  0  0  0
 20 23  1  0  0  0  0
 23 24  4  0  0  0  0
 23 28  4  0  0  0  0
 24 25  4  0  0  0  0
 24 30  1  0  0  0  0
 25 26  4  0  0  0  0
 25 29  1  0  0  0  0
 26 27  4  0  0  0  0
 26 31  1  0  0  0  0
 27 28  4  0  0  0  0
 27 32  1  0  0  0  0
 28 33  1  0  0  0  0
 29 34  1  0  0  0  0
 29 35  1  0  0  0  0
M  END
> <BCLConfClusterSize>
1

> <ConfClashScore>
0 

> <ConfOneFourInteractionScore>
-0.931937 

> <ConfScore>
0.0642376 

> <ConfScorePBest>
0.00464399 

> <ConfTolerance>
0.608232 

> <RosettaParamsInstructions>
M  ROOT 3
M  POLY_N_BB 3
M  POLY_CA_BB 4
M  POLY_C_BB 2
M  POLY_O_BB 5
M  POLY_IGNORE 9 10 11 12 13 14 15 16 17 18 
M  POLY_UPPER 6
M  POLY_LOWER 8
M  POLY_CHG 0
M  POLY_PROPERTIES ALPHA_AA L_AA PROTEIN AROMATIC POLYMER 
M  END

$$$$



 35 35  0  0  0  0  0  0  0  0999 V2000
   -0.3222    1.3156    2.1373 H   0  0  0  1  0  0  0  0  0  0  0  0
    0.2985    3.2902    2.6616 C   0  0  0  1  0  0  0  0  0  0  0  0
   -1.8523    2.2383    3.2093 N   0  0  0  1  0  0  0  0  0  0  0  0
   -0.7694    2.2825    2.2380 C   0  0  0  1  0  0  0  0  0  0  0  0
    1.4943    3.0426    2.5124 O   0  0  0  1  0  0  0  0  0  0  0  0
   -0.1074    4.4510    3.2000 N   0  0  0  1  0  0  0  0  0  0  0  0
   -2.7128    2.6457    2.9770 H   0  0  0  1  0  0  0  0  0  0  0  0
   -1.7136    1.6593    4.4116 C   0  0  0  1  0  0  0  0  0  0  0  0
    0.8709    5.4426    3.6216 C   0  0  0  1  0  0  0  0  0  0  0  0
   -2.9555    1.6415    5.2815 C   0  0  0  1  0  0  0  0  0  0  0  0
   -0.6545    1.1687    4.8007 O   0  0  0  1  0  0  0  0  0  0  0  0
   -1.0645    4.6311    3.3095 H   0  0  0  1  0  0  0  0  0  0  0  0
    0.4026    6.1530    4.2703 H   0  0  0  1  0  0  0  0  0  0  0  0
    1.2600    5.9472    2.7620 H   0  0  0  1  0  0  0  0  0  0  0  0
    1.6693    4.9566    4.1423 H   0  0  0  1  0  0  0  0  0  0  0  0
   -3.8259    1.7091    4.6628 H   0  0  0  1  0  0  0  0  0  0  0  0
   -2.9311    2.4729    5.9545 H   0  0  0  1  0  0  0  0  0  0  0  0
   -2.9858    0.7299    5.8409 H   0  0  0  1  0  0  0  0  0  0  0  0
   -0.8076    7.9246    0.0991 F   0  0  0  1  0  0  0  0  0  0  0  0
   -1.6263    7.7109    1.1306 C   0  0  0  1  0  0  0  0  0  0  0  0
   -0.8559    7.8262    2.1875 F   0  0  0  1  0  0  0  0  0  0  0  0
   -2.4638    8.7187    1.1075 F   0  0  0  1  0  0  0  0  0  0  0  0
   -2.3087    6.3622    1.0343 C   0  0  0  1  0  0  0  0  0  0  0  0
   -1.5527    5.2055    1.0066 C   0  0  0  1  0  0  0  0  0  0  0  0
   -2.1774    3.9708    0.9239 C   0  0  0  1  0  0  0  0  0  0  0  0
   -3.5562    3.8967    0.8637 C   0  0  0  1  0  0  0  0  0  0  0  0
   -4.3146    5.0567    0.8915 C   0  0  0  1  0  0  0  0  0  0  0  0
   -3.6916    6.2877    0.9740 C   0  0  0  1  0  0  0  0  0  0  0  0
   -1.3513    2.7065    0.8994 C   0  0  0  1  0  0  0  0  0  0  0  0
   -0.5150    5.2614    1.0478 H   0  0  0  1  0  0  0  0  0  0  0  0
   -4.0247    2.9706    0.7976 H   0  0  0  1  0  0  0  0  0  0  0  0
   -5.3523    5.0007    0.8503 H   0  0  0  1  0  0  0  0  0  0  0  0
   -4.2604    7.1582    0.9908 H   0  0  0  1  0  0  0  0  0  0  0  0
   -1.9738    1.9123    0.5437 H   0  0  0  1  0  0  0  0  0  0  0  0
   -0.5392    2.8559    0.2190 H   0  0  0  1  0  0  0  0  0  0  0  0
  1  4  1  0  0  0  0
  2  4  1  0  0  0  0
  2  5  2  0  0  0  0
  2  6  1  0  0  0  0
  3  4  1  0  0  0  0
  3  7  1  0  0  0  0
  3  8  1  0  0  0  0
  4 29  1  0  0  0  0
  6  9  1  0  0  0  0
  6 12  1  0  0  0  0
  8 10  1  0  0  0  0
  8 11  2  0  0  0  0
  9 13  1  0  0  0  0
  9 14  1  0  0  0  0
  9 15  1  0  0  0  0
 10 16  1  0  0  0  0
 10 17  1  0  0  0  0
 10 18  1  0  0  0  0
 19 20  1  0  0  0  0
 20 21  1  0  0  0  0
 20 22  1  0  0  0  0
 20 23  1  0  0  0  0
 23 24  4  0  0  0  0
 23 28  4  0  0  0  0
 24 25  4  0  0  0  0
 24 30  1  0  0  0  0
 25 26  4  0  0  0  0
 25 29  1  0  0  0  0
 26 27  4  0  0  0  0
 26 31  1  0  0  0  0
 27 28  4  0  0  0  0
 27 32  1  0  0  0  0
 28 33  1  0  0  0  0
 29 34  1  0  0  0  0
 29 35  1  0  0  0  0
M  END
> <BCLConfClusterSize>
1

> <ConfClashScore>
0 

> <ConfOneFourInteractionScore>
-0.950605 

> <ConfScore>
0.0663777 

> <ConfScorePBest>
0.00461551 

> <ConfTolerance>
0.427377 

> <RosettaParamsInstructions>
M  ROOT 3
M  POLY_N_BB 3
M  POLY_CA_BB 4
M  POLY_C_BB 2
M  POLY_O_BB 5
M  POLY_IGNORE 9 10 11 12 13 14 15 16 17 18 
M  POLY_UPPER 6
M  POLY_LOWER 8
M  POLY_CHG 0
M  POLY_PROPERTIES ALPHA_AA L_AA PROTEIN AROMATIC POLYMER 
M  END

$$$$



 35 35  0  0  0  0  0  0  0  0999 V2000
    0.4358    3.6077    0.4874 H   0  0  0  1  0  0  0  0  0  0  0  0
    0.4575    3.4831    2.5874 C   0  0  0  1  0  0  0  0  0  0  0  0
    0.8962    1.6767    1.0389 N   0  0  0  1  0  0  0  0  0  0  0  0
    0.1287    2.8987    1.2275 C   0  0  0  1  0  0  0  0  0  0  0  0
    0.6258    4.6924    2.7389 O   0  0  0  1  0  0  0  0  0  0  0  0
    0.5497    2.6005    3.5947 N   0  0  0  1  0  0  0  0  0  0  0  0
    0.4167    0.8359    0.8857 H   0  0  0  1  0  0  0  0  0  0  0  0
    2.2319    1.6614    1.0674 C   0  0  0  1  0  0  0  0  0  0  0  0
    0.9861    2.9858    4.9285 C   0  0  0  1  0  0  0  0  0  0  0  0
    2.8825    0.3318    0.7387 C   0  0  0  1  0  0  0  0  0  0  0  0
    2.9019    2.6442    1.3385 O   0  0  0  1  0  0  0  0  0  0  0  0
    0.3150    1.6641    3.4260 H   0  0  0  1  0  0  0  0  0  0  0  0
    0.1434    3.3187    5.4977 H   0  0  0  1  0  0  0  0  0  0  0  0
    1.7016    3.7780    4.8544 H   0  0  0  1  0  0  0  0  0  0  0  0
    1.4341    2.1441    5.4140 H   0  0  0  1  0  0  0  0  0  0  0  0
    2.6032    0.0322   -0.2498 H   0  0  0  1  0  0  0  0  0  0  0  0
    2.5571   -0.4075    1.4404 H   0  0  0  1  0  0  0  0  0  0  0  0
    3.9464    0.4324    0.7933 H   0  0  0  1  0  0  0  0  0  0  0  0
   -0.2992    7.5940    1.3208 F   0  0  0  1  0  0  0  0  0  0  0  0
   -1.6096    7.7281    1.1089 C   0  0  0  1  0  0  0  0  0  0  0  0
   -2.0846    8.4512    2.1242 F   0  0  0  1  0  0  0  0  0  0  0  0
   -1.7569    8.4563    0.0014 F   0  0  0  1  0  0  0  0  0  0  0  0
   -2.2952    6.3806    1.0230 C   0  0  0  1  0  0  0  0  0  0  0  0
   -1.5653    5.1984    1.0862 C   0  0  0  1  0  0  0  0  0  0  0  0
   -2.1902    3.9629    1.0034 C   0  0  0  1  0  0  0  0  0  0  0  0
   -3.5567    3.8894    0.8602 C   0  0  0  1  0  0  0  0  0  0  0  0
   -4.3082    5.0538    0.8047 C   0  0  0  1  0  0  0  0  0  0  0  0
   -3.6773    6.2849    0.8781 C   0  0  0  1  0  0  0  0  0  0  0  0
   -1.3696    2.6966    1.0704 C   0  0  0  1  0  0  0  0  0  0  0  0
   -0.5322    5.2415    1.1976 H   0  0  0  1  0  0  0  0  0  0  0  0
   -4.0249    2.9631    0.7939 H   0  0  0  1  0  0  0  0  0  0  0  0
   -5.3425    5.0028    0.7082 H   0  0  0  1  0  0  0  0  0  0  0  0
   -4.2461    7.1539    0.8239 H   0  0  0  1  0  0  0  0  0  0  0  0
   -1.7147    2.1234    1.9054 H   0  0  0  1  0  0  0  0  0  0  0  0
   -1.5356    2.1474    0.1672 H   0  0  0  1  0  0  0  0  0  0  0  0
  1  4  1  0  0  0  0
  2  4  1  0  0  0  0
  2  5  2  0  0  0  0
  2  6  1  0  0  0  0
  3  4  1  0  0  0  0
  3  7  1  0  0  0  0
  3  8  1  0  0  0  0
  4 29  1  0  0  0  0
  6  9  1  0  0  0  0
  6 12  1  0  0  0  0
  8 10  1  0  0  0  0
  8 11  2  0  0  0  0
  9 13  1  0  0  0  0
  9 14  1  0  0  0  0
  9 15  1  0  0  0  0
 10 16  1  0  0  0  0
 10 17  1  0  0  0  0
 10 18  1  0  0  0  0
 19 20  1  0  0  0  0
 20 21  1  0  0  0  0
 20 22  1  0  0  0  0
 20 23  1  0  0  0  0
 23 24  4  0  0  0  0
 23 28  4  0  0  0  0
 24 25  4  0  0  0  0
 24 30  1  0  0  0  0
 25 26  4  0  0  0  0
 25 29  1  0  0  0  0
 26 27  4  0  0  0  0
 26 31  1  0  0  0  0
 27 28  4  0  0  0  0
 27 32  1  0  0  0  0
 28 33  1  0  0  0  0
 29 34  1  0  0  0  0
 29 35  1  0  0  0  0
M  END
> <BCLConfClusterSize>
1

> <ConfClashScore>
0 

> <ConfOneFourInteractionScore>
-0.952877 

> <ConfScore>
0.0730431 

> <ConfScorePBest>
0.00458703 

> <ConfTolerance>
0.808857 

> <RosettaParamsInstructions>
M  ROOT 3
M  POLY_N_BB 3
M  POLY_CA_BB 4
M  POLY_C_BB 2
M  POLY_O_BB 5
M  POLY_IGNORE 9 10 11 12 13 14 15 16 17 18 
M  POLY_UPPER 6
M  POLY_LOWER 8
M  POLY_CHG 0
M  POLY_PROPERTIES ALPHA_AA L_AA PROTEIN AROMATIC POLYMER 
M  END

$$$$



 35 35  0  0  0  0  0  0  0  0999 V2000
   -1.5638    2.1592   -0.8085 H   0  0  0  1  0  0  0  0  0  0  0  0
   -0.5868    0.4915    0.1384 C   0  0  0  1  0  0  0  0  0  0  0  0
   -2.9309    1.0353    0.2472 N   0  0  0  1  0  0  0  0  0  0  0  0
   -1.6391    1.6471    0.1280 C   0  0  0  1  0  0  0  0  0  0  0  0
   -0.7616   -0.5325    0.7936 O   0  0  0  1  0  0  0  0  0  0  0  0
    0.4862    0.7355   -0.6193 N   0  0  0  1  0  0  0  0  0  0  0  0
   -3.5472    1.2947    0.9637 H   0  0  0  1  0  0  0  0  0  0  0  0
   -3.2718    0.0973   -0.6506 C   0  0  0  1  0  0  0  0  0  0  0  0
    1.5744   -0.2209   -0.7571 C   0  0  0  1  0  0  0  0  0  0  0  0
   -4.6383   -0.5482   -0.4140 C   0  0  0  1  0  0  0  0  0  0  0  0
   -2.6074   -0.1912   -1.6425 O   0  0  0  1  0  0  0  0  0  0  0  0
    0.5425    1.5883   -1.0989 H   0  0  0  1  0  0  0  0  0  0  0  0
    1.7994   -0.6461    0.1986 H   0  0  0  1  0  0  0  0  0  0  0  0
    2.4410    0.2777   -1.1384 H   0  0  0  1  0  0  0  0  0  0  0  0
    1.2828   -0.9975   -1.4330 H   0  0  0  1  0  0  0  0  0  0  0  0
   -4.6129   -1.1161    0.4926 H   0  0  0  1  0  0  0  0  0  0  0  0
   -4.8736   -1.1951   -1.2332 H   0  0  0  1  0  0  0  0  0  0  0  0
   -5.3843    0.2149   -0.3357 H   0  0  0  1  0  0  0  0  0  0  0  0
   -0.5206    7.7078    1.8789 F   0  0  0  1  0  0  0  0  0  0  0  0
   -1.6113    7.7226    1.1107 C   0  0  0  1  0  0  0  0  0  0  0  0
   -2.3852    8.6745    1.6344 F   0  0  0  1  0  0  0  0  0  0  0  0
   -1.2045    8.1853   -0.0597 F   0  0  0  1  0  0  0  0  0  0  0  0
   -2.2973    6.3748    1.0220 C   0  0  0  1  0  0  0  0  0  0  0  0
   -1.5821    5.1931    1.1846 C   0  0  0  1  0  0  0  0  0  0  0  0
   -2.2068    3.9577    1.0995 C   0  0  0  1  0  0  0  0  0  0  0  0
   -3.5587    3.8839    0.8546 C   0  0  0  1  0  0  0  0  0  0  0  0
   -4.2962    5.0482    0.6986 C   0  0  0  1  0  0  0  0  0  0  0  0
   -3.6648    6.2789    0.7749 C   0  0  0  1  0  0  0  0  0  0  0  0
   -1.4019    2.6918    1.2760 C   0  0  0  1  0  0  0  0  0  0  0  0
   -0.5603    5.2366    1.3734 H   0  0  0  1  0  0  0  0  0  0  0  0
   -4.0264    2.9575    0.7866 H   0  0  0  1  0  0  0  0  0  0  0  0
   -5.3203    4.9974    0.5249 H   0  0  0  1  0  0  0  0  0  0  0  0
   -4.2221    7.1474    0.6453 H   0  0  0  1  0  0  0  0  0  0  0  0
   -0.3633    2.9482    1.2938 H   0  0  0  1  0  0  0  0  0  0  0  0
   -1.6748    2.2418    2.2076 H   0  0  0  1  0  0  0  0  0  0  0  0
  1  4  1  0  0  0  0
  2  4  1  0  0  0  0
  2  5  2  0  0  0  0
  2  6  1  0  0  0  0
  3  4  1  0  0  0  0
  3  7  1  0  0  0  0
  3  8  1  0  0  0  0
  4 29  1  0  0  0  0
  6  9  1  0  0  0  0
  6 12  1  0  0  0  0
  8 10  1  0  0  0  0
  8 11  2  0  0  0  0
  9 13  1  0  0  0  0
  9 14  1  0  0  0  0
  9 15  1  0  0  0  0
 10 16  1  0  0  0  0
 10 17  1  0  0  0  0
 10 18  1  0  0  0  0
 19 20  1  0  0  0  0
 20 21  1  0  0  0  0
 20 22  1  0  0  0  0
 20 23  1  0  0  0  0
 23 24  4  0  0  0  0
 23 28  4  0  0  0  0
 24 25  4  0  0  0  0
 24 30  1  0  0  0  0
 25 26  4  0  0  0  0
 25 29  1  0  0  0  0
 26 27  4  0  0  0  0
 26 31  1  0  0  0  0
 27 28  4  0  0  0  0
 27 32  1  0  0  0  0
 28 33  1  0  0  0  0
 29 34  1  0  0  0  0
 29 35  1  0  0  0  0
M  END
> <BCLConfClusterSize>
1

> <ConfClashScore>
0 

> <ConfOneFourInteractionScore>
-0.974251 

> <ConfScore>
0.0771872 

> <ConfScorePBest>
0.00455855 

> <ConfTolerance>
0.60304 

> <RosettaParamsInstructions>
M  ROOT 3
M  POLY_N_BB 3
M  POLY_CA_BB 4
M  POLY_C_BB 2
M  POLY_O_BB 5
M  POLY_IGNORE 9 10 11 12 13 14 15 16 17 18 
M  POLY_UPPER 6
M  POLY_LOWER 8
M  POLY_CHG 0
M  POLY_PROPERTIES ALPHA_AA L_AA PROTEIN AROMATIC POLYMER 
M  END

$$$$



 35 35  0  0  0  0  0  0  0  0999 V2000
    0.3842    3.6475    1.9705 H   0  0  0  1  0  0  0  0  0  0  0  0
    0.8742    1.6728    1.3826 C   0  0  0  1  0  0  0  0  0  0  0  0
    0.3699    3.5537   -0.0950 N   0  0  0  1  0  0  0  0  0  0  0  0
    0.0820    2.9646    1.2042 C   0  0  0  1  0  0  0  0  0  0  0  0
    0.9331    0.7820    0.5553 O   0  0  0  1  0  0  0  0  0  0  0  0
    1.5152    1.5970    2.5524 N   0  0  0  1  0  0  0  0  0  0  0  0
   -0.0461    3.1656   -0.8929 H   0  0  0  1  0  0  0  0  0  0  0  0
    1.1896    4.6156   -0.2391 C   0  0  0  1  0  0  0  0  0  0  0  0
    2.3291    0.4479    2.9198 C   0  0  0  1  0  0  0  0  0  0  0  0
    1.4662    5.1173   -1.6430 C   0  0  0  1  0  0  0  0  0  0  0  0
    1.6989    5.1626    0.7382 O   0  0  0  1  0  0  0  0  0  0  0  0
    1.4345    2.3412    3.1850 H   0  0  0  1  0  0  0  0  0  0  0  0
    1.9672   -0.4226    2.4138 H   0  0  0  1  0  0  0  0  0  0  0  0
    2.2727    0.2948    3.9773 H   0  0  0  1  0  0  0  0  0  0  0  0
    3.3459    0.6268    2.6386 H   0  0  0  1  0  0  0  0  0  0  0  0
    1.3778    4.3066   -2.3358 H   0  0  0  1  0  0  0  0  0  0  0  0
    2.4567    5.5192   -1.6892 H   0  0  0  1  0  0  0  0  0  0  0  0
    0.7591    5.8799   -1.8948 H   0  0  0  1  0  0  0  0  0  0  0  0
   -0.7030    7.7283    2.0816 F   0  0  0  1  0  0  0  0  0  0  0  0
   -1.6155    7.7105    1.1085 C   0  0  0  1  0  0  0  0  0  0  0  0
   -2.4834    8.6795    1.3878 F   0  0  0  1  0  0  0  0  0  0  0  0
   -0.9979    8.0476   -0.0127 F   0  0  0  1  0  0  0  0  0  0  0  0
   -2.3022    6.3631    1.0205 C   0  0  0  1  0  0  0  0  0  0  0  0
   -1.5767    5.2004    1.2288 C   0  0  0  1  0  0  0  0  0  0  0  0
   -2.2019    3.9708    1.1432 C   0  0  0  1  0  0  0  0  0  0  0  0
   -3.5558    3.9005    0.8543 C   0  0  0  1  0  0  0  0  0  0  0  0
   -4.2794    5.0596    0.6466 C   0  0  0  1  0  0  0  0  0  0  0  0
   -3.6522    6.2928    0.7324 C   0  0  0  1  0  0  0  0  0  0  0  0
   -1.4100    2.7038    1.3645 C   0  0  0  1  0  0  0  0  0  0  0  0
   -0.5618    5.2534    1.4495 H   0  0  0  1  0  0  0  0  0  0  0  0
   -4.0272    2.9754    0.7939 H   0  0  0  1  0  0  0  0  0  0  0  0
   -5.2943    5.0066    0.4259 H   0  0  0  1  0  0  0  0  0  0  0  0
   -4.1974    7.1652    0.5801 H   0  0  0  1  0  0  0  0  0  0  0  0
   -1.5984    2.3405    2.3531 H   0  0  0  1  0  0  0  0  0  0  0  0
   -1.7165    1.9691    0.6495 H   0  0  0  1  0  0  0  0  0  0  0  0
  1  4  1  0  0  0  0
  2  4  1  0  0  0  0
  2  5  2  0  0  0  0
  2  6  1  0  0  0  0
  3  4  1  0  0  0  0
  3  7  1  0  0  0  0
  3  8  1  0  0  0  0
  4 29  1  0  0  0  0
  6  9  1  0  0  0  0
  6 12  1  0  0  0  0
  8 10  1  0  0  0  0
  8 11  2  0  0  0  0
  9 13  1  0  0  0  0
  9 14  1  0  0  0  0
  9 15  1  0  0  0  0
 10 16  1  0  0  0  0
 10 17  1  0  0  0  0
 10 18  1  0  0  0  0
 19 20  1  0  0  0  0
 20 21  1  0  0  0  0
 20 22  1  0  0  0  0
 20 23  1  0  0  0  0
 23 24  4  0  0  0  0
 23 28  4  0  0  0  0
 24 25  4  0  0  0  0
 24 30  1  0  0  0  0
 25 26  4  0  0  0  0
 25 29  1  0  0  0  0
 26 27  4  0  0  0  0
 26 31  1  0  0  0  0
 27 28  4  0  0  0  0
 27 32  1  0  0  0  0
 28 33  1  0  0  0  0
 29 34  1  0  0  0  0
 29 35  1  0  0  0  0
M  END
> <BCLConfClusterSize>
1

> <ConfClashScore>
0 

> <ConfOneFourInteractionScore>
-0.978366 

> <ConfScore>
0.0796836 

> <ConfScorePBest>
0.00453007 

> <ConfTolerance>
0.588927 

> <RosettaParamsInstructions>
M  ROOT 3
M  POLY_N_BB 3
M  POLY_CA_BB 4
M  POLY_C_BB 2
M  POLY_O_BB 5
M  POLY_IGNORE 9 10 11 12 13 14 15 16 17 18 
M  POLY_UPPER 6
M  POLY_LOWER 8
M  POLY_CHG 0
M  POLY_PROPERTIES ALPHA_AA L_AA PROTEIN AROMATIC POLYMER 
M  END

$$$$



 35 35  0  0  0  0  0  0  0  0999 V2000
   -0.9299    2.7950    2.9759 H   0  0  0  1  0  0  0  0  0  0  0  0
   -2.5540    1.4550    2.6549 C   0  0  0  1  0  0  0  0  0  0  0  0
   -0.2249    0.9807    2.2310 N   0  0  0  1  0  0  0  0  0  0  0  0
   -1.2116    2.0483    2.2632 C   0  0  0  1  0  0  0  0  0  0  0  0
   -2.9731    0.3900    2.2426 O   0  0  0  1  0  0  0  0  0  0  0  0
   -3.2898    2.1822    3.5093 N   0  0  0  1  0  0  0  0  0  0  0  0
    0.1464    0.6838    1.3741 H   0  0  0  1  0  0  0  0  0  0  0  0
    0.1784    0.4010    3.3727 C   0  0  0  1  0  0  0  0  0  0  0  0
   -4.5670    1.6751    3.9885 C   0  0  0  1  0  0  0  0  0  0  0  0
    1.2509   -0.6612    3.2290 C   0  0  0  1  0  0  0  0  0  0  0  0
   -0.2805    0.6988    4.4723 O   0  0  0  1  0  0  0  0  0  0  0  0
   -2.9666    3.0567    3.8113 H   0  0  0  1  0  0  0  0  0  0  0  0
   -4.9368    0.9376    3.3072 H   0  0  0  1  0  0  0  0  0  0  0  0
   -5.2676    2.4810    4.0563 H   0  0  0  1  0  0  0  0  0  0  0  0
   -4.4355    1.2339    4.9544 H   0  0  0  1  0  0  0  0  0  0  0  0
    1.4924   -0.7872    2.1943 H   0  0  0  1  0  0  0  0  0  0  0  0
    0.8910   -1.5872    3.6264 H   0  0  0  1  0  0  0  0  0  0  0  0
    2.1262   -0.3586    3.7650 H   0  0  0  1  0  0  0  0  0  0  0  0
   -0.7982    7.9640    0.0769 F   0  0  0  1  0  0  0  0  0  0  0  0
   -1.6056    7.7173    1.1100 C   0  0  0  1  0  0  0  0  0  0  0  0
   -0.8722    7.8672    2.2141 F   0  0  0  1  0  0  0  0  0  0  0  0
   -2.4732    8.7301    1.1281 F   0  0  0  1  0  0  0  0  0  0  0  0
   -2.2923    6.3746    1.0261 C   0  0  0  1  0  0  0  0  0  0  0  0
   -1.5587    5.1933    1.0022 C   0  0  0  1  0  0  0  0  0  0  0  0
   -2.1864    3.9592    0.9208 C   0  0  0  1  0  0  0  0  0  0  0  0
   -3.5594    3.8861    0.8664 C   0  0  0  1  0  0  0  0  0  0  0  0
   -4.3141    5.0493    0.8988 C   0  0  0  1  0  0  0  0  0  0  0  0
   -3.6809    6.2794    0.9702 C   0  0  0  1  0  0  0  0  0  0  0  0
   -1.3619    2.6940    0.8919 C   0  0  0  1  0  0  0  0  0  0  0  0
   -0.5205    5.2361    1.0462 H   0  0  0  1  0  0  0  0  0  0  0  0
   -4.0300    2.9609    0.8011 H   0  0  0  1  0  0  0  0  0  0  0  0
   -5.3524    4.9982    0.8696 H   0  0  0  1  0  0  0  0  0  0  0  0
   -4.2529    7.1479    0.9823 H   0  0  0  1  0  0  0  0  0  0  0  0
   -1.8354    1.9938    0.2359 H   0  0  0  1  0  0  0  0  0  0  0  0
   -0.3876    2.9308    0.5184 H   0  0  0  1  0  0  0  0  0  0  0  0
  1  4  1  0  0  0  0
  2  4  1  0  0  0  0
  2  5  2  0  0  0  0
  2  6  1  0  0  0  0
  3  4  1  0  0  0  0
  3  7  1  0  0  0  0
  3  8  1  0  0  0  0
  4 29  1  0  0  0  0
  6  9  1  0  0  0  0
  6 12  1  0  0  0  0
  8 10  1  0  0  0  0
  8 11  2  0  0  0  0
  9 13  1  0  0  0  0
  9 14  1  0  0  0  0
  9 15  1  0  0  0  0
 10 16  1  0  0  0  0
 10 17  1  0  0  0  0
 10 18  1  0  0  0  0
 19 20  1  0  0  0  0
 20 21  1  0  0  0  0
 20 22  1  0  0  0  0
 20 23  1  0  0  0  0
 23 24  4  0  0  0  0
 23 28  4  0  0  0  0
 24 25  4  0  0  0  0
 24 30  1  0  0  0  0
 25 26  4  0  0  0  0
 25 29  1  0  0  0  0
 26 27  4  0  0  0  0
 26 31  1  0  0  0  0
 27 28  4  0  0  0  0
 27 32  1  0  0  0  0
 28 33  1  0  0  0  0
 29 34  1  0  0  0  0
 29 35  1  0  0  0  0
M  END
> <BCLConfClusterSize>
1

> <ConfClashScore>
0 

> <ConfOneFourInteractionScore>
-0.978127 

> <ConfScore>
0.0820865 

> <ConfScorePBest>
0.00450159 

> <ConfTolerance>
0.475968 

> <RosettaParamsInstructions>
M  ROOT 3
M  POLY_N_BB 3
M  POLY_CA_BB 4
M  POLY_C_BB 2
M  POLY_O_BB 5
M  POLY_IGNORE 9 10 11 12 13 14 15 16 17 18 
M  POLY_UPPER 6
M  POLY_LOWER 8
M  POLY_CHG 0
M  POLY_PROPERTIES ALPHA_AA L_AA PROTEIN AROMATIC POLYMER 
M  END

$$$$



 35 35  0  0  0  0  0  0  0  0999 V2000
   -0.4017    1.3885    2.2612 H   0  0  0  1  0  0  0  0  0  0  0  0
   -0.5920    3.2624    3.2138 C   0  0  0  1  0  0  0  0  0  0  0  0
   -2.3623    1.6301    2.8618 N   0  0  0  1  0  0  0  0  0  0  0  0
   -1.1317    2.1691    2.3123 C   0  0  0  1  0  0  0  0  0  0  0  0
   -1.3522    4.0520    3.7726 O   0  0  0  1  0  0  0  0  0  0  0  0
    0.7373    3.3421    3.3829 N   0  0  0  1  0  0  0  0  0  0  0  0
   -2.8702    2.1234    3.5394 H   0  0  0  1  0  0  0  0  0  0  0  0
   -2.7870    0.4307    2.4132 C   0  0  0  1  0  0  0  0  0  0  0  0
    1.3640    4.4332    4.1141 C   0  0  0  1  0  0  0  0  0  0  0  0
   -3.9455   -0.2263    3.1289 C   0  0  0  1  0  0  0  0  0  0  0  0
   -2.2491   -0.1145    1.4504 O   0  0  0  1  0  0  0  0  0  0  0  0
    1.3056    2.6411    3.0006 H   0  0  0  1  0  0  0  0  0  0  0  0
    1.4236    5.2968    3.4853 H   0  0  0  1  0  0  0  0  0  0  0  0
    2.3489    4.1420    4.4140 H   0  0  0  1  0  0  0  0  0  0  0  0
    0.7801    4.6631    4.9808 H   0  0  0  1  0  0  0  0  0  0  0  0
   -4.8219   -0.1688    2.5176 H   0  0  0  1  0  0  0  0  0  0  0  0
   -4.1238    0.2776    4.0558 H   0  0  0  1  0  0  0  0  0  0  0  0
   -3.7108   -1.2527    3.3197 H   0  0  0  1  0  0  0  0  0  0  0  0
   -0.7491    7.9050    0.1195 F   0  0  0  1  0  0  0  0  0  0  0  0
   -1.6178    7.7074    1.1127 C   0  0  0  1  0  0  0  0  0  0  0  0
   -0.9294    7.8574    2.2453 F   0  0  0  1  0  0  0  0  0  0  0  0
   -2.4801    8.7236    1.0622 F   0  0  0  1  0  0  0  0  0  0  0  0
   -2.3033    6.3598    1.0245 C   0  0  0  1  0  0  0  0  0  0  0  0
   -1.5495    5.2017    0.9951 C   0  0  0  1  0  0  0  0  0  0  0  0
   -2.1772    3.9681    0.9197 C   0  0  0  1  0  0  0  0  0  0  0  0
   -3.5565    3.8963    0.8686 C   0  0  0  1  0  0  0  0  0  0  0  0
   -4.3124    5.0579    0.8981 C   0  0  0  1  0  0  0  0  0  0  0  0
   -3.6867    6.2880    0.9732 C   0  0  0  1  0  0  0  0  0  0  0  0
   -1.3536    2.7022    0.8935 C   0  0  0  1  0  0  0  0  0  0  0  0
   -0.5115    5.2558    1.0295 H   0  0  0  1  0  0  0  0  0  0  0  0
   -4.0272    2.9709    0.8080 H   0  0  0  1  0  0  0  0  0  0  0  0
   -5.3504    5.0038    0.8637 H   0  0  0  1  0  0  0  0  0  0  0  0
   -4.2537    7.1596    0.9913 H   0  0  0  1  0  0  0  0  0  0  0  0
   -1.8671    1.9615    0.3168 H   0  0  0  1  0  0  0  0  0  0  0  0
   -0.4050    2.9101    0.4444 H   0  0  0  1  0  0  0  0  0  0  0  0
  1  4  1  0  0  0  0
  2  4  1  0  0  0  0
  2  5  2  0  0  0  0
  2  6  1  0  0  0  0
  3  4  1  0  0  0  0
  3  7  1  0  0  0  0
  3  8  1  0  0  0  0
  4 29  1  0  0  0  0
  6  9  1  0  0  0  0
  6 12  1  0  0  0  0
  8 10  1  0  0  0  0
  8 11  2  0  0  0  0
  9 13  1  0  0  0  0
  9 14  1  0  0  0  0
  9 15  1  0  0  0  0
 10 16  1  0  0  0  0
 10 17  1  0  0  0  0
 10 18  1  0  0  0  0
 19 20  1  0  0  0  0
 20 21  1  0  0  0  0
 20 22  1  0  0  0  0
 20 23  1  0  0  0  0
 23 24  4  0  0  0  0
 23 28  4  0  0  0  0
 24 25  4  0  0  0  0
 24 30  1  0  0  0  0
 25 26  4  0  0  0  0
 25 29  1  0  0  0  0
 26 27  4  0  0  0  0
 26 31  1  0  0  0  0
 27 28  4  0  0  0  0
 27 32  1  0  0  0  0
 28 33  1  0  0  0  0
 29 34  1  0  0  0  0
 29 35  1  0  0  0  0
M  END
> <BCLConfClusterSize>
1

> <ConfClashScore>
0 

> <ConfOneFourInteractionScore>
-0.984592 

> <ConfScore>
0.0883127 

> <ConfScorePBest>
0.00447311 

> <ConfTolerance>
0.586614 

> <RosettaParamsInstructions>
M  ROOT 3
M  POLY_N_BB 3
M  POLY_CA_BB 4
M  POLY_C_BB 2
M  POLY_O_BB 5
M  POLY_IGNORE 9 10 11 12 13 14 15 16 17 18 
M  POLY_UPPER 6
M  POLY_LOWER 8
M  POLY_CHG 0
M  POLY_PROPERTIES ALPHA_AA L_AA PROTEIN AROMATIC POLYMER 
M  END

$$$$



 35 35  0  0  0  0  0  0  0  0999 V2000
   -0.1370    1.4640    2.0983 H   0  0  0  1  0  0  0  0  0  0  0  0
   -0.1326    3.3178    3.0902 C   0  0  0  1  0  0  0  0  0  0  0  0
   -1.9592    1.6710    3.0568 N   0  0  0  1  0  0  0  0  0  0  0  0
   -0.8452    2.2459    2.2772 C   0  0  0  1  0  0  0  0  0  0  0  0
    1.0443    3.6026    2.8723 O   0  0  0  1  0  0  0  0  0  0  0  0
   -0.8811    3.9837    3.9827 N   0  0  0  1  0  0  0  0  0  0  0  0
   -2.8840    1.8105    2.7641 H   0  0  0  1  0  0  0  0  0  0  0  0
   -1.7082    0.9579    4.1653 C   0  0  0  1  0  0  0  0  0  0  0  0
   -0.3484    5.0765    4.7826 C   0  0  0  1  0  0  0  0  0  0  0  0
   -2.8778    0.3984    4.9255 C   0  0  0  1  0  0  0  0  0  0  0  0
   -0.5555    0.7663    4.5503 O   0  0  0  1  0  0  0  0  0  0  0  0
   -1.8190    3.7252    4.1000 H   0  0  0  1  0  0  0  0  0  0  0  0
   -0.7370    5.0133    5.7776 H   0  0  0  1  0  0  0  0  0  0  0  0
   -0.6357    6.0104    4.3465 H   0  0  0  1  0  0  0  0  0  0  0  0
    0.7191    5.0094    4.8120 H   0  0  0  1  0  0  0  0  0  0  0  0
   -3.1763    1.0924    5.6831 H   0  0  0  1  0  0  0  0  0  0  0  0
   -2.5963   -0.5278    5.3814 H   0  0  0  1  0  0  0  0  0  0  0  0
   -3.6933    0.2322    4.2530 H   0  0  0  1  0  0  0  0  0  0  0  0
   -0.9237    8.0107    0.0158 F   0  0  0  1  0  0  0  0  0  0  0  0
   -1.6285    7.7088    1.1076 C   0  0  0  1  0  0  0  0  0  0  0  0
   -0.7421    7.7581    2.1031 F   0  0  0  1  0  0  0  0  0  0  0  0
   -2.4632    8.7039    1.3258 F   0  0  0  1  0  0  0  0  0  0  0  0
   -2.3087    6.3629    1.0212 C   0  0  0  1  0  0  0  0  0  0  0  0
   -1.5525    5.2061    1.0052 C   0  0  0  1  0  0  0  0  0  0  0  0
   -2.1769    3.9707    0.9313 C   0  0  0  1  0  0  0  0  0  0  0  0
   -3.5556    3.8961    0.8683 C   0  0  0  1  0  0  0  0  0  0  0  0
   -4.3141    5.0562    0.8844 C   0  0  0  1  0  0  0  0  0  0  0  0
   -3.6914    6.2878    0.9580 C   0  0  0  1  0  0  0  0  0  0  0  0
   -1.3508    2.7063    0.9197 C   0  0  0  1  0  0  0  0  0  0  0  0
   -0.5150    5.2625    1.0486 H   0  0  0  1  0  0  0  0  0  0  0  0
   -4.0240    2.9694    0.8089 H   0  0  0  1  0  0  0  0  0  0  0  0
   -5.3517    4.9998    0.8410 H   0  0  0  1  0  0  0  0  0  0  0  0
   -4.2603    7.1584    0.9660 H   0  0  0  1  0  0  0  0  0  0  0  0
   -1.9522    1.9227    0.5084 H   0  0  0  1  0  0  0  0  0  0  0  0
   -0.5016    2.8726    0.2903 H   0  0  0  1  0  0  0  0  0  0  0  0
  1  4  1  0  0  0  0
  2  4  1  0  0  0  0
  2  5  2  0  0  0  0
  2  6  1  0  0  0  0
  3  4  1  0  0  0  0
  3  7  1  0  0  0  0
  3  8  1  0  0  0  0
  4 29  1  0  0  0  0
  6  9  1  0  0  0  0
  6 12  1  0  0  0  0
  8 10  1  0  0  0  0
  8 11  2  0  0  0  0
  9 13  1  0  0  0  0
  9 14  1  0  0  0  0
  9 15  1  0  0  0  0
 10 16  1  0  0  0  0
 10 17  1  0  0  0  0
 10 18  1  0  0  0  0
 19 20  1  0  0  0  0
 20 21  1  0  0  0  0
 20 22  1  0  0  0  0
 20 23  1  0  0  0  0
 23 24  4  0  0  0  0
 23 28  4  0  0  0  0
 24 25  4  0  0  0  0
 24 30  1  0  0  0  0
 25 26  4  0  0  0  0
 25 29  1  0  0  0  0
 26 27  4  0  0  0  0
 26 31  1  0  0  0  0
 27 28  4  0  0  0  0
 27 32  1  0  0  0  0
 28 33  1  0  0  0  0
 29 34  1  0  0  0  0
 29 35  1  0  0  0  0
M  END
> <BCLConfClusterSize>
1

> <ConfClashScore>
0 

> <ConfOneFourInteractionScore>
-0.957074 

> <ConfScore>
0.0884545 

> <ConfScorePBest>
0.00444463 

> <ConfTolerance>
0.471577 

> <RosettaParamsInstructions>
M  ROOT 3
M  POLY_N_BB 3
M  POLY_CA_BB 4
M  POLY_C_BB 2
M  POLY_O_BB 5
M  POLY_IGNORE 9 10 11 12 13 14 15 16 17 18 
M  POLY_UPPER 6
M  POLY_LOWER 8
M  POLY_CHG 0
M  POLY_PROPERTIES ALPHA_AA L_AA PROTEIN AROMATIC POLYMER 
M  END

$$$$



 35 35  0  0  0  0  0  0  0  0999 V2000
   -2.9488    1.4681    0.2702 H   0  0  0  1  0  0  0  0  0  0  0  0
   -1.3957    0.1603    0.8642 C   0  0  0  1  0  0  0  0  0  0  0  0
   -2.8782    1.3163    2.3356 N   0  0  0  1  0  0  0  0  0  0  0  0
   -2.2129    1.4246    1.0458 C   0  0  0  1  0  0  0  0  0  0  0  0
   -0.4184   -0.0670    1.5581 O   0  0  0  1  0  0  0  0  0  0  0  0
   -1.8170   -0.6705   -0.0936 N   0  0  0  1  0  0  0  0  0  0  0  0
   -2.3311    1.2510    3.1460 H   0  0  0  1  0  0  0  0  0  0  0  0
   -4.2154    1.3028    2.4538 C   0  0  0  1  0  0  0  0  0  0  0  0
   -1.0339   -1.8484   -0.4356 C   0  0  0  1  0  0  0  0  0  0  0  0
   -4.7508    1.2544    3.8716 C   0  0  0  1  0  0  0  0  0  0  0  0
   -4.9725    1.3276    1.4871 O   0  0  0  1  0  0  0  0  0  0  0  0
   -2.6552   -0.4863   -0.5668 H   0  0  0  1  0  0  0  0  0  0  0  0
    0.0083   -1.6106   -0.3878 H   0  0  0  1  0  0  0  0  0  0  0  0
   -1.2819   -2.1658   -1.4269 H   0  0  0  1  0  0  0  0  0  0  0  0
   -1.2521   -2.6348    0.2564 H   0  0  0  1  0  0  0  0  0  0  0  0
   -3.9545    1.0188    4.5463 H   0  0  0  1  0  0  0  0  0  0  0  0
   -5.5102    0.5037    3.9404 H   0  0  0  1  0  0  0  0  0  0  0  0
   -5.1657    2.2067    4.1286 H   0  0  0  1  0  0  0  0  0  0  0  0
   -0.2862    7.6310    0.9893 F   0  0  0  1  0  0  0  0  0  0  0  0
   -1.6115    7.7224    1.1132 C   0  0  0  1  0  0  0  0  0  0  0  0
   -1.8357    8.3353    2.2766 F   0  0  0  1  0  0  0  0  0  0  0  0
   -2.0181    8.5648    0.1626 F   0  0  0  1  0  0  0  0  0  0  0  0
   -2.2948    6.3782    1.0261 C   0  0  0  1  0  0  0  0  0  0  0  0
   -1.5598    5.1952    1.0481 C   0  0  0  1  0  0  0  0  0  0  0  0
   -2.1830    3.9608    0.9629 C   0  0  0  1  0  0  0  0  0  0  0  0
   -3.5651    3.8911    0.8691 C   0  0  0  1  0  0  0  0  0  0  0  0
   -4.3088    5.0485    0.8458 C   0  0  0  1  0  0  0  0  0  0  0  0
   -3.6783    6.2816    0.9215 C   0  0  0  1  0  0  0  0  0  0  0  0
   -1.3597    2.6945    0.9720 C   0  0  0  1  0  0  0  0  0  0  0  0
   -0.5240    5.2393    1.1299 H   0  0  0  1  0  0  0  0  0  0  0  0
   -4.0381    2.9664    0.8166 H   0  0  0  1  0  0  0  0  0  0  0  0
   -5.3449    4.9987    0.7713 H   0  0  0  1  0  0  0  0  0  0  0  0
   -4.2505    7.1498    0.8996 H   0  0  0  1  0  0  0  0  0  0  0  0
   -0.7762    2.6612    0.0757 H   0  0  0  1  0  0  0  0  0  0  0  0
   -0.7090    2.7175    1.8211 H   0  0  0  1  0  0  0  0  0  0  0  0
  1  4  1  0  0  0  0
  2  4  1  0  0  0  0
  2  5  2  0  0  0  0
  2  6  1  0  0  0  0
  3  4  1  0  0  0  0
  3  7  1  0  0  0  0
  3  8  1  0  0  0  0
  4 29  1  0  0  0  0
  6  9  1  0  0  0  0
  6 12  1  0  0  0  0
  8 10  1  0  0  0  0
  8 11  2  0  0  0  0
  9 13  1  0  0  0  0
  9 14  1  0  0  0  0
  9 15  1  0  0  0  0
 10 16  1  0  0  0  0
 10 17  1  0  0  0  0
 10 18  1  0  0  0  0
 19 20  1  0  0  0  0
 20 21  1  0  0  0  0
 20 22  1  0  0  0  0
 20 23  1  0  0  0  0
 23 24  4  0  0  0  0
 23 28  4  0  0  0  0
 24 25  4  0  0  0  0
 24 30  1  0  0  0  0
 25 26  4  0  0  0  0
 25 29  1  0  0  0  0
 26 27  4  0  0  0  0
 26 31  1  0  0  0  0
 27 28  4  0  0  0  0
 27 32  1  0  0  0  0
 28 33  1  0  0  0  0
 29 34  1  0  0  0  0
 29 35  1  0  0  0  0
M  END
> <BCLConfClusterSize>
1

> <ConfClashScore>
0 

> <ConfOneFourInteractionScore>
-0.971506 

> <ConfScore>
0.088812 

> <ConfScorePBest>
0.00441614 

> <ConfTolerance>
0.520885 

> <RosettaParamsInstructions>
M  ROOT 3
M  POLY_N_BB 3
M  POLY_CA_BB 4
M  POLY_C_BB 2
M  POLY_O_BB 5
M  POLY_IGNORE 9 10 11 12 13 14 15 16 17 18 
M  POLY_UPPER 6
M  POLY_LOWER 8
M  POLY_CHG 0
M  POLY_PROPERTIES ALPHA_AA L_AA PROTEIN AROMATIC POLYMER 
M  END

$$$$



 35 35  0  0  0  0  0  0  0  0999 V2000
   -0.3369    1.1991    0.4454 H   0  0  0  1  0  0  0  0  0  0  0  0
   -1.7895    1.7888   -0.9473 C   0  0  0  1  0  0  0  0  0  0  0  0
    0.2688    2.9738   -0.3903 N   0  0  0  1  0  0  0  0  0  0  0  0
   -0.7917    2.1241    0.1581 C   0  0  0  1  0  0  0  0  0  0  0  0
   -1.9659    2.4654   -1.9428 O   0  0  0  1  0  0  0  0  0  0  0  0
   -2.4746    0.6567   -0.7257 N   0  0  0  1  0  0  0  0  0  0  0  0
    0.0545    3.5792   -1.1306 H   0  0  0  1  0  0  0  0  0  0  0  0
    1.5237    2.9518    0.0860 C   0  0  0  1  0  0  0  0  0  0  0  0
   -3.5423    0.2595   -1.6313 C   0  0  0  1  0  0  0  0  0  0  0  0
    2.5374    3.7913   -0.6809 C   0  0  0  1  0  0  0  0  0  0  0  0
    1.8522    2.3024    1.0753 O   0  0  0  1  0  0  0  0  0  0  0  0
   -2.2556    0.0961    0.0477 H   0  0  0  1  0  0  0  0  0  0  0  0
   -4.2488   -0.3485   -1.1058 H   0  0  0  1  0  0  0  0  0  0  0  0
   -3.1295   -0.2975   -2.4464 H   0  0  0  1  0  0  0  0  0  0  0  0
   -4.0336    1.1323   -2.0077 H   0  0  0  1  0  0  0  0  0  0  0  0
    3.1769    3.1484   -1.2489 H   0  0  0  1  0  0  0  0  0  0  0  0
    3.1253    4.3590    0.0098 H   0  0  0  1  0  0  0  0  0  0  0  0
    2.0222    4.4562   -1.3421 H   0  0  0  1  0  0  0  0  0  0  0  0
   -2.3368    8.6829    0.5633 F   0  0  0  1  0  0  0  0  0  0  0  0
   -1.6197    7.7047    1.1191 C   0  0  0  1  0  0  0  0  0  0  0  0
   -0.4330    7.7202    0.5101 F   0  0  0  1  0  0  0  0  0  0  0  0
   -1.3971    8.0754    2.3807 F   0  0  0  1  0  0  0  0  0  0  0  0
   -2.3021    6.3606    1.0227 C   0  0  0  1  0  0  0  0  0  0  0  0
   -1.5833    5.2026    1.2523 C   0  0  0  1  0  0  0  0  0  0  0  0
   -2.2108    3.9693    1.1691 C   0  0  0  1  0  0  0  0  0  0  0  0
   -3.5540    3.8975    0.8513 C   0  0  0  1  0  0  0  0  0  0  0  0
   -4.2749    5.0588    0.6210 C   0  0  0  1  0  0  0  0  0  0  0  0
   -3.6492    6.2884    0.7039 C   0  0  0  1  0  0  0  0  0  0  0  0
   -1.4267    2.7041    1.4258 C   0  0  0  1  0  0  0  0  0  0  0  0
   -0.5717    5.2565    1.4875 H   0  0  0  1  0  0  0  0  0  0  0  0
   -4.0238    2.9721    0.7849 H   0  0  0  1  0  0  0  0  0  0  0  0
   -5.2865    5.0050    0.3857 H   0  0  0  1  0  0  0  0  0  0  0  0
   -4.1891    7.1595    0.5272 H   0  0  0  1  0  0  0  0  0  0  0  0
   -0.6487    2.9220    2.1274 H   0  0  0  1  0  0  0  0  0  0  0  0
   -2.0875    1.9722    1.8412 H   0  0  0  1  0  0  0  0  0  0  0  0
  1  4  1  0  0  0  0
  2  4  1  0  0  0  0
  2  5  2  0  0  0  0
  2  6  1  0  0  0  0
  3  4  1  0  0  0  0
  3  7  1  0  0  0  0
  3  8  1  0  0  0  0
  4 29  1  0  0  0  0
  6  9  1  0  0  0  0
  6 12  1  0  0  0  0
  8 10  1  0  0  0  0
  8 11  2  0  0  0  0
  9 13  1  0  0  0  0
  9 14  1  0  0  0  0
  9 15  1  0  0  0  0
 10 16  1  0  0  0  0
 10 17  1  0  0  0  0
 10 18  1  0  0  0  0
 19 20  1  0  0  0  0
 20 21  1  0  0  0  0
 20 22  1  0  0  0  0
 20 23  1  0  0  0  0
 23 24  4  0  0  0  0
 23 28  4  0  0  0  0
 24 25  4  0  0  0  0
 24 30  1  0  0  0  0
 25 26  4  0  0  0  0
 25 29  1  0  0  0  0
 26 27  4  0  0  0  0
 26 31  1  0  0  0  0
 27 28  4  0  0  0  0
 27 32  1  0  0  0  0
 28 33  1  0  0  0  0
 29 34  1  0  0  0  0
 29 35  1  0  0  0  0
M  END
> <BCLConfClusterSize>
1

> <ConfClashScore>
0 

> <ConfOneFourInteractionScore>
-0.987258 

> <ConfScore>
0.088843 

> <ConfScorePBest>
0.00438766 

> <ConfTolerance>
0.532951 

> <RosettaParamsInstructions>
M  ROOT 3
M  POLY_N_BB 3
M  POLY_CA_BB 4
M  POLY_C_BB 2
M  POLY_O_BB 5
M  POLY_IGNORE 9 10 11 12 13 14 15 16 17 18 
M  POLY_UPPER 6
M  POLY_LOWER 8
M  POLY_CHG 0
M  POLY_PROPERTIES ALPHA_AA L_AA PROTEIN AROMATIC POLYMER 
M  END

$$$$



 35 35  0  0  0  0  0  0  0  0999 V2000
   -2.1408    2.1800    3.1756 H   0  0  0  1  0  0  0  0  0  0  0  0
   -0.4583    0.9511    2.8589 C   0  0  0  1  0  0  0  0  0  0  0  0
   -0.4769    3.3619    3.4395 N   0  0  0  1  0  0  0  0  0  0  0  0
   -1.1714    2.2931    2.7371 C   0  0  0  1  0  0  0  0  0  0  0  0
   -0.5206    0.1059    1.9699 O   0  0  0  1  0  0  0  0  0  0  0  0
    0.2179    0.8041    4.0018 N   0  0  0  1  0  0  0  0  0  0  0  0
   -0.9695    3.8913    4.1008 H   0  0  0  1  0  0  0  0  0  0  0  0
    0.8063    3.6458    3.2145 C   0  0  0  1  0  0  0  0  0  0  0  0
    1.0923   -0.3331    4.2470 C   0  0  0  1  0  0  0  0  0  0  0  0
    1.3079    4.9459    3.8122 C   0  0  0  1  0  0  0  0  0  0  0  0
    1.5510    2.9121    2.5658 O   0  0  0  1  0  0  0  0  0  0  0  0
    0.1218    1.4858    4.6992 H   0  0  0  1  0  0  0  0  0  0  0  0
    1.4793   -0.6932    3.3167 H   0  0  0  1  0  0  0  0  0  0  0  0
    0.5379   -1.1118    4.7277 H   0  0  0  1  0  0  0  0  0  0  0  0
    1.9026   -0.0304    4.8768 H   0  0  0  1  0  0  0  0  0  0  0  0
    1.3520    4.8557    4.8775 H   0  0  0  1  0  0  0  0  0  0  0  0
    0.6407    5.7400    3.5490 H   0  0  0  1  0  0  0  0  0  0  0  0
    2.2849    5.1595    3.4318 H   0  0  0  1  0  0  0  0  0  0  0  0
   -0.5112    7.6603    1.8514 F   0  0  0  1  0  0  0  0  0  0  0  0
   -1.6228    7.7047    1.1150 C   0  0  0  1  0  0  0  0  0  0  0  0
   -2.3985    8.6390    1.6671 F   0  0  0  1  0  0  0  0  0  0  0  0
   -1.2613    8.1768   -0.0787 F   0  0  0  1  0  0  0  0  0  0  0  0
   -2.3097    6.3627    1.0226 C   0  0  0  1  0  0  0  0  0  0  0  0
   -1.5746    5.1964    1.1745 C   0  0  0  1  0  0  0  0  0  0  0  0
   -2.1814    3.9473    1.0987 C   0  0  0  1  0  0  0  0  0  0  0  0
   -3.5531    3.9037    0.8603 C   0  0  0  1  0  0  0  0  0  0  0  0
   -4.2911    5.0648    0.6979 C   0  0  0  1  0  0  0  0  0  0  0  0
   -3.6640    6.2987    0.7879 C   0  0  0  1  0  0  0  0  0  0  0  0
   -1.3790    2.6790    1.2692 C   0  0  0  1  0  0  0  0  0  0  0  0
   -0.5510    5.2571    1.3482 H   0  0  0  1  0  0  0  0  0  0  0  0
   -4.0322    2.9823    0.8032 H   0  0  0  1  0  0  0  0  0  0  0  0
   -5.3124    5.0114    0.5091 H   0  0  0  1  0  0  0  0  0  0  0  0
   -4.2160    7.1733    0.6782 H   0  0  0  1  0  0  0  0  0  0  0  0
   -1.8945    1.8810    0.7770 H   0  0  0  1  0  0  0  0  0  0  0  0
   -0.4204    2.8189    0.8150 H   0  0  0  1  0  0  0  0  0  0  0  0
  1  4  1  0  0  0  0
  2  4  1  0  0  0  0
  2  5  2  0  0  0  0
  2  6  1  0  0  0  0
  3  4  1  0  0  0  0
  3  7  1  0  0  0  0
  3  8  1  0  0  0  0
  4 29  1  0  0  0  0
  6  9  1  0  0  0  0
  6 12  1  0  0  0  0
  8 10  1  0  0  0  0
  8 11  2  0  0  0  0
  9 13  1  0  0  0  0
  9 14  1  0  0  0  0
  9 15  1  0  0  0  0
 10 16  1  0  0  0  0
 10 17  1  0  0  0  0
 10 18  1  0  0  0  0
 19 20  1  0  0  0  0
 20 21  1  0  0  0  0
 20 22  1  0  0  0  0
 20 23  1  0  0  0  0
 23 24  4  0  0  0  0
 23 28  4  0  0  0  0
 24 25  4  0  0  0  0
 24 30  1  0  0  0  0
 25 26  4  0  0  0  0
 25 29  1  0  0  0  0
 26 27  4  0  0  0  0
 26 31  1  0  0  0  0
 27 28  4  0  0  0  0
 27 32  1  0  0  0  0
 28 33  1  0  0  0  0
 29 34  1  0  0  0  0
 29 35  1  0  0  0  0
M  END
> <BCLConfClusterSize>
1

> <ConfClashScore>
0 

> <ConfOneFourInteractionScore>
-0.957364 

> <ConfScore>
0.0910209 

> <ConfScorePBest>
0.00435918 

> <ConfTolerance>
0.357519 

> <RosettaParamsInstructions>
M  ROOT 3
M  POLY_N_BB 3
M  POLY_CA_BB 4
M  POLY_C_BB 2
M  POLY_O_BB 5
M  POLY_IGNORE 9 10 11 12 13 14 15 16 17 18 
M  POLY_UPPER 6
M  POLY_LOWER 8
M  POLY_CHG 0
M  POLY_PROPERTIES ALPHA_AA L_AA PROTEIN AROMATIC POLYMER 
M  END

$$$$



 35 35  0  0  0  0  0  0  0  0999 V2000
   -1.6642    1.8868   -1.0190 H   0  0  0  1  0  0  0  0  0  0  0  0
   -0.2187    3.4137   -1.1790 C   0  0  0  1  0  0  0  0  0  0  0  0
    0.0968    1.1324   -0.2477 N   0  0  0  1  0  0  0  0  0  0  0  0
   -0.8309    2.2361   -0.4458 C   0  0  0  1  0  0  0  0  0  0  0  0
    0.7522    4.0154   -0.7221 O   0  0  0  1  0  0  0  0  0  0  0  0
   -0.8033    3.7448   -2.3412 N   0  0  0  1  0  0  0  0  0  0  0  0
    0.3819    0.9120    0.6636 H   0  0  0  1  0  0  0  0  0  0  0  0
    0.5755    0.4058   -1.2700 C   0  0  0  1  0  0  0  0  0  0  0  0
   -0.3078    4.8257   -3.1803 C   0  0  0  1  0  0  0  0  0  0  0  0
    1.5795   -0.6964   -0.9312 C   0  0  0  1  0  0  0  0  0  0  0  0
    0.2977    0.6529   -2.4405 O   0  0  0  1  0  0  0  0  0  0  0  0
   -1.5910    3.2412   -2.6348 H   0  0  0  1  0  0  0  0  0  0  0  0
    0.0575    5.6190   -2.5622 H   0  0  0  1  0  0  0  0  0  0  0  0
   -1.1024    5.1913   -3.7967 H   0  0  0  1  0  0  0  0  0  0  0  0
    0.4856    4.4617   -3.7990 H   0  0  0  1  0  0  0  0  0  0  0  0
    1.8755   -1.1981   -1.8288 H   0  0  0  1  0  0  0  0  0  0  0  0
    1.1260   -1.3987   -0.2634 H   0  0  0  1  0  0  0  0  0  0  0  0
    2.4397   -0.2638   -0.4645 H   0  0  0  1  0  0  0  0  0  0  0  0
   -0.6804    7.8804    0.1859 F   0  0  0  1  0  0  0  0  0  0  0  0
   -1.6227    7.7067    1.1142 C   0  0  0  1  0  0  0  0  0  0  0  0
   -0.9985    7.9053    2.2762 F   0  0  0  1  0  0  0  0  0  0  0  0
   -2.4493    8.7284    0.9642 F   0  0  0  1  0  0  0  0  0  0  0  0
   -2.3070    6.3581    1.0252 C   0  0  0  1  0  0  0  0  0  0  0  0
   -1.5522    5.2006    0.9955 C   0  0  0  1  0  0  0  0  0  0  0  0
   -2.1785    3.9663    0.9195 C   0  0  0  1  0  0  0  0  0  0  0  0
   -3.5578    3.8934    0.8680 C   0  0  0  1  0  0  0  0  0  0  0  0
   -4.3149    5.0542    0.8977 C   0  0  0  1  0  0  0  0  0  0  0  0
   -3.6903    6.2847    0.9735 C   0  0  0  1  0  0  0  0  0  0  0  0
   -1.3538    2.7012    0.8930 C   0  0  0  1  0  0  0  0  0  0  0  0
   -0.5143    5.2557    1.0302 H   0  0  0  1  0  0  0  0  0  0  0  0
   -4.0276    2.9676    0.8069 H   0  0  0  1  0  0  0  0  0  0  0  0
   -5.3529    4.9991    0.8630 H   0  0  0  1  0  0  0  0  0  0  0  0
   -4.2582    7.1558    0.9918 H   0  0  0  1  0  0  0  0  0  0  0  0
   -0.5085    2.8566    1.5303 H   0  0  0  1  0  0  0  0  0  0  0  0
   -1.9610    1.9148    1.2903 H   0  0  0  1  0  0  0  0  0  0  0  0
  1  4  1  0  0  0  0
  2  4  1  0  0  0  0
  2  5  2  0  0  0  0
  2  6  1  0  0  0  0
  3  4  1  0  0  0  0
  3  7  1  0  0  0  0
  3  8  1  0  0  0  0
  4 29  1  0  0  0  0
  6  9  1  0  0  0  0
  6 12  1  0  0  0  0
  8 10  1  0  0  0  0
  8 11  2  0  0  0  0
  9 13  1  0  0  0  0
  9 14  1  0  0  0  0
  9 15  1  0  0  0  0
 10 16  1  0  0  0  0
 10 17  1  0  0  0  0
 10 18  1  0  0  0  0
 19 20  1  0  0  0  0
 20 21  1  0  0  0  0
 20 22  1  0  0  0  0
 20 23  1  0  0  0  0
 23 24  4  0  0  0  0
 23 28  4  0  0  0  0
 24 25  4  0  0  0  0
 24 30  1  0  0  0  0
 25 26  4  0  0  0  0
 25 29  1  0  0  0  0
 26 27  4  0  0  0  0
 26 31  1  0  0  0  0
 27 28  4  0  0  0  0
 27 32  1  0  0  0  0
 28 33  1  0  0  0  0
 29 34  1  0  0  0  0
 29 35  1  0  0  0  0
M  END
> <BCLConfClusterSize>
1

> <ConfClashScore>
0 

> <ConfOneFourInteractionScore>
-0.975259 

> <ConfScore>
0.0943611 

> <ConfScorePBest>
0.0043307 

> <ConfTolerance>
0.49898 

> <RosettaParamsInstructions>
M  ROOT 3
M  POLY_N_BB 3
M  POLY_CA_BB 4
M  POLY_C_BB 2
M  POLY_O_BB 5
M  POLY_IGNORE 9 10 11 12 13 14 15 16 17 18 
M  POLY_UPPER 6
M  POLY_LOWER 8
M  POLY_CHG 0
M  POLY_PROPERTIES ALPHA_AA L_AA PROTEIN AROMATIC POLYMER 
M  END

$$$$



 35 35  0  0  0  0  0  0  0  0999 V2000
   -0.1195    2.9650   -0.5685 H   0  0  0  1  0  0  0  0  0  0  0  0
    0.0863    0.9521   -0.0026 C   0  0  0  1  0  0  0  0  0  0  0  0
   -1.8210    1.9879   -1.1875 N   0  0  0  1  0  0  0  0  0  0  0  0
   -0.7639    2.1907   -0.2080 C   0  0  0  1  0  0  0  0  0  0  0  0
    0.5849    0.6944    1.0922 O   0  0  0  1  0  0  0  0  0  0  0  0
    0.2509    0.1762   -1.0777 N   0  0  0  1  0  0  0  0  0  0  0  0
   -1.8647    2.5816   -1.9660 H   0  0  0  1  0  0  0  0  0  0  0  0
   -2.7322    1.0226   -1.0625 C   0  0  0  1  0  0  0  0  0  0  0  0
    0.9474   -1.1001   -1.0160 C   0  0  0  1  0  0  0  0  0  0  0  0
   -3.8137    0.9960   -2.1250 C   0  0  0  1  0  0  0  0  0  0  0  0
   -2.7129    0.1972   -0.1503 O   0  0  0  1  0  0  0  0  0  0  0  0
   -0.1100    0.4770   -1.9378 H   0  0  0  1  0  0  0  0  0  0  0  0
    0.8972   -1.4866   -0.0195 H   0  0  0  1  0  0  0  0  0  0  0  0
    1.9715   -0.9610   -1.2932 H   0  0  0  1  0  0  0  0  0  0  0  0
    0.4856   -1.7911   -1.6900 H   0  0  0  1  0  0  0  0  0  0  0  0
   -3.3951    1.2794   -3.0680 H   0  0  0  1  0  0  0  0  0  0  0  0
   -4.5910    1.6819   -1.8596 H   0  0  0  1  0  0  0  0  0  0  0  0
   -4.2184    0.0081   -2.1970 H   0  0  0  1  0  0  0  0  0  0  0  0
   -0.3233    7.6143    1.4169 F   0  0  0  1  0  0  0  0  0  0  0  0
   -1.6174    7.7072    1.1058 C   0  0  0  1  0  0  0  0  0  0  0  0
   -2.1393    8.4704    2.0673 F   0  0  0  1  0  0  0  0  0  0  0  0
   -1.7073    8.4178    0.0006 F   0  0  0  1  0  0  0  0  0  0  0  0
   -2.3051    6.3609    1.0133 C   0  0  0  1  0  0  0  0  0  0  0  0
   -1.5613    5.1945    1.0862 C   0  0  0  1  0  0  0  0  0  0  0  0
   -2.1710    3.9439    1.0193 C   0  0  0  1  0  0  0  0  0  0  0  0
   -3.5532    3.9022    0.8709 C   0  0  0  1  0  0  0  0  0  0  0  0
   -4.3024    5.0665    0.7875 C   0  0  0  1  0  0  0  0  0  0  0  0
   -3.6814    6.2924    0.8554 C   0  0  0  1  0  0  0  0  0  0  0  0
   -1.3574    2.6742    1.1051 C   0  0  0  1  0  0  0  0  0  0  0  0
   -0.5284    5.2537    1.1928 H   0  0  0  1  0  0  0  0  0  0  0  0
   -4.0338    2.9812    0.8216 H   0  0  0  1  0  0  0  0  0  0  0  0
   -5.3347    5.0127    0.6734 H   0  0  0  1  0  0  0  0  0  0  0  0
   -4.2426    7.1655    0.7886 H   0  0  0  1  0  0  0  0  0  0  0  0
   -0.5519    2.8439    1.7887 H   0  0  0  1  0  0  0  0  0  0  0  0
   -1.9916    1.9008    1.4853 H   0  0  0  1  0  0  0  0  0  0  0  0
  1  4  1  0  0  0  0
  2  4  1  0  0  0  0
  2  5  2  0  0  0  0
  2  6  1  0  0  0  0
  3  4  1  0  0  0  0
  3  7  1  0  0  0  0
  3  8  1  0  0  0  0
  4 29  1  0  0  0  0
  6  9  1  0  0  0  0
  6 12  1  0  0  0  0
  8 10  1  0  0  0  0
  8 11  2  0  0  0  0
  9 13  1  0  0  0  0
  9 14  1  0  0  0  0
  9 15  1  0  0  0  0
 10 16  1  0  0  0  0
 10 17  1  0  0  0  0
 10 18  1  0  0  0  0
 19 20  1  0  0  0  0
 20 21  1  0  0  0  0
 20 22  1  0  0  0  0
 20 23  1  0  0  0  0
 23 24  4  0  0  0  0
 23 28  4  0  0  0  0
 24 25  4  0  0  0  0
 24 30  1  0  0  0  0
 25 26  4  0  0  0  0
 25 29  1  0  0  0  0
 26 27  4  0  0  0  0
 26 31  1  0  0  0  0
 27 28  4  0  0  0  0
 27 32  1  0  0  0  0
 28 33  1  0  0  0  0
 29 34  1  0  0  0  0
 29 35  1  0  0  0  0
M  END
> <BCLConfClusterSize>
1

> <ConfClashScore>
0 

> <ConfOneFourInteractionScore>
-0.957364 

> <ConfScore>
0.100942 

> <ConfScorePBest>
0.00430222 

> <ConfTolerance>
0.33689 

> <RosettaParamsInstructions>
M  ROOT 3
M  POLY_N_BB 3
M  POLY_CA_BB 4
M  POLY_C_BB 2
M  POLY_O_BB 5
M  POLY_IGNORE 9 10 11 12 13 14 15 16 17 18 
M  POLY_UPPER 6
M  POLY_LOWER 8
M  POLY_CHG 0
M  POLY_PROPERTIES ALPHA_AA L_AA PROTEIN AROMATIC POLYMER 
M  END

$$$$



 35 35  0  0  0  0  0  0  0  0999 V2000
   -1.9618    1.8406    2.7259 H   0  0  0  1  0  0  0  0  0  0  0  0
   -0.2252    0.8104    2.1207 C   0  0  0  1  0  0  0  0  0  0  0  0
   -0.3671    3.0866    3.0970 N   0  0  0  1  0  0  0  0  0  0  0  0
   -1.0324    2.0974    2.2622 C   0  0  0  1  0  0  0  0  0  0  0  0
   -0.3772    0.0644    1.1544 O   0  0  0  1  0  0  0  0  0  0  0  0
    0.6465    0.5570    3.1097 N   0  0  0  1  0  0  0  0  0  0  0  0
   -0.8149    3.3958    3.9121 H   0  0  0  1  0  0  0  0  0  0  0  0
    0.8380    3.5901    2.7895 C   0  0  0  1  0  0  0  0  0  0  0  0
    1.5053   -0.6160    3.0441 C   0  0  0  1  0  0  0  0  0  0  0  0
    1.3430    4.6926    3.6998 C   0  0  0  1  0  0  0  0  0  0  0  0
    1.5039    3.1959    1.8358 O   0  0  0  1  0  0  0  0  0  0  0  0
    0.7046    1.1633    3.8775 H   0  0  0  1  0  0  0  0  0  0  0  0
    1.7294   -0.8378    2.0216 H   0  0  0  1  0  0  0  0  0  0  0  0
    1.0036   -1.4503    3.4881 H   0  0  0  1  0  0  0  0  0  0  0  0
    2.4143   -0.4224    3.5743 H   0  0  0  1  0  0  0  0  0  0  0  0
    0.6802    5.5309    3.6472 H   0  0  0  1  0  0  0  0  0  0  0  0
    2.3218    4.9920    3.3878 H   0  0  0  1  0  0  0  0  0  0  0  0
    1.3836    4.3328    4.7067 H   0  0  0  1  0  0  0  0  0  0  0  0
   -0.3648    7.6970    0.6234 F   0  0  0  1  0  0  0  0  0  0  0  0
   -1.6123    7.7227    1.1129 C   0  0  0  1  0  0  0  0  0  0  0  0
   -1.5115    8.1652    2.3673 F   0  0  0  1  0  0  0  0  0  0  0  0
   -2.2606    8.6696    0.4336 F   0  0  0  1  0  0  0  0  0  0  0  0
   -2.2954    6.3783    1.0267 C   0  0  0  1  0  0  0  0  0  0  0  0
   -1.5580    5.1966    1.0138 C   0  0  0  1  0  0  0  0  0  0  0  0
   -2.1811    3.9621    0.9293 C   0  0  0  1  0  0  0  0  0  0  0  0
   -3.5651    3.8908    0.8714 C   0  0  0  1  0  0  0  0  0  0  0  0
   -4.3111    5.0468    0.8828 C   0  0  0  1  0  0  0  0  0  0  0  0
   -3.6810    6.2801    0.9576 C   0  0  0  1  0  0  0  0  0  0  0  0
   -1.3556    2.6975    0.9002 C   0  0  0  1  0  0  0  0  0  0  0  0
   -0.5205    5.2418    1.0687 H   0  0  0  1  0  0  0  0  0  0  0  0
   -4.0377    2.9658    0.8196 H   0  0  0  1  0  0  0  0  0  0  0  0
   -5.3488    4.9958    0.8352 H   0  0  0  1  0  0  0  0  0  0  0  0
   -4.2551    7.1473    0.9622 H   0  0  0  1  0  0  0  0  0  0  0  0
   -1.8940    1.9649    0.3360 H   0  0  0  1  0  0  0  0  0  0  0  0
   -0.4311    2.9181    0.4088 H   0  0  0  1  0  0  0  0  0  0  0  0
  1  4  1  0  0  0  0
  2  4  1  0  0  0  0
  2  5  2  0  0  0  0
  2  6  1  0  0  0  0
  3  4  1  0  0  0  0
  3  7  1  0  0  0  0
  3  8  1  0  0  0  0
  4 29  1  0  0  0  0
  6  9  1  0  0  0  0
  6 12  1  0  0  0  0
  8 10  1  0  0  0  0
  8 11  2  0  0  0  0
  9 13  1  0  0  0  0
  9 14  1  0  0  0  0
  9 15  1  0  0  0  0
 10 16  1  0  0  0  0
 10 17  1  0  0  0  0
 10 18  1  0  0  0  0
 19 20  1  0  0  0  0
 20 21  1  0  0  0  0
 20 22  1  0  0  0  0
 20 23  1  0  0  0  0
 23 24  4  0  0  0  0
 23 28  4  0  0  0  0
 24 25  4  0  0  0  0
 24 30  1  0  0  0  0
 25 26  4  0  0  0  0
 25 29  1  0  0  0  0
 26 27  4  0  0  0  0
 26 31  1  0  0  0  0
 27 28  4  0  0  0  0
 27 32  1  0  0  0  0
 28 33  1  0  0  0  0
 29 34  1  0  0  0  0
 29 35  1  0  0  0  0
M  END
> <BCLConfClusterSize>
1

> <ConfClashScore>
0 

> <ConfOneFourInteractionScore>
-0.956972 

> <ConfScore>
0.101294 

> <ConfScorePBest>
0.00427374 

> <ConfTolerance>
0.408105 

> <RosettaParamsInstructions>
M  ROOT 3
M  POLY_N_BB 3
M  POLY_CA_BB 4
M  POLY_C_BB 2
M  POLY_O_BB 5
M  POLY_IGNORE 9 10 11 12 13 14 15 16 17 18 
M  POLY_UPPER 6
M  POLY_LOWER 8
M  POLY_CHG 0
M  POLY_PROPERTIES ALPHA_AA L_AA PROTEIN AROMATIC POLYMER 
M  END

$$$$



 35 35  0  0  0  0  0  0  0  0999 V2000
   -0.3511    3.6611    2.8892 H   0  0  0  1  0  0  0  0  0  0  0  0
   -1.3266    2.0569    3.8378 C   0  0  0  1  0  0  0  0  0  0  0  0
    0.6674    1.9279    2.4005 N   0  0  0  1  0  0  0  0  0  0  0  0
   -0.5978    2.6508    2.6376 C   0  0  0  1  0  0  0  0  0  0  0  0
   -2.0241    2.7562    4.5714 O   0  0  0  1  0  0  0  0  0  0  0  0
   -1.1543    0.7397    4.0314 N   0  0  0  1  0  0  0  0  0  0  0  0
    0.7799    1.3930    1.5871 H   0  0  0  1  0  0  0  0  0  0  0  0
    1.6968    2.0041    3.3262 C   0  0  0  1  0  0  0  0  0  0  0  0
   -1.6922    0.0478    5.1933 C   0  0  0  1  0  0  0  0  0  0  0  0
    3.0077    1.3370    3.0175 C   0  0  0  1  0  0  0  0  0  0  0  0
    1.5034    2.6119    4.3633 O   0  0  0  1  0  0  0  0  0  0  0  0
   -0.6488    0.2262    3.3673 H   0  0  0  1  0  0  0  0  0  0  0  0
   -2.5658    0.5589    5.5406 H   0  0  0  1  0  0  0  0  0  0  0  0
   -0.9567    0.0309    5.9702 H   0  0  0  1  0  0  0  0  0  0  0  0
   -1.9497   -0.9550    4.9233 H   0  0  0  1  0  0  0  0  0  0  0  0
    3.5111    1.8793    2.2445 H   0  0  0  1  0  0  0  0  0  0  0  0
    2.8289    0.3339    2.6907 H   0  0  0  1  0  0  0  0  0  0  0  0
    3.6164    1.3229    3.8973 H   0  0  0  1  0  0  0  0  0  0  0  0
   -0.6675    7.7472    2.0513 F   0  0  0  1  0  0  0  0  0  0  0  0
   -1.6112    7.7034    1.1092 C   0  0  0  1  0  0  0  0  0  0  0  0
   -2.4609    8.6769    1.4404 F   0  0  0  1  0  0  0  0  0  0  0  0
   -1.0568    8.0860   -0.0225 F   0  0  0  1  0  0  0  0  0  0  0  0
   -2.2983    6.3568    1.0177 C   0  0  0  1  0  0  0  0  0  0  0  0
   -1.5736    5.1963    1.2138 C   0  0  0  1  0  0  0  0  0  0  0  0
   -2.2036    3.9640    1.1354 C   0  0  0  1  0  0  0  0  0  0  0  0
   -3.5554    3.8957    0.8558 C   0  0  0  1  0  0  0  0  0  0  0  0
   -4.2824    5.0594    0.6591 C   0  0  0  1  0  0  0  0  0  0  0  0
   -3.6541    6.2880    0.7373 C   0  0  0  1  0  0  0  0  0  0  0  0
   -1.4127    2.6961    1.3554 C   0  0  0  1  0  0  0  0  0  0  0  0
   -0.5556    5.2477    1.4202 H   0  0  0  1  0  0  0  0  0  0  0  0
   -4.0273    2.9710    0.7930 H   0  0  0  1  0  0  0  0  0  0  0  0
   -5.3004    5.0081    0.4527 H   0  0  0  1  0  0  0  0  0  0  0  0
   -4.1987    7.1610    0.5858 H   0  0  0  1  0  0  0  0  0  0  0  0
   -2.1007    1.8767    1.3725 H   0  0  0  1  0  0  0  0  0  0  0  0
   -0.7394    2.5799    0.5320 H   0  0  0  1  0  0  0  0  0  0  0  0
  1  4  1  0  0  0  0
  2  4  1  0  0  0  0
  2  5  2  0  0  0  0
  2  6  1  0  0  0  0
  3  4  1  0  0  0  0
  3  7  1  0  0  0  0
  3  8  1  0  0  0  0
  4 29  1  0  0  0  0
  6  9  1  0  0  0  0
  6 12  1  0  0  0  0
  8 10  1  0  0  0  0
  8 11  2  0  0  0  0
  9 13  1  0  0  0  0
  9 14  1  0  0  0  0
  9 15  1  0  0  0  0
 10 16  1  0  0  0  0
 10 17  1  0  0  0  0
 10 18  1  0  0  0  0
 19 20  1  0  0  0  0
 20 21  1  0  0  0  0
 20 22  1  0  0  0  0
 20 23  1  0  0  0  0
 23 24  4  0  0  0  0
 23 28  4  0  0  0  0
 24 25  4  0  0  0  0
 24 30  1  0  0  0  0
 25 26  4  0  0  0  0
 25 29  1  0  0  0  0
 26 27  4  0  0  0  0
 26 31  1  0  0  0  0
 27 28  4  0  0  0  0
 27 32  1  0  0  0  0
 28 33  1  0  0  0  0
 29 34  1  0  0  0  0
 29 35  1  0  0  0  0
M  END
> <BCLConfClusterSize>
1

> <ConfClashScore>
0 

> <ConfOneFourInteractionScore>
-0.940901 

> <ConfScore>
0.102611 

> <ConfScorePBest>
0.00424526 

> <ConfTolerance>
0.72378 

> <RosettaParamsInstructions>
M  ROOT 3
M  POLY_N_BB 3
M  POLY_CA_BB 4
M  POLY_C_BB 2
M  POLY_O_BB 5
M  POLY_IGNORE 9 10 11 12 13 14 15 16 17 18 
M  POLY_UPPER 6
M  POLY_LOWER 8
M  POLY_CHG 0
M  POLY_PROPERTIES ALPHA_AA L_AA PROTEIN AROMATIC POLYMER 
M  END

$$$$



 35 35  0  0  0  0  0  0  0  0999 V2000
   -1.1608    2.3981   -1.2034 H   0  0  0  1  0  0  0  0  0  0  0  0
   -0.6665    0.5890   -0.2120 C   0  0  0  1  0  0  0  0  0  0  0  0
   -2.9143    1.4969   -0.5525 N   0  0  0  1  0  0  0  0  0  0  0  0
   -1.5134    1.8412   -0.3605 C   0  0  0  1  0  0  0  0  0  0  0  0
    0.5495    0.6243   -0.3957 O   0  0  0  1  0  0  0  0  0  0  0  0
   -1.2871   -0.5601    0.1267 N   0  0  0  1  0  0  0  0  0  0  0  0
   -3.5007    1.4469    0.2311 H   0  0  0  1  0  0  0  0  0  0  0  0
   -3.4451    1.2386   -1.7981 C   0  0  0  1  0  0  0  0  0  0  0  0
   -0.4843   -1.7710    0.2223 C   0  0  0  1  0  0  0  0  0  0  0  0
   -4.9069    0.9002   -1.8312 C   0  0  0  1  0  0  0  0  0  0  0  0
   -2.7370    1.2924   -2.7859 O   0  0  0  1  0  0  0  0  0  0  0  0
   -2.2509   -0.5791    0.3034 H   0  0  0  1  0  0  0  0  0  0  0  0
    0.4979   -1.5222    0.5661 H   0  0  0  1  0  0  0  0  0  0  0  0
   -0.4185   -2.2320   -0.7411 H   0  0  0  1  0  0  0  0  0  0  0  0
   -0.9423   -2.4488    0.9120 H   0  0  0  1  0  0  0  0  0  0  0  0
   -5.1356    0.3930   -2.7451 H   0  0  0  1  0  0  0  0  0  0  0  0
   -5.4826    1.8001   -1.7693 H   0  0  0  1  0  0  0  0  0  0  0  0
   -5.1449    0.2663   -1.0026 H   0  0  0  1  0  0  0  0  0  0  0  0
   -0.8922    7.9765    0.0254 F   0  0  0  1  0  0  0  0  0  0  0  0
   -1.6200    7.7054    1.1101 C   0  0  0  1  0  0  0  0  0  0  0  0
   -0.7874    7.7914    2.1487 F   0  0  0  1  0  0  0  0  0  0  0  0
   -2.4851    8.7120    1.2405 F   0  0  0  1  0  0  0  0  0  0  0  0
   -2.3043    6.3614    1.0268 C   0  0  0  1  0  0  0  0  0  0  0  0
   -1.5491    5.1992    1.0072 C   0  0  0  1  0  0  0  0  0  0  0  0
   -2.1752    3.9697    0.9255 C   0  0  0  1  0  0  0  0  0  0  0  0
   -3.5584    3.8985    0.8686 C   0  0  0  1  0  0  0  0  0  0  0  0
   -4.3112    5.0574    0.8882 C   0  0  0  1  0  0  0  0  0  0  0  0
   -3.6835    6.2906    0.9701 C   0  0  0  1  0  0  0  0  0  0  0  0
   -1.3521    2.7035    0.8983 C   0  0  0  1  0  0  0  0  0  0  0  0
   -0.5115    5.2523    1.0539 H   0  0  0  1  0  0  0  0  0  0  0  0
   -4.0295    2.9731    0.8112 H   0  0  0  1  0  0  0  0  0  0  0  0
   -5.3488    5.0042    0.8414 H   0  0  0  1  0  0  0  0  0  0  0  0
   -4.2502    7.1624    0.9888 H   0  0  0  1  0  0  0  0  0  0  0  0
   -0.3212    2.9781    0.9804 H   0  0  0  1  0  0  0  0  0  0  0  0
   -1.6320    2.1097    1.7432 H   0  0  0  1  0  0  0  0  0  0  0  0
  1  4  1  0  0  0  0
  2  4  1  0  0  0  0
  2  5  2  0  0  0  0
  2  6  1  0  0  0  0
  3  4  1  0  0  0  0
  3  7  1  0  0  0  0
  3  8  1  0  0  0  0
  4 29  1  0  0  0  0
  6  9  1  0  0  0  0
  6 12  1  0  0  0  0
  8 10  1  0  0  0  0
  8 11  2  0  0  0  0
  9 13  1  0  0  0  0
  9 14  1  0  0  0  0
  9 15  1  0  0  0  0
 10 16  1  0  0  0  0
 10 17  1  0  0  0  0
 10 18  1  0  0  0  0
 19 20  1  0  0  0  0
 20 21  1  0  0  0  0
 20 22  1  0  0  0  0
 20 23  1  0  0  0  0
 23 24  4  0  0  0  0
 23 28  4  0  0  0  0
 24 25  4  0  0  0  0
 24 30  1  0  0  0  0
 25 26  4  0  0  0  0
 25 29  1  0  0  0  0
 26 27  4  0  0  0  0
 26 31  1  0  0  0  0
 27 28  4  0  0  0  0
 27 32  1  0  0  0  0
 28 33  1  0  0  0  0
 29 34  1  0  0  0  0
 29 35  1  0  0  0  0
M  END
> <BCLConfClusterSize>
1

> <ConfClashScore>
0 

> <ConfOneFourInteractionScore>
-0.960318 

> <ConfScore>
0.103868 

> <ConfScorePBest>
0.00421678 

> <ConfTolerance>
0.61099 

> <RosettaParamsInstructions>
M  ROOT 3
M  POLY_N_BB 3
M  POLY_CA_BB 4
M  POLY_C_BB 2
M  POLY_O_BB 5
M  POLY_IGNORE 9 10 11 12 13 14 15 16 17 18 
M  POLY_UPPER 6
M  POLY_LOWER 8
M  POLY_CHG 0
M  POLY_PROPERTIES ALPHA_AA L_AA PROTEIN AROMATIC POLYMER 
M  END

$$$$



 35 35  0  0  0  0  0  0  0  0999 V2000
   -1.9777    2.1584    2.8462 H   0  0  0  1  0  0  0  0  0  0  0  0
   -0.8223    0.5488    2.0774 C   0  0  0  1  0  0  0  0  0  0  0  0
    0.0452    2.6220    2.9324 N   0  0  0  1  0  0  0  0  0  0  0  0
   -1.0985    2.0370    2.2486 C   0  0  0  1  0  0  0  0  0  0  0  0
   -1.7103   -0.2829    2.2600 O   0  0  0  1  0  0  0  0  0  0  0  0
    0.4161    0.1738    1.7223 N   0  0  0  1  0  0  0  0  0  0  0  0
    0.5353    3.3328    2.4688 H   0  0  0  1  0  0  0  0  0  0  0  0
    0.4794    2.2613    4.1503 C   0  0  0  1  0  0  0  0  0  0  0  0
    0.7756   -1.2204    1.5109 C   0  0  0  1  0  0  0  0  0  0  0  0
    1.6616    3.0029    4.7319 C   0  0  0  1  0  0  0  0  0  0  0  0
   -0.0659    1.3559    4.7759 O   0  0  0  1  0  0  0  0  0  0  0  0
    1.1024    0.8628    1.6012 H   0  0  0  1  0  0  0  0  0  0  0  0
    1.5717   -1.2799    0.7984 H   0  0  0  1  0  0  0  0  0  0  0  0
   -0.0741   -1.7555    1.1414 H   0  0  0  1  0  0  0  0  0  0  0  0
    1.0935   -1.6510    2.4374 H   0  0  0  1  0  0  0  0  0  0  0  0
    2.3072    3.3224    3.9407 H   0  0  0  1  0  0  0  0  0  0  0  0
    2.1999    2.3545    5.3912 H   0  0  0  1  0  0  0  0  0  0  0  0
    1.3145    3.8567    5.2755 H   0  0  0  1  0  0  0  0  0  0  0  0
   -0.8315    7.9226    0.0623 F   0  0  0  1  0  0  0  0  0  0  0  0
   -1.6252    7.7126    1.1139 C   0  0  0  1  0  0  0  0  0  0  0  0
   -0.8486    7.7923    2.1955 F   0  0  0  1  0  0  0  0  0  0  0  0
   -2.4848    8.7309    1.1680 F   0  0  0  1  0  0  0  0  0  0  0  0
   -2.3126    6.3658    1.0261 C   0  0  0  1  0  0  0  0  0  0  0  0
   -1.5569    5.2031    0.9977 C   0  0  0  1  0  0  0  0  0  0  0  0
   -2.1613    3.9527    0.9218 C   0  0  0  1  0  0  0  0  0  0  0  0
   -3.5524    3.9046    0.8706 C   0  0  0  1  0  0  0  0  0  0  0  0
   -4.3123    5.0628    0.8887 C   0  0  0  1  0  0  0  0  0  0  0  0
   -3.6859    6.2972    0.9747 C   0  0  0  1  0  0  0  0  0  0  0  0
   -1.3358    2.6881    0.8958 C   0  0  0  1  0  0  0  0  0  0  0  0
   -0.5196    5.2673    1.0337 H   0  0  0  1  0  0  0  0  0  0  0  0
   -4.0295    2.9820    0.8177 H   0  0  0  1  0  0  0  0  0  0  0  0
   -5.3496    5.0068    0.8379 H   0  0  0  1  0  0  0  0  0  0  0  0
   -4.2527    7.1688    1.0003 H   0  0  0  1  0  0  0  0  0  0  0  0
   -1.8382    1.9788    0.2717 H   0  0  0  1  0  0  0  0  0  0  0  0
   -0.3824    2.9248    0.4716 H   0  0  0  1  0  0  0  0  0  0  0  0
  1  4  1  0  0  0  0
  2  4  1  0  0  0  0
  2  5  2  0  0  0  0
  2  6  1  0  0  0  0
  3  4  1  0  0  0  0
  3  7  1  0  0  0  0
  3  8  1  0  0  0  0
  4 29  1  0  0  0  0
  6  9  1  0  0  0  0
  6 12  1  0  0  0  0
  8 10  1  0  0  0  0
  8 11  2  0  0  0  0
  9 13  1  0  0  0  0
  9 14  1  0  0  0  0
  9 15  1  0  0  0  0
 10 16  1  0  0  0  0
 10 17  1  0  0  0  0
 10 18  1  0  0  0  0
 19 20  1  0  0  0  0
 20 21  1  0  0  0  0
 20 22  1  0  0  0  0
 20 23  1  0  0  0  0
 23 24  4  0  0  0  0
 23 28  4  0  0  0  0
 24 25  4  0  0  0  0
 24 30  1  0  0  0  0
 25 26  4  0  0  0  0
 25 29  1  0  0  0  0
 26 27  4  0  0  0  0
 26 31  1  0  0  0  0
 27 28  4  0  0  0  0
 27 32  1  0  0  0  0
 28 33  1  0  0  0  0
 29 34  1  0  0  0  0
 29 35  1  0  0  0  0
M  END
> <BCLConfClusterSize>
1

> <ConfClashScore>
0 

> <ConfOneFourInteractionScore>
-0.940901 

> <ConfScore>
0.110248 

> <ConfScorePBest>
0.0041883 

> <ConfTolerance>
0.697387 

> <RosettaParamsInstructions>
M  ROOT 3
M  POLY_N_BB 3
M  POLY_CA_BB 4
M  POLY_C_BB 2
M  POLY_O_BB 5
M  POLY_IGNORE 9 10 11 12 13 14 15 16 17 18 
M  POLY_UPPER 6
M  POLY_LOWER 8
M  POLY_CHG 0
M  POLY_PROPERTIES ALPHA_AA L_AA PROTEIN AROMATIC POLYMER 
M  END

$$$$



 35 35  0  0  0  0  0  0  0  0999 V2000
   -0.8537    1.0145    2.0017 H   0  0  0  1  0  0  0  0  0  0  0  0
   -0.1365    2.6340    3.1119 C   0  0  0  1  0  0  0  0  0  0  0  0
   -2.4717    1.8315    2.9346 N   0  0  0  1  0  0  0  0  0  0  0  0
   -1.2089    1.9975    2.2307 C   0  0  0  1  0  0  0  0  0  0  0  0
    1.0583    2.4831    2.8712 O   0  0  0  1  0  0  0  0  0  0  0  0
   -0.5873    3.3563    4.1488 N   0  0  0  1  0  0  0  0  0  0  0  0
   -3.2834    2.2219    2.5483 H   0  0  0  1  0  0  0  0  0  0  0  0
   -2.5635    1.1627    4.0941 C   0  0  0  1  0  0  0  0  0  0  0  0
    0.2718    4.0066    5.1270 C   0  0  0  1  0  0  0  0  0  0  0  0
   -3.9261    1.0581    4.7509 C   0  0  0  1  0  0  0  0  0  0  0  0
   -1.5744    0.6493    4.6103 O   0  0  0  1  0  0  0  0  0  0  0  0
   -1.5569    3.4521    4.2542 H   0  0  0  1  0  0  0  0  0  0  0  0
    1.2961    3.8036    4.8937 H   0  0  0  1  0  0  0  0  0  0  0  0
    0.0477    3.6312    6.1036 H   0  0  0  1  0  0  0  0  0  0  0  0
    0.1034    5.0629    5.1030 H   0  0  0  1  0  0  0  0  0  0  0  0
   -4.0370    1.8424    5.4703 H   0  0  0  1  0  0  0  0  0  0  0  0
   -4.0142    0.1106    5.2402 H   0  0  0  1  0  0  0  0  0  0  0  0
   -4.6888    1.1476    4.0057 H   0  0  0  1  0  0  0  0  0  0  0  0
   -0.7116    7.8988    0.1585 F   0  0  0  1  0  0  0  0  0  0  0  0
   -1.6222    7.7070    1.1145 C   0  0  0  1  0  0  0  0  0  0  0  0
   -0.9600    7.8875    2.2583 F   0  0  0  1  0  0  0  0  0  0  0  0
   -2.4553    8.7290    1.0096 F   0  0  0  1  0  0  0  0  0  0  0  0
   -2.3070    6.3573    1.0253 C   0  0  0  1  0  0  0  0  0  0  0  0
   -1.5521    5.2000    0.9962 C   0  0  0  1  0  0  0  0  0  0  0  0
   -2.1784    3.9658    0.9200 C   0  0  0  1  0  0  0  0  0  0  0  0
   -3.5576    3.8926    0.8678 C   0  0  0  1  0  0  0  0  0  0  0  0
   -4.3147    5.0535    0.8970 C   0  0  0  1  0  0  0  0  0  0  0  0
   -3.6903    6.2842    0.9729 C   0  0  0  1  0  0  0  0  0  0  0  0
   -1.3571    2.7061    0.8942 C   0  0  0  1  0  0  0  0  0  0  0  0
   -0.5141    5.2552    1.0315 H   0  0  0  1  0  0  0  0  0  0  0  0
   -4.0274    2.9668    0.8066 H   0  0  0  1  0  0  0  0  0  0  0  0
   -5.3527    4.9984    0.8617 H   0  0  0  1  0  0  0  0  0  0  0  0
   -4.2582    7.1553    0.9907 H   0  0  0  1  0  0  0  0  0  0  0  0
   -1.8180    2.0256    0.2091 H   0  0  0  1  0  0  0  0  0  0  0  0
   -0.3780    2.9576    0.5436 H   0  0  0  1  0  0  0  0  0  0  0  0
  1  4  1  0  0  0  0
  2  4  1  0  0  0  0
  2  5  2  0  0  0  0
  2  6  1  0  0  0  0
  3  4  1  0  0  0  0
  3  7  1  0  0  0  0
  3  8  1  0  0  0  0
  4 29  1  0  0  0  0
  6  9  1  0  0  0  0
  6 12  1  0  0  0  0
  8 10  1  0  0  0  0
  8 11  2  0  0  0  0
  9 13  1  0  0  0  0
  9 14  1  0  0  0  0
  9 15  1  0  0  0  0
 10 16  1  0  0  0  0
 10 17  1  0  0  0  0
 10 18  1  0  0  0  0
 19 20  1  0  0  0  0
 20 21  1  0  0  0  0
 20 22  1  0  0  0  0
 20 23  1  0  0  0  0
 23 24  4  0  0  0  0
 23 28  4  0  0  0  0
 24 25  4  0  0  0  0
 24 30  1  0  0  0  0
 25 26  4  0  0  0  0
 25 29  1  0  0  0  0
 26 27  4  0  0  0  0
 26 31  1  0  0  0  0
 27 28  4  0  0  0  0
 27 32  1  0  0  0  0
 28 33  1  0  0  0  0
 29 34  1  0  0  0  0
 29 35  1  0  0  0  0
M  END
> <BCLConfClusterSize>
1

> <ConfClashScore>
0 

> <ConfOneFourInteractionScore>
-0.931937 

> <ConfScore>
0.115611 

> <ConfScorePBest>
0.00415982 

> <ConfTolerance>
0.66906 

> <RosettaParamsInstructions>
M  ROOT 3
M  POLY_N_BB 3
M  POLY_CA_BB 4
M  POLY_C_BB 2
M  POLY_O_BB 5
M  POLY_IGNORE 9 10 11 12 13 14 15 16 17 18 
M  POLY_UPPER 6
M  POLY_LOWER 8
M  POLY_CHG 0
M  POLY_PROPERTIES ALPHA_AA L_AA PROTEIN AROMATIC POLYMER 
M  END

$$$$



 35 35  0  0  0  0  0  0  0  0999 V2000
   -0.4323    2.7295   -0.5040 H   0  0  0  1  0  0  0  0  0  0  0  0
   -0.0164    0.8551    0.3731 C   0  0  0  1  0  0  0  0  0  0  0  0
   -2.1078    1.5320   -0.6757 N   0  0  0  1  0  0  0  0  0  0  0  0
   -0.9600    2.0055    0.0810 C   0  0  0  1  0  0  0  0  0  0  0  0
    0.7240    0.8619    1.3557 O   0  0  0  1  0  0  0  0  0  0  0  0
   -0.0785   -0.1363   -0.5298 N   0  0  0  1  0  0  0  0  0  0  0  0
   -2.3490    1.9921   -1.5067 H   0  0  0  1  0  0  0  0  0  0  0  0
   -2.8487    0.4865   -0.2756 C   0  0  0  1  0  0  0  0  0  0  0  0
    0.6776   -1.3710   -0.3821 C   0  0  0  1  0  0  0  0  0  0  0  0
   -4.0077    0.1157   -1.1803 C   0  0  0  1  0  0  0  0  0  0  0  0
   -2.6179   -0.1416    0.7543 O   0  0  0  1  0  0  0  0  0  0  0  0
   -0.6531   -0.0248   -1.3159 H   0  0  0  1  0  0  0  0  0  0  0  0
    0.4701   -1.8047    0.5738 H   0  0  0  1  0  0  0  0  0  0  0  0
    1.7237   -1.1595   -0.4580 H   0  0  0  1  0  0  0  0  0  0  0  0
    0.3949   -2.0565   -1.1535 H   0  0  0  1  0  0  0  0  0  0  0  0
   -4.9185    0.1322   -0.6190 H   0  0  0  1  0  0  0  0  0  0  0  0
   -3.8508   -0.8659   -1.5764 H   0  0  0  1  0  0  0  0  0  0  0  0
   -4.0716    0.8191   -1.9841 H   0  0  0  1  0  0  0  0  0  0  0  0
   -0.7186    7.7463    2.1032 F   0  0  0  1  0  0  0  0  0  0  0  0
   -1.6217    7.7060    1.1220 C   0  0  0  1  0  0  0  0  0  0  0  0
   -2.4793    8.6987    1.3637 F   0  0  0  1  0  0  0  0  0  0  0  0
   -0.9736    8.0361    0.0041 F   0  0  0  1  0  0  0  0  0  0  0  0
   -2.3052    6.3629    1.0194 C   0  0  0  1  0  0  0  0  0  0  0  0
   -1.5832    5.1986    1.2250 C   0  0  0  1  0  0  0  0  0  0  0  0
   -2.1929    3.9484    1.1515 C   0  0  0  1  0  0  0  0  0  0  0  0
   -3.5518    3.9045    0.8588 C   0  0  0  1  0  0  0  0  0  0  0  0
   -4.2780    5.0662    0.6422 C   0  0  0  1  0  0  0  0  0  0  0  0
   -3.6575    6.2919    0.7192 C   0  0  0  1  0  0  0  0  0  0  0  0
   -1.4037    2.6813    1.3821 C   0  0  0  1  0  0  0  0  0  0  0  0
   -0.5671    5.2592    1.4381 H   0  0  0  1  0  0  0  0  0  0  0  0
   -4.0322    2.9839    0.8013 H   0  0  0  1  0  0  0  0  0  0  0  0
   -5.2928    5.0108    0.4214 H   0  0  0  1  0  0  0  0  0  0  0  0
   -4.2010    7.1628    0.5526 H   0  0  0  1  0  0  0  0  0  0  0  0
   -0.5327    2.9221    1.9551 H   0  0  0  1  0  0  0  0  0  0  0  0
   -2.0140    1.9952    1.9313 H   0  0  0  1  0  0  0  0  0  0  0  0
  1  4  1  0  0  0  0
  2  4  1  0  0  0  0
  2  5  2  0  0  0  0
  2  6  1  0  0  0  0
  3  4  1  0  0  0  0
  3  7  1  0  0  0  0
  3  8  1  0  0  0  0
  4 29  1  0  0  0  0
  6  9  1  0  0  0  0
  6 12  1  0  0  0  0
  8 10  1  0  0  0  0
  8 11  2  0  0  0  0
  9 13  1  0  0  0  0
  9 14  1  0  0  0  0
  9 15  1  0  0  0  0
 10 16  1  0  0  0  0
 10 17  1  0  0  0  0
 10 18  1  0  0  0  0
 19 20  1  0  0  0  0
 20 21  1  0  0  0  0
 20 22  1  0  0  0  0
 20 23  1  0  0  0  0
 23 24  4  0  0  0  0
 23 28  4  0  0  0  0
 24 25  4  0  0  0  0
 24 30  1  0  0  0  0
 25 26  4  0  0  0  0
 25 29  1  0  0  0  0
 26 27  4  0  0  0  0
 26 31  1  0  0  0  0
 27 28  4  0  0  0  0
 27 32  1  0  0  0  0
 28 33  1  0  0  0  0
 29 34  1  0  0  0  0
 29 35  1  0  0  0  0
M  END
> <BCLConfClusterSize>
1

> <ConfClashScore>
0 

> <ConfOneFourInteractionScore>
-0.934821 

> <ConfScore>
0.116697 

> <ConfScorePBest>
0.00413134 

> <ConfTolerance>
0.465578 

> <RosettaParamsInstructions>
M  ROOT 3
M  POLY_N_BB 3
M  POLY_CA_BB 4
M  POLY_C_BB 2
M  POLY_O_BB 5
M  POLY_IGNORE 9 10 11 12 13 14 15 16 17 18 
M  POLY_UPPER 6
M  POLY_LOWER 8
M  POLY_CHG 0
M  POLY_PROPERTIES ALPHA_AA L_AA PROTEIN AROMATIC POLYMER 
M  END

$$$$



 35 35  0  0  0  0  0  0  0  0999 V2000
   -2.9003    1.4348    0.5144 H   0  0  0  1  0  0  0  0  0  0  0  0
   -1.2716    0.2316    1.1594 C   0  0  0  1  0  0  0  0  0  0  0  0
   -2.9688    1.2823    2.5823 N   0  0  0  1  0  0  0  0  0  0  0  0
   -2.2223    1.4097    1.3418 C   0  0  0  1  0  0  0  0  0  0  0  0
   -0.6370   -0.2862    2.0598 O   0  0  0  1  0  0  0  0  0  0  0  0
   -1.1894   -0.1995   -0.1085 N   0  0  0  1  0  0  0  0  0  0  0  0
   -2.8778    2.0016    3.2418 H   0  0  0  1  0  0  0  0  0  0  0  0
   -3.7776    0.2486    2.8944 C   0  0  0  1  0  0  0  0  0  0  0  0
   -0.2151   -1.2174   -0.4724 C   0  0  0  1  0  0  0  0  0  0  0  0
   -4.5919    0.3405    4.1703 C   0  0  0  1  0  0  0  0  0  0  0  0
   -3.8540   -0.7389    2.1682 O   0  0  0  1  0  0  0  0  0  0  0  0
   -1.7867    0.1719   -0.7909 H   0  0  0  1  0  0  0  0  0  0  0  0
    0.6715   -1.0887    0.1126 H   0  0  0  1  0  0  0  0  0  0  0  0
    0.0264   -1.1246   -1.5107 H   0  0  0  1  0  0  0  0  0  0  0  0
   -0.6268   -2.1874   -0.2869 H   0  0  0  1  0  0  0  0  0  0  0  0
   -4.0214    0.8439    4.9226 H   0  0  0  1  0  0  0  0  0  0  0  0
   -4.8369   -0.6447    4.5084 H   0  0  0  1  0  0  0  0  0  0  0  0
   -5.4919    0.8870    3.9801 H   0  0  0  1  0  0  0  0  0  0  0  0
   -0.6600    7.7222    2.0447 F   0  0  0  1  0  0  0  0  0  0  0  0
   -1.6107    7.7275    1.1194 C   0  0  0  1  0  0  0  0  0  0  0  0
   -2.4573    8.6906    1.4222 F   0  0  0  1  0  0  0  0  0  0  0  0
   -1.0371    8.0537   -0.0332 F   0  0  0  1  0  0  0  0  0  0  0  0
   -2.2940    6.3836    1.0266 C   0  0  0  1  0  0  0  0  0  0  0  0
   -1.5857    5.2030    1.2240 C   0  0  0  1  0  0  0  0  0  0  0  0
   -2.2096    3.9675    1.1350 C   0  0  0  1  0  0  0  0  0  0  0  0
   -3.5539    3.8925    0.8513 C   0  0  0  1  0  0  0  0  0  0  0  0
   -4.2846    5.0558    0.6601 C   0  0  0  1  0  0  0  0  0  0  0  0
   -3.6537    6.2865    0.7405 C   0  0  0  1  0  0  0  0  0  0  0  0
   -1.4123    2.7027    1.3499 C   0  0  0  1  0  0  0  0  0  0  0  0
   -0.5699    5.2475    1.4422 H   0  0  0  1  0  0  0  0  0  0  0  0
   -4.0208    2.9659    0.7804 H   0  0  0  1  0  0  0  0  0  0  0  0
   -5.3033    5.0043    0.4569 H   0  0  0  1  0  0  0  0  0  0  0  0
   -4.2056    7.1541    0.5844 H   0  0  0  1  0  0  0  0  0  0  0  0
   -0.6798    2.6382    0.5726 H   0  0  0  1  0  0  0  0  0  0  0  0
   -0.9216    2.7789    2.2976 H   0  0  0  1  0  0  0  0  0  0  0  0
  1  4  1  0  0  0  0
  2  4  1  0  0  0  0
  2  5  2  0  0  0  0
  2  6  1  0  0  0  0
  3  4  1  0  0  0  0
  3  7  1  0  0  0  0
  3  8  1  0  0  0  0
  4 29  1  0  0  0  0
  6  9  1  0  0  0  0
  6 12  1  0  0  0  0
  8 10  1  0  0  0  0
  8 11  2  0  0  0  0
  9 13  1  0  0  0  0
  9 14  1  0  0  0  0
  9 15  1  0  0  0  0
 10 16  1  0  0  0  0
 10 17  1  0  0  0  0
 10 18  1  0  0  0  0
 19 20  1  0  0  0  0
 20 21  1  0  0  0  0
 20 22  1  0  0  0  0
 20 23  1  0  0  0  0
 23 24  4  0  0  0  0
 23 28  4  0  0  0  0
 24 25  4  0  0  0  0
 24 30  1  0  0  0  0
 25 26  4  0  0  0  0
 25 29  1  0  0  0  0
 26 27  4  0  0  0  0
 26 31  1  0  0  0  0
 27 28  4  0  0  0  0
 27 32  1  0  0  0  0
 28 33  1  0  0  0  0
 29 34  1  0  0  0  0
 29 35  1  0  0  0  0
M  END
> <BCLConfClusterSize>
1

> <ConfClashScore>
0 

> <ConfOneFourInteractionScore>
-0.96681 

> <ConfScore>
0.118404 

> <ConfScorePBest>
0.00410286 

> <ConfTolerance>
0.815349 

> <RosettaParamsInstructions>
M  ROOT 3
M  POLY_N_BB 3
M  POLY_CA_BB 4
M  POLY_C_BB 2
M  POLY_O_BB 5
M  POLY_IGNORE 9 10 11 12 13 14 15 16 17 18 
M  POLY_UPPER 6
M  POLY_LOWER 8
M  POLY_CHG 0
M  POLY_PROPERTIES ALPHA_AA L_AA PROTEIN AROMATIC POLYMER 
M  END

$$$$



 35 35  0  0  0  0  0  0  0  0999 V2000
   -1.5031    2.5244    3.1812 H   0  0  0  1  0  0  0  0  0  0  0  0
   -2.9336    1.2169    2.3443 C   0  0  0  1  0  0  0  0  0  0  0  0
   -0.5274    0.8505    2.4592 N   0  0  0  1  0  0  0  0  0  0  0  0
   -1.5632    1.8658    2.3400 C   0  0  0  1  0  0  0  0  0  0  0  0
   -3.2825    0.4558    1.4429 O   0  0  0  1  0  0  0  0  0  0  0  0
   -3.7225    1.5280    3.3841 N   0  0  0  1  0  0  0  0  0  0  0  0
   -0.4559    0.1639    1.7636 H   0  0  0  1  0  0  0  0  0  0  0  0
    0.3334    0.8218    3.4889 C   0  0  0  1  0  0  0  0  0  0  0  0
   -5.0825    1.0141    3.4489 C   0  0  0  1  0  0  0  0  0  0  0  0
    1.2886   -0.3556    3.5162 C   0  0  0  1  0  0  0  0  0  0  0  0
    0.3604    1.6848    4.3623 O   0  0  0  1  0  0  0  0  0  0  0  0
   -3.3822    2.1025    4.1014 H   0  0  0  1  0  0  0  0  0  0  0  0
   -5.0607   -0.0556    3.4451 H   0  0  0  1  0  0  0  0  0  0  0  0
   -5.6358    1.3623    2.6017 H   0  0  0  1  0  0  0  0  0  0  0  0
   -5.5510    1.3580    4.3473 H   0  0  0  1  0  0  0  0  0  0  0  0
    0.7519   -1.2450    3.7726 H   0  0  0  1  0  0  0  0  0  0  0  0
    2.0525   -0.1779    4.2441 H   0  0  0  1  0  0  0  0  0  0  0  0
    1.7354   -0.4745    2.5513 H   0  0  0  1  0  0  0  0  0  0  0  0
   -0.2996    7.6118    1.3050 F   0  0  0  1  0  0  0  0  0  0  0  0
   -1.6178    7.7013    1.1198 C   0  0  0  1  0  0  0  0  0  0  0  0
   -2.0919    8.4685    2.1027 F   0  0  0  1  0  0  0  0  0  0  0  0
   -1.7688    8.4248    0.0097 F   0  0  0  1  0  0  0  0  0  0  0  0
   -2.3021    6.3579    1.0271 C   0  0  0  1  0  0  0  0  0  0  0  0
   -1.5554    5.1965    1.0879 C   0  0  0  1  0  0  0  0  0  0  0  0
   -2.1840    3.9636    1.0082 C   0  0  0  1  0  0  0  0  0  0  0  0
   -3.5568    3.8958    0.8624 C   0  0  0  1  0  0  0  0  0  0  0  0
   -4.3055    5.0608    0.8014 C   0  0  0  1  0  0  0  0  0  0  0  0
   -3.6789    6.2901    0.8809 C   0  0  0  1  0  0  0  0  0  0  0  0
   -1.3686    2.6942    1.0805 C   0  0  0  1  0  0  0  0  0  0  0  0
   -0.5221    5.2475    1.1935 H   0  0  0  1  0  0  0  0  0  0  0  0
   -4.0279    2.9708    0.7986 H   0  0  0  1  0  0  0  0  0  0  0  0
   -5.3389    5.0098    0.6958 H   0  0  0  1  0  0  0  0  0  0  0  0
   -4.2403    7.1642    0.8311 H   0  0  0  1  0  0  0  0  0  0  0  0
   -1.6311    2.0850    0.2409 H   0  0  0  1  0  0  0  0  0  0  0  0
   -0.3346    2.9621    1.0181 H   0  0  0  1  0  0  0  0  0  0  0  0
  1  4  1  0  0  0  0
  2  4  1  0  0  0  0
  2  5  2  0  0  0  0
  2  6  1  0  0  0  0
  3  4  1  0  0  0  0
  3  7  1  0  0  0  0
  3  8  1  0  0  0  0
  4 29  1  0  0  0  0
  6  9  1  0  0  0  0
  6 12  1  0  0  0  0
  8 10  1  0  0  0  0
  8 11  2  0  0  0  0
  9 13  1  0  0  0  0
  9 14  1  0  0  0  0
  9 15  1  0  0  0  0
 10 16  1  0  0  0  0
 10 17  1  0  0  0  0
 10 18  1  0  0  0  0
 19 20  1  0  0  0  0
 20 21  1  0  0  0  0
 20 22  1  0  0  0  0
 20 23  1  0  0  0  0
 23 24  4  0  0  0  0
 23 28  4  0  0  0  0
 24 25  4  0  0  0  0
 24 30  1  0  0  0  0
 25 26  4  0  0  0  0
 25 29  1  0  0  0  0
 26 27  4  0  0  0  0
 26 31  1  0  0  0  0
 27 28  4  0  0  0  0
 27 32  1  0  0  0  0
 28 33  1  0  0  0  0
 29 34  1  0  0  0  0
 29 35  1  0  0  0  0
M  END
> <BCLConfClusterSize>
1

> <ConfClashScore>
0 

> <ConfOneFourInteractionScore>
-0.982823 

> <ConfScore>
0.118521 

> <ConfScorePBest>
0.00407438 

> <ConfTolerance>
0.545389 

> <RosettaParamsInstructions>
M  ROOT 3
M  POLY_N_BB 3
M  POLY_CA_BB 4
M  POLY_C_BB 2
M  POLY_O_BB 5
M  POLY_IGNORE 9 10 11 12 13 14 15 16 17 18 
M  POLY_UPPER 6
M  POLY_LOWER 8
M  POLY_CHG 0
M  POLY_PROPERTIES ALPHA_AA L_AA PROTEIN AROMATIC POLYMER 
M  END

$$$$



 35 35  0  0  0  0  0  0  0  0999 V2000
   -1.4485    2.4888   -0.8693 H   0  0  0  1  0  0  0  0  0  0  0  0
    0.5702    2.8363   -0.3903 C   0  0  0  1  0  0  0  0  0  0  0  0
   -0.6344    0.7631   -0.0926 N   0  0  0  1  0  0  0  0  0  0  0  0
   -0.7769    2.2114   -0.0838 C   0  0  0  1  0  0  0  0  0  0  0  0
    0.6541    3.9349   -0.9141 O   0  0  0  1  0  0  0  0  0  0  0  0
    1.6433    2.1052   -0.0494 N   0  0  0  1  0  0  0  0  0  0  0  0
   -0.8256    0.2641    0.7288 H   0  0  0  1  0  0  0  0  0  0  0  0
   -0.2502    0.0870   -1.1869 C   0  0  0  1  0  0  0  0  0  0  0  0
    3.0018    2.5311   -0.3510 C   0  0  0  1  0  0  0  0  0  0  0  0
   -0.1032   -1.4125   -1.0168 C   0  0  0  1  0  0  0  0  0  0  0  0
   -0.0276    0.6311   -2.2652 O   0  0  0  1  0  0  0  0  0  0  0  0
    1.5071    1.2552    0.4189 H   0  0  0  1  0  0  0  0  0  0  0  0
    3.0819    3.5898   -0.2184 H   0  0  0  1  0  0  0  0  0  0  0  0
    3.2374    2.2799   -1.3641 H   0  0  0  1  0  0  0  0  0  0  0  0
    3.6848    2.0367    0.3077 H   0  0  0  1  0  0  0  0  0  0  0  0
    0.2881   -1.8374   -1.9175 H   0  0  0  1  0  0  0  0  0  0  0  0
   -1.0599   -1.8428   -0.8061 H   0  0  0  1  0  0  0  0  0  0  0  0
    0.5660   -1.6154   -0.2069 H   0  0  0  1  0  0  0  0  0  0  0  0
   -2.0101    8.5272    0.1444 F   0  0  0  1  0  0  0  0  0  0  0  0
   -1.6186    7.7116    1.1250 C   0  0  0  1  0  0  0  0  0  0  0  0
   -0.2946    7.5941    1.0130 F   0  0  0  1  0  0  0  0  0  0  0  0
   -1.8644    8.3356    2.2778 F   0  0  0  1  0  0  0  0  0  0  0  0
   -2.3032    6.3623    1.0275 C   0  0  0  1  0  0  0  0  0  0  0  0
   -1.5654    5.2015    1.1635 C   0  0  0  1  0  0  0  0  0  0  0  0
   -2.1920    3.9679    1.0797 C   0  0  0  1  0  0  0  0  0  0  0  0
   -3.5539    3.8987    0.8547 C   0  0  0  1  0  0  0  0  0  0  0  0
   -4.2941    5.0628    0.7182 C   0  0  0  1  0  0  0  0  0  0  0  0
   -3.6691    6.2927    0.8018 C   0  0  0  1  0  0  0  0  0  0  0  0
   -1.3866    2.6995    1.2342 C   0  0  0  1  0  0  0  0  0  0  0  0
   -0.5399    5.2536    1.3289 H   0  0  0  1  0  0  0  0  0  0  0  0
   -4.0234    2.9732    0.7878 H   0  0  0  1  0  0  0  0  0  0  0  0
   -5.3195    5.0106    0.5528 H   0  0  0  1  0  0  0  0  0  0  0  0
   -4.2237    7.1660    0.6954 H   0  0  0  1  0  0  0  0  0  0  0  0
   -0.5937    2.8821    1.9292 H   0  0  0  1  0  0  0  0  0  0  0  0
   -2.0279    1.9334    1.6172 H   0  0  0  1  0  0  0  0  0  0  0  0
  1  4  1  0  0  0  0
  2  4  1  0  0  0  0
  2  5  2  0  0  0  0
  2  6  1  0  0  0  0
  3  4  1  0  0  0  0
  3  7  1  0  0  0  0
  3  8  1  0  0  0  0
  4 29  1  0  0  0  0
  6  9  1  0  0  0  0
  6 12  1  0  0  0  0
  8 10  1  0  0  0  0
  8 11  2  0  0  0  0
  9 13  1  0  0  0  0
  9 14  1  0  0  0  0
  9 15  1  0  0  0  0
 10 16  1  0  0  0  0
 10 17  1  0  0  0  0
 10 18  1  0  0  0  0
 19 20  1  0  0  0  0
 20 21  1  0  0  0  0
 20 22  1  0  0  0  0
 20 23  1  0  0  0  0
 23 24  4  0  0  0  0
 23 28  4  0  0  0  0
 24 25  4  0  0  0  0
 24 30  1  0  0  0  0
 25 26  4  0  0  0  0
 25 29  1  0  0  0  0
 26 27  4  0  0  0  0
 26 31  1  0  0  0  0
 27 28  4  0  0  0  0
 27 32  1  0  0  0  0
 28 33  1  0  0  0  0
 29 34  1  0  0  0  0
 29 35  1  0  0  0  0
M  END
> <BCLConfClusterSize>
1

> <ConfClashScore>
0 

> <ConfOneFourInteractionScore>
-0.940901 

> <ConfScore>
0.119782 

> <ConfScorePBest>
0.00404589 

> <ConfTolerance>
0.720587 

> <RosettaParamsInstructions>
M  ROOT 3
M  POLY_N_BB 3
M  POLY_CA_BB 4
M  POLY_C_BB 2
M  POLY_O_BB 5
M  POLY_IGNORE 9 10 11 12 13 14 15 16 17 18 
M  POLY_UPPER 6
M  POLY_LOWER 8
M  POLY_CHG 0
M  POLY_PROPERTIES ALPHA_AA L_AA PROTEIN AROMATIC POLYMER 
M  END

$$$$



 35 35  0  0  0  0  0  0  0  0999 V2000
    0.1475    1.5181    0.5698 H   0  0  0  1  0  0  0  0  0  0  0  0
   -0.6689    2.5471   -1.0686 C   0  0  0  1  0  0  0  0  0  0  0  0
    0.8523    3.4417    0.6452 N   0  0  0  1  0  0  0  0  0  0  0  0
   -0.2305    2.5030    0.3911 C   0  0  0  1  0  0  0  0  0  0  0  0
   -1.2134    1.5810   -1.5964 O   0  0  0  1  0  0  0  0  0  0  0  0
   -0.5072    3.7180   -1.7035 N   0  0  0  1  0  0  0  0  0  0  0  0
    0.7989    4.0549    1.4078 H   0  0  0  1  0  0  0  0  0  0  0  0
    1.9293    3.4694   -0.1668 C   0  0  0  1  0  0  0  0  0  0  0  0
   -0.8374    3.9611   -3.0998 C   0  0  0  1  0  0  0  0  0  0  0  0
    3.0046    4.5019    0.1104 C   0  0  0  1  0  0  0  0  0  0  0  0
    2.0382    2.6814   -1.1053 O   0  0  0  1  0  0  0  0  0  0  0  0
   -0.1390    4.4658   -1.1882 H   0  0  0  1  0  0  0  0  0  0  0  0
   -1.7186    3.4124   -3.3593 H   0  0  0  1  0  0  0  0  0  0  0  0
   -0.0245    3.6434   -3.7189 H   0  0  0  1  0  0  0  0  0  0  0  0
   -1.0119    5.0064   -3.2480 H   0  0  0  1  0  0  0  0  0  0  0  0
    2.7069    5.4458   -0.2964 H   0  0  0  1  0  0  0  0  0  0  0  0
    3.9223    4.1915   -0.3439 H   0  0  0  1  0  0  0  0  0  0  0  0
    3.1435    4.5971    1.1670 H   0  0  0  1  0  0  0  0  0  0  0  0
   -0.6266    7.7119    2.0084 F   0  0  0  1  0  0  0  0  0  0  0  0
   -1.6195    7.7047    1.1174 C   0  0  0  1  0  0  0  0  0  0  0  0
   -2.4554    8.6779    1.4828 F   0  0  0  1  0  0  0  0  0  0  0  0
   -1.0835    8.0883   -0.0420 F   0  0  0  1  0  0  0  0  0  0  0  0
   -2.3022    6.3607    1.0227 C   0  0  0  1  0  0  0  0  0  0  0  0
   -1.5741    5.2009    1.2096 C   0  0  0  1  0  0  0  0  0  0  0  0
   -2.2016    3.9676    1.1281 C   0  0  0  1  0  0  0  0  0  0  0  0
   -3.5546    3.8976    0.8545 C   0  0  0  1  0  0  0  0  0  0  0  0
   -4.2851    5.0607    0.6670 C   0  0  0  1  0  0  0  0  0  0  0  0
   -3.6591    6.2903    0.7484 C   0  0  0  1  0  0  0  0  0  0  0  0
   -1.4069    2.7004    1.3382 C   0  0  0  1  0  0  0  0  0  0  0  0
   -0.5552    5.2536    1.4115 H   0  0  0  1  0  0  0  0  0  0  0  0
   -4.0246    2.9721    0.7893 H   0  0  0  1  0  0  0  0  0  0  0  0
   -5.3039    5.0081    0.4651 H   0  0  0  1  0  0  0  0  0  0  0  0
   -4.2063    7.1628    0.6037 H   0  0  0  1  0  0  0  0  0  0  0  0
   -1.0272    2.7110    2.3385 H   0  0  0  1  0  0  0  0  0  0  0  0
   -2.0711    1.8703    1.2169 H   0  0  0  1  0  0  0  0  0  0  0  0
  1  4  1  0  0  0  0
  2  4  1  0  0  0  0
  2  5  2  0  0  0  0
  2  6  1  0  0  0  0
  3  4  1  0  0  0  0
  3  7  1  0  0  0  0
  3  8  1  0  0  0  0
  4 29  1  0  0  0  0
  6  9  1  0  0  0  0
  6 12  1  0  0  0  0
  8 10  1  0  0  0  0
  8 11  2  0  0  0  0
  9 13  1  0  0  0  0
  9 14  1  0  0  0  0
  9 15  1  0  0  0  0
 10 16  1  0  0  0  0
 10 17  1  0  0  0  0
 10 18  1  0  0  0  0
 19 20  1  0  0  0  0
 20 21  1  0  0  0  0
 20 22  1  0  0  0  0
 20 23  1  0  0  0  0
 23 24  4  0  0  0  0
 23 28  4  0  0  0  0
 24 25  4  0  0  0  0
 24 30  1  0  0  0  0
 25 26  4  0  0  0  0
 25 29  1  0  0  0  0
 26 27  4  0  0  0  0
 26 31  1  0  0  0  0
 27 28  4  0  0  0  0
 27 32  1  0  0  0  0
 28 33  1  0  0  0  0
 29 34  1  0  0  0  0
 29 35  1  0  0  0  0
M  END
> <BCLConfClusterSize>
1

> <ConfClashScore>
0 

> <ConfOneFourInteractionScore>
-0.957074 

> <ConfScore>
0.119969 

> <ConfScorePBest>
0.00401741 

> <ConfTolerance>
0.72438 

> <RosettaParamsInstructions>
M  ROOT 3
M  POLY_N_BB 3
M  POLY_CA_BB 4
M  POLY_C_BB 2
M  POLY_O_BB 5
M  POLY_IGNORE 9 10 11 12 13 14 15 16 17 18 
M  POLY_UPPER 6
M  POLY_LOWER 8
M  POLY_CHG 0
M  POLY_PROPERTIES ALPHA_AA L_AA PROTEIN AROMATIC POLYMER 
M  END

$$$$



 35 35  0  0  0  0  0  0  0  0999 V2000
   -2.3213    1.8053    2.9805 H   0  0  0  1  0  0  0  0  0  0  0  0
   -0.3140    1.0957    2.8575 C   0  0  0  1  0  0  0  0  0  0  0  0
   -1.0490    3.3149    3.6250 N   0  0  0  1  0  0  0  0  0  0  0  0
   -1.3619    2.2089    2.7324 C   0  0  0  1  0  0  0  0  0  0  0  0
   -0.4043    0.0873    2.1585 O   0  0  0  1  0  0  0  0  0  0  0  0
    0.7175    1.3265    3.6840 N   0  0  0  1  0  0  0  0  0  0  0  0
   -0.1671    3.7403    3.5860 H   0  0  0  1  0  0  0  0  0  0  0  0
   -1.9694    3.7551    4.5050 C   0  0  0  1  0  0  0  0  0  0  0  0
    1.8194    0.3876    3.8331 C   0  0  0  1  0  0  0  0  0  0  0  0
   -1.5678    4.9627    5.3294 C   0  0  0  1  0  0  0  0  0  0  0  0
   -3.0704    3.2242    4.6448 O   0  0  0  1  0  0  0  0  0  0  0  0
    0.7293    2.1561    4.2055 H   0  0  0  1  0  0  0  0  0  0  0  0
    2.5042    0.5086    3.0199 H   0  0  0  1  0  0  0  0  0  0  0  0
    1.4383   -0.6123    3.8322 H   0  0  0  1  0  0  0  0  0  0  0  0
    2.3258    0.5760    4.7566 H   0  0  0  1  0  0  0  0  0  0  0  0
   -0.5071    4.9623    5.4702 H   0  0  0  1  0  0  0  0  0  0  0  0
   -2.0538    4.9217    6.2818 H   0  0  0  1  0  0  0  0  0  0  0  0
   -1.8591    5.8563    4.8179 H   0  0  0  1  0  0  0  0  0  0  0  0
   -2.1196    8.5950    0.2537 F   0  0  0  1  0  0  0  0  0  0  0  0
   -1.6188    7.7079    1.1152 C   0  0  0  1  0  0  0  0  0  0  0  0
   -0.3121    7.6344    0.8571 F   0  0  0  1  0  0  0  0  0  0  0  0
   -1.7303    8.2582    2.3249 F   0  0  0  1  0  0  0  0  0  0  0  0
   -2.3047    6.3605    1.0252 C   0  0  0  1  0  0  0  0  0  0  0  0
   -1.5710    5.1966    1.1935 C   0  0  0  1  0  0  0  0  0  0  0  0
   -2.1959    3.9668    1.1061 C   0  0  0  1  0  0  0  0  0  0  0  0
   -3.5575    3.8977    0.8553 C   0  0  0  1  0  0  0  0  0  0  0  0
   -4.2891    5.0582    0.6875 C   0  0  0  1  0  0  0  0  0  0  0  0
   -3.6622    6.2914    0.7752 C   0  0  0  1  0  0  0  0  0  0  0  0
   -1.3952    2.6984    1.2837 C   0  0  0  1  0  0  0  0  0  0  0  0
   -0.5502    5.2486    1.3856 H   0  0  0  1  0  0  0  0  0  0  0  0
   -4.0285    2.9726    0.7935 H   0  0  0  1  0  0  0  0  0  0  0  0
   -5.3099    5.0062    0.4953 H   0  0  0  1  0  0  0  0  0  0  0  0
   -4.2135    7.1648    0.6529 H   0  0  0  1  0  0  0  0  0  0  0  0
   -1.8302    1.9331    0.6755 H   0  0  0  1  0  0  0  0  0  0  0  0
   -0.3910    2.8818    0.9630 H   0  0  0  1  0  0  0  0  0  0  0  0
  1  4  1  0  0  0  0
  2  4  1  0  0  0  0
  2  5  2  0  0  0  0
  2  6  1  0  0  0  0
  3  4  1  0  0  0  0
  3  7  1  0  0  0  0
  3  8  1  0  0  0  0
  4 29  1  0  0  0  0
  6  9  1  0  0  0  0
  6 12  1  0  0  0  0
  8 10  1  0  0  0  0
  8 11  2  0  0  0  0
  9 13  1  0  0  0  0
  9 14  1  0  0  0  0
  9 15  1  0  0  0  0
 10 16  1  0  0  0  0
 10 17  1  0  0  0  0
 10 18  1  0  0  0  0
 19 20  1  0  0  0  0
 20 21  1  0  0  0  0
 20 22  1  0  0  0  0
 20 23  1  0  0  0  0
 23 24  4  0  0  0  0
 23 28  4  0  0  0  0
 24 25  4  0  0  0  0
 24 30  1  0  0  0  0
 25 26  4  0  0  0  0
 25 29  1  0  0  0  0
 26 27  4  0  0  0  0
 26 31  1  0  0  0  0
 27 28  4  0  0  0  0
 27 32  1  0  0  0  0
 28 33  1  0  0  0  0
 29 34  1  0  0  0  0
 29 35  1  0  0  0  0
M  END
> <BCLConfClusterSize>
1

> <ConfClashScore>
0 

> <ConfOneFourInteractionScore>
-0.932828 

> <ConfScore>
0.123841 

> <ConfScorePBest>
0.00398893 

> <ConfTolerance>
0.552195 

> <RosettaParamsInstructions>
M  ROOT 3
M  POLY_N_BB 3
M  POLY_CA_BB 4
M  POLY_C_BB 2
M  POLY_O_BB 5
M  POLY_IGNORE 9 10 11 12 13 14 15 16 17 18 
M  POLY_UPPER 6
M  POLY_LOWER 8
M  POLY_CHG 0
M  POLY_PROPERTIES ALPHA_AA L_AA PROTEIN AROMATIC POLYMER 
M  END

$$$$



 35 35  0  0  0  0  0  0  0  0999 V2000
   -2.5619    1.6491    2.6812 H   0  0  0  1  0  0  0  0  0  0  0  0
   -0.6106    0.9308    2.9575 C   0  0  0  1  0  0  0  0  0  0  0  0
   -1.4911    3.0997    3.6957 N   0  0  0  1  0  0  0  0  0  0  0  0
   -1.5746    2.0603    2.6508 C   0  0  0  1  0  0  0  0  0  0  0  0
    0.0620    0.4155    2.0654 O   0  0  0  1  0  0  0  0  0  0  0  0
   -0.5138    0.5114    4.2290 N   0  0  0  1  0  0  0  0  0  0  0  0
   -2.3131    3.3830    4.1478 H   0  0  0  1  0  0  0  0  0  0  0  0
   -0.3224    3.6734    4.0499 C   0  0  0  1  0  0  0  0  0  0  0  0
    0.3755   -0.5429    4.6932 C   0  0  0  1  0  0  0  0  0  0  0  0
   -0.3436    4.7104    5.1559 C   0  0  0  1  0  0  0  0  0  0  0  0
    0.7309    3.3658    3.4934 O   0  0  0  1  0  0  0  0  0  0  0  0
   -1.0850    0.9482    4.8949 H   0  0  0  1  0  0  0  0  0  0  0  0
    0.5170   -0.4513    5.7499 H   0  0  0  1  0  0  0  0  0  0  0  0
    1.3201   -0.4560    4.1983 H   0  0  0  1  0  0  0  0  0  0  0  0
   -0.0568   -1.4965    4.4729 H   0  0  0  1  0  0  0  0  0  0  0  0
    0.5425    5.3077    5.1026 H   0  0  0  1  0  0  0  0  0  0  0  0
   -0.3852    4.2183    6.1051 H   0  0  0  1  0  0  0  0  0  0  0  0
   -1.2033    5.3370    5.0405 H   0  0  0  1  0  0  0  0  0  0  0  0
   -0.5244    7.6672    1.8860 F   0  0  0  1  0  0  0  0  0  0  0  0
   -1.6086    7.7243    1.1106 C   0  0  0  1  0  0  0  0  0  0  0  0
   -2.4107    8.6437    1.6496 F   0  0  0  1  0  0  0  0  0  0  0  0
   -1.2187    8.1870   -0.0779 F   0  0  0  1  0  0  0  0  0  0  0  0
   -2.2930    6.3807    1.0219 C   0  0  0  1  0  0  0  0  0  0  0  0
   -1.5779    5.1987    1.1825 C   0  0  0  1  0  0  0  0  0  0  0  0
   -2.2030    3.9635    1.0972 C   0  0  0  1  0  0  0  0  0  0  0  0
   -3.5554    3.8903    0.8541 C   0  0  0  1  0  0  0  0  0  0  0  0
   -4.2928    5.0549    0.7002 C   0  0  0  1  0  0  0  0  0  0  0  0
   -3.6609    6.2854    0.7767 C   0  0  0  1  0  0  0  0  0  0  0  0
   -1.3983    2.6972    1.2714 C   0  0  0  1  0  0  0  0  0  0  0  0
   -0.5559    5.2418    1.3698 H   0  0  0  1  0  0  0  0  0  0  0  0
   -4.0234    2.9641    0.7860 H   0  0  0  1  0  0  0  0  0  0  0  0
   -5.3172    5.0046    0.5279 H   0  0  0  1  0  0  0  0  0  0  0  0
   -4.2182    7.1541    0.6486 H   0  0  0  1  0  0  0  0  0  0  0  0
   -1.7079    1.9921    0.5285 H   0  0  0  1  0  0  0  0  0  0  0  0
   -0.3631    2.9299    1.1335 H   0  0  0  1  0  0  0  0  0  0  0  0
  1  4  1  0  0  0  0
  2  4  1  0  0  0  0
  2  5  2  0  0  0  0
  2  6  1  0  0  0  0
  3  4  1  0  0  0  0
  3  7  1  0  0  0  0
  3  8  1  0  0  0  0
  4 29  1  0  0  0  0
  6  9  1  0  0  0  0
  6 12  1  0  0  0  0
  8 10  1  0  0  0  0
  8 11  2  0  0  0  0
  9 13  1  0  0  0  0
  9 14  1  0  0  0  0
  9 15  1  0  0  0  0
 10 16  1  0  0  0  0
 10 17  1  0  0  0  0
 10 18  1  0  0  0  0
 19 20  1  0  0  0  0
 20 21  1  0  0  0  0
 20 22  1  0  0  0  0
 20 23  1  0  0  0  0
 23 24  4  0  0  0  0
 23 28  4  0  0  0  0
 24 25  4  0  0  0  0
 24 30  1  0  0  0  0
 25 26  4  0  0  0  0
 25 29  1  0  0  0  0
 26 27  4  0  0  0  0
 26 31  1  0  0  0  0
 27 28  4  0  0  0  0
 27 32  1  0  0  0  0
 28 33  1  0  0  0  0
 29 34  1  0  0  0  0
 29 35  1  0  0  0  0
M  END
> <BCLConfClusterSize>
1

> <ConfClashScore>
0 

> <ConfOneFourInteractionScore>
-0.976539 

> <ConfScore>
0.125384 

> <ConfScorePBest>
0.00396045 

> <ConfTolerance>
0.602605 

> <RosettaParamsInstructions>
M  ROOT 3
M  POLY_N_BB 3
M  POLY_CA_BB 4
M  POLY_C_BB 2
M  POLY_O_BB 5
M  POLY_IGNORE 9 10 11 12 13 14 15 16 17 18 
M  POLY_UPPER 6
M  POLY_LOWER 8
M  POLY_CHG 0
M  POLY_PROPERTIES ALPHA_AA L_AA PROTEIN AROMATIC POLYMER 
M  END

$$$$



 35 35  0  0  0  0  0  0  0  0999 V2000
   -2.4810    1.3683    0.0568 H   0  0  0  1  0  0  0  0  0  0  0  0
   -1.2858    2.4496   -1.2757 C   0  0  0  1  0  0  0  0  0  0  0  0
   -0.5770    0.6228    0.1585 N   0  0  0  1  0  0  0  0  0  0  0  0
   -1.4854    1.7600    0.0637 C   0  0  0  1  0  0  0  0  0  0  0  0
   -0.2028    2.9455   -1.5834 O   0  0  0  1  0  0  0  0  0  0  0  0
   -2.3530    2.4770   -2.0791 N   0  0  0  1  0  0  0  0  0  0  0  0
    0.0004    0.5431    0.9464 H   0  0  0  1  0  0  0  0  0  0  0  0
   -0.5041   -0.3220   -0.7993 C   0  0  0  1  0  0  0  0  0  0  0  0
   -2.3811    3.0716   -3.4070 C   0  0  0  1  0  0  0  0  0  0  0  0
    0.5802   -1.3536   -0.5565 C   0  0  0  1  0  0  0  0  0  0  0  0
   -1.2262   -0.3722   -1.7814 O   0  0  0  1  0  0  0  0  0  0  0  0
   -3.1792    2.0658   -1.7492 H   0  0  0  1  0  0  0  0  0  0  0  0
   -3.3961    3.2320   -3.7052 H   0  0  0  1  0  0  0  0  0  0  0  0
   -1.9052    2.4126   -4.1028 H   0  0  0  1  0  0  0  0  0  0  0  0
   -1.8626    4.0075   -3.3896 H   0  0  0  1  0  0  0  0  0  0  0  0
    1.5391   -0.8806   -0.5984 H   0  0  0  1  0  0  0  0  0  0  0  0
    0.5243   -2.1132   -1.3081 H   0  0  0  1  0  0  0  0  0  0  0  0
    0.4425   -1.7951    0.4084 H   0  0  0  1  0  0  0  0  0  0  0  0
   -0.5150    7.6871    1.8764 F   0  0  0  1  0  0  0  0  0  0  0  0
   -1.6104    7.7217    1.1156 C   0  0  0  1  0  0  0  0  0  0  0  0
   -2.3982    8.6622    1.6390 F   0  0  0  1  0  0  0  0  0  0  0  0
   -1.2232    8.1791   -0.0759 F   0  0  0  1  0  0  0  0  0  0  0  0
   -2.2947    6.3781    1.0251 C   0  0  0  1  0  0  0  0  0  0  0  0
   -1.5796    5.1960    1.1850 C   0  0  0  1  0  0  0  0  0  0  0  0
   -2.2045    3.9609    1.0980 C   0  0  0  1  0  0  0  0  0  0  0  0
   -3.5567    3.8878    0.8540 C   0  0  0  1  0  0  0  0  0  0  0  0
   -4.2941    5.0525    0.7007 C   0  0  0  1  0  0  0  0  0  0  0  0
   -3.6624    6.2830    0.7788 C   0  0  0  1  0  0  0  0  0  0  0  0
   -1.3998    2.6945    1.2715 C   0  0  0  1  0  0  0  0  0  0  0  0
   -0.5576    5.2390    1.3731 H   0  0  0  1  0  0  0  0  0  0  0  0
   -4.0246    2.9616    0.7846 H   0  0  0  1  0  0  0  0  0  0  0  0
   -5.3183    5.0023    0.5276 H   0  0  0  1  0  0  0  0  0  0  0  0
   -4.2196    7.1518    0.6512 H   0  0  0  1  0  0  0  0  0  0  0  0
   -0.3748    2.9606    1.4244 H   0  0  0  1  0  0  0  0  0  0  0  0
   -1.7657    2.1736    2.1317 H   0  0  0  1  0  0  0  0  0  0  0  0
  1  4  1  0  0  0  0
  2  4  1  0  0  0  0
  2  5  2  0  0  0  0
  2  6  1  0  0  0  0
  3  4  1  0  0  0  0
  3  7  1  0  0  0  0
  3  8  1  0  0  0  0
  4 29  1  0  0  0  0
  6  9  1  0  0  0  0
  6 12  1  0  0  0  0
  8 10  1  0  0  0  0
  8 11  2  0  0  0  0
  9 13  1  0  0  0  0
  9 14  1  0  0  0  0
  9 15  1  0  0  0  0
 10 16  1  0  0  0  0
 10 17  1  0  0  0  0
 10 18  1  0  0  0  0
 19 20  1  0  0  0  0
 20 21  1  0  0  0  0
 20 22  1  0  0  0  0
 20 23  1  0  0  0  0
 23 24  4  0  0  0  0
 23 28  4  0  0  0  0
 24 25  4  0  0  0  0
 24 30  1  0  0  0  0
 25 26  4  0  0  0  0
 25 29  1  0  0  0  0
 26 27  4  0  0  0  0
 26 31  1  0  0  0  0
 27 28  4  0  0  0  0
 27 32  1  0  0  0  0
 28 33  1  0  0  0  0
 29 34  1  0  0  0  0
 29 35  1  0  0  0  0
M  END
> <BCLConfClusterSize>
1

> <ConfClashScore>
0 

> <ConfOneFourInteractionScore>
-0.985807 

> <ConfScore>
0.127458 

> <ConfScorePBest>
0.00393197 

> <ConfTolerance>
0.526775 

> <RosettaParamsInstructions>
M  ROOT 3
M  POLY_N_BB 3
M  POLY_CA_BB 4
M  POLY_C_BB 2
M  POLY_O_BB 5
M  POLY_IGNORE 9 10 11 12 13 14 15 16 17 18 
M  POLY_UPPER 6
M  POLY_LOWER 8
M  POLY_CHG 0
M  POLY_PROPERTIES ALPHA_AA L_AA PROTEIN AROMATIC POLYMER 
M  END

$$$$



 35 35  0  0  0  0  0  0  0  0999 V2000
   -0.9240    2.5314   -0.7604 H   0  0  0  1  0  0  0  0  0  0  0  0
    0.6046    3.6638    0.1549 C   0  0  0  1  0  0  0  0  0  0  0  0
    0.3131    1.2483    0.2876 N   0  0  0  1  0  0  0  0  0  0  0  0
   -0.3881    2.5177    0.1657 C   0  0  0  1  0  0  0  0  0  0  0  0
    1.2905    3.9165    1.1316 O   0  0  0  1  0  0  0  0  0  0  0  0
    0.6717    4.3664   -0.9871 N   0  0  0  1  0  0  0  0  0  0  0  0
    0.8728    1.0910    1.0765 H   0  0  0  1  0  0  0  0  0  0  0  0
    0.2204    0.2899   -0.6387 C   0  0  0  1  0  0  0  0  0  0  0  0
    1.6071    5.4745   -1.1093 C   0  0  0  1  0  0  0  0  0  0  0  0
    1.1787   -0.9010   -0.5106 C   0  0  0  1  0  0  0  0  0  0  0  0
   -0.5276    0.3780   -1.5985 O   0  0  0  1  0  0  0  0  0  0  0  0
    0.0896    4.1326   -1.7400 H   0  0  0  1  0  0  0  0  0  0  0  0
    1.3666    6.2263   -0.3869 H   0  0  0  1  0  0  0  0  0  0  0  0
    1.5400    5.8908   -2.0927 H   0  0  0  1  0  0  0  0  0  0  0  0
    2.6025    5.1212   -0.9381 H   0  0  0  1  0  0  0  0  0  0  0  0
    2.0780   -0.5851   -0.0245 H   0  0  0  1  0  0  0  0  0  0  0  0
    1.4131   -1.2762   -1.4849 H   0  0  0  1  0  0  0  0  0  0  0  0
    0.7134   -1.6723    0.0668 H   0  0  0  1  0  0  0  0  0  0  0  0
   -0.5900    7.7225    1.9256 F   0  0  0  1  0  0  0  0  0  0  0  0
   -1.6189    7.6995    1.1165 C   0  0  0  1  0  0  0  0  0  0  0  0
   -2.4010    8.6727    1.5372 F   0  0  0  1  0  0  0  0  0  0  0  0
   -1.1613    8.1384   -0.0357 F   0  0  0  1  0  0  0  0  0  0  0  0
   -2.3042    6.3565    1.0262 C   0  0  0  1  0  0  0  0  0  0  0  0
   -1.5732    5.1920    1.2025 C   0  0  0  1  0  0  0  0  0  0  0  0
   -2.1991    3.9629    1.1146 C   0  0  0  1  0  0  0  0  0  0  0  0
   -3.5591    3.8948    0.8553 C   0  0  0  1  0  0  0  0  0  0  0  0
   -4.2882    5.0558    0.6794 C   0  0  0  1  0  0  0  0  0  0  0  0
   -3.6603    6.2885    0.7676 C   0  0  0  1  0  0  0  0  0  0  0  0
   -1.4013    2.6939    1.3010 C   0  0  0  1  0  0  0  0  0  0  0  0
   -0.5536    5.2432    1.4011 H   0  0  0  1  0  0  0  0  0  0  0  0
   -4.0309    2.9701    0.7931 H   0  0  0  1  0  0  0  0  0  0  0  0
   -5.3078    5.0045    0.4809 H   0  0  0  1  0  0  0  0  0  0  0  0
   -4.2096    7.1622    0.6393 H   0  0  0  1  0  0  0  0  0  0  0  0
   -0.8786    2.7420    2.2334 H   0  0  0  1  0  0  0  0  0  0  0  0
   -2.0689    1.8578    1.3085 H   0  0  0  1  0  0  0  0  0  0  0  0
  1  4  1  0  0  0  0
  2  4  1  0  0  0  0
  2  5  2  0  0  0  0
  2  6  1  0  0  0  0
  3  4  1  0  0  0  0
  3  7  1  0  0  0  0
  3  8  1  0  0  0  0
  4 29  1  0  0  0  0
  6  9  1  0  0  0  0
  6 12  1  0  0  0  0
  8 10  1  0  0  0  0
  8 11  2  0  0  0  0
  9 13  1  0  0  0  0
  9 14  1  0  0  0  0
  9 15  1  0  0  0  0
 10 16  1  0  0  0  0
 10 17  1  0  0  0  0
 10 18  1  0  0  0  0
 19 20  1  0  0  0  0
 20 21  1  0  0  0  0
 20 22  1  0  0  0  0
 20 23  1  0  0  0  0
 23 24  4  0  0  0  0
 23 28  4  0  0  0  0
 24 25  4  0  0  0  0
 24 30  1  0  0  0  0
 25 26  4  0  0  0  0
 25 29  1  0  0  0  0
 26 27  4  0  0  0  0
 26 31  1  0  0  0  0
 27 28  4  0  0  0  0
 27 32  1  0  0  0  0
 28 33  1  0  0  0  0
 29 34  1  0  0  0  0
 29 35  1  0  0  0  0
M  END
> <BCLConfClusterSize>
1

> <ConfClashScore>
0 

> <ConfOneFourInteractionScore>
-0.97615 

> <ConfScore>
0.129887 

> <ConfScorePBest>
0.00390349 

> <ConfTolerance>
0.595316 

> <RosettaParamsInstructions>
M  ROOT 3
M  POLY_N_BB 3
M  POLY_CA_BB 4
M  POLY_C_BB 2
M  POLY_O_BB 5
M  POLY_IGNORE 9 10 11 12 13 14 15 16 17 18 
M  POLY_UPPER 6
M  POLY_LOWER 8
M  POLY_CHG 0
M  POLY_PROPERTIES ALPHA_AA L_AA PROTEIN AROMATIC POLYMER 
M  END

$$$$



 35 35  0  0  0  0  0  0  0  0999 V2000
    0.1051    3.4805    2.4217 H   0  0  0  1  0  0  0  0  0  0  0  0
    0.7283    1.5388    1.8485 C   0  0  0  1  0  0  0  0  0  0  0  0
    0.8248    3.5651    0.4847 N   0  0  0  1  0  0  0  0  0  0  0  0
    0.0808    2.8840    1.5337 C   0  0  0  1  0  0  0  0  0  0  0  0
    1.4716    0.9851    1.0427 O   0  0  0  1  0  0  0  0  0  0  0  0
    0.4326    1.0176    3.0427 N   0  0  0  1  0  0  0  0  0  0  0  0
    0.5070    3.4987   -0.4399 H   0  0  0  1  0  0  0  0  0  0  0  0
    1.9260    4.2779    0.7385 C   0  0  0  1  0  0  0  0  0  0  0  0
    1.0641   -0.1959    3.5392 C   0  0  0  1  0  0  0  0  0  0  0  0
    2.5975    4.9047   -0.4679 C   0  0  0  1  0  0  0  0  0  0  0  0
    2.3802    4.4270    1.8698 O   0  0  0  1  0  0  0  0  0  0  0  0
   -0.2326    1.4682    3.6038 H   0  0  0  1  0  0  0  0  0  0  0  0
    0.7996   -1.0196    2.9094 H   0  0  0  1  0  0  0  0  0  0  0  0
    0.7301   -0.3888    4.5372 H   0  0  0  1  0  0  0  0  0  0  0  0
    2.1268   -0.0717    3.5359 H   0  0  0  1  0  0  0  0  0  0  0  0
    2.9420    4.1340   -1.1255 H   0  0  0  1  0  0  0  0  0  0  0  0
    3.4288    5.4963   -0.1458 H   0  0  0  1  0  0  0  0  0  0  0  0
    1.8955    5.5259   -0.9839 H   0  0  0  1  0  0  0  0  0  0  0  0
   -0.3406    7.6074    1.4875 F   0  0  0  1  0  0  0  0  0  0  0  0
   -1.6177    7.7076    1.1150 C   0  0  0  1  0  0  0  0  0  0  0  0
   -2.2012    8.5186    1.9988 F   0  0  0  1  0  0  0  0  0  0  0  0
   -1.6174    8.3607   -0.0479 F   0  0  0  1  0  0  0  0  0  0  0  0
   -2.3030    6.3597    1.0233 C   0  0  0  1  0  0  0  0  0  0  0  0
   -1.5585    5.1985    1.1105 C   0  0  0  1  0  0  0  0  0  0  0  0
   -2.1863    3.9650    1.0320 C   0  0  0  1  0  0  0  0  0  0  0  0
   -3.5561    3.8966    0.8613 C   0  0  0  1  0  0  0  0  0  0  0  0
   -4.3029    5.0611    0.7738 C   0  0  0  1  0  0  0  0  0  0  0  0
   -3.6769    6.2908    0.8521 C   0  0  0  1  0  0  0  0  0  0  0  0
   -1.3733    2.6960    1.1332 C   0  0  0  1  0  0  0  0  0  0  0  0
   -0.5273    5.2501    1.2350 H   0  0  0  1  0  0  0  0  0  0  0  0
   -4.0266    2.9712    0.7983 H   0  0  0  1  0  0  0  0  0  0  0  0
   -5.3341    5.0095    0.6493 H   0  0  0  1  0  0  0  0  0  0  0  0
   -4.2366    7.1645    0.7824 H   0  0  0  1  0  0  0  0  0  0  0  0
   -1.8372    2.0640    1.8613 H   0  0  0  1  0  0  0  0  0  0  0  0
   -1.3929    2.2145    0.1779 H   0  0  0  1  0  0  0  0  0  0  0  0
  1  4  1  0  0  0  0
  2  4  1  0  0  0  0
  2  5  2  0  0  0  0
  2  6  1  0  0  0  0
  3  4  1  0  0  0  0
  3  7  1  0  0  0  0
  3  8  1  0  0  0  0
  4 29  1  0  0  0  0
  6  9  1  0  0  0  0
  6 12  1  0  0  0  0
  8 10  1  0  0  0  0
  8 11  2  0  0  0  0
  9 13  1  0  0  0  0
  9 14  1  0  0  0  0
  9 15  1  0  0  0  0
 10 16  1  0  0  0  0
 10 17  1  0  0  0  0
 10 18  1  0  0  0  0
 19 20  1  0  0  0  0
 20 21  1  0  0  0  0
 20 22  1  0  0  0  0
 20 23  1  0  0  0  0
 23 24  4  0  0  0  0
 23 28  4  0  0  0  0
 24 25  4  0  0  0  0
 24 30  1  0  0  0  0
 25 26  4  0  0  0  0
 25 29  1  0  0  0  0
 26 27  4  0  0  0  0
 26 31  1  0  0  0  0
 27 28  4  0  0  0  0
 27 32  1  0  0  0  0
 28 33  1  0  0  0  0
 29 34  1  0  0  0  0
 29 35  1  0  0  0  0
M  END
> <BCLConfClusterSize>
1

> <ConfClashScore>
0 

> <ConfOneFourInteractionScore>
-0.97449 

> <ConfScore>
0.130651 

> <ConfScorePBest>
0.00387501 

> <ConfTolerance>
0.814864 

> <RosettaParamsInstructions>
M  ROOT 3
M  POLY_N_BB 3
M  POLY_CA_BB 4
M  POLY_C_BB 2
M  POLY_O_BB 5
M  POLY_IGNORE 9 10 11 12 13 14 15 16 17 18 
M  POLY_UPPER 6
M  POLY_LOWER 8
M  POLY_CHG 0
M  POLY_PROPERTIES ALPHA_AA L_AA PROTEIN AROMATIC POLYMER 
M  END

$$$$



 35 35  0  0  0  0  0  0  0  0999 V2000
   -2.9153    1.5355    0.4102 H   0  0  0  1  0  0  0  0  0  0  0  0
   -1.3615    0.2398    1.0024 C   0  0  0  1  0  0  0  0  0  0  0  0
   -3.0678    1.3005    2.4478 N   0  0  0  1  0  0  0  0  0  0  0  0
   -2.2656    1.4309    1.2539 C   0  0  0  1  0  0  0  0  0  0  0  0
   -0.4604    0.2912    0.1816 O   0  0  0  1  0  0  0  0  0  0  0  0
   -1.6210   -0.8544    1.7356 N   0  0  0  1  0  0  0  0  0  0  0  0
   -2.7978    1.7592    3.2707 H   0  0  0  1  0  0  0  0  0  0  0  0
   -4.1771    0.5561    2.4328 C   0  0  0  1  0  0  0  0  0  0  0  0
   -1.0305   -2.1340    1.3726 C   0  0  0  1  0  0  0  0  0  0  0  0
   -4.9537    0.5083    3.7291 C   0  0  0  1  0  0  0  0  0  0  0  0
   -4.5580   -0.0584    1.4373 O   0  0  0  1  0  0  0  0  0  0  0  0
   -2.2092   -0.7913    2.5168 H   0  0  0  1  0  0  0  0  0  0  0  0
   -0.6746   -2.0900    0.3645 H   0  0  0  1  0  0  0  0  0  0  0  0
   -1.7689   -2.9039    1.4566 H   0  0  0  1  0  0  0  0  0  0  0  0
   -0.2140   -2.3490    2.0298 H   0  0  0  1  0  0  0  0  0  0  0  0
   -5.7766   -0.1681    3.6278 H   0  0  0  1  0  0  0  0  0  0  0  0
   -5.3223    1.4859    3.9600 H   0  0  0  1  0  0  0  0  0  0  0  0
   -4.3119    0.1734    4.5170 H   0  0  0  1  0  0  0  0  0  0  0  0
   -0.6461    7.7209    2.0428 F   0  0  0  1  0  0  0  0  0  0  0  0
   -1.6084    7.7290    1.1188 C   0  0  0  1  0  0  0  0  0  0  0  0
   -2.4635    8.7030    1.4341 F   0  0  0  1  0  0  0  0  0  0  0  0
   -1.0402    8.0602   -0.0415 F   0  0  0  1  0  0  0  0  0  0  0  0
   -2.2940    6.3816    1.0261 C   0  0  0  1  0  0  0  0  0  0  0  0
   -1.5859    5.2008    1.2222 C   0  0  0  1  0  0  0  0  0  0  0  0
   -2.2102    3.9654    1.1337 C   0  0  0  1  0  0  0  0  0  0  0  0
   -3.5549    3.8909    0.8516 C   0  0  0  1  0  0  0  0  0  0  0  0
   -4.2855    5.0545    0.6617 C   0  0  0  1  0  0  0  0  0  0  0  0
   -3.6542    6.2850    0.7417 C   0  0  0  1  0  0  0  0  0  0  0  0
   -1.4131    2.7004    1.3471 C   0  0  0  1  0  0  0  0  0  0  0  0
   -0.5698    5.2449    1.4392 H   0  0  0  1  0  0  0  0  0  0  0  0
   -4.0222    2.9645    0.7810 H   0  0  0  1  0  0  0  0  0  0  0  0
   -5.3045    5.0034    0.4598 H   0  0  0  1  0  0  0  0  0  0  0  0
   -4.2060    7.1528    0.5866 H   0  0  0  1  0  0  0  0  0  0  0  0
   -0.6464    2.6512    0.6023 H   0  0  0  1  0  0  0  0  0  0  0  0
   -0.9656    2.7396    2.3182 H   0  0  0  1  0  0  0  0  0  0  0  0
  1  4  1  0  0  0  0
  2  4  1  0  0  0  0
  2  5  2  0  0  0  0
  2  6  1  0  0  0  0
  3  4  1  0  0  0  0
  3  7  1  0  0  0  0
  3  8  1  0  0  0  0
  4 29  1  0  0  0  0
  6  9  1  0  0  0  0
  6 12  1  0  0  0  0
  8 10  1  0  0  0  0
  8 11  2  0  0  0  0
  9 13  1  0  0  0  0
  9 14  1  0  0  0  0
  9 15  1  0  0  0  0
 10 16  1  0  0  0  0
 10 17  1  0  0  0  0
 10 18  1  0  0  0  0
 19 20  1  0  0  0  0
 20 21  1  0  0  0  0
 20 22  1  0  0  0  0
 20 23  1  0  0  0  0
 23 24  4  0  0  0  0
 23 28  4  0  0  0  0
 24 25  4  0  0  0  0
 24 30  1  0  0  0  0
 25 26  4  0  0  0  0
 25 29  1  0  0  0  0
 26 27  4  0  0  0  0
 26 31  1  0  0  0  0
 27 28  4  0  0  0  0
 27 32  1  0  0  0  0
 28 33  1  0  0  0  0
 29 34  1  0  0  0  0
 29 35  1  0  0  0  0
M  END
> <BCLConfClusterSize>
1

> <ConfClashScore>
0 

> <ConfOneFourInteractionScore>
-0.949001 

> <ConfScore>
0.134762 

> <ConfScorePBest>
0.00384653 

> <ConfTolerance>
0.902347 

> <RosettaParamsInstructions>
M  ROOT 3
M  POLY_N_BB 3
M  POLY_CA_BB 4
M  POLY_C_BB 2
M  POLY_O_BB 5
M  POLY_IGNORE 9 10 11 12 13 14 15 16 17 18 
M  POLY_UPPER 6
M  POLY_LOWER 8
M  POLY_CHG 0
M  POLY_PROPERTIES ALPHA_AA L_AA PROTEIN AROMATIC POLYMER 
M  END

$$$$



 35 35  0  0  0  0  0  0  0  0999 V2000
   -0.8165    3.0605    3.1253 H   0  0  0  1  0  0  0  0  0  0  0  0
   -2.4779    1.7726    3.1877 C   0  0  0  1  0  0  0  0  0  0  0  0
   -0.1445    1.1877    2.6030 N   0  0  0  1  0  0  0  0  0  0  0  0
   -1.1680    2.2215    2.5618 C   0  0  0  1  0  0  0  0  0  0  0  0
   -2.8794    0.6273    3.0632 O   0  0  0  1  0  0  0  0  0  0  0  0
   -3.1433    2.7050    3.8701 N   0  0  0  1  0  0  0  0  0  0  0  0
   -0.4095    0.2542    2.4663 H   0  0  0  1  0  0  0  0  0  0  0  0
    1.1437    1.4671    2.8206 C   0  0  0  1  0  0  0  0  0  0  0  0
   -4.4044    2.3760    4.5177 C   0  0  0  1  0  0  0  0  0  0  0  0
    2.0868    0.2799    2.8060 C   0  0  0  1  0  0  0  0  0  0  0  0
    1.5570    2.6083    3.0219 O   0  0  0  1  0  0  0  0  0  0  0  0
   -2.7824    3.6138    3.9358 H   0  0  0  1  0  0  0  0  0  0  0  0
   -4.2629    1.5410    5.1716 H   0  0  0  1  0  0  0  0  0  0  0  0
   -5.1325    2.1272    3.7743 H   0  0  0  1  0  0  0  0  0  0  0  0
   -4.7448    3.2180    5.0834 H   0  0  0  1  0  0  0  0  0  0  0  0
    1.9062   -0.3090    1.9311 H   0  0  0  1  0  0  0  0  0  0  0  0
    1.9213   -0.3176    3.6781 H   0  0  0  1  0  0  0  0  0  0  0  0
    3.0984    0.6284    2.7986 H   0  0  0  1  0  0  0  0  0  0  0  0
   -0.3524    7.6280    1.5458 F   0  0  0  1  0  0  0  0  0  0  0  0
   -1.6116    7.7223    1.1150 C   0  0  0  1  0  0  0  0  0  0  0  0
   -2.2307    8.5555    1.9527 F   0  0  0  1  0  0  0  0  0  0  0  0
   -1.5577    8.3474   -0.0619 F   0  0  0  1  0  0  0  0  0  0  0  0
   -2.2947    6.3782    1.0255 C   0  0  0  1  0  0  0  0  0  0  0  0
   -1.5678    5.1941    1.1246 C   0  0  0  1  0  0  0  0  0  0  0  0
   -2.1905    3.9597    1.0374 C   0  0  0  1  0  0  0  0  0  0  0  0
   -3.5648    3.8913    0.8636 C   0  0  0  1  0  0  0  0  0  0  0  0
   -4.3005    5.0498    0.7634 C   0  0  0  1  0  0  0  0  0  0  0  0
   -3.6700    6.2827    0.8415 C   0  0  0  1  0  0  0  0  0  0  0  0
   -1.3750    2.6918    1.1313 C   0  0  0  1  0  0  0  0  0  0  0  0
   -0.5384    5.2376    1.2666 H   0  0  0  1  0  0  0  0  0  0  0  0
   -4.0381    2.9668    0.8093 H   0  0  0  1  0  0  0  0  0  0  0  0
   -5.3306    5.0008    0.6288 H   0  0  0  1  0  0  0  0  0  0  0  0
   -4.2359    7.1515    0.7611 H   0  0  0  1  0  0  0  0  0  0  0  0
   -1.8809    1.9205    0.5891 H   0  0  0  1  0  0  0  0  0  0  0  0
   -0.4169    2.8695    0.6892 H   0  0  0  1  0  0  0  0  0  0  0  0
  1  4  1  0  0  0  0
  2  4  1  0  0  0  0
  2  5  2  0  0  0  0
  2  6  1  0  0  0  0
  3  4  1  0  0  0  0
  3  7  1  0  0  0  0
  3  8  1  0  0  0  0
  4 29  1  0  0  0  0
  6  9  1  0  0  0  0
  6 12  1  0  0  0  0
  8 10  1  0  0  0  0
  8 11  2  0  0  0  0
  9 13  1  0  0  0  0
  9 14  1  0  0  0  0
  9 15  1  0  0  0  0
 10 16  1  0  0  0  0
 10 17  1  0  0  0  0
 10 18  1  0  0  0  0
 19 20  1  0  0  0  0
 20 21  1  0  0  0  0
 20 22  1  0  0  0  0
 20 23  1  0  0  0  0
 23 24  4  0  0  0  0
 23 28  4  0  0  0  0
 24 25  4  0  0  0  0
 24 30  1  0  0  0  0
 25 26  4  0  0  0  0
 25 29  1  0  0  0  0
 26 27  4  0  0  0  0
 26 31  1  0  0  0  0
 27 28  4  0  0  0  0
 27 32  1  0  0  0  0
 28 33  1  0  0  0  0
 29 34  1  0  0  0  0
 29 35  1  0  0  0  0
M  END
> <BCLConfClusterSize>
1

> <ConfClashScore>
0 

> <ConfOneFourInteractionScore>
-0.982823 

> <ConfScore>
0.141193 

> <ConfScorePBest>
0.00381805 

> <ConfTolerance>
0.576735 

> <RosettaParamsInstructions>
M  ROOT 3
M  POLY_N_BB 3
M  POLY_CA_BB 4
M  POLY_C_BB 2
M  POLY_O_BB 5
M  POLY_IGNORE 9 10 11 12 13 14 15 16 17 18 
M  POLY_UPPER 6
M  POLY_LOWER 8
M  POLY_CHG 0
M  POLY_PROPERTIES ALPHA_AA L_AA PROTEIN AROMATIC POLYMER 
M  END

$$$$



 35 35  0  0  0  0  0  0  0  0999 V2000
   -2.1797    2.1600    3.0555 H   0  0  0  1  0  0  0  0  0  0  0  0
   -0.6558    0.7808    2.6640 C   0  0  0  1  0  0  0  0  0  0  0  0
   -0.4310    3.1467    3.4292 N   0  0  0  1  0  0  0  0  0  0  0  0
   -1.1994    2.2048    2.6291 C   0  0  0  1  0  0  0  0  0  0  0  0
   -0.5714    0.1151    1.6452 O   0  0  0  1  0  0  0  0  0  0  0  0
   -0.3680    0.3143    3.8825 N   0  0  0  1  0  0  0  0  0  0  0  0
    0.5042    3.3031    3.1813 H   0  0  0  1  0  0  0  0  0  0  0  0
   -0.9182    3.8104    4.4779 C   0  0  0  1  0  0  0  0  0  0  0  0
    0.1158   -1.0406    4.1019 C   0  0  0  1  0  0  0  0  0  0  0  0
    0.0785    4.7271    5.1836 C   0  0  0  1  0  0  0  0  0  0  0  0
   -2.0587    3.6591    4.9138 O   0  0  0  1  0  0  0  0  0  0  0  0
   -0.4867    0.9051    4.6553 H   0  0  0  1  0  0  0  0  0  0  0  0
    0.6510   -1.3732    3.2372 H   0  0  0  1  0  0  0  0  0  0  0  0
   -0.7150   -1.6913    4.2791 H   0  0  0  1  0  0  0  0  0  0  0  0
    0.7669   -1.0534    4.9509 H   0  0  0  1  0  0  0  0  0  0  0  0
    0.7735    5.1163    4.4693 H   0  0  0  1  0  0  0  0  0  0  0  0
    0.6075    4.1714    5.9294 H   0  0  0  1  0  0  0  0  0  0  0  0
   -0.4472    5.5359    5.6467 H   0  0  0  1  0  0  0  0  0  0  0  0
   -0.4433    7.6305    1.7072 F   0  0  0  1  0  0  0  0  0  0  0  0
   -1.6300    7.7140    1.1033 C   0  0  0  1  0  0  0  0  0  0  0  0
   -2.2992    8.5878    1.8193 F   0  0  0  1  0  0  0  0  0  0  0  0
   -1.3726    8.2390   -0.0697 F   0  0  0  1  0  0  0  0  0  0  0  0
   -2.3120    6.3645    1.0192 C   0  0  0  1  0  0  0  0  0  0  0  0
   -1.5678    5.2025    1.1515 C   0  0  0  1  0  0  0  0  0  0  0  0
   -2.1895    3.9709    1.0695 C   0  0  0  1  0  0  0  0  0  0  0  0
   -3.5578    3.8975    0.8603 C   0  0  0  1  0  0  0  0  0  0  0  0
   -4.2997    5.0562    0.7284 C   0  0  0  1  0  0  0  0  0  0  0  0
   -3.6764    6.2916    0.8107 C   0  0  0  1  0  0  0  0  0  0  0  0
   -1.3812    2.7100    1.2071 C   0  0  0  1  0  0  0  0  0  0  0  0
   -0.5418    5.2575    1.3124 H   0  0  0  1  0  0  0  0  0  0  0  0
   -4.0262    2.9707    0.8026 H   0  0  0  1  0  0  0  0  0  0  0  0
   -5.3257    5.0012    0.5675 H   0  0  0  1  0  0  0  0  0  0  0  0
   -4.2353    7.1635    0.7155 H   0  0  0  1  0  0  0  0  0  0  0  0
   -1.8690    1.9421    0.6438 H   0  0  0  1  0  0  0  0  0  0  0  0
   -0.4108    2.8934    0.7954 H   0  0  0  1  0  0  0  0  0  0  0  0
  1  4  1  0  0  0  0
  2  4  1  0  0  0  0
  2  5  2  0  0  0  0
  2  6  1  0  0  0  0
  3  4  1  0  0  0  0
  3  7  1  0  0  0  0
  3  8  1  0  0  0  0
  4 29  1  0  0  0  0
  6  9  1  0  0  0  0
  6 12  1  0  0  0  0
  8 10  1  0  0  0  0
  8 11  2  0  0  0  0
  9 13  1  0  0  0  0
  9 14  1  0  0  0  0
  9 15  1  0  0  0  0
 10 16  1  0  0  0  0
 10 17  1  0  0  0  0
 10 18  1  0  0  0  0
 19 20  1  0  0  0  0
 20 21  1  0  0  0  0
 20 22  1  0  0  0  0
 20 23  1  0  0  0  0
 23 24  4  0  0  0  0
 23 28  4  0  0  0  0
 24 25  4  0  0  0  0
 24 30  1  0  0  0  0
 25 26  4  0  0  0  0
 25 29  1  0  0  0  0
 26 27  4  0  0  0  0
 26 31  1  0  0  0  0
 27 28  4  0  0  0  0
 27 32  1  0  0  0  0
 28 33  1  0  0  0  0
 29 34  1  0  0  0  0
 29 35  1  0  0  0  0
M  END
> <BCLConfClusterSize>
1

> <ConfClashScore>
0 

> <ConfOneFourInteractionScore>
-0.975087 

> <ConfScore>
0.141491 

> <ConfScorePBest>
0.00378957 

> <ConfTolerance>
0.502267 

> <RosettaParamsInstructions>
M  ROOT 3
M  POLY_N_BB 3
M  POLY_CA_BB 4
M  POLY_C_BB 2
M  POLY_O_BB 5
M  POLY_IGNORE 9 10 11 12 13 14 15 16 17 18 
M  POLY_UPPER 6
M  POLY_LOWER 8
M  POLY_CHG 0
M  POLY_PROPERTIES ALPHA_AA L_AA PROTEIN AROMATIC POLYMER 
M  END

$$$$



 35 35  0  0  0  0  0  0  0  0999 V2000
   -0.3809    1.3218   -0.3429 H   0  0  0  1  0  0  0  0  0  0  0  0
   -2.1853    1.7399   -1.2995 C   0  0  0  1  0  0  0  0  0  0  0  0
   -0.1476    3.1386   -1.2424 N   0  0  0  1  0  0  0  0  0  0  0  0
   -0.9769    2.1965   -0.4992 C   0  0  0  1  0  0  0  0  0  0  0  0
   -2.7388    2.4890   -2.1034 O   0  0  0  1  0  0  0  0  0  0  0  0
   -2.5945    0.4890   -1.0701 N   0  0  0  1  0  0  0  0  0  0  0  0
   -0.0020    4.0344   -0.8726 H   0  0  0  1  0  0  0  0  0  0  0  0
    0.4333    2.8155   -2.4363 C   0  0  0  1  0  0  0  0  0  0  0  0
   -3.7598   -0.1319   -1.6820 C   0  0  0  1  0  0  0  0  0  0  0  0
    1.3434    3.8857   -2.9702 C   0  0  0  1  0  0  0  0  0  0  0  0
    0.2167    1.7526   -2.9947 O   0  0  0  1  0  0  0  0  0  0  0  0
   -2.0704   -0.0512   -0.4424 H   0  0  0  1  0  0  0  0  0  0  0  0
   -3.8230    0.1617   -2.7090 H   0  0  0  1  0  0  0  0  0  0  0  0
   -4.6431    0.1825   -1.1664 H   0  0  0  1  0  0  0  0  0  0  0  0
   -3.6701   -1.1964   -1.6205 H   0  0  0  1  0  0  0  0  0  0  0  0
    2.1575    3.4325   -3.4964 H   0  0  0  1  0  0  0  0  0  0  0  0
    1.7244    4.4678   -2.1572 H   0  0  0  1  0  0  0  0  0  0  0  0
    0.7964    4.5188   -3.6372 H   0  0  0  1  0  0  0  0  0  0  0  0
   -0.3846    7.7065    0.5887 F   0  0  0  1  0  0  0  0  0  0  0  0
   -1.6115    7.7225    1.1125 C   0  0  0  1  0  0  0  0  0  0  0  0
   -1.4745    8.1466    2.3698 F   0  0  0  1  0  0  0  0  0  0  0  0
   -2.2809    8.6781    0.4666 F   0  0  0  1  0  0  0  0  0  0  0  0
   -2.2949    6.3782    1.0265 C   0  0  0  1  0  0  0  0  0  0  0  0
   -1.5577    5.1964    1.0114 C   0  0  0  1  0  0  0  0  0  0  0  0
   -2.1810    3.9621    0.9270 C   0  0  0  1  0  0  0  0  0  0  0  0
   -3.5651    3.8909    0.8716 C   0  0  0  1  0  0  0  0  0  0  0  0
   -4.3110    5.0471    0.8853 C   0  0  0  1  0  0  0  0  0  0  0  0
   -3.6806    6.2803    0.9599 C   0  0  0  1  0  0  0  0  0  0  0  0
   -1.3557    2.6975    0.8954 C   0  0  0  1  0  0  0  0  0  0  0  0
   -0.5200    5.2416    1.0644 H   0  0  0  1  0  0  0  0  0  0  0  0
   -4.0379    2.9661    0.8199 H   0  0  0  1  0  0  0  0  0  0  0  0
   -5.3488    4.9962    0.8395 H   0  0  0  1  0  0  0  0  0  0  0  0
   -4.2546    7.1475    0.9662 H   0  0  0  1  0  0  0  0  0  0  0  0
   -0.4514    2.8798    1.4375 H   0  0  0  1  0  0  0  0  0  0  0  0
   -1.9149    1.9262    1.3826 H   0  0  0  1  0  0  0  0  0  0  0  0
  1  4  1  0  0  0  0
  2  4  1  0  0  0  0
  2  5  2  0  0  0  0
  2  6  1  0  0  0  0
  3  4  1  0  0  0  0
  3  7  1  0  0  0  0
  3  8  1  0  0  0  0
  4 29  1  0  0  0  0
  6  9  1  0  0  0  0
  6 12  1  0  0  0  0
  8 10  1  0  0  0  0
  8 11  2  0  0  0  0
  9 13  1  0  0  0  0
  9 14  1  0  0  0  0
  9 15  1  0  0  0  0
 10 16  1  0  0  0  0
 10 17  1  0  0  0  0
 10 18  1  0  0  0  0
 19 20  1  0  0  0  0
 20 21  1  0  0  0  0
 20 22  1  0  0  0  0
 20 23  1  0  0  0  0
 23 24  4  0  0  0  0
 23 28  4  0  0  0  0
 24 25  4  0  0  0  0
 24 30  1  0  0  0  0
 25 26  4  0  0  0  0
 25 29  1  0  0  0  0
 26 27  4  0  0  0  0
 26 31  1  0  0  0  0
 27 28  4  0  0  0  0
 27 32  1  0  0  0  0
 28 33  1  0  0  0  0
 29 34  1  0  0  0  0
 29 35  1  0  0  0  0
M  END
> <BCLConfClusterSize>
1

> <ConfClashScore>
0 

> <ConfOneFourInteractionScore>
-0.976093 

> <ConfScore>
0.142926 

> <ConfScorePBest>
0.00376109 

> <ConfTolerance>
0.469053 

> <RosettaParamsInstructions>
M  ROOT 3
M  POLY_N_BB 3
M  POLY_CA_BB 4
M  POLY_C_BB 2
M  POLY_O_BB 5
M  POLY_IGNORE 9 10 11 12 13 14 15 16 17 18 
M  POLY_UPPER 6
M  POLY_LOWER 8
M  POLY_CHG 0
M  POLY_PROPERTIES ALPHA_AA L_AA PROTEIN AROMATIC POLYMER 
M  END

$$$$



 35 35  0  0  0  0  0  0  0  0999 V2000
   -1.6479    2.7127    3.0990 H   0  0  0  1  0  0  0  0  0  0  0  0
   -2.6004    0.9778    2.3721 C   0  0  0  1  0  0  0  0  0  0  0  0
   -0.2334    1.2616    2.7621 N   0  0  0  1  0  0  0  0  0  0  0  0
   -1.4367    1.9723    2.3560 C   0  0  0  1  0  0  0  0  0  0  0  0
   -3.7071    1.2971    2.8044 O   0  0  0  1  0  0  0  0  0  0  0  0
   -2.3310   -0.2371    1.8919 N   0  0  0  1  0  0  0  0  0  0  0  0
    0.4986    1.1643    2.1178 H   0  0  0  1  0  0  0  0  0  0  0  0
   -0.0920    0.7373    3.9828 C   0  0  0  1  0  0  0  0  0  0  0  0
   -3.3397   -1.2832    1.8132 C   0  0  0  1  0  0  0  0  0  0  0  0
    1.2041   -0.0217    4.2692 C   0  0  0  1  0  0  0  0  0  0  0  0
   -0.9864    0.7785    4.8259 O   0  0  0  1  0  0  0  0  0  0  0  0
   -1.4222   -0.4321    1.5813 H   0  0  0  1  0  0  0  0  0  0  0  0
   -4.2810   -0.8973    2.1446 H   0  0  0  1  0  0  0  0  0  0  0  0
   -3.0515   -2.1037    2.4366 H   0  0  0  1  0  0  0  0  0  0  0  0
   -3.4281   -1.6177    0.8007 H   0  0  0  1  0  0  0  0  0  0  0  0
    1.3272   -0.1320    5.3263 H   0  0  0  1  0  0  0  0  0  0  0  0
    2.0327    0.5243    3.8689 H   0  0  0  1  0  0  0  0  0  0  0  0
    1.1593   -0.9884    3.8127 H   0  0  0  1  0  0  0  0  0  0  0  0
   -0.2898    7.6069    1.0547 F   0  0  0  1  0  0  0  0  0  0  0  0
   -1.6191    7.7047    1.1133 C   0  0  0  1  0  0  0  0  0  0  0  0
   -1.8960    8.3442    2.2507 F   0  0  0  1  0  0  0  0  0  0  0  0
   -1.9769    8.5266    0.1258 F   0  0  0  1  0  0  0  0  0  0  0  0
   -2.3027    6.3608    1.0239 C   0  0  0  1  0  0  0  0  0  0  0  0
   -1.5520    5.2006    1.0509 C   0  0  0  1  0  0  0  0  0  0  0  0
   -2.1799    3.9671    0.9742 C   0  0  0  1  0  0  0  0  0  0  0  0
   -3.5559    3.8975    0.8653 C   0  0  0  1  0  0  0  0  0  0  0  0
   -4.3086    5.0611    0.8382 C   0  0  0  1  0  0  0  0  0  0  0  0
   -3.6828    6.2911    0.9147 C   0  0  0  1  0  0  0  0  0  0  0  0
   -1.3601    2.6990    1.0096 C   0  0  0  1  0  0  0  0  0  0  0  0
   -0.5163    5.2529    1.1288 H   0  0  0  1  0  0  0  0  0  0  0  0
   -4.0266    2.9721    0.8038 H   0  0  0  1  0  0  0  0  0  0  0  0
   -5.3444    5.0087    0.7604 H   0  0  0  1  0  0  0  0  0  0  0  0
   -4.2473    7.1642    0.8903 H   0  0  0  1  0  0  0  0  0  0  0  0
   -1.7184    2.0403    0.2463 H   0  0  0  1  0  0  0  0  0  0  0  0
   -0.3380    2.9487    0.8150 H   0  0  0  1  0  0  0  0  0  0  0  0
  1  4  1  0  0  0  0
  2  4  1  0  0  0  0
  2  5  2  0  0  0  0
  2  6  1  0  0  0  0
  3  4  1  0  0  0  0
  3  7  1  0  0  0  0
  3  8  1  0  0  0  0
  4 29  1  0  0  0  0
  6  9  1  0  0  0  0
  6 12  1  0  0  0  0
  8 10  1  0  0  0  0
  8 11  2  0  0  0  0
  9 13  1  0  0  0  0
  9 14  1  0  0  0  0
  9 15  1  0  0  0  0
 10 16  1  0  0  0  0
 10 17  1  0  0  0  0
 10 18  1  0  0  0  0
 19 20  1  0  0  0  0
 20 21  1  0  0  0  0
 20 22  1  0  0  0  0
 20 23  1  0  0  0  0
 23 24  4  0  0  0  0
 23 28  4  0  0  0  0
 24 25  4  0  0  0  0
 24 30  1  0  0  0  0
 25 26  4  0  0  0  0
 25 29  1  0  0  0  0
 26 27  4  0  0  0  0
 26 31  1  0  0  0  0
 27 28  4  0  0  0  0
 27 32  1  0  0  0  0
 28 33  1  0  0  0  0
 29 34  1  0  0  0  0
 29 35  1  0  0  0  0
M  END
> <BCLConfClusterSize>
1

> <ConfClashScore>
0 

> <ConfOneFourInteractionScore>
-0.944777 

> <ConfScore>
0.144292 

> <ConfScorePBest>
0.00373261 

> <ConfTolerance>
0.771999 

> <RosettaParamsInstructions>
M  ROOT 3
M  POLY_N_BB 3
M  POLY_CA_BB 4
M  POLY_C_BB 2
M  POLY_O_BB 5
M  POLY_IGNORE 9 10 11 12 13 14 15 16 17 18 
M  POLY_UPPER 6
M  POLY_LOWER 8
M  POLY_CHG 0
M  POLY_PROPERTIES ALPHA_AA L_AA PROTEIN AROMATIC POLYMER 
M  END

$$$$



 35 35  0  0  0  0  0  0  0  0999 V2000
   -2.6346    1.3836   -0.0177 H   0  0  0  1  0  0  0  0  0  0  0  0
   -1.4917    2.4321   -1.4447 C   0  0  0  1  0  0  0  0  0  0  0  0
   -0.7200    0.5977   -0.0132 N   0  0  0  1  0  0  0  0  0  0  0  0
   -1.6281    1.7349   -0.1100 C   0  0  0  1  0  0  0  0  0  0  0  0
   -0.4255    2.9445   -1.7829 O   0  0  0  1  0  0  0  0  0  0  0  0
   -2.5669    2.4746   -2.2473 N   0  0  0  1  0  0  0  0  0  0  0  0
    0.2200    0.7474   -0.2465 H   0  0  0  1  0  0  0  0  0  0  0  0
   -1.0747   -0.6385    0.3715 C   0  0  0  1  0  0  0  0  0  0  0  0
   -2.5536    3.1641   -3.5288 C   0  0  0  1  0  0  0  0  0  0  0  0
    0.0030   -1.7023    0.2939 C   0  0  0  1  0  0  0  0  0  0  0  0
   -2.1819   -0.8907    0.8394 O   0  0  0  1  0  0  0  0  0  0  0  0
   -3.3894    2.0257   -1.9603 H   0  0  0  1  0  0  0  0  0  0  0  0
   -2.9611    4.1464   -3.4102 H   0  0  0  1  0  0  0  0  0  0  0  0
   -3.1430    2.6166   -4.2343 H   0  0  0  1  0  0  0  0  0  0  0  0
   -1.5470    3.2364   -3.8843 H   0  0  0  1  0  0  0  0  0  0  0  0
   -0.2637   -2.4277   -0.4461 H   0  0  0  1  0  0  0  0  0  0  0  0
    0.0990   -2.1825    1.2453 H   0  0  0  1  0  0  0  0  0  0  0  0
    0.9343   -1.2475    0.0278 H   0  0  0  1  0  0  0  0  0  0  0  0
   -0.2957    7.5985    1.2431 F   0  0  0  1  0  0  0  0  0  0  0  0
   -1.6193    7.7082    1.1174 C   0  0  0  1  0  0  0  0  0  0  0  0
   -2.0368    8.4223    2.1690 F   0  0  0  1  0  0  0  0  0  0  0  0
   -1.8306    8.4682    0.0421 F   0  0  0  1  0  0  0  0  0  0  0  0
   -2.3064    6.3622    1.0206 C   0  0  0  1  0  0  0  0  0  0  0  0
   -1.5598    5.1962    1.0682 C   0  0  0  1  0  0  0  0  0  0  0  0
   -2.1687    3.9454    0.9968 C   0  0  0  1  0  0  0  0  0  0  0  0
   -3.5531    3.9032    0.8701 C   0  0  0  1  0  0  0  0  0  0  0  0
   -4.3051    5.0671    0.8119 C   0  0  0  1  0  0  0  0  0  0  0  0
   -3.6849    6.2932    0.8839 C   0  0  0  1  0  0  0  0  0  0  0  0
   -1.3520    2.6762    1.0551 C   0  0  0  1  0  0  0  0  0  0  0  0
   -0.5255    5.2558    1.1590 H   0  0  0  1  0  0  0  0  0  0  0  0
   -4.0331    2.9820    0.8180 H   0  0  0  1  0  0  0  0  0  0  0  0
   -5.3391    5.0130    0.7137 H   0  0  0  1  0  0  0  0  0  0  0  0
   -4.2484    7.1661    0.8360 H   0  0  0  1  0  0  0  0  0  0  0  0
   -0.3146    2.9379    1.0430 H   0  0  0  1  0  0  0  0  0  0  0  0
   -1.5809    2.1655    1.9671 H   0  0  0  1  0  0  0  0  0  0  0  0
  1  4  1  0  0  0  0
  2  4  1  0  0  0  0
  2  5  2  0  0  0  0
  2  6  1  0  0  0  0
  3  4  1  0  0  0  0
  3  7  1  0  0  0  0
  3  8  1  0  0  0  0
  4 29  1  0  0  0  0
  6  9  1  0  0  0  0
  6 12  1  0  0  0  0
  8 10  1  0  0  0  0
  8 11  2  0  0  0  0
  9 13  1  0  0  0  0
  9 14  1  0  0  0  0
  9 15  1  0  0  0  0
 10 16  1  0  0  0  0
 10 17  1  0  0  0  0
 10 18  1  0  0  0  0
 19 20  1  0  0  0  0
 20 21  1  0  0  0  0
 20 22  1  0  0  0  0
 20 23  1  0  0  0  0
 23 24  4  0  0  0  0
 23 28  4  0  0  0  0
 24 25  4  0  0  0  0
 24 30  1  0  0  0  0
 25 26  4  0  0  0  0
 25 29  1  0  0  0  0
 26 27  4  0  0  0  0
 26 31  1  0  0  0  0
 27 28  4  0  0  0  0
 27 32  1  0  0  0  0
 28 33  1  0  0  0  0
 29 34  1  0  0  0  0
 29 35  1  0  0  0  0
M  END
> <BCLConfClusterSize>
1

> <ConfClashScore>
0 

> <ConfOneFourInteractionScore>
-0.990503 

> <ConfScore>
0.150006 

> <ConfScorePBest>
0.00370413 

> <ConfTolerance>
0.566915 

> <RosettaParamsInstructions>
M  ROOT 3
M  POLY_N_BB 3
M  POLY_CA_BB 4
M  POLY_C_BB 2
M  POLY_O_BB 5
M  POLY_IGNORE 9 10 11 12 13 14 15 16 17 18 
M  POLY_UPPER 6
M  POLY_LOWER 8
M  POLY_CHG 0
M  POLY_PROPERTIES ALPHA_AA L_AA PROTEIN AROMATIC POLYMER 
M  END

$$$$



 35 35  0  0  0  0  0  0  0  0999 V2000
   -1.0436    1.2020    2.8103 H   0  0  0  1  0  0  0  0  0  0  0  0
   -0.8896    3.0579    3.7962 C   0  0  0  1  0  0  0  0  0  0  0  0
   -2.9514    1.9531    3.0717 N   0  0  0  1  0  0  0  0  0  0  0  0
   -1.5398    2.1495    2.7774 C   0  0  0  1  0  0  0  0  0  0  0  0
   -1.4531    4.0826    4.1785 O   0  0  0  1  0  0  0  0  0  0  0  0
    0.3176    2.7130    4.2694 N   0  0  0  1  0  0  0  0  0  0  0  0
   -3.6134    2.1780    2.3850 H   0  0  0  1  0  0  0  0  0  0  0  0
   -3.3780    1.4748    4.2504 C   0  0  0  1  0  0  0  0  0  0  0  0
    1.1037    3.5995    5.1145 C   0  0  0  1  0  0  0  0  0  0  0  0
   -4.8927    1.3439    4.3460 C   0  0  0  1  0  0  0  0  0  0  0  0
   -2.6495    1.1645    5.1786 O   0  0  0  1  0  0  0  0  0  0  0  0
    0.6827    1.8335    4.0380 H   0  0  0  1  0  0  0  0  0  0  0  0
    1.8498    4.0879    4.5231 H   0  0  0  1  0  0  0  0  0  0  0  0
    1.5773    3.0292    5.8860 H   0  0  0  1  0  0  0  0  0  0  0  0
    0.4618    4.3332    5.5556 H   0  0  0  1  0  0  0  0  0  0  0  0
   -5.2549    1.9599    5.1424 H   0  0  0  1  0  0  0  0  0  0  0  0
   -5.1507    0.3236    4.5390 H   0  0  0  1  0  0  0  0  0  0  0  0
   -5.3363    1.6562    3.4238 H   0  0  0  1  0  0  0  0  0  0  0  0
   -0.6552    7.7272    2.0408 F   0  0  0  1  0  0  0  0  0  0  0  0
   -1.6183    7.7072    1.1178 C   0  0  0  1  0  0  0  0  0  0  0  0
   -2.4632    8.6880    1.4394 F   0  0  0  1  0  0  0  0  0  0  0  0
   -1.0435    8.0704   -0.0296 F   0  0  0  1  0  0  0  0  0  0  0  0
   -2.3027    6.3597    1.0226 C   0  0  0  1  0  0  0  0  0  0  0  0
   -1.5760    5.2003    1.2172 C   0  0  0  1  0  0  0  0  0  0  0  0
   -2.2037    3.9671    1.1354 C   0  0  0  1  0  0  0  0  0  0  0  0
   -3.5550    3.8966    0.8539 C   0  0  0  1  0  0  0  0  0  0  0  0
   -4.2837    5.0595    0.6588 C   0  0  0  1  0  0  0  0  0  0  0  0
   -3.6580    6.2892    0.7403 C   0  0  0  1  0  0  0  0  0  0  0  0
   -1.4107    2.7002    1.3538 C   0  0  0  1  0  0  0  0  0  0  0  0
   -0.5583    5.2531    1.4250 H   0  0  0  1  0  0  0  0  0  0  0  0
   -4.0250    2.9711    0.7886 H   0  0  0  1  0  0  0  0  0  0  0  0
   -5.3013    5.0066    0.4509 H   0  0  0  1  0  0  0  0  0  0  0  0
   -4.2040    7.1615    0.5899 H   0  0  0  1  0  0  0  0  0  0  0  0
   -1.7606    1.9570    0.6681 H   0  0  0  1  0  0  0  0  0  0  0  0
   -0.3788    2.9067    1.1608 H   0  0  0  1  0  0  0  0  0  0  0  0
  1  4  1  0  0  0  0
  2  4  1  0  0  0  0
  2  5  2  0  0  0  0
  2  6  1  0  0  0  0
  3  4  1  0  0  0  0
  3  7  1  0  0  0  0
  3  8  1  0  0  0  0
  4 29  1  0  0  0  0
  6  9  1  0  0  0  0
  6 12  1  0  0  0  0
  8 10  1  0  0  0  0
  8 11  2  0  0  0  0
  9 13  1  0  0  0  0
  9 14  1  0  0  0  0
  9 15  1  0  0  0  0
 10 16  1  0  0  0  0
 10 17  1  0  0  0  0
 10 18  1  0  0  0  0
 19 20  1  0  0  0  0
 20 21  1  0  0  0  0
 20 22  1  0  0  0  0
 20 23  1  0  0  0  0
 23 24  4  0  0  0  0
 23 28  4  0  0  0  0
 24 25  4  0  0  0  0
 24 30  1  0  0  0  0
 25 26  4  0  0  0  0
 25 29  1  0  0  0  0
 26 27  4  0  0  0  0
 26 31  1  0  0  0  0
 27 28  4  0  0  0  0
 27 32  1  0  0  0  0
 28 33  1  0  0  0  0
 29 34  1  0  0  0  0
 29 35  1  0  0  0  0
M  END
> <BCLConfClusterSize>
1

> <ConfClashScore>
0 

> <ConfOneFourInteractionScore>
-0.976093 

> <ConfScore>
0.15042 

> <ConfScorePBest>
0.00367564 

> <ConfTolerance>
0.5651 

> <RosettaParamsInstructions>
M  ROOT 3
M  POLY_N_BB 3
M  POLY_CA_BB 4
M  POLY_C_BB 2
M  POLY_O_BB 5
M  POLY_IGNORE 9 10 11 12 13 14 15 16 17 18 
M  POLY_UPPER 6
M  POLY_LOWER 8
M  POLY_CHG 0
M  POLY_PROPERTIES ALPHA_AA L_AA PROTEIN AROMATIC POLYMER 
M  END

$$$$



 35 35  0  0  0  0  0  0  0  0999 V2000
   -1.9814    1.9107   -0.5642 H   0  0  0  1  0  0  0  0  0  0  0  0
   -0.0779    2.8065   -0.8076 C   0  0  0  1  0  0  0  0  0  0  0  0
   -0.5547    0.6540    0.2484 N   0  0  0  1  0  0  0  0  0  0  0  0
   -1.0785    1.9897    0.0045 C   0  0  0  1  0  0  0  0  0  0  0  0
    1.1223    2.5462   -0.7880 O   0  0  0  1  0  0  0  0  0  0  0  0
   -0.5937    3.8066   -1.5277 N   0  0  0  1  0  0  0  0  0  0  0  0
    0.4036    0.5069    0.3917 H   0  0  0  1  0  0  0  0  0  0  0  0
   -1.4236   -0.3735    0.2715 C   0  0  0  1  0  0  0  0  0  0  0  0
    0.1778    4.7199   -2.3576 C   0  0  0  1  0  0  0  0  0  0  0  0
   -0.8461   -1.7157    0.6769 C   0  0  0  1  0  0  0  0  0  0  0  0
   -2.6139   -0.2508   -0.0148 O   0  0  0  1  0  0  0  0  0  0  0  0
   -1.5647    3.9349   -1.4947 H   0  0  0  1  0  0  0  0  0  0  0  0
    0.6712    4.1694   -3.1311 H   0  0  0  1  0  0  0  0  0  0  0  0
    0.9072    5.2194   -1.7548 H   0  0  0  1  0  0  0  0  0  0  0  0
   -0.4779    5.4424   -2.7970 H   0  0  0  1  0  0  0  0  0  0  0  0
    0.2026   -1.6119    0.8622 H   0  0  0  1  0  0  0  0  0  0  0  0
   -1.0006   -2.4228   -0.1112 H   0  0  0  1  0  0  0  0  0  0  0  0
   -1.3328   -2.0593    1.5656 H   0  0  0  1  0  0  0  0  0  0  0  0
   -0.6137    7.7321    2.0042 F   0  0  0  1  0  0  0  0  0  0  0  0
   -1.6104    7.7250    1.1174 C   0  0  0  1  0  0  0  0  0  0  0  0
   -2.4450    8.6978    1.4870 F   0  0  0  1  0  0  0  0  0  0  0  0
   -1.0796    8.1093   -0.0441 F   0  0  0  1  0  0  0  0  0  0  0  0
   -2.2951    6.3772    1.0248 C   0  0  0  1  0  0  0  0  0  0  0  0
   -1.5832    5.1947    1.2129 C   0  0  0  1  0  0  0  0  0  0  0  0
   -2.2052    3.9601    1.1233 C   0  0  0  1  0  0  0  0  0  0  0  0
   -3.5646    3.8904    0.8570 C   0  0  0  1  0  0  0  0  0  0  0  0
   -4.2852    5.0472    0.6680 C   0  0  0  1  0  0  0  0  0  0  0  0
   -3.6548    6.2800    0.7491 C   0  0  0  1  0  0  0  0  0  0  0  0
   -1.4052    2.6933    1.3152 C   0  0  0  1  0  0  0  0  0  0  0  0
   -0.5660    5.2395    1.4245 H   0  0  0  1  0  0  0  0  0  0  0  0
   -4.0381    2.9662    0.8004 H   0  0  0  1  0  0  0  0  0  0  0  0
   -5.3037    4.9972    0.4640 H   0  0  0  1  0  0  0  0  0  0  0  0
   -4.2089    7.1475    0.6011 H   0  0  0  1  0  0  0  0  0  0  0  0
   -0.4875    2.9412    1.8066 H   0  0  0  1  0  0  0  0  0  0  0  0
   -1.9698    2.0237    1.9298 H   0  0  0  1  0  0  0  0  0  0  0  0
  1  4  1  0  0  0  0
  2  4  1  0  0  0  0
  2  5  2  0  0  0  0
  2  6  1  0  0  0  0
  3  4  1  0  0  0  0
  3  7  1  0  0  0  0
  3  8  1  0  0  0  0
  4 29  1  0  0  0  0
  6  9  1  0  0  0  0
  6 12  1  0  0  0  0
  8 10  1  0  0  0  0
  8 11  2  0  0  0  0
  9 13  1  0  0  0  0
  9 14  1  0  0  0  0
  9 15  1  0  0  0  0
 10 16  1  0  0  0  0
 10 17  1  0  0  0  0
 10 18  1  0  0  0  0
 19 20  1  0  0  0  0
 20 21  1  0  0  0  0
 20 22  1  0  0  0  0
 20 23  1  0  0  0  0
 23 24  4  0  0  0  0
 23 28  4  0  0  0  0
 24 25  4  0  0  0  0
 24 30  1  0  0  0  0
 25 26  4  0  0  0  0
 25 29  1  0  0  0  0
 26 27  4  0  0  0  0
 26 31  1  0  0  0  0
 27 28  4  0  0  0  0
 27 32  1  0  0  0  0
 28 33  1  0  0  0  0
 29 34  1  0  0  0  0
 29 35  1  0  0  0  0
M  END
> <BCLConfClusterSize>
1

> <ConfClashScore>
0 

> <ConfOneFourInteractionScore>
-0.986698 

> <ConfScore>
0.152083 

> <ConfScorePBest>
0.00364716 

> <ConfTolerance>
0.761478 

> <RosettaParamsInstructions>
M  ROOT 3
M  POLY_N_BB 3
M  POLY_CA_BB 4
M  POLY_C_BB 2
M  POLY_O_BB 5
M  POLY_IGNORE 9 10 11 12 13 14 15 16 17 18 
M  POLY_UPPER 6
M  POLY_LOWER 8
M  POLY_CHG 0
M  POLY_PROPERTIES ALPHA_AA L_AA PROTEIN AROMATIC POLYMER 
M  END

$$$$



 35 35  0  0  0  0  0  0  0  0999 V2000
   -1.9513    1.8130    2.7398 H   0  0  0  1  0  0  0  0  0  0  0  0
   -0.1109    0.9106    2.2817 C   0  0  0  1  0  0  0  0  0  0  0  0
   -0.4556    3.1784    3.1633 N   0  0  0  1  0  0  0  0  0  0  0  0
   -1.0259    2.1239    2.3018 C   0  0  0  1  0  0  0  0  0  0  0  0
    0.7994    0.8109    1.4601 O   0  0  0  1  0  0  0  0  0  0  0  0
   -0.3644   -0.0264    3.2090 N   0  0  0  1  0  0  0  0  0  0  0  0
    0.3674    3.6280    2.8787 H   0  0  0  1  0  0  0  0  0  0  0  0
   -1.0251    3.5428    4.3230 C   0  0  0  1  0  0  0  0  0  0  0  0
    0.4402   -1.2324    3.3358 C   0  0  0  1  0  0  0  0  0  0  0  0
   -0.3627    4.6389    5.1267 C   0  0  0  1  0  0  0  0  0  0  0  0
   -2.0538    3.0033    4.7218 O   0  0  0  1  0  0  0  0  0  0  0  0
   -1.1176    0.1063    3.8218 H   0  0  0  1  0  0  0  0  0  0  0  0
    1.1586   -1.1018    4.1180 H   0  0  0  1  0  0  0  0  0  0  0  0
    0.9482   -1.4206    2.4131 H   0  0  0  1  0  0  0  0  0  0  0  0
   -0.1945   -2.0614    3.5697 H   0  0  0  1  0  0  0  0  0  0  0  0
   -1.0161    4.9481    5.9156 H   0  0  0  1  0  0  0  0  0  0  0  0
   -0.1547    5.4725    4.4888 H   0  0  0  1  0  0  0  0  0  0  0  0
    0.5515    4.2719    5.5443 H   0  0  0  1  0  0  0  0  0  0  0  0
   -0.3711    7.6753    0.6416 F   0  0  0  1  0  0  0  0  0  0  0  0
   -1.6191    7.7048    1.1125 C   0  0  0  1  0  0  0  0  0  0  0  0
   -1.5341    8.1537    2.3657 F   0  0  0  1  0  0  0  0  0  0  0  0
   -2.2573    8.6491    0.4198 F   0  0  0  1  0  0  0  0  0  0  0  0
   -2.3027    6.3608    1.0243 C   0  0  0  1  0  0  0  0  0  0  0  0
   -1.5497    5.2019    1.0104 C   0  0  0  1  0  0  0  0  0  0  0  0
   -2.1773    3.9683    0.9349 C   0  0  0  1  0  0  0  0  0  0  0  0
   -3.5560    3.8974    0.8680 C   0  0  0  1  0  0  0  0  0  0  0  0
   -4.3114    5.0596    0.8818 C   0  0  0  1  0  0  0  0  0  0  0  0
   -3.6855    6.2895    0.9571 C   0  0  0  1  0  0  0  0  0  0  0  0
   -1.3546    2.7016    0.9257 C   0  0  0  1  0  0  0  0  0  0  0  0
   -0.5121    5.2555    1.0567 H   0  0  0  1  0  0  0  0  0  0  0  0
   -4.0268    2.9721    0.8072 H   0  0  0  1  0  0  0  0  0  0  0  0
   -5.3490    5.0061    0.8355 H   0  0  0  1  0  0  0  0  0  0  0  0
   -4.2520    7.1617    0.9635 H   0  0  0  1  0  0  0  0  0  0  0  0
   -1.8968    1.9598    0.3772 H   0  0  0  1  0  0  0  0  0  0  0  0
   -0.4316    2.9111    0.4266 H   0  0  0  1  0  0  0  0  0  0  0  0
  1  4  1  0  0  0  0
  2  4  1  0  0  0  0
  2  5  2  0  0  0  0
  2  6  1  0  0  0  0
  3  4  1  0  0  0  0
  3  7  1  0  0  0  0
  3  8  1  0  0  0  0
  4 29  1  0  0  0  0
  6  9  1  0  0  0  0
  6 12  1  0  0  0  0
  8 10  1  0  0  0  0
  8 11  2  0  0  0  0
  9 13  1  0  0  0  0
  9 14  1  0  0  0  0
  9 15  1  0  0  0  0
 10 16  1  0  0  0  0
 10 17  1  0  0  0  0
 10 18  1  0  0  0  0
 19 20  1  0  0  0  0
 20 21  1  0  0  0  0
 20 22  1  0  0  0  0
 20 23  1  0  0  0  0
 23 24  4  0  0  0  0
 23 28  4  0  0  0  0
 24 25  4  0  0  0  0
 24 30  1  0  0  0  0
 25 26  4  0  0  0  0
 25 29  1  0  0  0  0
 26 27  4  0  0  0  0
 26 31  1  0  0  0  0
 27 28  4  0  0  0  0
 27 32  1  0  0  0  0
 28 33  1  0  0  0  0
 29 34  1  0  0  0  0
 29 35  1  0  0  0  0
M  END
> <BCLConfClusterSize>
1

> <ConfClashScore>
0 

> <ConfOneFourInteractionScore>
-0.979134 

> <ConfScore>
0.155856 

> <ConfScorePBest>
0.00361868 

> <ConfTolerance>
0.569143 

> <RosettaParamsInstructions>
M  ROOT 3
M  POLY_N_BB 3
M  POLY_CA_BB 4
M  POLY_C_BB 2
M  POLY_O_BB 5
M  POLY_IGNORE 9 10 11 12 13 14 15 16 17 18 
M  POLY_UPPER 6
M  POLY_LOWER 8
M  POLY_CHG 0
M  POLY_PROPERTIES ALPHA_AA L_AA PROTEIN AROMATIC POLYMER 
M  END

$$$$



 35 35  0  0  0  0  0  0  0  0999 V2000
   -0.1654    1.4742    2.1888 H   0  0  0  1  0  0  0  0  0  0  0  0
   -0.1556    3.4049    3.0162 C   0  0  0  1  0  0  0  0  0  0  0  0
   -1.9946    1.7533    3.0870 N   0  0  0  1  0  0  0  0  0  0  0  0
   -0.8726    2.2671    2.3157 C   0  0  0  1  0  0  0  0  0  0  0  0
   -0.7114    4.0490    3.9049 O   0  0  0  1  0  0  0  0  0  0  0  0
    1.1011    3.6870    2.6377 N   0  0  0  1  0  0  0  0  0  0  0  0
   -2.8963    2.0094    2.8009 H   0  0  0  1  0  0  0  0  0  0  0  0
   -1.8871    0.9510    4.1664 C   0  0  0  1  0  0  0  0  0  0  0  0
    1.8096    4.8665    3.1119 C   0  0  0  1  0  0  0  0  0  0  0  0
   -3.1439    0.6516    4.9601 C   0  0  0  1  0  0  0  0  0  0  0  0
   -0.8024    0.4750    4.4989 O   0  0  0  1  0  0  0  0  0  0  0  0
    1.5573    3.0775    2.0206 H   0  0  0  1  0  0  0  0  0  0  0  0
    2.6133    5.0933    2.4430 H   0  0  0  1  0  0  0  0  0  0  0  0
    2.2018    4.6776    4.0893 H   0  0  0  1  0  0  0  0  0  0  0  0
    1.1345    5.6956    3.1520 H   0  0  0  1  0  0  0  0  0  0  0  0
   -3.9396    0.4039    4.2891 H   0  0  0  1  0  0  0  0  0  0  0  0
   -3.4166    1.5126    5.5339 H   0  0  0  1  0  0  0  0  0  0  0  0
   -2.9623   -0.1729    5.6175 H   0  0  0  1  0  0  0  0  0  0  0  0
   -0.3616    7.6620    0.6780 F   0  0  0  1  0  0  0  0  0  0  0  0
   -1.6227    7.7049    1.1113 C   0  0  0  1  0  0  0  0  0  0  0  0
   -1.5723    8.1739    2.3590 F   0  0  0  1  0  0  0  0  0  0  0  0
   -2.2355    8.6405    0.3849 F   0  0  0  1  0  0  0  0  0  0  0  0
   -2.3102    6.3628    1.0249 C   0  0  0  1  0  0  0  0  0  0  0  0
   -1.5569    5.1982    1.0129 C   0  0  0  1  0  0  0  0  0  0  0  0
   -2.1632    3.9487    0.9384 C   0  0  0  1  0  0  0  0  0  0  0  0
   -3.5538    3.9033    0.8715 C   0  0  0  1  0  0  0  0  0  0  0  0
   -4.3112    5.0632    0.8732 C   0  0  0  1  0  0  0  0  0  0  0  0
   -3.6829    6.2969    0.9581 C   0  0  0  1  0  0  0  0  0  0  0  0
   -1.3404    2.6821    0.9304 C   0  0  0  1  0  0  0  0  0  0  0  0
   -0.5199    5.2604    1.0605 H   0  0  0  1  0  0  0  0  0  0  0  0
   -4.0323    2.9814    0.8194 H   0  0  0  1  0  0  0  0  0  0  0  0
   -5.3479    5.0092    0.8108 H   0  0  0  1  0  0  0  0  0  0  0  0
   -4.2480    7.1699    0.9714 H   0  0  0  1  0  0  0  0  0  0  0  0
   -1.9350    1.8923    0.5209 H   0  0  0  1  0  0  0  0  0  0  0  0
   -0.4804    2.8385    0.3132 H   0  0  0  1  0  0  0  0  0  0  0  0
  1  4  1  0  0  0  0
  2  4  1  0  0  0  0
  2  5  2  0  0  0  0
  2  6  1  0  0  0  0
  3  4  1  0  0  0  0
  3  7  1  0  0  0  0
  3  8  1  0  0  0  0
  4 29  1  0  0  0  0
  6  9  1  0  0  0  0
  6 12  1  0  0  0  0
  8 10  1  0  0  0  0
  8 11  2  0  0  0  0
  9 13  1  0  0  0  0
  9 14  1  0  0  0  0
  9 15  1  0  0  0  0
 10 16  1  0  0  0  0
 10 17  1  0  0  0  0
 10 18  1  0  0  0  0
 19 20  1  0  0  0  0
 20 21  1  0  0  0  0
 20 22  1  0  0  0  0
 20 23  1  0  0  0  0
 23 24  4  0  0  0  0
 23 28  4  0  0  0  0
 24 25  4  0  0  0  0
 24 30  1  0  0  0  0
 25 26  4  0  0  0  0
 25 29  1  0  0  0  0
 26 27  4  0  0  0  0
 26 31  1  0  0  0  0
 27 28  4  0  0  0  0
 27 32  1  0  0  0  0
 28 33  1  0  0  0  0
 29 34  1  0  0  0  0
 29 35  1  0  0  0  0
M  END
> <BCLConfClusterSize>
1

> <ConfClashScore>
0 

> <ConfOneFourInteractionScore>
-0.982563 

> <ConfScore>
0.160548 

> <ConfScorePBest>
0.0035902 

> <ConfTolerance>
0.811819 

> <RosettaParamsInstructions>
M  ROOT 3
M  POLY_N_BB 3
M  POLY_CA_BB 4
M  POLY_C_BB 2
M  POLY_O_BB 5
M  POLY_IGNORE 9 10 11 12 13 14 15 16 17 18 
M  POLY_UPPER 6
M  POLY_LOWER 8
M  POLY_CHG 0
M  POLY_PROPERTIES ALPHA_AA L_AA PROTEIN AROMATIC POLYMER 
M  END

$$$$



 35 35  0  0  0  0  0  0  0  0999 V2000
    0.3975    3.6849    1.7337 H   0  0  0  1  0  0  0  0  0  0  0  0
    0.8012    1.6350    1.9061 C   0  0  0  1  0  0  0  0  0  0  0  0
    0.3876    2.8980   -0.1620 N   0  0  0  1  0  0  0  0  0  0  0  0
    0.0588    2.7900    1.2550 C   0  0  0  1  0  0  0  0  0  0  0  0
    1.1121    1.6667    3.0855 O   0  0  0  1  0  0  0  0  0  0  0  0
    1.0826    0.6036    1.1084 N   0  0  0  1  0  0  0  0  0  0  0  0
   -0.3320    2.8154   -0.8221 H   0  0  0  1  0  0  0  0  0  0  0  0
    1.6337    3.1052   -0.5905 C   0  0  0  1  0  0  0  0  0  0  0  0
    1.9460   -0.5128    1.4632 C   0  0  0  1  0  0  0  0  0  0  0  0
    1.8266    3.0756   -2.0942 C   0  0  0  1  0  0  0  0  0  0  0  0
    2.5707    3.3072    0.1642 O   0  0  0  1  0  0  0  0  0  0  0  0
    0.6773    0.5972    0.2161 H   0  0  0  1  0  0  0  0  0  0  0  0
    1.4811   -1.0936    2.2322 H   0  0  0  1  0  0  0  0  0  0  0  0
    2.8844   -0.1393    1.8167 H   0  0  0  1  0  0  0  0  0  0  0  0
    2.1076   -1.1263    0.6016 H   0  0  0  1  0  0  0  0  0  0  0  0
    2.1399    2.0977   -2.3949 H   0  0  0  1  0  0  0  0  0  0  0  0
    2.5732    3.7902   -2.3719 H   0  0  0  1  0  0  0  0  0  0  0  0
    0.9030    3.3182   -2.5769 H   0  0  0  1  0  0  0  0  0  0  0  0
   -2.4355    8.7342    0.8407 F   0  0  0  1  0  0  0  0  0  0  0  0
   -1.6122    7.7223    1.1202 C   0  0  0  1  0  0  0  0  0  0  0  0
   -0.5840    7.8348    0.2779 F   0  0  0  1  0  0  0  0  0  0  0  0
   -1.1254    7.9626    2.3384 F   0  0  0  1  0  0  0  0  0  0  0  0
   -2.2943    6.3780    1.0245 C   0  0  0  1  0  0  0  0  0  0  0  0
   -1.6044    5.2003    1.3023 C   0  0  0  1  0  0  0  0  0  0  0  0
   -2.2255    3.9654    1.2101 C   0  0  0  1  0  0  0  0  0  0  0  0
   -3.5629    3.8913    0.8501 C   0  0  0  1  0  0  0  0  0  0  0  0
   -4.2616    5.0434    0.5715 C   0  0  0  1  0  0  0  0  0  0  0  0
   -3.6315    6.2761    0.6560 C   0  0  0  1  0  0  0  0  0  0  0  0
   -1.4484    2.7032    1.5008 C   0  0  0  1  0  0  0  0  0  0  0  0
   -0.6045    5.2489    1.5842 H   0  0  0  1  0  0  0  0  0  0  0  0
   -4.0364    2.9672    0.7909 H   0  0  0  1  0  0  0  0  0  0  0  0
   -5.2633    4.9899    0.2972 H   0  0  0  1  0  0  0  0  0  0  0  0
   -4.1688    7.1400    0.4399 H   0  0  0  1  0  0  0  0  0  0  0  0
   -1.6010    2.4511    2.5294 H   0  0  0  1  0  0  0  0  0  0  0  0
   -1.8397    1.9243    0.8803 H   0  0  0  1  0  0  0  0  0  0  0  0
  1  4  1  0  0  0  0
  2  4  1  0  0  0  0
  2  5  2  0  0  0  0
  2  6  1  0  0  0  0
  3  4  1  0  0  0  0
  3  7  1  0  0  0  0
  3  8  1  0  0  0  0
  4 29  1  0  0  0  0
  6  9  1  0  0  0  0
  6 12  1  0  0  0  0
  8 10  1  0  0  0  0
  8 11  2  0  0  0  0
  9 13  1  0  0  0  0
  9 14  1  0  0  0  0
  9 15  1  0  0  0  0
 10 16  1  0  0  0  0
 10 17  1  0  0  0  0
 10 18  1  0  0  0  0
 19 20  1  0  0  0  0
 20 21  1  0  0  0  0
 20 22  1  0  0  0  0
 20 23  1  0  0  0  0
 23 24  4  0  0  0  0
 23 28  4  0  0  0  0
 24 25  4  0  0  0  0
 24 30  1  0  0  0  0
 25 26  4  0  0  0  0
 25 29  1  0  0  0  0
 26 27  4  0  0  0  0
 26 31  1  0  0  0  0
 27 28  4  0  0  0  0
 27 32  1  0  0  0  0
 28 33  1  0  0  0  0
 29 34  1  0  0  0  0
 29 35  1  0  0  0  0
M  END
> <BCLConfClusterSize>
1

> <ConfClashScore>
0 

> <ConfOneFourInteractionScore>
-0.952877 

> <ConfScore>
0.164896 

> <ConfScorePBest>
0.00356172 

> <ConfTolerance>
0.774041 

> <RosettaParamsInstructions>
M  ROOT 3
M  POLY_N_BB 3
M  POLY_CA_BB 4
M  POLY_C_BB 2
M  POLY_O_BB 5
M  POLY_IGNORE 9 10 11 12 13 14 15 16 17 18 
M  POLY_UPPER 6
M  POLY_LOWER 8
M  POLY_CHG 0
M  POLY_PROPERTIES ALPHA_AA L_AA PROTEIN AROMATIC POLYMER 
M  END

$$$$



 35 35  0  0  0  0  0  0  0  0999 V2000
   -0.8430    0.9315    1.8846 H   0  0  0  1  0  0  0  0  0  0  0  0
   -1.4151    2.3191    3.3638 C   0  0  0  1  0  0  0  0  0  0  0  0
   -2.8975    1.0675    1.8150 N   0  0  0  1  0  0  0  0  0  0  0  0
   -1.5899    1.6909    1.9857 C   0  0  0  1  0  0  0  0  0  0  0  0
   -0.3241    2.3330    3.9325 O   0  0  0  1  0  0  0  0  0  0  0  0
   -2.5457    2.8366    3.8680 N   0  0  0  1  0  0  0  0  0  0  0  0
   -3.4594    1.3876    1.0787 H   0  0  0  1  0  0  0  0  0  0  0  0
   -3.3908    0.0846    2.5934 C   0  0  0  1  0  0  0  0  0  0  0  0
   -2.5842    3.5135    5.1557 C   0  0  0  1  0  0  0  0  0  0  0  0
   -4.6783   -0.5326    2.0586 C   0  0  0  1  0  0  0  0  0  0  0  0
   -2.8771   -0.3027    3.6417 O   0  0  0  1  0  0  0  0  0  0  0  0
   -3.3744    2.7558    3.3512 H   0  0  0  1  0  0  0  0  0  0  0  0
   -3.4181    4.1834    5.1823 H   0  0  0  1  0  0  0  0  0  0  0  0
   -1.6786    4.0661    5.2951 H   0  0  0  1  0  0  0  0  0  0  0  0
   -2.6841    2.7888    5.9365 H   0  0  0  1  0  0  0  0  0  0  0  0
   -5.5144    0.0563    2.3735 H   0  0  0  1  0  0  0  0  0  0  0  0
   -4.7805   -1.5280    2.4376 H   0  0  0  1  0  0  0  0  0  0  0  0
   -4.6435   -0.5592    0.9895 H   0  0  0  1  0  0  0  0  0  0  0  0
   -0.5685    7.7981    0.2953 F   0  0  0  1  0  0  0  0  0  0  0  0
   -1.6191    7.7048    1.1123 C   0  0  0  1  0  0  0  0  0  0  0  0
   -1.1626    7.9668    2.3380 F   0  0  0  1  0  0  0  0  0  0  0  0
   -2.4314    8.7131    0.7927 F   0  0  0  1  0  0  0  0  0  0  0  0
   -2.3028    6.3608    1.0245 C   0  0  0  1  0  0  0  0  0  0  0  0
   -1.5491    5.2028    0.9932 C   0  0  0  1  0  0  0  0  0  0  0  0
   -2.1766    3.9690    0.9180 C   0  0  0  1  0  0  0  0  0  0  0  0
   -3.5560    3.8973    0.8689 C   0  0  0  1  0  0  0  0  0  0  0  0
   -4.3121    5.0588    0.9003 C   0  0  0  1  0  0  0  0  0  0  0  0
   -3.6862    6.2888    0.9752 C   0  0  0  1  0  0  0  0  0  0  0  0
   -1.3530    2.7032    0.8897 C   0  0  0  1  0  0  0  0  0  0  0  0
   -0.5111    5.2570    1.0261 H   0  0  0  1  0  0  0  0  0  0  0  0
   -4.0267    2.9719    0.8085 H   0  0  0  1  0  0  0  0  0  0  0  0
   -5.3502    5.0046    0.8674 H   0  0  0  1  0  0  0  0  0  0  0  0
   -4.2533    7.1604    0.9947 H   0  0  0  1  0  0  0  0  0  0  0  0
   -1.5464    2.2162   -0.0432 H   0  0  0  1  0  0  0  0  0  0  0  0
   -0.3232    2.9902    0.9361 H   0  0  0  1  0  0  0  0  0  0  0  0
  1  4  1  0  0  0  0
  2  4  1  0  0  0  0
  2  5  2  0  0  0  0
  2  6  1  0  0  0  0
  3  4  1  0  0  0  0
  3  7  1  0  0  0  0
  3  8  1  0  0  0  0
  4 29  1  0  0  0  0
  6  9  1  0  0  0  0
  6 12  1  0  0  0  0
  8 10  1  0  0  0  0
  8 11  2  0  0  0  0
  9 13  1  0  0  0  0
  9 14  1  0  0  0  0
  9 15  1  0  0  0  0
 10 16  1  0  0  0  0
 10 17  1  0  0  0  0
 10 18  1  0  0  0  0
 19 20  1  0  0  0  0
 20 21  1  0  0  0  0
 20 22  1  0  0  0  0
 20 23  1  0  0  0  0
 23 24  4  0  0  0  0
 23 28  4  0  0  0  0
 24 25  4  0  0  0  0
 24 30  1  0  0  0  0
 25 26  4  0  0  0  0
 25 29  1  0  0  0  0
 26 27  4  0  0  0  0
 26 31  1  0  0  0  0
 27 28  4  0  0  0  0
 27 32  1  0  0  0  0
 28 33  1  0  0  0  0
 29 34  1  0  0  0  0
 29 35  1  0  0  0  0
M  END
> <BCLConfClusterSize>
1

> <ConfClashScore>
0 

> <ConfOneFourInteractionScore>
-0.957074 

> <ConfScore>
0.17458 

> <ConfScorePBest>
0.00353324 

> <ConfTolerance>
0.732571 

> <RosettaParamsInstructions>
M  ROOT 3
M  POLY_N_BB 3
M  POLY_CA_BB 4
M  POLY_C_BB 2
M  POLY_O_BB 5
M  POLY_IGNORE 9 10 11 12 13 14 15 16 17 18 
M  POLY_UPPER 6
M  POLY_LOWER 8
M  POLY_CHG 0
M  POLY_PROPERTIES ALPHA_AA L_AA PROTEIN AROMATIC POLYMER 
M  END

$$$$



 35 35  0  0  0  0  0  0  0  0999 V2000
   -0.9948    2.2924   -0.4869 H   0  0  0  1  0  0  0  0  0  0  0  0
   -0.6282    0.5107    0.5430 C   0  0  0  1  0  0  0  0  0  0  0  0
   -2.8164    1.4452   -0.1403 N   0  0  0  1  0  0  0  0  0  0  0  0
   -1.4704    1.7633    0.3123 C   0  0  0  1  0  0  0  0  0  0  0  0
   -1.1249   -0.5683    0.8104 O   0  0  0  1  0  0  0  0  0  0  0  0
    0.7018    0.5961    0.4493 N   0  0  0  1  0  0  0  0  0  0  0  0
   -3.5062    1.2000    0.5112 H   0  0  0  1  0  0  0  0  0  0  0  0
   -3.1137    1.4868   -1.4422 C   0  0  0  1  0  0  0  0  0  0  0  0
    1.5740   -0.5393    0.7103 C   0  0  0  1  0  0  0  0  0  0  0  0
   -4.5843    1.3527   -1.7866 C   0  0  0  1  0  0  0  0  0  0  0  0
   -2.2624    1.6245   -2.3197 O   0  0  0  1  0  0  0  0  0  0  0  0
    1.1040    1.4531    0.1961 H   0  0  0  1  0  0  0  0  0  0  0  0
    1.5117   -1.2319   -0.1029 H   0  0  0  1  0  0  0  0  0  0  0  0
    1.2686   -1.0229    1.6146 H   0  0  0  1  0  0  0  0  0  0  0  0
    2.5830   -0.1978    0.8111 H   0  0  0  1  0  0  0  0  0  0  0  0
   -5.1336    2.1447   -1.3220 H   0  0  0  1  0  0  0  0  0  0  0  0
   -4.9488    0.4109   -1.4330 H   0  0  0  1  0  0  0  0  0  0  0  0
   -4.7082    1.4080   -2.8480 H   0  0  0  1  0  0  0  0  0  0  0  0
   -2.4555    8.7010    0.8404 F   0  0  0  1  0  0  0  0  0  0  0  0
   -1.6147    7.7118    1.1133 C   0  0  0  1  0  0  0  0  0  0  0  0
   -0.6017    7.8064    0.2762 F   0  0  0  1  0  0  0  0  0  0  0  0
   -1.1388    7.9248    2.3349 F   0  0  0  1  0  0  0  0  0  0  0  0
   -2.3010    6.3647    1.0218 C   0  0  0  1  0  0  0  0  0  0  0  0
   -1.5938    5.2061    1.3027 C   0  0  0  1  0  0  0  0  0  0  0  0
   -2.2187    3.9766    1.2140 C   0  0  0  1  0  0  0  0  0  0  0  0
   -3.5540    3.9023    0.8494 C   0  0  0  1  0  0  0  0  0  0  0  0
   -4.2591    5.0576    0.5693 C   0  0  0  1  0  0  0  0  0  0  0  0
   -3.6324    6.2909    0.6582 C   0  0  0  1  0  0  0  0  0  0  0  0
   -1.4466    2.7137    1.5144 C   0  0  0  1  0  0  0  0  0  0  0  0
   -0.5931    5.2621    1.5802 H   0  0  0  1  0  0  0  0  0  0  0  0
   -4.0253    2.9773    0.7866 H   0  0  0  1  0  0  0  0  0  0  0  0
   -5.2598    5.0017    0.2919 H   0  0  0  1  0  0  0  0  0  0  0  0
   -4.1641    7.1605    0.4514 H   0  0  0  1  0  0  0  0  0  0  0  0
   -0.4321    2.9681    1.7405 H   0  0  0  1  0  0  0  0  0  0  0  0
   -1.8884    2.2244    2.3572 H   0  0  0  1  0  0  0  0  0  0  0  0
  1  4  1  0  0  0  0
  2  4  1  0  0  0  0
  2  5  2  0  0  0  0
  2  6  1  0  0  0  0
  3  4  1  0  0  0  0
  3  7  1  0  0  0  0
  3  8  1  0  0  0  0
  4 29  1  0  0  0  0
  6  9  1  0  0  0  0
  6 12  1  0  0  0  0
  8 10  1  0  0  0  0
  8 11  2  0  0  0  0
  9 13  1  0  0  0  0
  9 14  1  0  0  0  0
  9 15  1  0  0  0  0
 10 16  1  0  0  0  0
 10 17  1  0  0  0  0
 10 18  1  0  0  0  0
 19 20  1  0  0  0  0
 20 21  1  0  0  0  0
 20 22  1  0  0  0  0
 20 23  1  0  0  0  0
 23 24  4  0  0  0  0
 23 28  4  0  0  0  0
 24 25  4  0  0  0  0
 24 30  1  0  0  0  0
 25 26  4  0  0  0  0
 25 29  1  0  0  0  0
 26 27  4  0  0  0  0
 26 31  1  0  0  0  0
 27 28  4  0  0  0  0
 27 32  1  0  0  0  0
 28 33  1  0  0  0  0
 29 34  1  0  0  0  0
 29 35  1  0  0  0  0
M  END
> <BCLConfClusterSize>
1

> <ConfClashScore>
0 

> <ConfOneFourInteractionScore>
-0.981931 

> <ConfScore>
0.175209 

> <ConfScorePBest>
0.00350476 

> <ConfTolerance>
0.603749 

> <RosettaParamsInstructions>
M  ROOT 3
M  POLY_N_BB 3
M  POLY_CA_BB 4
M  POLY_C_BB 2
M  POLY_O_BB 5
M  POLY_IGNORE 9 10 11 12 13 14 15 16 17 18 
M  POLY_UPPER 6
M  POLY_LOWER 8
M  POLY_CHG 0
M  POLY_PROPERTIES ALPHA_AA L_AA PROTEIN AROMATIC POLYMER 
M  END

$$$$



 35 35  0  0  0  0  0  0  0  0999 V2000
    0.3410    3.4219    2.1568 H   0  0  0  1  0  0  0  0  0  0  0  0
   -1.1028    2.9479    3.6325 C   0  0  0  1  0  0  0  0  0  0  0  0
    0.2783    1.3669    2.3802 N   0  0  0  1  0  0  0  0  0  0  0  0
   -0.3909    2.6575    2.3146 C   0  0  0  1  0  0  0  0  0  0  0  0
   -1.8814    2.1310    4.1225 O   0  0  0  1  0  0  0  0  0  0  0  0
   -0.8553    4.1136    4.2366 N   0  0  0  1  0  0  0  0  0  0  0  0
   -0.2577    0.5643    2.5503 H   0  0  0  1  0  0  0  0  0  0  0  0
    1.6044    1.2375    2.2159 C   0  0  0  1  0  0  0  0  0  0  0  0
   -1.5238    4.5088    5.4674 C   0  0  0  1  0  0  0  0  0  0  0  0
    2.1484   -0.1673    2.3453 C   0  0  0  1  0  0  0  0  0  0  0  0
    2.3443    2.1878    1.9753 O   0  0  0  1  0  0  0  0  0  0  0  0
   -0.2008    4.7238    3.8369 H   0  0  0  1  0  0  0  0  0  0  0  0
   -2.5232    4.1267    5.4696 H   0  0  0  1  0  0  0  0  0  0  0  0
   -1.5503    5.5765    5.5316 H   0  0  0  1  0  0  0  0  0  0  0  0
   -0.9893    4.1137    6.3059 H   0  0  0  1  0  0  0  0  0  0  0  0
    1.5774   -0.8297    1.7288 H   0  0  0  1  0  0  0  0  0  0  0  0
    2.0810   -0.4830    3.3655 H   0  0  0  1  0  0  0  0  0  0  0  0
    3.1718   -0.1834    2.0334 H   0  0  0  1  0  0  0  0  0  0  0  0
   -1.8282    8.4375    0.0255 F   0  0  0  1  0  0  0  0  0  0  0  0
   -1.6212    7.7082    1.1233 C   0  0  0  1  0  0  0  0  0  0  0  0
   -0.2996    7.5752    1.2451 F   0  0  0  1  0  0  0  0  0  0  0  0
   -2.0435    8.4310    2.1616 F   0  0  0  1  0  0  0  0  0  0  0  0
   -2.3031    6.3639    1.0275 C   0  0  0  1  0  0  0  0  0  0  0  0
   -1.5592    5.2032    1.1256 C   0  0  0  1  0  0  0  0  0  0  0  0
   -2.1858    3.9694    1.0430 C   0  0  0  1  0  0  0  0  0  0  0  0
   -3.5536    3.9000    0.8573 C   0  0  0  1  0  0  0  0  0  0  0  0
   -4.2996    5.0642    0.7590 C   0  0  0  1  0  0  0  0  0  0  0  0
   -3.6750    6.2944    0.8413 C   0  0  0  1  0  0  0  0  0  0  0  0
   -1.3737    2.7009    1.1560 C   0  0  0  1  0  0  0  0  0  0  0  0
   -0.5294    5.2554    1.2612 H   0  0  0  1  0  0  0  0  0  0  0  0
   -4.0232    2.9744    0.7914 H   0  0  0  1  0  0  0  0  0  0  0  0
   -5.3294    5.0120    0.6234 H   0  0  0  1  0  0  0  0  0  0  0  0
   -4.2342    7.1678    0.7636 H   0  0  0  1  0  0  0  0  0  0  0  0
   -2.0537    1.8826    1.2691 H   0  0  0  1  0  0  0  0  0  0  0  0
   -0.8195    2.5819    0.2484 H   0  0  0  1  0  0  0  0  0  0  0  0
  1  4  1  0  0  0  0
  2  4  1  0  0  0  0
  2  5  2  0  0  0  0
  2  6  1  0  0  0  0
  3  4  1  0  0  0  0
  3  7  1  0  0  0  0
  3  8  1  0  0  0  0
  4 29  1  0  0  0  0
  6  9  1  0  0  0  0
  6 12  1  0  0  0  0
  8 10  1  0  0  0  0
  8 11  2  0  0  0  0
  9 13  1  0  0  0  0
  9 14  1  0  0  0  0
  9 15  1  0  0  0  0
 10 16  1  0  0  0  0
 10 17  1  0  0  0  0
 10 18  1  0  0  0  0
 19 20  1  0  0  0  0
 20 21  1  0  0  0  0
 20 22  1  0  0  0  0
 20 23  1  0  0  0  0
 23 24  4  0  0  0  0
 23 28  4  0  0  0  0
 24 25  4  0  0  0  0
 24 30  1  0  0  0  0
 25 26  4  0  0  0  0
 25 29  1  0  0  0  0
 26 27  4  0  0  0  0
 26 31  1  0  0  0  0
 27 28  4  0  0  0  0
 27 32  1  0  0  0  0
 28 33  1  0  0  0  0
 29 34  1  0  0  0  0
 29 35  1  0  0  0  0
M  END
> <BCLConfClusterSize>
1

> <ConfClashScore>
0 

> <ConfOneFourInteractionScore>
-0.990503 

> <ConfScore>
0.17873 

> <ConfScorePBest>
0.00347628 

> <ConfTolerance>
0.633833 

> <RosettaParamsInstructions>
M  ROOT 3
M  POLY_N_BB 3
M  POLY_CA_BB 4
M  POLY_C_BB 2
M  POLY_O_BB 5
M  POLY_IGNORE 9 10 11 12 13 14 15 16 17 18 
M  POLY_UPPER 6
M  POLY_LOWER 8
M  POLY_CHG 0
M  POLY_PROPERTIES ALPHA_AA L_AA PROTEIN AROMATIC POLYMER 
M  END

$$$$



 35 35  0  0  0  0  0  0  0  0999 V2000
   -0.0941    1.4041    0.2772 H   0  0  0  1  0  0  0  0  0  0  0  0
   -1.5266    2.1405   -1.0870 C   0  0  0  1  0  0  0  0  0  0  0  0
    0.3923    3.3581   -0.2008 N   0  0  0  1  0  0  0  0  0  0  0  0
   -0.5988    2.3303    0.0972 C   0  0  0  1  0  0  0  0  0  0  0  0
   -2.2974    3.0308   -1.4433 O   0  0  0  1  0  0  0  0  0  0  0  0
   -1.4465    0.9520   -1.7060 N   0  0  0  1  0  0  0  0  0  0  0  0
    0.0854    4.2666   -0.4028 H   0  0  0  1  0  0  0  0  0  0  0  0
    1.7039    3.1041   -0.2080 C   0  0  0  1  0  0  0  0  0  0  0  0
   -2.3476    0.4959   -2.7538 C   0  0  0  1  0  0  0  0  0  0  0  0
    2.6013    4.2825   -0.5326 C   0  0  0  1  0  0  0  0  0  0  0  0
    2.1714    1.9937    0.0306 O   0  0  0  1  0  0  0  0  0  0  0  0
   -0.7270    0.3458   -1.4317 H   0  0  0  1  0  0  0  0  0  0  0  0
   -3.2632    1.0473   -2.7024 H   0  0  0  1  0  0  0  0  0  0  0  0
   -2.5511   -0.5460   -2.6202 H   0  0  0  1  0  0  0  0  0  0  0  0
   -1.8912    0.6511   -3.7090 H   0  0  0  1  0  0  0  0  0  0  0  0
    2.5985    4.4533   -1.5888 H   0  0  0  1  0  0  0  0  0  0  0  0
    3.5988    4.0707   -0.2084 H   0  0  0  1  0  0  0  0  0  0  0  0
    2.2399    5.1549   -0.0295 H   0  0  0  1  0  0  0  0  0  0  0  0
   -0.6579    7.7083    2.0210 F   0  0  0  1  0  0  0  0  0  0  0  0
   -1.6298    7.7113    1.1070 C   0  0  0  1  0  0  0  0  0  0  0  0
   -2.4364    8.6730    1.4923 F   0  0  0  1  0  0  0  0  0  0  0  0
   -1.0413    8.0753   -0.0061 F   0  0  0  1  0  0  0  0  0  0  0  0
   -2.3108    6.3665    1.0110 C   0  0  0  1  0  0  0  0  0  0  0  0
   -1.5821    5.2037    1.2012 C   0  0  0  1  0  0  0  0  0  0  0  0
   -2.1891    3.9519    1.1334 C   0  0  0  1  0  0  0  0  0  0  0  0
   -3.5524    3.9048    0.8624 C   0  0  0  1  0  0  0  0  0  0  0  0
   -4.2855    5.0650    0.6612 C   0  0  0  1  0  0  0  0  0  0  0  0
   -3.6674    6.2923    0.7322 C   0  0  0  1  0  0  0  0  0  0  0  0
   -1.3926    2.6865    1.3473 C   0  0  0  1  0  0  0  0  0  0  0  0
   -0.5628    5.2667    1.3983 H   0  0  0  1  0  0  0  0  0  0  0  0
   -4.0309    2.9830    0.8096 H   0  0  0  1  0  0  0  0  0  0  0  0
   -5.3035    5.0072    0.4565 H   0  0  0  1  0  0  0  0  0  0  0  0
   -4.2161    7.1620    0.5772 H   0  0  0  1  0  0  0  0  0  0  0  0
   -0.7157    2.8317    2.1632 H   0  0  0  1  0  0  0  0  0  0  0  0
   -2.0628    1.8848    1.5776 H   0  0  0  1  0  0  0  0  0  0  0  0
  1  4  1  0  0  0  0
  2  4  1  0  0  0  0
  2  5  2  0  0  0  0
  2  6  1  0  0  0  0
  3  4  1  0  0  0  0
  3  7  1  0  0  0  0
  3  8  1  0  0  0  0
  4 29  1  0  0  0  0
  6  9  1  0  0  0  0
  6 12  1  0  0  0  0
  8 10  1  0  0  0  0
  8 11  2  0  0  0  0
  9 13  1  0  0  0  0
  9 14  1  0  0  0  0
  9 15  1  0  0  0  0
 10 16  1  0  0  0  0
 10 17  1  0  0  0  0
 10 18  1  0  0  0  0
 19 20  1  0  0  0  0
 20 21  1  0  0  0  0
 20 22  1  0  0  0  0
 20 23  1  0  0  0  0
 23 24  4  0  0  0  0
 23 28  4  0  0  0  0
 24 25  4  0  0  0  0
 24 30  1  0  0  0  0
 25 26  4  0  0  0  0
 25 29  1  0  0  0  0
 26 27  4  0  0  0  0
 26 31  1  0  0  0  0
 27 28  4  0  0  0  0
 27 32  1  0  0  0  0
 28 33  1  0  0  0  0
 29 34  1  0  0  0  0
 29 35  1  0  0  0  0
M  END
> <BCLConfClusterSize>
1

> <ConfClashScore>
0 

> <ConfOneFourInteractionScore>
-0.980586 

> <ConfScore>
0.178754 

> <ConfScorePBest>
0.0034478 

> <ConfTolerance>
0.58644 

> <RosettaParamsInstructions>
M  ROOT 3
M  POLY_N_BB 3
M  POLY_CA_BB 4
M  POLY_C_BB 2
M  POLY_O_BB 5
M  POLY_IGNORE 9 10 11 12 13 14 15 16 17 18 
M  POLY_UPPER 6
M  POLY_LOWER 8
M  POLY_CHG 0
M  POLY_PROPERTIES ALPHA_AA L_AA PROTEIN AROMATIC POLYMER 
M  END

$$$$



 35 35  0  0  0  0  0  0  0  0999 V2000
   -1.2322    2.4697    2.9746 H   0  0  0  1  0  0  0  0  0  0  0  0
    0.0365    1.0135    2.1232 C   0  0  0  1  0  0  0  0  0  0  0  0
    0.4678    3.4213    2.2855 N   0  0  0  1  0  0  0  0  0  0  0  0
   -0.5633    2.4060    2.1419 C   0  0  0  1  0  0  0  0  0  0  0  0
    1.2011    0.8176    1.7783 O   0  0  0  1  0  0  0  0  0  0  0  0
   -0.8171    0.0531    2.5118 N   0  0  0  1  0  0  0  0  0  0  0  0
    0.5970    4.0698    1.5622 H   0  0  0  1  0  0  0  0  0  0  0  0
    1.2452    3.5007    3.3692 C   0  0  0  1  0  0  0  0  0  0  0  0
   -0.4850   -1.3615    2.4308 C   0  0  0  1  0  0  0  0  0  0  0  0
    2.3313    4.5578    3.3247 C   0  0  0  1  0  0  0  0  0  0  0  0
    1.1051    2.7774    4.3417 O   0  0  0  1  0  0  0  0  0  0  0  0
   -1.6945    0.3136    2.8623 H   0  0  0  1  0  0  0  0  0  0  0  0
    0.5245   -1.4726    2.0940 H   0  0  0  1  0  0  0  0  0  0  0  0
   -1.1459   -1.8438    1.7413 H   0  0  0  1  0  0  0  0  0  0  0  0
   -0.5894   -1.8080    3.3976 H   0  0  0  1  0  0  0  0  0  0  0  0
    3.2823    4.1005    3.5021 H   0  0  0  1  0  0  0  0  0  0  0  0
    2.1435    5.2936    4.0785 H   0  0  0  1  0  0  0  0  0  0  0  0
    2.3345    5.0252    2.3623 H   0  0  0  1  0  0  0  0  0  0  0  0
   -0.6188    7.8468    0.2275 F   0  0  0  1  0  0  0  0  0  0  0  0
   -1.6103    7.7219    1.1114 C   0  0  0  1  0  0  0  0  0  0  0  0
   -1.0711    7.9461    2.3107 F   0  0  0  1  0  0  0  0  0  0  0  0
   -2.4454    8.7361    0.8817 F   0  0  0  1  0  0  0  0  0  0  0  0
   -2.2950    6.3782    1.0268 C   0  0  0  1  0  0  0  0  0  0  0  0
   -1.5593    5.1982    0.9973 C   0  0  0  1  0  0  0  0  0  0  0  0
   -2.1852    3.9632    0.9153 C   0  0  0  1  0  0  0  0  0  0  0  0
   -3.5582    3.8877    0.8658 C   0  0  0  1  0  0  0  0  0  0  0  0
   -4.3148    5.0496    0.9038 C   0  0  0  1  0  0  0  0  0  0  0  0
   -3.6835    6.2806    0.9759 C   0  0  0  1  0  0  0  0  0  0  0  0
   -1.3585    2.6995    0.8803 C   0  0  0  1  0  0  0  0  0  0  0  0
   -0.5210    5.2428    1.0375 H   0  0  0  1  0  0  0  0  0  0  0  0
   -4.0274    2.9619    0.8000 H   0  0  0  1  0  0  0  0  0  0  0  0
   -5.3532    4.9967    0.8784 H   0  0  0  1  0  0  0  0  0  0  0  0
   -4.2570    7.1480    0.9922 H   0  0  0  1  0  0  0  0  0  0  0  0
   -2.0206    1.8767    0.7085 H   0  0  0  1  0  0  0  0  0  0  0  0
   -0.6686    2.7789    0.0662 H   0  0  0  1  0  0  0  0  0  0  0  0
  1  4  1  0  0  0  0
  2  4  1  0  0  0  0
  2  5  2  0  0  0  0
  2  6  1  0  0  0  0
  3  4  1  0  0  0  0
  3  7  1  0  0  0  0
  3  8  1  0  0  0  0
  4 29  1  0  0  0  0
  6  9  1  0  0  0  0
  6 12  1  0  0  0  0
  8 10  1  0  0  0  0
  8 11  2  0  0  0  0
  9 13  1  0  0  0  0
  9 14  1  0  0  0  0
  9 15  1  0  0  0  0
 10 16  1  0  0  0  0
 10 17  1  0  0  0  0
 10 18  1  0  0  0  0
 19 20  1  0  0  0  0
 20 21  1  0  0  0  0
 20 22  1  0  0  0  0
 20 23  1  0  0  0  0
 23 24  4  0  0  0  0
 23 28  4  0  0  0  0
 24 25  4  0  0  0  0
 24 30  1  0  0  0  0
 25 26  4  0  0  0  0
 25 29  1  0  0  0  0
 26 27  4  0  0  0  0
 26 31  1  0  0  0  0
 27 28  4  0  0  0  0
 27 32  1  0  0  0  0
 28 33  1  0  0  0  0
 29 34  1  0  0  0  0
 29 35  1  0  0  0  0
M  END
> <BCLConfClusterSize>
1

> <ConfClashScore>
0 

> <ConfOneFourInteractionScore>
-0.981931 

> <ConfScore>
0.183751 

> <ConfScorePBest>
0.00341932 

> <ConfTolerance>
0.721269 

> <RosettaParamsInstructions>
M  ROOT 3
M  POLY_N_BB 3
M  POLY_CA_BB 4
M  POLY_C_BB 2
M  POLY_O_BB 5
M  POLY_IGNORE 9 10 11 12 13 14 15 16 17 18 
M  POLY_UPPER 6
M  POLY_LOWER 8
M  POLY_CHG 0
M  POLY_PROPERTIES ALPHA_AA L_AA PROTEIN AROMATIC POLYMER 
M  END

$$$$



 35 35  0  0  0  0  0  0  0  0999 V2000
   -1.3227    0.9024    2.3155 H   0  0  0  1  0  0  0  0  0  0  0  0
   -1.9150    2.3797    3.6837 C   0  0  0  1  0  0  0  0  0  0  0  0
   -3.3064    1.3144    1.9837 N   0  0  0  1  0  0  0  0  0  0  0  0
   -1.9462    1.7712    2.2814 C   0  0  0  1  0  0  0  0  0  0  0  0
   -2.8639    3.0437    4.0926 O   0  0  0  1  0  0  0  0  0  0  0  0
   -0.7840    2.2305    4.3899 N   0  0  0  1  0  0  0  0  0  0  0  0
   -4.0628    1.8825    2.2397 H   0  0  0  1  0  0  0  0  0  0  0  0
   -3.5537    0.1390    1.3692 C   0  0  0  1  0  0  0  0  0  0  0  0
   -0.6292    2.9013    5.6721 C   0  0  0  1  0  0  0  0  0  0  0  0
   -4.9962   -0.3117    1.2465 C   0  0  0  1  0  0  0  0  0  0  0  0
   -2.6380   -0.5483    0.9211 O   0  0  0  1  0  0  0  0  0  0  0  0
   -0.0606    1.6685    4.0416 H   0  0  0  1  0  0  0  0  0  0  0  0
   -1.5355    3.4138    5.9188 H   0  0  0  1  0  0  0  0  0  0  0  0
    0.1735    3.6063    5.6108 H   0  0  0  1  0  0  0  0  0  0  0  0
   -0.4117    2.1773    6.4292 H   0  0  0  1  0  0  0  0  0  0  0  0
   -5.3931   -0.5083    2.2205 H   0  0  0  1  0  0  0  0  0  0  0  0
   -5.0422   -1.2030    0.6563 H   0  0  0  1  0  0  0  0  0  0  0  0
   -5.5714    0.4583    0.7760 H   0  0  0  1  0  0  0  0  0  0  0  0
   -0.4055    7.6342    1.6532 F   0  0  0  1  0  0  0  0  0  0  0  0
   -1.6186    7.7024    1.1022 C   0  0  0  1  0  0  0  0  0  0  0  0
   -2.2891    8.5603    1.8728 F   0  0  0  1  0  0  0  0  0  0  0  0
   -1.4889    8.2996   -0.0644 F   0  0  0  1  0  0  0  0  0  0  0  0
   -2.3073    6.3608    1.0164 C   0  0  0  1  0  0  0  0  0  0  0  0
   -1.5669    5.1936    1.1304 C   0  0  0  1  0  0  0  0  0  0  0  0
   -2.1751    3.9448    1.0596 C   0  0  0  1  0  0  0  0  0  0  0  0
   -3.5538    3.9026    0.8656 C   0  0  0  1  0  0  0  0  0  0  0  0
   -4.2974    5.0648    0.7412 C   0  0  0  1  0  0  0  0  0  0  0  0
   -3.6685    6.2982    0.8252 C   0  0  0  1  0  0  0  0  0  0  0  0
   -1.3667    2.6754    1.1888 C   0  0  0  1  0  0  0  0  0  0  0  0
   -0.5382    5.2532    1.2714 H   0  0  0  1  0  0  0  0  0  0  0  0
   -4.0339    2.9815    0.8132 H   0  0  0  1  0  0  0  0  0  0  0  0
   -5.3243    5.0126    0.5851 H   0  0  0  1  0  0  0  0  0  0  0  0
   -4.2244    7.1734    0.7440 H   0  0  0  1  0  0  0  0  0  0  0  0
   -1.3831    2.1525    0.2555 H   0  0  0  1  0  0  0  0  0  0  0  0
   -0.3573    2.9264    1.4400 H   0  0  0  1  0  0  0  0  0  0  0  0
  1  4  1  0  0  0  0
  2  4  1  0  0  0  0
  2  5  2  0  0  0  0
  2  6  1  0  0  0  0
  3  4  1  0  0  0  0
  3  7  1  0  0  0  0
  3  8  1  0  0  0  0
  4 29  1  0  0  0  0
  6  9  1  0  0  0  0
  6 12  1  0  0  0  0
  8 10  1  0  0  0  0
  8 11  2  0  0  0  0
  9 13  1  0  0  0  0
  9 14  1  0  0  0  0
  9 15  1  0  0  0  0
 10 16  1  0  0  0  0
 10 17  1  0  0  0  0
 10 18  1  0  0  0  0
 19 20  1  0  0  0  0
 20 21  1  0  0  0  0
 20 22  1  0  0  0  0
 20 23  1  0  0  0  0
 23 24  4  0  0  0  0
 23 28  4  0  0  0  0
 24 25  4  0  0  0  0
 24 30  1  0  0  0  0
 25 26  4  0  0  0  0
 25 29  1  0  0  0  0
 26 27  4  0  0  0  0
 26 31  1  0  0  0  0
 27 28  4  0  0  0  0
 27 32  1  0  0  0  0
 28 33  1  0  0  0  0
 29 34  1  0  0  0  0
 29 35  1  0  0  0  0
M  END
> <BCLConfClusterSize>
1

> <ConfClashScore>
0 

> <ConfOneFourInteractionScore>
-0.980789 

> <ConfScore>
0.184496 

> <ConfScorePBest>
0.00339084 

> <ConfTolerance>
0.83482 

> <RosettaParamsInstructions>
M  ROOT 3
M  POLY_N_BB 3
M  POLY_CA_BB 4
M  POLY_C_BB 2
M  POLY_O_BB 5
M  POLY_IGNORE 9 10 11 12 13 14 15 16 17 18 
M  POLY_UPPER 6
M  POLY_LOWER 8
M  POLY_CHG 0
M  POLY_PROPERTIES ALPHA_AA L_AA PROTEIN AROMATIC POLYMER 
M  END

$$$$



 35 35  0  0  0  0  0  0  0  0999 V2000
    0.0475    1.6360    2.2109 H   0  0  0  1  0  0  0  0  0  0  0  0
    0.3644    3.6613    2.6836 C   0  0  0  1  0  0  0  0  0  0  0  0
   -1.4989    2.2121    3.4497 N   0  0  0  1  0  0  0  0  0  0  0  0
   -0.5660    2.5007    2.3548 C   0  0  0  1  0  0  0  0  0  0  0  0
    1.5335    3.6790    2.3008 O   0  0  0  1  0  0  0  0  0  0  0  0
   -0.2154    4.6275    3.4119 N   0  0  0  1  0  0  0  0  0  0  0  0
   -2.4613    2.2177    3.2649 H   0  0  0  1  0  0  0  0  0  0  0  0
   -1.0820    1.9420    4.6900 C   0  0  0  1  0  0  0  0  0  0  0  0
    0.4531    5.8862    3.7064 C   0  0  0  1  0  0  0  0  0  0  0  0
   -2.1699    1.6072    5.7140 C   0  0  0  1  0  0  0  0  0  0  0  0
    0.0869    1.9395    5.0737 O   0  0  0  1  0  0  0  0  0  0  0  0
   -1.1205    4.4805    3.7577 H   0  0  0  1  0  0  0  0  0  0  0  0
   -0.2787    6.6460    3.8855 H   0  0  0  1  0  0  0  0  0  0  0  0
    1.0638    6.1686    2.8744 H   0  0  0  1  0  0  0  0  0  0  0  0
    1.0658    5.7695    4.5758 H   0  0  0  1  0  0  0  0  0  0  0  0
   -2.7190    0.7500    5.3844 H   0  0  0  1  0  0  0  0  0  0  0  0
   -2.8346    2.4398    5.8129 H   0  0  0  1  0  0  0  0  0  0  0  0
   -1.7164    1.3978    6.6602 H   0  0  0  1  0  0  0  0  0  0  0  0
   -1.6603    8.3979   -0.0338 F   0  0  0  1  0  0  0  0  0  0  0  0
   -1.6116    7.7223    1.1156 C   0  0  0  1  0  0  0  0  0  0  0  0
   -0.3201    7.6190    1.4329 F   0  0  0  1  0  0  0  0  0  0  0  0
   -2.1607    8.5141    2.0377 F   0  0  0  1  0  0  0  0  0  0  0  0
   -2.2948    6.3782    1.0262 C   0  0  0  1  0  0  0  0  0  0  0  0
   -1.5647    5.1942    1.0998 C   0  0  0  1  0  0  0  0  0  0  0  0
   -2.1875    3.9598    1.0126 C   0  0  0  1  0  0  0  0  0  0  0  0
   -3.5649    3.8913    0.8645 C   0  0  0  1  0  0  0  0  0  0  0  0
   -4.3037    5.0496    0.7896 C   0  0  0  1  0  0  0  0  0  0  0  0
   -3.6732    6.2826    0.8676 C   0  0  0  1  0  0  0  0  0  0  0  0
   -1.3689    2.6921    1.0785 C   0  0  0  1  0  0  0  0  0  0  0  0
   -0.5329    5.2377    1.2225 H   0  0  0  1  0  0  0  0  0  0  0  0
   -4.0380    2.9667    0.8102 H   0  0  0  1  0  0  0  0  0  0  0  0
   -5.3361    5.0006    0.6743 H   0  0  0  1  0  0  0  0  0  0  0  0
   -4.2415    7.1514    0.8065 H   0  0  0  1  0  0  0  0  0  0  0  0
   -2.0372    1.8622    0.9814 H   0  0  0  1  0  0  0  0  0  0  0  0
   -0.6847    2.6979    0.2559 H   0  0  0  1  0  0  0  0  0  0  0  0
  1  4  1  0  0  0  0
  2  4  1  0  0  0  0
  2  5  2  0  0  0  0
  2  6  1  0  0  0  0
  3  4  1  0  0  0  0
  3  7  1  0  0  0  0
  3  8  1  0  0  0  0
  4 29  1  0  0  0  0
  6  9  1  0  0  0  0
  6 12  1  0  0  0  0
  8 10  1  0  0  0  0
  8 11  2  0  0  0  0
  9 13  1  0  0  0  0
  9 14  1  0  0  0  0
  9 15  1  0  0  0  0
 10 16  1  0  0  0  0
 10 17  1  0  0  0  0
 10 18  1  0  0  0  0
 19 20  1  0  0  0  0
 20 21  1  0  0  0  0
 20 22  1  0  0  0  0
 20 23  1  0  0  0  0
 23 24  4  0  0  0  0
 23 28  4  0  0  0  0
 24 25  4  0  0  0  0
 24 30  1  0  0  0  0
 25 26  4  0  0  0  0
 25 29  1  0  0  0  0
 26 27  4  0  0  0  0
 26 31  1  0  0  0  0
 27 28  4  0  0  0  0
 27 32  1  0  0  0  0
 28 33  1  0  0  0  0
 29 34  1  0  0  0  0
 29 35  1  0  0  0  0
M  END
> <BCLConfClusterSize>
1

> <ConfClashScore>
0 

> <ConfOneFourInteractionScore>
-0.957074 

> <ConfScore>
0.187389 

> <ConfScorePBest>
0.00336236 

> <ConfTolerance>
0.934266 

> <RosettaParamsInstructions>
M  ROOT 3
M  POLY_N_BB 3
M  POLY_CA_BB 4
M  POLY_C_BB 2
M  POLY_O_BB 5
M  POLY_IGNORE 9 10 11 12 13 14 15 16 17 18 
M  POLY_UPPER 6
M  POLY_LOWER 8
M  POLY_CHG 0
M  POLY_PROPERTIES ALPHA_AA L_AA PROTEIN AROMATIC POLYMER 
M  END

$$$$



 35 35  0  0  0  0  0  0  0  0999 V2000
   -0.1876    3.0126   -0.3964 H   0  0  0  1  0  0  0  0  0  0  0  0
    0.0757    1.0220    0.3279 C   0  0  0  1  0  0  0  0  0  0  0  0
   -1.8490    1.8743   -0.9322 N   0  0  0  1  0  0  0  0  0  0  0  0
   -0.7975    2.2313    0.0066 C   0  0  0  1  0  0  0  0  0  0  0  0
   -0.0887    0.3726    1.3573 O   0  0  0  1  0  0  0  0  0  0  0  0
    1.0143    0.7273   -0.5761 N   0  0  0  1  0  0  0  0  0  0  0  0
   -2.7111    1.5922   -0.5611 H   0  0  0  1  0  0  0  0  0  0  0  0
   -1.7272    1.9023   -2.2756 C   0  0  0  1  0  0  0  0  0  0  0  0
    1.8322   -0.4660   -0.4178 C   0  0  0  1  0  0  0  0  0  0  0  0
   -2.8517    1.3142   -3.1056 C   0  0  0  1  0  0  0  0  0  0  0  0
   -0.7358    2.3890   -2.8128 O   0  0  0  1  0  0  0  0  0  0  0  0
    1.1524    1.3159   -1.3473 H   0  0  0  1  0  0  0  0  0  0  0  0
    1.7286   -1.0874   -1.2827 H   0  0  0  1  0  0  0  0  0  0  0  0
    1.5118   -1.0053    0.4490 H   0  0  0  1  0  0  0  0  0  0  0  0
    2.8576   -0.1827   -0.3033 H   0  0  0  1  0  0  0  0  0  0  0  0
   -2.7425    1.6225   -4.1244 H   0  0  0  1  0  0  0  0  0  0  0  0
   -3.7915    1.6590   -2.7278 H   0  0  0  1  0  0  0  0  0  0  0  0
   -2.8146    0.2463   -3.0505 H   0  0  0  1  0  0  0  0  0  0  0  0
   -0.6131    7.7041    1.9934 F   0  0  0  1  0  0  0  0  0  0  0  0
   -1.6093    7.7302    1.1213 C   0  0  0  1  0  0  0  0  0  0  0  0
   -2.4416    8.6811    1.4940 F   0  0  0  1  0  0  0  0  0  0  0  0
   -1.0949    8.0919   -0.0576 F   0  0  0  1  0  0  0  0  0  0  0  0
   -2.2946    6.3824    1.0277 C   0  0  0  1  0  0  0  0  0  0  0  0
   -1.5838    5.2013    1.2125 C   0  0  0  1  0  0  0  0  0  0  0  0
   -2.2077    3.9658    1.1230 C   0  0  0  1  0  0  0  0  0  0  0  0
   -3.5546    3.8914    0.8515 C   0  0  0  1  0  0  0  0  0  0  0  0
   -4.2878    5.0551    0.6730 C   0  0  0  1  0  0  0  0  0  0  0  0
   -3.6569    6.2859    0.7538 C   0  0  0  1  0  0  0  0  0  0  0  0
   -1.4077    2.7004    1.3240 C   0  0  0  1  0  0  0  0  0  0  0  0
   -0.5660    5.2453    1.4215 H   0  0  0  1  0  0  0  0  0  0  0  0
   -4.0216    2.9649    0.7802 H   0  0  0  1  0  0  0  0  0  0  0  0
   -5.3082    5.0040    0.4791 H   0  0  0  1  0  0  0  0  0  0  0  0
   -4.2107    7.1538    0.6073 H   0  0  0  1  0  0  0  0  0  0  0  0
   -0.6231    2.8893    2.0265 H   0  0  0  1  0  0  0  0  0  0  0  0
   -2.0514    1.9352    1.7047 H   0  0  0  1  0  0  0  0  0  0  0  0
  1  4  1  0  0  0  0
  2  4  1  0  0  0  0
  2  5  2  0  0  0  0
  2  6  1  0  0  0  0
  3  4  1  0  0  0  0
  3  7  1  0  0  0  0
  3  8  1  0  0  0  0
  4 29  1  0  0  0  0
  6  9  1  0  0  0  0
  6 12  1  0  0  0  0
  8 10  1  0  0  0  0
  8 11  2  0  0  0  0
  9 13  1  0  0  0  0
  9 14  1  0  0  0  0
  9 15  1  0  0  0  0
 10 16  1  0  0  0  0
 10 17  1  0  0  0  0
 10 18  1  0  0  0  0
 19 20  1  0  0  0  0
 20 21  1  0  0  0  0
 20 22  1  0  0  0  0
 20 23  1  0  0  0  0
 23 24  4  0  0  0  0
 23 28  4  0  0  0  0
 24 25  4  0  0  0  0
 24 30  1  0  0  0  0
 25 26  4  0  0  0  0
 25 29  1  0  0  0  0
 26 27  4  0  0  0  0
 26 31  1  0  0  0  0
 27 28  4  0  0  0  0
 27 32  1  0  0  0  0
 28 33  1  0  0  0  0
 29 34  1  0  0  0  0
 29 35  1  0  0  0  0
M  END
> <BCLConfClusterSize>
1

> <ConfClashScore>
0 

> <ConfOneFourInteractionScore>
-0.979134 

> <ConfScore>
0.188935 

> <ConfScorePBest>
0.00333388 

> <ConfTolerance>
0.59304 

> <RosettaParamsInstructions>
M  ROOT 3
M  POLY_N_BB 3
M  POLY_CA_BB 4
M  POLY_C_BB 2
M  POLY_O_BB 5
M  POLY_IGNORE 9 10 11 12 13 14 15 16 17 18 
M  POLY_UPPER 6
M  POLY_LOWER 8
M  POLY_CHG 0
M  POLY_PROPERTIES ALPHA_AA L_AA PROTEIN AROMATIC POLYMER 
M  END

$$$$



 35 35  0  0  0  0  0  0  0  0999 V2000
   -2.7997    1.2179    1.4286 H   0  0  0  1  0  0  0  0  0  0  0  0
   -2.8883    1.5881   -0.6377 C   0  0  0  1  0  0  0  0  0  0  0  0
   -1.1740    0.2847    0.5790 N   0  0  0  1  0  0  0  0  0  0  0  0
   -2.0978    1.4083    0.6437 C   0  0  0  1  0  0  0  0  0  0  0  0
   -2.3409    1.9820   -1.6667 O   0  0  0  1  0  0  0  0  0  0  0  0
   -4.2003    1.3049   -0.6149 N   0  0  0  1  0  0  0  0  0  0  0  0
   -0.5021    0.2654   -0.1342 H   0  0  0  1  0  0  0  0  0  0  0  0
   -1.2104   -0.7208    1.4580 C   0  0  0  1  0  0  0  0  0  0  0  0
   -5.0545    1.4834   -1.7795 C   0  0  0  1  0  0  0  0  0  0  0  0
   -0.3174   -1.9304    1.2055 C   0  0  0  1  0  0  0  0  0  0  0  0
   -1.9225   -0.7299    2.4612 O   0  0  0  1  0  0  0  0  0  0  0  0
   -4.5967    0.9662    0.2149 H   0  0  0  1  0  0  0  0  0  0  0  0
   -4.7534    2.3612   -2.3121 H   0  0  0  1  0  0  0  0  0  0  0  0
   -6.0711    1.5897   -1.4630 H   0  0  0  1  0  0  0  0  0  0  0  0
   -4.9671    0.6305   -2.4197 H   0  0  0  1  0  0  0  0  0  0  0  0
    0.3961   -2.0192    1.9979 H   0  0  0  1  0  0  0  0  0  0  0  0
    0.1966   -1.8060    0.2753 H   0  0  0  1  0  0  0  0  0  0  0  0
   -0.9182   -2.8150    1.1661 H   0  0  0  1  0  0  0  0  0  0  0  0
   -0.2913    7.6056    1.0701 F   0  0  0  1  0  0  0  0  0  0  0  0
   -1.6209    7.7059    1.1173 C   0  0  0  1  0  0  0  0  0  0  0  0
   -1.9063    8.3453    2.2526 F   0  0  0  1  0  0  0  0  0  0  0  0
   -1.9686    8.5290    0.1272 F   0  0  0  1  0  0  0  0  0  0  0  0
   -2.3062    6.3633    1.0212 C   0  0  0  1  0  0  0  0  0  0  0  0
   -1.5576    5.1979    1.0467 C   0  0  0  1  0  0  0  0  0  0  0  0
   -2.1663    3.9470    0.9753 C   0  0  0  1  0  0  0  0  0  0  0  0
   -3.5525    3.9040    0.8715 C   0  0  0  1  0  0  0  0  0  0  0  0
   -4.3067    5.0675    0.8355 C   0  0  0  1  0  0  0  0  0  0  0  0
   -3.6868    6.2938    0.9071 C   0  0  0  1  0  0  0  0  0  0  0  0
   -1.3473    2.6783    1.0095 C   0  0  0  1  0  0  0  0  0  0  0  0
   -0.5220    5.2581    1.1206 H   0  0  0  1  0  0  0  0  0  0  0  0
   -4.0323    2.9828    0.8199 H   0  0  0  1  0  0  0  0  0  0  0  0
   -5.3421    5.0129    0.7542 H   0  0  0  1  0  0  0  0  0  0  0  0
   -4.2519    7.1662    0.8759 H   0  0  0  1  0  0  0  0  0  0  0  0
   -0.5349    2.7912    0.3223 H   0  0  0  1  0  0  0  0  0  0  0  0
   -0.9625    2.5604    2.0010 H   0  0  0  1  0  0  0  0  0  0  0  0
  1  4  1  0  0  0  0
  2  4  1  0  0  0  0
  2  5  2  0  0  0  0
  2  6  1  0  0  0  0
  3  4  1  0  0  0  0
  3  7  1  0  0  0  0
  3  8  1  0  0  0  0
  4 29  1  0  0  0  0
  6  9  1  0  0  0  0
  6 12  1  0  0  0  0
  8 10  1  0  0  0  0
  8 11  2  0  0  0  0
  9 13  1  0  0  0  0
  9 14  1  0  0  0  0
  9 15  1  0  0  0  0
 10 16  1  0  0  0  0
 10 17  1  0  0  0  0
 10 18  1  0  0  0  0
 19 20  1  0  0  0  0
 20 21  1  0  0  0  0
 20 22  1  0  0  0  0
 20 23  1  0  0  0  0
 23 24  4  0  0  0  0
 23 28  4  0  0  0  0
 24 25  4  0  0  0  0
 24 30  1  0  0  0  0
 25 26  4  0  0  0  0
 25 29  1  0  0  0  0
 26 27  4  0  0  0  0
 26 31  1  0  0  0  0
 27 28  4  0  0  0  0
 27 32  1  0  0  0  0
 28 33  1  0  0  0  0
 29 34  1  0  0  0  0
 29 35  1  0  0  0  0
M  END
> <BCLConfClusterSize>
1

> <ConfClashScore>
0 

> <ConfOneFourInteractionScore>
-0.972513 

> <ConfScore>
0.191076 

> <ConfScorePBest>
0.0033054 

> <ConfTolerance>
0.843091 

> <RosettaParamsInstructions>
M  ROOT 3
M  POLY_N_BB 3
M  POLY_CA_BB 4
M  POLY_C_BB 2
M  POLY_O_BB 5
M  POLY_IGNORE 9 10 11 12 13 14 15 16 17 18 
M  POLY_UPPER 6
M  POLY_LOWER 8
M  POLY_CHG 0
M  POLY_PROPERTIES ALPHA_AA L_AA PROTEIN AROMATIC POLYMER 
M  END

$$$$



 35 35  0  0  0  0  0  0  0  0999 V2000
    0.3249    3.3892    0.3039 H   0  0  0  1  0  0  0  0  0  0  0  0
    0.7366    1.3681    0.6406 C   0  0  0  1  0  0  0  0  0  0  0  0
   -0.7688    2.3179   -1.0744 N   0  0  0  1  0  0  0  0  0  0  0  0
   -0.2399    2.4805    0.2964 C   0  0  0  1  0  0  0  0  0  0  0  0
    1.4493    1.4313    1.6415 O   0  0  0  1  0  0  0  0  0  0  0  0
    0.7636    0.3319   -0.2113 N   0  0  0  1  0  0  0  0  0  0  0  0
   -1.2266    1.4778   -1.2868 H   0  0  0  1  0  0  0  0  0  0  0  0
   -0.6698    3.2300   -2.0457 C   0  0  0  1  0  0  0  0  0  0  0  0
    1.6068   -0.8336    0.0088 C   0  0  0  1  0  0  0  0  0  0  0  0
   -1.3265    2.8640   -3.3625 C   0  0  0  1  0  0  0  0  0  0  0  0
   -0.0920    4.2947   -1.9007 O   0  0  0  1  0  0  0  0  0  0  0  0
    0.1957    0.3609   -1.0094 H   0  0  0  1  0  0  0  0  0  0  0  0
    1.8178   -0.9297    1.0534 H   0  0  0  1  0  0  0  0  0  0  0  0
    2.5235   -0.7173   -0.5308 H   0  0  0  1  0  0  0  0  0  0  0  0
    1.0991   -1.7107   -0.3344 H   0  0  0  1  0  0  0  0  0  0  0  0
   -0.6338    2.3169   -3.9672 H   0  0  0  1  0  0  0  0  0  0  0  0
   -1.6194    3.7565   -3.8749 H   0  0  0  1  0  0  0  0  0  0  0  0
   -2.1898    2.2604   -3.1746 H   0  0  0  1  0  0  0  0  0  0  0  0
   -2.1105    8.5899    0.2449 F   0  0  0  1  0  0  0  0  0  0  0  0
   -1.6232    7.7049    1.1162 C   0  0  0  1  0  0  0  0  0  0  0  0
   -0.3136    7.6268    0.8752 F   0  0  0  1  0  0  0  0  0  0  0  0
   -1.7487    8.2602    2.3223 F   0  0  0  1  0  0  0  0  0  0  0  0
   -2.3098    6.3627    1.0229 C   0  0  0  1  0  0  0  0  0  0  0  0
   -1.5762    5.1967    1.1841 C   0  0  0  1  0  0  0  0  0  0  0  0
   -2.1828    3.9475    1.1076 C   0  0  0  1  0  0  0  0  0  0  0  0
   -3.5527    3.9035    0.8590 C   0  0  0  1  0  0  0  0  0  0  0  0
   -4.2890    5.0643    0.6873 C   0  0  0  1  0  0  0  0  0  0  0  0
   -3.6623    6.2983    0.7781 C   0  0  0  1  0  0  0  0  0  0  0  0
   -1.3821    2.6796    1.2883 C   0  0  0  1  0  0  0  0  0  0  0  0
   -0.5540    5.2576    1.3654 H   0  0  0  1  0  0  0  0  0  0  0  0
   -4.0315    2.9821    0.8012 H   0  0  0  1  0  0  0  0  0  0  0  0
   -5.3089    5.0106    0.4909 H   0  0  0  1  0  0  0  0  0  0  0  0
   -4.2132    7.1727    0.6614 H   0  0  0  1  0  0  0  0  0  0  0  0
   -0.9654    2.6900    2.2738 H   0  0  0  1  0  0  0  0  0  0  0  0
   -2.0511    1.8501    1.1921 H   0  0  0  1  0  0  0  0  0  0  0  0
  1  4  1  0  0  0  0
  2  4  1  0  0  0  0
  2  5  2  0  0  0  0
  2  6  1  0  0  0  0
  3  4  1  0  0  0  0
  3  7  1  0  0  0  0
  3  8  1  0  0  0  0
  4 29  1  0  0  0  0
  6  9  1  0  0  0  0
  6 12  1  0  0  0  0
  8 10  1  0  0  0  0
  8 11  2  0  0  0  0
  9 13  1  0  0  0  0
  9 14  1  0  0  0  0
  9 15  1  0  0  0  0
 10 16  1  0  0  0  0
 10 17  1  0  0  0  0
 10 18  1  0  0  0  0
 19 20  1  0  0  0  0
 20 21  1  0  0  0  0
 20 22  1  0  0  0  0
 20 23  1  0  0  0  0
 23 24  4  0  0  0  0
 23 28  4  0  0  0  0
 24 25  4  0  0  0  0
 24 30  1  0  0  0  0
 25 26  4  0  0  0  0
 25 29  1  0  0  0  0
 26 27  4  0  0  0  0
 26 31  1  0  0  0  0
 27 28  4  0  0  0  0
 27 32  1  0  0  0  0
 28 33  1  0  0  0  0
 29 34  1  0  0  0  0
 29 35  1  0  0  0  0
M  END
> <BCLConfClusterSize>
1

> <ConfClashScore>
0 

> <ConfOneFourInteractionScore>
-0.965014 

> <ConfScore>
0.193462 

> <ConfScorePBest>
0.00327691 

> <ConfTolerance>
0.59811 

> <RosettaParamsInstructions>
M  ROOT 3
M  POLY_N_BB 3
M  POLY_CA_BB 4
M  POLY_C_BB 2
M  POLY_O_BB 5
M  POLY_IGNORE 9 10 11 12 13 14 15 16 17 18 
M  POLY_UPPER 6
M  POLY_LOWER 8
M  POLY_CHG 0
M  POLY_PROPERTIES ALPHA_AA L_AA PROTEIN AROMATIC POLYMER 
M  END

$$$$



 35 35  0  0  0  0  0  0  0  0999 V2000
   -1.8489    2.3931    3.0315 H   0  0  0  1  0  0  0  0  0  0  0  0
   -0.4847    0.8763    2.5279 C   0  0  0  1  0  0  0  0  0  0  0  0
    0.0163    3.2636    2.9501 N   0  0  0  1  0  0  0  0  0  0  0  0
   -0.9630    2.3123    2.4368 C   0  0  0  1  0  0  0  0  0  0  0  0
   -1.2504   -0.0656    2.3277 O   0  0  0  1  0  0  0  0  0  0  0  0
    0.8105    0.7119    2.8370 N   0  0  0  1  0  0  0  0  0  0  0  0
    0.9232    3.2239    2.5809 H   0  0  0  1  0  0  0  0  0  0  0  0
   -0.2320    4.1928    3.8936 C   0  0  0  1  0  0  0  0  0  0  0  0
    1.4824   -0.5737    2.9543 C   0  0  0  1  0  0  0  0  0  0  0  0
    0.9956    4.9770    4.3146 C   0  0  0  1  0  0  0  0  0  0  0  0
   -1.3373    4.4106    4.3882 O   0  0  0  1  0  0  0  0  0  0  0  0
    1.3444    1.5183    2.9958 H   0  0  0  1  0  0  0  0  0  0  0  0
    1.4677   -0.8925    3.9756 H   0  0  0  1  0  0  0  0  0  0  0  0
    2.4961   -0.4774    2.6256 H   0  0  0  1  0  0  0  0  0  0  0  0
    0.9774   -1.2963    2.3480 H   0  0  0  1  0  0  0  0  0  0  0  0
    1.5536    4.4099    5.0302 H   0  0  0  1  0  0  0  0  0  0  0  0
    0.6928    5.9048    4.7532 H   0  0  0  1  0  0  0  0  0  0  0  0
    1.6067    5.1695    3.4577 H   0  0  0  1  0  0  0  0  0  0  0  0
   -1.3458    8.2261   -0.0797 F   0  0  0  1  0  0  0  0  0  0  0  0
   -1.6210    7.7059    1.1176 C   0  0  0  1  0  0  0  0  0  0  0  0
   -0.4603    7.6416    1.7718 F   0  0  0  1  0  0  0  0  0  0  0  0
   -2.3608    8.6125    1.7575 F   0  0  0  1  0  0  0  0  0  0  0  0
   -2.3062    6.3633    1.0214 C   0  0  0  1  0  0  0  0  0  0  0  0
   -1.5572    5.1981    1.0422 C   0  0  0  1  0  0  0  0  0  0  0  0
   -2.1657    3.9471    0.9706 C   0  0  0  1  0  0  0  0  0  0  0  0
   -3.5523    3.9039    0.8716 C   0  0  0  1  0  0  0  0  0  0  0  0
   -4.3070    5.0672    0.8403 C   0  0  0  1  0  0  0  0  0  0  0  0
   -3.6872    6.2935    0.9121 C   0  0  0  1  0  0  0  0  0  0  0  0
   -1.3462    2.6787    0.9996 C   0  0  0  1  0  0  0  0  0  0  0  0
   -0.5214    5.2585    1.1126 H   0  0  0  1  0  0  0  0  0  0  0  0
   -4.0320    2.9826    0.8200 H   0  0  0  1  0  0  0  0  0  0  0  0
   -5.3427    5.0125    0.7626 H   0  0  0  1  0  0  0  0  0  0  0  0
   -4.2527    7.1659    0.8844 H   0  0  0  1  0  0  0  0  0  0  0  0
   -1.9193    1.8810    0.5752 H   0  0  0  1  0  0  0  0  0  0  0  0
   -0.4553    2.8234    0.4251 H   0  0  0  1  0  0  0  0  0  0  0  0
  1  4  1  0  0  0  0
  2  4  1  0  0  0  0
  2  5  2  0  0  0  0
  2  6  1  0  0  0  0
  3  4  1  0  0  0  0
  3  7  1  0  0  0  0
  3  8  1  0  0  0  0
  4 29  1  0  0  0  0
  6  9  1  0  0  0  0
  6 12  1  0  0  0  0
  8 10  1  0  0  0  0
  8 11  2  0  0  0  0
  9 13  1  0  0  0  0
  9 14  1  0  0  0  0
  9 15  1  0  0  0  0
 10 16  1  0  0  0  0
 10 17  1  0  0  0  0
 10 18  1  0  0  0  0
 19 20  1  0  0  0  0
 20 21  1  0  0  0  0
 20 22  1  0  0  0  0
 20 23  1  0  0  0  0
 23 24  4  0  0  0  0
 23 28  4  0  0  0  0
 24 25  4  0  0  0  0
 24 30  1  0  0  0  0
 25 26  4  0  0  0  0
 25 29  1  0  0  0  0
 26 27  4  0  0  0  0
 26 31  1  0  0  0  0
 27 28  4  0  0  0  0
 27 32  1  0  0  0  0
 28 33  1  0  0  0  0
 29 34  1  0  0  0  0
 29 35  1  0  0  0  0
M  END
> <BCLConfClusterSize>
1

> <ConfClashScore>
0 

> <ConfOneFourInteractionScore>
-0.961138 

> <ConfScore>
0.201856 

> <ConfScorePBest>
0.00324843 

> <ConfTolerance>
0.685936 

> <RosettaParamsInstructions>
M  ROOT 3
M  POLY_N_BB 3
M  POLY_CA_BB 4
M  POLY_C_BB 2
M  POLY_O_BB 5
M  POLY_IGNORE 9 10 11 12 13 14 15 16 17 18 
M  POLY_UPPER 6
M  POLY_LOWER 8
M  POLY_CHG 0
M  POLY_PROPERTIES ALPHA_AA L_AA PROTEIN AROMATIC POLYMER 
M  END

$$$$



 35 35  0  0  0  0  0  0  0  0999 V2000
   -3.0758    1.4936    1.4499 H   0  0  0  1  0  0  0  0  0  0  0  0
   -2.6422    1.3339   -0.5955 C   0  0  0  1  0  0  0  0  0  0  0  0
   -1.4938    0.2029    1.2357 N   0  0  0  1  0  0  0  0  0  0  0  0
   -2.1864    1.4377    0.8577 C   0  0  0  1  0  0  0  0  0  0  0  0
   -3.6552    1.9101   -0.9896 O   0  0  0  1  0  0  0  0  0  0  0  0
   -1.8756    0.5865   -1.3912 N   0  0  0  1  0  0  0  0  0  0  0  0
   -0.5301    0.2358    1.4109 H   0  0  0  1  0  0  0  0  0  0  0  0
   -2.1334   -0.9718    1.3503 C   0  0  0  1  0  0  0  0  0  0  0  0
   -2.1529    0.3068   -2.7922 C   0  0  0  1  0  0  0  0  0  0  0  0
   -1.2598   -2.1689    1.6715 C   0  0  0  1  0  0  0  0  0  0  0  0
   -3.3476   -1.0889    1.2075 O   0  0  0  1  0  0  0  0  0  0  0  0
   -1.0647    0.1964   -1.0031 H   0  0  0  1  0  0  0  0  0  0  0  0
   -1.3662   -0.2937   -3.1990 H   0  0  0  1  0  0  0  0  0  0  0  0
   -2.2150    1.2275   -3.3339 H   0  0  0  1  0  0  0  0  0  0  0  0
   -3.0812   -0.2189   -2.8738 H   0  0  0  1  0  0  0  0  0  0  0  0
   -0.7602   -2.0066    2.6036 H   0  0  0  1  0  0  0  0  0  0  0  0
   -0.5341   -2.2989    0.8960 H   0  0  0  1  0  0  0  0  0  0  0  0
   -1.8688   -3.0459    1.7415 H   0  0  0  1  0  0  0  0  0  0  0  0
   -0.3943    7.6218    1.6328 F   0  0  0  1  0  0  0  0  0  0  0  0
   -1.6199    7.7052    1.1123 C   0  0  0  1  0  0  0  0  0  0  0  0
   -2.2900    8.5716    1.8735 F   0  0  0  1  0  0  0  0  0  0  0  0
   -1.4803    8.2857   -0.0803 F   0  0  0  1  0  0  0  0  0  0  0  0
   -2.3042    6.3615    1.0252 C   0  0  0  1  0  0  0  0  0  0  0  0
   -1.5616    5.1967    1.1407 C   0  0  0  1  0  0  0  0  0  0  0  0
   -2.1871    3.9672    1.0556 C   0  0  0  1  0  0  0  0  0  0  0  0
   -3.5578    3.8987    0.8602 C   0  0  0  1  0  0  0  0  0  0  0  0
   -4.2980    5.0601    0.7451 C   0  0  0  1  0  0  0  0  0  0  0  0
   -3.6709    6.2934    0.8303 C   0  0  0  1  0  0  0  0  0  0  0  0
   -1.3772    2.6979    1.1756 C   0  0  0  1  0  0  0  0  0  0  0  0
   -0.5338    5.2480    1.2913 H   0  0  0  1  0  0  0  0  0  0  0  0
   -4.0290    2.9736    0.8002 H   0  0  0  1  0  0  0  0  0  0  0  0
   -5.3258    5.0088    0.5945 H   0  0  0  1  0  0  0  0  0  0  0  0
   -4.2286    7.1673    0.7477 H   0  0  0  1  0  0  0  0  0  0  0  0
   -0.5532    2.7542    0.4953 H   0  0  0  1  0  0  0  0  0  0  0  0
   -1.0088    2.6224    2.1773 H   0  0  0  1  0  0  0  0  0  0  0  0
  1  4  1  0  0  0  0
  2  4  1  0  0  0  0
  2  5  2  0  0  0  0
  2  6  1  0  0  0  0
  3  4  1  0  0  0  0
  3  7  1  0  0  0  0
  3  8  1  0  0  0  0
  4 29  1  0  0  0  0
  6  9  1  0  0  0  0
  6 12  1  0  0  0  0
  8 10  1  0  0  0  0
  8 11  2  0  0  0  0
  9 13  1  0  0  0  0
  9 14  1  0  0  0  0
  9 15  1  0  0  0  0
 10 16  1  0  0  0  0
 10 17  1  0  0  0  0
 10 18  1  0  0  0  0
 19 20  1  0  0  0  0
 20 21  1  0  0  0  0
 20 22  1  0  0  0  0
 20 23  1  0  0  0  0
 23 24  4  0  0  0  0
 23 28  4  0  0  0  0
 24 25  4  0  0  0  0
 24 30  1  0  0  0  0
 25 26  4  0  0  0  0
 25 29  1  0  0  0  0
 26 27  4  0  0  0  0
 26 31  1  0  0  0  0
 27 28  4  0  0  0  0
 27 32  1  0  0  0  0
 28 33  1  0  0  0  0
 29 34  1  0  0  0  0
 29 35  1  0  0  0  0
M  END
> <BCLConfClusterSize>
1

> <ConfClashScore>
0 

> <ConfOneFourInteractionScore>
-0.952877 

> <ConfScore>
0.208843 

> <ConfScorePBest>
0.00321995 

> <ConfTolerance>
0.969767 

> <RosettaParamsInstructions>
M  ROOT 3
M  POLY_N_BB 3
M  POLY_CA_BB 4
M  POLY_C_BB 2
M  POLY_O_BB 5
M  POLY_IGNORE 9 10 11 12 13 14 15 16 17 18 
M  POLY_UPPER 6
M  POLY_LOWER 8
M  POLY_CHG 0
M  POLY_PROPERTIES ALPHA_AA L_AA PROTEIN AROMATIC POLYMER 
M  END

$$$$



 35 35  0  0  0  0  0  0  0  0999 V2000
   -0.1580    2.1238    3.0060 H   0  0  0  1  0  0  0  0  0  0  0  0
   -1.4849    3.6058    3.7113 C   0  0  0  1  0  0  0  0  0  0  0  0
   -2.0146    1.2634    3.2989 N   0  0  0  1  0  0  0  0  0  0  0  0
   -1.1875    2.3808    2.8685 C   0  0  0  1  0  0  0  0  0  0  0  0
   -0.5949    4.3372    4.1128 O   0  0  0  1  0  0  0  0  0  0  0  0
   -2.7922    3.7874    3.9567 N   0  0  0  1  0  0  0  0  0  0  0  0
   -2.6068    0.8345    2.6465 H   0  0  0  1  0  0  0  0  0  0  0  0
   -1.9946    0.7999    4.5586 C   0  0  0  1  0  0  0  0  0  0  0  0
   -3.2258    4.8365    4.8674 C   0  0  0  1  0  0  0  0  0  0  0  0
   -2.8920   -0.3903    4.8369 C   0  0  0  1  0  0  0  0  0  0  0  0
   -1.3003    1.2951    5.4425 O   0  0  0  1  0  0  0  0  0  0  0  0
   -3.4559    3.2124    3.5217 H   0  0  0  1  0  0  0  0  0  0  0  0
   -4.2950    4.8597    4.9022 H   0  0  0  1  0  0  0  0  0  0  0  0
   -2.8598    5.7811    4.5230 H   0  0  0  1  0  0  0  0  0  0  0  0
   -2.8415    4.6399    5.8464 H   0  0  0  1  0  0  0  0  0  0  0  0
   -3.8860   -0.0489    5.0377 H   0  0  0  1  0  0  0  0  0  0  0  0
   -2.5208   -0.9258    5.6857 H   0  0  0  1  0  0  0  0  0  0  0  0
   -2.9024   -1.0360    3.9838 H   0  0  0  1  0  0  0  0  0  0  0  0
   -0.7382    7.7548    2.1205 F   0  0  0  1  0  0  0  0  0  0  0  0
   -1.6218    7.7060    1.1221 C   0  0  0  1  0  0  0  0  0  0  0  0
   -2.4824    8.7022    1.3369 F   0  0  0  1  0  0  0  0  0  0  0  0
   -0.9511    8.0241    0.0141 F   0  0  0  1  0  0  0  0  0  0  0  0
   -2.3052    6.3629    1.0194 C   0  0  0  1  0  0  0  0  0  0  0  0
   -1.5842    5.1988    1.2295 C   0  0  0  1  0  0  0  0  0  0  0  0
   -2.1939    3.9486    1.1559 C   0  0  0  1  0  0  0  0  0  0  0  0
   -3.5518    3.9045    0.8585 C   0  0  0  1  0  0  0  0  0  0  0  0
   -4.2769    5.0660    0.6374 C   0  0  0  1  0  0  0  0  0  0  0  0
   -3.6564    6.2917    0.7145 C   0  0  0  1  0  0  0  0  0  0  0  0
   -1.4058    2.6817    1.3915 C   0  0  0  1  0  0  0  0  0  0  0  0
   -0.5688    5.2595    1.4461 H   0  0  0  1  0  0  0  0  0  0  0  0
   -4.0322    2.9839    0.8008 H   0  0  0  1  0  0  0  0  0  0  0  0
   -5.2909    5.0104    0.4131 H   0  0  0  1  0  0  0  0  0  0  0  0
   -4.1991    7.1624    0.5445 H   0  0  0  1  0  0  0  0  0  0  0  0
   -1.9372    1.8634    0.9522 H   0  0  0  1  0  0  0  0  0  0  0  0
   -0.4508    2.7820    0.9196 H   0  0  0  1  0  0  0  0  0  0  0  0
  1  4  1  0  0  0  0
  2  4  1  0  0  0  0
  2  5  2  0  0  0  0
  2  6  1  0  0  0  0
  3  4  1  0  0  0  0
  3  7  1  0  0  0  0
  3  8  1  0  0  0  0
  4 29  1  0  0  0  0
  6  9  1  0  0  0  0
  6 12  1  0  0  0  0
  8 10  1  0  0  0  0
  8 11  2  0  0  0  0
  9 13  1  0  0  0  0
  9 14  1  0  0  0  0
  9 15  1  0  0  0  0
 10 16  1  0  0  0  0
 10 17  1  0  0  0  0
 10 18  1  0  0  0  0
 19 20  1  0  0  0  0
 20 21  1  0  0  0  0
 20 22  1  0  0  0  0
 20 23  1  0  0  0  0
 23 24  4  0  0  0  0
 23 28  4  0  0  0  0
 24 25  4  0  0  0  0
 24 30  1  0  0  0  0
 25 26  4  0  0  0  0
 25 29  1  0  0  0  0
 26 27  4  0  0  0  0
 26 31  1  0  0  0  0
 27 28  4  0  0  0  0
 27 32  1  0  0  0  0
 28 33  1  0  0  0  0
 29 34  1  0  0  0  0
 29 35  1  0  0  0  0
M  END
> <BCLConfClusterSize>
1

> <ConfClashScore>
0 

> <ConfOneFourInteractionScore>
-0.942345 

> <ConfScore>
0.211015 

> <ConfScorePBest>
0.00319147 

> <ConfTolerance>
1.12489 

> <RosettaParamsInstructions>
M  ROOT 3
M  POLY_N_BB 3
M  POLY_CA_BB 4
M  POLY_C_BB 2
M  POLY_O_BB 5
M  POLY_IGNORE 9 10 11 12 13 14 15 16 17 18 
M  POLY_UPPER 6
M  POLY_LOWER 8
M  POLY_CHG 0
M  POLY_PROPERTIES ALPHA_AA L_AA PROTEIN AROMATIC POLYMER 
M  END

$$$$



 35 35  0  0  0  0  0  0  0  0999 V2000
   -1.7197    2.4029    3.2031 H   0  0  0  1  0  0  0  0  0  0  0  0
   -3.2422    1.3631    2.1981 C   0  0  0  1  0  0  0  0  0  0  0  0
   -0.9066    0.6551    2.5056 N   0  0  0  1  0  0  0  0  0  0  0  0
   -1.7866    1.7995    2.3220 C   0  0  0  1  0  0  0  0  0  0  0  0
   -3.6065    0.5321    1.3862 O   0  0  0  1  0  0  0  0  0  0  0  0
   -4.1548    1.9089    3.0070 N   0  0  0  1  0  0  0  0  0  0  0  0
   -0.1708    0.5180    1.8731 H   0  0  0  1  0  0  0  0  0  0  0  0
   -1.0678   -0.2189    3.5108 C   0  0  0  1  0  0  0  0  0  0  0  0
   -5.5727    1.5991    2.9003 C   0  0  0  1  0  0  0  0  0  0  0  0
   -0.0761   -1.3653    3.5523 C   0  0  0  1  0  0  0  0  0  0  0  0
   -1.9557   -0.1135    4.3527 O   0  0  0  1  0  0  0  0  0  0  0  0
   -3.8591    2.5397    3.6962 H   0  0  0  1  0  0  0  0  0  0  0  0
   -6.1478    2.4530    3.1920 H   0  0  0  1  0  0  0  0  0  0  0  0
   -5.8069    0.7756    3.5420 H   0  0  0  1  0  0  0  0  0  0  0  0
   -5.8060    1.3411    1.8884 H   0  0  0  1  0  0  0  0  0  0  0  0
    0.2520   -1.5899    2.5589 H   0  0  0  1  0  0  0  0  0  0  0  0
   -0.5463   -2.2281    3.9760 H   0  0  0  1  0  0  0  0  0  0  0  0
    0.7656   -1.0869    4.1513 H   0  0  0  1  0  0  0  0  0  0  0  0
   -0.3649    7.5868    1.5619 F   0  0  0  1  0  0  0  0  0  0  0  0
   -1.6181    7.7129    1.1222 C   0  0  0  1  0  0  0  0  0  0  0  0
   -2.2570    8.5381    1.9530 F   0  0  0  1  0  0  0  0  0  0  0  0
   -1.5616    8.3132   -0.0674 F   0  0  0  1  0  0  0  0  0  0  0  0
   -2.3048    6.3663    1.0223 C   0  0  0  1  0  0  0  0  0  0  0  0
   -1.5634    5.1999    1.1171 C   0  0  0  1  0  0  0  0  0  0  0  0
   -2.1725    3.9492    1.0439 C   0  0  0  1  0  0  0  0  0  0  0  0
   -3.5513    3.9075    0.8665 C   0  0  0  1  0  0  0  0  0  0  0  0
   -4.2977    5.0718    0.7610 C   0  0  0  1  0  0  0  0  0  0  0  0
   -3.6775    6.2977    0.8356 C   0  0  0  1  0  0  0  0  0  0  0  0
   -1.3617    2.6796    1.1537 C   0  0  0  1  0  0  0  0  0  0  0  0
   -0.5331    5.2590    1.2452 H   0  0  0  1  0  0  0  0  0  0  0  0
   -4.0314    2.9866    0.8120 H   0  0  0  1  0  0  0  0  0  0  0  0
   -5.3274    5.0180    0.6253 H   0  0  0  1  0  0  0  0  0  0  0  0
   -4.2365    7.1707    0.7523 H   0  0  0  1  0  0  0  0  0  0  0  0
   -1.4774    2.1222    0.2477 H   0  0  0  1  0  0  0  0  0  0  0  0
   -0.3326    2.9427    1.2823 H   0  0  0  1  0  0  0  0  0  0  0  0
  1  4  1  0  0  0  0
  2  4  1  0  0  0  0
  2  5  2  0  0  0  0
  2  6  1  0  0  0  0
  3  4  1  0  0  0  0
  3  7  1  0  0  0  0
  3  8  1  0  0  0  0
  4 29  1  0  0  0  0
  6  9  1  0  0  0  0
  6 12  1  0  0  0  0
  8 10  1  0  0  0  0
  8 11  2  0  0  0  0
  9 13  1  0  0  0  0
  9 14  1  0  0  0  0
  9 15  1  0  0  0  0
 10 16  1  0  0  0  0
 10 17  1  0  0  0  0
 10 18  1  0  0  0  0
 19 20  1  0  0  0  0
 20 21  1  0  0  0  0
 20 22  1  0  0  0  0
 20 23  1  0  0  0  0
 23 24  4  0  0  0  0
 23 28  4  0  0  0  0
 24 25  4  0  0  0  0
 24 30  1  0  0  0  0
 25 26  4  0  0  0  0
 25 29  1  0  0  0  0
 26 27  4  0  0  0  0
 26 31  1  0  0  0  0
 27 28  4  0  0  0  0
 27 32  1  0  0  0  0
 28 33  1  0  0  0  0
 29 34  1  0  0  0  0
 29 35  1  0  0  0  0
M  END
> <BCLConfClusterSize>
1

> <ConfClashScore>
0 

> <ConfOneFourInteractionScore>
-0.985807 

> <ConfScore>
0.221845 

> <ConfScorePBest>
0.00316299 

> <ConfTolerance>
0.877162 

> <RosettaParamsInstructions>
M  ROOT 3
M  POLY_N_BB 3
M  POLY_CA_BB 4
M  POLY_C_BB 2
M  POLY_O_BB 5
M  POLY_IGNORE 9 10 11 12 13 14 15 16 17 18 
M  POLY_UPPER 6
M  POLY_LOWER 8
M  POLY_CHG 0
M  POLY_PROPERTIES ALPHA_AA L_AA PROTEIN AROMATIC POLYMER 
M  END

$$$$



 35 35  0  0  0  0  0  0  0  0999 V2000
   -0.6484    3.0571   -0.5030 H   0  0  0  1  0  0  0  0  0  0  0  0
    0.6008    1.5781    0.3040 C   0  0  0  1  0  0  0  0  0  0  0  0
   -1.6380    1.2617   -0.6130 N   0  0  0  1  0  0  0  0  0  0  0  0
   -0.7826    2.1982    0.1209 C   0  0  0  1  0  0  0  0  0  0  0  0
    1.5822    2.2768    0.4964 O   0  0  0  1  0  0  0  0  0  0  0  0
    0.6508    0.2449    0.1555 N   0  0  0  1  0  0  0  0  0  0  0  0
   -2.2774    0.7133   -0.1123 H   0  0  0  1  0  0  0  0  0  0  0  0
   -1.5746    1.1253   -1.9832 C   0  0  0  1  0  0  0  0  0  0  0  0
    1.9090   -0.4793    0.0537 C   0  0  0  1  0  0  0  0  0  0  0  0
   -2.5016    0.1099   -2.5851 C   0  0  0  1  0  0  0  0  0  0  0  0
   -0.8001    1.8061   -2.6287 O   0  0  0  1  0  0  0  0  0  0  0  0
   -0.1891   -0.2583    0.1143 H   0  0  0  1  0  0  0  0  0  0  0  0
    2.5144   -0.2656    0.9097 H   0  0  0  1  0  0  0  0  0  0  0  0
    2.4250   -0.1744   -0.8327 H   0  0  0  1  0  0  0  0  0  0  0  0
    1.7128   -1.5302    0.0092 H   0  0  0  1  0  0  0  0  0  0  0  0
   -2.9310   -0.4868   -1.8077 H   0  0  0  1  0  0  0  0  0  0  0  0
   -1.9543   -0.5188   -3.2560 H   0  0  0  1  0  0  0  0  0  0  0  0
   -3.2802    0.6116   -3.1208 H   0  0  0  1  0  0  0  0  0  0  0  0
   -2.3369    8.6869    0.5623 F   0  0  0  1  0  0  0  0  0  0  0  0
   -1.6184    7.7089    1.1167 C   0  0  0  1  0  0  0  0  0  0  0  0
   -0.4341    7.7227    0.5031 F   0  0  0  1  0  0  0  0  0  0  0  0
   -1.3907    8.0812    2.3769 F   0  0  0  1  0  0  0  0  0  0  0  0
   -2.3048    6.3602    1.0245 C   0  0  0  1  0  0  0  0  0  0  0  0
   -1.5850    5.1987    1.2579 C   0  0  0  1  0  0  0  0  0  0  0  0
   -2.2094    3.9689    1.1687 C   0  0  0  1  0  0  0  0  0  0  0  0
   -3.5567    3.8973    0.8510 C   0  0  0  1  0  0  0  0  0  0  0  0
   -4.2745    5.0552    0.6182 C   0  0  0  1  0  0  0  0  0  0  0  0
   -3.6482    6.2885    0.7077 C   0  0  0  1  0  0  0  0  0  0  0  0
   -1.4237    2.7031    1.4173 C   0  0  0  1  0  0  0  0  0  0  0  0
   -0.5750    5.2527    1.5003 H   0  0  0  1  0  0  0  0  0  0  0  0
   -4.0276    2.9721    0.7877 H   0  0  0  1  0  0  0  0  0  0  0  0
   -5.2845    5.0011    0.3759 H   0  0  0  1  0  0  0  0  0  0  0  0
   -4.1892    7.1601    0.5365 H   0  0  0  1  0  0  0  0  0  0  0  0
   -0.6549    2.9025    2.1343 H   0  0  0  1  0  0  0  0  0  0  0  0
   -2.0819    1.9509    1.7992 H   0  0  0  1  0  0  0  0  0  0  0  0
  1  4  1  0  0  0  0
  2  4  1  0  0  0  0
  2  5  2  0  0  0  0
  2  6  1  0  0  0  0
  3  4  1  0  0  0  0
  3  7  1  0  0  0  0
  3  8  1  0  0  0  0
  4 29  1  0  0  0  0
  6  9  1  0  0  0  0
  6 12  1  0  0  0  0
  8 10  1  0  0  0  0
  8 11  2  0  0  0  0
  9 13  1  0  0  0  0
  9 14  1  0  0  0  0
  9 15  1  0  0  0  0
 10 16  1  0  0  0  0
 10 17  1  0  0  0  0
 10 18  1  0  0  0  0
 19 20  1  0  0  0  0
 20 21  1  0  0  0  0
 20 22  1  0  0  0  0
 20 23  1  0  0  0  0
 23 24  4  0  0  0  0
 23 28  4  0  0  0  0
 24 25  4  0  0  0  0
 24 30  1  0  0  0  0
 25 26  4  0  0  0  0
 25 29  1  0  0  0  0
 26 27  4  0  0  0  0
 26 31  1  0  0  0  0
 27 28  4  0  0  0  0
 27 32  1  0  0  0  0
 28 33  1  0  0  0  0
 29 34  1  0  0  0  0
 29 35  1  0  0  0  0
M  END
> <BCLConfClusterSize>
1

> <ConfClashScore>
0 

> <ConfOneFourInteractionScore>
-0.948834 

> <ConfScore>
0.225551 

> <ConfScorePBest>
0.00313451 

> <ConfTolerance>
0.876391 

> <RosettaParamsInstructions>
M  ROOT 3
M  POLY_N_BB 3
M  POLY_CA_BB 4
M  POLY_C_BB 2
M  POLY_O_BB 5
M  POLY_IGNORE 9 10 11 12 13 14 15 16 17 18 
M  POLY_UPPER 6
M  POLY_LOWER 8
M  POLY_CHG 0
M  POLY_PROPERTIES ALPHA_AA L_AA PROTEIN AROMATIC POLYMER 
M  END

$$$$



 35 35  0  0  0  0  0  0  0  0999 V2000
   -0.7162    1.0095    0.0608 H   0  0  0  1  0  0  0  0  0  0  0  0
   -2.6834    1.3299   -0.5531 C   0  0  0  1  0  0  0  0  0  0  0  0
   -0.6451    2.5884   -1.2315 N   0  0  0  1  0  0  0  0  0  0  0  0
   -1.3189    1.8646   -0.1638 C   0  0  0  1  0  0  0  0  0  0  0  0
   -3.4440    1.9936   -1.2563 O   0  0  0  1  0  0  0  0  0  0  0  0
   -3.0349    0.1132   -0.1079 N   0  0  0  1  0  0  0  0  0  0  0  0
   -0.2448    3.4548   -1.0091 H   0  0  0  1  0  0  0  0  0  0  0  0
   -0.5308    2.1586   -2.4982 C   0  0  0  1  0  0  0  0  0  0  0  0
   -4.3680   -0.4338   -0.3115 C   0  0  0  1  0  0  0  0  0  0  0  0
    0.2857    3.0412   -3.4220 C   0  0  0  1  0  0  0  0  0  0  0  0
   -1.0473    1.1198   -2.9011 O   0  0  0  1  0  0  0  0  0  0  0  0
   -2.3708   -0.4253    0.3709 H   0  0  0  1  0  0  0  0  0  0  0  0
   -4.5505   -0.5491   -1.3595 H   0  0  0  1  0  0  0  0  0  0  0  0
   -5.0942    0.2322    0.1056 H   0  0  0  1  0  0  0  0  0  0  0  0
   -4.4395   -1.3869    0.1696 H   0  0  0  1  0  0  0  0  0  0  0  0
    0.7313    2.4412   -4.1877 H   0  0  0  1  0  0  0  0  0  0  0  0
    1.0539    3.5307   -2.8605 H   0  0  0  1  0  0  0  0  0  0  0  0
   -0.3518    3.7747   -3.8698 H   0  0  0  1  0  0  0  0  0  0  0  0
   -0.3437    7.6302    1.4682 F   0  0  0  1  0  0  0  0  0  0  0  0
   -1.6145    7.7216    1.1327 C   0  0  0  1  0  0  0  0  0  0  0  0
   -2.1946    8.5467    1.9645 F   0  0  0  1  0  0  0  0  0  0  0  0
   -1.5897    8.3628   -0.0364 F   0  0  0  1  0  0  0  0  0  0  0  0
   -2.2967    6.3774    1.0358 C   0  0  0  1  0  0  0  0  0  0  0  0
   -1.5684    5.1934    1.1250 C   0  0  0  1  0  0  0  0  0  0  0  0
   -2.1902    3.9590    1.0311 C   0  0  0  1  0  0  0  0  0  0  0  0
   -3.5650    3.8906    0.8603 C   0  0  0  1  0  0  0  0  0  0  0  0
   -4.3020    5.0490    0.7698 C   0  0  0  1  0  0  0  0  0  0  0  0
   -3.6723    6.2819    0.8547 C   0  0  0  1  0  0  0  0  0  0  0  0
   -1.3734    2.6912    1.1143 C   0  0  0  1  0  0  0  0  0  0  0  0
   -0.5388    5.2368    1.2648 H   0  0  0  1  0  0  0  0  0  0  0  0
   -4.0376    2.9661    0.8009 H   0  0  0  1  0  0  0  0  0  0  0  0
   -5.3324    5.0001    0.6375 H   0  0  0  1  0  0  0  0  0  0  0  0
   -4.2392    7.1508    0.7816 H   0  0  0  1  0  0  0  0  0  0  0  0
   -0.3715    2.9607    1.3761 H   0  0  0  1  0  0  0  0  0  0  0  0
   -1.7918    2.0790    1.8857 H   0  0  0  1  0  0  0  0  0  0  0  0
  1  4  1  0  0  0  0
  2  4  1  0  0  0  0
  2  5  2  0  0  0  0
  2  6  1  0  0  0  0
  3  4  1  0  0  0  0
  3  7  1  0  0  0  0
  3  8  1  0  0  0  0
  4 29  1  0  0  0  0
  6  9  1  0  0  0  0
  6 12  1  0  0  0  0
  8 10  1  0  0  0  0
  8 11  2  0  0  0  0
  9 13  1  0  0  0  0
  9 14  1  0  0  0  0
  9 15  1  0  0  0  0
 10 16  1  0  0  0  0
 10 17  1  0  0  0  0
 10 18  1  0  0  0  0
 19 20  1  0  0  0  0
 20 21  1  0  0  0  0
 20 22  1  0  0  0  0
 20 23  1  0  0  0  0
 23 24  4  0  0  0  0
 23 28  4  0  0  0  0
 24 25  4  0  0  0  0
 24 30  1  0  0  0  0
 25 26  4  0  0  0  0
 25 29  1  0  0  0  0
 26 27  4  0  0  0  0
 26 31  1  0  0  0  0
 27 28  4  0  0  0  0
 27 32  1  0  0  0  0
 28 33  1  0  0  0  0
 29 34  1  0  0  0  0
 29 35  1  0  0  0  0
M  END
> <BCLConfClusterSize>
1

> <ConfClashScore>
0 

> <ConfOneFourInteractionScore>
-0.976093 

> <ConfScore>
0.228296 

> <ConfScorePBest>
0.00310603 

> <ConfTolerance>
0.746399 

> <RosettaParamsInstructions>
M  ROOT 3
M  POLY_N_BB 3
M  POLY_CA_BB 4
M  POLY_C_BB 2
M  POLY_O_BB 5
M  POLY_IGNORE 9 10 11 12 13 14 15 16 17 18 
M  POLY_UPPER 6
M  POLY_LOWER 8
M  POLY_CHG 0
M  POLY_PROPERTIES ALPHA_AA L_AA PROTEIN AROMATIC POLYMER 
M  END

$$$$



 35 35  0  0  0  0  0  0  0  0999 V2000
   -2.5221    1.4855    0.0642 H   0  0  0  1  0  0  0  0  0  0  0  0
   -0.8042    2.0512   -1.0052 C   0  0  0  1  0  0  0  0  0  0  0  0
   -0.9716    0.3289    0.7444 N   0  0  0  1  0  0  0  0  0  0  0  0
   -1.4836    1.6126    0.2887 C   0  0  0  1  0  0  0  0  0  0  0  0
    0.3235    1.6570   -1.2995 O   0  0  0  1  0  0  0  0  0  0  0  0
   -1.5142    2.8829   -1.7838 N   0  0  0  1  0  0  0  0  0  0  0  0
   -0.6321    0.2346    1.6589 H   0  0  0  1  0  0  0  0  0  0  0  0
   -0.9634   -0.7265   -0.0852 C   0  0  0  1  0  0  0  0  0  0  0  0
   -0.9637    3.4745   -2.9941 C   0  0  0  1  0  0  0  0  0  0  0  0
   -0.3861   -2.0077    0.4844 C   0  0  0  1  0  0  0  0  0  0  0  0
   -1.3917   -0.6765   -1.2351 O   0  0  0  1  0  0  0  0  0  0  0  0
   -2.4352    3.0992   -1.5283 H   0  0  0  1  0  0  0  0  0  0  0  0
   -1.5932    4.2770   -3.3176 H   0  0  0  1  0  0  0  0  0  0  0  0
   -0.9108    2.7312   -3.7619 H   0  0  0  1  0  0  0  0  0  0  0  0
    0.0177    3.8504   -2.7926 H   0  0  0  1  0  0  0  0  0  0  0  0
   -1.0302   -2.3784    1.2542 H   0  0  0  1  0  0  0  0  0  0  0  0
    0.5825   -1.8108    0.8943 H   0  0  0  1  0  0  0  0  0  0  0  0
   -0.3032   -2.7379   -0.2932 H   0  0  0  1  0  0  0  0  0  0  0  0
   -2.2282    8.6448    0.3929 F   0  0  0  1  0  0  0  0  0  0  0  0
   -1.6217    7.7060    1.1215 C   0  0  0  1  0  0  0  0  0  0  0  0
   -0.3560    7.6684    0.7020 F   0  0  0  1  0  0  0  0  0  0  0  0
   -1.5872    8.1682    2.3720 F   0  0  0  1  0  0  0  0  0  0  0  0
   -2.3053    6.3630    1.0196 C   0  0  0  1  0  0  0  0  0  0  0  0
   -1.5803    5.1982    1.2114 C   0  0  0  1  0  0  0  0  0  0  0  0
   -2.1899    3.9478    1.1383 C   0  0  0  1  0  0  0  0  0  0  0  0
   -3.5519    3.9045    0.8602 C   0  0  0  1  0  0  0  0  0  0  0  0
   -4.2812    5.0667    0.6574 C   0  0  0  1  0  0  0  0  0  0  0  0
   -3.6607    6.2924    0.7337 C   0  0  0  1  0  0  0  0  0  0  0  0
   -1.3973    2.6802    1.3539 C   0  0  0  1  0  0  0  0  0  0  0  0
   -0.5619    5.2584    1.4139 H   0  0  0  1  0  0  0  0  0  0  0  0
   -4.0322    2.9838    0.8032 H   0  0  0  1  0  0  0  0  0  0  0  0
   -5.2982    5.0116    0.4473 H   0  0  0  1  0  0  0  0  0  0  0  0
   -4.2066    7.1637    0.5775 H   0  0  0  1  0  0  0  0  0  0  0  0
   -0.3681    2.9579    1.4463 H   0  0  0  1  0  0  0  0  0  0  0  0
   -1.7335    2.2447    2.2716 H   0  0  0  1  0  0  0  0  0  0  0  0
  1  4  1  0  0  0  0
  2  4  1  0  0  0  0
  2  5  2  0  0  0  0
  2  6  1  0  0  0  0
  3  4  1  0  0  0  0
  3  7  1  0  0  0  0
  3  8  1  0  0  0  0
  4 29  1  0  0  0  0
  6  9  1  0  0  0  0
  6 12  1  0  0  0  0
  8 10  1  0  0  0  0
  8 11  2  0  0  0  0
  9 13  1  0  0  0  0
  9 14  1  0  0  0  0
  9 15  1  0  0  0  0
 10 16  1  0  0  0  0
 10 17  1  0  0  0  0
 10 18  1  0  0  0  0
 19 20  1  0  0  0  0
 20 21  1  0  0  0  0
 20 22  1  0  0  0  0
 20 23  1  0  0  0  0
 23 24  4  0  0  0  0
 23 28  4  0  0  0  0
 24 25  4  0  0  0  0
 24 30  1  0  0  0  0
 25 26  4  0  0  0  0
 25 29  1  0  0  0  0
 26 27  4  0  0  0  0
 26 31  1  0  0  0  0
 27 28  4  0  0  0  0
 27 32  1  0  0  0  0
 28 33  1  0  0  0  0
 29 34  1  0  0  0  0
 29 35  1  0  0  0  0
M  END
> <BCLConfClusterSize>
1

> <ConfClashScore>
0 

> <ConfOneFourInteractionScore>
-0.985807 

> <ConfScore>
0.229554 

> <ConfScorePBest>
0.00307755 

> <ConfTolerance>
1.02108 

> <RosettaParamsInstructions>
M  ROOT 3
M  POLY_N_BB 3
M  POLY_CA_BB 4
M  POLY_C_BB 2
M  POLY_O_BB 5
M  POLY_IGNORE 9 10 11 12 13 14 15 16 17 18 
M  POLY_UPPER 6
M  POLY_LOWER 8
M  POLY_CHG 0
M  POLY_PROPERTIES ALPHA_AA L_AA PROTEIN AROMATIC POLYMER 
M  END

$$$$



 35 35  0  0  0  0  0  0  0  0999 V2000
    0.0762    2.9260   -0.2799 H   0  0  0  1  0  0  0  0  0  0  0  0
    0.0854    0.9038    0.3775 C   0  0  0  1  0  0  0  0  0  0  0  0
   -1.5793    1.9624   -1.0815 N   0  0  0  1  0  0  0  0  0  0  0  0
   -0.6458    2.1919    0.0111 C   0  0  0  1  0  0  0  0  0  0  0  0
   -0.3610   -0.1881    0.0663 O   0  0  0  1  0  0  0  0  0  0  0  0
    1.2289    1.0570    1.0514 N   0  0  0  1  0  0  0  0  0  0  0  0
   -1.4928    2.5191   -1.8834 H   0  0  0  1  0  0  0  0  0  0  0  0
   -2.5448    1.0431   -1.0609 C   0  0  0  1  0  0  0  0  0  0  0  0
    1.9685   -0.0725    1.5945 C   0  0  0  1  0  0  0  0  0  0  0  0
   -3.4885    1.0048   -2.2696 C   0  0  0  1  0  0  0  0  0  0  0  0
   -2.6530    0.2001   -0.1720 O   0  0  0  1  0  0  0  0  0  0  0  0
    1.5818    1.9615    1.1846 H   0  0  0  1  0  0  0  0  0  0  0  0
    1.3024   -0.8961    1.7458 H   0  0  0  1  0  0  0  0  0  0  0  0
    2.4089    0.2060    2.5290 H   0  0  0  1  0  0  0  0  0  0  0  0
    2.7380   -0.3579    0.9080 H   0  0  0  1  0  0  0  0  0  0  0  0
   -3.1233    0.2984   -2.9856 H   0  0  0  1  0  0  0  0  0  0  0  0
   -3.5336    1.9754   -2.7176 H   0  0  0  1  0  0  0  0  0  0  0  0
   -4.4669    0.7136   -1.9488 H   0  0  0  1  0  0  0  0  0  0  0  0
   -0.4469    7.6394    1.7492 F   0  0  0  1  0  0  0  0  0  0  0  0
   -1.6194    7.7046    1.1159 C   0  0  0  1  0  0  0  0  0  0  0  0
   -2.3499    8.6047    1.7759 F   0  0  0  1  0  0  0  0  0  0  0  0
   -1.3677    8.2337   -0.0822 F   0  0  0  1  0  0  0  0  0  0  0  0
   -2.3024    6.3607    1.0231 C   0  0  0  1  0  0  0  0  0  0  0  0
   -1.5642    5.1997    1.1558 C   0  0  0  1  0  0  0  0  0  0  0  0
   -2.1921    3.9664    1.0759 C   0  0  0  1  0  0  0  0  0  0  0  0
   -3.5552    3.8976    0.8582 C   0  0  0  1  0  0  0  0  0  0  0  0
   -4.2954    5.0620    0.7252 C   0  0  0  1  0  0  0  0  0  0  0  0
   -3.6696    6.2917    0.8048 C   0  0  0  1  0  0  0  0  0  0  0  0
   -1.3864    2.6977    1.2267 C   0  0  0  1  0  0  0  0  0  0  0  0
   -0.5379    5.2514    1.3155 H   0  0  0  1  0  0  0  0  0  0  0  0
   -4.0256    2.9722    0.7943 H   0  0  0  1  0  0  0  0  0  0  0  0
   -5.3217    5.0103    0.5654 H   0  0  0  1  0  0  0  0  0  0  0  0
   -4.2243    7.1653    0.7010 H   0  0  0  1  0  0  0  0  0  0  0  0
   -0.6617    2.8681    1.9952 H   0  0  0  1  0  0  0  0  0  0  0  0
   -2.0597    1.9257    1.5355 H   0  0  0  1  0  0  0  0  0  0  0  0
  1  4  1  0  0  0  0
  2  4  1  0  0  0  0
  2  5  2  0  0  0  0
  2  6  1  0  0  0  0
  3  4  1  0  0  0  0
  3  7  1  0  0  0  0
  3  8  1  0  0  0  0
  4 29  1  0  0  0  0
  6  9  1  0  0  0  0
  6 12  1  0  0  0  0
  8 10  1  0  0  0  0
  8 11  2  0  0  0  0
  9 13  1  0  0  0  0
  9 14  1  0  0  0  0
  9 15  1  0  0  0  0
 10 16  1  0  0  0  0
 10 17  1  0  0  0  0
 10 18  1  0  0  0  0
 19 20  1  0  0  0  0
 20 21  1  0  0  0  0
 20 22  1  0  0  0  0
 20 23  1  0  0  0  0
 23 24  4  0  0  0  0
 23 28  4  0  0  0  0
 24 25  4  0  0  0  0
 24 30  1  0  0  0  0
 25 26  4  0  0  0  0
 25 29  1  0  0  0  0
 26 27  4  0  0  0  0
 26 31  1  0  0  0  0
 27 28  4  0  0  0  0
 27 32  1  0  0  0  0
 28 33  1  0  0  0  0
 29 34  1  0  0  0  0
 29 35  1  0  0  0  0
M  END
> <BCLConfClusterSize>
1

> <ConfClashScore>
0 

> <ConfOneFourInteractionScore>
-0.984592 

> <ConfScore>
0.238682 

> <ConfScorePBest>
0.00304907 

> <ConfTolerance>
0.524144 

> <RosettaParamsInstructions>
M  ROOT 3
M  POLY_N_BB 3
M  POLY_CA_BB 4
M  POLY_C_BB 2
M  POLY_O_BB 5
M  POLY_IGNORE 9 10 11 12 13 14 15 16 17 18 
M  POLY_UPPER 6
M  POLY_LOWER 8
M  POLY_CHG 0
M  POLY_PROPERTIES ALPHA_AA L_AA PROTEIN AROMATIC POLYMER 
M  END

$$$$



 35 35  0  0  0  0  0  0  0  0999 V2000
   -0.4468    1.2262   -0.1128 H   0  0  0  1  0  0  0  0  0  0  0  0
   -2.2436    1.8054   -1.0732 C   0  0  0  1  0  0  0  0  0  0  0  0
   -0.1562    3.0750   -0.9926 N   0  0  0  1  0  0  0  0  0  0  0  0
   -0.9930    2.1339   -0.2632 C   0  0  0  1  0  0  0  0  0  0  0  0
   -2.9807    0.8760   -0.7469 O   0  0  0  1  0  0  0  0  0  0  0  0
   -2.5141    2.5598   -2.1502 N   0  0  0  1  0  0  0  0  0  0  0  0
   -0.5661    3.8854   -1.3609 H   0  0  0  1  0  0  0  0  0  0  0  0
    1.1610    2.8710   -1.1790 C   0  0  0  1  0  0  0  0  0  0  0  0
   -3.6435    2.3588   -3.0457 C   0  0  0  1  0  0  0  0  0  0  0  0
    1.8995    3.9693   -1.9189 C   0  0  0  1  0  0  0  0  0  0  0  0
    1.7458    1.8641   -0.7817 O   0  0  0  1  0  0  0  0  0  0  0  0
   -1.9052    3.3017   -2.3483 H   0  0  0  1  0  0  0  0  0  0  0  0
   -3.5178    1.4394   -3.5784 H   0  0  0  1  0  0  0  0  0  0  0  0
   -3.6951    3.1698   -3.7418 H   0  0  0  1  0  0  0  0  0  0  0  0
   -4.5480    2.3195   -2.4754 H   0  0  0  1  0  0  0  0  0  0  0  0
    1.8232    3.8034   -2.9732 H   0  0  0  1  0  0  0  0  0  0  0  0
    2.9299    3.9627   -1.6307 H   0  0  0  1  0  0  0  0  0  0  0  0
    1.4664    4.9169   -1.6750 H   0  0  0  1  0  0  0  0  0  0  0  0
   -0.3302    7.6247    1.4775 F   0  0  0  1  0  0  0  0  0  0  0  0
   -1.6102    7.7251    1.1149 C   0  0  0  1  0  0  0  0  0  0  0  0
   -2.1874    8.5337    2.0050 F   0  0  0  1  0  0  0  0  0  0  0  0
   -1.6190    8.3807   -0.0465 F   0  0  0  1  0  0  0  0  0  0  0  0
   -2.2952    6.3772    1.0255 C   0  0  0  1  0  0  0  0  0  0  0  0
   -1.5668    5.1931    1.1135 C   0  0  0  1  0  0  0  0  0  0  0  0
   -2.1896    3.9587    1.0266 C   0  0  0  1  0  0  0  0  0  0  0  0
   -3.5654    3.8903    0.8644 C   0  0  0  1  0  0  0  0  0  0  0  0
   -4.3025    5.0487    0.7752 C   0  0  0  1  0  0  0  0  0  0  0  0
   -3.6720    6.2817    0.8529 C   0  0  0  1  0  0  0  0  0  0  0  0
   -1.3727    2.6909    1.1083 C   0  0  0  1  0  0  0  0  0  0  0  0
   -0.5364    5.2366    1.2469 H   0  0  0  1  0  0  0  0  0  0  0  0
   -4.0386    2.9658    0.8103 H   0  0  0  1  0  0  0  0  0  0  0  0
   -5.3337    4.9998    0.6492 H   0  0  0  1  0  0  0  0  0  0  0  0
   -4.2390    7.1505    0.7809 H   0  0  0  1  0  0  0  0  0  0  0  0
   -0.4748    2.8987    1.6519 H   0  0  0  1  0  0  0  0  0  0  0  0
   -1.9431    1.9512    1.6303 H   0  0  0  1  0  0  0  0  0  0  0  0
  1  4  1  0  0  0  0
  2  4  1  0  0  0  0
  2  5  2  0  0  0  0
  2  6  1  0  0  0  0
  3  4  1  0  0  0  0
  3  7  1  0  0  0  0
  3  8  1  0  0  0  0
  4 29  1  0  0  0  0
  6  9  1  0  0  0  0
  6 12  1  0  0  0  0
  8 10  1  0  0  0  0
  8 11  2  0  0  0  0
  9 13  1  0  0  0  0
  9 14  1  0  0  0  0
  9 15  1  0  0  0  0
 10 16  1  0  0  0  0
 10 17  1  0  0  0  0
 10 18  1  0  0  0  0
 19 20  1  0  0  0  0
 20 21  1  0  0  0  0
 20 22  1  0  0  0  0
 20 23  1  0  0  0  0
 23 24  4  0  0  0  0
 23 28  4  0  0  0  0
 24 25  4  0  0  0  0
 24 30  1  0  0  0  0
 25 26  4  0  0  0  0
 25 29  1  0  0  0  0
 26 27  4  0  0  0  0
 26 31  1  0  0  0  0
 27 28  4  0  0  0  0
 27 32  1  0  0  0  0
 28 33  1  0  0  0  0
 29 34  1  0  0  0  0
 29 35  1  0  0  0  0
M  END
> <BCLConfClusterSize>
1

> <ConfClashScore>
0 

> <ConfOneFourInteractionScore>
-0.9553 

> <ConfScore>
0.239728 

> <ConfScorePBest>
0.00302059 

> <ConfTolerance>
0.473219 

> <RosettaParamsInstructions>
M  ROOT 3
M  POLY_N_BB 3
M  POLY_CA_BB 4
M  POLY_C_BB 2
M  POLY_O_BB 5
M  POLY_IGNORE 9 10 11 12 13 14 15 16 17 18 
M  POLY_UPPER 6
M  POLY_LOWER 8
M  POLY_CHG 0
M  POLY_PROPERTIES ALPHA_AA L_AA PROTEIN AROMATIC POLYMER 
M  END

$$$$



 35 35  0  0  0  0  0  0  0  0999 V2000
   -2.5520    1.8158    2.7768 H   0  0  0  1  0  0  0  0  0  0  0  0
   -0.7303    0.7704    2.7492 C   0  0  0  1  0  0  0  0  0  0  0  0
   -1.1476    3.0305    3.6617 N   0  0  0  1  0  0  0  0  0  0  0  0
   -1.5192    2.0609    2.6421 C   0  0  0  1  0  0  0  0  0  0  0  0
    0.4770    0.7779    2.9858 O   0  0  0  1  0  0  0  0  0  0  0  0
   -1.4331   -0.3593    2.5701 N   0  0  0  1  0  0  0  0  0  0  0  0
   -1.7301    3.1723    4.4370 H   0  0  0  1  0  0  0  0  0  0  0  0
   -0.0140    3.7276    3.5433 C   0  0  0  1  0  0  0  0  0  0  0  0
   -0.8062   -1.6726    2.5674 C   0  0  0  1  0  0  0  0  0  0  0  0
    0.2577    4.7351    4.6434 C   0  0  0  1  0  0  0  0  0  0  0  0
    0.7647    3.5768    2.6163 O   0  0  0  1  0  0  0  0  0  0  0  0
   -2.4020   -0.2974    2.4365 H   0  0  0  1  0  0  0  0  0  0  0  0
   -0.6368   -1.9855    1.5583 H   0  0  0  1  0  0  0  0  0  0  0  0
   -1.4489   -2.3753    3.0553 H   0  0  0  1  0  0  0  0  0  0  0  0
    0.1280   -1.6227    3.0867 H   0  0  0  1  0  0  0  0  0  0  0  0
   -0.5090    5.4815    4.6415 H   0  0  0  1  0  0  0  0  0  0  0  0
    1.2072    5.1990    4.4752 H   0  0  0  1  0  0  0  0  0  0  0  0
    0.2668    4.2358    5.5897 H   0  0  0  1  0  0  0  0  0  0  0  0
   -0.4981    7.6551    1.8309 F   0  0  0  1  0  0  0  0  0  0  0  0
   -1.6228    7.7047    1.1149 C   0  0  0  1  0  0  0  0  0  0  0  0
   -2.3896    8.6330    1.6892 F   0  0  0  1  0  0  0  0  0  0  0  0
   -1.2832    8.1881   -0.0808 F   0  0  0  1  0  0  0  0  0  0  0  0
   -2.3098    6.3627    1.0227 C   0  0  0  1  0  0  0  0  0  0  0  0
   -1.5739    5.1963    1.1704 C   0  0  0  1  0  0  0  0  0  0  0  0
   -2.1807    3.9472    1.0946 C   0  0  0  1  0  0  0  0  0  0  0  0
   -3.5532    3.9037    0.8606 C   0  0  0  1  0  0  0  0  0  0  0  0
   -4.2919    5.0649    0.7024 C   0  0  0  1  0  0  0  0  0  0  0  0
   -3.6648    6.2988    0.7922 C   0  0  0  1  0  0  0  0  0  0  0  0
   -1.3775    2.6788    1.2606 C   0  0  0  1  0  0  0  0  0  0  0  0
   -0.5498    5.2569    1.3409 H   0  0  0  1  0  0  0  0  0  0  0  0
   -4.0322    2.9823    0.8037 H   0  0  0  1  0  0  0  0  0  0  0  0
   -5.3138    5.0116    0.5168 H   0  0  0  1  0  0  0  0  0  0  0  0
   -4.2173    7.1734    0.6857 H   0  0  0  1  0  0  0  0  0  0  0  0
   -1.7099    1.9676    0.5337 H   0  0  0  1  0  0  0  0  0  0  0  0
   -0.3452    2.9050    1.0930 H   0  0  0  1  0  0  0  0  0  0  0  0
  1  4  1  0  0  0  0
  2  4  1  0  0  0  0
  2  5  2  0  0  0  0
  2  6  1  0  0  0  0
  3  4  1  0  0  0  0
  3  7  1  0  0  0  0
  3  8  1  0  0  0  0
  4 29  1  0  0  0  0
  6  9  1  0  0  0  0
  6 12  1  0  0  0  0
  8 10  1  0  0  0  0
  8 11  2  0  0  0  0
  9 13  1  0  0  0  0
  9 14  1  0  0  0  0
  9 15  1  0  0  0  0
 10 16  1  0  0  0  0
 10 17  1  0  0  0  0
 10 18  1  0  0  0  0
 19 20  1  0  0  0  0
 20 21  1  0  0  0  0
 20 22  1  0  0  0  0
 20 23  1  0  0  0  0
 23 24  4  0  0  0  0
 23 28  4  0  0  0  0
 24 25  4  0  0  0  0
 24 30  1  0  0  0  0
 25 26  4  0  0  0  0
 25 29  1  0  0  0  0
 26 27  4  0  0  0  0
 26 31  1  0  0  0  0
 27 28  4  0  0  0  0
 27 32  1  0  0  0  0
 28 33  1  0  0  0  0
 29 34  1  0  0  0  0
 29 35  1  0  0  0  0
M  END
> <BCLConfClusterSize>
1

> <ConfClashScore>
0 

> <ConfOneFourInteractionScore>
-0.984199 

> <ConfScore>
0.253195 

> <ConfScorePBest>
0.00299211 

> <ConfTolerance>
0.609181 

> <RosettaParamsInstructions>
M  ROOT 3
M  POLY_N_BB 3
M  POLY_CA_BB 4
M  POLY_C_BB 2
M  POLY_O_BB 5
M  POLY_IGNORE 9 10 11 12 13 14 15 16 17 18 
M  POLY_UPPER 6
M  POLY_LOWER 8
M  POLY_CHG 0
M  POLY_PROPERTIES ALPHA_AA L_AA PROTEIN AROMATIC POLYMER 
M  END

$$$$



 35 35  0  0  0  0  0  0  0  0999 V2000
   -2.6666    1.2565    1.7355 H   0  0  0  1  0  0  0  0  0  0  0  0
   -0.6987    0.5498    2.0770 C   0  0  0  1  0  0  0  0  0  0  0  0
   -1.8449    2.3703    3.2719 N   0  0  0  1  0  0  0  0  0  0  0  0
   -1.7198    1.6816    1.9960 C   0  0  0  1  0  0  0  0  0  0  0  0
   -0.0831    0.2070    1.0695 O   0  0  0  1  0  0  0  0  0  0  0  0
   -0.4635    0.0367    3.2879 N   0  0  0  1  0  0  0  0  0  0  0  0
   -1.0529    2.8006    3.6567 H   0  0  0  1  0  0  0  0  0  0  0  0
   -3.0019    2.4366    3.9368 C   0  0  0  1  0  0  0  0  0  0  0  0
    0.4339   -1.0759    3.5613 C   0  0  0  1  0  0  0  0  0  0  0  0
   -2.9897    3.2786    5.1977 C   0  0  0  1  0  0  0  0  0  0  0  0
   -4.0204    1.8592    3.5657 O   0  0  0  1  0  0  0  0  0  0  0  0
   -0.9303    0.4399    4.0494 H   0  0  0  1  0  0  0  0  0  0  0  0
    1.4286   -0.7068    3.7000 H   0  0  0  1  0  0  0  0  0  0  0  0
    0.4185   -1.7573    2.7365 H   0  0  0  1  0  0  0  0  0  0  0  0
    0.1145   -1.5817    4.4485 H   0  0  0  1  0  0  0  0  0  0  0  0
   -2.2122    2.9363    5.8483 H   0  0  0  1  0  0  0  0  0  0  0  0
   -3.9337    3.1911    5.6938 H   0  0  0  1  0  0  0  0  0  0  0  0
   -2.8147    4.3024    4.9409 H   0  0  0  1  0  0  0  0  0  0  0  0
   -0.3621    7.6691    0.6669 F   0  0  0  1  0  0  0  0  0  0  0  0
   -1.6191    7.7048    1.1125 C   0  0  0  1  0  0  0  0  0  0  0  0
   -1.5584    8.1662    2.3626 F   0  0  0  1  0  0  0  0  0  0  0  0
   -2.2421    8.6428    0.3978 F   0  0  0  1  0  0  0  0  0  0  0  0
   -2.3027    6.3608    1.0242 C   0  0  0  1  0  0  0  0  0  0  0  0
   -1.5498    5.2019    1.0124 C   0  0  0  1  0  0  0  0  0  0  0  0
   -2.1774    3.9682    0.9368 C   0  0  0  1  0  0  0  0  0  0  0  0
   -3.5560    3.8974    0.8678 C   0  0  0  1  0  0  0  0  0  0  0  0
   -4.3113    5.0597    0.8797 C   0  0  0  1  0  0  0  0  0  0  0  0
   -3.6854    6.2896    0.9551 C   0  0  0  1  0  0  0  0  0  0  0  0
   -1.3548    2.7014    0.9297 C   0  0  0  1  0  0  0  0  0  0  0  0
   -0.5123    5.2554    1.0602 H   0  0  0  1  0  0  0  0  0  0  0  0
   -4.0268    2.9721    0.8071 H   0  0  0  1  0  0  0  0  0  0  0  0
   -5.3488    5.0062    0.8319 H   0  0  0  1  0  0  0  0  0  0  0  0
   -4.2518    7.1618    0.9599 H   0  0  0  1  0  0  0  0  0  0  0  0
   -1.4735    2.2361   -0.0265 H   0  0  0  1  0  0  0  0  0  0  0  0
   -0.3294    2.9729    1.0699 H   0  0  0  1  0  0  0  0  0  0  0  0
  1  4  1  0  0  0  0
  2  4  1  0  0  0  0
  2  5  2  0  0  0  0
  2  6  1  0  0  0  0
  3  4  1  0  0  0  0
  3  7  1  0  0  0  0
  3  8  1  0  0  0  0
  4 29  1  0  0  0  0
  6  9  1  0  0  0  0
  6 12  1  0  0  0  0
  8 10  1  0  0  0  0
  8 11  2  0  0  0  0
  9 13  1  0  0  0  0
  9 14  1  0  0  0  0
  9 15  1  0  0  0  0
 10 16  1  0  0  0  0
 10 17  1  0  0  0  0
 10 18  1  0  0  0  0
 19 20  1  0  0  0  0
 20 21  1  0  0  0  0
 20 22  1  0  0  0  0
 20 23  1  0  0  0  0
 23 24  4  0  0  0  0
 23 28  4  0  0  0  0
 24 25  4  0  0  0  0
 24 30  1  0  0  0  0
 25 26  4  0  0  0  0
 25 29  1  0  0  0  0
 26 27  4  0  0  0  0
 26 31  1  0  0  0  0
 27 28  4  0  0  0  0
 27 32  1  0  0  0  0
 28 33  1  0  0  0  0
 29 34  1  0  0  0  0
 29 35  1  0  0  0  0
M  END
> <BCLConfClusterSize>
1

> <ConfClashScore>
0 

> <ConfOneFourInteractionScore>
-0.927774 

> <ConfScore>
0.258978 

> <ConfScorePBest>
0.00296363 

> <ConfTolerance>
0.897045 

> <RosettaParamsInstructions>
M  ROOT 3
M  POLY_N_BB 3
M  POLY_CA_BB 4
M  POLY_C_BB 2
M  POLY_O_BB 5
M  POLY_IGNORE 9 10 11 12 13 14 15 16 17 18 
M  POLY_UPPER 6
M  POLY_LOWER 8
M  POLY_CHG 0
M  POLY_PROPERTIES ALPHA_AA L_AA PROTEIN AROMATIC POLYMER 
M  END

$$$$



 35 35  0  0  0  0  0  0  0  0999 V2000
   -2.2722    1.6642    3.1659 H   0  0  0  1  0  0  0  0  0  0  0  0
   -0.1912    1.6363    3.4399 C   0  0  0  1  0  0  0  0  0  0  0  0
   -1.7236    3.5107    3.8684 N   0  0  0  1  0  0  0  0  0  0  0  0
   -1.4677    2.3548    3.0220 C   0  0  0  1  0  0  0  0  0  0  0  0
   -0.0986    0.4123    3.3992 O   0  0  0  1  0  0  0  0  0  0  0  0
    0.7862    2.4635    3.8432 N   0  0  0  1  0  0  0  0  0  0  0  0
   -1.8430    4.3878    3.4478 H   0  0  0  1  0  0  0  0  0  0  0  0
   -1.8019    3.4172    5.2053 C   0  0  0  1  0  0  0  0  0  0  0  0
    2.0556    1.9735    4.3593 C   0  0  0  1  0  0  0  0  0  0  0  0
   -2.0726    4.6838    5.9937 C   0  0  0  1  0  0  0  0  0  0  0  0
   -1.6589    2.3388    5.7754 O   0  0  0  1  0  0  0  0  0  0  0  0
    0.6397    3.4309    3.7883 H   0  0  0  1  0  0  0  0  0  0  0  0
    2.0240    0.9064    4.4311 H   0  0  0  1  0  0  0  0  0  0  0  0
    2.2312    2.3909    5.3287 H   0  0  0  1  0  0  0  0  0  0  0  0
    2.8450    2.2630    3.6975 H   0  0  0  1  0  0  0  0  0  0  0  0
   -3.0046    5.1067    5.6814 H   0  0  0  1  0  0  0  0  0  0  0  0
   -1.2857    5.3874    5.8191 H   0  0  0  1  0  0  0  0  0  0  0  0
   -2.1187    4.4511    7.0371 H   0  0  0  1  0  0  0  0  0  0  0  0
   -2.4523    8.7188    0.8777 F   0  0  0  1  0  0  0  0  0  0  0  0
   -1.6200    7.7047    1.1202 C   0  0  0  1  0  0  0  0  0  0  0  0
   -0.6145    7.8320    0.2530 F   0  0  0  1  0  0  0  0  0  0  0  0
   -1.1018    7.9278    2.3287 F   0  0  0  1  0  0  0  0  0  0  0  0
   -2.3019    6.3605    1.0223 C   0  0  0  1  0  0  0  0  0  0  0  0
   -1.5966    5.2057    1.3039 C   0  0  0  1  0  0  0  0  0  0  0  0
   -2.2240    3.9725    1.2192 C   0  0  0  1  0  0  0  0  0  0  0  0
   -3.5532    3.8972    0.8479 C   0  0  0  1  0  0  0  0  0  0  0  0
   -4.2603    5.0555    0.5655 C   0  0  0  1  0  0  0  0  0  0  0  0
   -3.6350    6.2852    0.6499 C   0  0  0  1  0  0  0  0  0  0  0  0
   -1.4549    2.7108    1.5326 C   0  0  0  1  0  0  0  0  0  0  0  0
   -0.5953    5.2620    1.5794 H   0  0  0  1  0  0  0  0  0  0  0  0
   -4.0227    2.9717    0.7804 H   0  0  0  1  0  0  0  0  0  0  0  0
   -5.2616    4.9993    0.2900 H   0  0  0  1  0  0  0  0  0  0  0  0
   -4.1645    7.1538    0.4341 H   0  0  0  1  0  0  0  0  0  0  0  0
   -1.8908    1.9014    0.9852 H   0  0  0  1  0  0  0  0  0  0  0  0
   -0.4394    2.8453    1.2233 H   0  0  0  1  0  0  0  0  0  0  0  0
  1  4  1  0  0  0  0
  2  4  1  0  0  0  0
  2  5  2  0  0  0  0
  2  6  1  0  0  0  0
  3  4  1  0  0  0  0
  3  7  1  0  0  0  0
  3  8  1  0  0  0  0
  4 29  1  0  0  0  0
  6  9  1  0  0  0  0
  6 12  1  0  0  0  0
  8 10  1  0  0  0  0
  8 11  2  0  0  0  0
  9 13  1  0  0  0  0
  9 14  1  0  0  0  0
  9 15  1  0  0  0  0
 10 16  1  0  0  0  0
 10 17  1  0  0  0  0
 10 18  1  0  0  0  0
 19 20  1  0  0  0  0
 20 21  1  0  0  0  0
 20 22  1  0  0  0  0
 20 23  1  0  0  0  0
 23 24  4  0  0  0  0
 23 28  4  0  0  0  0
 24 25  4  0  0  0  0
 24 30  1  0  0  0  0
 25 26  4  0  0  0  0
 25 29  1  0  0  0  0
 26 27  4  0  0  0  0
 26 31  1  0  0  0  0
 27 28  4  0  0  0  0
 27 32  1  0  0  0  0
 28 33  1  0  0  0  0
 29 34  1  0  0  0  0
 29 35  1  0  0  0  0
M  END
> <BCLConfClusterSize>
1

> <ConfClashScore>
0 

> <ConfOneFourInteractionScore>
-0.928132 

> <ConfScore>
0.260323 

> <ConfScorePBest>
0.00293515 

> <ConfTolerance>
1.02511 

> <RosettaParamsInstructions>
M  ROOT 3
M  POLY_N_BB 3
M  POLY_CA_BB 4
M  POLY_C_BB 2
M  POLY_O_BB 5
M  POLY_IGNORE 9 10 11 12 13 14 15 16 17 18 
M  POLY_UPPER 6
M  POLY_LOWER 8
M  POLY_CHG 0
M  POLY_PROPERTIES ALPHA_AA L_AA PROTEIN AROMATIC POLYMER 
M  END

$$$$



 35 35  0  0  0  0  0  0  0  0999 V2000
    0.4375    3.5190    0.2173 H   0  0  0  1  0  0  0  0  0  0  0  0
    0.5152    3.6168    2.3328 C   0  0  0  1  0  0  0  0  0  0  0  0
    0.8269    1.6188    0.9569 N   0  0  0  1  0  0  0  0  0  0  0  0
    0.1506    2.9044    1.0448 C   0  0  0  1  0  0  0  0  0  0  0  0
    0.0941    3.2309    3.4108 O   0  0  0  1  0  0  0  0  0  0  0  0
    1.3201    4.6831    2.2017 N   0  0  0  1  0  0  0  0  0  0  0  0
    0.2953    0.7987    1.0306 H   0  0  0  1  0  0  0  0  0  0  0  0
    2.1472    1.5176    0.7792 C   0  0  0  1  0  0  0  0  0  0  0  0
    1.8307    5.4174    3.3497 C   0  0  0  1  0  0  0  0  0  0  0  0
    2.7138    0.1123    0.8366 C   0  0  0  1  0  0  0  0  0  0  0  0
    2.8729    2.4910    0.5806 O   0  0  0  1  0  0  0  0  0  0  0  0
    1.5727    4.9772    1.3016 H   0  0  0  1  0  0  0  0  0  0  0  0
    2.8016    5.8056    3.1223 H   0  0  0  1  0  0  0  0  0  0  0  0
    1.8978    4.7607    4.1918 H   0  0  0  1  0  0  0  0  0  0  0  0
    1.1683    6.2258    3.5790 H   0  0  0  1  0  0  0  0  0  0  0  0
    2.4622   -0.4112   -0.0620 H   0  0  0  1  0  0  0  0  0  0  0  0
    2.3008   -0.4044    1.6777 H   0  0  0  1  0  0  0  0  0  0  0  0
    3.7782    0.1609    0.9347 H   0  0  0  1  0  0  0  0  0  0  0  0
   -0.2938    7.5830    1.0689 F   0  0  0  1  0  0  0  0  0  0  0  0
   -1.6214    7.7094    1.1067 C   0  0  0  1  0  0  0  0  0  0  0  0
   -1.9094    8.3311    2.2512 F   0  0  0  1  0  0  0  0  0  0  0  0
   -1.9673    8.5292    0.1132 F   0  0  0  1  0  0  0  0  0  0  0  0
   -2.3048    6.3650    1.0235 C   0  0  0  1  0  0  0  0  0  0  0  0
   -1.5516    5.2017    1.0547 C   0  0  0  1  0  0  0  0  0  0  0  0
   -2.1766    3.9717    0.9733 C   0  0  0  1  0  0  0  0  0  0  0  0
   -3.5568    3.9010    0.8658 C   0  0  0  1  0  0  0  0  0  0  0  0
   -4.3076    5.0610    0.8347 C   0  0  0  1  0  0  0  0  0  0  0  0
   -3.6810    6.2948    0.9164 C   0  0  0  1  0  0  0  0  0  0  0  0
   -1.3555    2.7042    1.0014 C   0  0  0  1  0  0  0  0  0  0  0  0
   -0.5164    5.2545    1.1394 H   0  0  0  1  0  0  0  0  0  0  0  0
   -4.0273    2.9753    0.8085 H   0  0  0  1  0  0  0  0  0  0  0  0
   -5.3428    5.0082    0.7500 H   0  0  0  1  0  0  0  0  0  0  0  0
   -4.2463    7.1675    0.8970 H   0  0  0  1  0  0  0  0  0  0  0  0
   -1.6395    2.1461    1.8690 H   0  0  0  1  0  0  0  0  0  0  0  0
   -1.5883    2.1405    0.1222 H   0  0  0  1  0  0  0  0  0  0  0  0
  1  4  1  0  0  0  0
  2  4  1  0  0  0  0
  2  5  2  0  0  0  0
  2  6  1  0  0  0  0
  3  4  1  0  0  0  0
  3  7  1  0  0  0  0
  3  8  1  0  0  0  0
  4 29  1  0  0  0  0
  6  9  1  0  0  0  0
  6 12  1  0  0  0  0
  8 10  1  0  0  0  0
  8 11  2  0  0  0  0
  9 13  1  0  0  0  0
  9 14  1  0  0  0  0
  9 15  1  0  0  0  0
 10 16  1  0  0  0  0
 10 17  1  0  0  0  0
 10 18  1  0  0  0  0
 19 20  1  0  0  0  0
 20 21  1  0  0  0  0
 20 22  1  0  0  0  0
 20 23  1  0  0  0  0
 23 24  4  0  0  0  0
 23 28  4  0  0  0  0
 24 25  4  0  0  0  0
 24 30  1  0  0  0  0
 25 26  4  0  0  0  0
 25 29  1  0  0  0  0
 26 27  4  0  0  0  0
 26 31  1  0  0  0  0
 27 28  4  0  0  0  0
 27 32  1  0  0  0  0
 28 33  1  0  0  0  0
 29 34  1  0  0  0  0
 29 35  1  0  0  0  0
M  END
> <BCLConfClusterSize>
1

> <ConfClashScore>
0 

> <ConfOneFourInteractionScore>
-0.971693 

> <ConfScore>
0.263175 

> <ConfScorePBest>
0.00290666 

> <ConfTolerance>
1.08291 

> <RosettaParamsInstructions>
M  ROOT 3
M  POLY_N_BB 3
M  POLY_CA_BB 4
M  POLY_C_BB 2
M  POLY_O_BB 5
M  POLY_IGNORE 9 10 11 12 13 14 15 16 17 18 
M  POLY_UPPER 6
M  POLY_LOWER 8
M  POLY_CHG 0
M  POLY_PROPERTIES ALPHA_AA L_AA PROTEIN AROMATIC POLYMER 
M  END

$$$$



 35 35  0  0  0  0  0  0  0  0999 V2000
   -0.3986    1.3090    2.2374 H   0  0  0  1  0  0  0  0  0  0  0  0
   -0.2327    3.2063    3.1463 C   0  0  0  1  0  0  0  0  0  0  0  0
   -2.2484    1.7625    3.0172 N   0  0  0  1  0  0  0  0  0  0  0  0
   -1.0230    2.1710    2.3469 C   0  0  0  1  0  0  0  0  0  0  0  0
    0.4738    4.0277    2.5855 O   0  0  0  1  0  0  0  0  0  0  0  0
   -0.3176    3.0810    4.4801 N   0  0  0  1  0  0  0  0  0  0  0  0
   -2.7317    2.4193    3.5607 H   0  0  0  1  0  0  0  0  0  0  0  0
   -2.7374    0.5231    2.9174 C   0  0  0  1  0  0  0  0  0  0  0  0
    0.4231    3.9415    5.3905 C   0  0  0  1  0  0  0  0  0  0  0  0
   -3.9536    0.1876    3.7899 C   0  0  0  1  0  0  0  0  0  0  0  0
   -2.3126   -0.3006    2.1240 O   0  0  0  1  0  0  0  0  0  0  0  0
   -0.8986    2.3859    4.8539 H   0  0  0  1  0  0  0  0  0  0  0  0
    0.4373    4.9400    5.0060 H   0  0  0  1  0  0  0  0  0  0  0  0
    1.4263    3.5814    5.4844 H   0  0  0  1  0  0  0  0  0  0  0  0
   -0.0497    3.9359    6.3503 H   0  0  0  1  0  0  0  0  0  0  0  0
   -4.4937    1.0846    4.0100 H   0  0  0  1  0  0  0  0  0  0  0  0
   -3.6239   -0.2630    4.7028 H   0  0  0  1  0  0  0  0  0  0  0  0
   -4.5914   -0.4930    3.2657 H   0  0  0  1  0  0  0  0  0  0  0  0
   -0.3389    7.6316    0.7443 F   0  0  0  1  0  0  0  0  0  0  0  0
   -1.6168    7.7122    1.1189 C   0  0  0  1  0  0  0  0  0  0  0  0
   -1.6443    8.1990    2.3605 F   0  0  0  1  0  0  0  0  0  0  0  0
   -2.2028    8.6065    0.3309 F   0  0  0  1  0  0  0  0  0  0  0  0
   -2.3045    6.3664    1.0231 C   0  0  0  1  0  0  0  0  0  0  0  0
   -1.5540    5.2020    1.0141 C   0  0  0  1  0  0  0  0  0  0  0  0
   -2.1628    3.9511    0.9423 C   0  0  0  1  0  0  0  0  0  0  0  0
   -3.5512    3.9073    0.8740 C   0  0  0  1  0  0  0  0  0  0  0  0
   -4.3075    5.0699    0.8726 C   0  0  0  1  0  0  0  0  0  0  0  0
   -3.6875    6.2962    0.9440 C   0  0  0  1  0  0  0  0  0  0  0  0
   -1.3415    2.6834    0.9389 C   0  0  0  1  0  0  0  0  0  0  0  0
   -0.5169    5.2629    1.0619 H   0  0  0  1  0  0  0  0  0  0  0  0
   -4.0310    2.9860    0.8230 H   0  0  0  1  0  0  0  0  0  0  0  0
   -5.3446    5.0148    0.8175 H   0  0  0  1  0  0  0  0  0  0  0  0
   -4.2543    7.1681    0.9387 H   0  0  0  1  0  0  0  0  0  0  0  0
   -1.8869    1.9258    0.4160 H   0  0  0  1  0  0  0  0  0  0  0  0
   -0.4202    2.8759    0.4299 H   0  0  0  1  0  0  0  0  0  0  0  0
  1  4  1  0  0  0  0
  2  4  1  0  0  0  0
  2  5  2  0  0  0  0
  2  6  1  0  0  0  0
  3  4  1  0  0  0  0
  3  7  1  0  0  0  0
  3  8  1  0  0  0  0
  4 29  1  0  0  0  0
  6  9  1  0  0  0  0
  6 12  1  0  0  0  0
  8 10  1  0  0  0  0
  8 11  2  0  0  0  0
  9 13  1  0  0  0  0
  9 14  1  0  0  0  0
  9 15  1  0  0  0  0
 10 16  1  0  0  0  0
 10 17  1  0  0  0  0
 10 18  1  0  0  0  0
 19 20  1  0  0  0  0
 20 21  1  0  0  0  0
 20 22  1  0  0  0  0
 20 23  1  0  0  0  0
 23 24  4  0  0  0  0
 23 28  4  0  0  0  0
 24 25  4  0  0  0  0
 24 30  1  0  0  0  0
 25 26  4  0  0  0  0
 25 29  1  0  0  0  0
 26 27  4  0  0  0  0
 26 31  1  0  0  0  0
 27 28  4  0  0  0  0
 27 32  1  0  0  0  0
 28 33  1  0  0  0  0
 29 34  1  0  0  0  0
 29 35  1  0  0  0  0
M  END
> <BCLConfClusterSize>
1

> <ConfClashScore>
0 

> <ConfOneFourInteractionScore>
-0.950895 

> <ConfScore>
0.274494 

> <ConfScorePBest>
0.00287818 

> <ConfTolerance>
0.767186 

> <RosettaParamsInstructions>
M  ROOT 3
M  POLY_N_BB 3
M  POLY_CA_BB 4
M  POLY_C_BB 2
M  POLY_O_BB 5
M  POLY_IGNORE 9 10 11 12 13 14 15 16 17 18 
M  POLY_UPPER 6
M  POLY_LOWER 8
M  POLY_CHG 0
M  POLY_PROPERTIES ALPHA_AA L_AA PROTEIN AROMATIC POLYMER 
M  END

$$$$



 35 35  0  0  0  0  0  0  0  0999 V2000
   -0.8690    3.1860   -1.0978 H   0  0  0  1  0  0  0  0  0  0  0  0
    0.5091    1.6858   -0.5407 C   0  0  0  1  0  0  0  0  0  0  0  0
   -1.9226    1.4048   -1.0538 N   0  0  0  1  0  0  0  0  0  0  0  0
   -0.8902    2.2932   -0.5085 C   0  0  0  1  0  0  0  0  0  0  0  0
    0.7343    0.5781   -0.0605 O   0  0  0  1  0  0  0  0  0  0  0  0
    1.4518    2.4324   -1.1180 N   0  0  0  1  0  0  0  0  0  0  0  0
   -2.0602    0.5282   -0.6378 H   0  0  0  1  0  0  0  0  0  0  0  0
   -2.6818    1.7493   -2.0979 C   0  0  0  1  0  0  0  0  0  0  0  0
    2.8545    2.0617   -1.2321 C   0  0  0  1  0  0  0  0  0  0  0  0
   -3.8373    0.8177   -2.4080 C   0  0  0  1  0  0  0  0  0  0  0  0
   -2.4725    2.7525   -2.7748 O   0  0  0  1  0  0  0  0  0  0  0  0
    1.1793    3.2956   -1.4935 H   0  0  0  1  0  0  0  0  0  0  0  0
    3.1383    1.4729   -0.3849 H   0  0  0  1  0  0  0  0  0  0  0  0
    3.4551    2.9465   -1.2685 H   0  0  0  1  0  0  0  0  0  0  0  0
    3.0013    1.4933   -2.1266 H   0  0  0  1  0  0  0  0  0  0  0  0
   -3.5661    0.1684   -3.2141 H   0  0  0  1  0  0  0  0  0  0  0  0
   -4.6945    1.3939   -2.6874 H   0  0  0  1  0  0  0  0  0  0  0  0
   -4.0665    0.2335   -1.5414 H   0  0  0  1  0  0  0  0  0  0  0  0
   -0.4983    7.7536    0.3926 F   0  0  0  1  0  0  0  0  0  0  0  0
   -1.6214    7.7077    1.1113 C   0  0  0  1  0  0  0  0  0  0  0  0
   -1.2780    8.0270    2.3601 F   0  0  0  1  0  0  0  0  0  0  0  0
   -2.3891    8.7042    0.6684 F   0  0  0  1  0  0  0  0  0  0  0  0
   -2.3107    6.3618    1.0251 C   0  0  0  1  0  0  0  0  0  0  0  0
   -1.5567    5.1980    0.9955 C   0  0  0  1  0  0  0  0  0  0  0  0
   -2.1629    3.9485    0.9211 C   0  0  0  1  0  0  0  0  0  0  0  0
   -3.5542    3.9022    0.8725 C   0  0  0  1  0  0  0  0  0  0  0  0
   -4.3125    5.0614    0.8918 C   0  0  0  1  0  0  0  0  0  0  0  0
   -3.6842    6.2951    0.9764 C   0  0  0  1  0  0  0  0  0  0  0  0
   -1.3392    2.6827    0.8938 C   0  0  0  1  0  0  0  0  0  0  0  0
   -0.5192    5.2609    1.0296 H   0  0  0  1  0  0  0  0  0  0  0  0
   -4.0326    2.9802    0.8208 H   0  0  0  1  0  0  0  0  0  0  0  0
   -5.3499    5.0068    0.8430 H   0  0  0  1  0  0  0  0  0  0  0  0
   -4.2498    7.1674    1.0028 H   0  0  0  1  0  0  0  0  0  0  0  0
   -0.4706    2.8284    1.5014 H   0  0  0  1  0  0  0  0  0  0  0  0
   -1.9273    1.8849    1.2970 H   0  0  0  1  0  0  0  0  0  0  0  0
  1  4  1  0  0  0  0
  2  4  1  0  0  0  0
  2  5  2  0  0  0  0
  2  6  1  0  0  0  0
  3  4  1  0  0  0  0
  3  7  1  0  0  0  0
  3  8  1  0  0  0  0
  4 29  1  0  0  0  0
  6  9  1  0  0  0  0
  6 12  1  0  0  0  0
  8 10  1  0  0  0  0
  8 11  2  0  0  0  0
  9 13  1  0  0  0  0
  9 14  1  0  0  0  0
  9 15  1  0  0  0  0
 10 16  1  0  0  0  0
 10 17  1  0  0  0  0
 10 18  1  0  0  0  0
 19 20  1  0  0  0  0
 20 21  1  0  0  0  0
 20 22  1  0  0  0  0
 20 23  1  0  0  0  0
 23 24  4  0  0  0  0
 23 28  4  0  0  0  0
 24 25  4  0  0  0  0
 24 30  1  0  0  0  0
 25 26  4  0  0  0  0
 25 29  1  0  0  0  0
 26 27  4  0  0  0  0
 26 31  1  0  0  0  0
 27 28  4  0  0  0  0
 27 32  1  0  0  0  0
 28 33  1  0  0  0  0
 29 34  1  0  0  0  0
 29 35  1  0  0  0  0
M  END
> <BCLConfClusterSize>
1

> <ConfClashScore>
0 

> <ConfOneFourInteractionScore>
-0.970447 

> <ConfScore>
0.276389 

> <ConfScorePBest>
0.0028497 

> <ConfTolerance>
0.940833 

> <RosettaParamsInstructions>
M  ROOT 3
M  POLY_N_BB 3
M  POLY_CA_BB 4
M  POLY_C_BB 2
M  POLY_O_BB 5
M  POLY_IGNORE 9 10 11 12 13 14 15 16 17 18 
M  POLY_UPPER 6
M  POLY_LOWER 8
M  POLY_CHG 0
M  POLY_PROPERTIES ALPHA_AA L_AA PROTEIN AROMATIC POLYMER 
M  END

$$$$



 35 35  0  0  0  0  0  0  0  0999 V2000
   -0.3298    1.4139   -0.4286 H   0  0  0  1  0  0  0  0  0  0  0  0
   -1.9815    2.1669   -1.4798 C   0  0  0  1  0  0  0  0  0  0  0  0
    0.1160    3.3547   -0.9450 N   0  0  0  1  0  0  0  0  0  0  0  0
   -0.8410    2.3509   -0.5044 C   0  0  0  1  0  0  0  0  0  0  0  0
   -2.9137    1.4056   -1.2244 O   0  0  0  1  0  0  0  0  0  0  0  0
   -1.9459    2.8577   -2.6295 N   0  0  0  1  0  0  0  0  0  0  0  0
   -0.1764    4.0869   -1.5272 H   0  0  0  1  0  0  0  0  0  0  0  0
    1.4032    3.2798   -0.5542 C   0  0  0  1  0  0  0  0  0  0  0  0
   -2.8749    2.6825   -3.7359 C   0  0  0  1  0  0  0  0  0  0  0  0
    2.2807    4.3721   -1.1339 C   0  0  0  1  0  0  0  0  0  0  0  0
    1.8563    2.4217    0.1987 O   0  0  0  1  0  0  0  0  0  0  0  0
   -1.2412    3.5310   -2.7319 H   0  0  0  1  0  0  0  0  0  0  0  0
   -3.8156    3.1271   -3.4863 H   0  0  0  1  0  0  0  0  0  0  0  0
   -3.0129    1.6381   -3.9234 H   0  0  0  1  0  0  0  0  0  0  0  0
   -2.4792    3.1533   -4.6115 H   0  0  0  1  0  0  0  0  0  0  0  0
    3.1501    4.4942   -0.5221 H   0  0  0  1  0  0  0  0  0  0  0  0
    1.7334    5.2911   -1.1630 H   0  0  0  1  0  0  0  0  0  0  0  0
    2.5779    4.1018   -2.1256 H   0  0  0  1  0  0  0  0  0  0  0  0
   -0.4417    7.7415    0.4680 F   0  0  0  1  0  0  0  0  0  0  0  0
   -1.6103    7.7219    1.1113 C   0  0  0  1  0  0  0  0  0  0  0  0
   -1.3499    8.0845    2.3683 F   0  0  0  1  0  0  0  0  0  0  0  0
   -2.3435    8.7030    0.5836 F   0  0  0  1  0  0  0  0  0  0  0  0
   -2.2949    6.3782    1.0267 C   0  0  0  1  0  0  0  0  0  0  0  0
   -1.5596    5.1979    1.0041 C   0  0  0  1  0  0  0  0  0  0  0  0
   -2.1854    3.9629    0.9220 C   0  0  0  1  0  0  0  0  0  0  0  0
   -3.5582    3.8878    0.8656 C   0  0  0  1  0  0  0  0  0  0  0  0
   -4.3146    5.0499    0.8967 C   0  0  0  1  0  0  0  0  0  0  0  0
   -3.6833    6.2809    0.9688 C   0  0  0  1  0  0  0  0  0  0  0  0
   -1.3590    2.6989    0.8945 C   0  0  0  1  0  0  0  0  0  0  0  0
   -0.5215    5.2422    1.0495 H   0  0  0  1  0  0  0  0  0  0  0  0
   -4.0273    2.9619    0.7997 H   0  0  0  1  0  0  0  0  0  0  0  0
   -5.3528    4.9973    0.8659 H   0  0  0  1  0  0  0  0  0  0  0  0
   -4.2565    7.1486    0.9799 H   0  0  0  1  0  0  0  0  0  0  0  0
   -0.5201    2.8262    1.5464 H   0  0  0  1  0  0  0  0  0  0  0  0
   -1.9640    1.8888    1.2450 H   0  0  0  1  0  0  0  0  0  0  0  0
  1  4  1  0  0  0  0
  2  4  1  0  0  0  0
  2  5  2  0  0  0  0
  2  6  1  0  0  0  0
  3  4  1  0  0  0  0
  3  7  1  0  0  0  0
  3  8  1  0  0  0  0
  4 29  1  0  0  0  0
  6  9  1  0  0  0  0
  6 12  1  0  0  0  0
  8 10  1  0  0  0  0
  8 11  2  0  0  0  0
  9 13  1  0  0  0  0
  9 14  1  0  0  0  0
  9 15  1  0  0  0  0
 10 16  1  0  0  0  0
 10 17  1  0  0  0  0
 10 18  1  0  0  0  0
 19 20  1  0  0  0  0
 20 21  1  0  0  0  0
 20 22  1  0  0  0  0
 20 23  1  0  0  0  0
 23 24  4  0  0  0  0
 23 28  4  0  0  0  0
 24 25  4  0  0  0  0
 24 30  1  0  0  0  0
 25 26  4  0  0  0  0
 25 29  1  0  0  0  0
 26 27  4  0  0  0  0
 26 31  1  0  0  0  0
 27 28  4  0  0  0  0
 27 32  1  0  0  0  0
 28 33  1  0  0  0  0
 29 34  1  0  0  0  0
 29 35  1  0  0  0  0
M  END
> <BCLConfClusterSize>
1

> <ConfClashScore>
0 

> <ConfOneFourInteractionScore>
-0.957723 

> <ConfScore>
0.276574 

> <ConfScorePBest>
0.00282122 

> <ConfTolerance>
0.63134 

> <RosettaParamsInstructions>
M  ROOT 3
M  POLY_N_BB 3
M  POLY_CA_BB 4
M  POLY_C_BB 2
M  POLY_O_BB 5
M  POLY_IGNORE 9 10 11 12 13 14 15 16 17 18 
M  POLY_UPPER 6
M  POLY_LOWER 8
M  POLY_CHG 0
M  POLY_PROPERTIES ALPHA_AA L_AA PROTEIN AROMATIC POLYMER 
M  END

$$$$



 35 35  0  0  0  0  0  0  0  0999 V2000
   -2.0601    2.6429    3.3852 H   0  0  0  1  0  0  0  0  0  0  0  0
   -0.7370    1.0228    3.0824 C   0  0  0  1  0  0  0  0  0  0  0  0
   -0.1502    3.4331    3.3184 N   0  0  0  1  0  0  0  0  0  0  0  0
   -1.1454    2.4719    2.8570 C   0  0  0  1  0  0  0  0  0  0  0  0
    0.4427    0.6770    3.0339 O   0  0  0  1  0  0  0  0  0  0  0  0
   -1.7400    0.1665    3.3334 N   0  0  0  1  0  0  0  0  0  0  0  0
   -0.4398    4.1279    3.9460 H   0  0  0  1  0  0  0  0  0  0  0  0
    1.1285    3.4268    2.9409 C   0  0  0  1  0  0  0  0  0  0  0  0
   -1.6380   -1.2611    3.5966 C   0  0  0  1  0  0  0  0  0  0  0  0
    1.9409    4.6337    3.3525 C   0  0  0  1  0  0  0  0  0  0  0  0
    1.6327    2.5067    2.2983 O   0  0  0  1  0  0  0  0  0  0  0  0
   -2.6436    0.5459    3.3401 H   0  0  0  1  0  0  0  0  0  0  0  0
   -1.4402   -1.7797    2.6818 H   0  0  0  1  0  0  0  0  0  0  0  0
   -2.5581   -1.6132    4.0141 H   0  0  0  1  0  0  0  0  0  0  0  0
   -0.8407   -1.4401    4.2874 H   0  0  0  1  0  0  0  0  0  0  0  0
    1.5077    5.5166    2.9309 H   0  0  0  1  0  0  0  0  0  0  0  0
    2.9448    4.5253    2.9983 H   0  0  0  1  0  0  0  0  0  0  0  0
    1.9453    4.7133    4.4195 H   0  0  0  1  0  0  0  0  0  0  0  0
   -0.7002    7.7869    2.0956 F   0  0  0  1  0  0  0  0  0  0  0  0
   -1.6129    7.7247    1.1245 C   0  0  0  1  0  0  0  0  0  0  0  0
   -2.4611    8.7334    1.3304 F   0  0  0  1  0  0  0  0  0  0  0  0
   -0.9591    8.0423    0.0063 F   0  0  0  1  0  0  0  0  0  0  0  0
   -2.2973    6.3753    1.0283 C   0  0  0  1  0  0  0  0  0  0  0  0
   -1.5904    5.1938    1.2400 C   0  0  0  1  0  0  0  0  0  0  0  0
   -2.2114    3.9589    1.1475 C   0  0  0  1  0  0  0  0  0  0  0  0
   -3.5652    3.8881    0.8543 C   0  0  0  1  0  0  0  0  0  0  0  0
   -4.2809    5.0439    0.6417 C   0  0  0  1  0  0  0  0  0  0  0  0
   -3.6512    6.2769    0.7260 C   0  0  0  1  0  0  0  0  0  0  0  0
   -1.4165    2.6932    1.3654 C   0  0  0  1  0  0  0  0  0  0  0  0
   -0.5776    5.2396    1.4718 H   0  0  0  1  0  0  0  0  0  0  0  0
   -4.0382    2.9638    0.7953 H   0  0  0  1  0  0  0  0  0  0  0  0
   -5.2952    4.9930    0.4176 H   0  0  0  1  0  0  0  0  0  0  0  0
   -4.2016    7.1436    0.5601 H   0  0  0  1  0  0  0  0  0  0  0  0
   -1.9695    1.8613    0.9821 H   0  0  0  1  0  0  0  0  0  0  0  0
   -0.4836    2.7713    0.8471 H   0  0  0  1  0  0  0  0  0  0  0  0
  1  4  1  0  0  0  0
  2  4  1  0  0  0  0
  2  5  2  0  0  0  0
  2  6  1  0  0  0  0
  3  4  1  0  0  0  0
  3  7  1  0  0  0  0
  3  8  1  0  0  0  0
  4 29  1  0  0  0  0
  6  9  1  0  0  0  0
  6 12  1  0  0  0  0
  8 10  1  0  0  0  0
  8 11  2  0  0  0  0
  9 13  1  0  0  0  0
  9 14  1  0  0  0  0
  9 15  1  0  0  0  0
 10 16  1  0  0  0  0
 10 17  1  0  0  0  0
 10 18  1  0  0  0  0
 19 20  1  0  0  0  0
 20 21  1  0  0  0  0
 20 22  1  0  0  0  0
 20 23  1  0  0  0  0
 23 24  4  0  0  0  0
 23 28  4  0  0  0  0
 24 25  4  0  0  0  0
 24 30  1  0  0  0  0
 25 26  4  0  0  0  0
 25 29  1  0  0  0  0
 26 27  4  0  0  0  0
 26 31  1  0  0  0  0
 27 28  4  0  0  0  0
 27 32  1  0  0  0  0
 28 33  1  0  0  0  0
 29 34  1  0  0  0  0
 29 35  1  0  0  0  0
M  END
> <BCLConfClusterSize>
1

> <ConfClashScore>
0 

> <ConfOneFourInteractionScore>
-0.980716 

> <ConfScore>
0.278195 

> <ConfScorePBest>
0.00279274 

> <ConfTolerance>
0.95958 

> <RosettaParamsInstructions>
M  ROOT 3
M  POLY_N_BB 3
M  POLY_CA_BB 4
M  POLY_C_BB 2
M  POLY_O_BB 5
M  POLY_IGNORE 9 10 11 12 13 14 15 16 17 18 
M  POLY_UPPER 6
M  POLY_LOWER 8
M  POLY_CHG 0
M  POLY_PROPERTIES ALPHA_AA L_AA PROTEIN AROMATIC POLYMER 
M  END

$$$$



 35 35  0  0  0  0  0  0  0  0999 V2000
   -2.9552    2.0161    2.8456 H   0  0  0  1  0  0  0  0  0  0  0  0
   -1.4193    0.5648    2.8233 C   0  0  0  1  0  0  0  0  0  0  0  0
   -1.4206    2.7395    4.0146 N   0  0  0  1  0  0  0  0  0  0  0  0
   -1.8852    2.0213    2.8373 C   0  0  0  1  0  0  0  0  0  0  0  0
   -0.2320    0.2807    2.9752 O   0  0  0  1  0  0  0  0  0  0  0  0
   -2.3434   -0.3916    2.6407 N   0  0  0  1  0  0  0  0  0  0  0  0
   -0.5039    3.0860    4.0261 H   0  0  0  1  0  0  0  0  0  0  0  0
   -2.2002    2.9429    5.0804 C   0  0  0  1  0  0  0  0  0  0  0  0
   -1.9464   -1.7894    2.5855 C   0  0  0  1  0  0  0  0  0  0  0  0
   -1.5028    3.4850    6.3129 C   0  0  0  1  0  0  0  0  0  0  0  0
   -3.4064    2.7115    5.0805 O   0  0  0  1  0  0  0  0  0  0  0  0
   -3.2875   -0.1473    2.5443 H   0  0  0  1  0  0  0  0  0  0  0  0
   -1.0628   -1.9331    3.1717 H   0  0  0  1  0  0  0  0  0  0  0  0
   -1.7492   -2.0642    1.5704 H   0  0  0  1  0  0  0  0  0  0  0  0
   -2.7349   -2.3995    2.9740 H   0  0  0  1  0  0  0  0  0  0  0  0
   -0.7607    2.7867    6.6395 H   0  0  0  1  0  0  0  0  0  0  0  0
   -2.2206    3.6329    7.0924 H   0  0  0  1  0  0  0  0  0  0  0  0
   -1.0350    4.4178    6.0764 H   0  0  0  1  0  0  0  0  0  0  0  0
   -2.4524    8.7212    0.8734 F   0  0  0  1  0  0  0  0  0  0  0  0
   -1.6236    7.7049    1.1187 C   0  0  0  1  0  0  0  0  0  0  0  0
   -0.6162    7.8282    0.2531 F   0  0  0  1  0  0  0  0  0  0  0  0
   -1.1069    7.9280    2.3278 F   0  0  0  1  0  0  0  0  0  0  0  0
   -2.3093    6.3626    1.0212 C   0  0  0  1  0  0  0  0  0  0  0  0
   -1.6032    5.2021    1.3011 C   0  0  0  1  0  0  0  0  0  0  0  0
   -2.2100    3.9531    1.2237 C   0  0  0  1  0  0  0  0  0  0  0  0
   -3.5512    3.9034    0.8510 C   0  0  0  1  0  0  0  0  0  0  0  0
   -4.2592    5.0582    0.5606 C   0  0  0  1  0  0  0  0  0  0  0  0
   -3.6338    6.2926    0.6548 C   0  0  0  1  0  0  0  0  0  0  0  0
   -1.4396    2.6914    1.5338 C   0  0  0  1  0  0  0  0  0  0  0  0
   -0.6017    5.2671    1.5739 H   0  0  0  1  0  0  0  0  0  0  0  0
   -4.0300    2.9822    0.7896 H   0  0  0  1  0  0  0  0  0  0  0  0
   -5.2569    4.9997    0.2728 H   0  0  0  1  0  0  0  0  0  0  0  0
   -4.1645    7.1630    0.4490 H   0  0  0  1  0  0  0  0  0  0  0  0
   -1.5809    1.9998    0.7297 H   0  0  0  1  0  0  0  0  0  0  0  0
   -0.4015    2.9375    1.6150 H   0  0  0  1  0  0  0  0  0  0  0  0
  1  4  1  0  0  0  0
  2  4  1  0  0  0  0
  2  5  2  0  0  0  0
  2  6  1  0  0  0  0
  3  4  1  0  0  0  0
  3  7  1  0  0  0  0
  3  8  1  0  0  0  0
  4 29  1  0  0  0  0
  6  9  1  0  0  0  0
  6 12  1  0  0  0  0
  8 10  1  0  0  0  0
  8 11  2  0  0  0  0
  9 13  1  0  0  0  0
  9 14  1  0  0  0  0
  9 15  1  0  0  0  0
 10 16  1  0  0  0  0
 10 17  1  0  0  0  0
 10 18  1  0  0  0  0
 19 20  1  0  0  0  0
 20 21  1  0  0  0  0
 20 22  1  0  0  0  0
 20 23  1  0  0  0  0
 23 24  4  0  0  0  0
 23 28  4  0  0  0  0
 24 25  4  0  0  0  0
 24 30  1  0  0  0  0
 25 26  4  0  0  0  0
 25 29  1  0  0  0  0
 26 27  4  0  0  0  0
 26 31  1  0  0  0  0
 27 28  4  0  0  0  0
 27 32  1  0  0  0  0
 28 33  1  0  0  0  0
 29 34  1  0  0  0  0
 29 35  1  0  0  0  0
M  END
> <BCLConfClusterSize>
1

> <ConfClashScore>
0 

> <ConfOneFourInteractionScore>
-0.978127 

> <ConfScore>
0.278238 

> <ConfScorePBest>
0.00276426 

> <ConfTolerance>
0.869884 

> <RosettaParamsInstructions>
M  ROOT 3
M  POLY_N_BB 3
M  POLY_CA_BB 4
M  POLY_C_BB 2
M  POLY_O_BB 5
M  POLY_IGNORE 9 10 11 12 13 14 15 16 17 18 
M  POLY_UPPER 6
M  POLY_LOWER 8
M  POLY_CHG 0
M  POLY_PROPERTIES ALPHA_AA L_AA PROTEIN AROMATIC POLYMER 
M  END

$$$$



 35 35  0  0  0  0  0  0  0  0999 V2000
    0.1684    3.5647   -0.2600 H   0  0  0  1  0  0  0  0  0  0  0  0
    0.5452    1.5035   -0.3438 C   0  0  0  1  0  0  0  0  0  0  0  0
   -1.1584    2.7305   -1.5861 N   0  0  0  1  0  0  0  0  0  0  0  0
   -0.4287    2.6786   -0.3163 C   0  0  0  1  0  0  0  0  0  0  0  0
    0.7091    0.8253   -1.3571 O   0  0  0  1  0  0  0  0  0  0  0  0
    1.1798    1.3014    0.8218 N   0  0  0  1  0  0  0  0  0  0  0  0
   -1.9856    2.2130   -1.6778 H   0  0  0  1  0  0  0  0  0  0  0  0
   -0.7332    3.4623   -2.6281 C   0  0  0  1  0  0  0  0  0  0  0  0
    2.1876    0.2777    1.0551 C   0  0  0  1  0  0  0  0  0  0  0  0
   -1.6593    3.5002   -3.8281 C   0  0  0  1  0  0  0  0  0  0  0  0
    0.3346    4.0692   -2.6277 O   0  0  0  1  0  0  0  0  0  0  0  0
    0.9470    1.8873    1.5720 H   0  0  0  1  0  0  0  0  0  0  0  0
    1.7639   -0.6882    0.8751 H   0  0  0  1  0  0  0  0  0  0  0  0
    2.5260    0.3352    2.0685 H   0  0  0  1  0  0  0  0  0  0  0  0
    3.0138    0.4335    0.3932 H   0  0  0  1  0  0  0  0  0  0  0  0
   -2.5750    3.9830   -3.5575 H   0  0  0  1  0  0  0  0  0  0  0  0
   -1.8651    2.5011   -4.1511 H   0  0  0  1  0  0  0  0  0  0  0  0
   -1.1913    4.0431   -4.6225 H   0  0  0  1  0  0  0  0  0  0  0  0
   -0.4031    7.6940    0.5625 F   0  0  0  1  0  0  0  0  0  0  0  0
   -1.6199    7.7054    1.1095 C   0  0  0  1  0  0  0  0  0  0  0  0
   -1.4594    8.1204    2.3671 F   0  0  0  1  0  0  0  0  0  0  0  0
   -2.3017    8.6655    0.4834 F   0  0  0  1  0  0  0  0  0  0  0  0
   -2.3043    6.3615    1.0265 C   0  0  0  1  0  0  0  0  0  0  0  0
   -1.5494    5.1990    1.0101 C   0  0  0  1  0  0  0  0  0  0  0  0
   -2.1753    3.9695    0.9288 C   0  0  0  1  0  0  0  0  0  0  0  0
   -3.5584    3.8986    0.8690 C   0  0  0  1  0  0  0  0  0  0  0  0
   -4.3113    5.0575    0.8853 C   0  0  0  1  0  0  0  0  0  0  0  0
   -3.6833    6.2907    0.9669 C   0  0  0  1  0  0  0  0  0  0  0  0
   -1.3523    2.7031    0.9050 C   0  0  0  1  0  0  0  0  0  0  0  0
   -0.5119    5.2521    1.0590 H   0  0  0  1  0  0  0  0  0  0  0  0
   -4.0295    2.9732    0.8118 H   0  0  0  1  0  0  0  0  0  0  0  0
   -5.3488    5.0044    0.8364 H   0  0  0  1  0  0  0  0  0  0  0  0
   -4.2500    7.1626    0.9833 H   0  0  0  1  0  0  0  0  0  0  0  0
   -0.7594    2.6533    1.7943 H   0  0  0  1  0  0  0  0  0  0  0  0
   -2.0086    1.8589    0.8655 H   0  0  0  1  0  0  0  0  0  0  0  0
  1  4  1  0  0  0  0
  2  4  1  0  0  0  0
  2  5  2  0  0  0  0
  2  6  1  0  0  0  0
  3  4  1  0  0  0  0
  3  7  1  0  0  0  0
  3  8  1  0  0  0  0
  4 29  1  0  0  0  0
  6  9  1  0  0  0  0
  6 12  1  0  0  0  0
  8 10  1  0  0  0  0
  8 11  2  0  0  0  0
  9 13  1  0  0  0  0
  9 14  1  0  0  0  0
  9 15  1  0  0  0  0
 10 16  1  0  0  0  0
 10 17  1  0  0  0  0
 10 18  1  0  0  0  0
 19 20  1  0  0  0  0
 20 21  1  0  0  0  0
 20 22  1  0  0  0  0
 20 23  1  0  0  0  0
 23 24  4  0  0  0  0
 23 28  4  0  0  0  0
 24 25  4  0  0  0  0
 24 30  1  0  0  0  0
 25 26  4  0  0  0  0
 25 29  1  0  0  0  0
 26 27  4  0  0  0  0
 26 31  1  0  0  0  0
 27 28  4  0  0  0  0
 27 32  1  0  0  0  0
 28 33  1  0  0  0  0
 29 34  1  0  0  0  0
 29 35  1  0  0  0  0
M  END
> <BCLConfClusterSize>
1

> <ConfClashScore>
0 

> <ConfOneFourInteractionScore>
-0.987695 

> <ConfScore>
0.293072 

> <ConfScorePBest>
0.00273578 

> <ConfTolerance>
0.914847 

> <RosettaParamsInstructions>
M  ROOT 3
M  POLY_N_BB 3
M  POLY_CA_BB 4
M  POLY_C_BB 2
M  POLY_O_BB 5
M  POLY_IGNORE 9 10 11 12 13 14 15 16 17 18 
M  POLY_UPPER 6
M  POLY_LOWER 8
M  POLY_CHG 0
M  POLY_PROPERTIES ALPHA_AA L_AA PROTEIN AROMATIC POLYMER 
M  END

$$$$



 35 35  0  0  0  0  0  0  0  0999 V2000
   -0.2496    2.9804   -0.6859 H   0  0  0  1  0  0  0  0  0  0  0  0
    0.0199    0.9677   -0.1096 C   0  0  0  1  0  0  0  0  0  0  0  0
   -1.9596    1.9213   -1.1607 N   0  0  0  1  0  0  0  0  0  0  0  0
   -0.8490    2.2007   -0.2646 C   0  0  0  1  0  0  0  0  0  0  0  0
    1.2343    1.0546   -0.0324 O   0  0  0  1  0  0  0  0  0  0  0  0
   -0.6334   -0.2042   -0.0644 N   0  0  0  1  0  0  0  0  0  0  0  0
   -2.3389    1.0178   -1.1764 H   0  0  0  1  0  0  0  0  0  0  0  0
   -2.4859    2.8627   -1.9713 C   0  0  0  1  0  0  0  0  0  0  0  0
    0.0311   -1.4518    0.2817 C   0  0  0  1  0  0  0  0  0  0  0  0
   -3.6972    2.4930   -2.7971 C   0  0  0  1  0  0  0  0  0  0  0  0
   -1.9967    3.9890   -2.0383 O   0  0  0  1  0  0  0  0  0  0  0  0
   -1.5911   -0.2201   -0.2717 H   0  0  0  1  0  0  0  0  0  0  0  0
   -0.6691   -2.2585    0.2199 H   0  0  0  1  0  0  0  0  0  0  0  0
    0.4134   -1.3873    1.2790 H   0  0  0  1  0  0  0  0  0  0  0  0
    0.8376   -1.6269   -0.3993 H   0  0  0  1  0  0  0  0  0  0  0  0
   -3.3808    2.1299   -3.7526 H   0  0  0  1  0  0  0  0  0  0  0  0
   -4.3147    3.3566   -2.9306 H   0  0  0  1  0  0  0  0  0  0  0  0
   -4.2534    1.7307   -2.2926 H   0  0  0  1  0  0  0  0  0  0  0  0
   -0.3208    7.5952    1.3835 F   0  0  0  1  0  0  0  0  0  0  0  0
   -1.6226    7.7048    1.1130 C   0  0  0  1  0  0  0  0  0  0  0  0
   -2.1379    8.4803    2.0683 F   0  0  0  1  0  0  0  0  0  0  0  0
   -1.7111    8.4006   -0.0213 F   0  0  0  1  0  0  0  0  0  0  0  0
   -2.3100    6.3627    1.0237 C   0  0  0  1  0  0  0  0  0  0  0  0
   -1.5632    5.1961    1.0939 C   0  0  0  1  0  0  0  0  0  0  0  0
   -2.1698    3.9468    1.0189 C   0  0  0  1  0  0  0  0  0  0  0  0
   -3.5537    3.9036    0.8660 C   0  0  0  1  0  0  0  0  0  0  0  0
   -4.3039    5.0654    0.7853 C   0  0  0  1  0  0  0  0  0  0  0  0
   -3.6761    6.2991    0.8727 C   0  0  0  1  0  0  0  0  0  0  0  0
   -1.3544    2.6780    1.1005 C   0  0  0  1  0  0  0  0  0  0  0  0
   -0.5309    5.2565    1.2047 H   0  0  0  1  0  0  0  0  0  0  0  0
   -4.0326    2.9820    0.8115 H   0  0  0  1  0  0  0  0  0  0  0  0
   -5.3349    5.0127    0.6596 H   0  0  0  1  0  0  0  0  0  0  0  0
   -4.2366    7.1738    0.8243 H   0  0  0  1  0  0  0  0  0  0  0  0
   -0.5100    2.8559    1.7331 H   0  0  0  1  0  0  0  0  0  0  0  0
   -1.9638    1.9083    1.5262 H   0  0  0  1  0  0  0  0  0  0  0  0
  1  4  1  0  0  0  0
  2  4  1  0  0  0  0
  2  5  2  0  0  0  0
  2  6  1  0  0  0  0
  3  4  1  0  0  0  0
  3  7  1  0  0  0  0
  3  8  1  0  0  0  0
  4 29  1  0  0  0  0
  6  9  1  0  0  0  0
  6 12  1  0  0  0  0
  8 10  1  0  0  0  0
  8 11  2  0  0  0  0
  9 13  1  0  0  0  0
  9 14  1  0  0  0  0
  9 15  1  0  0  0  0
 10 16  1  0  0  0  0
 10 17  1  0  0  0  0
 10 18  1  0  0  0  0
 19 20  1  0  0  0  0
 20 21  1  0  0  0  0
 20 22  1  0  0  0  0
 20 23  1  0  0  0  0
 23 24  4  0  0  0  0
 23 28  4  0  0  0  0
 24 25  4  0  0  0  0
 24 30  1  0  0  0  0
 25 26  4  0  0  0  0
 25 29  1  0  0  0  0
 26 27  4  0  0  0  0
 26 31  1  0  0  0  0
 27 28  4  0  0  0  0
 27 32  1  0  0  0  0
 28 33  1  0  0  0  0
 29 34  1  0  0  0  0
 29 35  1  0  0  0  0
M  END
> <BCLConfClusterSize>
1

> <ConfClashScore>
0 

> <ConfOneFourInteractionScore>
-0.965014 

> <ConfScore>
0.294118 

> <ConfScorePBest>
0.0027073 

> <ConfTolerance>
0.992148 

> <RosettaParamsInstructions>
M  ROOT 3
M  POLY_N_BB 3
M  POLY_CA_BB 4
M  POLY_C_BB 2
M  POLY_O_BB 5
M  POLY_IGNORE 9 10 11 12 13 14 15 16 17 18 
M  POLY_UPPER 6
M  POLY_LOWER 8
M  POLY_CHG 0
M  POLY_PROPERTIES ALPHA_AA L_AA PROTEIN AROMATIC POLYMER 
M  END

$$$$



 35 35  0  0  0  0  0  0  0  0999 V2000
    0.0774    3.3140    2.3503 H   0  0  0  1  0  0  0  0  0  0  0  0
   -1.4886    2.3329    3.3857 C   0  0  0  1  0  0  0  0  0  0  0  0
    0.2922    1.2738    2.0887 N   0  0  0  1  0  0  0  0  0  0  0  0
   -0.5460    2.4588    2.1925 C   0  0  0  1  0  0  0  0  0  0  0  0
   -1.7238    1.2407    3.9011 O   0  0  0  1  0  0  0  0  0  0  0  0
   -2.0320    3.4798    3.8233 N   0  0  0  1  0  0  0  0  0  0  0  0
   -0.0479    0.4221    2.4340 H   0  0  0  1  0  0  0  0  0  0  0  0
    1.5185    1.3068    1.5348 C   0  0  0  1  0  0  0  0  0  0  0  0
   -3.0455    3.4565    4.8674 C   0  0  0  1  0  0  0  0  0  0  0  0
    2.2873    0.0001    1.5584 C   0  0  0  1  0  0  0  0  0  0  0  0
    2.0013    2.3228    1.0365 O   0  0  0  1  0  0  0  0  0  0  0  0
   -1.7455    4.3345    3.4389 H   0  0  0  1  0  0  0  0  0  0  0  0
   -2.9739    4.3481    5.4546 H   0  0  0  1  0  0  0  0  0  0  0  0
   -2.8917    2.6033    5.4945 H   0  0  0  1  0  0  0  0  0  0  0  0
   -4.0162    3.4010    4.4206 H   0  0  0  1  0  0  0  0  0  0  0  0
    1.7527   -0.7390    0.9991 H   0  0  0  1  0  0  0  0  0  0  0  0
    2.3984   -0.3299    2.5702 H   0  0  0  1  0  0  0  0  0  0  0  0
    3.2534    0.1471    1.1225 H   0  0  0  1  0  0  0  0  0  0  0  0
   -0.8520    7.9568    0.0508 F   0  0  0  1  0  0  0  0  0  0  0  0
   -1.6215    7.7075    1.1118 C   0  0  0  1  0  0  0  0  0  0  0  0
   -0.8282    7.8077    2.1794 F   0  0  0  1  0  0  0  0  0  0  0  0
   -2.4859    8.7199    1.1922 F   0  0  0  1  0  0  0  0  0  0  0  0
   -2.3107    6.3618    1.0252 C   0  0  0  1  0  0  0  0  0  0  0  0
   -1.5568    5.1979    0.9993 C   0  0  0  1  0  0  0  0  0  0  0  0
   -2.1629    3.9484    0.9246 C   0  0  0  1  0  0  0  0  0  0  0  0
   -3.5541    3.9022    0.8719 C   0  0  0  1  0  0  0  0  0  0  0  0
   -4.3122    5.0616    0.8875 C   0  0  0  1  0  0  0  0  0  0  0  0
   -3.6840    6.2953    0.9725 C   0  0  0  1  0  0  0  0  0  0  0  0
   -1.3393    2.6825    0.9013 C   0  0  0  1  0  0  0  0  0  0  0  0
   -0.5193    5.2607    1.0364 H   0  0  0  1  0  0  0  0  0  0  0  0
   -4.0325    2.9803    0.8199 H   0  0  0  1  0  0  0  0  0  0  0  0
   -5.3495    5.0071    0.8357 H   0  0  0  1  0  0  0  0  0  0  0  0
   -4.2496    7.1678    0.9962 H   0  0  0  1  0  0  0  0  0  0  0  0
   -1.9970    1.8509    0.7573 H   0  0  0  1  0  0  0  0  0  0  0  0
   -0.6509    2.7390    0.0841 H   0  0  0  1  0  0  0  0  0  0  0  0
  1  4  1  0  0  0  0
  2  4  1  0  0  0  0
  2  5  2  0  0  0  0
  2  6  1  0  0  0  0
  3  4  1  0  0  0  0
  3  7  1  0  0  0  0
  3  8  1  0  0  0  0
  4 29  1  0  0  0  0
  6  9  1  0  0  0  0
  6 12  1  0  0  0  0
  8 10  1  0  0  0  0
  8 11  2  0  0  0  0
  9 13  1  0  0  0  0
  9 14  1  0  0  0  0
  9 15  1  0  0  0  0
 10 16  1  0  0  0  0
 10 17  1  0  0  0  0
 10 18  1  0  0  0  0
 19 20  1  0  0  0  0
 20 21  1  0  0  0  0
 20 22  1  0  0  0  0
 20 23  1  0  0  0  0
 23 24  4  0  0  0  0
 23 28  4  0  0  0  0
 24 25  4  0  0  0  0
 24 30  1  0  0  0  0
 25 26  4  0  0  0  0
 25 29  1  0  0  0  0
 26 27  4  0  0  0  0
 26 31  1  0  0  0  0
 27 28  4  0  0  0  0
 27 32  1  0  0  0  0
 28 33  1  0  0  0  0
 29 34  1  0  0  0  0
 29 35  1  0  0  0  0
M  END
> <BCLConfClusterSize>
1

> <ConfClashScore>
0 

> <ConfOneFourInteractionScore>
-0.990503 

> <ConfScore>
0.304706 

> <ConfScorePBest>
0.00267882 

> <ConfTolerance>
0.981801 

> <RosettaParamsInstructions>
M  ROOT 3
M  POLY_N_BB 3
M  POLY_CA_BB 4
M  POLY_C_BB 2
M  POLY_O_BB 5
M  POLY_IGNORE 9 10 11 12 13 14 15 16 17 18 
M  POLY_UPPER 6
M  POLY_LOWER 8
M  POLY_CHG 0
M  POLY_PROPERTIES ALPHA_AA L_AA PROTEIN AROMATIC POLYMER 
M  END

$$$$



 35 35  0  0  0  0  0  0  0  0999 V2000
   -2.9797    1.4760    1.5355 H   0  0  0  1  0  0  0  0  0  0  0  0
   -1.2315    0.2960    1.7055 C   0  0  0  1  0  0  0  0  0  0  0  0
   -1.9507    2.0640    3.2296 N   0  0  0  1  0  0  0  0  0  0  0  0
   -1.9654    1.6239    1.8425 C   0  0  0  1  0  0  0  0  0  0  0  0
   -0.4493    0.0915    0.7782 O   0  0  0  1  0  0  0  0  0  0  0  0
   -1.4963   -0.6172    2.6533 N   0  0  0  1  0  0  0  0  0  0  0  0
   -2.7935    2.3383    3.6478 H   0  0  0  1  0  0  0  0  0  0  0  0
   -0.8233    2.1072    3.9559 C   0  0  0  1  0  0  0  0  0  0  0  0
   -0.9244   -1.9551    2.6251 C   0  0  0  1  0  0  0  0  0  0  0  0
   -0.9557    2.6393    5.3811 C   0  0  0  1  0  0  0  0  0  0  0  0
    0.2462    1.6704    3.5391 O   0  0  0  1  0  0  0  0  0  0  0  0
   -2.0955   -0.3744    3.3897 H   0  0  0  1  0  0  0  0  0  0  0  0
   -0.1401   -1.9931    1.8982 H   0  0  0  1  0  0  0  0  0  0  0  0
   -1.6846   -2.6623    2.3664 H   0  0  0  1  0  0  0  0  0  0  0  0
   -0.5280   -2.1937    3.5899 H   0  0  0  1  0  0  0  0  0  0  0  0
   -1.2464    3.6686    5.3525 H   0  0  0  1  0  0  0  0  0  0  0  0
   -0.0158    2.5482    5.8842 H   0  0  0  1  0  0  0  0  0  0  0  0
   -1.6976    2.0738    5.9051 H   0  0  0  1  0  0  0  0  0  0  0  0
   -0.3990    7.7084    0.6351 F   0  0  0  1  0  0  0  0  0  0  0  0
   -1.6197    7.7020    1.1082 C   0  0  0  1  0  0  0  0  0  0  0  0
   -1.5089    8.1705    2.3347 F   0  0  0  1  0  0  0  0  0  0  0  0
   -2.2456    8.6600    0.4601 F   0  0  0  1  0  0  0  0  0  0  0  0
   -2.3104    6.3567    1.0230 C   0  0  0  1  0  0  0  0  0  0  0  0
   -1.5583    5.1914    1.0120 C   0  0  0  1  0  0  0  0  0  0  0  0
   -2.1658    3.9425    0.9389 C   0  0  0  1  0  0  0  0  0  0  0  0
   -3.5565    3.8983    0.8721 C   0  0  0  1  0  0  0  0  0  0  0  0
   -4.3127    5.0591    0.8727 C   0  0  0  1  0  0  0  0  0  0  0  0
   -3.6832    6.2922    0.9564 C   0  0  0  1  0  0  0  0  0  0  0  0
   -1.3443    2.6750    0.9320 C   0  0  0  1  0  0  0  0  0  0  0  0
   -0.5212    5.2527    1.0595 H   0  0  0  1  0  0  0  0  0  0  0  0
   -4.0360    2.9769    0.8209 H   0  0  0  1  0  0  0  0  0  0  0  0
   -5.3495    5.0060    0.8105 H   0  0  0  1  0  0  0  0  0  0  0  0
   -4.2474    7.1658    0.9688 H   0  0  0  1  0  0  0  0  0  0  0  0
   -1.2988    2.2919   -0.0661 H   0  0  0  1  0  0  0  0  0  0  0  0
   -0.3552    2.8962    1.2751 H   0  0  0  1  0  0  0  0  0  0  0  0
  1  4  1  0  0  0  0
  2  4  1  0  0  0  0
  2  5  2  0  0  0  0
  2  6  1  0  0  0  0
  3  4  1  0  0  0  0
  3  7  1  0  0  0  0
  3  8  1  0  0  0  0
  4 29  1  0  0  0  0
  6  9  1  0  0  0  0
  6 12  1  0  0  0  0
  8 10  1  0  0  0  0
  8 11  2  0  0  0  0
  9 13  1  0  0  0  0
  9 14  1  0  0  0  0
  9 15  1  0  0  0  0
 10 16  1  0  0  0  0
 10 17  1  0  0  0  0
 10 18  1  0  0  0  0
 19 20  1  0  0  0  0
 20 21  1  0  0  0  0
 20 22  1  0  0  0  0
 20 23  1  0  0  0  0
 23 24  4  0  0  0  0
 23 28  4  0  0  0  0
 24 25  4  0  0  0  0
 24 30  1  0  0  0  0
 25 26  4  0  0  0  0
 25 29  1  0  0  0  0
 26 27  4  0  0  0  0
 26 31  1  0  0  0  0
 27 28  4  0  0  0  0
 27 32  1  0  0  0  0
 28 33  1  0  0  0  0
 29 34  1  0  0  0  0
 29 35  1  0  0  0  0
M  END
> <BCLConfClusterSize>
1

> <ConfClashScore>
0 

> <ConfOneFourInteractionScore>
-0.957364 

> <ConfScore>
0.305845 

> <ConfScorePBest>
0.00265034 

> <ConfTolerance>
1.10779 

> <RosettaParamsInstructions>
M  ROOT 3
M  POLY_N_BB 3
M  POLY_CA_BB 4
M  POLY_C_BB 2
M  POLY_O_BB 5
M  POLY_IGNORE 9 10 11 12 13 14 15 16 17 18 
M  POLY_UPPER 6
M  POLY_LOWER 8
M  POLY_CHG 0
M  POLY_PROPERTIES ALPHA_AA L_AA PROTEIN AROMATIC POLYMER 
M  END

$$$$



 35 35  0  0  0  0  0  0  0  0999 V2000
   -1.0713    2.9176    3.3623 H   0  0  0  1  0  0  0  0  0  0  0  0
   -2.8777    1.8647    3.0899 C   0  0  0  1  0  0  0  0  0  0  0  0
   -0.5700    0.9926    2.8133 N   0  0  0  1  0  0  0  0  0  0  0  0
   -1.4384    2.1532    2.7098 C   0  0  0  1  0  0  0  0  0  0  0  0
   -3.5426    2.6757    3.7131 O   0  0  0  1  0  0  0  0  0  0  0  0
   -3.3570    0.6737    2.6975 N   0  0  0  1  0  0  0  0  0  0  0  0
   -0.9929    0.1198    2.6728 H   0  0  0  1  0  0  0  0  0  0  0  0
    0.7505    0.9801    3.0805 C   0  0  0  1  0  0  0  0  0  0  0  0
   -4.7198    0.2514    2.9844 C   0  0  0  1  0  0  0  0  0  0  0  0
    1.3850   -0.3750    3.3945 C   0  0  0  1  0  0  0  0  0  0  0  0
    1.4178    2.0109    3.1568 O   0  0  0  1  0  0  0  0  0  0  0  0
   -2.7687    0.0676    2.2005 H   0  0  0  1  0  0  0  0  0  0  0  0
   -5.4078    0.9076    2.4936 H   0  0  0  1  0  0  0  0  0  0  0  0
   -4.8880    0.2837    4.0405 H   0  0  0  1  0  0  0  0  0  0  0  0
   -4.8654   -0.7476    2.6299 H   0  0  0  1  0  0  0  0  0  0  0  0
    2.4482   -0.2674    3.4497 H   0  0  0  1  0  0  0  0  0  0  0  0
    1.1371   -1.0723    2.6217 H   0  0  0  1  0  0  0  0  0  0  0  0
    1.0139   -0.7337    4.3318 H   0  0  0  1  0  0  0  0  0  0  0  0
   -0.5372    7.6802    1.8951 F   0  0  0  1  0  0  0  0  0  0  0  0
   -1.6186    7.7080    1.1142 C   0  0  0  1  0  0  0  0  0  0  0  0
   -2.4146    8.6548    1.6135 F   0  0  0  1  0  0  0  0  0  0  0  0
   -1.2085    8.1535   -0.0769 F   0  0  0  1  0  0  0  0  0  0  0  0
   -2.3048    6.3604    1.0249 C   0  0  0  1  0  0  0  0  0  0  0  0
   -1.5706    5.1964    1.1907 C   0  0  0  1  0  0  0  0  0  0  0  0
   -2.1955    3.9667    1.1040 C   0  0  0  1  0  0  0  0  0  0  0  0
   -3.5577    3.8977    0.8565 C   0  0  0  1  0  0  0  0  0  0  0  0
   -4.2899    5.0582    0.6911 C   0  0  0  1  0  0  0  0  0  0  0  0
   -3.6629    6.2914    0.7781 C   0  0  0  1  0  0  0  0  0  0  0  0
   -1.3944    2.6983    1.2788 C   0  0  0  1  0  0  0  0  0  0  0  0
   -0.5494    5.2484    1.3804 H   0  0  0  1  0  0  0  0  0  0  0  0
   -4.0287    2.9725    0.7952 H   0  0  0  1  0  0  0  0  0  0  0  0
   -5.3112    5.0062    0.5014 H   0  0  0  1  0  0  0  0  0  0  0  0
   -4.2146    7.1648    0.6577 H   0  0  0  1  0  0  0  0  0  0  0  0
   -1.7872    1.9536    0.6185 H   0  0  0  1  0  0  0  0  0  0  0  0
   -0.3754    2.9010    1.0228 H   0  0  0  1  0  0  0  0  0  0  0  0
  1  4  1  0  0  0  0
  2  4  1  0  0  0  0
  2  5  2  0  0  0  0
  2  6  1  0  0  0  0
  3  4  1  0  0  0  0
  3  7  1  0  0  0  0
  3  8  1  0  0  0  0
  4 29  1  0  0  0  0
  6  9  1  0  0  0  0
  6 12  1  0  0  0  0
  8 10  1  0  0  0  0
  8 11  2  0  0  0  0
  9 13  1  0  0  0  0
  9 14  1  0  0  0  0
  9 15  1  0  0  0  0
 10 16  1  0  0  0  0
 10 17  1  0  0  0  0
 10 18  1  0  0  0  0
 19 20  1  0  0  0  0
 20 21  1  0  0  0  0
 20 22  1  0  0  0  0
 20 23  1  0  0  0  0
 23 24  4  0  0  0  0
 23 28  4  0  0  0  0
 24 25  4  0  0  0  0
 24 30  1  0  0  0  0
 25 26  4  0  0  0  0
 25 29  1  0  0  0  0
 26 27  4  0  0  0  0
 26 31  1  0  0  0  0
 27 28  4  0  0  0  0
 27 32  1  0  0  0  0
 28 33  1  0  0  0  0
 29 34  1  0  0  0  0
 29 35  1  0  0  0  0
M  END
> <BCLConfClusterSize>
1

> <ConfClashScore>
0 

> <ConfOneFourInteractionScore>
-0.965014 

> <ConfScore>
0.310901 

> <ConfScorePBest>
0.00262186 

> <ConfTolerance>
0.99574 

> <RosettaParamsInstructions>
M  ROOT 3
M  POLY_N_BB 3
M  POLY_CA_BB 4
M  POLY_C_BB 2
M  POLY_O_BB 5
M  POLY_IGNORE 9 10 11 12 13 14 15 16 17 18 
M  POLY_UPPER 6
M  POLY_LOWER 8
M  POLY_CHG 0
M  POLY_PROPERTIES ALPHA_AA L_AA PROTEIN AROMATIC POLYMER 
M  END

$$$$



 35 35  0  0  0  0  0  0  0  0999 V2000
   -1.3630    0.6087    1.0145 H   0  0  0  1  0  0  0  0  0  0  0  0
   -3.2512    1.0458    1.8674 C   0  0  0  1  0  0  0  0  0  0  0  0
   -2.5403    1.5175   -0.4224 N   0  0  0  1  0  0  0  0  0  0  0  0
   -2.0825    1.3984    0.9538 C   0  0  0  1  0  0  0  0  0  0  0  0
   -3.0943    0.9045    3.0773 O   0  0  0  1  0  0  0  0  0  0  0  0
   -4.4359    0.9045    1.2661 N   0  0  0  1  0  0  0  0  0  0  0  0
   -2.7928    2.4015   -0.7620 H   0  0  0  1  0  0  0  0  0  0  0  0
   -2.6288    0.4593   -1.2425 C   0  0  0  1  0  0  0  0  0  0  0  0
   -5.5787    0.2985    1.9328 C   0  0  0  1  0  0  0  0  0  0  0  0
   -3.1600    0.7464   -2.6334 C   0  0  0  1  0  0  0  0  0  0  0  0
   -2.3049   -0.6765   -0.9058 O   0  0  0  1  0  0  0  0  0  0  0  0
   -4.5388    1.2199    0.3440 H   0  0  0  1  0  0  0  0  0  0  0  0
   -5.5799   -0.7561    1.7519 H   0  0  0  1  0  0  0  0  0  0  0  0
   -6.4821    0.7266    1.5513 H   0  0  0  1  0  0  0  0  0  0  0  0
   -5.5145    0.4795    2.9854 H   0  0  0  1  0  0  0  0  0  0  0  0
   -2.4941    1.4139   -3.1393 H   0  0  0  1  0  0  0  0  0  0  0  0
   -4.1278    1.1966   -2.5594 H   0  0  0  1  0  0  0  0  0  0  0  0
   -3.2329   -0.1687   -3.1830 H   0  0  0  1  0  0  0  0  0  0  0  0
   -0.7893    7.7808    2.1637 F   0  0  0  1  0  0  0  0  0  0  0  0
   -1.6205    7.7087    1.1226 C   0  0  0  1  0  0  0  0  0  0  0  0
   -2.4866    8.7129    1.2669 F   0  0  0  1  0  0  0  0  0  0  0  0
   -0.8922    7.9957    0.0428 F   0  0  0  1  0  0  0  0  0  0  0  0
   -2.3056    6.3619    1.0192 C   0  0  0  1  0  0  0  0  0  0  0  0
   -1.5873    5.1983    1.2410 C   0  0  0  1  0  0  0  0  0  0  0  0
   -2.1970    3.9481    1.1673 C   0  0  0  1  0  0  0  0  0  0  0  0
   -3.5522    3.9035    0.8576 C   0  0  0  1  0  0  0  0  0  0  0  0
   -4.2745    5.0644    0.6247 C   0  0  0  1  0  0  0  0  0  0  0  0
   -3.6540    6.2901    0.7021 C   0  0  0  1  0  0  0  0  0  0  0  0
   -1.4120    2.6819    1.4157 C   0  0  0  1  0  0  0  0  0  0  0  0
   -0.5739    5.2594    1.4668 H   0  0  0  1  0  0  0  0  0  0  0  0
   -4.0326    2.9830    0.7996 H   0  0  0  1  0  0  0  0  0  0  0  0
   -5.2865    5.0084    0.3913 H   0  0  0  1  0  0  0  0  0  0  0  0
   -4.1946    7.1603    0.5234 H   0  0  0  1  0  0  0  0  0  0  0  0
   -0.4761    2.7680    0.9041 H   0  0  0  1  0  0  0  0  0  0  0  0
   -1.2375    2.6028    2.4684 H   0  0  0  1  0  0  0  0  0  0  0  0
  1  4  1  0  0  0  0
  2  4  1  0  0  0  0
  2  5  2  0  0  0  0
  2  6  1  0  0  0  0
  3  4  1  0  0  0  0
  3  7  1  0  0  0  0
  3  8  1  0  0  0  0
  4 29  1  0  0  0  0
  6  9  1  0  0  0  0
  6 12  1  0  0  0  0
  8 10  1  0  0  0  0
  8 11  2  0  0  0  0
  9 13  1  0  0  0  0
  9 14  1  0  0  0  0
  9 15  1  0  0  0  0
 10 16  1  0  0  0  0
 10 17  1  0  0  0  0
 10 18  1  0  0  0  0
 19 20  1  0  0  0  0
 20 21  1  0  0  0  0
 20 22  1  0  0  0  0
 20 23  1  0  0  0  0
 23 24  4  0  0  0  0
 23 28  4  0  0  0  0
 24 25  4  0  0  0  0
 24 30  1  0  0  0  0
 25 26  4  0  0  0  0
 25 29  1  0  0  0  0
 26 27  4  0  0  0  0
 26 31  1  0  0  0  0
 27 28  4  0  0  0  0
 27 32  1  0  0  0  0
 28 33  1  0  0  0  0
 29 34  1  0  0  0  0
 29 35  1  0  0  0  0
M  END
> <BCLConfClusterSize>
1

> <ConfClashScore>
0 

> <ConfOneFourInteractionScore>
-0.924495 

> <ConfScore>
0.315835 

> <ConfScorePBest>
0.00259338 

> <ConfTolerance>
1.02243 

> <RosettaParamsInstructions>
M  ROOT 3
M  POLY_N_BB 3
M  POLY_CA_BB 4
M  POLY_C_BB 2
M  POLY_O_BB 5
M  POLY_IGNORE 9 10 11 12 13 14 15 16 17 18 
M  POLY_UPPER 6
M  POLY_LOWER 8
M  POLY_CHG 0
M  POLY_PROPERTIES ALPHA_AA L_AA PROTEIN AROMATIC POLYMER 
M  END

$$$$



 35 35  0  0  0  0  0  0  0  0999 V2000
    0.4099    3.5064    0.0300 H   0  0  0  1  0  0  0  0  0  0  0  0
    0.4704    1.3946   -0.1367 C   0  0  0  1  0  0  0  0  0  0  0  0
   -0.8845    2.9214   -1.4840 N   0  0  0  1  0  0  0  0  0  0  0  0
   -0.2773    2.7131   -0.1779 C   0  0  0  1  0  0  0  0  0  0  0  0
    0.8143    0.8887    0.9307 O   0  0  0  1  0  0  0  0  0  0  0  0
    0.7246    0.8308   -1.3282 N   0  0  0  1  0  0  0  0  0  0  0  0
   -0.6538    3.7434   -1.9650 H   0  0  0  1  0  0  0  0  0  0  0  0
   -1.7649    2.0444   -2.0991 C   0  0  0  1  0  0  0  0  0  0  0  0
    1.5532   -0.3628   -1.4100 C   0  0  0  1  0  0  0  0  0  0  0  0
   -2.3597    2.4184   -3.4277 C   0  0  0  1  0  0  0  0  0  0  0  0
   -2.0280    0.9955   -1.5395 O   0  0  0  1  0  0  0  0  0  0  0  0
    0.3514    1.2238   -2.1447 H   0  0  0  1  0  0  0  0  0  0  0  0
    1.0160   -1.1363   -1.9179 H   0  0  0  1  0  0  0  0  0  0  0  0
    1.8031   -0.6914   -0.4229 H   0  0  0  1  0  0  0  0  0  0  0  0
    2.4496   -0.1381   -1.9494 H   0  0  0  1  0  0  0  0  0  0  0  0
   -1.5760    2.5662   -4.1409 H   0  0  0  1  0  0  0  0  0  0  0  0
   -2.9227    3.3224   -3.3243 H   0  0  0  1  0  0  0  0  0  0  0  0
   -3.0039    1.6328   -3.7636 H   0  0  0  1  0  0  0  0  0  0  0  0
   -0.9328    7.9668    0.0124 F   0  0  0  1  0  0  0  0  0  0  0  0
   -1.6138    7.7080    1.1102 C   0  0  0  1  0  0  0  0  0  0  0  0
   -0.7703    7.7712    2.1304 F   0  0  0  1  0  0  0  0  0  0  0  0
   -2.5004    8.6918    1.2672 F   0  0  0  1  0  0  0  0  0  0  0  0
   -2.2997    6.3649    1.0270 C   0  0  0  1  0  0  0  0  0  0  0  0
   -1.5458    5.2017    1.0088 C   0  0  0  1  0  0  0  0  0  0  0  0
   -2.1733    3.9729    0.9272 C   0  0  0  1  0  0  0  0  0  0  0  0
   -3.5566    3.9034    0.8691 C   0  0  0  1  0  0  0  0  0  0  0  0
   -4.3080    5.0633    0.8872 C   0  0  0  1  0  0  0  0  0  0  0  0
   -3.6788    6.2957    0.9690 C   0  0  0  1  0  0  0  0  0  0  0  0
   -1.3518    2.7057    0.9015 C   0  0  0  1  0  0  0  0  0  0  0  0
   -0.5082    5.2536    1.0565 H   0  0  0  1  0  0  0  0  0  0  0  0
   -4.0289    2.9786    0.8118 H   0  0  0  1  0  0  0  0  0  0  0  0
   -5.3456    5.0114    0.8395 H   0  0  0  1  0  0  0  0  0  0  0  0
   -4.2445    7.1683    0.9867 H   0  0  0  1  0  0  0  0  0  0  0  0
   -0.8775    2.5879    1.8534 H   0  0  0  1  0  0  0  0  0  0  0  0
   -2.0070    1.8786    0.7242 H   0  0  0  1  0  0  0  0  0  0  0  0
  1  4  1  0  0  0  0
  2  4  1  0  0  0  0
  2  5  2  0  0  0  0
  2  6  1  0  0  0  0
  3  4  1  0  0  0  0
  3  7  1  0  0  0  0
  3  8  1  0  0  0  0
  4 29  1  0  0  0  0
  6  9  1  0  0  0  0
  6 12  1  0  0  0  0
  8 10  1  0  0  0  0
  8 11  2  0  0  0  0
  9 13  1  0  0  0  0
  9 14  1  0  0  0  0
  9 15  1  0  0  0  0
 10 16  1  0  0  0  0
 10 17  1  0  0  0  0
 10 18  1  0  0  0  0
 19 20  1  0  0  0  0
 20 21  1  0  0  0  0
 20 22  1  0  0  0  0
 20 23  1  0  0  0  0
 23 24  4  0  0  0  0
 23 28  4  0  0  0  0
 24 25  4  0  0  0  0
 24 30  1  0  0  0  0
 25 26  4  0  0  0  0
 25 29  1  0  0  0  0
 26 27  4  0  0  0  0
 26 31  1  0  0  0  0
 27 28  4  0  0  0  0
 27 32  1  0  0  0  0
 28 33  1  0  0  0  0
 29 34  1  0  0  0  0
 29 35  1  0  0  0  0
M  END
> <BCLConfClusterSize>
1

> <ConfClashScore>
0 

> <ConfOneFourInteractionScore>
-0.939055 

> <ConfScore>
0.319008 

> <ConfScorePBest>
0.0025649 

> <ConfTolerance>
0.637619 

> <RosettaParamsInstructions>
M  ROOT 3
M  POLY_N_BB 3
M  POLY_CA_BB 4
M  POLY_C_BB 2
M  POLY_O_BB 5
M  POLY_IGNORE 9 10 11 12 13 14 15 16 17 18 
M  POLY_UPPER 6
M  POLY_LOWER 8
M  POLY_CHG 0
M  POLY_PROPERTIES ALPHA_AA L_AA PROTEIN AROMATIC POLYMER 
M  END

$$$$



 35 35  0  0  0  0  0  0  0  0999 V2000
   -2.0046    1.9554   -0.7593 H   0  0  0  1  0  0  0  0  0  0  0  0
   -0.1697    2.9859   -1.0094 C   0  0  0  1  0  0  0  0  0  0  0  0
   -0.4661    0.7567   -0.0479 N   0  0  0  1  0  0  0  0  0  0  0  0
   -1.0829    2.0626   -0.2265 C   0  0  0  1  0  0  0  0  0  0  0  0
   -0.6164    3.7765   -1.8242 O   0  0  0  1  0  0  0  0  0  0  0  0
    1.1414    2.8714   -0.7448 N   0  0  0  1  0  0  0  0  0  0  0  0
    0.4932    0.7093    0.1471 H   0  0  0  1  0  0  0  0  0  0  0  0
   -1.1680   -0.3896   -0.1412 C   0  0  0  1  0  0  0  0  0  0  0  0
    2.1543    3.5785   -1.5141 C   0  0  0  1  0  0  0  0  0  0  0  0
   -0.3535   -1.6300    0.1705 C   0  0  0  1  0  0  0  0  0  0  0  0
   -2.3554   -0.4592   -0.4470 O   0  0  0  1  0  0  0  0  0  0  0  0
    1.4263    2.2915   -0.0080 H   0  0  0  1  0  0  0  0  0  0  0  0
    2.0387    3.3492   -2.5528 H   0  0  0  1  0  0  0  0  0  0  0  0
    3.1268    3.2738   -1.1879 H   0  0  0  1  0  0  0  0  0  0  0  0
    2.0423    4.6324   -1.3671 H   0  0  0  1  0  0  0  0  0  0  0  0
   -0.5816   -1.9677    1.1599 H   0  0  0  1  0  0  0  0  0  0  0  0
    0.6889   -1.3978    0.1046 H   0  0  0  1  0  0  0  0  0  0  0  0
   -0.5931   -2.3998   -0.5329 H   0  0  0  1  0  0  0  0  0  0  0  0
   -0.3546    7.6343    1.4549 F   0  0  0  1  0  0  0  0  0  0  0  0
   -1.6173    7.6987    1.1152 C   0  0  0  1  0  0  0  0  0  0  0  0
   -2.1612    8.5188    1.9912 F   0  0  0  1  0  0  0  0  0  0  0  0
   -1.6372    8.3803   -0.0095 F   0  0  0  1  0  0  0  0  0  0  0  0
   -2.3021    6.3555    1.0237 C   0  0  0  1  0  0  0  0  0  0  0  0
   -1.5587    5.1935    1.1091 C   0  0  0  1  0  0  0  0  0  0  0  0
   -2.1877    3.9607    1.0305 C   0  0  0  1  0  0  0  0  0  0  0  0
   -3.5577    3.8937    0.8614 C   0  0  0  1  0  0  0  0  0  0  0  0
   -4.3035    5.0591    0.7757 C   0  0  0  1  0  0  0  0  0  0  0  0
   -3.6762    6.2881    0.8541 C   0  0  0  1  0  0  0  0  0  0  0  0
   -1.3759    2.6909    1.1297 C   0  0  0  1  0  0  0  0  0  0  0  0
   -0.5272    5.2439    1.2323 H   0  0  0  1  0  0  0  0  0  0  0  0
   -4.0292    2.9689    0.7984 H   0  0  0  1  0  0  0  0  0  0  0  0
   -5.3350    5.0085    0.6525 H   0  0  0  1  0  0  0  0  0  0  0  0
   -4.2352    7.1625    0.7858 H   0  0  0  1  0  0  0  0  0  0  0  0
   -0.4460    2.9176    1.6080 H   0  0  0  1  0  0  0  0  0  0  0  0
   -1.9194    1.9846    1.7219 H   0  0  0  1  0  0  0  0  0  0  0  0
  1  4  1  0  0  0  0
  2  4  1  0  0  0  0
  2  5  2  0  0  0  0
  2  6  1  0  0  0  0
  3  4  1  0  0  0  0
  3  7  1  0  0  0  0
  3  8  1  0  0  0  0
  4 29  1  0  0  0  0
  6  9  1  0  0  0  0
  6 12  1  0  0  0  0
  8 10  1  0  0  0  0
  8 11  2  0  0  0  0
  9 13  1  0  0  0  0
  9 14  1  0  0  0  0
  9 15  1  0  0  0  0
 10 16  1  0  0  0  0
 10 17  1  0  0  0  0
 10 18  1  0  0  0  0
 19 20  1  0  0  0  0
 20 21  1  0  0  0  0
 20 22  1  0  0  0  0
 20 23  1  0  0  0  0
 23 24  4  0  0  0  0
 23 28  4  0  0  0  0
 24 25  4  0  0  0  0
 24 30  1  0  0  0  0
 25 26  4  0  0  0  0
 25 29  1  0  0  0  0
 26 27  4  0  0  0  0
 26 31  1  0  0  0  0
 27 28  4  0  0  0  0
 27 32  1  0  0  0  0
 28 33  1  0  0  0  0
 29 34  1  0  0  0  0
 29 35  1  0  0  0  0
M  END
> <BCLConfClusterSize>
1

> <ConfClashScore>
0 

> <ConfOneFourInteractionScore>
-0.965014 

> <ConfScore>
0.325781 

> <ConfScorePBest>
0.00253641 

> <ConfTolerance>
0.906223 

> <RosettaParamsInstructions>
M  ROOT 3
M  POLY_N_BB 3
M  POLY_CA_BB 4
M  POLY_C_BB 2
M  POLY_O_BB 5
M  POLY_IGNORE 9 10 11 12 13 14 15 16 17 18 
M  POLY_UPPER 6
M  POLY_LOWER 8
M  POLY_CHG 0
M  POLY_PROPERTIES ALPHA_AA L_AA PROTEIN AROMATIC POLYMER 
M  END

$$$$



 35 35  0  0  0  0  0  0  0  0999 V2000
   -0.8696    1.2349    2.3316 H   0  0  0  1  0  0  0  0  0  0  0  0
    0.6240    2.7365    2.4667 C   0  0  0  1  0  0  0  0  0  0  0  0
   -1.6068    2.9015    3.3196 N   0  0  0  1  0  0  0  0  0  0  0  0
   -0.8212    2.3008    2.2520 C   0  0  0  1  0  0  0  0  0  0  0  0
    0.9323    3.9166    2.4932 O   0  0  0  1  0  0  0  0  0  0  0  0
    1.5110    1.7493    2.6207 N   0  0  0  1  0  0  0  0  0  0  0  0
   -1.7068    3.8764    3.3152 H   0  0  0  1  0  0  0  0  0  0  0  0
   -2.2246    2.1984    4.3427 C   0  0  0  1  0  0  0  0  0  0  0  0
    2.9378    1.9375    2.8369 C   0  0  0  1  0  0  0  0  0  0  0  0
   -2.8268    2.9581    5.4912 C   0  0  0  1  0  0  0  0  0  0  0  0
   -2.2587    0.9807    4.2759 O   0  0  0  1  0  0  0  0  0  0  0  0
    1.1756    0.8292    2.5854 H   0  0  0  1  0  0  0  0  0  0  0  0
    3.1650    2.9830    2.8317 H   0  0  0  1  0  0  0  0  0  0  0  0
    3.4839    1.4502    2.0564 H   0  0  0  1  0  0  0  0  0  0  0  0
    3.2136    1.5175    3.7817 H   0  0  0  1  0  0  0  0  0  0  0  0
   -2.9493    3.9846    5.2153 H   0  0  0  1  0  0  0  0  0  0  0  0
   -2.1795    2.8921    6.3406 H   0  0  0  1  0  0  0  0  0  0  0  0
   -3.7803    2.5384    5.7352 H   0  0  0  1  0  0  0  0  0  0  0  0
   -0.4210    7.7298    0.5101 F   0  0  0  1  0  0  0  0  0  0  0  0
   -1.6114    7.7221    1.1125 C   0  0  0  1  0  0  0  0  0  0  0  0
   -1.3944    8.1056    2.3716 F   0  0  0  1  0  0  0  0  0  0  0  0
   -2.3243    8.6949    0.5432 F   0  0  0  1  0  0  0  0  0  0  0  0
   -2.2947    6.3778    1.0266 C   0  0  0  1  0  0  0  0  0  0  0  0
   -1.5572    5.1963    1.0062 C   0  0  0  1  0  0  0  0  0  0  0  0
   -2.1805    3.9620    0.9219 C   0  0  0  1  0  0  0  0  0  0  0  0
   -3.5647    3.8905    0.8719 C   0  0  0  1  0  0  0  0  0  0  0  0
   -4.3109    5.0464    0.8907 C   0  0  0  1  0  0  0  0  0  0  0  0
   -3.6806    6.2796    0.9652 C   0  0  0  1  0  0  0  0  0  0  0  0
   -1.3585    2.7031    0.8848 C   0  0  0  1  0  0  0  0  0  0  0  0
   -0.5193    5.2417    1.0552 H   0  0  0  1  0  0  0  0  0  0  0  0
   -4.0374    2.9656    0.8202 H   0  0  0  1  0  0  0  0  0  0  0  0
   -5.3489    4.9953    0.8490 H   0  0  0  1  0  0  0  0  0  0  0  0
   -4.2549    7.1467    0.9754 H   0  0  0  1  0  0  0  0  0  0  0  0
   -1.9698    1.9081    0.5117 H   0  0  0  1  0  0  0  0  0  0  0  0
   -0.5302    2.8565    0.2251 H   0  0  0  1  0  0  0  0  0  0  0  0
  1  4  1  0  0  0  0
  2  4  1  0  0  0  0
  2  5  2  0  0  0  0
  2  6  1  0  0  0  0
  3  4  1  0  0  0  0
  3  7  1  0  0  0  0
  3  8  1  0  0  0  0
  4 29  1  0  0  0  0
  6  9  1  0  0  0  0
  6 12  1  0  0  0  0
  8 10  1  0  0  0  0
  8 11  2  0  0  0  0
  9 13  1  0  0  0  0
  9 14  1  0  0  0  0
  9 15  1  0  0  0  0
 10 16  1  0  0  0  0
 10 17  1  0  0  0  0
 10 18  1  0  0  0  0
 19 20  1  0  0  0  0
 20 21  1  0  0  0  0
 20 22  1  0  0  0  0
 20 23  1  0  0  0  0
 23 24  4  0  0  0  0
 23 28  4  0  0  0  0
 24 25  4  0  0  0  0
 24 30  1  0  0  0  0
 25 26  4  0  0  0  0
 25 29  1  0  0  0  0
 26 27  4  0  0  0  0
 26 31  1  0  0  0  0
 27 28  4  0  0  0  0
 27 32  1  0  0  0  0
 28 33  1  0  0  0  0
 29 34  1  0  0  0  0
 29 35  1  0  0  0  0
M  END
> <BCLConfClusterSize>
1

> <ConfClashScore>
0 

> <ConfOneFourInteractionScore>
-0.962556 

> <ConfScore>
0.32643 

> <ConfScorePBest>
0.00250793 

> <ConfTolerance>
1.05933 

> <RosettaParamsInstructions>
M  ROOT 3
M  POLY_N_BB 3
M  POLY_CA_BB 4
M  POLY_C_BB 2
M  POLY_O_BB 5
M  POLY_IGNORE 9 10 11 12 13 14 15 16 17 18 
M  POLY_UPPER 6
M  POLY_LOWER 8
M  POLY_CHG 0
M  POLY_PROPERTIES ALPHA_AA L_AA PROTEIN AROMATIC POLYMER 
M  END

$$$$



 35 35  0  0  0  0  0  0  0  0999 V2000
   -0.7214    1.0927   -0.2251 H   0  0  0  1  0  0  0  0  0  0  0  0
   -2.0447    2.2479   -1.4003 C   0  0  0  1  0  0  0  0  0  0  0  0
    0.2723    2.7684   -0.8930 N   0  0  0  1  0  0  0  0  0  0  0  0
   -0.9244    2.1338   -0.3661 C   0  0  0  1  0  0  0  0  0  0  0  0
   -2.0259    3.2141   -2.1617 O   0  0  0  1  0  0  0  0  0  0  0  0
   -2.9585    1.2796   -1.3901 N   0  0  0  1  0  0  0  0  0  0  0  0
    0.4037    3.7199   -0.6984 H   0  0  0  1  0  0  0  0  0  0  0  0
    1.2279    2.1384   -1.6394 C   0  0  0  1  0  0  0  0  0  0  0  0
   -4.1494    1.3257   -2.2253 C   0  0  0  1  0  0  0  0  0  0  0  0
    2.3237    3.0656   -2.1280 C   0  0  0  1  0  0  0  0  0  0  0  0
    1.1804    0.9452   -1.8750 O   0  0  0  1  0  0  0  0  0  0  0  0
   -2.8245    0.5090   -0.7997 H   0  0  0  1  0  0  0  0  0  0  0  0
   -3.9116    0.9705   -3.2063 H   0  0  0  1  0  0  0  0  0  0  0  0
   -4.5025    2.3338   -2.2872 H   0  0  0  1  0  0  0  0  0  0  0  0
   -4.9095    0.7066   -1.7967 H   0  0  0  1  0  0  0  0  0  0  0  0
    3.2597    2.7667   -1.7044 H   0  0  0  1  0  0  0  0  0  0  0  0
    2.1013    4.0687   -1.8293 H   0  0  0  1  0  0  0  0  0  0  0  0
    2.3833    3.0156   -3.1952 H   0  0  0  1  0  0  0  0  0  0  0  0
   -0.3396    7.6451    0.8337 F   0  0  0  1  0  0  0  0  0  0  0  0
   -1.6138    7.7001    1.1292 C   0  0  0  1  0  0  0  0  0  0  0  0
   -1.7339    8.2693    2.3001 F   0  0  0  1  0  0  0  0  0  0  0  0
   -2.1051    8.5841    0.2576 F   0  0  0  1  0  0  0  0  0  0  0  0
   -2.2995    6.3577    1.0334 C   0  0  0  1  0  0  0  0  0  0  0  0
   -1.5495    5.1968    1.0382 C   0  0  0  1  0  0  0  0  0  0  0  0
   -2.1792    3.9647    0.9557 C   0  0  0  1  0  0  0  0  0  0  0  0
   -3.5566    3.8971    0.8633 C   0  0  0  1  0  0  0  0  0  0  0  0
   -4.3087    5.0616    0.8586 C   0  0  0  1  0  0  0  0  0  0  0  0
   -3.6809    6.2902    0.9408 C   0  0  0  1  0  0  0  0  0  0  0  0
   -1.3600    2.6957    0.9667 C   0  0  0  1  0  0  0  0  0  0  0  0
   -0.5128    5.2477    1.1036 H   0  0  0  1  0  0  0  0  0  0  0  0
   -4.0287    2.9728    0.7974 H   0  0  0  1  0  0  0  0  0  0  0  0
   -5.3454    5.0107    0.7931 H   0  0  0  1  0  0  0  0  0  0  0  0
   -4.2450    7.1639    0.9332 H   0  0  0  1  0  0  0  0  0  0  0  0
   -0.4755    2.8906    1.5365 H   0  0  0  1  0  0  0  0  0  0  0  0
   -1.9419    1.9432    1.4567 H   0  0  0  1  0  0  0  0  0  0  0  0
  1  4  1  0  0  0  0
  2  4  1  0  0  0  0
  2  5  2  0  0  0  0
  2  6  1  0  0  0  0
  3  4  1  0  0  0  0
  3  7  1  0  0  0  0
  3  8  1  0  0  0  0
  4 29  1  0  0  0  0
  6  9  1  0  0  0  0
  6 12  1  0  0  0  0
  8 10  1  0  0  0  0
  8 11  2  0  0  0  0
  9 13  1  0  0  0  0
  9 14  1  0  0  0  0
  9 15  1  0  0  0  0
 10 16  1  0  0  0  0
 10 17  1  0  0  0  0
 10 18  1  0  0  0  0
 19 20  1  0  0  0  0
 20 21  1  0  0  0  0
 20 22  1  0  0  0  0
 20 23  1  0  0  0  0
 23 24  4  0  0  0  0
 23 28  4  0  0  0  0
 24 25  4  0  0  0  0
 24 30  1  0  0  0  0
 25 26  4  0  0  0  0
 25 29  1  0  0  0  0
 26 27  4  0  0  0  0
 26 31  1  0  0  0  0
 27 28  4  0  0  0  0
 27 32  1  0  0  0  0
 28 33  1  0  0  0  0
 29 34  1  0  0  0  0
 29 35  1  0  0  0  0
M  END
> <BCLConfClusterSize>
1

> <ConfClashScore>
0 

> <ConfOneFourInteractionScore>
-0.982563 

> <ConfScore>
0.336756 

> <ConfScorePBest>
0.00247945 

> <ConfTolerance>
1.01597 

> <RosettaParamsInstructions>
M  ROOT 3
M  POLY_N_BB 3
M  POLY_CA_BB 4
M  POLY_C_BB 2
M  POLY_O_BB 5
M  POLY_IGNORE 9 10 11 12 13 14 15 16 17 18 
M  POLY_UPPER 6
M  POLY_LOWER 8
M  POLY_CHG 0
M  POLY_PROPERTIES ALPHA_AA L_AA PROTEIN AROMATIC POLYMER 
M  END

$$$$



 35 35  0  0  0  0  0  0  0  0999 V2000
   -0.6097    1.3263    2.5401 H   0  0  0  1  0  0  0  0  0  0  0  0
   -0.3839    3.2436    3.3839 C   0  0  0  1  0  0  0  0  0  0  0  0
   -2.4726    1.9252    3.1724 N   0  0  0  1  0  0  0  0  0  0  0  0
   -1.1830    2.2291    2.5732 C   0  0  0  1  0  0  0  0  0  0  0  0
    0.4273    3.9488    2.7853 O   0  0  0  1  0  0  0  0  0  0  0  0
   -0.6060    3.3148    4.7052 N   0  0  0  1  0  0  0  0  0  0  0  0
   -2.7003    0.9811    3.3030 H   0  0  0  1  0  0  0  0  0  0  0  0
   -3.3746    2.8406    3.5603 C   0  0  0  1  0  0  0  0  0  0  0  0
    0.0808    4.3151    5.5088 C   0  0  0  1  0  0  0  0  0  0  0  0
   -4.6897    2.2913    4.0780 C   0  0  0  1  0  0  0  0  0  0  0  0
   -3.1659    4.0498    3.5065 O   0  0  0  1  0  0  0  0  0  0  0  0
   -1.2320    2.6919    5.1301 H   0  0  0  1  0  0  0  0  0  0  0  0
    1.0976    4.3961    5.1857 H   0  0  0  1  0  0  0  0  0  0  0  0
    0.0559    4.0238    6.5381 H   0  0  0  1  0  0  0  0  0  0  0  0
   -0.4063    5.2608    5.3933 H   0  0  0  1  0  0  0  0  0  0  0  0
   -5.2128    3.0586    4.6096 H   0  0  0  1  0  0  0  0  0  0  0  0
   -4.4984    1.4692    4.7355 H   0  0  0  1  0  0  0  0  0  0  0  0
   -5.2860    1.9586    3.2542 H   0  0  0  1  0  0  0  0  0  0  0  0
   -0.3481    7.6071    1.5055 F   0  0  0  1  0  0  0  0  0  0  0  0
   -1.6200    7.7055    1.1150 C   0  0  0  1  0  0  0  0  0  0  0  0
   -2.2111    8.5175    1.9796 F   0  0  0  1  0  0  0  0  0  0  0  0
   -1.6034    8.3480   -0.0474 F   0  0  0  1  0  0  0  0  0  0  0  0
   -2.3029    6.3614    1.0235 C   0  0  0  1  0  0  0  0  0  0  0  0
   -1.5585    5.2004    1.1139 C   0  0  0  1  0  0  0  0  0  0  0  0
   -2.1859    3.9667    1.0353 C   0  0  0  1  0  0  0  0  0  0  0  0
   -3.5553    3.8979    0.8611 C   0  0  0  1  0  0  0  0  0  0  0  0
   -4.3020    5.0622    0.7704 C   0  0  0  1  0  0  0  0  0  0  0  0
   -3.6763    6.2921    0.8488 C   0  0  0  1  0  0  0  0  0  0  0  0
   -1.3730    2.6979    1.1399 C   0  0  0  1  0  0  0  0  0  0  0  0
   -0.5276    5.2523    1.2409 H   0  0  0  1  0  0  0  0  0  0  0  0
   -4.0255    2.9724    0.7981 H   0  0  0  1  0  0  0  0  0  0  0  0
   -5.3329    5.0103    0.6434 H   0  0  0  1  0  0  0  0  0  0  0  0
   -4.2360    7.1657    0.7768 H   0  0  0  1  0  0  0  0  0  0  0  0
   -1.8737    1.9266    0.5929 H   0  0  0  1  0  0  0  0  0  0  0  0
   -0.4098    2.8740    0.7086 H   0  0  0  1  0  0  0  0  0  0  0  0
  1  4  1  0  0  0  0
  2  4  1  0  0  0  0
  2  5  2  0  0  0  0
  2  6  1  0  0  0  0
  3  4  1  0  0  0  0
  3  7  1  0  0  0  0
  3  8  1  0  0  0  0
  4 29  1  0  0  0  0
  6  9  1  0  0  0  0
  6 12  1  0  0  0  0
  8 10  1  0  0  0  0
  8 11  2  0  0  0  0
  9 13  1  0  0  0  0
  9 14  1  0  0  0  0
  9 15  1  0  0  0  0
 10 16  1  0  0  0  0
 10 17  1  0  0  0  0
 10 18  1  0  0  0  0
 19 20  1  0  0  0  0
 20 21  1  0  0  0  0
 20 22  1  0  0  0  0
 20 23  1  0  0  0  0
 23 24  4  0  0  0  0
 23 28  4  0  0  0  0
 24 25  4  0  0  0  0
 24 30  1  0  0  0  0
 25 26  4  0  0  0  0
 25 29  1  0  0  0  0
 26 27  4  0  0  0  0
 26 31  1  0  0  0  0
 27 28  4  0  0  0  0
 27 32  1  0  0  0  0
 28 33  1  0  0  0  0
 29 34  1  0  0  0  0
 29 35  1  0  0  0  0
M  END
> <BCLConfClusterSize>
1

> <ConfClashScore>
0 

> <ConfOneFourInteractionScore>
-0.947651 

> <ConfScore>
0.338237 

> <ConfScorePBest>
0.00245097 

> <ConfTolerance>
1.31951 

> <RosettaParamsInstructions>
M  ROOT 3
M  POLY_N_BB 3
M  POLY_CA_BB 4
M  POLY_C_BB 2
M  POLY_O_BB 5
M  POLY_IGNORE 9 10 11 12 13 14 15 16 17 18 
M  POLY_UPPER 6
M  POLY_LOWER 8
M  POLY_CHG 0
M  POLY_PROPERTIES ALPHA_AA L_AA PROTEIN AROMATIC POLYMER 
M  END

$$$$



 35 35  0  0  0  0  0  0  0  0999 V2000
   -1.4863    2.3755   -1.2042 H   0  0  0  1  0  0  0  0  0  0  0  0
   -0.7551    0.5948   -0.3322 C   0  0  0  1  0  0  0  0  0  0  0  0
   -3.0614    1.3877   -0.2993 N   0  0  0  1  0  0  0  0  0  0  0  0
   -1.6685    1.8087   -0.3151 C   0  0  0  1  0  0  0  0  0  0  0  0
    0.2824    0.5740    0.3093 O   0  0  0  1  0  0  0  0  0  0  0  0
   -1.1659   -0.4331   -1.0905 N   0  0  0  1  0  0  0  0  0  0  0  0
   -3.6615    1.7119   -1.0029 H   0  0  0  1  0  0  0  0  0  0  0  0
   -3.5506    0.5745    0.6412 C   0  0  0  1  0  0  0  0  0  0  0  0
   -0.4175   -1.6812   -1.0970 C   0  0  0  1  0  0  0  0  0  0  0  0
   -5.0430    0.3144    0.5759 C   0  0  0  1  0  0  0  0  0  0  0  0
   -2.8517    0.0613    1.5110 O   0  0  0  1  0  0  0  0  0  0  0  0
   -1.9715   -0.3431   -1.6412 H   0  0  0  1  0  0  0  0  0  0  0  0
    0.5698   -1.5076   -0.7229 H   0  0  0  1  0  0  0  0  0  0  0  0
   -0.3588   -2.0563   -2.0974 H   0  0  0  1  0  0  0  0  0  0  0  0
   -0.9134   -2.3973   -0.4756 H   0  0  0  1  0  0  0  0  0  0  0  0
   -5.4743    0.4637    1.5436 H   0  0  0  1  0  0  0  0  0  0  0  0
   -5.2156   -0.6934    0.2604 H   0  0  0  1  0  0  0  0  0  0  0  0
   -5.4922    0.9892   -0.1225 H   0  0  0  1  0  0  0  0  0  0  0  0
   -0.6024    7.8215    0.2545 F   0  0  0  1  0  0  0  0  0  0  0  0
   -1.6177    7.7076    1.1125 C   0  0  0  1  0  0  0  0  0  0  0  0
   -1.1110    7.9450    2.3234 F   0  0  0  1  0  0  0  0  0  0  0  0
   -2.4450    8.7198    0.8486 F   0  0  0  1  0  0  0  0  0  0  0  0
   -2.3033    6.3599    1.0244 C   0  0  0  1  0  0  0  0  0  0  0  0
   -1.5496    5.2018    0.9927 C   0  0  0  1  0  0  0  0  0  0  0  0
   -2.1771    3.9681    0.9175 C   0  0  0  1  0  0  0  0  0  0  0  0
   -3.5565    3.8964    0.8689 C   0  0  0  1  0  0  0  0  0  0  0  0
   -4.3126    5.0577    0.9007 C   0  0  0  1  0  0  0  0  0  0  0  0
   -3.6868    6.2878    0.9757 C   0  0  0  1  0  0  0  0  0  0  0  0
   -1.3535    2.7022    0.8886 C   0  0  0  1  0  0  0  0  0  0  0  0
   -0.5115    5.2560    1.0252 H   0  0  0  1  0  0  0  0  0  0  0  0
   -4.0272    2.9710    0.8084 H   0  0  0  1  0  0  0  0  0  0  0  0
   -5.3507    5.0035    0.8682 H   0  0  0  1  0  0  0  0  0  0  0  0
   -4.2539    7.1593    0.9955 H   0  0  0  1  0  0  0  0  0  0  0  0
   -0.3182    2.9703    0.8522 H   0  0  0  1  0  0  0  0  0  0  0  0
   -1.5479    2.1490    1.7836 H   0  0  0  1  0  0  0  0  0  0  0  0
  1  4  1  0  0  0  0
  2  4  1  0  0  0  0
  2  5  2  0  0  0  0
  2  6  1  0  0  0  0
  3  4  1  0  0  0  0
  3  7  1  0  0  0  0
  3  8  1  0  0  0  0
  4 29  1  0  0  0  0
  6  9  1  0  0  0  0
  6 12  1  0  0  0  0
  8 10  1  0  0  0  0
  8 11  2  0  0  0  0
  9 13  1  0  0  0  0
  9 14  1  0  0  0  0
  9 15  1  0  0  0  0
 10 16  1  0  0  0  0
 10 17  1  0  0  0  0
 10 18  1  0  0  0  0
 19 20  1  0  0  0  0
 20 21  1  0  0  0  0
 20 22  1  0  0  0  0
 20 23  1  0  0  0  0
 23 24  4  0  0  0  0
 23 28  4  0  0  0  0
 24 25  4  0  0  0  0
 24 30  1  0  0  0  0
 25 26  4  0  0  0  0
 25 29  1  0  0  0  0
 26 27  4  0  0  0  0
 26 31  1  0  0  0  0
 27 28  4  0  0  0  0
 27 32  1  0  0  0  0
 28 33  1  0  0  0  0
 29 34  1  0  0  0  0
 29 35  1  0  0  0  0
M  END
> <BCLConfClusterSize>
1

> <ConfClashScore>
0 

> <ConfOneFourInteractionScore>
-0.953489 

> <ConfScore>
0.339013 

> <ConfScorePBest>
0.00242249 

> <ConfTolerance>
1.09884 

> <RosettaParamsInstructions>
M  ROOT 3
M  POLY_N_BB 3
M  POLY_CA_BB 4
M  POLY_C_BB 2
M  POLY_O_BB 5
M  POLY_IGNORE 9 10 11 12 13 14 15 16 17 18 
M  POLY_UPPER 6
M  POLY_LOWER 8
M  POLY_CHG 0
M  POLY_PROPERTIES ALPHA_AA L_AA PROTEIN AROMATIC POLYMER 
M  END

$$$$



 35 35  0  0  0  0  0  0  0  0999 V2000
    0.0964    3.4226    2.6521 H   0  0  0  1  0  0  0  0  0  0  0  0
    0.7673    1.5285    1.9009 C   0  0  0  1  0  0  0  0  0  0  0  0
    0.7412    3.6905    0.7059 N   0  0  0  1  0  0  0  0  0  0  0  0
    0.0558    2.9014    1.7185 C   0  0  0  1  0  0  0  0  0  0  0  0
    0.1683    0.5546    2.3529 O   0  0  0  1  0  0  0  0  0  0  0  0
    2.0325    1.4884    1.5427 N   0  0  0  1  0  0  0  0  0  0  0  0
    1.0863    4.5749    0.9489 H   0  0  0  1  0  0  0  0  0  0  0  0
    0.9163    3.2511   -0.5437 C   0  0  0  1  0  0  0  0  0  0  0  0
    2.8685    0.3193    1.7712 C   0  0  0  1  0  0  0  0  0  0  0  0
    1.5734    4.2490   -1.4945 C   0  0  0  1  0  0  0  0  0  0  0  0
    0.5203    2.1591   -0.9463 O   0  0  0  1  0  0  0  0  0  0  0  0
    2.4257    2.2731    1.1067 H   0  0  0  1  0  0  0  0  0  0  0  0
    2.7034   -0.3956    0.9924 H   0  0  0  1  0  0  0  0  0  0  0  0
    2.6192   -0.1181    2.7153 H   0  0  0  1  0  0  0  0  0  0  0  0
    3.8977    0.6121    1.7738 H   0  0  0  1  0  0  0  0  0  0  0  0
    0.8502    4.9721   -1.8090 H   0  0  0  1  0  0  0  0  0  0  0  0
    1.9533    3.7297   -2.3494 H   0  0  0  1  0  0  0  0  0  0  0  0
    2.3773    4.7445   -0.9913 H   0  0  0  1  0  0  0  0  0  0  0  0
   -0.6683    7.7364    2.0508 F   0  0  0  1  0  0  0  0  0  0  0  0
   -1.6185    7.7084    1.1147 C   0  0  0  1  0  0  0  0  0  0  0  0
   -2.4658    8.6942    1.4139 F   0  0  0  1  0  0  0  0  0  0  0  0
   -1.0270    8.0581   -0.0283 F   0  0  0  1  0  0  0  0  0  0  0  0
   -2.3048    6.3603    1.0243 C   0  0  0  1  0  0  0  0  0  0  0  0
   -1.5775    5.1975    1.2259 C   0  0  0  1  0  0  0  0  0  0  0  0
   -2.2024    3.9678    1.1382 C   0  0  0  1  0  0  0  0  0  0  0  0
   -3.5574    3.8974    0.8541 C   0  0  0  1  0  0  0  0  0  0  0  0
   -4.2823    5.0569    0.6531 C   0  0  0  1  0  0  0  0  0  0  0  0
   -3.6557    6.2903    0.7410 C   0  0  0  1  0  0  0  0  0  0  0  0
   -1.4088    2.7005    1.3521 C   0  0  0  1  0  0  0  0  0  0  0  0
   -0.5618    5.2504    1.4431 H   0  0  0  1  0  0  0  0  0  0  0  0
   -4.0284    2.9723    0.7921 H   0  0  0  1  0  0  0  0  0  0  0  0
   -5.2980    5.0041    0.4359 H   0  0  0  1  0  0  0  0  0  0  0  0
   -4.2021    7.1629    0.5938 H   0  0  0  1  0  0  0  0  0  0  0  0
   -1.8741    2.1491    2.1423 H   0  0  0  1  0  0  0  0  0  0  0  0
   -1.4476    2.1302    0.4476 H   0  0  0  1  0  0  0  0  0  0  0  0
  1  4  1  0  0  0  0
  2  4  1  0  0  0  0
  2  5  2  0  0  0  0
  2  6  1  0  0  0  0
  3  4  1  0  0  0  0
  3  7  1  0  0  0  0
  3  8  1  0  0  0  0
  4 29  1  0  0  0  0
  6  9  1  0  0  0  0
  6 12  1  0  0  0  0
  8 10  1  0  0  0  0
  8 11  2  0  0  0  0
  9 13  1  0  0  0  0
  9 14  1  0  0  0  0
  9 15  1  0  0  0  0
 10 16  1  0  0  0  0
 10 17  1  0  0  0  0
 10 18  1  0  0  0  0
 19 20  1  0  0  0  0
 20 21  1  0  0  0  0
 20 22  1  0  0  0  0
 20 23  1  0  0  0  0
 23 24  4  0  0  0  0
 23 28  4  0  0  0  0
 24 25  4  0  0  0  0
 24 30  1  0  0  0  0
 25 26  4  0  0  0  0
 25 29  1  0  0  0  0
 26 27  4  0  0  0  0
 26 31  1  0  0  0  0
 27 28  4  0  0  0  0
 27 32  1  0  0  0  0
 28 33  1  0  0  0  0
 29 34  1  0  0  0  0
 29 35  1  0  0  0  0
M  END
> <BCLConfClusterSize>
1

> <ConfClashScore>
0 

> <ConfOneFourInteractionScore>
-0.927379 

> <ConfScore>
0.35166 

> <ConfScorePBest>
0.00239401 

> <ConfTolerance>
1.07023 

> <RosettaParamsInstructions>
M  ROOT 3
M  POLY_N_BB 3
M  POLY_CA_BB 4
M  POLY_C_BB 2
M  POLY_O_BB 5
M  POLY_IGNORE 9 10 11 12 13 14 15 16 17 18 
M  POLY_UPPER 6
M  POLY_LOWER 8
M  POLY_CHG 0
M  POLY_PROPERTIES ALPHA_AA L_AA PROTEIN AROMATIC POLYMER 
M  END

$$$$



 35 35  0  0  0  0  0  0  0  0999 V2000
    0.5551    1.9287    1.5382 H   0  0  0  1  0  0  0  0  0  0  0  0
    0.7105    3.6611    0.3420 C   0  0  0  1  0  0  0  0  0  0  0  0
    0.3493    3.5907    2.7507 N   0  0  0  1  0  0  0  0  0  0  0  0
    0.0970    2.8948    1.4977 C   0  0  0  1  0  0  0  0  0  0  0  0
    0.4084    3.4034   -0.8222 O   0  0  0  1  0  0  0  0  0  0  0  0
    1.5211    4.6806    0.6670 N   0  0  0  1  0  0  0  0  0  0  0  0
   -0.3594    4.1498    3.1322 H   0  0  0  1  0  0  0  0  0  0  0  0
    1.5135    3.4939    3.3990 C   0  0  0  1  0  0  0  0  0  0  0  0
    2.0530    5.5988   -0.3290 C   0  0  0  1  0  0  0  0  0  0  0  0
    1.6709    4.4354    4.5908 C   0  0  0  1  0  0  0  0  0  0  0  0
    2.4370    2.7653    3.0412 O   0  0  0  1  0  0  0  0  0  0  0  0
    1.7631    4.8112    1.6076 H   0  0  0  1  0  0  0  0  0  0  0  0
    1.3306    6.3611   -0.5339 H   0  0  0  1  0  0  0  0  0  0  0  0
    2.2697    5.0620   -1.2289 H   0  0  0  1  0  0  0  0  0  0  0  0
    2.9497    6.0483    0.0435 H   0  0  0  1  0  0  0  0  0  0  0  0
    1.5426    5.4469    4.2664 H   0  0  0  1  0  0  0  0  0  0  0  0
    2.6475    4.3173    5.0118 H   0  0  0  1  0  0  0  0  0  0  0  0
    0.9329    4.2017    5.3295 H   0  0  0  1  0  0  0  0  0  0  0  0
   -0.5336    7.6785    1.8894 F   0  0  0  1  0  0  0  0  0  0  0  0
   -1.6186    7.7077    1.1137 C   0  0  0  1  0  0  0  0  0  0  0  0
   -2.4126    8.6532    1.6188 F   0  0  0  1  0  0  0  0  0  0  0  0
   -1.2151    8.1551   -0.0761 F   0  0  0  1  0  0  0  0  0  0  0  0
   -2.3046    6.3606    1.0247 C   0  0  0  1  0  0  0  0  0  0  0  0
   -1.5703    5.1966    1.1895 C   0  0  0  1  0  0  0  0  0  0  0  0
   -2.1953    3.9669    1.1030 C   0  0  0  1  0  0  0  0  0  0  0  0
   -3.5576    3.8978    0.8567 C   0  0  0  1  0  0  0  0  0  0  0  0
   -4.2901    5.0584    0.6923 C   0  0  0  1  0  0  0  0  0  0  0  0
   -3.6630    6.2916    0.7791 C   0  0  0  1  0  0  0  0  0  0  0  0
   -1.3939    2.6984    1.2768 C   0  0  0  1  0  0  0  0  0  0  0  0
   -0.5489    5.2485    1.3782 H   0  0  0  1  0  0  0  0  0  0  0  0
   -4.0287    2.9727    0.7956 H   0  0  0  1  0  0  0  0  0  0  0  0
   -5.3115    5.0064    0.5036 H   0  0  0  1  0  0  0  0  0  0  0  0
   -4.2148    7.1650    0.6595 H   0  0  0  1  0  0  0  0  0  0  0  0
   -1.7865    2.1732    2.1223 H   0  0  0  1  0  0  0  0  0  0  0  0
   -1.5216    2.1041    0.3963 H   0  0  0  1  0  0  0  0  0  0  0  0
  1  4  1  0  0  0  0
  2  4  1  0  0  0  0
  2  5  2  0  0  0  0
  2  6  1  0  0  0  0
  3  4  1  0  0  0  0
  3  7  1  0  0  0  0
  3  8  1  0  0  0  0
  4 29  1  0  0  0  0
  6  9  1  0  0  0  0
  6 12  1  0  0  0  0
  8 10  1  0  0  0  0
  8 11  2  0  0  0  0
  9 13  1  0  0  0  0
  9 14  1  0  0  0  0
  9 15  1  0  0  0  0
 10 16  1  0  0  0  0
 10 17  1  0  0  0  0
 10 18  1  0  0  0  0
 19 20  1  0  0  0  0
 20 21  1  0  0  0  0
 20 22  1  0  0  0  0
 20 23  1  0  0  0  0
 23 24  4  0  0  0  0
 23 28  4  0  0  0  0
 24 25  4  0  0  0  0
 24 30  1  0  0  0  0
 25 26  4  0  0  0  0
 25 29  1  0  0  0  0
 26 27  4  0  0  0  0
 26 31  1  0  0  0  0
 27 28  4  0  0  0  0
 27 32  1  0  0  0  0
 28 33  1  0  0  0  0
 29 34  1  0  0  0  0
 29 35  1  0  0  0  0
M  END
> <BCLConfClusterSize>
1

> <ConfClashScore>
0.000927739 

> <ConfOneFourInteractionScore>
-0.930965 

> <ConfScore>
0.357743 

> <ConfScorePBest>
0.00236553 

> <ConfTolerance>
1.17736 

> <RosettaParamsInstructions>
M  ROOT 3
M  POLY_N_BB 3
M  POLY_CA_BB 4
M  POLY_C_BB 2
M  POLY_O_BB 5
M  POLY_IGNORE 9 10 11 12 13 14 15 16 17 18 
M  POLY_UPPER 6
M  POLY_LOWER 8
M  POLY_CHG 0
M  POLY_PROPERTIES ALPHA_AA L_AA PROTEIN AROMATIC POLYMER 
M  END

$$$$



 35 35  0  0  0  0  0  0  0  0999 V2000
   -0.7636    0.9153    0.1970 H   0  0  0  1  0  0  0  0  0  0  0  0
   -2.7730    1.2724   -0.3426 C   0  0  0  1  0  0  0  0  0  0  0  0
   -0.8112    2.4232   -1.2168 N   0  0  0  1  0  0  0  0  0  0  0  0
   -1.3693    1.7632   -0.0460 C   0  0  0  1  0  0  0  0  0  0  0  0
   -3.5490    0.9911    0.5696 O   0  0  0  1  0  0  0  0  0  0  0  0
   -3.1419    1.1547   -1.6280 N   0  0  0  1  0  0  0  0  0  0  0  0
    0.0475    2.1112   -1.5712 H   0  0  0  1  0  0  0  0  0  0  0  0
   -1.4288    3.4398   -1.8253 C   0  0  0  1  0  0  0  0  0  0  0  0
   -4.4691    0.6618   -1.9651 C   0  0  0  1  0  0  0  0  0  0  0  0
   -0.6607    4.0950   -2.9566 C   0  0  0  1  0  0  0  0  0  0  0  0
   -2.5489    3.8331   -1.5022 O   0  0  0  1  0  0  0  0  0  0  0  0
   -2.5162    1.4012   -2.3409 H   0  0  0  1  0  0  0  0  0  0  0  0
   -5.1659    0.9694   -1.2136 H   0  0  0  1  0  0  0  0  0  0  0  0
   -4.4498   -0.4068   -2.0172 H   0  0  0  1  0  0  0  0  0  0  0  0
   -4.7673    1.0602   -2.9123 H   0  0  0  1  0  0  0  0  0  0  0  0
   -0.4665    3.3727   -3.7218 H   0  0  0  1  0  0  0  0  0  0  0  0
    0.2665    4.4770   -2.5835 H   0  0  0  1  0  0  0  0  0  0  0  0
   -1.2401    4.8976   -3.3628 H   0  0  0  1  0  0  0  0  0  0  0  0
   -0.3628    7.6298    1.5545 F   0  0  0  1  0  0  0  0  0  0  0  0
   -1.6147    7.7072    1.0999 C   0  0  0  1  0  0  0  0  0  0  0  0
   -2.2294    8.5318    1.9493 F   0  0  0  1  0  0  0  0  0  0  0  0
   -1.5775    8.3463   -0.0511 F   0  0  0  1  0  0  0  0  0  0  0  0
   -2.3030    6.3587    1.0182 C   0  0  0  1  0  0  0  0  0  0  0  0
   -1.5591    5.1935    1.1202 C   0  0  0  1  0  0  0  0  0  0  0  0
   -2.1858    3.9642    1.0404 C   0  0  0  1  0  0  0  0  0  0  0  0
   -3.5590    3.8966    0.8637 C   0  0  0  1  0  0  0  0  0  0  0  0
   -4.3008    5.0583    0.7620 C   0  0  0  1  0  0  0  0  0  0  0  0
   -3.6722    6.2911    0.8421 C   0  0  0  1  0  0  0  0  0  0  0  0
   -1.3724    2.6912    1.1460 C   0  0  0  1  0  0  0  0  0  0  0  0
   -0.5294    5.2442    1.2568 H   0  0  0  1  0  0  0  0  0  0  0  0
   -4.0312    2.9717    0.8077 H   0  0  0  1  0  0  0  0  0  0  0  0
   -5.3306    5.0076    0.6255 H   0  0  0  1  0  0  0  0  0  0  0  0
   -4.2308    7.1653    0.7695 H   0  0  0  1  0  0  0  0  0  0  0  0
   -0.3578    2.9743    1.3340 H   0  0  0  1  0  0  0  0  0  0  0  0
   -1.7496    2.1386    1.9810 H   0  0  0  1  0  0  0  0  0  0  0  0
  1  4  1  0  0  0  0
  2  4  1  0  0  0  0
  2  5  2  0  0  0  0
  2  6  1  0  0  0  0
  3  4  1  0  0  0  0
  3  7  1  0  0  0  0
  3  8  1  0  0  0  0
  4 29  1  0  0  0  0
  6  9  1  0  0  0  0
  6 12  1  0  0  0  0
  8 10  1  0  0  0  0
  8 11  2  0  0  0  0
  9 13  1  0  0  0  0
  9 14  1  0  0  0  0
  9 15  1  0  0  0  0
 10 16  1  0  0  0  0
 10 17  1  0  0  0  0
 10 18  1  0  0  0  0
 19 20  1  0  0  0  0
 20 21  1  0  0  0  0
 20 22  1  0  0  0  0
 20 23  1  0  0  0  0
 23 24  4  0  0  0  0
 23 28  4  0  0  0  0
 24 25  4  0  0  0  0
 24 30  1  0  0  0  0
 25 26  4  0  0  0  0
 25 29  1  0  0  0  0
 26 27  4  0  0  0  0
 26 31  1  0  0  0  0
 27 28  4  0  0  0  0
 27 32  1  0  0  0  0
 28 33  1  0  0  0  0
 29 34  1  0  0  0  0
 29 35  1  0  0  0  0
M  END
> <BCLConfClusterSize>
1

> <ConfClashScore>
0 

> <ConfOneFourInteractionScore>
-0.948009 

> <ConfScore>
0.366889 

> <ConfScorePBest>
0.00233705 

> <ConfTolerance>
1.02637 

> <RosettaParamsInstructions>
M  ROOT 3
M  POLY_N_BB 3
M  POLY_CA_BB 4
M  POLY_C_BB 2
M  POLY_O_BB 5
M  POLY_IGNORE 9 10 11 12 13 14 15 16 17 18 
M  POLY_UPPER 6
M  POLY_LOWER 8
M  POLY_CHG 0
M  POLY_PROPERTIES ALPHA_AA L_AA PROTEIN AROMATIC POLYMER 
M  END

$$$$



 35 35  0  0  0  0  0  0  0  0999 V2000
   -2.8580    1.2457    1.6682 H   0  0  0  1  0  0  0  0  0  0  0  0
   -1.1969    0.5005    2.6626 C   0  0  0  1  0  0  0  0  0  0  0  0
   -2.7012    2.3355    3.3920 N   0  0  0  1  0  0  0  0  0  0  0  0
   -2.0602    1.6729    2.2389 C   0  0  0  1  0  0  0  0  0  0  0  0
   -0.5940    0.5159    3.7349 O   0  0  0  1  0  0  0  0  0  0  0  0
   -1.1115   -0.5470    1.8377 N   0  0  0  1  0  0  0  0  0  0  0  0
   -2.1530    2.6582    4.1374 H   0  0  0  1  0  0  0  0  0  0  0  0
   -4.0273    2.4961    3.4213 C   0  0  0  1  0  0  0  0  0  0  0  0
   -0.2786   -1.7032    2.1332 C   0  0  0  1  0  0  0  0  0  0  0  0
   -4.5862    3.1312    4.6797 C   0  0  0  1  0  0  0  0  0  0  0  0
   -4.7577    2.1594    2.5039 O   0  0  0  1  0  0  0  0  0  0  0  0
   -1.6275   -0.5363    1.0047 H   0  0  0  1  0  0  0  0  0  0  0  0
   -0.4883   -2.0507    3.1233 H   0  0  0  1  0  0  0  0  0  0  0  0
    0.7527   -1.4269    2.0634 H   0  0  0  1  0  0  0  0  0  0  0  0
   -0.4880   -2.4823    1.4303 H   0  0  0  1  0  0  0  0  0  0  0  0
   -5.5162    2.6660    4.9318 H   0  0  0  1  0  0  0  0  0  0  0  0
   -4.7443    4.1760    4.5116 H   0  0  0  1  0  0  0  0  0  0  0  0
   -3.8925    2.9998    5.4836 H   0  0  0  1  0  0  0  0  0  0  0  0
   -0.5594    7.6823    1.9297 F   0  0  0  1  0  0  0  0  0  0  0  0
   -1.6203    7.7087    1.1210 C   0  0  0  1  0  0  0  0  0  0  0  0
   -2.4273    8.6588    1.5957 F   0  0  0  1  0  0  0  0  0  0  0  0
   -1.1797    8.1477   -0.0587 F   0  0  0  1  0  0  0  0  0  0  0  0
   -2.3061    6.3623    1.0197 C   0  0  0  1  0  0  0  0  0  0  0  0
   -1.5758    5.1967    1.1845 C   0  0  0  1  0  0  0  0  0  0  0  0
   -2.1853    3.9463    1.1115 C   0  0  0  1  0  0  0  0  0  0  0  0
   -3.5528    3.9038    0.8616 C   0  0  0  1  0  0  0  0  0  0  0  0
   -4.2876    5.0670    0.6859 C   0  0  0  1  0  0  0  0  0  0  0  0
   -3.6671    6.2928    0.7616 C   0  0  0  1  0  0  0  0  0  0  0  0
   -1.3846    2.6740    1.2982 C   0  0  0  1  0  0  0  0  0  0  0  0
   -0.5535    5.2563    1.3661 H   0  0  0  1  0  0  0  0  0  0  0  0
   -4.0332    2.9831    0.8055 H   0  0  0  1  0  0  0  0  0  0  0  0
   -5.3088    5.0127    0.4967 H   0  0  0  1  0  0  0  0  0  0  0  0
   -4.2172    7.1649    0.6257 H   0  0  0  1  0  0  0  0  0  0  0  0
   -1.2553    2.2097    0.3429 H   0  0  0  1  0  0  0  0  0  0  0  0
   -0.4280    2.9300    1.7034 H   0  0  0  1  0  0  0  0  0  0  0  0
  1  4  1  0  0  0  0
  2  4  1  0  0  0  0
  2  5  2  0  0  0  0
  2  6  1  0  0  0  0
  3  4  1  0  0  0  0
  3  7  1  0  0  0  0
  3  8  1  0  0  0  0
  4 29  1  0  0  0  0
  6  9  1  0  0  0  0
  6 12  1  0  0  0  0
  8 10  1  0  0  0  0
  8 11  2  0  0  0  0
  9 13  1  0  0  0  0
  9 14  1  0  0  0  0
  9 15  1  0  0  0  0
 10 16  1  0  0  0  0
 10 17  1  0  0  0  0
 10 18  1  0  0  0  0
 19 20  1  0  0  0  0
 20 21  1  0  0  0  0
 20 22  1  0  0  0  0
 20 23  1  0  0  0  0
 23 24  4  0  0  0  0
 23 28  4  0  0  0  0
 24 25  4  0  0  0  0
 24 30  1  0  0  0  0
 25 26  4  0  0  0  0
 25 29  1  0  0  0  0
 26 27  4  0  0  0  0
 26 31  1  0  0  0  0
 27 28  4  0  0  0  0
 27 32  1  0  0  0  0
 28 33  1  0  0  0  0
 29 34  1  0  0  0  0
 29 35  1  0  0  0  0
M  END
> <BCLConfClusterSize>
1

> <ConfClashScore>
0 

> <ConfOneFourInteractionScore>
-0.992391 

> <ConfScore>
0.371671 

> <ConfScorePBest>
0.00230857 

> <ConfTolerance>
1.63913 

> <RosettaParamsInstructions>
M  ROOT 3
M  POLY_N_BB 3
M  POLY_CA_BB 4
M  POLY_C_BB 2
M  POLY_O_BB 5
M  POLY_IGNORE 9 10 11 12 13 14 15 16 17 18 
M  POLY_UPPER 6
M  POLY_LOWER 8
M  POLY_CHG 0
M  POLY_PROPERTIES ALPHA_AA L_AA PROTEIN AROMATIC POLYMER 
M  END

$$$$



 35 35  0  0  0  0  0  0  0  0999 V2000
   -1.8350    1.7831   -0.5584 H   0  0  0  1  0  0  0  0  0  0  0  0
   -0.1127    2.9465   -0.8567 C   0  0  0  1  0  0  0  0  0  0  0  0
   -0.2663    0.7707    0.3056 N   0  0  0  1  0  0  0  0  0  0  0  0
   -0.9509    2.0173   -0.0031 C   0  0  0  1  0  0  0  0  0  0  0  0
   -0.3222    4.1587   -0.8758 O   0  0  0  1  0  0  0  0  0  0  0  0
    0.8570    2.3608   -1.5769 N   0  0  0  1  0  0  0  0  0  0  0  0
   -0.6865   -0.0761    0.0472 H   0  0  0  1  0  0  0  0  0  0  0  0
    0.9237    0.7403    0.9335 C   0  0  0  1  0  0  0  0  0  0  0  0
    1.6840    3.1034   -2.5163 C   0  0  0  1  0  0  0  0  0  0  0  0
    1.4390   -0.6373    1.3023 C   0  0  0  1  0  0  0  0  0  0  0  0
    1.5668    1.7548    1.1996 O   0  0  0  1  0  0  0  0  0  0  0  0
    1.0135    1.3997   -1.4663 H   0  0  0  1  0  0  0  0  0  0  0  0
    2.5797    3.4248   -2.0270 H   0  0  0  1  0  0  0  0  0  0  0  0
    1.1442    3.9575   -2.8685 H   0  0  0  1  0  0  0  0  0  0  0  0
    1.9363    2.4740   -3.3440 H   0  0  0  1  0  0  0  0  0  0  0  0
    1.6842   -1.1771    0.4116 H   0  0  0  1  0  0  0  0  0  0  0  0
    0.6833   -1.1673    1.8436 H   0  0  0  1  0  0  0  0  0  0  0  0
    2.3129   -0.5395    1.9119 H   0  0  0  1  0  0  0  0  0  0  0  0
   -0.5524    7.6512    1.8947 F   0  0  0  1  0  0  0  0  0  0  0  0
   -1.6177    7.7093    1.1216 C   0  0  0  1  0  0  0  0  0  0  0  0
   -2.4220    8.6397    1.6154 F   0  0  0  1  0  0  0  0  0  0  0  0
   -1.2138    8.1300   -0.0778 F   0  0  0  1  0  0  0  0  0  0  0  0
   -2.3005    6.3654    1.0258 C   0  0  0  1  0  0  0  0  0  0  0  0
   -1.5677    5.2048    1.1878 C   0  0  0  1  0  0  0  0  0  0  0  0
   -2.1952    3.9715    1.1052 C   0  0  0  1  0  0  0  0  0  0  0  0
   -3.5528    3.9025    0.8555 C   0  0  0  1  0  0  0  0  0  0  0  0
   -4.2879    5.0664    0.6930 C   0  0  0  1  0  0  0  0  0  0  0  0
   -3.6621    6.2960    0.7754 C   0  0  0  1  0  0  0  0  0  0  0  0
   -1.3954    2.7033    1.2881 C   0  0  0  1  0  0  0  0  0  0  0  0
   -0.5454    5.2567    1.3717 H   0  0  0  1  0  0  0  0  0  0  0  0
   -4.0229    2.9771    0.7896 H   0  0  0  1  0  0  0  0  0  0  0  0
   -5.3102    5.0144    0.5091 H   0  0  0  1  0  0  0  0  0  0  0  0
   -4.2128    7.1692    0.6495 H   0  0  0  1  0  0  0  0  0  0  0  0
   -0.5189    2.9444    1.8525 H   0  0  0  1  0  0  0  0  0  0  0  0
   -1.9962    2.0109    1.8399 H   0  0  0  1  0  0  0  0  0  0  0  0
  1  4  1  0  0  0  0
  2  4  1  0  0  0  0
  2  5  2  0  0  0  0
  2  6  1  0  0  0  0
  3  4  1  0  0  0  0
  3  7  1  0  0  0  0
  3  8  1  0  0  0  0
  4 29  1  0  0  0  0
  6  9  1  0  0  0  0
  6 12  1  0  0  0  0
  8 10  1  0  0  0  0
  8 11  2  0  0  0  0
  9 13  1  0  0  0  0
  9 14  1  0  0  0  0
  9 15  1  0  0  0  0
 10 16  1  0  0  0  0
 10 17  1  0  0  0  0
 10 18  1  0  0  0  0
 19 20  1  0  0  0  0
 20 21  1  0  0  0  0
 20 22  1  0  0  0  0
 20 23  1  0  0  0  0
 23 24  4  0  0  0  0
 23 28  4  0  0  0  0
 24 25  4  0  0  0  0
 24 30  1  0  0  0  0
 25 26  4  0  0  0  0
 25 29  1  0  0  0  0
 26 27  4  0  0  0  0
 26 31  1  0  0  0  0
 27 28  4  0  0  0  0
 27 32  1  0  0  0  0
 28 33  1  0  0  0  0
 29 34  1  0  0  0  0
 29 35  1  0  0  0  0
M  END
> <BCLConfClusterSize>
1

> <ConfClashScore>
0 

> <ConfOneFourInteractionScore>
-0.957364 

> <ConfScore>
0.37753 

> <ConfScorePBest>
0.00228009 

> <ConfTolerance>
0.877218 

> <RosettaParamsInstructions>
M  ROOT 3
M  POLY_N_BB 3
M  POLY_CA_BB 4
M  POLY_C_BB 2
M  POLY_O_BB 5
M  POLY_IGNORE 9 10 11 12 13 14 15 16 17 18 
M  POLY_UPPER 6
M  POLY_LOWER 8
M  POLY_CHG 0
M  POLY_PROPERTIES ALPHA_AA L_AA PROTEIN AROMATIC POLYMER 
M  END

$$$$



 35 35  0  0  0  0  0  0  0  0999 V2000
   -0.4895    3.1215    2.7889 H   0  0  0  1  0  0  0  0  0  0  0  0
   -2.1708    1.9363    3.1787 C   0  0  0  1  0  0  0  0  0  0  0  0
    0.0134    1.1821    2.3588 N   0  0  0  1  0  0  0  0  0  0  0  0
   -0.9530    2.2685    2.3387 C   0  0  0  1  0  0  0  0  0  0  0  0
   -3.2294    2.5211    3.0180 O   0  0  0  1  0  0  0  0  0  0  0  0
   -2.0015    0.9698    4.0948 N   0  0  0  1  0  0  0  0  0  0  0  0
    0.9461    1.3618    2.5998 H   0  0  0  1  0  0  0  0  0  0  0  0
   -0.3693   -0.0657    2.0481 C   0  0  0  1  0  0  0  0  0  0  0  0
   -3.0028    0.5594    5.0678 C   0  0  0  1  0  0  0  0  0  0  0  0
    0.7579   -1.0651    1.8133 C   0  0  0  1  0  0  0  0  0  0  0  0
   -1.5494   -0.4007    1.9542 O   0  0  0  1  0  0  0  0  0  0  0  0
   -1.1386    0.5055    4.1093 H   0  0  0  1  0  0  0  0  0  0  0  0
   -3.2291    1.3806    5.7154 H   0  0  0  1  0  0  0  0  0  0  0  0
   -2.6239   -0.2570    5.6465 H   0  0  0  1  0  0  0  0  0  0  0  0
   -3.8916    0.2529    4.5570 H   0  0  0  1  0  0  0  0  0  0  0  0
    1.7001   -0.5616    1.8740 H   0  0  0  1  0  0  0  0  0  0  0  0
    0.6496   -1.5030    0.8430 H   0  0  0  1  0  0  0  0  0  0  0  0
    0.7151   -1.8322    2.5581 H   0  0  0  1  0  0  0  0  0  0  0  0
   -0.3859    7.6907    0.6071 F   0  0  0  1  0  0  0  0  0  0  0  0
   -1.6187    7.7095    1.1168 C   0  0  0  1  0  0  0  0  0  0  0  0
   -1.4952    8.1326    2.3757 F   0  0  0  1  0  0  0  0  0  0  0  0
   -2.2795    8.6689    0.4625 F   0  0  0  1  0  0  0  0  0  0  0  0
   -2.3070    6.3619    1.0218 C   0  0  0  1  0  0  0  0  0  0  0  0
   -1.5558    5.1981    1.0023 C   0  0  0  1  0  0  0  0  0  0  0  0
   -2.1641    3.9470    0.9312 C   0  0  0  1  0  0  0  0  0  0  0  0
   -3.5530    3.9024    0.8743 C   0  0  0  1  0  0  0  0  0  0  0  0
   -4.3103    5.0644    0.8835 C   0  0  0  1  0  0  0  0  0  0  0  0
   -3.6905    6.2908    0.9541 C   0  0  0  1  0  0  0  0  0  0  0  0
   -1.3421    2.6800    0.9163 C   0  0  0  1  0  0  0  0  0  0  0  0
   -0.5183    5.2596    1.0416 H   0  0  0  1  0  0  0  0  0  0  0  0
   -4.0326    2.9809    0.8241 H   0  0  0  1  0  0  0  0  0  0  0  0
   -5.3477    5.0086    0.8369 H   0  0  0  1  0  0  0  0  0  0  0  0
   -4.2580    7.1623    0.9567 H   0  0  0  1  0  0  0  0  0  0  0  0
   -1.9152    1.8952    0.4684 H   0  0  0  1  0  0  0  0  0  0  0  0
   -0.4535    2.8450    0.3434 H   0  0  0  1  0  0  0  0  0  0  0  0
  1  4  1  0  0  0  0
  2  4  1  0  0  0  0
  2  5  2  0  0  0  0
  2  6  1  0  0  0  0
  3  4  1  0  0  0  0
  3  7  1  0  0  0  0
  3  8  1  0  0  0  0
  4 29  1  0  0  0  0
  6  9  1  0  0  0  0
  6 12  1  0  0  0  0
  8 10  1  0  0  0  0
  8 11  2  0  0  0  0
  9 13  1  0  0  0  0
  9 14  1  0  0  0  0
  9 15  1  0  0  0  0
 10 16  1  0  0  0  0
 10 17  1  0  0  0  0
 10 18  1  0  0  0  0
 19 20  1  0  0  0  0
 20 21  1  0  0  0  0
 20 22  1  0  0  0  0
 20 23  1  0  0  0  0
 23 24  4  0  0  0  0
 23 28  4  0  0  0  0
 24 25  4  0  0  0  0
 24 30  1  0  0  0  0
 25 26  4  0  0  0  0
 25 29  1  0  0  0  0
 26 27  4  0  0  0  0
 26 31  1  0  0  0  0
 27 28  4  0  0  0  0
 27 32  1  0  0  0  0
 28 33  1  0  0  0  0
 29 34  1  0  0  0  0
 29 35  1  0  0  0  0
M  END
> <BCLConfClusterSize>
1

> <ConfClashScore>
0 

> <ConfOneFourInteractionScore>
-0.957723 

> <ConfScore>
0.41759 

> <ConfScorePBest>
0.00225161 

> <ConfTolerance>
0.904803 

> <RosettaParamsInstructions>
M  ROOT 3
M  POLY_N_BB 3
M  POLY_CA_BB 4
M  POLY_C_BB 2
M  POLY_O_BB 5
M  POLY_IGNORE 9 10 11 12 13 14 15 16 17 18 
M  POLY_UPPER 6
M  POLY_LOWER 8
M  POLY_CHG 0
M  POLY_PROPERTIES ALPHA_AA L_AA PROTEIN AROMATIC POLYMER 
M  END

$$$$



 35 35  0  0  0  0  0  0  0  0999 V2000
   -0.9221    2.6290   -0.3669 H   0  0  0  1  0  0  0  0  0  0  0  0
    0.8402    2.6093    0.7952 C   0  0  0  1  0  0  0  0  0  0  0  0
   -0.6894    0.7442    0.4505 N   0  0  0  1  0  0  0  0  0  0  0  0
   -0.5979    2.1928    0.5548 C   0  0  0  1  0  0  0  0  0  0  0  0
    1.4932    2.1315    1.7219 O   0  0  0  1  0  0  0  0  0  0  0  0
    1.3749    3.4491   -0.1043 N   0  0  0  1  0  0  0  0  0  0  0  0
   -0.4847    0.1994    1.2389 H   0  0  0  1  0  0  0  0  0  0  0  0
   -1.0427    0.1312   -0.6828 C   0  0  0  1  0  0  0  0  0  0  0  0
    2.7696    3.8611   -0.0501 C   0  0  0  1  0  0  0  0  0  0  0  0
   -1.2209   -1.3718   -0.5908 C   0  0  0  1  0  0  0  0  0  0  0  0
   -1.2169    0.7310   -1.7428 O   0  0  0  1  0  0  0  0  0  0  0  0
    0.8065    3.7971   -0.8228 H   0  0  0  1  0  0  0  0  0  0  0  0
    2.8610    4.7326    0.5639 H   0  0  0  1  0  0  0  0  0  0  0  0
    3.1141    4.0837   -1.0384 H   0  0  0  1  0  0  0  0  0  0  0  0
    3.3591    3.0700    0.3639 H   0  0  0  1  0  0  0  0  0  0  0  0
   -2.2102   -1.5939   -0.2490 H   0  0  0  1  0  0  0  0  0  0  0  0
   -0.5073   -1.7739    0.0976 H   0  0  0  1  0  0  0  0  0  0  0  0
   -1.0710   -1.8083   -1.5562 H   0  0  0  1  0  0  0  0  0  0  0  0
   -2.4507    8.6973    1.4729 F   0  0  0  1  0  0  0  0  0  0  0  0
   -1.6113    7.7217    1.1212 C   0  0  0  1  0  0  0  0  0  0  0  0
   -1.0622    8.1009   -0.0338 F   0  0  0  1  0  0  0  0  0  0  0  0
   -0.6288    7.7314    2.0230 F   0  0  0  1  0  0  0  0  0  0  0  0
   -2.2941    6.3780    1.0238 C   0  0  0  1  0  0  0  0  0  0  0  0
   -1.6304    5.2081    1.3774 C   0  0  0  1  0  0  0  0  0  0  0  0
   -2.2534    3.9724    1.2848 C   0  0  0  1  0  0  0  0  0  0  0  0
   -3.5530    3.8869    0.8409 C   0  0  0  1  0  0  0  0  0  0  0  0
   -4.2401    5.0400    0.4917 C   0  0  0  1  0  0  0  0  0  0  0  0
   -3.6091    6.2703    0.5770 C   0  0  0  1  0  0  0  0  0  0  0  0
   -1.5045    2.7191    1.6718 C   0  0  0  1  0  0  0  0  0  0  0  0
   -0.6489    5.2608    1.7174 H   0  0  0  1  0  0  0  0  0  0  0  0
   -4.0189    2.9600    0.7675 H   0  0  0  1  0  0  0  0  0  0  0  0
   -5.2263    4.9812    0.1667 H   0  0  0  1  0  0  0  0  0  0  0  0
   -4.1267    7.1295    0.3023 H   0  0  0  1  0  0  0  0  0  0  0  0
   -0.9000    2.9342    2.5281 H   0  0  0  1  0  0  0  0  0  0  0  0
   -2.2164    1.9595    1.9189 H   0  0  0  1  0  0  0  0  0  0  0  0
  1  4  1  0  0  0  0
  2  4  1  0  0  0  0
  2  5  2  0  0  0  0
  2  6  1  0  0  0  0
  3  4  1  0  0  0  0
  3  7  1  0  0  0  0
  3  8  1  0  0  0  0
  4 29  1  0  0  0  0
  6  9  1  0  0  0  0
  6 12  1  0  0  0  0
  8 10  1  0  0  0  0
  8 11  2  0  0  0  0
  9 13  1  0  0  0  0
  9 14  1  0  0  0  0
  9 15  1  0  0  0  0
 10 16  1  0  0  0  0
 10 17  1  0  0  0  0
 10 18  1  0  0  0  0
 19 20  1  0  0  0  0
 20 21  1  0  0  0  0
 20 22  1  0  0  0  0
 20 23  1  0  0  0  0
 23 24  4  0  0  0  0
 23 28  4  0  0  0  0
 24 25  4  0  0  0  0
 24 30  1  0  0  0  0
 25 26  4  0  0  0  0
 25 29  1  0  0  0  0
 26 27  4  0  0  0  0
 26 31  1  0  0  0  0
 27 28  4  0  0  0  0
 27 32  1  0  0  0  0
 28 33  1  0  0  0  0
 29 34  1  0  0  0  0
 29 35  1  0  0  0  0
M  END
> <BCLConfClusterSize>
1

> <ConfClashScore>
0 

> <ConfOneFourInteractionScore>
-0.970447 

> <ConfScore>
0.428128 

> <ConfScorePBest>
0.00222313 

> <ConfTolerance>
1.56431 

> <RosettaParamsInstructions>
M  ROOT 3
M  POLY_N_BB 3
M  POLY_CA_BB 4
M  POLY_C_BB 2
M  POLY_O_BB 5
M  POLY_IGNORE 9 10 11 12 13 14 15 16 17 18 
M  POLY_UPPER 6
M  POLY_LOWER 8
M  POLY_CHG 0
M  POLY_PROPERTIES ALPHA_AA L_AA PROTEIN AROMATIC POLYMER 
M  END

$$$$



 35 35  0  0  0  0  0  0  0  0999 V2000
   -2.0480    2.1205    2.9931 H   0  0  0  1  0  0  0  0  0  0  0  0
   -0.3052    0.9965    2.5262 C   0  0  0  1  0  0  0  0  0  0  0  0
   -0.3894    3.3512    3.2083 N   0  0  0  1  0  0  0  0  0  0  0  0
   -1.1074    2.2932    2.5133 C   0  0  0  1  0  0  0  0  0  0  0  0
   -0.5742    0.0374    3.2245 O   0  0  0  1  0  0  0  0  0  0  0  0
    0.7488    0.9536    1.7062 N   0  0  0  1  0  0  0  0  0  0  0  0
   -0.7271    3.6271    4.0859 H   0  0  0  1  0  0  0  0  0  0  0  0
    0.7062    3.9807    2.7354 C   0  0  0  1  0  0  0  0  0  0  0  0
    1.6080   -0.2167    1.6052 C   0  0  0  1  0  0  0  0  0  0  0  0
    1.2988    5.1017    3.5669 C   0  0  0  1  0  0  0  0  0  0  0  0
    1.2115    3.6568    1.6615 O   0  0  0  1  0  0  0  0  0  0  0  0
    0.9503    1.7374    1.1536 H   0  0  0  1  0  0  0  0  0  0  0  0
    2.6176    0.0614    1.8250 H   0  0  0  1  0  0  0  0  0  0  0  0
    1.5554   -0.6128    0.6126 H   0  0  0  1  0  0  0  0  0  0  0  0
    1.2826   -0.9590    2.3037 H   0  0  0  1  0  0  0  0  0  0  0  0
    0.6107    5.9203    3.6050 H   0  0  0  1  0  0  0  0  0  0  0  0
    2.2163    5.4278    3.1234 H   0  0  0  1  0  0  0  0  0  0  0  0
    1.4874    4.7482    4.5590 H   0  0  0  1  0  0  0  0  0  0  0  0
   -0.2952    7.5971    1.2398 F   0  0  0  1  0  0  0  0  0  0  0  0
   -1.6190    7.7043    1.1139 C   0  0  0  1  0  0  0  0  0  0  0  0
   -2.0360    8.4206    2.1591 F   0  0  0  1  0  0  0  0  0  0  0  0
   -1.8316    8.4590    0.0351 F   0  0  0  1  0  0  0  0  0  0  0  0
   -2.3024    6.3604    1.0237 C   0  0  0  1  0  0  0  0  0  0  0  0
   -1.5538    5.1997    1.0743 C   0  0  0  1  0  0  0  0  0  0  0  0
   -2.1815    3.9663    0.9969 C   0  0  0  1  0  0  0  0  0  0  0  0
   -3.5555    3.8971    0.8638 C   0  0  0  1  0  0  0  0  0  0  0  0
   -4.3063    5.0613    0.8130 C   0  0  0  1  0  0  0  0  0  0  0  0
   -3.6805    6.2912    0.8902 C   0  0  0  1  0  0  0  0  0  0  0  0
   -1.3674    2.7031    1.0578 C   0  0  0  1  0  0  0  0  0  0  0  0
   -0.5195    5.2518    1.1704 H   0  0  0  1  0  0  0  0  0  0  0  0
   -4.0260    2.9717    0.8017 H   0  0  0  1  0  0  0  0  0  0  0  0
   -5.3405    5.0093    0.7169 H   0  0  0  1  0  0  0  0  0  0  0  0
   -4.2434    7.1647    0.8481 H   0  0  0  1  0  0  0  0  0  0  0  0
   -1.8998    1.9184    0.5620 H   0  0  0  1  0  0  0  0  0  0  0  0
   -0.4309    2.8653    0.5663 H   0  0  0  1  0  0  0  0  0  0  0  0
  1  4  1  0  0  0  0
  2  4  1  0  0  0  0
  2  5  2  0  0  0  0
  2  6  1  0  0  0  0
  3  4  1  0  0  0  0
  3  7  1  0  0  0  0
  3  8  1  0  0  0  0
  4 29  1  0  0  0  0
  6  9  1  0  0  0  0
  6 12  1  0  0  0  0
  8 10  1  0  0  0  0
  8 11  2  0  0  0  0
  9 13  1  0  0  0  0
  9 14  1  0  0  0  0
  9 15  1  0  0  0  0
 10 16  1  0  0  0  0
 10 17  1  0  0  0  0
 10 18  1  0  0  0  0
 19 20  1  0  0  0  0
 20 21  1  0  0  0  0
 20 22  1  0  0  0  0
 20 23  1  0  0  0  0
 23 24  4  0  0  0  0
 23 28  4  0  0  0  0
 24 25  4  0  0  0  0
 24 30  1  0  0  0  0
 25 26  4  0  0  0  0
 25 29  1  0  0  0  0
 26 27  4  0  0  0  0
 26 31  1  0  0  0  0
 27 28  4  0  0  0  0
 27 32  1  0  0  0  0
 28 33  1  0  0  0  0
 29 34  1  0  0  0  0
 29 35  1  0  0  0  0
M  END
> <BCLConfClusterSize>
1

> <ConfClashScore>
0 

> <ConfOneFourInteractionScore>
-0.927228 

> <ConfScore>
0.472974 

> <ConfScorePBest>
0.00219465 

> <ConfTolerance>
1.74938 

> <RosettaParamsInstructions>
M  ROOT 3
M  POLY_N_BB 3
M  POLY_CA_BB 4
M  POLY_C_BB 2
M  POLY_O_BB 5
M  POLY_IGNORE 9 10 11 12 13 14 15 16 17 18 
M  POLY_UPPER 6
M  POLY_LOWER 8
M  POLY_CHG 0
M  POLY_PROPERTIES ALPHA_AA L_AA PROTEIN AROMATIC POLYMER 
M  END

$$$$



 35 35  0  0  0  0  0  0  0  0999 V2000
   -1.6911    1.9976   -1.0734 H   0  0  0  1  0  0  0  0  0  0  0  0
   -0.3141    3.5768   -1.2301 C   0  0  0  1  0  0  0  0  0  0  0  0
    0.1282    1.2762   -0.4386 N   0  0  0  1  0  0  0  0  0  0  0  0
   -0.8495    2.3514   -0.5152 C   0  0  0  1  0  0  0  0  0  0  0  0
    0.8908    3.7358   -1.4071 O   0  0  0  1  0  0  0  0  0  0  0  0
   -1.2324    4.4541   -1.6452 N   0  0  0  1  0  0  0  0  0  0  0  0
   -0.1186    0.3880   -0.7710 H   0  0  0  1  0  0  0  0  0  0  0  0
    1.3486    1.4576    0.0684 C   0  0  0  1  0  0  0  0  0  0  0  0
   -0.9389    5.7612   -2.2136 C   0  0  0  1  0  0  0  0  0  0  0  0
    2.1737    0.1940    0.2754 C   0  0  0  1  0  0  0  0  0  0  0  0
    1.7954    2.5649    0.3560 O   0  0  0  1  0  0  0  0  0  0  0  0
   -2.1745    4.1980   -1.5605 H   0  0  0  1  0  0  0  0  0  0  0  0
    0.1179    5.9283   -2.1982 H   0  0  0  1  0  0  0  0  0  0  0  0
   -1.4278    6.5185   -1.6371 H   0  0  0  1  0  0  0  0  0  0  0  0
   -1.2909    5.7979   -3.2234 H   0  0  0  1  0  0  0  0  0  0  0  0
    3.1152    0.4502    0.7145 H   0  0  0  1  0  0  0  0  0  0  0  0
    2.3385   -0.2826   -0.6683 H   0  0  0  1  0  0  0  0  0  0  0  0
    1.6470   -0.4731    0.9253 H   0  0  0  1  0  0  0  0  0  0  0  0
   -0.4849    7.7450    0.4095 F   0  0  0  1  0  0  0  0  0  0  0  0
   -1.6200    7.7055    1.1095 C   0  0  0  1  0  0  0  0  0  0  0  0
   -1.2983    8.0390    2.3603 F   0  0  0  1  0  0  0  0  0  0  0  0
   -2.3812    8.6960    0.6426 F   0  0  0  1  0  0  0  0  0  0  0  0
   -2.3043    6.3615    1.0266 C   0  0  0  1  0  0  0  0  0  0  0  0
   -1.5490    5.1994    1.0017 C   0  0  0  1  0  0  0  0  0  0  0  0
   -2.1750    3.9698    0.9206 C   0  0  0  1  0  0  0  0  0  0  0  0
   -3.5584    3.8985    0.8694 C   0  0  0  1  0  0  0  0  0  0  0  0
   -4.3116    5.0571    0.8943 C   0  0  0  1  0  0  0  0  0  0  0  0
   -3.6836    6.2902    0.9757 C   0  0  0  1  0  0  0  0  0  0  0  0
   -1.3517    2.7039    0.8875 C   0  0  0  1  0  0  0  0  0  0  0  0
   -0.5113    5.2528    1.0441 H   0  0  0  1  0  0  0  0  0  0  0  0
   -4.0296    2.9732    0.8124 H   0  0  0  1  0  0  0  0  0  0  0  0
   -5.3494    5.0038    0.8519 H   0  0  0  1  0  0  0  0  0  0  0  0
   -4.2504    7.1619    0.9984 H   0  0  0  1  0  0  0  0  0  0  0  0
   -0.5056    2.8310    1.5302 H   0  0  0  1  0  0  0  0  0  0  0  0
   -1.9546    1.8960    1.2464 H   0  0  0  1  0  0  0  0  0  0  0  0
  1  4  1  0  0  0  0
  2  4  1  0  0  0  0
  2  5  2  0  0  0  0
  2  6  1  0  0  0  0
  3  4  1  0  0  0  0
  3  7  1  0  0  0  0
  3  8  1  0  0  0  0
  4 29  1  0  0  0  0
  6  9  1  0  0  0  0
  6 12  1  0  0  0  0
  8 10  1  0  0  0  0
  8 11  2  0  0  0  0
  9 13  1  0  0  0  0
  9 14  1  0  0  0  0
  9 15  1  0  0  0  0
 10 16  1  0  0  0  0
 10 17  1  0  0  0  0
 10 18  1  0  0  0  0
 19 20  1  0  0  0  0
 20 21  1  0  0  0  0
 20 22  1  0  0  0  0
 20 23  1  0  0  0  0
 23 24  4  0  0  0  0
 23 28  4  0  0  0  0
 24 25  4  0  0  0  0
 24 30  1  0  0  0  0
 25 26  4  0  0  0  0
 25 29  1  0  0  0  0
 26 27  4  0  0  0  0
 26 31  1  0  0  0  0
 27 28  4  0  0  0  0
 27 32  1  0  0  0  0
 28 33  1  0  0  0  0
 29 34  1  0  0  0  0
 29 35  1  0  0  0  0
M  END
> <BCLConfClusterSize>
1

> <ConfClashScore>
0 

> <ConfOneFourInteractionScore>
-0.957011 

> <ConfScore>
0.51886 

> <ConfScorePBest>
0.00216617 

> <ConfTolerance>
2.80398 

> <RosettaParamsInstructions>
M  ROOT 3
M  POLY_N_BB 3
M  POLY_CA_BB 4
M  POLY_C_BB 2
M  POLY_O_BB 5
M  POLY_IGNORE 9 10 11 12 13 14 15 16 17 18 
M  POLY_UPPER 6
M  POLY_LOWER 8
M  POLY_CHG 0
M  POLY_PROPERTIES ALPHA_AA L_AA PROTEIN AROMATIC POLYMER 
M  END

$$$$
