


 36 36  0  0  0  0  0  0  0  0999 V2000
   -3.0537    1.4284    1.8135 H   0  0  0  1  0  0  0  0  0  0  0  0
   -1.2638    0.6045    2.6163 C   0  0  0  1  0  0  0  0  0  0  0  0
   -2.5010    2.4596    3.5388 N   0  0  0  1  0  0  0  0  0  0  0  0
   -2.1660    1.7804    2.2961 C   0  0  0  1  0  0  0  0  0  0  0  0
   -1.3173   -0.4289    1.9700 O   0  0  0  1  0  0  0  0  0  0  0  0
   -0.4182    0.7811    3.6438 N   0  0  0  1  0  0  0  0  0  0  0  0
   -2.1784    3.3777    3.6545 H   0  0  0  1  0  0  0  0  0  0  0  0
   -3.2422    1.9056    4.5713 C   0  0  0  1  0  0  0  0  0  0  0  0
    0.5689   -0.1921    4.0871 C   0  0  0  1  0  0  0  0  0  0  0  0
   -3.5003    2.7276    5.8138 C   0  0  0  1  0  0  0  0  0  0  0  0
   -3.6625    0.7703    4.4422 O   0  0  0  1  0  0  0  0  0  0  0  0
   -0.4694    1.6292    4.1322 H   0  0  0  1  0  0  0  0  0  0  0  0
    0.7893   -0.8672    3.2868 H   0  0  0  1  0  0  0  0  0  0  0  0
    0.1798   -0.7407    4.9193 H   0  0  0  1  0  0  0  0  0  0  0  0
    1.4634    0.3162    4.3812 H   0  0  0  1  0  0  0  0  0  0  0  0
   -2.7912    3.5272    5.8667 H   0  0  0  1  0  0  0  0  0  0  0  0
   -3.4017    2.1060    6.6792 H   0  0  0  1  0  0  0  0  0  0  0  0
   -4.4904    3.1312    5.7749 H   0  0  0  1  0  0  0  0  0  0  0  0
   -4.1178    7.8164    0.4333 B   0  0  0  1  0  0  0  0  0  0  0  0
   -5.0016    8.0310   -0.5754 O   0  0  0  1  0  0  0  0  0  0  0  0
   -3.8271    8.8754    1.2355 O   0  0  0  1  0  0  0  0  0  0  0  0
   -3.4282    6.4185    0.7076 C   0  0  0  1  0  0  0  0  0  0  0  0
   -2.5327    6.2874    1.7522 C   0  0  0  1  0  0  0  0  0  0  0  0
   -1.8604    5.0902    1.9427 C   0  0  0  1  0  0  0  0  0  0  0  0
   -2.0818    4.0294    1.0848 C   0  0  0  1  0  0  0  0  0  0  0  0
   -2.9799    4.1608    0.0372 C   0  0  0  1  0  0  0  0  0  0  0  0
   -3.6501    5.3545   -0.1526 C   0  0  0  1  0  0  0  0  0  0  0  0
   -1.4162    2.7077    1.3537 C   0  0  0  1  0  0  0  0  0  0  0  0
   -4.5316    8.3413   -1.3528 H   0  0  0  1  0  0  0  0  0  0  0  0
   -4.4093    8.8684    1.9988 H   0  0  0  1  0  0  0  0  0  0  0  0
   -2.3632    7.0870    2.3952 H   0  0  0  1  0  0  0  0  0  0  0  0
   -1.1895    4.9902    2.7311 H   0  0  0  1  0  0  0  0  0  0  0  0
   -3.1494    3.3612   -0.6059 H   0  0  0  1  0  0  0  0  0  0  0  0
   -4.3210    5.4544   -0.9410 H   0  0  0  1  0  0  0  0  0  0  0  0
   -1.2970    2.2019    0.4184 H   0  0  0  1  0  0  0  0  0  0  0  0
   -0.4541    2.9032    1.7791 H   0  0  0  1  0  0  0  0  0  0  0  0
  1  4  1  0  0  0  0
  2  4  1  0  0  0  0
  2  5  2  0  0  0  0
  2  6  1  0  0  0  0
  3  4  1  0  0  0  0
  3  7  1  0  0  0  0
  3  8  1  0  0  0  0
  4 28  1  0  0  0  0
  6  9  1  0  0  0  0
  6 12  1  0  0  0  0
  8 10  1  0  0  0  0
  8 11  2  0  0  0  0
  9 13  1  0  0  0  0
  9 14  1  0  0  0  0
  9 15  1  0  0  0  0
 10 16  1  0  0  0  0
 10 17  1  0  0  0  0
 10 18  1  0  0  0  0
 19 20  1  0  0  0  0
 19 21  1  0  0  0  0
 19 22  1  0  0  0  0
 20 29  1  0  0  0  0
 21 30  1  0  0  0  0
 22 23  4  0  0  0  0
 22 27  4  0  0  0  0
 23 24  4  0  0  0  0
 23 31  1  0  0  0  0
 24 25  4  0  0  0  0
 24 32  1  0  0  0  0
 25 26  4  0  0  0  0
 25 28  1  0  0  0  0
 26 27  4  0  0  0  0
 26 33  1  0  0  0  0
 27 34  1  0  0  0  0
 28 35  1  0  0  0  0
 28 36  1  0  0  0  0
M  END
> <BCLConfClusterSize>
1

> <ConfClashScore>
0 

> <ConfOneFourInteractionScore>
-0.954617 

> <ConfScore>
-0.293643 

> <ConfScorePBest>
0.00783383 

> <ConfTolerance>
0.241769 

> <RosettaParamsInstructions>
M  ROOT 3
M  POLY_N_BB 3
M  POLY_CA_BB 4
M  POLY_C_BB 2
M  POLY_O_BB 5
M  POLY_IGNORE 9 10 11 12 13 14 15 16 17 18 
M  POLY_UPPER 6
M  POLY_LOWER 8
M  POLY_CHG 0
M  POLY_PROPERTIES ALPHA_AA L_AA PROTEIN AROMATIC POLYMER 
M  END

$$$$



 36 36  0  0  0  0  0  0  0  0999 V2000
    0.5485    3.3626    0.9589 H   0  0  0  1  0  0  0  0  0  0  0  0
    0.5902    1.2556    1.1165 C   0  0  0  1  0  0  0  0  0  0  0  0
   -0.2066    2.6077   -0.8033 N   0  0  0  1  0  0  0  0  0  0  0  0
   -0.0730    2.5503    0.6447 C   0  0  0  1  0  0  0  0  0  0  0  0
    1.3723    1.2482    2.0661 O   0  0  0  1  0  0  0  0  0  0  0  0
    0.2622    0.1490    0.4309 N   0  0  0  1  0  0  0  0  0  0  0  0
   -1.0942    2.6962   -1.2093 H   0  0  0  1  0  0  0  0  0  0  0  0
    0.9192    2.5374   -1.6096 C   0  0  0  1  0  0  0  0  0  0  0  0
    0.8527   -1.1637    0.6373 C   0  0  0  1  0  0  0  0  0  0  0  0
    0.7737    2.7631   -3.0884 C   0  0  0  1  0  0  0  0  0  0  0  0
    1.9931    2.2940   -1.0902 O   0  0  0  1  0  0  0  0  0  0  0  0
   -0.4271    0.2321   -0.2607 H   0  0  0  1  0  0  0  0  0  0  0  0
    1.1435   -1.2675    1.6618 H   0  0  0  1  0  0  0  0  0  0  0  0
    1.7131   -1.2701    0.0101 H   0  0  0  1  0  0  0  0  0  0  0  0
    0.1361   -1.9195    0.3919 H   0  0  0  1  0  0  0  0  0  0  0  0
   -0.0235    3.4540   -3.2675 H   0  0  0  1  0  0  0  0  0  0  0  0
    0.5550    1.8335   -3.5710 H   0  0  0  1  0  0  0  0  0  0  0  0
    1.6861    3.1626   -3.4794 H   0  0  0  1  0  0  0  0  0  0  0  0
   -4.1182    7.8171    0.4332 B   0  0  0  1  0  0  0  0  0  0  0  0
   -4.0309    8.7740    1.3931 O   0  0  0  1  0  0  0  0  0  0  0  0
   -4.6145    8.1421   -0.7827 O   0  0  0  1  0  0  0  0  0  0  0  0
   -3.4287    6.4193    0.7075 C   0  0  0  1  0  0  0  0  0  0  0  0
   -2.5331    6.2881    1.7520 C   0  0  0  1  0  0  0  0  0  0  0  0
   -1.8608    5.0909    1.9426 C   0  0  0  1  0  0  0  0  0  0  0  0
   -2.0821    4.0301    1.0846 C   0  0  0  1  0  0  0  0  0  0  0  0
   -2.9803    4.1615    0.0370 C   0  0  0  1  0  0  0  0  0  0  0  0
   -3.6505    5.3552   -0.1528 C   0  0  0  1  0  0  0  0  0  0  0  0
   -1.4119    2.6994    1.3553 C   0  0  0  1  0  0  0  0  0  0  0  0
   -4.4487    8.4594    2.1981 H   0  0  0  1  0  0  0  0  0  0  0  0
   -3.9227    8.5419   -1.3148 H   0  0  0  1  0  0  0  0  0  0  0  0
   -2.3636    7.0877    2.3951 H   0  0  0  1  0  0  0  0  0  0  0  0
   -1.1899    4.9909    2.7309 H   0  0  0  1  0  0  0  0  0  0  0  0
   -3.1498    3.3620   -0.6061 H   0  0  0  1  0  0  0  0  0  0  0  0
   -4.3214    5.4552   -0.9411 H   0  0  0  1  0  0  0  0  0  0  0  0
   -1.2504    2.6075    2.4090 H   0  0  0  1  0  0  0  0  0  0  0  0
   -2.0623    1.9169    1.0241 H   0  0  0  1  0  0  0  0  0  0  0  0
  1  4  1  0  0  0  0
  2  4  1  0  0  0  0
  2  5  2  0  0  0  0
  2  6  1  0  0  0  0
  3  4  1  0  0  0  0
  3  7  1  0  0  0  0
  3  8  1  0  0  0  0
  4 28  1  0  0  0  0
  6  9  1  0  0  0  0
  6 12  1  0  0  0  0
  8 10  1  0  0  0  0
  8 11  2  0  0  0  0
  9 13  1  0  0  0  0
  9 14  1  0  0  0  0
  9 15  1  0  0  0  0
 10 16  1  0  0  0  0
 10 17  1  0  0  0  0
 10 18  1  0  0  0  0
 19 20  1  0  0  0  0
 19 21  1  0  0  0  0
 19 22  1  0  0  0  0
 20 29  1  0  0  0  0
 21 30  1  0  0  0  0
 22 23  4  0  0  0  0
 22 27  4  0  0  0  0
 23 24  4  0  0  0  0
 23 31  1  0  0  0  0
 24 25  4  0  0  0  0
 24 32  1  0  0  0  0
 25 26  4  0  0  0  0
 25 28  1  0  0  0  0
 26 27  4  0  0  0  0
 26 33  1  0  0  0  0
 27 34  1  0  0  0  0
 28 35  1  0  0  0  0
 28 36  1  0  0  0  0
M  END
> <BCLConfClusterSize>
1

> <ConfClashScore>
0 

> <ConfOneFourInteractionScore>
-0.969136 

> <ConfScore>
-0.260372 

> <ConfScorePBest>
0.00780535 

> <ConfTolerance>
0.207343 

> <RosettaParamsInstructions>
M  ROOT 3
M  POLY_N_BB 3
M  POLY_CA_BB 4
M  POLY_C_BB 2
M  POLY_O_BB 5
M  POLY_IGNORE 9 10 11 12 13 14 15 16 17 18 
M  POLY_UPPER 6
M  POLY_LOWER 8
M  POLY_CHG 0
M  POLY_PROPERTIES ALPHA_AA L_AA PROTEIN AROMATIC POLYMER 
M  END

$$$$



 36 36  0  0  0  0  0  0  0  0999 V2000
   -3.1421    1.5480    0.7815 H   0  0  0  1  0  0  0  0  0  0  0  0
   -1.8375    0.2556    1.8374 C   0  0  0  1  0  0  0  0  0  0  0  0
   -3.2734    1.9847    2.7987 N   0  0  0  1  0  0  0  0  0  0  0  0
   -2.4909    1.6183    1.6276 C   0  0  0  1  0  0  0  0  0  0  0  0
   -1.7208   -0.5444    0.9129 O   0  0  0  1  0  0  0  0  0  0  0  0
   -1.4079    0.0004    3.0834 N   0  0  0  1  0  0  0  0  0  0  0  0
   -3.1488    2.8738    3.1915 H   0  0  0  1  0  0  0  0  0  0  0  0
   -4.1643    1.1428    3.3624 C   0  0  0  1  0  0  0  0  0  0  0  0
   -0.7228   -1.2154    3.4959 C   0  0  0  1  0  0  0  0  0  0  0  0
   -4.8555    1.5855    4.6373 C   0  0  0  1  0  0  0  0  0  0  0  0
   -4.4106    0.0477    2.8587 O   0  0  0  1  0  0  0  0  0  0  0  0
   -1.5678    0.6845    3.7668 H   0  0  0  1  0  0  0  0  0  0  0  0
   -0.9431   -2.0017    2.8043 H   0  0  0  1  0  0  0  0  0  0  0  0
   -1.0543   -1.4973    4.4734 H   0  0  0  1  0  0  0  0  0  0  0  0
    0.3328   -1.0413    3.5131 H   0  0  0  1  0  0  0  0  0  0  0  0
   -4.2838    2.3611    5.1027 H   0  0  0  1  0  0  0  0  0  0  0  0
   -4.9378    0.7537    5.3054 H   0  0  0  1  0  0  0  0  0  0  0  0
   -5.8324    1.9541    4.4037 H   0  0  0  1  0  0  0  0  0  0  0  0
   -4.1207    7.8155    0.4298 B   0  0  0  1  0  0  0  0  0  0  0  0
   -3.7647    8.9645    1.0606 O   0  0  0  1  0  0  0  0  0  0  0  0
   -5.1207    7.8448   -0.4913 O   0  0  0  1  0  0  0  0  0  0  0  0
   -3.4286    6.4195    0.7079 C   0  0  0  1  0  0  0  0  0  0  0  0
   -2.5336    6.2924    1.7534 C   0  0  0  1  0  0  0  0  0  0  0  0
   -1.8591    5.0969    1.9471 C   0  0  0  1  0  0  0  0  0  0  0  0
   -2.0778    4.0337    1.0914 C   0  0  0  1  0  0  0  0  0  0  0  0
   -2.9754    4.1611    0.0428 C   0  0  0  1  0  0  0  0  0  0  0  0
   -3.6477    5.3531   -0.1502 C   0  0  0  1  0  0  0  0  0  0  0  0
   -1.4314    2.6820    1.3232 C   0  0  0  1  0  0  0  0  0  0  0  0
   -4.5465    9.3849    1.4260 H   0  0  0  1  0  0  0  0  0  0  0  0
   -4.8385    8.3540   -1.2547 H   0  0  0  1  0  0  0  0  0  0  0  0
   -2.3661    7.0937    2.3948 H   0  0  0  1  0  0  0  0  0  0  0  0
   -1.1887    4.9999    2.7362 H   0  0  0  1  0  0  0  0  0  0  0  0
   -3.1429    3.3598   -0.5986 H   0  0  0  1  0  0  0  0  0  0  0  0
   -4.3182    5.4500   -0.9393 H   0  0  0  1  0  0  0  0  0  0  0  0
   -0.8902    2.3968    0.4453 H   0  0  0  1  0  0  0  0  0  0  0  0
   -0.7573    2.7528    2.1511 H   0  0  0  1  0  0  0  0  0  0  0  0
  1  4  1  0  0  0  0
  2  4  1  0  0  0  0
  2  5  2  0  0  0  0
  2  6  1  0  0  0  0
  3  4  1  0  0  0  0
  3  7  1  0  0  0  0
  3  8  1  0  0  0  0
  4 28  1  0  0  0  0
  6  9  1  0  0  0  0
  6 12  1  0  0  0  0
  8 10  1  0  0  0  0
  8 11  2  0  0  0  0
  9 13  1  0  0  0  0
  9 14  1  0  0  0  0
  9 15  1  0  0  0  0
 10 16  1  0  0  0  0
 10 17  1  0  0  0  0
 10 18  1  0  0  0  0
 19 20  1  0  0  0  0
 19 21  1  0  0  0  0
 19 22  1  0  0  0  0
 20 29  1  0  0  0  0
 21 30  1  0  0  0  0
 22 23  4  0  0  0  0
 22 27  4  0  0  0  0
 23 24  4  0  0  0  0
 23 31  1  0  0  0  0
 24 25  4  0  0  0  0
 24 32  1  0  0  0  0
 25 26  4  0  0  0  0
 25 28  1  0  0  0  0
 26 27  4  0  0  0  0
 26 33  1  0  0  0  0
 27 34  1  0  0  0  0
 28 35  1  0  0  0  0
 28 36  1  0  0  0  0
M  END
> <BCLConfClusterSize>
1

> <ConfClashScore>
0 

> <ConfOneFourInteractionScore>
-0.969136 

> <ConfScore>
-0.254185 

> <ConfScorePBest>
0.00777687 

> <ConfTolerance>
0.219417 

> <RosettaParamsInstructions>
M  ROOT 3
M  POLY_N_BB 3
M  POLY_CA_BB 4
M  POLY_C_BB 2
M  POLY_O_BB 5
M  POLY_IGNORE 9 10 11 12 13 14 15 16 17 18 
M  POLY_UPPER 6
M  POLY_LOWER 8
M  POLY_CHG 0
M  POLY_PROPERTIES ALPHA_AA L_AA PROTEIN AROMATIC POLYMER 
M  END

$$$$



 36 36  0  0  0  0  0  0  0  0999 V2000
    0.4215    3.3955    0.5884 H   0  0  0  1  0  0  0  0  0  0  0  0
    0.6454    1.3291    0.9131 C   0  0  0  1  0  0  0  0  0  0  0  0
   -0.5877    2.4367   -0.9264 N   0  0  0  1  0  0  0  0  0  0  0  0
   -0.1856    2.5224    0.4696 C   0  0  0  1  0  0  0  0  0  0  0  0
    1.5162    1.4483    1.7711 O   0  0  0  1  0  0  0  0  0  0  0  0
    0.4082    0.1968    0.2491 N   0  0  0  1  0  0  0  0  0  0  0  0
   -1.5377    2.3240   -1.1389 H   0  0  0  1  0  0  0  0  0  0  0  0
    0.2933    2.5064   -1.9284 C   0  0  0  1  0  0  0  0  0  0  0  0
    1.0934   -1.0655    0.4832 C   0  0  0  1  0  0  0  0  0  0  0  0
   -0.2874    2.3965   -3.3248 C   0  0  0  1  0  0  0  0  0  0  0  0
    1.5019    2.6502   -1.7490 O   0  0  0  1  0  0  0  0  0  0  0  0
   -0.2793    0.2165   -0.4490 H   0  0  0  1  0  0  0  0  0  0  0  0
    2.1273   -0.9636    0.2269 H   0  0  0  1  0  0  0  0  0  0  0  0
    0.6500   -1.8292   -0.1211 H   0  0  0  1  0  0  0  0  0  0  0  0
    1.0068   -1.3320    1.5159 H   0  0  0  1  0  0  0  0  0  0  0  0
    0.3941    1.8631   -3.9541 H   0  0  0  1  0  0  0  0  0  0  0  0
   -0.4469    3.3769   -3.7227 H   0  0  0  1  0  0  0  0  0  0  0  0
   -1.2190    1.8719   -3.2832 H   0  0  0  1  0  0  0  0  0  0  0  0
   -4.1182    7.8171    0.4332 B   0  0  0  1  0  0  0  0  0  0  0  0
   -5.0646    7.8703   -0.4846 O   0  0  0  1  0  0  0  0  0  0  0  0
   -3.7811    8.8461    1.1675 O   0  0  0  1  0  0  0  0  0  0  0  0
   -3.4287    6.4193    0.7075 C   0  0  0  1  0  0  0  0  0  0  0  0
   -2.5331    6.2881    1.7520 C   0  0  0  1  0  0  0  0  0  0  0  0
   -1.8608    5.0909    1.9426 C   0  0  0  1  0  0  0  0  0  0  0  0
   -2.0821    4.0301    1.0846 C   0  0  0  1  0  0  0  0  0  0  0  0
   -2.9803    4.1615    0.0370 C   0  0  0  1  0  0  0  0  0  0  0  0
   -3.6505    5.3552   -0.1528 C   0  0  0  1  0  0  0  0  0  0  0  0
   -1.4119    2.6994    1.3553 C   0  0  0  1  0  0  0  0  0  0  0  0
   -5.9006    7.5981   -0.0990 H   0  0  0  1  0  0  0  0  0  0  0  0
   -2.8344    8.8302    1.3261 H   0  0  0  1  0  0  0  0  0  0  0  0
   -2.3636    7.0877    2.3951 H   0  0  0  1  0  0  0  0  0  0  0  0
   -1.1899    4.9909    2.7309 H   0  0  0  1  0  0  0  0  0  0  0  0
   -3.1498    3.3620   -0.6061 H   0  0  0  1  0  0  0  0  0  0  0  0
   -4.3214    5.4552   -0.9411 H   0  0  0  1  0  0  0  0  0  0  0  0
   -1.1121    2.6600    2.3817 H   0  0  0  1  0  0  0  0  0  0  0  0
   -2.1060    1.9100    1.1554 H   0  0  0  1  0  0  0  0  0  0  0  0
  1  4  1  0  0  0  0
  2  4  1  0  0  0  0
  2  5  2  0  0  0  0
  2  6  1  0  0  0  0
  3  4  1  0  0  0  0
  3  7  1  0  0  0  0
  3  8  1  0  0  0  0
  4 28  1  0  0  0  0
  6  9  1  0  0  0  0
  6 12  1  0  0  0  0
  8 10  1  0  0  0  0
  8 11  2  0  0  0  0
  9 13  1  0  0  0  0
  9 14  1  0  0  0  0
  9 15  1  0  0  0  0
 10 16  1  0  0  0  0
 10 17  1  0  0  0  0
 10 18  1  0  0  0  0
 19 20  1  0  0  0  0
 19 21  1  0  0  0  0
 19 22  1  0  0  0  0
 20 29  1  0  0  0  0
 21 30  1  0  0  0  0
 22 23  4  0  0  0  0
 22 27  4  0  0  0  0
 23 24  4  0  0  0  0
 23 31  1  0  0  0  0
 24 25  4  0  0  0  0
 24 32  1  0  0  0  0
 25 26  4  0  0  0  0
 25 28  1  0  0  0  0
 26 27  4  0  0  0  0
 26 33  1  0  0  0  0
 27 34  1  0  0  0  0
 28 35  1  0  0  0  0
 28 36  1  0  0  0  0
M  END
> <BCLConfClusterSize>
1

> <ConfClashScore>
0 

> <ConfOneFourInteractionScore>
-0.966122 

> <ConfScore>
-0.244457 

> <ConfScorePBest>
0.00774839 

> <ConfTolerance>
0.186318 

> <RosettaParamsInstructions>
M  ROOT 3
M  POLY_N_BB 3
M  POLY_CA_BB 4
M  POLY_C_BB 2
M  POLY_O_BB 5
M  POLY_IGNORE 9 10 11 12 13 14 15 16 17 18 
M  POLY_UPPER 6
M  POLY_LOWER 8
M  POLY_CHG 0
M  POLY_PROPERTIES ALPHA_AA L_AA PROTEIN AROMATIC POLYMER 
M  END

$$$$



 36 36  0  0  0  0  0  0  0  0999 V2000
    0.4704    3.4859    1.7990 H   0  0  0  1  0  0  0  0  0  0  0  0
    0.7160    1.3969    1.6163 C   0  0  0  1  0  0  0  0  0  0  0  0
    0.5192    2.9940   -0.2042 N   0  0  0  1  0  0  0  0  0  0  0  0
    0.0928    2.7134    1.1621 C   0  0  0  1  0  0  0  0  0  0  0  0
    0.7782    1.0980    2.8059 O   0  0  0  1  0  0  0  0  0  0  0  0
    1.1883    0.5945    0.6260 N   0  0  0  1  0  0  0  0  0  0  0  0
   -0.1498    3.1139   -0.9103 H   0  0  0  1  0  0  0  0  0  0  0  0
    1.8253    3.0884   -0.4965 C   0  0  0  1  0  0  0  0  0  0  0  0
    1.7322   -0.7291    0.8908 C   0  0  0  1  0  0  0  0  0  0  0  0
    2.1598    3.2855   -1.9622 C   0  0  0  1  0  0  0  0  0  0  0  0
    2.7018    3.0222    0.3496 O   0  0  0  1  0  0  0  0  0  0  0  0
    1.1615    0.9186   -0.2985 H   0  0  0  1  0  0  0  0  0  0  0  0
    2.6347   -0.6374    1.4583 H   0  0  0  1  0  0  0  0  0  0  0  0
    1.9425   -1.2200   -0.0363 H   0  0  0  1  0  0  0  0  0  0  0  0
    1.0193   -1.3030    1.4452 H   0  0  0  1  0  0  0  0  0  0  0  0
    1.3000    3.0606   -2.5582 H   0  0  0  1  0  0  0  0  0  0  0  0
    2.9632    2.6336   -2.2352 H   0  0  0  1  0  0  0  0  0  0  0  0
    2.4523    4.3014   -2.1276 H   0  0  0  1  0  0  0  0  0  0  0  0
   -4.1046    7.8373    0.4624 B   0  0  0  1  0  0  0  0  0  0  0  0
   -4.9904    8.0923   -0.5435 O   0  0  0  1  0  0  0  0  0  0  0  0
   -3.7963    8.8734    1.2934 O   0  0  0  1  0  0  0  0  0  0  0  0
   -3.4323    6.4154    0.7007 C   0  0  0  1  0  0  0  0  0  0  0  0
   -2.5380    6.2924    1.7473 C   0  0  0  1  0  0  0  0  0  0  0  0
   -1.8616    5.0986    1.9446 C   0  0  0  1  0  0  0  0  0  0  0  0
   -2.0777    4.0330    1.0913 C   0  0  0  1  0  0  0  0  0  0  0  0
   -2.9745    4.1562    0.0416 C   0  0  0  1  0  0  0  0  0  0  0  0
   -3.6488    5.3465   -0.1549 C   0  0  0  1  0  0  0  0  0  0  0  0
   -1.4299    2.6846    1.3267 C   0  0  0  1  0  0  0  0  0  0  0  0
   -4.5213    8.4512   -1.3003 H   0  0  0  1  0  0  0  0  0  0  0  0
   -2.9807    8.6779    1.7604 H   0  0  0  1  0  0  0  0  0  0  0  0
   -2.3725    7.0956    2.3869 H   0  0  0  1  0  0  0  0  0  0  0  0
   -1.1917    5.0048    2.7346 H   0  0  0  1  0  0  0  0  0  0  0  0
   -3.1400    3.3529   -0.5980 H   0  0  0  1  0  0  0  0  0  0  0  0
   -4.3187    5.4403   -0.9449 H   0  0  0  1  0  0  0  0  0  0  0  0
   -1.6588    2.3659    2.3222 H   0  0  0  1  0  0  0  0  0  0  0  0
   -1.8350    1.9851    0.6257 H   0  0  0  1  0  0  0  0  0  0  0  0
  1  4  1  0  0  0  0
  2  4  1  0  0  0  0
  2  5  2  0  0  0  0
  2  6  1  0  0  0  0
  3  4  1  0  0  0  0
  3  7  1  0  0  0  0
  3  8  1  0  0  0  0
  4 28  1  0  0  0  0
  6  9  1  0  0  0  0
  6 12  1  0  0  0  0
  8 10  1  0  0  0  0
  8 11  2  0  0  0  0
  9 13  1  0  0  0  0
  9 14  1  0  0  0  0
  9 15  1  0  0  0  0
 10 16  1  0  0  0  0
 10 17  1  0  0  0  0
 10 18  1  0  0  0  0
 19 20  1  0  0  0  0
 19 21  1  0  0  0  0
 19 22  1  0  0  0  0
 20 29  1  0  0  0  0
 21 30  1  0  0  0  0
 22 23  4  0  0  0  0
 22 27  4  0  0  0  0
 23 24  4  0  0  0  0
 23 31  1  0  0  0  0
 24 25  4  0  0  0  0
 24 32  1  0  0  0  0
 25 26  4  0  0  0  0
 25 28  1  0  0  0  0
 26 27  4  0  0  0  0
 26 33  1  0  0  0  0
 27 34  1  0  0  0  0
 28 35  1  0  0  0  0
 28 36  1  0  0  0  0
M  END
> <BCLConfClusterSize>
1

> <ConfClashScore>
0 

> <ConfOneFourInteractionScore>
-0.954617 

> <ConfScore>
-0.244243 

> <ConfScorePBest>
0.00771991 

> <ConfTolerance>
0.241503 

> <RosettaParamsInstructions>
M  ROOT 3
M  POLY_N_BB 3
M  POLY_CA_BB 4
M  POLY_C_BB 2
M  POLY_O_BB 5
M  POLY_IGNORE 9 10 11 12 13 14 15 16 17 18 
M  POLY_UPPER 6
M  POLY_LOWER 8
M  POLY_CHG 0
M  POLY_PROPERTIES ALPHA_AA L_AA PROTEIN AROMATIC POLYMER 
M  END

$$$$



 36 36  0  0  0  0  0  0  0  0999 V2000
    0.6089    3.2617    1.1697 H   0  0  0  1  0  0  0  0  0  0  0  0
    0.5017    1.1579    0.8399 C   0  0  0  1  0  0  0  0  0  0  0  0
   -0.1559    2.8864   -0.7282 N   0  0  0  1  0  0  0  0  0  0  0  0
   -0.0550    2.5735    0.6895 C   0  0  0  1  0  0  0  0  0  0  0  0
    0.2388    0.2782    0.0210 O   0  0  0  1  0  0  0  0  0  0  0  0
    1.2837    0.9496    1.9109 N   0  0  0  1  0  0  0  0  0  0  0  0
   -0.6656    2.2848   -1.3102 H   0  0  0  1  0  0  0  0  0  0  0  0
    0.4222    3.9652   -1.2638 C   0  0  0  1  0  0  0  0  0  0  0  0
    1.7829   -0.3490    2.3381 C   0  0  0  1  0  0  0  0  0  0  0  0
    0.2547    4.1269   -2.7621 C   0  0  0  1  0  0  0  0  0  0  0  0
    1.0490    4.7795   -0.6051 O   0  0  0  1  0  0  0  0  0  0  0  0
    1.5376    1.7307    2.4455 H   0  0  0  1  0  0  0  0  0  0  0  0
    2.0136   -0.9433    1.4787 H   0  0  0  1  0  0  0  0  0  0  0  0
    1.0356   -0.8433    2.9230 H   0  0  0  1  0  0  0  0  0  0  0  0
    2.6665   -0.2152    2.9265 H   0  0  0  1  0  0  0  0  0  0  0  0
    1.2167    4.2215   -3.2209 H   0  0  0  1  0  0  0  0  0  0  0  0
   -0.3241    5.0040   -2.9635 H   0  0  0  1  0  0  0  0  0  0  0  0
   -0.2468    3.2691   -3.1593 H   0  0  0  1  0  0  0  0  0  0  0  0
   -4.1201    7.8146    0.4299 B   0  0  0  1  0  0  0  0  0  0  0  0
   -4.8136    8.0658   -0.7112 O   0  0  0  1  0  0  0  0  0  0  0  0
   -3.9168    8.7852    1.3454 O   0  0  0  1  0  0  0  0  0  0  0  0
   -3.4282    6.4187    0.7080 C   0  0  0  1  0  0  0  0  0  0  0  0
   -2.5332    6.2916    1.7535 C   0  0  0  1  0  0  0  0  0  0  0  0
   -1.8588    5.0961    1.9472 C   0  0  0  1  0  0  0  0  0  0  0  0
   -2.0775    4.0329    1.0916 C   0  0  0  1  0  0  0  0  0  0  0  0
   -2.9751    4.1603    0.0429 C   0  0  0  1  0  0  0  0  0  0  0  0
   -3.6473    5.3523   -0.1501 C   0  0  0  1  0  0  0  0  0  0  0  0
   -1.4357    2.6908    1.3217 C   0  0  0  1  0  0  0  0  0  0  0  0
   -4.3738    8.7601   -1.2072 H   0  0  0  1  0  0  0  0  0  0  0  0
   -3.0478    8.6776    1.7388 H   0  0  0  1  0  0  0  0  0  0  0  0
   -2.3657    7.0929    2.3949 H   0  0  0  1  0  0  0  0  0  0  0  0
   -1.1883    4.9991    2.7364 H   0  0  0  1  0  0  0  0  0  0  0  0
   -3.1426    3.3590   -0.5985 H   0  0  0  1  0  0  0  0  0  0  0  0
   -4.3178    5.4492   -0.9392 H   0  0  0  1  0  0  0  0  0  0  0  0
   -1.3420    2.5344    2.3760 H   0  0  0  1  0  0  0  0  0  0  0  0
   -2.0672    1.9352    0.9032 H   0  0  0  1  0  0  0  0  0  0  0  0
  1  4  1  0  0  0  0
  2  4  1  0  0  0  0
  2  5  2  0  0  0  0
  2  6  1  0  0  0  0
  3  4  1  0  0  0  0
  3  7  1  0  0  0  0
  3  8  1  0  0  0  0
  4 28  1  0  0  0  0
  6  9  1  0  0  0  0
  6 12  1  0  0  0  0
  8 10  1  0  0  0  0
  8 11  2  0  0  0  0
  9 13  1  0  0  0  0
  9 14  1  0  0  0  0
  9 15  1  0  0  0  0
 10 16  1  0  0  0  0
 10 17  1  0  0  0  0
 10 18  1  0  0  0  0
 19 20  1  0  0  0  0
 19 21  1  0  0  0  0
 19 22  1  0  0  0  0
 20 29  1  0  0  0  0
 21 30  1  0  0  0  0
 22 23  4  0  0  0  0
 22 27  4  0  0  0  0
 23 24  4  0  0  0  0
 23 31  1  0  0  0  0
 24 25  4  0  0  0  0
 24 32  1  0  0  0  0
 25 26  4  0  0  0  0
 25 28  1  0  0  0  0
 26 27  4  0  0  0  0
 26 33  1  0  0  0  0
 27 34  1  0  0  0  0
 28 35  1  0  0  0  0
 28 36  1  0  0  0  0
M  END
> <BCLConfClusterSize>
1

> <ConfClashScore>
0 

> <ConfOneFourInteractionScore>
-0.992613 

> <ConfScore>
-0.243295 

> <ConfScorePBest>
0.00769143 

> <ConfTolerance>
0.238576 

> <RosettaParamsInstructions>
M  ROOT 3
M  POLY_N_BB 3
M  POLY_CA_BB 4
M  POLY_C_BB 2
M  POLY_O_BB 5
M  POLY_IGNORE 9 10 11 12 13 14 15 16 17 18 
M  POLY_UPPER 6
M  POLY_LOWER 8
M  POLY_CHG 0
M  POLY_PROPERTIES ALPHA_AA L_AA PROTEIN AROMATIC POLYMER 
M  END

$$$$



 36 36  0  0  0  0  0  0  0  0999 V2000
   -3.2469    1.6397    1.2092 H   0  0  0  1  0  0  0  0  0  0  0  0
   -1.8250    0.2455    1.8374 C   0  0  0  1  0  0  0  0  0  0  0  0
   -2.9133    2.0378    3.1841 N   0  0  0  1  0  0  0  0  0  0  0  0
   -2.4100    1.6471    1.8758 C   0  0  0  1  0  0  0  0  0  0  0  0
   -1.6106   -0.3828    0.8172 O   0  0  0  1  0  0  0  0  0  0  0  0
   -1.5567   -0.2568    3.0522 N   0  0  0  1  0  0  0  0  0  0  0  0
   -2.2940    2.4402    3.8283 H   0  0  0  1  0  0  0  0  0  0  0  0
   -4.2030    1.8655    3.5411 C   0  0  0  1  0  0  0  0  0  0  0  0
   -1.1139   -1.6361    3.1912 C   0  0  0  1  0  0  0  0  0  0  0  0
   -4.6581    2.4431    4.8622 C   0  0  0  1  0  0  0  0  0  0  0  0
   -4.9875    1.2567    2.8148 O   0  0  0  1  0  0  0  0  0  0  0  0
   -1.6591    0.3064    3.8477 H   0  0  0  1  0  0  0  0  0  0  0  0
   -1.4145   -2.1961    2.3304 H   0  0  0  1  0  0  0  0  0  0  0  0
   -1.5539   -2.0651    4.0671 H   0  0  0  1  0  0  0  0  0  0  0  0
   -0.0477   -1.6611    3.2782 H   0  0  0  1  0  0  0  0  0  0  0  0
   -4.0931    3.3253    5.0799 H   0  0  0  1  0  0  0  0  0  0  0  0
   -4.5060    1.7219    5.6378 H   0  0  0  1  0  0  0  0  0  0  0  0
   -5.6974    2.6908    4.8037 H   0  0  0  1  0  0  0  0  0  0  0  0
   -4.1201    7.8146    0.4299 B   0  0  0  1  0  0  0  0  0  0  0  0
   -3.8071    8.9335    1.1333 O   0  0  0  1  0  0  0  0  0  0  0  0
   -5.1239    7.9625   -0.4809 O   0  0  0  1  0  0  0  0  0  0  0  0
   -3.4282    6.4187    0.7080 C   0  0  0  1  0  0  0  0  0  0  0  0
   -2.5332    6.2916    1.7535 C   0  0  0  1  0  0  0  0  0  0  0  0
   -1.8588    5.0961    1.9472 C   0  0  0  1  0  0  0  0  0  0  0  0
   -2.0775    4.0329    1.0916 C   0  0  0  1  0  0  0  0  0  0  0  0
   -2.9751    4.1603    0.0429 C   0  0  0  1  0  0  0  0  0  0  0  0
   -3.6473    5.3523   -0.1501 C   0  0  0  1  0  0  0  0  0  0  0  0
   -1.4357    2.6908    1.3217 C   0  0  0  1  0  0  0  0  0  0  0  0
   -4.3330    8.9652    1.9358 H   0  0  0  1  0  0  0  0  0  0  0  0
   -4.8415    8.5633   -1.1743 H   0  0  0  1  0  0  0  0  0  0  0  0
   -2.3657    7.0929    2.3949 H   0  0  0  1  0  0  0  0  0  0  0  0
   -1.1883    4.9991    2.7364 H   0  0  0  1  0  0  0  0  0  0  0  0
   -3.1426    3.3590   -0.5985 H   0  0  0  1  0  0  0  0  0  0  0  0
   -4.3178    5.4492   -0.9392 H   0  0  0  1  0  0  0  0  0  0  0  0
   -1.0483    2.3344    0.3901 H   0  0  0  1  0  0  0  0  0  0  0  0
   -0.6335    2.8121    2.0192 H   0  0  0  1  0  0  0  0  0  0  0  0
  1  4  1  0  0  0  0
  2  4  1  0  0  0  0
  2  5  2  0  0  0  0
  2  6  1  0  0  0  0
  3  4  1  0  0  0  0
  3  7  1  0  0  0  0
  3  8  1  0  0  0  0
  4 28  1  0  0  0  0
  6  9  1  0  0  0  0
  6 12  1  0  0  0  0
  8 10  1  0  0  0  0
  8 11  2  0  0  0  0
  9 13  1  0  0  0  0
  9 14  1  0  0  0  0
  9 15  1  0  0  0  0
 10 16  1  0  0  0  0
 10 17  1  0  0  0  0
 10 18  1  0  0  0  0
 19 20  1  0  0  0  0
 19 21  1  0  0  0  0
 19 22  1  0  0  0  0
 20 29  1  0  0  0  0
 21 30  1  0  0  0  0
 22 23  4  0  0  0  0
 22 27  4  0  0  0  0
 23 24  4  0  0  0  0
 23 31  1  0  0  0  0
 24 25  4  0  0  0  0
 24 32  1  0  0  0  0
 25 26  4  0  0  0  0
 25 28  1  0  0  0  0
 26 27  4  0  0  0  0
 26 33  1  0  0  0  0
 27 34  1  0  0  0  0
 28 35  1  0  0  0  0
 28 36  1  0  0  0  0
M  END
> <BCLConfClusterSize>
1

> <ConfClashScore>
0 

> <ConfOneFourInteractionScore>
-0.954617 

> <ConfScore>
-0.241481 

> <ConfScorePBest>
0.00766295 

> <ConfTolerance>
0.251256 

> <RosettaParamsInstructions>
M  ROOT 3
M  POLY_N_BB 3
M  POLY_CA_BB 4
M  POLY_C_BB 2
M  POLY_O_BB 5
M  POLY_IGNORE 9 10 11 12 13 14 15 16 17 18 
M  POLY_UPPER 6
M  POLY_LOWER 8
M  POLY_CHG 0
M  POLY_PROPERTIES ALPHA_AA L_AA PROTEIN AROMATIC POLYMER 
M  END

$$$$



 36 36  0  0  0  0  0  0  0  0999 V2000
   -3.1697    1.7229    1.9398 H   0  0  0  1  0  0  0  0  0  0  0  0
   -1.6093    0.5202    2.6148 C   0  0  0  1  0  0  0  0  0  0  0  0
   -2.4327    2.6466    3.6049 N   0  0  0  1  0  0  0  0  0  0  0  0
   -2.2099    1.8882    2.3830 C   0  0  0  1  0  0  0  0  0  0  0  0
   -1.8521   -0.4132    1.8509 O   0  0  0  1  0  0  0  0  0  0  0  0
   -0.8050    0.3557    3.6770 N   0  0  0  1  0  0  0  0  0  0  0  0
   -2.0379    3.5399    3.6858 H   0  0  0  1  0  0  0  0  0  0  0  0
   -3.1639    2.1626    4.6303 C   0  0  0  1  0  0  0  0  0  0  0  0
   -0.2427   -0.9384    4.0334 C   0  0  0  1  0  0  0  0  0  0  0  0
   -3.2682    3.0009    5.8895 C   0  0  0  1  0  0  0  0  0  0  0  0
   -3.7304    1.0736    4.5486 O   0  0  0  1  0  0  0  0  0  0  0  0
   -0.5890    1.1342    4.2317 H   0  0  0  1  0  0  0  0  0  0  0  0
    0.4005   -1.2768    3.2481 H   0  0  0  1  0  0  0  0  0  0  0  0
   -1.0343   -1.6442    4.1748 H   0  0  0  1  0  0  0  0  0  0  0  0
    0.3192   -0.8456    4.9392 H   0  0  0  1  0  0  0  0  0  0  0  0
   -2.8359    2.4678    6.7103 H   0  0  0  1  0  0  0  0  0  0  0  0
   -4.2979    3.2033    6.0987 H   0  0  0  1  0  0  0  0  0  0  0  0
   -2.7445    3.9232    5.7481 H   0  0  0  1  0  0  0  0  0  0  0  0
   -4.0842    7.8635    0.5016 B   0  0  0  1  0  0  0  0  0  0  0  0
   -5.0224    8.1291   -0.4246 O   0  0  0  1  0  0  0  0  0  0  0  0
   -3.6825    8.8035    1.3822 O   0  0  0  1  0  0  0  0  0  0  0  0
   -3.4367    6.4109    0.6924 C   0  0  0  1  0  0  0  0  0  0  0  0
   -2.5426    6.2885    1.7393 C   0  0  0  1  0  0  0  0  0  0  0  0
   -1.8661    5.0948    1.9373 C   0  0  0  1  0  0  0  0  0  0  0  0
   -2.0819    4.0288    1.0844 C   0  0  0  1  0  0  0  0  0  0  0  0
   -2.9786    4.1514    0.0345 C   0  0  0  1  0  0  0  0  0  0  0  0
   -3.6529    5.3416   -0.1627 C   0  0  0  1  0  0  0  0  0  0  0  0
   -1.4072    2.7020    1.3632 C   0  0  0  1  0  0  0  0  0  0  0  0
   -5.7510    7.5115   -0.3290 H   0  0  0  1  0  0  0  0  0  0  0  0
   -3.7946    8.4733    2.2766 H   0  0  0  1  0  0  0  0  0  0  0  0
   -2.3773    7.0920    2.3786 H   0  0  0  1  0  0  0  0  0  0  0  0
   -1.1963    5.0014    2.7274 H   0  0  0  1  0  0  0  0  0  0  0  0
   -3.1438    3.3479   -0.6048 H   0  0  0  1  0  0  0  0  0  0  0  0
   -4.3227    5.4349   -0.9529 H   0  0  0  1  0  0  0  0  0  0  0  0
   -1.3339    2.1472    0.4512 H   0  0  0  1  0  0  0  0  0  0  0  0
   -0.4266    2.8819    1.7517 H   0  0  0  1  0  0  0  0  0  0  0  0
  1  4  1  0  0  0  0
  2  4  1  0  0  0  0
  2  5  2  0  0  0  0
  2  6  1  0  0  0  0
  3  4  1  0  0  0  0
  3  7  1  0  0  0  0
  3  8  1  0  0  0  0
  4 28  1  0  0  0  0
  6  9  1  0  0  0  0
  6 12  1  0  0  0  0
  8 10  1  0  0  0  0
  8 11  2  0  0  0  0
  9 13  1  0  0  0  0
  9 14  1  0  0  0  0
  9 15  1  0  0  0  0
 10 16  1  0  0  0  0
 10 17  1  0  0  0  0
 10 18  1  0  0  0  0
 19 20  1  0  0  0  0
 19 21  1  0  0  0  0
 19 22  1  0  0  0  0
 20 29  1  0  0  0  0
 21 30  1  0  0  0  0
 22 23  4  0  0  0  0
 22 27  4  0  0  0  0
 23 24  4  0  0  0  0
 23 31  1  0  0  0  0
 24 25  4  0  0  0  0
 24 32  1  0  0  0  0
 25 26  4  0  0  0  0
 25 28  1  0  0  0  0
 26 27  4  0  0  0  0
 26 33  1  0  0  0  0
 27 34  1  0  0  0  0
 28 35  1  0  0  0  0
 28 36  1  0  0  0  0
M  END
> <BCLConfClusterSize>
1

> <ConfClashScore>
0 

> <ConfOneFourInteractionScore>
-0.969136 

> <ConfScore>
-0.240765 

> <ConfScorePBest>
0.00763447 

> <ConfTolerance>
0.255255 

> <RosettaParamsInstructions>
M  ROOT 3
M  POLY_N_BB 3
M  POLY_CA_BB 4
M  POLY_C_BB 2
M  POLY_O_BB 5
M  POLY_IGNORE 9 10 11 12 13 14 15 16 17 18 
M  POLY_UPPER 6
M  POLY_LOWER 8
M  POLY_CHG 0
M  POLY_PROPERTIES ALPHA_AA L_AA PROTEIN AROMATIC POLYMER 
M  END

$$$$



 36 36  0  0  0  0  0  0  0  0999 V2000
    0.4485    3.3773    0.6053 H   0  0  0  1  0  0  0  0  0  0  0  0
    0.7185    1.3263    1.0249 C   0  0  0  1  0  0  0  0  0  0  0  0
   -0.4628    2.2663   -0.8703 N   0  0  0  1  0  0  0  0  0  0  0  0
   -0.1398    2.4868    0.5303 C   0  0  0  1  0  0  0  0  0  0  0  0
    1.5255    1.4666    1.9429 O   0  0  0  1  0  0  0  0  0  0  0  0
    0.4998    0.1702    0.3647 N   0  0  0  1  0  0  0  0  0  0  0  0
   -1.3937    2.3615   -1.1616 H   0  0  0  1  0  0  0  0  0  0  0  0
    0.4692    1.9371   -1.7775 C   0  0  0  1  0  0  0  0  0  0  0  0
    1.2809   -1.0146    0.6874 C   0  0  0  1  0  0  0  0  0  0  0  0
    0.0650    1.9143   -3.2388 C   0  0  0  1  0  0  0  0  0  0  0  0
    1.6187    1.6614   -1.4365 O   0  0  0  1  0  0  0  0  0  0  0  0
   -0.1865    0.1281   -0.3336 H   0  0  0  1  0  0  0  0  0  0  0  0
    0.6698   -1.7101    1.2238 H   0  0  0  1  0  0  0  0  0  0  0  0
    2.1183   -0.7355    1.2922 H   0  0  0  1  0  0  0  0  0  0  0  0
    1.6289   -1.4691   -0.2166 H   0  0  0  1  0  0  0  0  0  0  0  0
   -0.1637    2.9085   -3.5617 H   0  0  0  1  0  0  0  0  0  0  0  0
   -0.7975    1.2928   -3.3603 H   0  0  0  1  0  0  0  0  0  0  0  0
    0.8709    1.5255   -3.8255 H   0  0  0  1  0  0  0  0  0  0  0  0
   -4.0834    7.8618    0.5018 B   0  0  0  1  0  0  0  0  0  0  0  0
   -3.9748    8.8581    1.4203 O   0  0  0  1  0  0  0  0  0  0  0  0
   -4.7841    8.1391   -0.6302 O   0  0  0  1  0  0  0  0  0  0  0  0
   -3.4367    6.4110    0.6924 C   0  0  0  1  0  0  0  0  0  0  0  0
   -2.5426    6.2886    1.7393 C   0  0  0  1  0  0  0  0  0  0  0  0
   -1.8662    5.0950    1.9372 C   0  0  0  1  0  0  0  0  0  0  0  0
   -2.0820    4.0289    1.0844 C   0  0  0  1  0  0  0  0  0  0  0  0
   -2.9786    4.1515    0.0345 C   0  0  0  1  0  0  0  0  0  0  0  0
   -3.6530    5.3417   -0.1628 C   0  0  0  1  0  0  0  0  0  0  0  0
   -1.4073    2.7022    1.3632 C   0  0  0  1  0  0  0  0  0  0  0  0
   -3.6106    9.6415    1.0017 H   0  0  0  1  0  0  0  0  0  0  0  0
   -4.2415    8.6654   -1.2221 H   0  0  0  1  0  0  0  0  0  0  0  0
   -2.3773    7.0921    2.3785 H   0  0  0  1  0  0  0  0  0  0  0  0
   -1.1964    5.0016    2.7274 H   0  0  0  1  0  0  0  0  0  0  0  0
   -3.1439    3.3480   -0.6048 H   0  0  0  1  0  0  0  0  0  0  0  0
   -4.3227    5.4351   -0.9529 H   0  0  0  1  0  0  0  0  0  0  0  0
   -1.1441    2.6651    2.3997 H   0  0  0  1  0  0  0  0  0  0  0  0
   -2.0981    1.9156    1.1418 H   0  0  0  1  0  0  0  0  0  0  0  0
  1  4  1  0  0  0  0
  2  4  1  0  0  0  0
  2  5  2  0  0  0  0
  2  6  1  0  0  0  0
  3  4  1  0  0  0  0
  3  7  1  0  0  0  0
  3  8  1  0  0  0  0
  4 28  1  0  0  0  0
  6  9  1  0  0  0  0
  6 12  1  0  0  0  0
  8 10  1  0  0  0  0
  8 11  2  0  0  0  0
  9 13  1  0  0  0  0
  9 14  1  0  0  0  0
  9 15  1  0  0  0  0
 10 16  1  0  0  0  0
 10 17  1  0  0  0  0
 10 18  1  0  0  0  0
 19 20  1  0  0  0  0
 19 21  1  0  0  0  0
 19 22  1  0  0  0  0
 20 29  1  0  0  0  0
 21 30  1  0  0  0  0
 22 23  4  0  0  0  0
 22 27  4  0  0  0  0
 23 24  4  0  0  0  0
 23 31  1  0  0  0  0
 24 25  4  0  0  0  0
 24 32  1  0  0  0  0
 25 26  4  0  0  0  0
 25 28  1  0  0  0  0
 26 27  4  0  0  0  0
 26 33  1  0  0  0  0
 27 34  1  0  0  0  0
 28 35  1  0  0  0  0
 28 36  1  0  0  0  0
M  END
> <BCLConfClusterSize>
1

> <ConfClashScore>
0 

> <ConfOneFourInteractionScore>
-0.966122 

> <ConfScore>
-0.236142 

> <ConfScorePBest>
0.00760599 

> <ConfTolerance>
0.264631 

> <RosettaParamsInstructions>
M  ROOT 3
M  POLY_N_BB 3
M  POLY_CA_BB 4
M  POLY_C_BB 2
M  POLY_O_BB 5
M  POLY_IGNORE 9 10 11 12 13 14 15 16 17 18 
M  POLY_UPPER 6
M  POLY_LOWER 8
M  POLY_CHG 0
M  POLY_PROPERTIES ALPHA_AA L_AA PROTEIN AROMATIC POLYMER 
M  END

$$$$



 36 36  0  0  0  0  0  0  0  0999 V2000
   -3.2373    1.6820    1.5928 H   0  0  0  1  0  0  0  0  0  0  0  0
   -1.7376    0.3148    2.1091 C   0  0  0  1  0  0  0  0  0  0  0  0
   -2.5912    2.1644    3.4804 N   0  0  0  1  0  0  0  0  0  0  0  0
   -2.3072    1.7201    2.1205 C   0  0  0  1  0  0  0  0  0  0  0  0
   -1.1530   -0.1392    3.0788 O   0  0  0  1  0  0  0  0  0  0  0  0
   -1.9207   -0.3795    0.9748 N   0  0  0  1  0  0  0  0  0  0  0  0
   -1.8361    2.4741    4.0228 H   0  0  0  1  0  0  0  0  0  0  0  0
   -3.8013    2.1808    4.0413 C   0  0  0  1  0  0  0  0  0  0  0  0
   -1.5553   -1.7752    0.7841 C   0  0  0  1  0  0  0  0  0  0  0  0
   -3.8608    2.7012    5.4643 C   0  0  0  1  0  0  0  0  0  0  0  0
   -4.8076    1.8049    3.4618 O   0  0  0  1  0  0  0  0  0  0  0  0
   -2.3313    0.0889    0.2182 H   0  0  0  1  0  0  0  0  0  0  0  0
   -1.9941   -2.1387   -0.1216 H   0  0  0  1  0  0  0  0  0  0  0  0
   -1.9129   -2.3533    1.6104 H   0  0  0  1  0  0  0  0  0  0  0  0
   -0.4904   -1.8597    0.7232 H   0  0  0  1  0  0  0  0  0  0  0  0
   -3.2428    2.0944    6.0926 H   0  0  0  1  0  0  0  0  0  0  0  0
   -4.8709    2.6645    5.8153 H   0  0  0  1  0  0  0  0  0  0  0  0
   -3.5106    3.7120    5.4890 H   0  0  0  1  0  0  0  0  0  0  0  0
   -4.1022    7.8391    0.4658 B   0  0  0  1  0  0  0  0  0  0  0  0
   -4.9484    8.1118   -0.5692 O   0  0  0  1  0  0  0  0  0  0  0  0
   -3.8330    8.8583    1.3305 O   0  0  0  1  0  0  0  0  0  0  0  0
   -3.4324    6.4153    0.7003 C   0  0  0  1  0  0  0  0  0  0  0  0
   -2.5375    6.2883    1.7460 C   0  0  0  1  0  0  0  0  0  0  0  0
   -1.8633    5.0928    1.9400 C   0  0  0  1  0  0  0  0  0  0  0  0
   -2.0820    4.0295    1.0846 C   0  0  0  1  0  0  0  0  0  0  0  0
   -2.9795    4.1567    0.0358 C   0  0  0  1  0  0  0  0  0  0  0  0
   -3.6516    5.3488   -0.1575 C   0  0  0  1  0  0  0  0  0  0  0  0
   -1.4097    2.7006    1.3591 C   0  0  0  1  0  0  0  0  0  0  0  0
   -4.6191    8.8670   -1.0620 H   0  0  0  1  0  0  0  0  0  0  0  0
   -2.8898    9.0375    1.3309 H   0  0  0  1  0  0  0  0  0  0  0  0
   -2.3700    7.0898    2.3872 H   0  0  0  1  0  0  0  0  0  0  0  0
   -1.1930    4.9959    2.7293 H   0  0  0  1  0  0  0  0  0  0  0  0
   -3.1470    3.3553   -0.6055 H   0  0  0  1  0  0  0  0  0  0  0  0
   -4.3219    5.4456   -0.9468 H   0  0  0  1  0  0  0  0  0  0  0  0
   -1.1371    2.2573    0.4242 H   0  0  0  1  0  0  0  0  0  0  0  0
   -0.5292    2.8781    1.9405 H   0  0  0  1  0  0  0  0  0  0  0  0
  1  4  1  0  0  0  0
  2  4  1  0  0  0  0
  2  5  2  0  0  0  0
  2  6  1  0  0  0  0
  3  4  1  0  0  0  0
  3  7  1  0  0  0  0
  3  8  1  0  0  0  0
  4 28  1  0  0  0  0
  6  9  1  0  0  0  0
  6 12  1  0  0  0  0
  8 10  1  0  0  0  0
  8 11  2  0  0  0  0
  9 13  1  0  0  0  0
  9 14  1  0  0  0  0
  9 15  1  0  0  0  0
 10 16  1  0  0  0  0
 10 17  1  0  0  0  0
 10 18  1  0  0  0  0
 19 20  1  0  0  0  0
 19 21  1  0  0  0  0
 19 22  1  0  0  0  0
 20 29  1  0  0  0  0
 21 30  1  0  0  0  0
 22 23  4  0  0  0  0
 22 27  4  0  0  0  0
 23 24  4  0  0  0  0
 23 31  1  0  0  0  0
 24 25  4  0  0  0  0
 24 32  1  0  0  0  0
 25 26  4  0  0  0  0
 25 28  1  0  0  0  0
 26 27  4  0  0  0  0
 26 33  1  0  0  0  0
 27 34  1  0  0  0  0
 28 35  1  0  0  0  0
 28 36  1  0  0  0  0
M  END
> <BCLConfClusterSize>
1

> <ConfClashScore>
0 

> <ConfOneFourInteractionScore>
-0.988961 

> <ConfScore>
-0.234983 

> <ConfScorePBest>
0.00757751 

> <ConfTolerance>
0.211713 

> <RosettaParamsInstructions>
M  ROOT 3
M  POLY_N_BB 3
M  POLY_CA_BB 4
M  POLY_C_BB 2
M  POLY_O_BB 5
M  POLY_IGNORE 9 10 11 12 13 14 15 16 17 18 
M  POLY_UPPER 6
M  POLY_LOWER 8
M  POLY_CHG 0
M  POLY_PROPERTIES ALPHA_AA L_AA PROTEIN AROMATIC POLYMER 
M  END

$$$$



 36 36  0  0  0  0  0  0  0  0999 V2000
   -3.0221    1.3543    1.1881 H   0  0  0  1  0  0  0  0  0  0  0  0
   -1.6142    0.4268    2.4297 C   0  0  0  1  0  0  0  0  0  0  0  0
   -3.1724    2.2201    3.0402 N   0  0  0  1  0  0  0  0  0  0  0  0
   -2.3593    1.6644    1.9688 C   0  0  0  1  0  0  0  0  0  0  0  0
   -1.3063   -0.4699    1.6457 O   0  0  0  1  0  0  0  0  0  0  0  0
   -1.3386    0.4210    3.7435 N   0  0  0  1  0  0  0  0  0  0  0  0
   -2.9405    3.1010    3.4018 H   0  0  0  1  0  0  0  0  0  0  0  0
   -4.2241    1.5712    3.5481 C   0  0  0  1  0  0  0  0  0  0  0  0
   -0.5389   -0.6238    4.3654 C   0  0  0  1  0  0  0  0  0  0  0  0
   -5.0663    2.3530    4.5306 C   0  0  0  1  0  0  0  0  0  0  0  0
   -4.5027    0.4210    3.2498 O   0  0  0  1  0  0  0  0  0  0  0  0
   -1.6882    1.1454    4.3033 H   0  0  0  1  0  0  0  0  0  0  0  0
   -1.1521   -1.4810    4.5499 H   0  0  0  1  0  0  0  0  0  0  0  0
   -0.1408   -0.2644    5.2913 H   0  0  0  1  0  0  0  0  0  0  0  0
    0.2644   -0.8942    3.7123 H   0  0  0  1  0  0  0  0  0  0  0  0
   -4.4358    2.9938    5.1109 H   0  0  0  1  0  0  0  0  0  0  0  0
   -5.5788    1.6742    5.1799 H   0  0  0  1  0  0  0  0  0  0  0  0
   -5.7805    2.9443    3.9965 H   0  0  0  1  0  0  0  0  0  0  0  0
   -4.1182    7.8171    0.4332 B   0  0  0  1  0  0  0  0  0  0  0  0
   -3.9026    8.9237    1.2014 O   0  0  0  1  0  0  0  0  0  0  0  0
   -4.9616    7.8981   -0.6223 O   0  0  0  1  0  0  0  0  0  0  0  0
   -3.4287    6.4193    0.7075 C   0  0  0  1  0  0  0  0  0  0  0  0
   -2.5331    6.2881    1.7520 C   0  0  0  1  0  0  0  0  0  0  0  0
   -1.8608    5.0909    1.9426 C   0  0  0  1  0  0  0  0  0  0  0  0
   -2.0821    4.0301    1.0846 C   0  0  0  1  0  0  0  0  0  0  0  0
   -2.9803    4.1615    0.0370 C   0  0  0  1  0  0  0  0  0  0  0  0
   -3.6505    5.3552   -0.1528 C   0  0  0  1  0  0  0  0  0  0  0  0
   -1.4119    2.6994    1.3553 C   0  0  0  1  0  0  0  0  0  0  0  0
   -4.7025    9.1375    1.6871 H   0  0  0  1  0  0  0  0  0  0  0  0
   -4.6693    8.5960   -1.2132 H   0  0  0  1  0  0  0  0  0  0  0  0
   -2.3636    7.0877    2.3951 H   0  0  0  1  0  0  0  0  0  0  0  0
   -1.1899    4.9909    2.7309 H   0  0  0  1  0  0  0  0  0  0  0  0
   -3.1498    3.3620   -0.6061 H   0  0  0  1  0  0  0  0  0  0  0  0
   -4.3214    5.4552   -0.9411 H   0  0  0  1  0  0  0  0  0  0  0  0
   -1.0374    2.3124    0.4307 H   0  0  0  1  0  0  0  0  0  0  0  0
   -0.5982    2.8592    2.0314 H   0  0  0  1  0  0  0  0  0  0  0  0
  1  4  1  0  0  0  0
  2  4  1  0  0  0  0
  2  5  2  0  0  0  0
  2  6  1  0  0  0  0
  3  4  1  0  0  0  0
  3  7  1  0  0  0  0
  3  8  1  0  0  0  0
  4 28  1  0  0  0  0
  6  9  1  0  0  0  0
  6 12  1  0  0  0  0
  8 10  1  0  0  0  0
  8 11  2  0  0  0  0
  9 13  1  0  0  0  0
  9 14  1  0  0  0  0
  9 15  1  0  0  0  0
 10 16  1  0  0  0  0
 10 17  1  0  0  0  0
 10 18  1  0  0  0  0
 19 20  1  0  0  0  0
 19 21  1  0  0  0  0
 19 22  1  0  0  0  0
 20 29  1  0  0  0  0
 21 30  1  0  0  0  0
 22 23  4  0  0  0  0
 22 27  4  0  0  0  0
 23 24  4  0  0  0  0
 23 31  1  0  0  0  0
 24 25  4  0  0  0  0
 24 32  1  0  0  0  0
 25 26  4  0  0  0  0
 25 28  1  0  0  0  0
 26 27  4  0  0  0  0
 26 33  1  0  0  0  0
 27 34  1  0  0  0  0
 28 35  1  0  0  0  0
 28 36  1  0  0  0  0
M  END
> <BCLConfClusterSize>
1

> <ConfClashScore>
0 

> <ConfOneFourInteractionScore>
-0.954617 

> <ConfScore>
-0.226213 

> <ConfScorePBest>
0.00754903 

> <ConfTolerance>
0.301017 

> <RosettaParamsInstructions>
M  ROOT 3
M  POLY_N_BB 3
M  POLY_CA_BB 4
M  POLY_C_BB 2
M  POLY_O_BB 5
M  POLY_IGNORE 9 10 11 12 13 14 15 16 17 18 
M  POLY_UPPER 6
M  POLY_LOWER 8
M  POLY_CHG 0
M  POLY_PROPERTIES ALPHA_AA L_AA PROTEIN AROMATIC POLYMER 
M  END

$$$$



 36 36  0  0  0  0  0  0  0  0999 V2000
    0.5356    3.3732    0.9289 H   0  0  0  1  0  0  0  0  0  0  0  0
    0.6162    1.2609    1.0664 C   0  0  0  1  0  0  0  0  0  0  0  0
   -0.2260    2.5703   -0.8182 N   0  0  0  1  0  0  0  0  0  0  0  0
   -0.0764    2.5483    0.6292 C   0  0  0  1  0  0  0  0  0  0  0  0
    1.4408    1.2724    1.9794 O   0  0  0  1  0  0  0  0  0  0  0  0
    0.1859    0.1524    0.4435 N   0  0  0  1  0  0  0  0  0  0  0  0
   -1.1313    2.4774   -1.1816 H   0  0  0  1  0  0  0  0  0  0  0  0
    0.7764    2.7074   -1.6875 C   0  0  0  1  0  0  0  0  0  0  0  0
    0.6781   -1.1733    0.7872 C   0  0  0  1  0  0  0  0  0  0  0  0
    0.4202    2.4838   -3.1443 C   0  0  0  1  0  0  0  0  0  0  0  0
    1.9139    2.9942   -1.3504 O   0  0  0  1  0  0  0  0  0  0  0  0
   -0.4830    0.2389   -0.2675 H   0  0  0  1  0  0  0  0  0  0  0  0
    1.4941   -1.4291    0.1442 H   0  0  0  1  0  0  0  0  0  0  0  0
   -0.1088   -1.8881    0.6661 H   0  0  0  1  0  0  0  0  0  0  0  0
    1.0109   -1.1773    1.8042 H   0  0  0  1  0  0  0  0  0  0  0  0
    0.0116    3.3837   -3.5543 H   0  0  0  1  0  0  0  0  0  0  0  0
   -0.3026    1.6982   -3.2179 H   0  0  0  1  0  0  0  0  0  0  0  0
    1.3002    2.2116   -3.6887 H   0  0  0  1  0  0  0  0  0  0  0  0
   -4.1239    7.8220    0.4285 B   0  0  0  1  0  0  0  0  0  0  0  0
   -3.9213    8.9114    1.2139 O   0  0  0  1  0  0  0  0  0  0  0  0
   -5.0363    7.9105   -0.5897 O   0  0  0  1  0  0  0  0  0  0  0  0
   -3.4279    6.4180    0.7081 C   0  0  0  1  0  0  0  0  0  0  0  0
   -2.5328    6.2909    1.7536 C   0  0  0  1  0  0  0  0  0  0  0  0
   -1.8584    5.0954    1.9474 C   0  0  0  1  0  0  0  0  0  0  0  0
   -2.0771    4.0323    1.0917 C   0  0  0  1  0  0  0  0  0  0  0  0
   -2.9747    4.1596    0.0431 C   0  0  0  1  0  0  0  0  0  0  0  0
   -3.6470    5.3516   -0.1499 C   0  0  0  1  0  0  0  0  0  0  0  0
   -1.4353    2.6902    1.3218 C   0  0  0  1  0  0  0  0  0  0  0  0
   -4.6143    8.9622    1.8763 H   0  0  0  1  0  0  0  0  0  0  0  0
   -5.6226    7.1509   -0.5615 H   0  0  0  1  0  0  0  0  0  0  0  0
   -2.3654    7.0922    2.3951 H   0  0  0  1  0  0  0  0  0  0  0  0
   -1.1880    4.9985    2.7365 H   0  0  0  1  0  0  0  0  0  0  0  0
   -3.1422    3.3583   -0.5984 H   0  0  0  1  0  0  0  0  0  0  0  0
   -4.3175    5.4485   -0.9391 H   0  0  0  1  0  0  0  0  0  0  0  0
   -1.2971    2.5547    2.3741 H   0  0  0  1  0  0  0  0  0  0  0  0
   -2.0896    1.9311    0.9468 H   0  0  0  1  0  0  0  0  0  0  0  0
  1  4  1  0  0  0  0
  2  4  1  0  0  0  0
  2  5  2  0  0  0  0
  2  6  1  0  0  0  0
  3  4  1  0  0  0  0
  3  7  1  0  0  0  0
  3  8  1  0  0  0  0
  4 28  1  0  0  0  0
  6  9  1  0  0  0  0
  6 12  1  0  0  0  0
  8 10  1  0  0  0  0
  8 11  2  0  0  0  0
  9 13  1  0  0  0  0
  9 14  1  0  0  0  0
  9 15  1  0  0  0  0
 10 16  1  0  0  0  0
 10 17  1  0  0  0  0
 10 18  1  0  0  0  0
 19 20  1  0  0  0  0
 19 21  1  0  0  0  0
 19 22  1  0  0  0  0
 20 29  1  0  0  0  0
 21 30  1  0  0  0  0
 22 23  4  0  0  0  0
 22 27  4  0  0  0  0
 23 24  4  0  0  0  0
 23 31  1  0  0  0  0
 24 25  4  0  0  0  0
 24 32  1  0  0  0  0
 25 26  4  0  0  0  0
 25 28  1  0  0  0  0
 26 27  4  0  0  0  0
 26 33  1  0  0  0  0
 27 34  1  0  0  0  0
 28 35  1  0  0  0  0
 28 36  1  0  0  0  0
M  END
> <BCLConfClusterSize>
1

> <ConfClashScore>
0 

> <ConfOneFourInteractionScore>
-0.969136 

> <ConfScore>
-0.222069 

> <ConfScorePBest>
0.00752055 

> <ConfTolerance>
0.274908 

> <RosettaParamsInstructions>
M  ROOT 3
M  POLY_N_BB 3
M  POLY_CA_BB 4
M  POLY_C_BB 2
M  POLY_O_BB 5
M  POLY_IGNORE 9 10 11 12 13 14 15 16 17 18 
M  POLY_UPPER 6
M  POLY_LOWER 8
M  POLY_CHG 0
M  POLY_PROPERTIES ALPHA_AA L_AA PROTEIN AROMATIC POLYMER 
M  END

$$$$



 36 36  0  0  0  0  0  0  0  0999 V2000
    0.5059    3.3948    0.7702 H   0  0  0  1  0  0  0  0  0  0  0  0
    0.6254    1.3126    1.1463 C   0  0  0  1  0  0  0  0  0  0  0  0
   -0.3574    2.3807   -0.8223 N   0  0  0  1  0  0  0  0  0  0  0  0
   -0.0991    2.5285    0.6022 C   0  0  0  1  0  0  0  0  0  0  0  0
    0.2910    0.2063    0.7246 O   0  0  0  1  0  0  0  0  0  0  0  0
    1.5838    1.5043    2.0502 N   0  0  0  1  0  0  0  0  0  0  0  0
   -0.8572    1.5972   -1.1336 H   0  0  0  1  0  0  0  0  0  0  0  0
    0.0630    3.2759   -1.7205 C   0  0  0  1  0  0  0  0  0  0  0  0
    2.2761    0.3988    2.6955 C   0  0  0  1  0  0  0  0  0  0  0  0
   -0.3182    2.9931   -3.1606 C   0  0  0  1  0  0  0  0  0  0  0  0
    0.7174    4.2702   -1.4179 O   0  0  0  1  0  0  0  0  0  0  0  0
    1.8317    2.4217    2.2894 H   0  0  0  1  0  0  0  0  0  0  0  0
    3.3248    0.4685    2.4953 H   0  0  0  1  0  0  0  0  0  0  0  0
    1.9012   -0.5279    2.3139 H   0  0  0  1  0  0  0  0  0  0  0  0
    2.1112    0.4429    3.7518 H   0  0  0  1  0  0  0  0  0  0  0  0
    0.1119    2.0627   -3.4679 H   0  0  0  1  0  0  0  0  0  0  0  0
    0.0481    3.7793   -3.7873 H   0  0  0  1  0  0  0  0  0  0  0  0
   -1.3836    2.9376   -3.2430 H   0  0  0  1  0  0  0  0  0  0  0  0
   -4.1182    7.8171    0.4332 B   0  0  0  1  0  0  0  0  0  0  0  0
   -4.8376    8.0883   -0.6865 O   0  0  0  1  0  0  0  0  0  0  0  0
   -4.0383    8.8554    1.3078 O   0  0  0  1  0  0  0  0  0  0  0  0
   -3.4287    6.4193    0.7075 C   0  0  0  1  0  0  0  0  0  0  0  0
   -2.5331    6.2881    1.7520 C   0  0  0  1  0  0  0  0  0  0  0  0
   -1.8608    5.0909    1.9426 C   0  0  0  1  0  0  0  0  0  0  0  0
   -2.0821    4.0301    1.0846 C   0  0  0  1  0  0  0  0  0  0  0  0
   -2.9803    4.1615    0.0370 C   0  0  0  1  0  0  0  0  0  0  0  0
   -3.6505    5.3552   -0.1528 C   0  0  0  1  0  0  0  0  0  0  0  0
   -1.4119    2.6994    1.3553 C   0  0  0  1  0  0  0  0  0  0  0  0
   -5.2574    7.2840   -1.0002 H   0  0  0  1  0  0  0  0  0  0  0  0
   -4.6250    8.6948    2.0504 H   0  0  0  1  0  0  0  0  0  0  0  0
   -2.3636    7.0877    2.3951 H   0  0  0  1  0  0  0  0  0  0  0  0
   -1.1899    4.9909    2.7309 H   0  0  0  1  0  0  0  0  0  0  0  0
   -3.1498    3.3620   -0.6061 H   0  0  0  1  0  0  0  0  0  0  0  0
   -4.3214    5.4552   -0.9411 H   0  0  0  1  0  0  0  0  0  0  0  0
   -1.2151    2.6244    2.4043 H   0  0  0  1  0  0  0  0  0  0  0  0
   -2.0784    1.9161    1.0600 H   0  0  0  1  0  0  0  0  0  0  0  0
  1  4  1  0  0  0  0
  2  4  1  0  0  0  0
  2  5  2  0  0  0  0
  2  6  1  0  0  0  0
  3  4  1  0  0  0  0
  3  7  1  0  0  0  0
  3  8  1  0  0  0  0
  4 28  1  0  0  0  0
  6  9  1  0  0  0  0
  6 12  1  0  0  0  0
  8 10  1  0  0  0  0
  8 11  2  0  0  0  0
  9 13  1  0  0  0  0
  9 14  1  0  0  0  0
  9 15  1  0  0  0  0
 10 16  1  0  0  0  0
 10 17  1  0  0  0  0
 10 18  1  0  0  0  0
 19 20  1  0  0  0  0
 19 21  1  0  0  0  0
 19 22  1  0  0  0  0
 20 29  1  0  0  0  0
 21 30  1  0  0  0  0
 22 23  4  0  0  0  0
 22 27  4  0  0  0  0
 23 24  4  0  0  0  0
 23 31  1  0  0  0  0
 24 25  4  0  0  0  0
 24 32  1  0  0  0  0
 25 26  4  0  0  0  0
 25 28  1  0  0  0  0
 26 27  4  0  0  0  0
 26 33  1  0  0  0  0
 27 34  1  0  0  0  0
 28 35  1  0  0  0  0
 28 36  1  0  0  0  0
M  END
> <BCLConfClusterSize>
1

> <ConfClashScore>
0 

> <ConfOneFourInteractionScore>
-0.989599 

> <ConfScore>
-0.221421 

> <ConfScorePBest>
0.00749207 

> <ConfTolerance>
0.238774 

> <RosettaParamsInstructions>
M  ROOT 3
M  POLY_N_BB 3
M  POLY_CA_BB 4
M  POLY_C_BB 2
M  POLY_O_BB 5
M  POLY_IGNORE 9 10 11 12 13 14 15 16 17 18 
M  POLY_UPPER 6
M  POLY_LOWER 8
M  POLY_CHG 0
M  POLY_PROPERTIES ALPHA_AA L_AA PROTEIN AROMATIC POLYMER 
M  END

$$$$



 36 36  0  0  0  0  0  0  0  0999 V2000
   -3.2434    1.8231    1.8689 H   0  0  0  1  0  0  0  0  0  0  0  0
   -1.7944    0.3200    2.0963 C   0  0  0  1  0  0  0  0  0  0  0  0
   -2.2514    2.1922    3.6249 N   0  0  0  1  0  0  0  0  0  0  0  0
   -2.2380    1.7724    2.2315 C   0  0  0  1  0  0  0  0  0  0  0  0
   -2.0924   -0.3408    1.1022 O   0  0  0  1  0  0  0  0  0  0  0  0
   -1.0710   -0.2140    3.0922 N   0  0  0  1  0  0  0  0  0  0  0  0
   -1.6188    2.8811    3.9174 H   0  0  0  1  0  0  0  0  0  0  0  0
   -3.0962    1.6711    4.5192 C   0  0  0  1  0  0  0  0  0  0  0  0
   -0.4821   -1.5447    3.0734 C   0  0  0  1  0  0  0  0  0  0  0  0
   -2.8882    2.1101    5.9556 C   0  0  0  1  0  0  0  0  0  0  0  0
   -3.9901    0.8854    4.2160 O   0  0  0  1  0  0  0  0  0  0  0  0
   -0.9284    0.3334    3.8925 H   0  0  0  1  0  0  0  0  0  0  0  0
    0.2272   -1.6102    2.2750 H   0  0  0  1  0  0  0  0  0  0  0  0
   -1.2521   -2.2731    2.9268 H   0  0  0  1  0  0  0  0  0  0  0  0
    0.0115   -1.7292    4.0047 H   0  0  0  1  0  0  0  0  0  0  0  0
   -3.8382    2.2396    6.4306 H   0  0  0  1  0  0  0  0  0  0  0  0
   -2.3526    3.0363    5.9712 H   0  0  0  1  0  0  0  0  0  0  0  0
   -2.3269    1.3641    6.4785 H   0  0  0  1  0  0  0  0  0  0  0  0
   -4.0990    7.8206    0.4085 B   0  0  0  1  0  0  0  0  0  0  0  0
   -4.7635    7.9608   -0.7586 O   0  0  0  1  0  0  0  0  0  0  0  0
   -4.0374    8.8909    1.2513 O   0  0  0  1  0  0  0  0  0  0  0  0
   -3.4360    6.4168    0.7156 C   0  0  0  1  0  0  0  0  0  0  0  0
   -2.5377    6.2858    1.7578 C   0  0  0  1  0  0  0  0  0  0  0  0
   -1.8607    5.0905    1.9434 C   0  0  0  1  0  0  0  0  0  0  0  0
   -2.0801    4.0314    1.0829 C   0  0  0  1  0  0  0  0  0  0  0  0
   -2.9810    4.1626    0.0376 C   0  0  0  1  0  0  0  0  0  0  0  0
   -3.6559    5.3544   -0.1473 C   0  0  0  1  0  0  0  0  0  0  0  0
   -1.4046    2.7023    1.3483 C   0  0  0  1  0  0  0  0  0  0  0  0
   -4.1339    8.0161   -1.4812 H   0  0  0  1  0  0  0  0  0  0  0  0
   -4.4447    8.6622    2.0900 H   0  0  0  1  0  0  0  0  0  0  0  0
   -2.3697    7.0841    2.4028 H   0  0  0  1  0  0  0  0  0  0  0  0
   -1.1877    4.9906    2.7300 H   0  0  0  1  0  0  0  0  0  0  0  0
   -3.1491    3.3643   -0.6074 H   0  0  0  1  0  0  0  0  0  0  0  0
   -4.3288    5.4542   -0.9339 H   0  0  0  1  0  0  0  0  0  0  0  0
   -1.2298    2.2160    0.4114 H   0  0  0  1  0  0  0  0  0  0  0  0
   -0.4696    2.8866    1.8349 H   0  0  0  1  0  0  0  0  0  0  0  0
  1  4  1  0  0  0  0
  2  4  1  0  0  0  0
  2  5  2  0  0  0  0
  2  6  1  0  0  0  0
  3  4  1  0  0  0  0
  3  7  1  0  0  0  0
  3  8  1  0  0  0  0
  4 28  1  0  0  0  0
  6  9  1  0  0  0  0
  6 12  1  0  0  0  0
  8 10  1  0  0  0  0
  8 11  2  0  0  0  0
  9 13  1  0  0  0  0
  9 14  1  0  0  0  0
  9 15  1  0  0  0  0
 10 16  1  0  0  0  0
 10 17  1  0  0  0  0
 10 18  1  0  0  0  0
 19 20  1  0  0  0  0
 19 21  1  0  0  0  0
 19 22  1  0  0  0  0
 20 29  1  0  0  0  0
 21 30  1  0  0  0  0
 22 23  4  0  0  0  0
 22 27  4  0  0  0  0
 23 24  4  0  0  0  0
 23 31  1  0  0  0  0
 24 25  4  0  0  0  0
 24 32  1  0  0  0  0
 25 26  4  0  0  0  0
 25 28  1  0  0  0  0
 26 27  4  0  0  0  0
 26 33  1  0  0  0  0
 27 34  1  0  0  0  0
 28 35  1  0  0  0  0
 28 36  1  0  0  0  0
M  END
> <BCLConfClusterSize>
1

> <ConfClashScore>
0 

> <ConfOneFourInteractionScore>
-0.969136 

> <ConfScore>
-0.219301 

> <ConfScorePBest>
0.00746359 

> <ConfTolerance>
0.261855 

> <RosettaParamsInstructions>
M  ROOT 3
M  POLY_N_BB 3
M  POLY_CA_BB 4
M  POLY_C_BB 2
M  POLY_O_BB 5
M  POLY_IGNORE 9 10 11 12 13 14 15 16 17 18 
M  POLY_UPPER 6
M  POLY_LOWER 8
M  POLY_CHG 0
M  POLY_PROPERTIES ALPHA_AA L_AA PROTEIN AROMATIC POLYMER 
M  END

$$$$



 36 36  0  0  0  0  0  0  0  0999 V2000
    0.0413    2.9564   -0.1849 H   0  0  0  1  0  0  0  0  0  0  0  0
    0.9181    3.6218    1.6249 C   0  0  0  1  0  0  0  0  0  0  0  0
    0.5763    1.3018    0.9346 N   0  0  0  1  0  0  0  0  0  0  0  0
    0.0398    2.6514    0.8407 C   0  0  0  1  0  0  0  0  0  0  0  0
    1.1989    4.7291    1.1681 O   0  0  0  1  0  0  0  0  0  0  0  0
    1.3740    3.2311    2.8257 N   0  0  0  1  0  0  0  0  0  0  0  0
    0.0872    0.6339    1.4590 H   0  0  0  1  0  0  0  0  0  0  0  0
    1.7124    0.9418    0.3306 C   0  0  0  1  0  0  0  0  0  0  0  0
    2.1322    4.1179    3.6955 C   0  0  0  1  0  0  0  0  0  0  0  0
    2.2286   -0.4658    0.5569 C   0  0  0  1  0  0  0  0  0  0  0  0
    2.3667    1.6848   -0.3997 O   0  0  0  1  0  0  0  0  0  0  0  0
    1.1898    2.3170    3.1269 H   0  0  0  1  0  0  0  0  0  0  0  0
    2.8252    4.6855    3.1103 H   0  0  0  1  0  0  0  0  0  0  0  0
    2.6672    3.5372    4.4175 H   0  0  0  1  0  0  0  0  0  0  0  0
    1.4615    4.7831    4.1981 H   0  0  0  1  0  0  0  0  0  0  0  0
    3.1679   -0.5862    0.0588 H   0  0  0  1  0  0  0  0  0  0  0  0
    1.5249   -1.1707    0.1657 H   0  0  0  1  0  0  0  0  0  0  0  0
    2.3572   -0.6340    1.6057 H   0  0  0  1  0  0  0  0  0  0  0  0
   -4.0990    7.8208    0.4085 B   0  0  0  1  0  0  0  0  0  0  0  0
   -3.8594    8.9074    1.1406 O   0  0  0  1  0  0  0  0  0  0  0  0
   -4.8813    7.9615   -0.6950 O   0  0  0  1  0  0  0  0  0  0  0  0
   -3.4360    6.4168    0.7156 C   0  0  0  1  0  0  0  0  0  0  0  0
   -2.5377    6.2858    1.7578 C   0  0  0  1  0  0  0  0  0  0  0  0
   -1.8607    5.0905    1.9434 C   0  0  0  1  0  0  0  0  0  0  0  0
   -2.0801    4.0314    1.0829 C   0  0  0  1  0  0  0  0  0  0  0  0
   -2.9810    4.1626    0.0376 C   0  0  0  1  0  0  0  0  0  0  0  0
   -3.6559    5.3544   -0.1473 C   0  0  0  1  0  0  0  0  0  0  0  0
   -1.4046    2.7023    1.3483 C   0  0  0  1  0  0  0  0  0  0  0  0
   -4.6852    9.2404    1.4996 H   0  0  0  1  0  0  0  0  0  0  0  0
   -4.4773    8.5917   -1.2960 H   0  0  0  1  0  0  0  0  0  0  0  0
   -2.3696    7.0841    2.4028 H   0  0  0  1  0  0  0  0  0  0  0  0
   -1.1877    4.9906    2.7300 H   0  0  0  1  0  0  0  0  0  0  0  0
   -3.1490    3.3642   -0.6074 H   0  0  0  1  0  0  0  0  0  0  0  0
   -4.3288    5.4542   -0.9339 H   0  0  0  1  0  0  0  0  0  0  0  0
   -1.4010    2.5268    2.4038 H   0  0  0  1  0  0  0  0  0  0  0  0
   -1.9645    1.9322    0.8601 H   0  0  0  1  0  0  0  0  0  0  0  0
  1  4  1  0  0  0  0
  2  4  1  0  0  0  0
  2  5  2  0  0  0  0
  2  6  1  0  0  0  0
  3  4  1  0  0  0  0
  3  7  1  0  0  0  0
  3  8  1  0  0  0  0
  4 28  1  0  0  0  0
  6  9  1  0  0  0  0
  6 12  1  0  0  0  0
  8 10  1  0  0  0  0
  8 11  2  0  0  0  0
  9 13  1  0  0  0  0
  9 14  1  0  0  0  0
  9 15  1  0  0  0  0
 10 16  1  0  0  0  0
 10 17  1  0  0  0  0
 10 18  1  0  0  0  0
 19 20  1  0  0  0  0
 19 21  1  0  0  0  0
 19 22  1  0  0  0  0
 20 29  1  0  0  0  0
 21 30  1  0  0  0  0
 22 23  4  0  0  0  0
 22 27  4  0  0  0  0
 23 24  4  0  0  0  0
 23 31  1  0  0  0  0
 24 25  4  0  0  0  0
 24 32  1  0  0  0  0
 25 26  4  0  0  0  0
 25 28  1  0  0  0  0
 26 27  4  0  0  0  0
 26 33  1  0  0  0  0
 27 34  1  0  0  0  0
 28 35  1  0  0  0  0
 28 36  1  0  0  0  0
M  END
> <BCLConfClusterSize>
1

> <ConfClashScore>
0 

> <ConfOneFourInteractionScore>
-0.969136 

> <ConfScore>
-0.219174 

> <ConfScorePBest>
0.0074351 

> <ConfTolerance>
0.233255 

> <RosettaParamsInstructions>
M  ROOT 3
M  POLY_N_BB 3
M  POLY_CA_BB 4
M  POLY_C_BB 2
M  POLY_O_BB 5
M  POLY_IGNORE 9 10 11 12 13 14 15 16 17 18 
M  POLY_UPPER 6
M  POLY_LOWER 8
M  POLY_CHG 0
M  POLY_PROPERTIES ALPHA_AA L_AA PROTEIN AROMATIC POLYMER 
M  END

$$$$



 36 36  0  0  0  0  0  0  0  0999 V2000
    0.5401    3.3812    0.9484 H   0  0  0  1  0  0  0  0  0  0  0  0
    0.6581    1.3067    1.2753 C   0  0  0  1  0  0  0  0  0  0  0  0
   -0.1109    2.3997   -0.7414 N   0  0  0  1  0  0  0  0  0  0  0  0
   -0.0496    2.5216    0.7074 C   0  0  0  1  0  0  0  0  0  0  0  0
    1.2456    1.3571    2.3527 O   0  0  0  1  0  0  0  0  0  0  0  0
    0.5961    0.1933    0.5279 N   0  0  0  1  0  0  0  0  0  0  0  0
   -0.9874    2.4045   -1.1798 H   0  0  0  1  0  0  0  0  0  0  0  0
    0.9969    2.2803   -1.5022 C   0  0  0  1  0  0  0  0  0  0  0  0
    1.1924   -1.0849    0.8862 C   0  0  0  1  0  0  0  0  0  0  0  0
    0.8238    2.1974   -3.0019 C   0  0  0  1  0  0  0  0  0  0  0  0
    2.1162    2.2398   -0.9930 O   0  0  0  1  0  0  0  0  0  0  0  0
    0.1129    0.2452   -0.3231 H   0  0  0  1  0  0  0  0  0  0  0  0
    2.0699   -0.9172    1.4751 H   0  0  0  1  0  0  0  0  0  0  0  0
    1.4567   -1.6169   -0.0037 H   0  0  0  1  0  0  0  0  0  0  0  0
    0.4889   -1.6606    1.4508 H   0  0  0  1  0  0  0  0  0  0  0  0
   -0.0978    1.7032   -3.2283 H   0  0  0  1  0  0  0  0  0  0  0  0
    1.6373    1.6457   -3.4246 H   0  0  0  1  0  0  0  0  0  0  0  0
    0.8094    3.1848   -3.4141 H   0  0  0  1  0  0  0  0  0  0  0  0
   -4.1178    7.8164    0.4333 B   0  0  0  1  0  0  0  0  0  0  0  0
   -5.2794    7.8686   -0.2685 O   0  0  0  1  0  0  0  0  0  0  0  0
   -3.6262    9.0115    0.8569 O   0  0  0  1  0  0  0  0  0  0  0  0
   -3.4282    6.4185    0.7076 C   0  0  0  1  0  0  0  0  0  0  0  0
   -2.5327    6.2874    1.7522 C   0  0  0  1  0  0  0  0  0  0  0  0
   -1.8604    5.0902    1.9427 C   0  0  0  1  0  0  0  0  0  0  0  0
   -2.0818    4.0294    1.0848 C   0  0  0  1  0  0  0  0  0  0  0  0
   -2.9799    4.1608    0.0372 C   0  0  0  1  0  0  0  0  0  0  0  0
   -3.6501    5.3545   -0.1526 C   0  0  0  1  0  0  0  0  0  0  0  0
   -1.4162    2.7077    1.3537 C   0  0  0  1  0  0  0  0  0  0  0  0
   -5.8351    7.1250   -0.0242 H   0  0  0  1  0  0  0  0  0  0  0  0
   -4.3077    9.4856    1.3390 H   0  0  0  1  0  0  0  0  0  0  0  0
   -2.3632    7.0870    2.3952 H   0  0  0  1  0  0  0  0  0  0  0  0
   -1.1895    4.9902    2.7311 H   0  0  0  1  0  0  0  0  0  0  0  0
   -3.1494    3.3612   -0.6059 H   0  0  0  1  0  0  0  0  0  0  0  0
   -4.3210    5.4544   -0.9410 H   0  0  0  1  0  0  0  0  0  0  0  0
   -1.2971    2.6074    2.4123 H   0  0  0  1  0  0  0  0  0  0  0  0
   -2.0606    1.9340    0.9918 H   0  0  0  1  0  0  0  0  0  0  0  0
  1  4  1  0  0  0  0
  2  4  1  0  0  0  0
  2  5  2  0  0  0  0
  2  6  1  0  0  0  0
  3  4  1  0  0  0  0
  3  7  1  0  0  0  0
  3  8  1  0  0  0  0
  4 28  1  0  0  0  0
  6  9  1  0  0  0  0
  6 12  1  0  0  0  0
  8 10  1  0  0  0  0
  8 11  2  0  0  0  0
  9 13  1  0  0  0  0
  9 14  1  0  0  0  0
  9 15  1  0  0  0  0
 10 16  1  0  0  0  0
 10 17  1  0  0  0  0
 10 18  1  0  0  0  0
 19 20  1  0  0  0  0
 19 21  1  0  0  0  0
 19 22  1  0  0  0  0
 20 29  1  0  0  0  0
 21 30  1  0  0  0  0
 22 23  4  0  0  0  0
 22 27  4  0  0  0  0
 23 24  4  0  0  0  0
 23 31  1  0  0  0  0
 24 25  4  0  0  0  0
 24 32  1  0  0  0  0
 25 26  4  0  0  0  0
 25 28  1  0  0  0  0
 26 27  4  0  0  0  0
 26 33  1  0  0  0  0
 27 34  1  0  0  0  0
 28 35  1  0  0  0  0
 28 36  1  0  0  0  0
M  END
> <BCLConfClusterSize>
1

> <ConfClashScore>
0 

> <ConfOneFourInteractionScore>
-0.954617 

> <ConfScore>
-0.218627 

> <ConfScorePBest>
0.00740662 

> <ConfTolerance>
0.315307 

> <RosettaParamsInstructions>
M  ROOT 3
M  POLY_N_BB 3
M  POLY_CA_BB 4
M  POLY_C_BB 2
M  POLY_O_BB 5
M  POLY_IGNORE 9 10 11 12 13 14 15 16 17 18 
M  POLY_UPPER 6
M  POLY_LOWER 8
M  POLY_CHG 0
M  POLY_PROPERTIES ALPHA_AA L_AA PROTEIN AROMATIC POLYMER 
M  END

$$$$



 36 36  0  0  0  0  0  0  0  0999 V2000
   -0.2611    2.7464   -0.4238 H   0  0  0  1  0  0  0  0  0  0  0  0
    0.9033    3.5707    1.1292 C   0  0  0  1  0  0  0  0  0  0  0  0
    0.3814    1.1692    0.7488 N   0  0  0  1  0  0  0  0  0  0  0  0
   -0.0857    2.5442    0.6122 C   0  0  0  1  0  0  0  0  0  0  0  0
    1.0109    4.6764    0.6005 O   0  0  0  1  0  0  0  0  0  0  0  0
    1.6388    3.1912    2.1862 N   0  0  0  1  0  0  0  0  0  0  0  0
   -0.2251    0.5242    1.1689 H   0  0  0  1  0  0  0  0  0  0  0  0
    1.5720    0.7234    0.3448 C   0  0  0  1  0  0  0  0  0  0  0  0
    2.5906    4.0832    2.8315 C   0  0  0  1  0  0  0  0  0  0  0  0
    1.8619   -0.7364    0.6348 C   0  0  0  1  0  0  0  0  0  0  0  0
    2.4000    1.4405   -0.2313 O   0  0  0  1  0  0  0  0  0  0  0  0
    1.5311    2.2819    2.5354 H   0  0  0  1  0  0  0  0  0  0  0  0
    2.1997    5.0792    2.8368 H   0  0  0  1  0  0  0  0  0  0  0  0
    3.5157    4.0662    2.2942 H   0  0  0  1  0  0  0  0  0  0  0  0
    2.7561    3.7599    3.8380 H   0  0  0  1  0  0  0  0  0  0  0  0
    1.6002   -1.3286   -0.2171 H   0  0  0  1  0  0  0  0  0  0  0  0
    1.2864   -1.0531    1.4795 H   0  0  0  1  0  0  0  0  0  0  0  0
    2.9036   -0.8576    0.8467 H   0  0  0  1  0  0  0  0  0  0  0  0
   -4.1143    7.8094    0.4346 B   0  0  0  1  0  0  0  0  0  0  0  0
   -4.7806    7.9670   -0.7383 O   0  0  0  1  0  0  0  0  0  0  0  0
   -4.0775    8.8560    1.3022 O   0  0  0  1  0  0  0  0  0  0  0  0
   -3.4286    6.4192    0.7075 C   0  0  0  1  0  0  0  0  0  0  0  0
   -2.5330    6.2881    1.7520 C   0  0  0  1  0  0  0  0  0  0  0  0
   -1.8607    5.0908    1.9426 C   0  0  0  1  0  0  0  0  0  0  0  0
   -2.0821    4.0300    1.0847 C   0  0  0  1  0  0  0  0  0  0  0  0
   -2.9803    4.1614    0.0371 C   0  0  0  1  0  0  0  0  0  0  0  0
   -3.6504    5.3552   -0.1528 C   0  0  0  1  0  0  0  0  0  0  0  0
   -1.4163    2.7079    1.3537 C   0  0  0  1  0  0  0  0  0  0  0  0
   -5.6302    8.3815   -0.5711 H   0  0  0  1  0  0  0  0  0  0  0  0
   -3.5729    9.5753    0.9154 H   0  0  0  1  0  0  0  0  0  0  0  0
   -2.3635    7.0876    2.3951 H   0  0  0  1  0  0  0  0  0  0  0  0
   -1.1899    4.9909    2.7310 H   0  0  0  1  0  0  0  0  0  0  0  0
   -3.1498    3.3619   -0.6060 H   0  0  0  1  0  0  0  0  0  0  0  0
   -4.3213    5.4551   -0.9412 H   0  0  0  1  0  0  0  0  0  0  0  0
   -1.2328    2.6266    2.4047 H   0  0  0  1  0  0  0  0  0  0  0  0
   -2.0769    1.9248    1.0448 H   0  0  0  1  0  0  0  0  0  0  0  0
  1  4  1  0  0  0  0
  2  4  1  0  0  0  0
  2  5  2  0  0  0  0
  2  6  1  0  0  0  0
  3  4  1  0  0  0  0
  3  7  1  0  0  0  0
  3  8  1  0  0  0  0
  4 28  1  0  0  0  0
  6  9  1  0  0  0  0
  6 12  1  0  0  0  0
  8 10  1  0  0  0  0
  8 11  2  0  0  0  0
  9 13  1  0  0  0  0
  9 14  1  0  0  0  0
  9 15  1  0  0  0  0
 10 16  1  0  0  0  0
 10 17  1  0  0  0  0
 10 18  1  0  0  0  0
 19 20  1  0  0  0  0
 19 21  1  0  0  0  0
 19 22  1  0  0  0  0
 20 29  1  0  0  0  0
 21 30  1  0  0  0  0
 22 23  4  0  0  0  0
 22 27  4  0  0  0  0
 23 24  4  0  0  0  0
 23 31  1  0  0  0  0
 24 25  4  0  0  0  0
 24 32  1  0  0  0  0
 25 26  4  0  0  0  0
 25 28  1  0  0  0  0
 26 27  4  0  0  0  0
 26 33  1  0  0  0  0
 27 34  1  0  0  0  0
 28 35  1  0  0  0  0
 28 36  1  0  0  0  0
M  END
> <BCLConfClusterSize>
1

> <ConfClashScore>
0 

> <ConfOneFourInteractionScore>
-0.969136 

> <ConfScore>
-0.218464 

> <ConfScorePBest>
0.00737814 

> <ConfTolerance>
0.245645 

> <RosettaParamsInstructions>
M  ROOT 3
M  POLY_N_BB 3
M  POLY_CA_BB 4
M  POLY_C_BB 2
M  POLY_O_BB 5
M  POLY_IGNORE 9 10 11 12 13 14 15 16 17 18 
M  POLY_UPPER 6
M  POLY_LOWER 8
M  POLY_CHG 0
M  POLY_PROPERTIES ALPHA_AA L_AA PROTEIN AROMATIC POLYMER 
M  END

$$$$



 36 36  0  0  0  0  0  0  0  0999 V2000
   -3.1460    1.7136    2.0707 H   0  0  0  1  0  0  0  0  0  0  0  0
   -1.5041    0.4874    2.5326 C   0  0  0  1  0  0  0  0  0  0  0  0
   -2.1606    2.5952    3.6466 N   0  0  0  1  0  0  0  0  0  0  0  0
   -2.1356    1.8587    2.3916 C   0  0  0  1  0  0  0  0  0  0  0  0
   -1.3208   -0.2348    1.5535 O   0  0  0  1  0  0  0  0  0  0  0  0
   -1.1661    0.1265    3.7806 N   0  0  0  1  0  0  0  0  0  0  0  0
   -1.3856    3.1441    3.8884 H   0  0  0  1  0  0  0  0  0  0  0  0
   -3.2137    2.5486    4.4887 C   0  0  0  1  0  0  0  0  0  0  0  0
   -0.6998   -1.2291    4.0500 C   0  0  0  1  0  0  0  0  0  0  0  0
   -3.1793    3.4291    5.7226 C   0  0  0  1  0  0  0  0  0  0  0  0
   -4.1732    1.8154    4.2647 O   0  0  0  1  0  0  0  0  0  0  0  0
   -1.2329    0.7751    4.5122 H   0  0  0  1  0  0  0  0  0  0  0  0
   -1.2699   -1.9247    3.4704 H   0  0  0  1  0  0  0  0  0  0  0  0
   -0.8217   -1.4477    5.0903 H   0  0  0  1  0  0  0  0  0  0  0  0
    0.3342   -1.3091    3.7870 H   0  0  0  1  0  0  0  0  0  0  0  0
   -2.2294    3.9175    5.7865 H   0  0  0  1  0  0  0  0  0  0  0  0
   -3.3299    2.8272    6.5943 H   0  0  0  1  0  0  0  0  0  0  0  0
   -3.9543    4.1641    5.6578 H   0  0  0  1  0  0  0  0  0  0  0  0
   -4.1458    7.8080    0.3910 B   0  0  0  1  0  0  0  0  0  0  0  0
   -4.9424    8.0012   -0.6995 O   0  0  0  1  0  0  0  0  0  0  0  0
   -3.9445    8.8318    1.2538 O   0  0  0  1  0  0  0  0  0  0  0  0
   -3.4239    6.4221    0.7162 C   0  0  0  1  0  0  0  0  0  0  0  0
   -2.5280    6.2905    1.7604 C   0  0  0  1  0  0  0  0  0  0  0  0
   -1.8555    5.0932    1.9501 C   0  0  0  1  0  0  0  0  0  0  0  0
   -2.0770    4.0329    1.0917 C   0  0  0  1  0  0  0  0  0  0  0  0
   -2.9755    4.1647    0.0444 C   0  0  0  1  0  0  0  0  0  0  0  0
   -3.6459    5.3584   -0.1446 C   0  0  0  1  0  0  0  0  0  0  0  0
   -1.4336    2.6809    1.3188 C   0  0  0  1  0  0  0  0  0  0  0  0
   -5.8622    8.0202   -0.4252 H   0  0  0  1  0  0  0  0  0  0  0  0
   -3.0582    8.7743    1.6181 H   0  0  0  1  0  0  0  0  0  0  0  0
   -2.3584    7.0897    2.4038 H   0  0  0  1  0  0  0  0  0  0  0  0
   -1.1845    4.9929    2.7383 H   0  0  0  1  0  0  0  0  0  0  0  0
   -3.1451    3.3655   -0.5990 H   0  0  0  1  0  0  0  0  0  0  0  0
   -4.3170    5.4587   -0.9328 H   0  0  0  1  0  0  0  0  0  0  0  0
   -1.4580    2.1335    0.3998 H   0  0  0  1  0  0  0  0  0  0  0  0
   -0.4173    2.8332    1.6170 H   0  0  0  1  0  0  0  0  0  0  0  0
  1  4  1  0  0  0  0
  2  4  1  0  0  0  0
  2  5  2  0  0  0  0
  2  6  1  0  0  0  0
  3  4  1  0  0  0  0
  3  7  1  0  0  0  0
  3  8  1  0  0  0  0
  4 28  1  0  0  0  0
  6  9  1  0  0  0  0
  6 12  1  0  0  0  0
  8 10  1  0  0  0  0
  8 11  2  0  0  0  0
  9 13  1  0  0  0  0
  9 14  1  0  0  0  0
  9 15  1  0  0  0  0
 10 16  1  0  0  0  0
 10 17  1  0  0  0  0
 10 18  1  0  0  0  0
 19 20  1  0  0  0  0
 19 21  1  0  0  0  0
 19 22  1  0  0  0  0
 20 29  1  0  0  0  0
 21 30  1  0  0  0  0
 22 23  4  0  0  0  0
 22 27  4  0  0  0  0
 23 24  4  0  0  0  0
 23 31  1  0  0  0  0
 24 25  4  0  0  0  0
 24 32  1  0  0  0  0
 25 26  4  0  0  0  0
 25 28  1  0  0  0  0
 26 27  4  0  0  0  0
 26 33  1  0  0  0  0
 27 34  1  0  0  0  0
 28 35  1  0  0  0  0
 28 36  1  0  0  0  0
M  END
> <BCLConfClusterSize>
1

> <ConfClashScore>
0 

> <ConfOneFourInteractionScore>
-0.951603 

> <ConfScore>
-0.208866 

> <ConfScorePBest>
0.00734966 

> <ConfTolerance>
0.245331 

> <RosettaParamsInstructions>
M  ROOT 3
M  POLY_N_BB 3
M  POLY_CA_BB 4
M  POLY_C_BB 2
M  POLY_O_BB 5
M  POLY_IGNORE 9 10 11 12 13 14 15 16 17 18 
M  POLY_UPPER 6
M  POLY_LOWER 8
M  POLY_CHG 0
M  POLY_PROPERTIES ALPHA_AA L_AA PROTEIN AROMATIC POLYMER 
M  END

$$$$



 36 36  0  0  0  0  0  0  0  0999 V2000
   -3.1821    1.7611    2.0288 H   0  0  0  1  0  0  0  0  0  0  0  0
   -1.5889    0.4450    2.4698 C   0  0  0  1  0  0  0  0  0  0  0  0
   -2.1509    2.5223    3.6511 N   0  0  0  1  0  0  0  0  0  0  0  0
   -2.1692    1.8450    2.3631 C   0  0  0  1  0  0  0  0  0  0  0  0
   -0.7741    0.1614    3.3323 O   0  0  0  1  0  0  0  0  0  0  0  0
   -2.0306   -0.4401    1.5622 N   0  0  0  1  0  0  0  0  0  0  0  0
   -1.3659    3.0687    3.8645 H   0  0  0  1  0  0  0  0  0  0  0  0
   -3.1236    2.4551    4.5644 C   0  0  0  1  0  0  0  0  0  0  0  0
   -1.4546   -1.7752    1.5030 C   0  0  0  1  0  0  0  0  0  0  0  0
   -2.9471    3.3425    5.7812 C   0  0  0  1  0  0  0  0  0  0  0  0
   -4.0994    1.7318    4.4442 O   0  0  0  1  0  0  0  0  0  0  0  0
   -2.7425   -0.1866    0.9382 H   0  0  0  1  0  0  0  0  0  0  0  0
   -0.4143   -1.7265    1.7486 H   0  0  0  1  0  0  0  0  0  0  0  0
   -1.5694   -2.1694    0.5149 H   0  0  0  1  0  0  0  0  0  0  0  0
   -1.9564   -2.4112    2.2019 H   0  0  0  1  0  0  0  0  0  0  0  0
   -2.0404    3.9027    5.6863 H   0  0  0  1  0  0  0  0  0  0  0  0
   -2.9006    2.7356    6.6612 H   0  0  0  1  0  0  0  0  0  0  0  0
   -3.7757    4.0154    5.8548 H   0  0  0  1  0  0  0  0  0  0  0  0
   -4.1144    7.8095    0.4346 B   0  0  0  1  0  0  0  0  0  0  0  0
   -3.9452    8.8206    1.3255 O   0  0  0  1  0  0  0  0  0  0  0  0
   -4.8567    7.9386   -0.6975 O   0  0  0  1  0  0  0  0  0  0  0  0
   -3.4290    6.4200    0.7074 C   0  0  0  1  0  0  0  0  0  0  0  0
   -2.5334    6.2888    1.7519 C   0  0  0  1  0  0  0  0  0  0  0  0
   -1.8611    5.0916    1.9424 C   0  0  0  1  0  0  0  0  0  0  0  0
   -2.0825    4.0308    1.0845 C   0  0  0  1  0  0  0  0  0  0  0  0
   -2.9807    4.1622    0.0369 C   0  0  0  1  0  0  0  0  0  0  0  0
   -3.6508    5.3560   -0.1529 C   0  0  0  1  0  0  0  0  0  0  0  0
   -1.4123    2.7001    1.3552 C   0  0  0  1  0  0  0  0  0  0  0  0
   -4.2795    8.5507    2.1839 H   0  0  0  1  0  0  0  0  0  0  0  0
   -5.1540    7.0726   -0.9862 H   0  0  0  1  0  0  0  0  0  0  0  0
   -2.3639    7.0884    2.3950 H   0  0  0  1  0  0  0  0  0  0  0  0
   -1.1902    4.9916    2.7308 H   0  0  0  1  0  0  0  0  0  0  0  0
   -3.1502    3.3627   -0.6062 H   0  0  0  1  0  0  0  0  0  0  0  0
   -4.3217    5.4559   -0.9413 H   0  0  0  1  0  0  0  0  0  0  0  0
   -1.3433    2.1599    0.4341 H   0  0  0  1  0  0  0  0  0  0  0  0
   -0.4294    2.8849    1.7354 H   0  0  0  1  0  0  0  0  0  0  0  0
  1  4  1  0  0  0  0
  2  4  1  0  0  0  0
  2  5  2  0  0  0  0
  2  6  1  0  0  0  0
  3  4  1  0  0  0  0
  3  7  1  0  0  0  0
  3  8  1  0  0  0  0
  4 28  1  0  0  0  0
  6  9  1  0  0  0  0
  6 12  1  0  0  0  0
  8 10  1  0  0  0  0
  8 11  2  0  0  0  0
  9 13  1  0  0  0  0
  9 14  1  0  0  0  0
  9 15  1  0  0  0  0
 10 16  1  0  0  0  0
 10 17  1  0  0  0  0
 10 18  1  0  0  0  0
 19 20  1  0  0  0  0
 19 21  1  0  0  0  0
 19 22  1  0  0  0  0
 20 29  1  0  0  0  0
 21 30  1  0  0  0  0
 22 23  4  0  0  0  0
 22 27  4  0  0  0  0
 23 24  4  0  0  0  0
 23 31  1  0  0  0  0
 24 25  4  0  0  0  0
 24 32  1  0  0  0  0
 25 26  4  0  0  0  0
 25 28  1  0  0  0  0
 26 27  4  0  0  0  0
 26 33  1  0  0  0  0
 27 34  1  0  0  0  0
 28 35  1  0  0  0  0
 28 36  1  0  0  0  0
M  END
> <BCLConfClusterSize>
1

> <ConfClashScore>
0 

> <ConfOneFourInteractionScore>
-0.985947 

> <ConfScore>
-0.20711 

> <ConfScorePBest>
0.00732118 

> <ConfTolerance>
0.257438 

> <RosettaParamsInstructions>
M  ROOT 3
M  POLY_N_BB 3
M  POLY_CA_BB 4
M  POLY_C_BB 2
M  POLY_O_BB 5
M  POLY_IGNORE 9 10 11 12 13 14 15 16 17 18 
M  POLY_UPPER 6
M  POLY_LOWER 8
M  POLY_CHG 0
M  POLY_PROPERTIES ALPHA_AA L_AA PROTEIN AROMATIC POLYMER 
M  END

$$$$



 36 36  0  0  0  0  0  0  0  0999 V2000
    0.4899    3.0164    0.5420 H   0  0  0  1  0  0  0  0  0  0  0  0
    0.2774    0.9394    0.7923 C   0  0  0  1  0  0  0  0  0  0  0  0
   -0.7187    2.3483   -0.9825 N   0  0  0  1  0  0  0  0  0  0  0  0
   -0.2891    2.2954    0.4069 C   0  0  0  1  0  0  0  0  0  0  0  0
    1.1368    0.8315    1.6660 O   0  0  0  1  0  0  0  0  0  0  0  0
   -0.2193   -0.1116    0.1223 N   0  0  0  1  0  0  0  0  0  0  0  0
   -1.6085    2.0102   -1.2156 H   0  0  0  1  0  0  0  0  0  0  0  0
    0.0578    2.8417   -1.9514 C   0  0  0  1  0  0  0  0  0  0  0  0
    0.2953   -1.4611    0.3009 C   0  0  0  1  0  0  0  0  0  0  0  0
   -0.6245    2.9713   -3.3145 C   0  0  0  1  0  0  0  0  0  0  0  0
    1.1979    3.2449   -1.7865 O   0  0  0  1  0  0  0  0  0  0  0  0
   -0.9542    0.0346   -0.5094 H   0  0  0  1  0  0  0  0  0  0  0  0
   -0.2455   -2.1359   -0.3292 H   0  0  0  1  0  0  0  0  0  0  0  0
    0.1768   -1.7553    1.3228 H   0  0  0  1  0  0  0  0  0  0  0  0
    1.3328   -1.4843    0.0405 H   0  0  0  1  0  0  0  0  0  0  0  0
   -1.3997    3.7066   -3.2574 H   0  0  0  1  0  0  0  0  0  0  0  0
   -1.0474    2.0285   -3.5924 H   0  0  0  1  0  0  0  0  0  0  0  0
    0.0963    3.2693   -4.0469 H   0  0  0  1  0  0  0  0  0  0  0  0
   -4.1166    7.8076    0.4313 B   0  0  0  1  0  0  0  0  0  0  0  0
   -4.9312    7.9988   -0.6676 O   0  0  0  1  0  0  0  0  0  0  0  0
   -3.8845    8.8477    1.3259 O   0  0  0  1  0  0  0  0  0  0  0  0
   -3.4284    6.4193    0.7078 C   0  0  0  1  0  0  0  0  0  0  0  0
   -2.5334    6.2922    1.7534 C   0  0  0  1  0  0  0  0  0  0  0  0
   -1.8591    5.0966    1.9471 C   0  0  0  1  0  0  0  0  0  0  0  0
   -2.0778    4.0335    1.0915 C   0  0  0  1  0  0  0  0  0  0  0  0
   -2.9754    4.1609    0.0428 C   0  0  0  1  0  0  0  0  0  0  0  0
   -3.6476    5.3529   -0.1502 C   0  0  0  1  0  0  0  0  0  0  0  0
   -1.4364    2.6920    1.3215 C   0  0  0  1  0  0  0  0  0  0  0  0
   -4.4284    8.4170   -1.3704 H   0  0  0  1  0  0  0  0  0  0  0  0
   -3.3230    8.5370    2.0399 H   0  0  0  1  0  0  0  0  0  0  0  0
   -2.3659    7.0935    2.3948 H   0  0  0  1  0  0  0  0  0  0  0  0
   -1.1886    4.9997    2.7363 H   0  0  0  1  0  0  0  0  0  0  0  0
   -3.1429    3.3595   -0.5986 H   0  0  0  1  0  0  0  0  0  0  0  0
   -4.3181    5.4498   -0.9393 H   0  0  0  1  0  0  0  0  0  0  0  0
   -1.0641    2.6830    2.3246 H   0  0  0  1  0  0  0  0  0  0  0  0
   -2.2001    1.9499    1.2173 H   0  0  0  1  0  0  0  0  0  0  0  0
  1  4  1  0  0  0  0
  2  4  1  0  0  0  0
  2  5  2  0  0  0  0
  2  6  1  0  0  0  0
  3  4  1  0  0  0  0
  3  7  1  0  0  0  0
  3  8  1  0  0  0  0
  4 28  1  0  0  0  0
  6  9  1  0  0  0  0
  6 12  1  0  0  0  0
  8 10  1  0  0  0  0
  8 11  2  0  0  0  0
  9 13  1  0  0  0  0
  9 14  1  0  0  0  0
  9 15  1  0  0  0  0
 10 16  1  0  0  0  0
 10 17  1  0  0  0  0
 10 18  1  0  0  0  0
 19 20  1  0  0  0  0
 19 21  1  0  0  0  0
 19 22  1  0  0  0  0
 20 29  1  0  0  0  0
 21 30  1  0  0  0  0
 22 23  4  0  0  0  0
 22 27  4  0  0  0  0
 23 24  4  0  0  0  0
 23 31  1  0  0  0  0
 24 25  4  0  0  0  0
 24 32  1  0  0  0  0
 25 26  4  0  0  0  0
 25 28  1  0  0  0  0
 26 27  4  0  0  0  0
 26 33  1  0  0  0  0
 27 34  1  0  0  0  0
 28 35  1  0  0  0  0
 28 36  1  0  0  0  0
M  END
> <BCLConfClusterSize>
1

> <ConfClashScore>
0 

> <ConfOneFourInteractionScore>
-0.969136 

> <ConfScore>
-0.201752 

> <ConfScorePBest>
0.0072927 

> <ConfTolerance>
0.297691 

> <RosettaParamsInstructions>
M  ROOT 3
M  POLY_N_BB 3
M  POLY_CA_BB 4
M  POLY_C_BB 2
M  POLY_O_BB 5
M  POLY_IGNORE 9 10 11 12 13 14 15 16 17 18 
M  POLY_UPPER 6
M  POLY_LOWER 8
M  POLY_CHG 0
M  POLY_PROPERTIES ALPHA_AA L_AA PROTEIN AROMATIC POLYMER 
M  END

$$$$



 36 36  0  0  0  0  0  0  0  0999 V2000
   -3.1177    1.6475    0.6993 H   0  0  0  1  0  0  0  0  0  0  0  0
   -1.8045    0.2264    1.5239 C   0  0  0  1  0  0  0  0  0  0  0  0
   -3.2325    1.8379    2.7448 N   0  0  0  1  0  0  0  0  0  0  0  0
   -2.4551    1.5992    1.5380 C   0  0  0  1  0  0  0  0  0  0  0  0
   -1.5496   -0.2790    0.4315 O   0  0  0  1  0  0  0  0  0  0  0  0
   -1.5442   -0.3579    2.6914 N   0  0  0  1  0  0  0  0  0  0  0  0
   -2.9207    2.5401    3.3532 H   0  0  0  1  0  0  0  0  0  0  0  0
   -4.3503    1.1654    3.0892 C   0  0  0  1  0  0  0  0  0  0  0  0
   -1.0509   -1.7239    2.7842 C   0  0  0  1  0  0  0  0  0  0  0  0
   -5.0613    1.5707    4.3656 C   0  0  0  1  0  0  0  0  0  0  0  0
   -4.7785    0.2571    2.3954 O   0  0  0  1  0  0  0  0  0  0  0  0
   -1.6898    0.1495    3.5171 H   0  0  0  1  0  0  0  0  0  0  0  0
   -1.4490   -2.1885    3.6621 H   0  0  0  1  0  0  0  0  0  0  0  0
    0.0176   -1.7140    2.8395 H   0  0  0  1  0  0  0  0  0  0  0  0
   -1.3587   -2.2735    1.9193 H   0  0  0  1  0  0  0  0  0  0  0  0
   -4.6088    2.4560    4.7609 H   0  0  0  1  0  0  0  0  0  0  0  0
   -4.9844    0.7803    5.0828 H   0  0  0  1  0  0  0  0  0  0  0  0
   -6.0926    1.7616    4.1539 H   0  0  0  1  0  0  0  0  0  0  0  0
   -4.1018    7.8384    0.4659 B   0  0  0  1  0  0  0  0  0  0  0  0
   -4.8924    8.1726   -0.5818 O   0  0  0  1  0  0  0  0  0  0  0  0
   -3.8389    8.7795    1.4168 O   0  0  0  1  0  0  0  0  0  0  0  0
   -3.4321    6.4147    0.7004 C   0  0  0  1  0  0  0  0  0  0  0  0
   -2.5372    6.2877    1.7461 C   0  0  0  1  0  0  0  0  0  0  0  0
   -1.8630    5.0921    1.9402 C   0  0  0  1  0  0  0  0  0  0  0  0
   -2.0817    4.0288    1.0847 C   0  0  0  1  0  0  0  0  0  0  0  0
   -2.9791    4.1560    0.0360 C   0  0  0  1  0  0  0  0  0  0  0  0
   -3.6513    5.3481   -0.1574 C   0  0  0  1  0  0  0  0  0  0  0  0
   -1.4134    2.7079    1.3577 C   0  0  0  1  0  0  0  0  0  0  0  0
   -5.6656    7.6038   -0.5940 H   0  0  0  1  0  0  0  0  0  0  0  0
   -3.5709    8.3466    2.2306 H   0  0  0  1  0  0  0  0  0  0  0  0
   -2.3697    7.0891    2.3873 H   0  0  0  1  0  0  0  0  0  0  0  0
   -1.1926    4.9953    2.7294 H   0  0  0  1  0  0  0  0  0  0  0  0
   -3.1467    3.3546   -0.6053 H   0  0  0  1  0  0  0  0  0  0  0  0
   -4.3216    5.4449   -0.9467 H   0  0  0  1  0  0  0  0  0  0  0  0
   -0.7764    2.4602    0.5344 H   0  0  0  1  0  0  0  0  0  0  0  0
   -0.8287    2.7883    2.2501 H   0  0  0  1  0  0  0  0  0  0  0  0
  1  4  1  0  0  0  0
  2  4  1  0  0  0  0
  2  5  2  0  0  0  0
  2  6  1  0  0  0  0
  3  4  1  0  0  0  0
  3  7  1  0  0  0  0
  3  8  1  0  0  0  0
  4 28  1  0  0  0  0
  6  9  1  0  0  0  0
  6 12  1  0  0  0  0
  8 10  1  0  0  0  0
  8 11  2  0  0  0  0
  9 13  1  0  0  0  0
  9 14  1  0  0  0  0
  9 15  1  0  0  0  0
 10 16  1  0  0  0  0
 10 17  1  0  0  0  0
 10 18  1  0  0  0  0
 19 20  1  0  0  0  0
 19 21  1  0  0  0  0
 19 22  1  0  0  0  0
 20 29  1  0  0  0  0
 21 30  1  0  0  0  0
 22 23  4  0  0  0  0
 22 27  4  0  0  0  0
 23 24  4  0  0  0  0
 23 31  1  0  0  0  0
 24 25  4  0  0  0  0
 24 32  1  0  0  0  0
 25 26  4  0  0  0  0
 25 28  1  0  0  0  0
 26 27  4  0  0  0  0
 26 33  1  0  0  0  0
 27 34  1  0  0  0  0
 28 35  1  0  0  0  0
 28 36  1  0  0  0  0
M  END
> <BCLConfClusterSize>
1

> <ConfClashScore>
0 

> <ConfOneFourInteractionScore>
-0.969136 

> <ConfScore>
-0.19786 

> <ConfScorePBest>
0.00726422 

> <ConfTolerance>
0.273261 

> <RosettaParamsInstructions>
M  ROOT 3
M  POLY_N_BB 3
M  POLY_CA_BB 4
M  POLY_C_BB 2
M  POLY_O_BB 5
M  POLY_IGNORE 9 10 11 12 13 14 15 16 17 18 
M  POLY_UPPER 6
M  POLY_LOWER 8
M  POLY_CHG 0
M  POLY_PROPERTIES ALPHA_AA L_AA PROTEIN AROMATIC POLYMER 
M  END

$$$$



 36 36  0  0  0  0  0  0  0  0999 V2000
   -3.1773    1.5944    1.6306 H   0  0  0  1  0  0  0  0  0  0  0  0
   -1.5776    0.3487    2.1817 C   0  0  0  1  0  0  0  0  0  0  0  0
   -2.5226    2.2338    3.4733 N   0  0  0  1  0  0  0  0  0  0  0  0
   -2.2458    1.7094    2.1444 C   0  0  0  1  0  0  0  0  0  0  0  0
   -0.4928    0.1906    2.7171 O   0  0  0  1  0  0  0  0  0  0  0  0
   -2.2549   -0.6499    1.5935 N   0  0  0  1  0  0  0  0  0  0  0  0
   -1.7718    2.5175    4.0357 H   0  0  0  1  0  0  0  0  0  0  0  0
   -3.7647    2.3421    3.9534 C   0  0  0  1  0  0  0  0  0  0  0  0
   -1.7902   -2.0253    1.4921 C   0  0  0  1  0  0  0  0  0  0  0  0
   -3.9076    2.8570    5.3913 C   0  0  0  1  0  0  0  0  0  0  0  0
   -4.7754    2.1242    3.2732 O   0  0  0  1  0  0  0  0  0  0  0  0
   -3.1281   -0.4368    1.2029 H   0  0  0  1  0  0  0  0  0  0  0  0
   -1.3385   -2.3187    2.4167 H   0  0  0  1  0  0  0  0  0  0  0  0
   -1.0706   -2.1012    0.7039 H   0  0  0  1  0  0  0  0  0  0  0  0
   -2.6199   -2.6672    1.2813 H   0  0  0  1  0  0  0  0  0  0  0  0
   -4.2775    3.8609    5.3761 H   0  0  0  1  0  0  0  0  0  0  0  0
   -2.9529    2.8362    5.8738 H   0  0  0  1  0  0  0  0  0  0  0  0
   -4.5922    2.2330    5.9269 H   0  0  0  1  0  0  0  0  0  0  0  0
   -4.1178    7.8164    0.4333 B   0  0  0  1  0  0  0  0  0  0  0  0
   -3.8515    8.7792    1.3247 O   0  0  0  1  0  0  0  0  0  0  0  0
   -4.9015    7.9350   -0.6470 O   0  0  0  1  0  0  0  0  0  0  0  0
   -3.4282    6.4185    0.7076 C   0  0  0  1  0  0  0  0  0  0  0  0
   -2.5327    6.2874    1.7522 C   0  0  0  1  0  0  0  0  0  0  0  0
   -1.8604    5.0902    1.9427 C   0  0  0  1  0  0  0  0  0  0  0  0
   -2.0818    4.0294    1.0848 C   0  0  0  1  0  0  0  0  0  0  0  0
   -2.9799    4.1608    0.0372 C   0  0  0  1  0  0  0  0  0  0  0  0
   -3.6501    5.3545   -0.1526 C   0  0  0  1  0  0  0  0  0  0  0  0
   -1.4162    2.7077    1.3537 C   0  0  0  1  0  0  0  0  0  0  0  0
   -2.9423    8.6981    1.6220 H   0  0  0  1  0  0  0  0  0  0  0  0
   -4.3670    8.1825   -1.4051 H   0  0  0  1  0  0  0  0  0  0  0  0
   -2.3632    7.0870    2.3952 H   0  0  0  1  0  0  0  0  0  0  0  0
   -1.1895    4.9902    2.7311 H   0  0  0  1  0  0  0  0  0  0  0  0
   -3.1494    3.3612   -0.6059 H   0  0  0  1  0  0  0  0  0  0  0  0
   -4.3210    5.4544   -0.9410 H   0  0  0  1  0  0  0  0  0  0  0  0
   -1.1738    2.2625    0.4114 H   0  0  0  1  0  0  0  0  0  0  0  0
   -0.5166    2.8966    1.9015 H   0  0  0  1  0  0  0  0  0  0  0  0
  1  4  1  0  0  0  0
  2  4  1  0  0  0  0
  2  5  2  0  0  0  0
  2  6  1  0  0  0  0
  3  4  1  0  0  0  0
  3  7  1  0  0  0  0
  3  8  1  0  0  0  0
  4 28  1  0  0  0  0
  6  9  1  0  0  0  0
  6 12  1  0  0  0  0
  8 10  1  0  0  0  0
  8 11  2  0  0  0  0
  9 13  1  0  0  0  0
  9 14  1  0  0  0  0
  9 15  1  0  0  0  0
 10 16  1  0  0  0  0
 10 17  1  0  0  0  0
 10 18  1  0  0  0  0
 19 20  1  0  0  0  0
 19 21  1  0  0  0  0
 19 22  1  0  0  0  0
 20 29  1  0  0  0  0
 21 30  1  0  0  0  0
 22 23  4  0  0  0  0
 22 27  4  0  0  0  0
 23 24  4  0  0  0  0
 23 31  1  0  0  0  0
 24 25  4  0  0  0  0
 24 32  1  0  0  0  0
 25 26  4  0  0  0  0
 25 28  1  0  0  0  0
 26 27  4  0  0  0  0
 26 33  1  0  0  0  0
 27 34  1  0  0  0  0
 28 35  1  0  0  0  0
 28 36  1  0  0  0  0
M  END
> <BCLConfClusterSize>
1

> <ConfClashScore>
0 

> <ConfOneFourInteractionScore>
-0.982988 

> <ConfScore>
-0.195917 

> <ConfScorePBest>
0.00723574 

> <ConfTolerance>
0.232945 

> <RosettaParamsInstructions>
M  ROOT 3
M  POLY_N_BB 3
M  POLY_CA_BB 4
M  POLY_C_BB 2
M  POLY_O_BB 5
M  POLY_IGNORE 9 10 11 12 13 14 15 16 17 18 
M  POLY_UPPER 6
M  POLY_LOWER 8
M  POLY_CHG 0
M  POLY_PROPERTIES ALPHA_AA L_AA PROTEIN AROMATIC POLYMER 
M  END

$$$$



 36 36  0  0  0  0  0  0  0  0999 V2000
   -3.1455    1.5121    1.5586 H   0  0  0  1  0  0  0  0  0  0  0  0
   -1.5431    0.4438    2.4294 C   0  0  0  1  0  0  0  0  0  0  0  0
   -2.7230    2.3445    3.4032 N   0  0  0  1  0  0  0  0  0  0  0  0
   -2.2858    1.7412    2.1531 C   0  0  0  1  0  0  0  0  0  0  0  0
   -0.7457    0.3604    3.3597 O   0  0  0  1  0  0  0  0  0  0  0  0
   -1.7852   -0.6051    1.6273 N   0  0  0  1  0  0  0  0  0  0  0  0
   -2.2899    3.1694    3.7071 H   0  0  0  1  0  0  0  0  0  0  0  0
   -3.7038    1.8077    4.1582 C   0  0  0  1  0  0  0  0  0  0  0  0
   -1.1408   -1.9052    1.7386 C   0  0  0  1  0  0  0  0  0  0  0  0
   -4.0009    2.4461    5.4962 C   0  0  0  1  0  0  0  0  0  0  0  0
   -4.3382    0.8294    3.7724 O   0  0  0  1  0  0  0  0  0  0  0  0
   -2.4455   -0.4864    0.9130 H   0  0  0  1  0  0  0  0  0  0  0  0
   -1.1805   -2.2376    2.7549 H   0  0  0  1  0  0  0  0  0  0  0  0
   -0.1196   -1.8245    1.4296 H   0  0  0  1  0  0  0  0  0  0  0  0
   -1.6486   -2.6094    1.1132 H   0  0  0  1  0  0  0  0  0  0  0  0
   -3.1307    2.9601    5.8478 H   0  0  0  1  0  0  0  0  0  0  0  0
   -4.2755    1.6880    6.1997 H   0  0  0  1  0  0  0  0  0  0  0  0
   -4.8065    3.1419    5.3882 H   0  0  0  1  0  0  0  0  0  0  0  0
   -4.0803    7.8551    0.5027 B   0  0  0  1  0  0  0  0  0  0  0  0
   -5.1194    8.0010   -0.3595 O   0  0  0  1  0  0  0  0  0  0  0  0
   -3.7009    8.9241    1.2312 O   0  0  0  1  0  0  0  0  0  0  0  0
   -3.4370    6.4117    0.6924 C   0  0  0  1  0  0  0  0  0  0  0  0
   -2.5429    6.2892    1.7392 C   0  0  0  1  0  0  0  0  0  0  0  0
   -1.8665    5.0955    1.9372 C   0  0  0  1  0  0  0  0  0  0  0  0
   -2.0823    4.0295    1.0843 C   0  0  0  1  0  0  0  0  0  0  0  0
   -2.9789    4.1522    0.0344 C   0  0  0  1  0  0  0  0  0  0  0  0
   -3.6532    5.3424   -0.1628 C   0  0  0  1  0  0  0  0  0  0  0  0
   -1.4076    2.7027    1.3631 C   0  0  0  1  0  0  0  0  0  0  0  0
   -4.7821    8.1756   -1.2412 H   0  0  0  1  0  0  0  0  0  0  0  0
   -3.0069    9.3981    0.7672 H   0  0  0  1  0  0  0  0  0  0  0  0
   -2.3775    7.0927    2.3785 H   0  0  0  1  0  0  0  0  0  0  0  0
   -1.1967    5.0021    2.7273 H   0  0  0  1  0  0  0  0  0  0  0  0
   -3.1443    3.3487   -0.6049 H   0  0  0  1  0  0  0  0  0  0  0  0
   -4.3230    5.4358   -0.9530 H   0  0  0  1  0  0  0  0  0  0  0  0
   -1.1566    2.2454    0.4289 H   0  0  0  1  0  0  0  0  0  0  0  0
   -0.5142    2.8859    1.9226 H   0  0  0  1  0  0  0  0  0  0  0  0
  1  4  1  0  0  0  0
  2  4  1  0  0  0  0
  2  5  2  0  0  0  0
  2  6  1  0  0  0  0
  3  4  1  0  0  0  0
  3  7  1  0  0  0  0
  3  8  1  0  0  0  0
  4 28  1  0  0  0  0
  6  9  1  0  0  0  0
  6 12  1  0  0  0  0
  8 10  1  0  0  0  0
  8 11  2  0  0  0  0
  9 13  1  0  0  0  0
  9 14  1  0  0  0  0
  9 15  1  0  0  0  0
 10 16  1  0  0  0  0
 10 17  1  0  0  0  0
 10 18  1  0  0  0  0
 19 20  1  0  0  0  0
 19 21  1  0  0  0  0
 19 22  1  0  0  0  0
 20 29  1  0  0  0  0
 21 30  1  0  0  0  0
 22 23  4  0  0  0  0
 22 27  4  0  0  0  0
 23 24  4  0  0  0  0
 23 31  1  0  0  0  0
 24 25  4  0  0  0  0
 24 32  1  0  0  0  0
 25 26  4  0  0  0  0
 25 28  1  0  0  0  0
 26 27  4  0  0  0  0
 26 33  1  0  0  0  0
 27 34  1  0  0  0  0
 28 35  1  0  0  0  0
 28 36  1  0  0  0  0
M  END
> <BCLConfClusterSize>
1

> <ConfClashScore>
0 

> <ConfOneFourInteractionScore>
-0.988961 

> <ConfScore>
-0.192948 

> <ConfScorePBest>
0.00720726 

> <ConfTolerance>
0.237621 

> <RosettaParamsInstructions>
M  ROOT 3
M  POLY_N_BB 3
M  POLY_CA_BB 4
M  POLY_C_BB 2
M  POLY_O_BB 5
M  POLY_IGNORE 9 10 11 12 13 14 15 16 17 18 
M  POLY_UPPER 6
M  POLY_LOWER 8
M  POLY_CHG 0
M  POLY_PROPERTIES ALPHA_AA L_AA PROTEIN AROMATIC POLYMER 
M  END

$$$$



 36 36  0  0  0  0  0  0  0  0999 V2000
   -3.1356    1.7800    2.2090 H   0  0  0  1  0  0  0  0  0  0  0  0
   -1.4853    0.5049    2.5507 C   0  0  0  1  0  0  0  0  0  0  0  0
   -1.9757    2.5903    3.7169 N   0  0  0  1  0  0  0  0  0  0  0  0
   -2.0982    1.8912    2.4464 C   0  0  0  1  0  0  0  0  0  0  0  0
   -0.6504    0.2442    3.4012 O   0  0  0  1  0  0  0  0  0  0  0  0
   -1.9220   -0.3947    1.6551 N   0  0  0  1  0  0  0  0  0  0  0  0
   -1.0846    2.7106    4.1065 H   0  0  0  1  0  0  0  0  0  0  0  0
   -3.0342    3.0729    4.3695 C   0  0  0  1  0  0  0  0  0  0  0  0
   -1.4170   -1.7533    1.5248 C   0  0  0  1  0  0  0  0  0  0  0  0
   -2.7318    3.8197    5.6541 C   0  0  0  1  0  0  0  0  0  0  0  0
   -4.1801    2.9323    3.9734 O   0  0  0  1  0  0  0  0  0  0  0  0
   -2.6346   -0.1155    1.0430 H   0  0  0  1  0  0  0  0  0  0  0  0
   -2.1201   -2.3446    0.9762 H   0  0  0  1  0  0  0  0  0  0  0  0
   -1.2776   -2.1766    2.4975 H   0  0  0  1  0  0  0  0  0  0  0  0
   -0.4820   -1.7376    1.0047 H   0  0  0  1  0  0  0  0  0  0  0  0
   -2.0995    4.6561    5.4406 H   0  0  0  1  0  0  0  0  0  0  0  0
   -2.2363    3.1641    6.3393 H   0  0  0  1  0  0  0  0  0  0  0  0
   -3.6462    4.1659    6.0888 H   0  0  0  1  0  0  0  0  0  0  0  0
   -4.1454    7.8073    0.3911 B   0  0  0  1  0  0  0  0  0  0  0  0
   -3.5418    8.9709    0.7466 O   0  0  0  1  0  0  0  0  0  0  0  0
   -5.3508    7.7620   -0.2369 O   0  0  0  1  0  0  0  0  0  0  0  0
   -3.4235    6.4214    0.7163 C   0  0  0  1  0  0  0  0  0  0  0  0
   -2.5277    6.2898    1.7605 C   0  0  0  1  0  0  0  0  0  0  0  0
   -1.8552    5.0926    1.9502 C   0  0  0  1  0  0  0  0  0  0  0  0
   -2.0768    4.0322    1.0919 C   0  0  0  1  0  0  0  0  0  0  0  0
   -2.9752    4.1640    0.0445 C   0  0  0  1  0  0  0  0  0  0  0  0
   -3.6455    5.3578   -0.1445 C   0  0  0  1  0  0  0  0  0  0  0  0
   -1.4372    2.6883    1.3176 C   0  0  0  1  0  0  0  0  0  0  0  0
   -3.3933    9.5070   -0.0359 H   0  0  0  1  0  0  0  0  0  0  0  0
   -6.0213    8.1530    0.3279 H   0  0  0  1  0  0  0  0  0  0  0  0
   -2.3581    7.0891    2.4039 H   0  0  0  1  0  0  0  0  0  0  0  0
   -1.1842    4.9922    2.7384 H   0  0  0  1  0  0  0  0  0  0  0  0
   -3.1448    3.3648   -0.5989 H   0  0  0  1  0  0  0  0  0  0  0  0
   -4.3166    5.4581   -0.9327 H   0  0  0  1  0  0  0  0  0  0  0  0
   -1.5084    2.1210    0.4132 H   0  0  0  1  0  0  0  0  0  0  0  0
   -0.4070    2.8386    1.5648 H   0  0  0  1  0  0  0  0  0  0  0  0
  1  4  1  0  0  0  0
  2  4  1  0  0  0  0
  2  5  2  0  0  0  0
  2  6  1  0  0  0  0
  3  4  1  0  0  0  0
  3  7  1  0  0  0  0
  3  8  1  0  0  0  0
  4 28  1  0  0  0  0
  6  9  1  0  0  0  0
  6 12  1  0  0  0  0
  8 10  1  0  0  0  0
  8 11  2  0  0  0  0
  9 13  1  0  0  0  0
  9 14  1  0  0  0  0
  9 15  1  0  0  0  0
 10 16  1  0  0  0  0
 10 17  1  0  0  0  0
 10 18  1  0  0  0  0
 19 20  1  0  0  0  0
 19 21  1  0  0  0  0
 19 22  1  0  0  0  0
 20 29  1  0  0  0  0
 21 30  1  0  0  0  0
 22 23  4  0  0  0  0
 22 27  4  0  0  0  0
 23 24  4  0  0  0  0
 23 31  1  0  0  0  0
 24 25  4  0  0  0  0
 24 32  1  0  0  0  0
 25 26  4  0  0  0  0
 25 28  1  0  0  0  0
 26 27  4  0  0  0  0
 26 33  1  0  0  0  0
 27 34  1  0  0  0  0
 28 35  1  0  0  0  0
 28 36  1  0  0  0  0
M  END
> <BCLConfClusterSize>
1

> <ConfClashScore>
0 

> <ConfOneFourInteractionScore>
-0.989599 

> <ConfScore>
-0.19287 

> <ConfScorePBest>
0.00717878 

> <ConfTolerance>
0.273537 

> <RosettaParamsInstructions>
M  ROOT 3
M  POLY_N_BB 3
M  POLY_CA_BB 4
M  POLY_C_BB 2
M  POLY_O_BB 5
M  POLY_IGNORE 9 10 11 12 13 14 15 16 17 18 
M  POLY_UPPER 6
M  POLY_LOWER 8
M  POLY_CHG 0
M  POLY_PROPERTIES ALPHA_AA L_AA PROTEIN AROMATIC POLYMER 
M  END

$$$$



 36 36  0  0  0  0  0  0  0  0999 V2000
   -3.2670    1.6154    1.5258 H   0  0  0  1  0  0  0  0  0  0  0  0
   -1.7238    0.3953    2.3489 C   0  0  0  1  0  0  0  0  0  0  0  0
   -2.6921    2.3639    3.3792 N   0  0  0  1  0  0  0  0  0  0  0  0
   -2.3734    1.7558    2.0973 C   0  0  0  1  0  0  0  0  0  0  0  0
   -0.9385    0.2260    3.2779 O   0  0  0  1  0  0  0  0  0  0  0  0
   -2.0685   -0.5822    1.4958 N   0  0  0  1  0  0  0  0  0  0  0  0
   -1.9680    2.7589    3.9083 H   0  0  0  1  0  0  0  0  0  0  0  0
   -3.9431    2.4029    3.8627 C   0  0  0  1  0  0  0  0  0  0  0  0
   -1.4278   -1.8887    1.5107 C   0  0  0  1  0  0  0  0  0  0  0  0
   -4.1099    3.0917    5.2032 C   0  0  0  1  0  0  0  0  0  0  0  0
   -4.9039    1.9173    3.2716 O   0  0  0  1  0  0  0  0  0  0  0  0
   -2.7763   -0.4100    0.8402 H   0  0  0  1  0  0  0  0  0  0  0  0
   -0.7170   -1.9471    0.7130 H   0  0  0  1  0  0  0  0  0  0  0  0
   -2.1685   -2.6505    1.3844 H   0  0  0  1  0  0  0  0  0  0  0  0
   -0.9267   -2.0293    2.4456 H   0  0  0  1  0  0  0  0  0  0  0  0
   -3.7008    4.0789    5.1509 H   0  0  0  1  0  0  0  0  0  0  0  0
   -3.5967    2.5326    5.9575 H   0  0  0  1  0  0  0  0  0  0  0  0
   -5.1502    3.1494    5.4472 H   0  0  0  1  0  0  0  0  0  0  0  0
   -4.1046    7.8373    0.4624 B   0  0  0  1  0  0  0  0  0  0  0  0
   -5.2527    7.9475   -0.2546 O   0  0  0  1  0  0  0  0  0  0  0  0
   -3.5470    8.9734    0.9698 O   0  0  0  1  0  0  0  0  0  0  0  0
   -3.4323    6.4154    0.7007 C   0  0  0  1  0  0  0  0  0  0  0  0
   -2.5380    6.2924    1.7473 C   0  0  0  1  0  0  0  0  0  0  0  0
   -1.8616    5.0986    1.9446 C   0  0  0  1  0  0  0  0  0  0  0  0
   -2.0777    4.0330    1.0913 C   0  0  0  1  0  0  0  0  0  0  0  0
   -2.9745    4.1562    0.0416 C   0  0  0  1  0  0  0  0  0  0  0  0
   -3.6488    5.3465   -0.1549 C   0  0  0  1  0  0  0  0  0  0  0  0
   -1.4299    2.6846    1.3267 C   0  0  0  1  0  0  0  0  0  0  0  0
   -5.1652    7.4596   -1.0768 H   0  0  0  1  0  0  0  0  0  0  0  0
   -3.4694    8.8941    1.9234 H   0  0  0  1  0  0  0  0  0  0  0  0
   -2.3725    7.0956    2.3869 H   0  0  0  1  0  0  0  0  0  0  0  0
   -1.1917    5.0048    2.7346 H   0  0  0  1  0  0  0  0  0  0  0  0
   -3.1400    3.3529   -0.5980 H   0  0  0  1  0  0  0  0  0  0  0  0
   -4.3187    5.4403   -0.9449 H   0  0  0  1  0  0  0  0  0  0  0  0
   -1.1931    2.2396    0.3829 H   0  0  0  1  0  0  0  0  0  0  0  0
   -0.5321    2.8207    1.8927 H   0  0  0  1  0  0  0  0  0  0  0  0
  1  4  1  0  0  0  0
  2  4  1  0  0  0  0
  2  5  2  0  0  0  0
  2  6  1  0  0  0  0
  3  4  1  0  0  0  0
  3  7  1  0  0  0  0
  3  8  1  0  0  0  0
  4 28  1  0  0  0  0
  6  9  1  0  0  0  0
  6 12  1  0  0  0  0
  8 10  1  0  0  0  0
  8 11  2  0  0  0  0
  9 13  1  0  0  0  0
  9 14  1  0  0  0  0
  9 15  1  0  0  0  0
 10 16  1  0  0  0  0
 10 17  1  0  0  0  0
 10 18  1  0  0  0  0
 19 20  1  0  0  0  0
 19 21  1  0  0  0  0
 19 22  1  0  0  0  0
 20 29  1  0  0  0  0
 21 30  1  0  0  0  0
 22 23  4  0  0  0  0
 22 27  4  0  0  0  0
 23 24  4  0  0  0  0
 23 31  1  0  0  0  0
 24 25  4  0  0  0  0
 24 32  1  0  0  0  0
 25 26  4  0  0  0  0
 25 28  1  0  0  0  0
 26 27  4  0  0  0  0
 26 33  1  0  0  0  0
 27 34  1  0  0  0  0
 28 35  1  0  0  0  0
 28 36  1  0  0  0  0
M  END
> <BCLConfClusterSize>
1

> <ConfClashScore>
0 

> <ConfOneFourInteractionScore>
-0.988961 

> <ConfScore>
-0.191279 

> <ConfScorePBest>
0.0071503 

> <ConfTolerance>
0.274484 

> <RosettaParamsInstructions>
M  ROOT 3
M  POLY_N_BB 3
M  POLY_CA_BB 4
M  POLY_C_BB 2
M  POLY_O_BB 5
M  POLY_IGNORE 9 10 11 12 13 14 15 16 17 18 
M  POLY_UPPER 6
M  POLY_LOWER 8
M  POLY_CHG 0
M  POLY_PROPERTIES ALPHA_AA L_AA PROTEIN AROMATIC POLYMER 
M  END

$$$$



 36 36  0  0  0  0  0  0  0  0999 V2000
   -3.2216    1.7732    1.9701 H   0  0  0  1  0  0  0  0  0  0  0  0
   -1.6571    0.3857    2.3086 C   0  0  0  1  0  0  0  0  0  0  0  0
   -2.1837    2.3515    3.6629 N   0  0  0  1  0  0  0  0  0  0  0  0
   -2.2086    1.8084    2.3130 C   0  0  0  1  0  0  0  0  0  0  0  0
   -0.7182    0.0707    3.0385 O   0  0  0  1  0  0  0  0  0  0  0  0
   -2.2230   -0.5037    1.4913 N   0  0  0  1  0  0  0  0  0  0  0  0
   -1.7783    3.2313    3.8113 H   0  0  0  1  0  0  0  0  0  0  0  0
   -2.7134    1.6674    4.7464 C   0  0  0  1  0  0  0  0  0  0  0  0
   -1.8855   -1.9183    1.4373 C   0  0  0  1  0  0  0  0  0  0  0  0
   -2.6953    2.3223    6.1090 C   0  0  0  1  0  0  0  0  0  0  0  0
   -3.1789    0.5542    4.5628 O   0  0  0  1  0  0  0  0  0  0  0  0
   -2.9183   -0.1802    0.8812 H   0  0  0  1  0  0  0  0  0  0  0  0
   -0.8373   -2.0287    1.2534 H   0  0  0  1  0  0  0  0  0  0  0  0
   -2.4369   -2.3864    0.6488 H   0  0  0  1  0  0  0  0  0  0  0  0
   -2.1343   -2.3799    2.3700 H   0  0  0  1  0  0  0  0  0  0  0  0
   -1.6845    2.5307    6.3917 H   0  0  0  1  0  0  0  0  0  0  0  0
   -3.1375    1.6636    6.8269 H   0  0  0  1  0  0  0  0  0  0  0  0
   -3.2509    3.2360    6.0728 H   0  0  0  1  0  0  0  0  0  0  0  0
   -4.1435    7.8100    0.3943 B   0  0  0  1  0  0  0  0  0  0  0  0
   -4.8131    7.9559   -0.7783 O   0  0  0  1  0  0  0  0  0  0  0  0
   -4.0534    8.8003    1.3220 O   0  0  0  1  0  0  0  0  0  0  0  0
   -3.4240    6.4220    0.7158 C   0  0  0  1  0  0  0  0  0  0  0  0
   -2.5276    6.2863    1.7590 C   0  0  0  1  0  0  0  0  0  0  0  0
   -1.8572    5.0874    1.9455 C   0  0  0  1  0  0  0  0  0  0  0  0
   -2.0814    4.0294    1.0849 C   0  0  0  1  0  0  0  0  0  0  0  0
   -2.9804    4.1653    0.0386 C   0  0  0  1  0  0  0  0  0  0  0  0
   -3.6487    5.3607   -0.1472 C   0  0  0  1  0  0  0  0  0  0  0  0
   -1.4133    2.6967    1.3512 C   0  0  0  1  0  0  0  0  0  0  0  0
   -4.1885    7.9465   -1.5073 H   0  0  0  1  0  0  0  0  0  0  0  0
   -4.9295    9.0079    1.6552 H   0  0  0  1  0  0  0  0  0  0  0  0
   -2.3560    7.0838    2.4041 H   0  0  0  1  0  0  0  0  0  0  0  0
   -1.1857    4.9841    2.7329 H   0  0  0  1  0  0  0  0  0  0  0  0
   -3.1520    3.3678   -0.6065 H   0  0  0  1  0  0  0  0  0  0  0  0
   -4.3202    5.4640   -0.9346 H   0  0  0  1  0  0  0  0  0  0  0  0
   -1.3035    2.1790    0.4213 H   0  0  0  1  0  0  0  0  0  0  0  0
   -0.4478    2.8785    1.7751 H   0  0  0  1  0  0  0  0  0  0  0  0
  1  4  1  0  0  0  0
  2  4  1  0  0  0  0
  2  5  2  0  0  0  0
  2  6  1  0  0  0  0
  3  4  1  0  0  0  0
  3  7  1  0  0  0  0
  3  8  1  0  0  0  0
  4 28  1  0  0  0  0
  6  9  1  0  0  0  0
  6 12  1  0  0  0  0
  8 10  1  0  0  0  0
  8 11  2  0  0  0  0
  9 13  1  0  0  0  0
  9 14  1  0  0  0  0
  9 15  1  0  0  0  0
 10 16  1  0  0  0  0
 10 17  1  0  0  0  0
 10 18  1  0  0  0  0
 19 20  1  0  0  0  0
 19 21  1  0  0  0  0
 19 22  1  0  0  0  0
 20 29  1  0  0  0  0
 21 30  1  0  0  0  0
 22 23  4  0  0  0  0
 22 27  4  0  0  0  0
 23 24  4  0  0  0  0
 23 31  1  0  0  0  0
 24 25  4  0  0  0  0
 24 32  1  0  0  0  0
 25 26  4  0  0  0  0
 25 28  1  0  0  0  0
 26 27  4  0  0  0  0
 26 33  1  0  0  0  0
 27 34  1  0  0  0  0
 28 35  1  0  0  0  0
 28 36  1  0  0  0  0
M  END
> <BCLConfClusterSize>
1

> <ConfClashScore>
0 

> <ConfOneFourInteractionScore>
-0.985947 

> <ConfScore>
-0.191244 

> <ConfScorePBest>
0.00712182 

> <ConfTolerance>
0.244251 

> <RosettaParamsInstructions>
M  ROOT 3
M  POLY_N_BB 3
M  POLY_CA_BB 4
M  POLY_C_BB 2
M  POLY_O_BB 5
M  POLY_IGNORE 9 10 11 12 13 14 15 16 17 18 
M  POLY_UPPER 6
M  POLY_LOWER 8
M  POLY_CHG 0
M  POLY_PROPERTIES ALPHA_AA L_AA PROTEIN AROMATIC POLYMER 
M  END

$$$$



 36 36  0  0  0  0  0  0  0  0999 V2000
   -2.7418    2.3629    2.9745 H   0  0  0  1  0  0  0  0  0  0  0  0
   -3.4733    1.2754    1.3196 C   0  0  0  1  0  0  0  0  0  0  0  0
   -1.5840    0.6669    2.7330 N   0  0  0  1  0  0  0  0  0  0  0  0
   -2.3290    1.7852    2.1740 C   0  0  0  1  0  0  0  0  0  0  0  0
   -4.4325    1.9942    1.0423 O   0  0  0  1  0  0  0  0  0  0  0  0
   -3.3645    0.0062    0.8962 N   0  0  0  1  0  0  0  0  0  0  0  0
   -0.6440    0.5733    2.4725 H   0  0  0  1  0  0  0  0  0  0  0  0
   -2.0844   -0.2402    3.5733 C   0  0  0  1  0  0  0  0  0  0  0  0
   -4.4568   -0.6875    0.2302 C   0  0  0  1  0  0  0  0  0  0  0  0
   -1.1314   -1.3399    3.9993 C   0  0  0  1  0  0  0  0  0  0  0  0
   -3.2494   -0.2031    3.9894 O   0  0  0  1  0  0  0  0  0  0  0  0
   -2.5201   -0.4699    1.0406 H   0  0  0  1  0  0  0  0  0  0  0  0
   -4.3268   -0.6236   -0.8299 H   0  0  0  1  0  0  0  0  0  0  0  0
   -5.3864   -0.2336    0.5034 H   0  0  0  1  0  0  0  0  0  0  0  0
   -4.4602   -1.7153    0.5276 H   0  0  0  1  0  0  0  0  0  0  0  0
   -0.1878   -1.2028    3.5137 H   0  0  0  1  0  0  0  0  0  0  0  0
   -1.5387   -2.2906    3.7250 H   0  0  0  1  0  0  0  0  0  0  0  0
   -0.9951   -1.3024    5.0600 H   0  0  0  1  0  0  0  0  0  0  0  0
   -4.1215    7.8237    0.4319 B   0  0  0  1  0  0  0  0  0  0  0  0
   -3.9428    8.9016    1.2387 O   0  0  0  1  0  0  0  0  0  0  0  0
   -5.0015    7.9242   -0.6000 O   0  0  0  1  0  0  0  0  0  0  0  0
   -3.4284    6.4187    0.7077 C   0  0  0  1  0  0  0  0  0  0  0  0
   -2.5328    6.2875    1.7522 C   0  0  0  1  0  0  0  0  0  0  0  0
   -1.8604    5.0903    1.9427 C   0  0  0  1  0  0  0  0  0  0  0  0
   -2.0818    4.0295    1.0847 C   0  0  0  1  0  0  0  0  0  0  0  0
   -2.9800    4.1609    0.0371 C   0  0  0  1  0  0  0  0  0  0  0  0
   -3.6502    5.3546   -0.1526 C   0  0  0  1  0  0  0  0  0  0  0  0
   -1.4116    2.6988    1.3554 C   0  0  0  1  0  0  0  0  0  0  0  0
   -4.7977    9.2539    1.4969 H   0  0  0  1  0  0  0  0  0  0  0  0
   -4.7330    8.6390   -1.1818 H   0  0  0  1  0  0  0  0  0  0  0  0
   -2.3633    7.0871    2.3953 H   0  0  0  1  0  0  0  0  0  0  0  0
   -1.1896    4.9903    2.7310 H   0  0  0  1  0  0  0  0  0  0  0  0
   -3.1495    3.3614   -0.6060 H   0  0  0  1  0  0  0  0  0  0  0  0
   -4.3211    5.4546   -0.9410 H   0  0  0  1  0  0  0  0  0  0  0  0
   -1.1847    2.2243    0.4236 H   0  0  0  1  0  0  0  0  0  0  0  0
   -0.5063    2.8665    1.9005 H   0  0  0  1  0  0  0  0  0  0  0  0
  1  4  1  0  0  0  0
  2  4  1  0  0  0  0
  2  5  2  0  0  0  0
  2  6  1  0  0  0  0
  3  4  1  0  0  0  0
  3  7  1  0  0  0  0
  3  8  1  0  0  0  0
  4 28  1  0  0  0  0
  6  9  1  0  0  0  0
  6 12  1  0  0  0  0
  8 10  1  0  0  0  0
  8 11  2  0  0  0  0
  9 13  1  0  0  0  0
  9 14  1  0  0  0  0
  9 15  1  0  0  0  0
 10 16  1  0  0  0  0
 10 17  1  0  0  0  0
 10 18  1  0  0  0  0
 19 20  1  0  0  0  0
 19 21  1  0  0  0  0
 19 22  1  0  0  0  0
 20 29  1  0  0  0  0
 21 30  1  0  0  0  0
 22 23  4  0  0  0  0
 22 27  4  0  0  0  0
 23 24  4  0  0  0  0
 23 31  1  0  0  0  0
 24 25  4  0  0  0  0
 24 32  1  0  0  0  0
 25 26  4  0  0  0  0
 25 28  1  0  0  0  0
 26 27  4  0  0  0  0
 26 33  1  0  0  0  0
 27 34  1  0  0  0  0
 28 35  1  0  0  0  0
 28 36  1  0  0  0  0
M  END
> <BCLConfClusterSize>
1

> <ConfClashScore>
0 

> <ConfOneFourInteractionScore>
-0.969136 

> <ConfScore>
-0.189014 

> <ConfScorePBest>
0.00709334 

> <ConfTolerance>
0.310538 

> <RosettaParamsInstructions>
M  ROOT 3
M  POLY_N_BB 3
M  POLY_CA_BB 4
M  POLY_C_BB 2
M  POLY_O_BB 5
M  POLY_IGNORE 9 10 11 12 13 14 15 16 17 18 
M  POLY_UPPER 6
M  POLY_LOWER 8
M  POLY_CHG 0
M  POLY_PROPERTIES ALPHA_AA L_AA PROTEIN AROMATIC POLYMER 
M  END

$$$$



 36 36  0  0  0  0  0  0  0  0999 V2000
    0.4217    3.4823    2.0430 H   0  0  0  1  0  0  0  0  0  0  0  0
    0.6765    1.4266    1.6651 C   0  0  0  1  0  0  0  0  0  0  0  0
    0.5831    3.2524    0.0023 N   0  0  0  1  0  0  0  0  0  0  0  0
    0.1058    2.7852    1.2953 C   0  0  0  1  0  0  0  0  0  0  0  0
    0.8176    1.1161    2.8365 O   0  0  0  1  0  0  0  0  0  0  0  0
    1.0931    0.6433    0.6577 N   0  0  0  1  0  0  0  0  0  0  0  0
   -0.0649    3.3883   -0.7201 H   0  0  0  1  0  0  0  0  0  0  0  0
    1.8741    3.5024   -0.2340 C   0  0  0  1  0  0  0  0  0  0  0  0
    1.5676   -0.7153    0.8743 C   0  0  0  1  0  0  0  0  0  0  0  0
    2.2050    3.9946   -1.6295 C   0  0  0  1  0  0  0  0  0  0  0  0
    2.7453    3.3502    0.6071 O   0  0  0  1  0  0  0  0  0  0  0  0
    1.0772    0.9987   -0.2555 H   0  0  0  1  0  0  0  0  0  0  0  0
    0.9111   -1.2189    1.5529 H   0  0  0  1  0  0  0  0  0  0  0  0
    2.5540   -0.6867    1.2878 H   0  0  0  1  0  0  0  0  0  0  0  0
    1.5863   -1.2393   -0.0584 H   0  0  0  1  0  0  0  0  0  0  0  0
    1.4436    4.6698   -1.9600 H   0  0  0  1  0  0  0  0  0  0  0  0
    2.2571    3.1611   -2.2984 H   0  0  0  1  0  0  0  0  0  0  0  0
    3.1479    4.5003   -1.6149 H   0  0  0  1  0  0  0  0  0  0  0  0
   -4.0986    7.8317    0.4670 B   0  0  0  1  0  0  0  0  0  0  0  0
   -5.2984    8.1675    1.0631 O   0  0  0  1  0  0  0  0  0  0  0  0
   -3.4436    8.7397   -0.3592 O   0  0  0  1  0  0  0  0  0  0  0  0
   -3.4323    6.4152    0.7003 C   0  0  0  1  0  0  0  0  0  0  0  0
   -2.5374    6.2882    1.7460 C   0  0  0  1  0  0  0  0  0  0  0  0
   -1.8632    5.0927    1.9401 C   0  0  0  1  0  0  0  0  0  0  0  0
   -2.0820    4.0293    1.0846 C   0  0  0  1  0  0  0  0  0  0  0  0
   -2.9794    4.1566    0.0359 C   0  0  0  1  0  0  0  0  0  0  0  0
   -3.6515    5.3487   -0.1575 C   0  0  0  1  0  0  0  0  0  0  0  0
   -1.4141    2.7090    1.3575 C   0  0  0  1  0  0  0  0  0  0  0  0
   -5.9780    8.2516    0.3903 H   0  0  0  1  0  0  0  0  0  0  0  0
   -2.6145    9.0023    0.0472 H   0  0  0  1  0  0  0  0  0  0  0  0
   -2.3699    7.0897    2.3872 H   0  0  0  1  0  0  0  0  0  0  0  0
   -1.1929    4.9958    2.7293 H   0  0  0  1  0  0  0  0  0  0  0  0
   -3.1470    3.3552   -0.6054 H   0  0  0  1  0  0  0  0  0  0  0  0
   -4.3218    5.4455   -0.9468 H   0  0  0  1  0  0  0  0  0  0  0  0
   -1.6989    2.3788    2.3346 H   0  0  0  1  0  0  0  0  0  0  0  0
   -1.7497    2.0007    0.6291 H   0  0  0  1  0  0  0  0  0  0  0  0
  1  4  1  0  0  0  0
  2  4  1  0  0  0  0
  2  5  2  0  0  0  0
  2  6  1  0  0  0  0
  3  4  1  0  0  0  0
  3  7  1  0  0  0  0
  3  8  1  0  0  0  0
  4 28  1  0  0  0  0
  6  9  1  0  0  0  0
  6 12  1  0  0  0  0
  8 10  1  0  0  0  0
  8 11  2  0  0  0  0
  9 13  1  0  0  0  0
  9 14  1  0  0  0  0
  9 15  1  0  0  0  0
 10 16  1  0  0  0  0
 10 17  1  0  0  0  0
 10 18  1  0  0  0  0
 19 20  1  0  0  0  0
 19 21  1  0  0  0  0
 19 22  1  0  0  0  0
 20 29  1  0  0  0  0
 21 30  1  0  0  0  0
 22 23  4  0  0  0  0
 22 27  4  0  0  0  0
 23 24  4  0  0  0  0
 23 31  1  0  0  0  0
 24 25  4  0  0  0  0
 24 32  1  0  0  0  0
 25 26  4  0  0  0  0
 25 28  1  0  0  0  0
 26 27  4  0  0  0  0
 26 33  1  0  0  0  0
 27 34  1  0  0  0  0
 28 35  1  0  0  0  0
 28 36  1  0  0  0  0
M  END
> <BCLConfClusterSize>
1

> <ConfClashScore>
0 

> <ConfOneFourInteractionScore>
-0.969136 

> <ConfScore>
-0.184891 

> <ConfScorePBest>
0.00706485 

> <ConfTolerance>
0.212338 

> <RosettaParamsInstructions>
M  ROOT 3
M  POLY_N_BB 3
M  POLY_CA_BB 4
M  POLY_C_BB 2
M  POLY_O_BB 5
M  POLY_IGNORE 9 10 11 12 13 14 15 16 17 18 
M  POLY_UPPER 6
M  POLY_LOWER 8
M  POLY_CHG 0
M  POLY_PROPERTIES ALPHA_AA L_AA PROTEIN AROMATIC POLYMER 
M  END

$$$$



 36 36  0  0  0  0  0  0  0  0999 V2000
   -1.5466    2.7148    3.4740 H   0  0  0  1  0  0  0  0  0  0  0  0
   -3.3475    1.9423    2.6301 C   0  0  0  1  0  0  0  0  0  0  0  0
   -1.2033    0.7653    2.8210 N   0  0  0  1  0  0  0  0  0  0  0  0
   -1.8285    2.0704    2.6677 C   0  0  0  1  0  0  0  0  0  0  0  0
   -4.0721    2.8036    3.1216 O   0  0  0  1  0  0  0  0  0  0  0  0
   -3.8228    0.8449    2.0344 N   0  0  0  1  0  0  0  0  0  0  0  0
   -0.5921    0.4488    2.1233 H   0  0  0  1  0  0  0  0  0  0  0  0
   -1.4355   -0.0230    3.8886 C   0  0  0  1  0  0  0  0  0  0  0  0
   -5.2164    0.4512    1.8900 C   0  0  0  1  0  0  0  0  0  0  0  0
   -0.5958   -1.2855    3.9081 C   0  0  0  1  0  0  0  0  0  0  0  0
   -2.2380    0.2253    4.7741 O   0  0  0  1  0  0  0  0  0  0  0  0
   -3.1575    0.2360    1.6512 H   0  0  0  1  0  0  0  0  0  0  0  0
   -5.8406    1.1518    2.4041 H   0  0  0  1  0  0  0  0  0  0  0  0
   -5.3562   -0.5241    2.3074 H   0  0  0  1  0  0  0  0  0  0  0  0
   -5.4768    0.4363    0.8523 H   0  0  0  1  0  0  0  0  0  0  0  0
   -0.8055   -1.8674    3.0350 H   0  0  0  1  0  0  0  0  0  0  0  0
   -0.8310   -1.8565    4.7819 H   0  0  0  1  0  0  0  0  0  0  0  0
    0.4415   -1.0235    3.9211 H   0  0  0  1  0  0  0  0  0  0  0  0
   -4.0990    7.8208    0.4085 B   0  0  0  1  0  0  0  0  0  0  0  0
   -3.9543    8.8579    1.2743 O   0  0  0  1  0  0  0  0  0  0  0  0
   -4.8276    8.0221   -0.7266 O   0  0  0  1  0  0  0  0  0  0  0  0
   -3.4360    6.4168    0.7156 C   0  0  0  1  0  0  0  0  0  0  0  0
   -2.5377    6.2858    1.7578 C   0  0  0  1  0  0  0  0  0  0  0  0
   -1.8607    5.0905    1.9434 C   0  0  0  1  0  0  0  0  0  0  0  0
   -2.0801    4.0314    1.0829 C   0  0  0  1  0  0  0  0  0  0  0  0
   -2.9810    4.1626    0.0376 C   0  0  0  1  0  0  0  0  0  0  0  0
   -3.6559    5.3544   -0.1473 C   0  0  0  1  0  0  0  0  0  0  0  0
   -1.4046    2.7023    1.3483 C   0  0  0  1  0  0  0  0  0  0  0  0
   -4.5869    8.7678    1.9908 H   0  0  0  1  0  0  0  0  0  0  0  0
   -5.6899    7.6113   -0.6309 H   0  0  0  1  0  0  0  0  0  0  0  0
   -2.3696    7.0841    2.4028 H   0  0  0  1  0  0  0  0  0  0  0  0
   -1.1877    4.9906    2.7300 H   0  0  0  1  0  0  0  0  0  0  0  0
   -3.1490    3.3642   -0.6074 H   0  0  0  1  0  0  0  0  0  0  0  0
   -4.3288    5.4542   -0.9339 H   0  0  0  1  0  0  0  0  0  0  0  0
   -1.6519    2.0298    0.5536 H   0  0  0  1  0  0  0  0  0  0  0  0
   -0.3459    2.8565    1.3692 H   0  0  0  1  0  0  0  0  0  0  0  0
  1  4  1  0  0  0  0
  2  4  1  0  0  0  0
  2  5  2  0  0  0  0
  2  6  1  0  0  0  0
  3  4  1  0  0  0  0
  3  7  1  0  0  0  0
  3  8  1  0  0  0  0
  4 28  1  0  0  0  0
  6  9  1  0  0  0  0
  6 12  1  0  0  0  0
  8 10  1  0  0  0  0
  8 11  2  0  0  0  0
  9 13  1  0  0  0  0
  9 14  1  0  0  0  0
  9 15  1  0  0  0  0
 10 16  1  0  0  0  0
 10 17  1  0  0  0  0
 10 18  1  0  0  0  0
 19 20  1  0  0  0  0
 19 21  1  0  0  0  0
 19 22  1  0  0  0  0
 20 29  1  0  0  0  0
 21 30  1  0  0  0  0
 22 23  4  0  0  0  0
 22 27  4  0  0  0  0
 23 24  4  0  0  0  0
 23 31  1  0  0  0  0
 24 25  4  0  0  0  0
 24 32  1  0  0  0  0
 25 26  4  0  0  0  0
 25 28  1  0  0  0  0
 26 27  4  0  0  0  0
 26 33  1  0  0  0  0
 27 34  1  0  0  0  0
 28 35  1  0  0  0  0
 28 36  1  0  0  0  0
M  END
> <BCLConfClusterSize>
1

> <ConfClashScore>
0 

> <ConfOneFourInteractionScore>
-0.969136 

> <ConfScore>
-0.183669 

> <ConfScorePBest>
0.00703637 

> <ConfTolerance>
0.229703 

> <RosettaParamsInstructions>
M  ROOT 3
M  POLY_N_BB 3
M  POLY_CA_BB 4
M  POLY_C_BB 2
M  POLY_O_BB 5
M  POLY_IGNORE 9 10 11 12 13 14 15 16 17 18 
M  POLY_UPPER 6
M  POLY_LOWER 8
M  POLY_CHG 0
M  POLY_PROPERTIES ALPHA_AA L_AA PROTEIN AROMATIC POLYMER 
M  END

$$$$



 36 36  0  0  0  0  0  0  0  0999 V2000
    0.3364    3.4378    2.2563 H   0  0  0  1  0  0  0  0  0  0  0  0
    0.6615    1.3939    1.8637 C   0  0  0  1  0  0  0  0  0  0  0  0
    0.6770    3.2621    0.2346 N   0  0  0  1  0  0  0  0  0  0  0  0
    0.0983    2.7533    1.4691 C   0  0  0  1  0  0  0  0  0  0  0  0
    0.9151    1.1240    3.0370 O   0  0  0  1  0  0  0  0  0  0  0  0
    0.8569    0.5288    0.8560 N   0  0  0  1  0  0  0  0  0  0  0  0
    0.0924    3.4015   -0.5395 H   0  0  0  1  0  0  0  0  0  0  0  0
    1.9775    3.5458    0.1198 C   0  0  0  1  0  0  0  0  0  0  0  0
    1.1809   -0.8713    1.0852 C   0  0  0  1  0  0  0  0  0  0  0  0
    2.4429    3.9545   -1.2643 C   0  0  0  1  0  0  0  0  0  0  0  0
    2.7611    3.4849    1.0635 O   0  0  0  1  0  0  0  0  0  0  0  0
    0.7787    0.8513   -0.0661 H   0  0  0  1  0  0  0  0  0  0  0  0
    2.1118   -0.9416    1.6080 H   0  0  0  1  0  0  0  0  0  0  0  0
    1.2607   -1.3771    0.1457 H   0  0  0  1  0  0  0  0  0  0  0  0
    0.4084   -1.3247    1.6705 H   0  0  0  1  0  0  0  0  0  0  0  0
    1.6407    3.8319   -1.9616 H   0  0  0  1  0  0  0  0  0  0  0  0
    3.2681    3.3403   -1.5587 H   0  0  0  1  0  0  0  0  0  0  0  0
    2.7484    4.9799   -1.2492 H   0  0  0  1  0  0  0  0  0  0  0  0
   -4.1143    7.8094    0.4346 B   0  0  0  1  0  0  0  0  0  0  0  0
   -5.3678    7.8049   -0.0880 O   0  0  0  1  0  0  0  0  0  0  0  0
   -3.5257    9.0082    0.6912 O   0  0  0  1  0  0  0  0  0  0  0  0
   -3.4285    6.4192    0.7075 C   0  0  0  1  0  0  0  0  0  0  0  0
   -2.5330    6.2880    1.7520 C   0  0  0  1  0  0  0  0  0  0  0  0
   -1.8607    5.0908    1.9426 C   0  0  0  1  0  0  0  0  0  0  0  0
   -2.0821    4.0300    1.0847 C   0  0  0  1  0  0  0  0  0  0  0  0
   -2.9803    4.1614    0.0371 C   0  0  0  1  0  0  0  0  0  0  0  0
   -3.6504    5.3551   -0.1528 C   0  0  0  1  0  0  0  0  0  0  0  0
   -1.4166    2.7084    1.3536 C   0  0  0  1  0  0  0  0  0  0  0  0
   -5.8432    7.0322    0.2258 H   0  0  0  1  0  0  0  0  0  0  0  0
   -2.9631    9.2535   -0.0470 H   0  0  0  1  0  0  0  0  0  0  0  0
   -2.3635    7.0876    2.3951 H   0  0  0  1  0  0  0  0  0  0  0  0
   -1.1899    4.9908    2.7310 H   0  0  0  1  0  0  0  0  0  0  0  0
   -3.1498    3.3618   -0.6060 H   0  0  0  1  0  0  0  0  0  0  0  0
   -4.3213    5.4551   -0.9412 H   0  0  0  1  0  0  0  0  0  0  0  0
   -1.8064    2.3234    2.2727 H   0  0  0  1  0  0  0  0  0  0  0  0
   -1.6669    2.0438    0.5532 H   0  0  0  1  0  0  0  0  0  0  0  0
  1  4  1  0  0  0  0
  2  4  1  0  0  0  0
  2  5  2  0  0  0  0
  2  6  1  0  0  0  0
  3  4  1  0  0  0  0
  3  7  1  0  0  0  0
  3  8  1  0  0  0  0
  4 28  1  0  0  0  0
  6  9  1  0  0  0  0
  6 12  1  0  0  0  0
  8 10  1  0  0  0  0
  8 11  2  0  0  0  0
  9 13  1  0  0  0  0
  9 14  1  0  0  0  0
  9 15  1  0  0  0  0
 10 16  1  0  0  0  0
 10 17  1  0  0  0  0
 10 18  1  0  0  0  0
 19 20  1  0  0  0  0
 19 21  1  0  0  0  0
 19 22  1  0  0  0  0
 20 29  1  0  0  0  0
 21 30  1  0  0  0  0
 22 23  4  0  0  0  0
 22 27  4  0  0  0  0
 23 24  4  0  0  0  0
 23 31  1  0  0  0  0
 24 25  4  0  0  0  0
 24 32  1  0  0  0  0
 25 26  4  0  0  0  0
 25 28  1  0  0  0  0
 26 27  4  0  0  0  0
 26 33  1  0  0  0  0
 27 34  1  0  0  0  0
 28 35  1  0  0  0  0
 28 36  1  0  0  0  0
M  END
> <BCLConfClusterSize>
1

> <ConfClashScore>
0 

> <ConfOneFourInteractionScore>
-0.969136 

> <ConfScore>
-0.183092 

> <ConfScorePBest>
0.00700789 

> <ConfTolerance>
0.312269 

> <RosettaParamsInstructions>
M  ROOT 3
M  POLY_N_BB 3
M  POLY_CA_BB 4
M  POLY_C_BB 2
M  POLY_O_BB 5
M  POLY_IGNORE 9 10 11 12 13 14 15 16 17 18 
M  POLY_UPPER 6
M  POLY_LOWER 8
M  POLY_CHG 0
M  POLY_PROPERTIES ALPHA_AA L_AA PROTEIN AROMATIC POLYMER 
M  END

$$$$



 36 36  0  0  0  0  0  0  0  0999 V2000
   -0.6867    2.2342   -0.5939 H   0  0  0  1  0  0  0  0  0  0  0  0
    0.6802    3.5806    0.3420 C   0  0  0  1  0  0  0  0  0  0  0  0
    0.4014    1.1929    0.8454 N   0  0  0  1  0  0  0  0  0  0  0  0
   -0.2803    2.3927    0.3832 C   0  0  0  1  0  0  0  0  0  0  0  0
    0.5864    4.4411   -0.5177 O   0  0  0  1  0  0  0  0  0  0  0  0
    1.6168    3.6068    1.3033 N   0  0  0  1  0  0  0  0  0  0  0  0
   -0.0100    0.6598    1.5574 H   0  0  0  1  0  0  0  0  0  0  0  0
    1.5685    0.7928    0.3327 C   0  0  0  1  0  0  0  0  0  0  0  0
    2.6282    4.6507    1.3750 C   0  0  0  1  0  0  0  0  0  0  0  0
    2.0907   -0.5364    0.8422 C   0  0  0  1  0  0  0  0  0  0  0  0
    2.1890    1.4424   -0.4936 O   0  0  0  1  0  0  0  0  0  0  0  0
    1.6196    2.8984    1.9804 H   0  0  0  1  0  0  0  0  0  0  0  0
    2.4467    5.3771    0.6105 H   0  0  0  1  0  0  0  0  0  0  0  0
    3.5969    4.2188    1.2334 H   0  0  0  1  0  0  0  0  0  0  0  0
    2.5848    5.1239    2.3337 H   0  0  0  1  0  0  0  0  0  0  0  0
    2.0516   -0.5495    1.9114 H   0  0  0  1  0  0  0  0  0  0  0  0
    3.1028   -0.6685    0.5209 H   0  0  0  1  0  0  0  0  0  0  0  0
    1.4863   -1.3293    0.4537 H   0  0  0  1  0  0  0  0  0  0  0  0
   -4.1182    7.8171    0.4332 B   0  0  0  1  0  0  0  0  0  0  0  0
   -5.1913    7.9078   -0.3944 O   0  0  0  1  0  0  0  0  0  0  0  0
   -3.6551    8.9549    1.0166 O   0  0  0  1  0  0  0  0  0  0  0  0
   -3.4287    6.4193    0.7075 C   0  0  0  1  0  0  0  0  0  0  0  0
   -2.5331    6.2881    1.7520 C   0  0  0  1  0  0  0  0  0  0  0  0
   -1.8608    5.0909    1.9426 C   0  0  0  1  0  0  0  0  0  0  0  0
   -2.0821    4.0301    1.0846 C   0  0  0  1  0  0  0  0  0  0  0  0
   -2.9803    4.1615    0.0370 C   0  0  0  1  0  0  0  0  0  0  0  0
   -3.6505    5.3552   -0.1528 C   0  0  0  1  0  0  0  0  0  0  0  0
   -1.4119    2.6994    1.3553 C   0  0  0  1  0  0  0  0  0  0  0  0
   -4.9011    8.1866   -1.2660 H   0  0  0  1  0  0  0  0  0  0  0  0
   -3.2969    8.7479    1.8829 H   0  0  0  1  0  0  0  0  0  0  0  0
   -2.3636    7.0877    2.3951 H   0  0  0  1  0  0  0  0  0  0  0  0
   -1.1899    4.9909    2.7309 H   0  0  0  1  0  0  0  0  0  0  0  0
   -3.1498    3.3620   -0.6061 H   0  0  0  1  0  0  0  0  0  0  0  0
   -4.3214    5.4552   -0.9411 H   0  0  0  1  0  0  0  0  0  0  0  0
   -1.0133    2.7146    2.3481 H   0  0  0  1  0  0  0  0  0  0  0  0
   -2.1470    1.9258    1.2773 H   0  0  0  1  0  0  0  0  0  0  0  0
  1  4  1  0  0  0  0
  2  4  1  0  0  0  0
  2  5  2  0  0  0  0
  2  6  1  0  0  0  0
  3  4  1  0  0  0  0
  3  7  1  0  0  0  0
  3  8  1  0  0  0  0
  4 28  1  0  0  0  0
  6  9  1  0  0  0  0
  6 12  1  0  0  0  0
  8 10  1  0  0  0  0
  8 11  2  0  0  0  0
  9 13  1  0  0  0  0
  9 14  1  0  0  0  0
  9 15  1  0  0  0  0
 10 16  1  0  0  0  0
 10 17  1  0  0  0  0
 10 18  1  0  0  0  0
 19 20  1  0  0  0  0
 19 21  1  0  0  0  0
 19 22  1  0  0  0  0
 20 29  1  0  0  0  0
 21 30  1  0  0  0  0
 22 23  4  0  0  0  0
 22 27  4  0  0  0  0
 23 24  4  0  0  0  0
 23 31  1  0  0  0  0
 24 25  4  0  0  0  0
 24 32  1  0  0  0  0
 25 26  4  0  0  0  0
 25 28  1  0  0  0  0
 26 27  4  0  0  0  0
 26 33  1  0  0  0  0
 27 34  1  0  0  0  0
 28 35  1  0  0  0  0
 28 36  1  0  0  0  0
M  END
> <BCLConfClusterSize>
1

> <ConfClashScore>
0 

> <ConfOneFourInteractionScore>
-0.969136 

> <ConfScore>
-0.182905 

> <ConfScorePBest>
0.00697941 

> <ConfTolerance>
0.306655 

> <RosettaParamsInstructions>
M  ROOT 3
M  POLY_N_BB 3
M  POLY_CA_BB 4
M  POLY_C_BB 2
M  POLY_O_BB 5
M  POLY_IGNORE 9 10 11 12 13 14 15 16 17 18 
M  POLY_UPPER 6
M  POLY_LOWER 8
M  POLY_CHG 0
M  POLY_PROPERTIES ALPHA_AA L_AA PROTEIN AROMATIC POLYMER 
M  END

$$$$



 36 36  0  0  0  0  0  0  0  0999 V2000
   -2.3291    2.3635    3.2425 H   0  0  0  1  0  0  0  0  0  0  0  0
   -3.6594    1.6497    1.7325 C   0  0  0  1  0  0  0  0  0  0  0  0
   -1.5888    0.5673    2.4895 N   0  0  0  1  0  0  0  0  0  0  0  0
   -2.2576    1.8470    2.3082 C   0  0  0  1  0  0  0  0  0  0  0  0
   -4.5455    2.4848    1.9091 O   0  0  0  1  0  0  0  0  0  0  0  0
   -3.8489    0.5196    1.0332 N   0  0  0  1  0  0  0  0  0  0  0  0
   -0.7972    0.3663    1.9478 H   0  0  0  1  0  0  0  0  0  0  0  0
   -2.0299   -0.3720    3.3968 C   0  0  0  1  0  0  0  0  0  0  0  0
   -5.0957    0.2351    0.3386 C   0  0  0  1  0  0  0  0  0  0  0  0
   -1.3558   -1.7116    3.3345 C   0  0  0  1  0  0  0  0  0  0  0  0
   -2.9144   -0.0919    4.1836 O   0  0  0  1  0  0  0  0  0  0  0  0
   -3.1225   -0.1366    0.9889 H   0  0  0  1  0  0  0  0  0  0  0  0
   -5.2002    0.8989   -0.4941 H   0  0  0  1  0  0  0  0  0  0  0  0
   -5.9173    0.3735    1.0100 H   0  0  0  1  0  0  0  0  0  0  0  0
   -5.0864   -0.7762   -0.0107 H   0  0  0  1  0  0  0  0  0  0  0  0
   -0.3134   -1.5972    3.5471 H   0  0  0  1  0  0  0  0  0  0  0  0
   -1.4765   -2.1261    2.3554 H   0  0  0  1  0  0  0  0  0  0  0  0
   -1.7970   -2.3665    4.0565 H   0  0  0  1  0  0  0  0  0  0  0  0
   -4.0828    7.8536    0.4993 B   0  0  0  1  0  0  0  0  0  0  0  0
   -3.4099    8.9455    0.9696 O   0  0  0  1  0  0  0  0  0  0  0  0
   -5.2237    8.0559   -0.1935 O   0  0  0  1  0  0  0  0  0  0  0  0
   -3.4369    6.4119    0.6927 C   0  0  0  1  0  0  0  0  0  0  0  0
   -2.5434    6.2935    1.7405 C   0  0  0  1  0  0  0  0  0  0  0  0
   -1.8649    5.1015    1.9417 C   0  0  0  1  0  0  0  0  0  0  0  0
   -2.0780    4.0332    1.0911 C   0  0  0  1  0  0  0  0  0  0  0  0
   -2.9741    4.1518    0.0402 C   0  0  0  1  0  0  0  0  0  0  0  0
   -3.6505    5.3402   -0.1603 C   0  0  0  1  0  0  0  0  0  0  0  0
   -1.4270    2.6851    1.3310 C   0  0  0  1  0  0  0  0  0  0  0  0
   -2.9312    8.7080    1.7671 H   0  0  0  1  0  0  0  0  0  0  0  0
   -5.0107    8.3091   -1.0946 H   0  0  0  1  0  0  0  0  0  0  0  0
   -2.3801    7.0987    2.3781 H   0  0  0  1  0  0  0  0  0  0  0  0
   -1.1955    5.0111    2.7325 H   0  0  0  1  0  0  0  0  0  0  0  0
   -3.1374    3.3465   -0.5974 H   0  0  0  1  0  0  0  0  0  0  0  0
   -4.3198    5.4306   -0.9511 H   0  0  0  1  0  0  0  0  0  0  0  0
   -1.3481    2.1630    0.4003 H   0  0  0  1  0  0  0  0  0  0  0  0
   -0.4499    2.8352    1.7403 H   0  0  0  1  0  0  0  0  0  0  0  0
  1  4  1  0  0  0  0
  2  4  1  0  0  0  0
  2  5  2  0  0  0  0
  2  6  1  0  0  0  0
  3  4  1  0  0  0  0
  3  7  1  0  0  0  0
  3  8  1  0  0  0  0
  4 28  1  0  0  0  0
  6  9  1  0  0  0  0
  6 12  1  0  0  0  0
  8 10  1  0  0  0  0
  8 11  2  0  0  0  0
  9 13  1  0  0  0  0
  9 14  1  0  0  0  0
  9 15  1  0  0  0  0
 10 16  1  0  0  0  0
 10 17  1  0  0  0  0
 10 18  1  0  0  0  0
 19 20  1  0  0  0  0
 19 21  1  0  0  0  0
 19 22  1  0  0  0  0
 20 29  1  0  0  0  0
 21 30  1  0  0  0  0
 22 23  4  0  0  0  0
 22 27  4  0  0  0  0
 23 24  4  0  0  0  0
 23 31  1  0  0  0  0
 24 25  4  0  0  0  0
 24 32  1  0  0  0  0
 25 26  4  0  0  0  0
 25 28  1  0  0  0  0
 26 27  4  0  0  0  0
 26 33  1  0  0  0  0
 27 34  1  0  0  0  0
 28 35  1  0  0  0  0
 28 36  1  0  0  0  0
M  END
> <BCLConfClusterSize>
1

> <ConfClashScore>
0 

> <ConfOneFourInteractionScore>
-0.969136 

> <ConfScore>
-0.180032 

> <ConfScorePBest>
0.00695093 

> <ConfTolerance>
0.302216 

> <RosettaParamsInstructions>
M  ROOT 3
M  POLY_N_BB 3
M  POLY_CA_BB 4
M  POLY_C_BB 2
M  POLY_O_BB 5
M  POLY_IGNORE 9 10 11 12 13 14 15 16 17 18 
M  POLY_UPPER 6
M  POLY_LOWER 8
M  POLY_CHG 0
M  POLY_PROPERTIES ALPHA_AA L_AA PROTEIN AROMATIC POLYMER 
M  END

$$$$



 36 36  0  0  0  0  0  0  0  0999 V2000
   -0.3724    2.5234   -0.4842 H   0  0  0  1  0  0  0  0  0  0  0  0
    0.8604    3.6393    0.8279 C   0  0  0  1  0  0  0  0  0  0  0  0
    0.4954    1.2236    0.8688 N   0  0  0  1  0  0  0  0  0  0  0  0
   -0.1206    2.5029    0.5555 C   0  0  0  1  0  0  0  0  0  0  0  0
    0.7663    4.7147    0.2377 O   0  0  0  1  0  0  0  0  0  0  0  0
    1.7573    3.4288    1.7955 N   0  0  0  1  0  0  0  0  0  0  0  0
    0.0442    0.6229    1.4981 H   0  0  0  1  0  0  0  0  0  0  0  0
    1.6600    0.8369    0.3263 C   0  0  0  1  0  0  0  0  0  0  0  0
    2.7792    4.4079    2.1347 C   0  0  0  1  0  0  0  0  0  0  0  0
    2.1173   -0.5670    0.7263 C   0  0  0  1  0  0  0  0  0  0  0  0
    2.2936    1.4879   -0.4881 O   0  0  0  1  0  0  0  0  0  0  0  0
    1.7260    2.5857    2.2942 H   0  0  0  1  0  0  0  0  0  0  0  0
    3.2621    4.7444    1.2412 H   0  0  0  1  0  0  0  0  0  0  0  0
    3.5021    3.9586    2.7831 H   0  0  0  1  0  0  0  0  0  0  0  0
    2.3246    5.2407    2.6294 H   0  0  0  1  0  0  0  0  0  0  0  0
    1.3336   -1.2680    0.5280 H   0  0  0  1  0  0  0  0  0  0  0  0
    2.3526   -0.5814    1.7700 H   0  0  0  1  0  0  0  0  0  0  0  0
    2.9856   -0.8337    0.1607 H   0  0  0  1  0  0  0  0  0  0  0  0
   -4.1022    7.8391    0.4658 B   0  0  0  1  0  0  0  0  0  0  0  0
   -4.6113    8.5800    1.4855 O   0  0  0  1  0  0  0  0  0  0  0  0
   -4.2722    8.3674   -0.7757 O   0  0  0  1  0  0  0  0  0  0  0  0
   -3.4324    6.4153    0.7003 C   0  0  0  1  0  0  0  0  0  0  0  0
   -2.5375    6.2883    1.7460 C   0  0  0  1  0  0  0  0  0  0  0  0
   -1.8633    5.0928    1.9400 C   0  0  0  1  0  0  0  0  0  0  0  0
   -2.0820    4.0295    1.0846 C   0  0  0  1  0  0  0  0  0  0  0  0
   -2.9795    4.1567    0.0358 C   0  0  0  1  0  0  0  0  0  0  0  0
   -3.6516    5.3488   -0.1575 C   0  0  0  1  0  0  0  0  0  0  0  0
   -1.4097    2.7006    1.3591 C   0  0  0  1  0  0  0  0  0  0  0  0
   -3.9302    9.1628    1.8292 H   0  0  0  1  0  0  0  0  0  0  0  0
   -5.1318    8.1115   -1.1180 H   0  0  0  1  0  0  0  0  0  0  0  0
   -2.3700    7.0898    2.3872 H   0  0  0  1  0  0  0  0  0  0  0  0
   -1.1930    4.9959    2.7293 H   0  0  0  1  0  0  0  0  0  0  0  0
   -3.1470    3.3553   -0.6055 H   0  0  0  1  0  0  0  0  0  0  0  0
   -4.3219    5.4456   -0.9468 H   0  0  0  1  0  0  0  0  0  0  0  0
   -1.1729    2.6476    2.4012 H   0  0  0  1  0  0  0  0  0  0  0  0
   -2.0917    1.9155    1.1074 H   0  0  0  1  0  0  0  0  0  0  0  0
  1  4  1  0  0  0  0
  2  4  1  0  0  0  0
  2  5  2  0  0  0  0
  2  6  1  0  0  0  0
  3  4  1  0  0  0  0
  3  7  1  0  0  0  0
  3  8  1  0  0  0  0
  4 28  1  0  0  0  0
  6  9  1  0  0  0  0
  6 12  1  0  0  0  0
  8 10  1  0  0  0  0
  8 11  2  0  0  0  0
  9 13  1  0  0  0  0
  9 14  1  0  0  0  0
  9 15  1  0  0  0  0
 10 16  1  0  0  0  0
 10 17  1  0  0  0  0
 10 18  1  0  0  0  0
 19 20  1  0  0  0  0
 19 21  1  0  0  0  0
 19 22  1  0  0  0  0
 20 29  1  0  0  0  0
 21 30  1  0  0  0  0
 22 23  4  0  0  0  0
 22 27  4  0  0  0  0
 23 24  4  0  0  0  0
 23 31  1  0  0  0  0
 24 25  4  0  0  0  0
 24 32  1  0  0  0  0
 25 26  4  0  0  0  0
 25 28  1  0  0  0  0
 26 27  4  0  0  0  0
 26 33  1  0  0  0  0
 27 34  1  0  0  0  0
 28 35  1  0  0  0  0
 28 36  1  0  0  0  0
M  END
> <BCLConfClusterSize>
1

> <ConfClashScore>
0 

> <ConfOneFourInteractionScore>
-0.969136 

> <ConfScore>
-0.177162 

> <ConfScorePBest>
0.00692245 

> <ConfTolerance>
0.322045 

> <RosettaParamsInstructions>
M  ROOT 3
M  POLY_N_BB 3
M  POLY_CA_BB 4
M  POLY_C_BB 2
M  POLY_O_BB 5
M  POLY_IGNORE 9 10 11 12 13 14 15 16 17 18 
M  POLY_UPPER 6
M  POLY_LOWER 8
M  POLY_CHG 0
M  POLY_PROPERTIES ALPHA_AA L_AA PROTEIN AROMATIC POLYMER 
M  END

$$$$



 36 36  0  0  0  0  0  0  0  0999 V2000
    0.5573    3.2710    0.8169 H   0  0  0  1  0  0  0  0  0  0  0  0
    0.4465    1.1621    0.7373 C   0  0  0  1  0  0  0  0  0  0  0  0
   -0.4856    2.7894   -0.8996 N   0  0  0  1  0  0  0  0  0  0  0  0
   -0.1545    2.5398    0.4953 C   0  0  0  1  0  0  0  0  0  0  0  0
    1.2957    0.9887    1.6105 O   0  0  0  1  0  0  0  0  0  0  0  0
    0.0251    0.1515   -0.0245 N   0  0  0  1  0  0  0  0  0  0  0  0
   -1.4125    3.0039   -1.1347 H   0  0  0  1  0  0  0  0  0  0  0  0
    0.4301    2.7362   -1.8710 C   0  0  0  1  0  0  0  0  0  0  0  0
    0.5433   -1.2072    0.0326 C   0  0  0  1  0  0  0  0  0  0  0  0
   -0.0522    2.9974   -3.2982 C   0  0  0  1  0  0  0  0  0  0  0  0
    1.5883    2.4132   -1.6616 O   0  0  0  1  0  0  0  0  0  0  0  0
   -0.6871    0.3380   -0.6713 H   0  0  0  1  0  0  0  0  0  0  0  0
    1.5876   -1.2013   -0.2003 H   0  0  0  1  0  0  0  0  0  0  0  0
    0.0235   -1.8170   -0.6765 H   0  0  0  1  0  0  0  0  0  0  0  0
    0.3999   -1.6024    1.0165 H   0  0  0  1  0  0  0  0  0  0  0  0
   -0.6060    3.9125   -3.3262 H   0  0  0  1  0  0  0  0  0  0  0  0
   -0.6798    2.1911   -3.6155 H   0  0  0  1  0  0  0  0  0  0  0  0
    0.7918    3.0716   -3.9517 H   0  0  0  1  0  0  0  0  0  0  0  0
   -4.1182    7.8171    0.4332 B   0  0  0  1  0  0  0  0  0  0  0  0
   -4.9755    8.3544    1.3392 O   0  0  0  1  0  0  0  0  0  0  0  0
   -3.8713    8.5063   -0.7042 O   0  0  0  1  0  0  0  0  0  0  0  0
   -3.4287    6.4193    0.7075 C   0  0  0  1  0  0  0  0  0  0  0  0
   -2.5331    6.2881    1.7520 C   0  0  0  1  0  0  0  0  0  0  0  0
   -1.8608    5.0909    1.9426 C   0  0  0  1  0  0  0  0  0  0  0  0
   -2.0821    4.0301    1.0846 C   0  0  0  1  0  0  0  0  0  0  0  0
   -2.9803    4.1615    0.0370 C   0  0  0  1  0  0  0  0  0  0  0  0
   -3.6505    5.3552   -0.1528 C   0  0  0  1  0  0  0  0  0  0  0  0
   -1.4119    2.6994    1.3553 C   0  0  0  1  0  0  0  0  0  0  0  0
   -5.8328    7.9297    1.2603 H   0  0  0  1  0  0  0  0  0  0  0  0
   -4.6971    8.6691   -1.1659 H   0  0  0  1  0  0  0  0  0  0  0  0
   -2.3636    7.0877    2.3951 H   0  0  0  1  0  0  0  0  0  0  0  0
   -1.1899    4.9909    2.7309 H   0  0  0  1  0  0  0  0  0  0  0  0
   -3.1498    3.3620   -0.6061 H   0  0  0  1  0  0  0  0  0  0  0  0
   -4.3214    5.4552   -0.9411 H   0  0  0  1  0  0  0  0  0  0  0  0
   -1.1391    2.6478    2.3886 H   0  0  0  1  0  0  0  0  0  0  0  0
   -2.0961    1.9091    1.1266 H   0  0  0  1  0  0  0  0  0  0  0  0
  1  4  1  0  0  0  0
  2  4  1  0  0  0  0
  2  5  2  0  0  0  0
  2  6  1  0  0  0  0
  3  4  1  0  0  0  0
  3  7  1  0  0  0  0
  3  8  1  0  0  0  0
  4 28  1  0  0  0  0
  6  9  1  0  0  0  0
  6 12  1  0  0  0  0
  8 10  1  0  0  0  0
  8 11  2  0  0  0  0
  9 13  1  0  0  0  0
  9 14  1  0  0  0  0
  9 15  1  0  0  0  0
 10 16  1  0  0  0  0
 10 17  1  0  0  0  0
 10 18  1  0  0  0  0
 19 20  1  0  0  0  0
 19 21  1  0  0  0  0
 19 22  1  0  0  0  0
 20 29  1  0  0  0  0
 21 30  1  0  0  0  0
 22 23  4  0  0  0  0
 22 27  4  0  0  0  0
 23 24  4  0  0  0  0
 23 31  1  0  0  0  0
 24 25  4  0  0  0  0
 24 32  1  0  0  0  0
 25 26  4  0  0  0  0
 25 28  1  0  0  0  0
 26 27  4  0  0  0  0
 26 33  1  0  0  0  0
 27 34  1  0  0  0  0
 28 35  1  0  0  0  0
 28 36  1  0  0  0  0
M  END
> <BCLConfClusterSize>
1

> <ConfClashScore>
0 

> <ConfOneFourInteractionScore>
-0.969136 

> <ConfScore>
-0.176114 

> <ConfScorePBest>
0.00689397 

> <ConfTolerance>
0.268649 

> <RosettaParamsInstructions>
M  ROOT 3
M  POLY_N_BB 3
M  POLY_CA_BB 4
M  POLY_C_BB 2
M  POLY_O_BB 5
M  POLY_IGNORE 9 10 11 12 13 14 15 16 17 18 
M  POLY_UPPER 6
M  POLY_LOWER 8
M  POLY_CHG 0
M  POLY_PROPERTIES ALPHA_AA L_AA PROTEIN AROMATIC POLYMER 
M  END

$$$$



 36 36  0  0  0  0  0  0  0  0999 V2000
   -3.0497    1.3892    1.2475 H   0  0  0  1  0  0  0  0  0  0  0  0
   -1.4194    0.3505    2.0951 C   0  0  0  1  0  0  0  0  0  0  0  0
   -2.8552    2.0595    3.1911 N   0  0  0  1  0  0  0  0  0  0  0  0
   -2.2643    1.6038    1.9416 C   0  0  0  1  0  0  0  0  0  0  0  0
   -0.7871    0.1212    3.1253 O   0  0  0  1  0  0  0  0  0  0  0  0
   -1.4405   -0.4497    1.0174 N   0  0  0  1  0  0  0  0  0  0  0  0
   -2.6932    2.9742    3.5036 H   0  0  0  1  0  0  0  0  0  0  0  0
   -3.6255    1.2255    3.9200 C   0  0  0  1  0  0  0  0  0  0  0  0
   -0.6507   -1.6695    0.9393 C   0  0  0  1  0  0  0  0  0  0  0  0
   -4.1442    1.7845    5.2306 C   0  0  0  1  0  0  0  0  0  0  0  0
   -3.8980    0.0905    3.5635 O   0  0  0  1  0  0  0  0  0  0  0  0
   -2.0075   -0.2039    0.2569 H   0  0  0  1  0  0  0  0  0  0  0  0
   -0.6480   -2.1549    1.8929 H   0  0  0  1  0  0  0  0  0  0  0  0
    0.3533   -1.4267    0.6602 H   0  0  0  1  0  0  0  0  0  0  0  0
   -1.0766   -2.3236    0.2075 H   0  0  0  1  0  0  0  0  0  0  0  0
   -4.5916    2.7412    5.0588 H   0  0  0  1  0  0  0  0  0  0  0  0
   -3.3322    1.8894    5.9196 H   0  0  0  1  0  0  0  0  0  0  0  0
   -4.8747    1.1174    5.6384 H   0  0  0  1  0  0  0  0  0  0  0  0
   -4.1178    7.8165    0.4333 B   0  0  0  1  0  0  0  0  0  0  0  0
   -4.1226    8.7675    1.4029 O   0  0  0  1  0  0  0  0  0  0  0  0
   -4.7273    8.1561   -0.7340 O   0  0  0  1  0  0  0  0  0  0  0  0
   -3.4283    6.4186    0.7076 C   0  0  0  1  0  0  0  0  0  0  0  0
   -2.5327    6.2875    1.7522 C   0  0  0  1  0  0  0  0  0  0  0  0
   -1.8604    5.0903    1.9427 C   0  0  0  1  0  0  0  0  0  0  0  0
   -2.0818    4.0295    1.0848 C   0  0  0  1  0  0  0  0  0  0  0  0
   -2.9800    4.1609    0.0372 C   0  0  0  1  0  0  0  0  0  0  0  0
   -3.6502    5.3546   -0.1526 C   0  0  0  1  0  0  0  0  0  0  0  0
   -1.4156    2.7067    1.3539 C   0  0  0  1  0  0  0  0  0  0  0  0
   -3.3597    9.3399    1.2941 H   0  0  0  1  0  0  0  0  0  0  0  0
   -5.6695    7.9854   -0.6651 H   0  0  0  1  0  0  0  0  0  0  0  0
   -2.3632    7.0871    2.3952 H   0  0  0  1  0  0  0  0  0  0  0  0
   -1.1896    4.9903    2.7311 H   0  0  0  1  0  0  0  0  0  0  0  0
   -3.1495    3.3613   -0.6059 H   0  0  0  1  0  0  0  0  0  0  0  0
   -4.3210    5.4545   -0.9410 H   0  0  0  1  0  0  0  0  0  0  0  0
   -1.0258    2.3494    0.4237 H   0  0  0  1  0  0  0  0  0  0  0  0
   -0.6091    2.8868    2.0336 H   0  0  0  1  0  0  0  0  0  0  0  0
  1  4  1  0  0  0  0
  2  4  1  0  0  0  0
  2  5  2  0  0  0  0
  2  6  1  0  0  0  0
  3  4  1  0  0  0  0
  3  7  1  0  0  0  0
  3  8  1  0  0  0  0
  4 28  1  0  0  0  0
  6  9  1  0  0  0  0
  6 12  1  0  0  0  0
  8 10  1  0  0  0  0
  8 11  2  0  0  0  0
  9 13  1  0  0  0  0
  9 14  1  0  0  0  0
  9 15  1  0  0  0  0
 10 16  1  0  0  0  0
 10 17  1  0  0  0  0
 10 18  1  0  0  0  0
 19 20  1  0  0  0  0
 19 21  1  0  0  0  0
 19 22  1  0  0  0  0
 20 29  1  0  0  0  0
 21 30  1  0  0  0  0
 22 23  4  0  0  0  0
 22 27  4  0  0  0  0
 23 24  4  0  0  0  0
 23 31  1  0  0  0  0
 24 25  4  0  0  0  0
 24 32  1  0  0  0  0
 25 26  4  0  0  0  0
 25 28  1  0  0  0  0
 26 27  4  0  0  0  0
 26 33  1  0  0  0  0
 27 34  1  0  0  0  0
 28 35  1  0  0  0  0
 28 36  1  0  0  0  0
M  END
> <BCLConfClusterSize>
1

> <ConfClashScore>
0 

> <ConfOneFourInteractionScore>
-0.988961 

> <ConfScore>
-0.17601 

> <ConfScorePBest>
0.00686549 

> <ConfTolerance>
0.282418 

> <RosettaParamsInstructions>
M  ROOT 3
M  POLY_N_BB 3
M  POLY_CA_BB 4
M  POLY_C_BB 2
M  POLY_O_BB 5
M  POLY_IGNORE 9 10 11 12 13 14 15 16 17 18 
M  POLY_UPPER 6
M  POLY_LOWER 8
M  POLY_CHG 0
M  POLY_PROPERTIES ALPHA_AA L_AA PROTEIN AROMATIC POLYMER 
M  END

$$$$



 36 36  0  0  0  0  0  0  0  0999 V2000
    0.4234    3.2556    0.4494 H   0  0  0  1  0  0  0  0  0  0  0  0
    0.5728    1.2351    1.1159 C   0  0  0  1  0  0  0  0  0  0  0  0
   -0.6496    2.0500   -0.8578 N   0  0  0  1  0  0  0  0  0  0  0  0
   -0.2101    2.3941    0.4861 C   0  0  0  1  0  0  0  0  0  0  0  0
    0.0345    0.1381    1.2593 O   0  0  0  1  0  0  0  0  0  0  0  0
    1.8625    1.4639    1.4064 N   0  0  0  1  0  0  0  0  0  0  0  0
   -1.2893    1.3142   -0.9571 H   0  0  0  1  0  0  0  0  0  0  0  0
   -0.2374    2.6720   -1.9628 C   0  0  0  1  0  0  0  0  0  0  0  0
    2.6807    0.4986    2.1251 C   0  0  0  1  0  0  0  0  0  0  0  0
   -0.7246    2.0816   -3.2717 C   0  0  0  1  0  0  0  0  0  0  0  0
    0.4859    3.6549   -1.9416 O   0  0  0  1  0  0  0  0  0  0  0  0
    2.2677    2.3106    1.1247 H   0  0  0  1  0  0  0  0  0  0  0  0
    2.2964   -0.4867    1.9624 H   0  0  0  1  0  0  0  0  0  0  0  0
    2.6585    0.7215    3.1714 H   0  0  0  1  0  0  0  0  0  0  0  0
    3.6887    0.5511    1.7700 H   0  0  0  1  0  0  0  0  0  0  0  0
   -0.3662    1.0778   -3.3662 H   0  0  0  1  0  0  0  0  0  0  0  0
   -0.3568    2.6695   -4.0867 H   0  0  0  1  0  0  0  0  0  0  0  0
   -1.7945    2.0809   -3.2861 H   0  0  0  1  0  0  0  0  0  0  0  0
   -4.0816    7.8580    0.5023 B   0  0  0  1  0  0  0  0  0  0  0  0
   -4.8720    8.0860   -0.5784 O   0  0  0  1  0  0  0  0  0  0  0  0
   -3.9528    8.8447    1.4221 O   0  0  0  1  0  0  0  0  0  0  0  0
   -3.4364    6.4106    0.6925 C   0  0  0  1  0  0  0  0  0  0  0  0
   -2.5424    6.2882    1.7394 C   0  0  0  1  0  0  0  0  0  0  0  0
   -1.8659    5.0945    1.9374 C   0  0  0  1  0  0  0  0  0  0  0  0
   -2.0817    4.0284    1.0846 C   0  0  0  1  0  0  0  0  0  0  0  0
   -2.9784    4.1511    0.0346 C   0  0  0  1  0  0  0  0  0  0  0  0
   -3.6527    5.3413   -0.1627 C   0  0  0  1  0  0  0  0  0  0  0  0
   -1.4117    2.7107    1.3615 C   0  0  0  1  0  0  0  0  0  0  0  0
   -5.0858    7.2510   -1.0009 H   0  0  0  1  0  0  0  0  0  0  0  0
   -3.7335    8.4615    2.2745 H   0  0  0  1  0  0  0  0  0  0  0  0
   -2.3770    7.0917    2.3786 H   0  0  0  1  0  0  0  0  0  0  0  0
   -1.1962    5.0011    2.7275 H   0  0  0  1  0  0  0  0  0  0  0  0
   -3.1437    3.3476   -0.6047 H   0  0  0  1  0  0  0  0  0  0  0  0
   -4.3224    5.4346   -0.9528 H   0  0  0  1  0  0  0  0  0  0  0  0
   -1.0859    2.7138    2.3807 H   0  0  0  1  0  0  0  0  0  0  0  0
   -2.1361    1.9360    1.2204 H   0  0  0  1  0  0  0  0  0  0  0  0
  1  4  1  0  0  0  0
  2  4  1  0  0  0  0
  2  5  2  0  0  0  0
  2  6  1  0  0  0  0
  3  4  1  0  0  0  0
  3  7  1  0  0  0  0
  3  8  1  0  0  0  0
  4 28  1  0  0  0  0
  6  9  1  0  0  0  0
  6 12  1  0  0  0  0
  8 10  1  0  0  0  0
  8 11  2  0  0  0  0
  9 13  1  0  0  0  0
  9 14  1  0  0  0  0
  9 15  1  0  0  0  0
 10 16  1  0  0  0  0
 10 17  1  0  0  0  0
 10 18  1  0  0  0  0
 19 20  1  0  0  0  0
 19 21  1  0  0  0  0
 19 22  1  0  0  0  0
 20 29  1  0  0  0  0
 21 30  1  0  0  0  0
 22 23  4  0  0  0  0
 22 27  4  0  0  0  0
 23 24  4  0  0  0  0
 23 31  1  0  0  0  0
 24 25  4  0  0  0  0
 24 32  1  0  0  0  0
 25 26  4  0  0  0  0
 25 28  1  0  0  0  0
 26 27  4  0  0  0  0
 26 33  1  0  0  0  0
 27 34  1  0  0  0  0
 28 35  1  0  0  0  0
 28 36  1  0  0  0  0
M  END
> <BCLConfClusterSize>
1

> <ConfClashScore>
0 

> <ConfOneFourInteractionScore>
-0.979973 

> <ConfScore>
-0.173588 

> <ConfScorePBest>
0.00683701 

> <ConfTolerance>
0.284834 

> <RosettaParamsInstructions>
M  ROOT 3
M  POLY_N_BB 3
M  POLY_CA_BB 4
M  POLY_C_BB 2
M  POLY_O_BB 5
M  POLY_IGNORE 9 10 11 12 13 14 15 16 17 18 
M  POLY_UPPER 6
M  POLY_LOWER 8
M  POLY_CHG 0
M  POLY_PROPERTIES ALPHA_AA L_AA PROTEIN AROMATIC POLYMER 
M  END

$$$$



 36 36  0  0  0  0  0  0  0  0999 V2000
   -2.2860    2.4020    3.2374 H   0  0  0  1  0  0  0  0  0  0  0  0
   -3.4273    1.3363    1.7765 C   0  0  0  1  0  0  0  0  0  0  0  0
   -1.3044    0.6439    2.7022 N   0  0  0  1  0  0  0  0  0  0  0  0
   -2.0949    1.8174    2.3618 C   0  0  0  1  0  0  0  0  0  0  0  0
   -4.3906    2.0809    1.6995 O   0  0  0  1  0  0  0  0  0  0  0  0
   -3.4553    0.0596    1.3626 N   0  0  0  1  0  0  0  0  0  0  0  0
   -0.4885    0.4589    2.1916 H   0  0  0  1  0  0  0  0  0  0  0  0
   -1.6521   -0.1900    3.6864 C   0  0  0  1  0  0  0  0  0  0  0  0
   -4.6534   -0.6224    0.8963 C   0  0  0  1  0  0  0  0  0  0  0  0
   -0.6425   -1.2705    4.0218 C   0  0  0  1  0  0  0  0  0  0  0  0
   -2.7103   -0.1030    4.2883 O   0  0  0  1  0  0  0  0  0  0  0  0
   -2.6156   -0.4454    1.3752 H   0  0  0  1  0  0  0  0  0  0  0  0
   -5.5195   -0.0793    1.2125 H   0  0  0  1  0  0  0  0  0  0  0  0
   -4.6832   -1.6105    1.3057 H   0  0  0  1  0  0  0  0  0  0  0  0
   -4.6385   -0.6787   -0.1721 H   0  0  0  1  0  0  0  0  0  0  0  0
    0.3083   -0.8217    4.2204 H   0  0  0  1  0  0  0  0  0  0  0  0
   -0.5532   -1.9438    3.1951 H   0  0  0  1  0  0  0  0  0  0  0  0
   -0.9703   -1.8084    4.8867 H   0  0  0  1  0  0  0  0  0  0  0  0
   -4.1009    7.8182    0.4052 B   0  0  0  1  0  0  0  0  0  0  0  0
   -3.5242    8.7637   -0.3809 O   0  0  0  1  0  0  0  0  0  0  0  0
   -5.3143    8.1171    0.9415 O   0  0  0  1  0  0  0  0  0  0  0  0
   -3.4355    6.4161    0.7161 C   0  0  0  1  0  0  0  0  0  0  0  0
   -2.5377    6.2892    1.7593 C   0  0  0  1  0  0  0  0  0  0  0  0
   -1.8586    5.0955    1.9481 C   0  0  0  1  0  0  0  0  0  0  0  0
   -2.0754    4.0341    1.0898 C   0  0  0  1  0  0  0  0  0  0  0  0
   -2.9757    4.1612    0.0436 C   0  0  0  1  0  0  0  0  0  0  0  0
   -3.6527    5.3514   -0.1446 C   0  0  0  1  0  0  0  0  0  0  0  0
   -1.4289    2.6948    1.3145 C   0  0  0  1  0  0  0  0  0  0  0  0
   -3.7793    8.6194   -1.2951 H   0  0  0  1  0  0  0  0  0  0  0  0
   -5.1919    8.5603    1.7842 H   0  0  0  1  0  0  0  0  0  0  0  0
   -2.3717    7.0892    2.4026 H   0  0  0  1  0  0  0  0  0  0  0  0
   -1.1861    4.9987    2.7355 H   0  0  0  1  0  0  0  0  0  0  0  0
   -3.1418    3.3611   -0.5998 H   0  0  0  1  0  0  0  0  0  0  0  0
   -4.3252    5.4481   -0.9320 H   0  0  0  1  0  0  0  0  0  0  0  0
   -1.4375    2.1641    0.3854 H   0  0  0  1  0  0  0  0  0  0  0  0
   -0.4175    2.8636    1.6201 H   0  0  0  1  0  0  0  0  0  0  0  0
  1  4  1  0  0  0  0
  2  4  1  0  0  0  0
  2  5  2  0  0  0  0
  2  6  1  0  0  0  0
  3  4  1  0  0  0  0
  3  7  1  0  0  0  0
  3  8  1  0  0  0  0
  4 28  1  0  0  0  0
  6  9  1  0  0  0  0
  6 12  1  0  0  0  0
  8 10  1  0  0  0  0
  8 11  2  0  0  0  0
  9 13  1  0  0  0  0
  9 14  1  0  0  0  0
  9 15  1  0  0  0  0
 10 16  1  0  0  0  0
 10 17  1  0  0  0  0
 10 18  1  0  0  0  0
 19 20  1  0  0  0  0
 19 21  1  0  0  0  0
 19 22  1  0  0  0  0
 20 29  1  0  0  0  0
 21 30  1  0  0  0  0
 22 23  4  0  0  0  0
 22 27  4  0  0  0  0
 23 24  4  0  0  0  0
 23 31  1  0  0  0  0
 24 25  4  0  0  0  0
 24 32  1  0  0  0  0
 25 26  4  0  0  0  0
 25 28  1  0  0  0  0
 26 27  4  0  0  0  0
 26 33  1  0  0  0  0
 27 34  1  0  0  0  0
 28 35  1  0  0  0  0
 28 36  1  0  0  0  0
M  END
> <BCLConfClusterSize>
1

> <ConfClashScore>
0 

> <ConfOneFourInteractionScore>
-0.954617 

> <ConfScore>
-0.173142 

> <ConfScorePBest>
0.00680853 

> <ConfTolerance>
0.338886 

> <RosettaParamsInstructions>
M  ROOT 3
M  POLY_N_BB 3
M  POLY_CA_BB 4
M  POLY_C_BB 2
M  POLY_O_BB 5
M  POLY_IGNORE 9 10 11 12 13 14 15 16 17 18 
M  POLY_UPPER 6
M  POLY_LOWER 8
M  POLY_CHG 0
M  POLY_PROPERTIES ALPHA_AA L_AA PROTEIN AROMATIC POLYMER 
M  END

$$$$



 36 36  0  0  0  0  0  0  0  0999 V2000
   -3.2520    1.8901    2.0030 H   0  0  0  1  0  0  0  0  0  0  0  0
   -1.7853    0.4081    2.3206 C   0  0  0  1  0  0  0  0  0  0  0  0
   -2.1322    2.4843    3.6340 N   0  0  0  1  0  0  0  0  0  0  0  0
   -2.2320    1.8571    2.3245 C   0  0  0  1  0  0  0  0  0  0  0  0
   -2.3099   -0.4141    1.5877 O   0  0  0  1  0  0  0  0  0  0  0  0
   -0.7891    0.1026    3.1670 N   0  0  0  1  0  0  0  0  0  0  0  0
   -1.5436    3.2602    3.7431 H   0  0  0  1  0  0  0  0  0  0  0  0
   -2.8150    2.0390    4.6925 C   0  0  0  1  0  0  0  0  0  0  0  0
   -0.3334   -1.2645    3.3702 C   0  0  0  1  0  0  0  0  0  0  0  0
   -2.6589    2.8484    5.9651 C   0  0  0  1  0  0  0  0  0  0  0  0
   -3.5241    1.0462    4.6562 O   0  0  0  1  0  0  0  0  0  0  0  0
   -0.3536    0.8253    3.6654 H   0  0  0  1  0  0  0  0  0  0  0  0
   -0.9966   -1.7656    4.0440 H   0  0  0  1  0  0  0  0  0  0  0  0
    0.6534   -1.2535    3.7836 H   0  0  0  1  0  0  0  0  0  0  0  0
   -0.3221   -1.7795    2.4324 H   0  0  0  1  0  0  0  0  0  0  0  0
   -1.7488    2.5716    6.4551 H   0  0  0  1  0  0  0  0  0  0  0  0
   -3.4867    2.6544    6.6147 H   0  0  0  1  0  0  0  0  0  0  0  0
   -2.6309    3.8904    5.7236 H   0  0  0  1  0  0  0  0  0  0  0  0
   -4.0990    7.8206    0.4085 B   0  0  0  1  0  0  0  0  0  0  0  0
   -4.3500    8.2691   -0.8487 O   0  0  0  1  0  0  0  0  0  0  0  0
   -4.4266    8.6029    1.4716 O   0  0  0  1  0  0  0  0  0  0  0  0
   -3.4360    6.4168    0.7156 C   0  0  0  1  0  0  0  0  0  0  0  0
   -2.5377    6.2858    1.7578 C   0  0  0  1  0  0  0  0  0  0  0  0
   -1.8607    5.0905    1.9434 C   0  0  0  1  0  0  0  0  0  0  0  0
   -2.0801    4.0314    1.0829 C   0  0  0  1  0  0  0  0  0  0  0  0
   -2.9810    4.1626    0.0376 C   0  0  0  1  0  0  0  0  0  0  0  0
   -3.6559    5.3544   -0.1473 C   0  0  0  1  0  0  0  0  0  0  0  0
   -1.4046    2.7023    1.3483 C   0  0  0  1  0  0  0  0  0  0  0  0
   -3.5322    8.5715   -1.2503 H   0  0  0  1  0  0  0  0  0  0  0  0
   -5.2269    8.2673    1.8818 H   0  0  0  1  0  0  0  0  0  0  0  0
   -2.3697    7.0841    2.4028 H   0  0  0  1  0  0  0  0  0  0  0  0
   -1.1877    4.9906    2.7300 H   0  0  0  1  0  0  0  0  0  0  0  0
   -3.1491    3.3643   -0.6074 H   0  0  0  1  0  0  0  0  0  0  0  0
   -4.3288    5.4542   -0.9339 H   0  0  0  1  0  0  0  0  0  0  0  0
   -1.3007    2.1711    0.4253 H   0  0  0  1  0  0  0  0  0  0  0  0
   -0.4370    2.8785    1.7698 H   0  0  0  1  0  0  0  0  0  0  0  0
  1  4  1  0  0  0  0
  2  4  1  0  0  0  0
  2  5  2  0  0  0  0
  2  6  1  0  0  0  0
  3  4  1  0  0  0  0
  3  7  1  0  0  0  0
  3  8  1  0  0  0  0
  4 28  1  0  0  0  0
  6  9  1  0  0  0  0
  6 12  1  0  0  0  0
  8 10  1  0  0  0  0
  8 11  2  0  0  0  0
  9 13  1  0  0  0  0
  9 14  1  0  0  0  0
  9 15  1  0  0  0  0
 10 16  1  0  0  0  0
 10 17  1  0  0  0  0
 10 18  1  0  0  0  0
 19 20  1  0  0  0  0
 19 21  1  0  0  0  0
 19 22  1  0  0  0  0
 20 29  1  0  0  0  0
 21 30  1  0  0  0  0
 22 23  4  0  0  0  0
 22 27  4  0  0  0  0
 23 24  4  0  0  0  0
 23 31  1  0  0  0  0
 24 25  4  0  0  0  0
 24 32  1  0  0  0  0
 25 26  4  0  0  0  0
 25 28  1  0  0  0  0
 26 27  4  0  0  0  0
 26 33  1  0  0  0  0
 27 34  1  0  0  0  0
 28 35  1  0  0  0  0
 28 36  1  0  0  0  0
M  END
> <BCLConfClusterSize>
1

> <ConfClashScore>
0 

> <ConfOneFourInteractionScore>
-0.956993 

> <ConfScore>
-0.169281 

> <ConfScorePBest>
0.00678005 

> <ConfTolerance>
0.2784 

> <RosettaParamsInstructions>
M  ROOT 3
M  POLY_N_BB 3
M  POLY_CA_BB 4
M  POLY_C_BB 2
M  POLY_O_BB 5
M  POLY_IGNORE 9 10 11 12 13 14 15 16 17 18 
M  POLY_UPPER 6
M  POLY_LOWER 8
M  POLY_CHG 0
M  POLY_PROPERTIES ALPHA_AA L_AA PROTEIN AROMATIC POLYMER 
M  END

$$$$



 36 36  0  0  0  0  0  0  0  0999 V2000
    0.5655    3.2203    1.0572 H   0  0  0  1  0  0  0  0  0  0  0  0
    0.5169    1.1477    0.8074 C   0  0  0  1  0  0  0  0  0  0  0  0
   -0.1707    2.8852   -0.8135 N   0  0  0  1  0  0  0  0  0  0  0  0
   -0.1029    2.5244    0.5947 C   0  0  0  1  0  0  0  0  0  0  0  0
    1.1646    0.8889    1.8209 O   0  0  0  1  0  0  0  0  0  0  0  0
    0.3076    0.2560   -0.1739 N   0  0  0  1  0  0  0  0  0  0  0  0
   -0.9493    3.3848   -1.1368 H   0  0  0  1  0  0  0  0  0  0  0  0
    0.7916    2.5588   -1.6810 C   0  0  0  1  0  0  0  0  0  0  0  0
    0.7024   -1.1396   -0.0534 C   0  0  0  1  0  0  0  0  0  0  0  0
    0.6342    3.1196   -3.0810 C   0  0  0  1  0  0  0  0  0  0  0  0
    1.7438    1.8556   -1.3837 O   0  0  0  1  0  0  0  0  0  0  0  0
   -0.1260    0.5551   -1.0003 H   0  0  0  1  0  0  0  0  0  0  0  0
    1.1131   -1.3118    0.9195 H   0  0  0  1  0  0  0  0  0  0  0  0
    1.4381   -1.3673   -0.7963 H   0  0  0  1  0  0  0  0  0  0  0  0
   -0.1537   -1.7656   -0.1949 H   0  0  0  1  0  0  0  0  0  0  0  0
    0.5831    4.1873   -3.0345 H   0  0  0  1  0  0  0  0  0  0  0  0
   -0.2648    2.7384   -3.5187 H   0  0  0  1  0  0  0  0  0  0  0  0
    1.4732    2.8286   -3.6779 H   0  0  0  1  0  0  0  0  0  0  0  0
   -4.1458    7.8080    0.3910 B   0  0  0  1  0  0  0  0  0  0  0  0
   -4.6660    8.1629   -0.8124 O   0  0  0  1  0  0  0  0  0  0  0  0
   -4.2312    8.6857    1.4262 O   0  0  0  1  0  0  0  0  0  0  0  0
   -3.4239    6.4221    0.7162 C   0  0  0  1  0  0  0  0  0  0  0  0
   -2.5280    6.2905    1.7604 C   0  0  0  1  0  0  0  0  0  0  0  0
   -1.8555    5.0932    1.9501 C   0  0  0  1  0  0  0  0  0  0  0  0
   -2.0770    4.0329    1.0917 C   0  0  0  1  0  0  0  0  0  0  0  0
   -2.9755    4.1647    0.0444 C   0  0  0  1  0  0  0  0  0  0  0  0
   -3.6459    5.3584   -0.1446 C   0  0  0  1  0  0  0  0  0  0  0  0
   -1.4336    2.6809    1.3188 C   0  0  0  1  0  0  0  0  0  0  0  0
   -4.1648    8.8973   -1.1742 H   0  0  0  1  0  0  0  0  0  0  0  0
   -3.4583    9.2551    1.4282 H   0  0  0  1  0  0  0  0  0  0  0  0
   -2.3584    7.0897    2.4038 H   0  0  0  1  0  0  0  0  0  0  0  0
   -1.1845    4.9929    2.7383 H   0  0  0  1  0  0  0  0  0  0  0  0
   -3.1451    3.3655   -0.5990 H   0  0  0  1  0  0  0  0  0  0  0  0
   -4.3170    5.4587   -0.9328 H   0  0  0  1  0  0  0  0  0  0  0  0
   -1.2672    2.5550    2.3683 H   0  0  0  1  0  0  0  0  0  0  0  0
   -2.1026    1.9224    0.9697 H   0  0  0  1  0  0  0  0  0  0  0  0
  1  4  1  0  0  0  0
  2  4  1  0  0  0  0
  2  5  2  0  0  0  0
  2  6  1  0  0  0  0
  3  4  1  0  0  0  0
  3  7  1  0  0  0  0
  3  8  1  0  0  0  0
  4 28  1  0  0  0  0
  6  9  1  0  0  0  0
  6 12  1  0  0  0  0
  8 10  1  0  0  0  0
  8 11  2  0  0  0  0
  9 13  1  0  0  0  0
  9 14  1  0  0  0  0
  9 15  1  0  0  0  0
 10 16  1  0  0  0  0
 10 17  1  0  0  0  0
 10 18  1  0  0  0  0
 19 20  1  0  0  0  0
 19 21  1  0  0  0  0
 19 22  1  0  0  0  0
 20 29  1  0  0  0  0
 21 30  1  0  0  0  0
 22 23  4  0  0  0  0
 22 27  4  0  0  0  0
 23 24  4  0  0  0  0
 23 31  1  0  0  0  0
 24 25  4  0  0  0  0
 24 32  1  0  0  0  0
 25 26  4  0  0  0  0
 25 28  1  0  0  0  0
 26 27  4  0  0  0  0
 26 33  1  0  0  0  0
 27 34  1  0  0  0  0
 28 35  1  0  0  0  0
 28 36  1  0  0  0  0
M  END
> <BCLConfClusterSize>
1

> <ConfClashScore>
0 

> <ConfOneFourInteractionScore>
-0.954617 

> <ConfScore>
-0.168663 

> <ConfScorePBest>
0.00675157 

> <ConfTolerance>
0.412582 

> <RosettaParamsInstructions>
M  ROOT 3
M  POLY_N_BB 3
M  POLY_CA_BB 4
M  POLY_C_BB 2
M  POLY_O_BB 5
M  POLY_IGNORE 9 10 11 12 13 14 15 16 17 18 
M  POLY_UPPER 6
M  POLY_LOWER 8
M  POLY_CHG 0
M  POLY_PROPERTIES ALPHA_AA L_AA PROTEIN AROMATIC POLYMER 
M  END

$$$$



 36 36  0  0  0  0  0  0  0  0999 V2000
   -1.1382    2.1517   -0.6802 H   0  0  0  1  0  0  0  0  0  0  0  0
    0.6253    3.1279   -0.0050 C   0  0  0  1  0  0  0  0  0  0  0  0
   -0.0774    0.8404    0.5295 N   0  0  0  1  0  0  0  0  0  0  0  0
   -0.5484    2.1790    0.2121 C   0  0  0  1  0  0  0  0  0  0  0  0
    0.6490    3.9963   -0.8566 O   0  0  0  1  0  0  0  0  0  0  0  0
    1.6745    2.9601    0.8142 N   0  0  0  1  0  0  0  0  0  0  0  0
   -0.1568    0.4983    1.4444 H   0  0  0  1  0  0  0  0  0  0  0  0
    0.4685    0.0685   -0.4330 C   0  0  0  1  0  0  0  0  0  0  0  0
    2.8174    3.8571    0.7309 C   0  0  0  1  0  0  0  0  0  0  0  0
    0.8065   -1.3644   -0.0884 C   0  0  0  1  0  0  0  0  0  0  0  0
    0.6856    0.5141   -1.5567 O   0  0  0  1  0  0  0  0  0  0  0  0
    1.6712    2.2320    1.4702 H   0  0  0  1  0  0  0  0  0  0  0  0
    3.1949    3.8626   -0.2703 H   0  0  0  1  0  0  0  0  0  0  0  0
    3.5833    3.5216    1.3986 H   0  0  0  1  0  0  0  0  0  0  0  0
    2.5146    4.8466    1.0030 H   0  0  0  1  0  0  0  0  0  0  0  0
    0.2107   -1.6822    0.7416 H   0  0  0  1  0  0  0  0  0  0  0  0
    1.8427   -1.4341    0.1692 H   0  0  0  1  0  0  0  0  0  0  0  0
    0.6053   -1.9908   -0.9322 H   0  0  0  1  0  0  0  0  0  0  0  0
   -4.0985    7.8199    0.4086 B   0  0  0  1  0  0  0  0  0  0  0  0
   -3.7592    8.9687    1.0615 O   0  0  0  1  0  0  0  0  0  0  0  0
   -5.0489    7.8617   -0.5548 O   0  0  0  1  0  0  0  0  0  0  0  0
   -3.4356    6.4160    0.7157 C   0  0  0  1  0  0  0  0  0  0  0  0
   -2.5373    6.2851    1.7579 C   0  0  0  1  0  0  0  0  0  0  0  0
   -1.8603    5.0897    1.9436 C   0  0  0  1  0  0  0  0  0  0  0  0
   -2.0798    4.0306    1.0831 C   0  0  0  1  0  0  0  0  0  0  0  0
   -2.9806    4.1618    0.0378 C   0  0  0  1  0  0  0  0  0  0  0  0
   -3.6555    5.3536   -0.1472 C   0  0  0  1  0  0  0  0  0  0  0  0
   -1.4088    2.7106    1.3467 C   0  0  0  1  0  0  0  0  0  0  0  0
   -3.1274    9.4626    0.5337 H   0  0  0  1  0  0  0  0  0  0  0  0
   -4.7682    8.4538   -1.2564 H   0  0  0  1  0  0  0  0  0  0  0  0
   -2.3693    7.0834    2.4029 H   0  0  0  1  0  0  0  0  0  0  0  0
   -1.1874    4.9899    2.7302 H   0  0  0  1  0  0  0  0  0  0  0  0
   -3.1487    3.3635   -0.6072 H   0  0  0  1  0  0  0  0  0  0  0  0
   -4.3284    5.4534   -0.9338 H   0  0  0  1  0  0  0  0  0  0  0  0
   -0.7852    2.8237    2.2088 H   0  0  0  1  0  0  0  0  0  0  0  0
   -2.1711    1.9876    1.5496 H   0  0  0  1  0  0  0  0  0  0  0  0
  1  4  1  0  0  0  0
  2  4  1  0  0  0  0
  2  5  2  0  0  0  0
  2  6  1  0  0  0  0
  3  4  1  0  0  0  0
  3  7  1  0  0  0  0
  3  8  1  0  0  0  0
  4 28  1  0  0  0  0
  6  9  1  0  0  0  0
  6 12  1  0  0  0  0
  8 10  1  0  0  0  0
  8 11  2  0  0  0  0
  9 13  1  0  0  0  0
  9 14  1  0  0  0  0
  9 15  1  0  0  0  0
 10 16  1  0  0  0  0
 10 17  1  0  0  0  0
 10 18  1  0  0  0  0
 19 20  1  0  0  0  0
 19 21  1  0  0  0  0
 19 22  1  0  0  0  0
 20 29  1  0  0  0  0
 21 30  1  0  0  0  0
 22 23  4  0  0  0  0
 22 27  4  0  0  0  0
 23 24  4  0  0  0  0
 23 31  1  0  0  0  0
 24 25  4  0  0  0  0
 24 32  1  0  0  0  0
 25 26  4  0  0  0  0
 25 28  1  0  0  0  0
 26 27  4  0  0  0  0
 26 33  1  0  0  0  0
 27 34  1  0  0  0  0
 28 35  1  0  0  0  0
 28 36  1  0  0  0  0
M  END
> <BCLConfClusterSize>
1

> <ConfClashScore>
0 

> <ConfOneFourInteractionScore>
-0.969136 

> <ConfScore>
-0.168507 

> <ConfScorePBest>
0.00672309 

> <ConfTolerance>
0.346266 

> <RosettaParamsInstructions>
M  ROOT 3
M  POLY_N_BB 3
M  POLY_CA_BB 4
M  POLY_C_BB 2
M  POLY_O_BB 5
M  POLY_IGNORE 9 10 11 12 13 14 15 16 17 18 
M  POLY_UPPER 6
M  POLY_LOWER 8
M  POLY_CHG 0
M  POLY_PROPERTIES ALPHA_AA L_AA PROTEIN AROMATIC POLYMER 
M  END

$$$$



 36 36  0  0  0  0  0  0  0  0999 V2000
   -0.9923    2.8386    3.3879 H   0  0  0  1  0  0  0  0  0  0  0  0
    0.2698    1.3483    2.5864 C   0  0  0  1  0  0  0  0  0  0  0  0
    0.5374    3.7581    2.3441 N   0  0  0  1  0  0  0  0  0  0  0  0
   -0.4367    2.6862    2.4863 C   0  0  0  1  0  0  0  0  0  0  0  0
   -0.2819    0.3711    3.0908 O   0  0  0  1  0  0  0  0  0  0  0  0
    1.5179    1.3096    2.0935 N   0  0  0  1  0  0  0  0  0  0  0  0
    0.4936    4.3352    1.5533 H   0  0  0  1  0  0  0  0  0  0  0  0
    1.4974    3.9845    3.2620 C   0  0  0  1  0  0  0  0  0  0  0  0
    2.2681    0.0683    1.9735 C   0  0  0  1  0  0  0  0  0  0  0  0
    2.3482    5.2042    2.9658 C   0  0  0  1  0  0  0  0  0  0  0  0
    1.6926    3.2887    4.2566 O   0  0  0  1  0  0  0  0  0  0  0  0
    1.9384    2.1462    1.8044 H   0  0  0  1  0  0  0  0  0  0  0  0
    1.5882   -0.7560    1.9173 H   0  0  0  1  0  0  0  0  0  0  0  0
    2.9012   -0.0495    2.8281 H   0  0  0  1  0  0  0  0  0  0  0  0
    2.8666    0.0978    1.0870 H   0  0  0  1  0  0  0  0  0  0  0  0
    1.7213    6.0686    2.8961 H   0  0  0  1  0  0  0  0  0  0  0  0
    2.8640    5.0624    2.0392 H   0  0  0  1  0  0  0  0  0  0  0  0
    3.0595    5.3423    3.7531 H   0  0  0  1  0  0  0  0  0  0  0  0
   -4.0996    7.8155    0.4059 B   0  0  0  1  0  0  0  0  0  0  0  0
   -4.8560    8.0555   -0.6986 O   0  0  0  1  0  0  0  0  0  0  0  0
   -4.0919    8.7461    1.3962 O   0  0  0  1  0  0  0  0  0  0  0  0
   -3.4360    6.4172    0.7158 C   0  0  0  1  0  0  0  0  0  0  0  0
   -2.5383    6.2902    1.7591 C   0  0  0  1  0  0  0  0  0  0  0  0
   -1.8592    5.0966    1.9479 C   0  0  0  1  0  0  0  0  0  0  0  0
   -2.0759    4.0351    1.0897 C   0  0  0  1  0  0  0  0  0  0  0  0
   -2.9762    4.1623    0.0434 C   0  0  0  1  0  0  0  0  0  0  0  0
   -3.6532    5.3524   -0.1448 C   0  0  0  1  0  0  0  0  0  0  0  0
   -1.4250    2.6867    1.3159 C   0  0  0  1  0  0  0  0  0  0  0  0
   -4.6723    8.9387   -1.0270 H   0  0  0  1  0  0  0  0  0  0  0  0
   -3.3587    9.3510    1.2618 H   0  0  0  1  0  0  0  0  0  0  0  0
   -2.3722    7.0903    2.4024 H   0  0  0  1  0  0  0  0  0  0  0  0
   -1.1867    4.9998    2.7353 H   0  0  0  1  0  0  0  0  0  0  0  0
   -3.1423    3.3622   -0.6000 H   0  0  0  1  0  0  0  0  0  0  0  0
   -4.3257    5.4492   -0.9322 H   0  0  0  1  0  0  0  0  0  0  0  0
   -2.1916    1.9679    1.5172 H   0  0  0  1  0  0  0  0  0  0  0  0
   -0.8995    2.4086    0.4263 H   0  0  0  1  0  0  0  0  0  0  0  0
  1  4  1  0  0  0  0
  2  4  1  0  0  0  0
  2  5  2  0  0  0  0
  2  6  1  0  0  0  0
  3  4  1  0  0  0  0
  3  7  1  0  0  0  0
  3  8  1  0  0  0  0
  4 28  1  0  0  0  0
  6  9  1  0  0  0  0
  6 12  1  0  0  0  0
  8 10  1  0  0  0  0
  8 11  2  0  0  0  0
  9 13  1  0  0  0  0
  9 14  1  0  0  0  0
  9 15  1  0  0  0  0
 10 16  1  0  0  0  0
 10 17  1  0  0  0  0
 10 18  1  0  0  0  0
 19 20  1  0  0  0  0
 19 21  1  0  0  0  0
 19 22  1  0  0  0  0
 20 29  1  0  0  0  0
 21 30  1  0  0  0  0
 22 23  4  0  0  0  0
 22 27  4  0  0  0  0
 23 24  4  0  0  0  0
 23 31  1  0  0  0  0
 24 25  4  0  0  0  0
 24 32  1  0  0  0  0
 25 26  4  0  0  0  0
 25 28  1  0  0  0  0
 26 27  4  0  0  0  0
 26 33  1  0  0  0  0
 27 34  1  0  0  0  0
 28 35  1  0  0  0  0
 28 36  1  0  0  0  0
M  END
> <BCLConfClusterSize>
1

> <ConfClashScore>
0 

> <ConfOneFourInteractionScore>
-0.948829 

> <ConfScore>
-0.165319 

> <ConfScorePBest>
0.0066946 

> <ConfTolerance>
0.26431 

> <RosettaParamsInstructions>
M  ROOT 3
M  POLY_N_BB 3
M  POLY_CA_BB 4
M  POLY_C_BB 2
M  POLY_O_BB 5
M  POLY_IGNORE 9 10 11 12 13 14 15 16 17 18 
M  POLY_UPPER 6
M  POLY_LOWER 8
M  POLY_CHG 0
M  POLY_PROPERTIES ALPHA_AA L_AA PROTEIN AROMATIC POLYMER 
M  END

$$$$



 36 36  0  0  0  0  0  0  0  0999 V2000
   -3.0622    1.3862    1.2062 H   0  0  0  1  0  0  0  0  0  0  0  0
   -1.6068    0.4121    2.3720 C   0  0  0  1  0  0  0  0  0  0  0  0
   -3.0994    2.1662    3.1128 N   0  0  0  1  0  0  0  0  0  0  0  0
   -2.3601    1.6634    1.9645 C   0  0  0  1  0  0  0  0  0  0  0  0
   -0.9011   -0.1907    1.5644 O   0  0  0  1  0  0  0  0  0  0  0  0
   -1.7334   -0.0167    3.6378 N   0  0  0  1  0  0  0  0  0  0  0  0
   -2.6348    2.7830    3.7161 H   0  0  0  1  0  0  0  0  0  0  0  0
   -4.3693    1.8488    3.4076 C   0  0  0  1  0  0  0  0  0  0  0  0
   -0.9825   -1.1764    4.0950 C   0  0  0  1  0  0  0  0  0  0  0  0
   -4.9866    2.6092    4.5651 C   0  0  0  1  0  0  0  0  0  0  0  0
   -5.0079    0.9980    2.7896 O   0  0  0  1  0  0  0  0  0  0  0  0
   -2.3327    0.4523    4.2553 H   0  0  0  1  0  0  0  0  0  0  0  0
   -0.0355   -1.2074    3.5979 H   0  0  0  1  0  0  0  0  0  0  0  0
   -1.5316   -2.0672    3.8716 H   0  0  0  1  0  0  0  0  0  0  0  0
   -0.8283   -1.1073    5.1515 H   0  0  0  1  0  0  0  0  0  0  0  0
   -4.6154    3.6128    4.5716 H   0  0  0  1  0  0  0  0  0  0  0  0
   -4.7291    2.1280    5.4855 H   0  0  0  1  0  0  0  0  0  0  0  0
   -6.0508    2.6235    4.4551 H   0  0  0  1  0  0  0  0  0  0  0  0
   -4.1182    7.8171    0.4332 B   0  0  0  1  0  0  0  0  0  0  0  0
   -5.0610    7.9442   -0.5361 O   0  0  0  1  0  0  0  0  0  0  0  0
   -3.7848    8.9186    1.1577 O   0  0  0  1  0  0  0  0  0  0  0  0
   -3.4287    6.4193    0.7075 C   0  0  0  1  0  0  0  0  0  0  0  0
   -2.5331    6.2881    1.7520 C   0  0  0  1  0  0  0  0  0  0  0  0
   -1.8608    5.0909    1.9426 C   0  0  0  1  0  0  0  0  0  0  0  0
   -2.0821    4.0301    1.0846 C   0  0  0  1  0  0  0  0  0  0  0  0
   -2.9803    4.1615    0.0370 C   0  0  0  1  0  0  0  0  0  0  0  0
   -3.6505    5.3552   -0.1528 C   0  0  0  1  0  0  0  0  0  0  0  0
   -1.4119    2.6994    1.3553 C   0  0  0  1  0  0  0  0  0  0  0  0
   -5.8357    7.4290   -0.2992 H   0  0  0  1  0  0  0  0  0  0  0  0
   -4.5588    9.4756    1.2686 H   0  0  0  1  0  0  0  0  0  0  0  0
   -2.3636    7.0877    2.3951 H   0  0  0  1  0  0  0  0  0  0  0  0
   -1.1899    4.9909    2.7309 H   0  0  0  1  0  0  0  0  0  0  0  0
   -3.1498    3.3620   -0.6061 H   0  0  0  1  0  0  0  0  0  0  0  0
   -4.3214    5.4552   -0.9411 H   0  0  0  1  0  0  0  0  0  0  0  0
   -1.0346    2.3139    0.4312 H   0  0  0  1  0  0  0  0  0  0  0  0
   -0.6001    2.8587    2.0339 H   0  0  0  1  0  0  0  0  0  0  0  0
  1  4  1  0  0  0  0
  2  4  1  0  0  0  0
  2  5  2  0  0  0  0
  2  6  1  0  0  0  0
  3  4  1  0  0  0  0
  3  7  1  0  0  0  0
  3  8  1  0  0  0  0
  4 28  1  0  0  0  0
  6  9  1  0  0  0  0
  6 12  1  0  0  0  0
  8 10  1  0  0  0  0
  8 11  2  0  0  0  0
  9 13  1  0  0  0  0
  9 14  1  0  0  0  0
  9 15  1  0  0  0  0
 10 16  1  0  0  0  0
 10 17  1  0  0  0  0
 10 18  1  0  0  0  0
 19 20  1  0  0  0  0
 19 21  1  0  0  0  0
 19 22  1  0  0  0  0
 20 29  1  0  0  0  0
 21 30  1  0  0  0  0
 22 23  4  0  0  0  0
 22 27  4  0  0  0  0
 23 24  4  0  0  0  0
 23 31  1  0  0  0  0
 24 25  4  0  0  0  0
 24 32  1  0  0  0  0
 25 26  4  0  0  0  0
 25 28  1  0  0  0  0
 26 27  4  0  0  0  0
 26 33  1  0  0  0  0
 27 34  1  0  0  0  0
 28 35  1  0  0  0  0
 28 36  1  0  0  0  0
M  END
> <BCLConfClusterSize>
1

> <ConfClashScore>
0 

> <ConfOneFourInteractionScore>
-0.954617 

> <ConfScore>
-0.164268 

> <ConfScorePBest>
0.00666612 

> <ConfTolerance>
0.309785 

> <RosettaParamsInstructions>
M  ROOT 3
M  POLY_N_BB 3
M  POLY_CA_BB 4
M  POLY_C_BB 2
M  POLY_O_BB 5
M  POLY_IGNORE 9 10 11 12 13 14 15 16 17 18 
M  POLY_UPPER 6
M  POLY_LOWER 8
M  POLY_CHG 0
M  POLY_PROPERTIES ALPHA_AA L_AA PROTEIN AROMATIC POLYMER 
M  END

$$$$



 36 36  0  0  0  0  0  0  0  0999 V2000
    0.4752    3.1269    0.6273 H   0  0  0  1  0  0  0  0  0  0  0  0
    0.4717    1.0550    0.8542 C   0  0  0  1  0  0  0  0  0  0  0  0
   -0.5840    2.3493   -0.9593 N   0  0  0  1  0  0  0  0  0  0  0  0
   -0.2324    2.3386    0.4766 C   0  0  0  1  0  0  0  0  0  0  0  0
   -0.1081   -0.0277    0.7813 O   0  0  0  1  0  0  0  0  0  0  0  0
    1.7456    1.1329    1.2704 N   0  0  0  1  0  0  0  0  0  0  0  0
   -1.3797    1.8597   -1.2551 H   0  0  0  1  0  0  0  0  0  0  0  0
    0.1454    3.0033   -1.8678 C   0  0  0  1  0  0  0  0  0  0  0  0
    2.4461   -0.1071    1.5696 C   0  0  0  1  0  0  0  0  0  0  0  0
   -0.3688    2.9105   -3.2942 C   0  0  0  1  0  0  0  0  0  0  0  0
    1.1916    3.5777   -1.6127 O   0  0  0  1  0  0  0  0  0  0  0  0
    2.1911    2.0000    1.3699 H   0  0  0  1  0  0  0  0  0  0  0  0
    1.9979   -0.9111    1.0241 H   0  0  0  1  0  0  0  0  0  0  0  0
    2.3819   -0.3086    2.6184 H   0  0  0  1  0  0  0  0  0  0  0  0
    3.4736   -0.0133    1.2861 H   0  0  0  1  0  0  0  0  0  0  0  0
   -1.3726    3.2786   -3.3368 H   0  0  0  1  0  0  0  0  0  0  0  0
   -0.3498    1.8896   -3.6143 H   0  0  0  1  0  0  0  0  0  0  0  0
    0.2537    3.4978   -3.9364 H   0  0  0  1  0  0  0  0  0  0  0  0
   -4.1453    7.8073    0.3911 B   0  0  0  1  0  0  0  0  0  0  0  0
   -4.5151    8.6205    1.4140 O   0  0  0  1  0  0  0  0  0  0  0  0
   -4.3625    8.1189   -0.9194 O   0  0  0  1  0  0  0  0  0  0  0  0
   -3.4235    6.4214    0.7163 C   0  0  0  1  0  0  0  0  0  0  0  0
   -2.5277    6.2898    1.7605 C   0  0  0  1  0  0  0  0  0  0  0  0
   -1.8552    5.0925    1.9503 C   0  0  0  1  0  0  0  0  0  0  0  0
   -2.0767    4.0321    1.0919 C   0  0  0  1  0  0  0  0  0  0  0  0
   -2.9752    4.1640    0.0445 C   0  0  0  1  0  0  0  0  0  0  0  0
   -3.6455    5.3577   -0.1445 C   0  0  0  1  0  0  0  0  0  0  0  0
   -1.4375    2.6889    1.3175 C   0  0  0  1  0  0  0  0  0  0  0  0
   -3.7329    9.0049    1.8166 H   0  0  0  1  0  0  0  0  0  0  0  0
   -3.5204    8.2485   -1.3617 H   0  0  0  1  0  0  0  0  0  0  0  0
   -2.3581    7.0890    2.4039 H   0  0  0  1  0  0  0  0  0  0  0  0
   -1.1841    4.9922    2.7384 H   0  0  0  1  0  0  0  0  0  0  0  0
   -3.1448    3.3647   -0.5989 H   0  0  0  1  0  0  0  0  0  0  0  0
   -4.3166    5.4580   -0.9326 H   0  0  0  1  0  0  0  0  0  0  0  0
   -1.1355    2.6463    2.3431 H   0  0  0  1  0  0  0  0  0  0  0  0
   -2.1836    1.9443    1.1336 H   0  0  0  1  0  0  0  0  0  0  0  0
  1  4  1  0  0  0  0
  2  4  1  0  0  0  0
  2  5  2  0  0  0  0
  2  6  1  0  0  0  0
  3  4  1  0  0  0  0
  3  7  1  0  0  0  0
  3  8  1  0  0  0  0
  4 28  1  0  0  0  0
  6  9  1  0  0  0  0
  6 12  1  0  0  0  0
  8 10  1  0  0  0  0
  8 11  2  0  0  0  0
  9 13  1  0  0  0  0
  9 14  1  0  0  0  0
  9 15  1  0  0  0  0
 10 16  1  0  0  0  0
 10 17  1  0  0  0  0
 10 18  1  0  0  0  0
 19 20  1  0  0  0  0
 19 21  1  0  0  0  0
 19 22  1  0  0  0  0
 20 29  1  0  0  0  0
 21 30  1  0  0  0  0
 22 23  4  0  0  0  0
 22 27  4  0  0  0  0
 23 24  4  0  0  0  0
 23 31  1  0  0  0  0
 24 25  4  0  0  0  0
 24 32  1  0  0  0  0
 25 26  4  0  0  0  0
 25 28  1  0  0  0  0
 26 27  4  0  0  0  0
 26 33  1  0  0  0  0
 27 34  1  0  0  0  0
 28 35  1  0  0  0  0
 28 36  1  0  0  0  0
M  END
> <BCLConfClusterSize>
1

> <ConfClashScore>
0 

> <ConfOneFourInteractionScore>
-0.988961 

> <ConfScore>
-0.159351 

> <ConfScorePBest>
0.00663764 

> <ConfTolerance>
0.288773 

> <RosettaParamsInstructions>
M  ROOT 3
M  POLY_N_BB 3
M  POLY_CA_BB 4
M  POLY_C_BB 2
M  POLY_O_BB 5
M  POLY_IGNORE 9 10 11 12 13 14 15 16 17 18 
M  POLY_UPPER 6
M  POLY_LOWER 8
M  POLY_CHG 0
M  POLY_PROPERTIES ALPHA_AA L_AA PROTEIN AROMATIC POLYMER 
M  END

$$$$



 36 36  0  0  0  0  0  0  0  0999 V2000
   -3.0261    1.3484    1.1409 H   0  0  0  1  0  0  0  0  0  0  0  0
   -1.5941    0.4302    2.4012 C   0  0  0  1  0  0  0  0  0  0  0  0
   -3.1509    2.2107    3.0159 N   0  0  0  1  0  0  0  0  0  0  0  0
   -2.3649    1.6561    1.9238 C   0  0  0  1  0  0  0  0  0  0  0  0
   -1.4004   -0.5225    1.6641 O   0  0  0  1  0  0  0  0  0  0  0  0
   -1.1558    0.4753    3.6602 N   0  0  0  1  0  0  0  0  0  0  0  0
   -3.0436    3.1581    3.2422 H   0  0  0  1  0  0  0  0  0  0  0  0
   -4.0220    1.4658    3.7276 C   0  0  0  1  0  0  0  0  0  0  0  0
   -0.4562   -0.6160    4.3218 C   0  0  0  1  0  0  0  0  0  0  0  0
   -4.8614    2.1625    4.7808 C   0  0  0  1  0  0  0  0  0  0  0  0
   -4.1338    0.2587    3.5301 O   0  0  0  1  0  0  0  0  0  0  0  0
   -1.3149    1.2956    4.1723 H   0  0  0  1  0  0  0  0  0  0  0  0
   -1.1658   -1.3418    4.6604 H   0  0  0  1  0  0  0  0  0  0  0  0
    0.0898   -0.2338    5.1588 H   0  0  0  1  0  0  0  0  0  0  0  0
    0.2215   -1.0747    3.6325 H   0  0  0  1  0  0  0  0  0  0  0  0
   -5.4815    2.8988    4.3137 H   0  0  0  1  0  0  0  0  0  0  0  0
   -4.2185    2.6373    5.4922 H   0  0  0  1  0  0  0  0  0  0  0  0
   -5.4765    1.4430    5.2797 H   0  0  0  1  0  0  0  0  0  0  0  0
   -4.1182    7.8171    0.4332 B   0  0  0  1  0  0  0  0  0  0  0  0
   -3.5245    8.7341   -0.3738 O   0  0  0  1  0  0  0  0  0  0  0  0
   -5.3155    8.1318    0.9961 O   0  0  0  1  0  0  0  0  0  0  0  0
   -3.4287    6.4193    0.7075 C   0  0  0  1  0  0  0  0  0  0  0  0
   -2.5331    6.2881    1.7520 C   0  0  0  1  0  0  0  0  0  0  0  0
   -1.8608    5.0909    1.9426 C   0  0  0  1  0  0  0  0  0  0  0  0
   -2.0821    4.0301    1.0846 C   0  0  0  1  0  0  0  0  0  0  0  0
   -2.9803    4.1615    0.0370 C   0  0  0  1  0  0  0  0  0  0  0  0
   -3.6505    5.3552   -0.1528 C   0  0  0  1  0  0  0  0  0  0  0  0
   -1.4119    2.6994    1.3553 C   0  0  0  1  0  0  0  0  0  0  0  0
   -3.3190    8.3306   -1.2204 H   0  0  0  1  0  0  0  0  0  0  0  0
   -5.9885    7.5258    0.6776 H   0  0  0  1  0  0  0  0  0  0  0  0
   -2.3636    7.0877    2.3951 H   0  0  0  1  0  0  0  0  0  0  0  0
   -1.1899    4.9909    2.7309 H   0  0  0  1  0  0  0  0  0  0  0  0
   -3.1498    3.3620   -0.6061 H   0  0  0  1  0  0  0  0  0  0  0  0
   -4.3214    5.4552   -0.9411 H   0  0  0  1  0  0  0  0  0  0  0  0
   -1.0091    2.3278    0.4363 H   0  0  0  1  0  0  0  0  0  0  0  0
   -0.6186    2.8540    2.0564 H   0  0  0  1  0  0  0  0  0  0  0  0
  1  4  1  0  0  0  0
  2  4  1  0  0  0  0
  2  5  2  0  0  0  0
  2  6  1  0  0  0  0
  3  4  1  0  0  0  0
  3  7  1  0  0  0  0
  3  8  1  0  0  0  0
  4 28  1  0  0  0  0
  6  9  1  0  0  0  0
  6 12  1  0  0  0  0
  8 10  1  0  0  0  0
  8 11  2  0  0  0  0
  9 13  1  0  0  0  0
  9 14  1  0  0  0  0
  9 15  1  0  0  0  0
 10 16  1  0  0  0  0
 10 17  1  0  0  0  0
 10 18  1  0  0  0  0
 19 20  1  0  0  0  0
 19 21  1  0  0  0  0
 19 22  1  0  0  0  0
 20 29  1  0  0  0  0
 21 30  1  0  0  0  0
 22 23  4  0  0  0  0
 22 27  4  0  0  0  0
 23 24  4  0  0  0  0
 23 31  1  0  0  0  0
 24 25  4  0  0  0  0
 24 32  1  0  0  0  0
 25 26  4  0  0  0  0
 25 28  1  0  0  0  0
 26 27  4  0  0  0  0
 26 33  1  0  0  0  0
 27 34  1  0  0  0  0
 28 35  1  0  0  0  0
 28 36  1  0  0  0  0
M  END
> <BCLConfClusterSize>
1

> <ConfClashScore>
0 

> <ConfOneFourInteractionScore>
-0.954617 

> <ConfScore>
-0.158184 

> <ConfScorePBest>
0.00660916 

> <ConfTolerance>
0.427833 

> <RosettaParamsInstructions>
M  ROOT 3
M  POLY_N_BB 3
M  POLY_CA_BB 4
M  POLY_C_BB 2
M  POLY_O_BB 5
M  POLY_IGNORE 9 10 11 12 13 14 15 16 17 18 
M  POLY_UPPER 6
M  POLY_LOWER 8
M  POLY_CHG 0
M  POLY_PROPERTIES ALPHA_AA L_AA PROTEIN AROMATIC POLYMER 
M  END

$$$$



 36 36  0  0  0  0  0  0  0  0999 V2000
    0.5547    3.2898    1.1144 H   0  0  0  1  0  0  0  0  0  0  0  0
    0.5950    1.2011    1.3261 C   0  0  0  1  0  0  0  0  0  0  0  0
   -0.0121    2.4836   -0.6832 N   0  0  0  1  0  0  0  0  0  0  0  0
   -0.0421    2.4705    0.7717 C   0  0  0  1  0  0  0  0  0  0  0  0
    0.5647    0.9542    2.5310 O   0  0  0  1  0  0  0  0  0  0  0  0
    1.1856    0.3672    0.4654 N   0  0  0  1  0  0  0  0  0  0  0  0
   -0.7433    2.0741   -1.1911 H   0  0  0  1  0  0  0  0  0  0  0  0
    1.0104    3.0528   -1.3280 C   0  0  0  1  0  0  0  0  0  0  0  0
    1.7453   -0.9104    0.8806 C   0  0  0  1  0  0  0  0  0  0  0  0
    0.9768    2.9470   -2.8354 C   0  0  0  1  0  0  0  0  0  0  0  0
    1.9277    3.6295   -0.7498 O   0  0  0  1  0  0  0  0  0  0  0  0
    1.2440    0.6248   -0.4783 H   0  0  0  1  0  0  0  0  0  0  0  0
    2.6699   -1.0784    0.3689 H   0  0  0  1  0  0  0  0  0  0  0  0
    1.0581   -1.6950    0.6418 H   0  0  0  1  0  0  0  0  0  0  0  0
    1.9195   -0.8971    1.9362 H   0  0  0  1  0  0  0  0  0  0  0  0
    0.6159    3.8650   -3.2500 H   0  0  0  1  0  0  0  0  0  0  0  0
    0.3270    2.1467   -3.1221 H   0  0  0  1  0  0  0  0  0  0  0  0
    1.9637    2.7543   -3.2013 H   0  0  0  1  0  0  0  0  0  0  0  0
   -4.1191    7.8125    0.4304 B   0  0  0  1  0  0  0  0  0  0  0  0
   -3.7919    8.8484    1.2455 O   0  0  0  1  0  0  0  0  0  0  0  0
   -4.9906    7.8886   -0.5978 O   0  0  0  1  0  0  0  0  0  0  0  0
   -3.4286    6.4196    0.7078 C   0  0  0  1  0  0  0  0  0  0  0  0
   -2.5336    6.2925    1.7533 C   0  0  0  1  0  0  0  0  0  0  0  0
   -1.8592    5.0970    1.9471 C   0  0  0  1  0  0  0  0  0  0  0  0
   -2.0779    4.0339    1.0914 C   0  0  0  1  0  0  0  0  0  0  0  0
   -2.9755    4.1612    0.0428 C   0  0  0  1  0  0  0  0  0  0  0  0
   -3.6478    5.3532   -0.1502 C   0  0  0  1  0  0  0  0  0  0  0  0
   -1.4323    2.6837    1.3229 C   0  0  0  1  0  0  0  0  0  0  0  0
   -4.4455    8.9249    1.9445 H   0  0  0  1  0  0  0  0  0  0  0  0
   -4.8976    8.7385   -1.0345 H   0  0  0  1  0  0  0  0  0  0  0  0
   -2.3661    7.0938    2.3947 H   0  0  0  1  0  0  0  0  0  0  0  0
   -1.1888    5.0001    2.7362 H   0  0  0  1  0  0  0  0  0  0  0  0
   -3.1430    3.3599   -0.5986 H   0  0  0  1  0  0  0  0  0  0  0  0
   -4.3182    5.4501   -0.9394 H   0  0  0  1  0  0  0  0  0  0  0  0
   -1.3846    2.5288    2.3805 H   0  0  0  1  0  0  0  0  0  0  0  0
   -2.0684    1.9449    0.8819 H   0  0  0  1  0  0  0  0  0  0  0  0
  1  4  1  0  0  0  0
  2  4  1  0  0  0  0
  2  5  2  0  0  0  0
  2  6  1  0  0  0  0
  3  4  1  0  0  0  0
  3  7  1  0  0  0  0
  3  8  1  0  0  0  0
  4 28  1  0  0  0  0
  6  9  1  0  0  0  0
  6 12  1  0  0  0  0
  8 10  1  0  0  0  0
  8 11  2  0  0  0  0
  9 13  1  0  0  0  0
  9 14  1  0  0  0  0
  9 15  1  0  0  0  0
 10 16  1  0  0  0  0
 10 17  1  0  0  0  0
 10 18  1  0  0  0  0
 19 20  1  0  0  0  0
 19 21  1  0  0  0  0
 19 22  1  0  0  0  0
 20 29  1  0  0  0  0
 21 30  1  0  0  0  0
 22 23  4  0  0  0  0
 22 27  4  0  0  0  0
 23 24  4  0  0  0  0
 23 31  1  0  0  0  0
 24 25  4  0  0  0  0
 24 32  1  0  0  0  0
 25 26  4  0  0  0  0
 25 28  1  0  0  0  0
 26 27  4  0  0  0  0
 26 33  1  0  0  0  0
 27 34  1  0  0  0  0
 28 35  1  0  0  0  0
 28 36  1  0  0  0  0
M  END
> <BCLConfClusterSize>
1

> <ConfClashScore>
0 

> <ConfOneFourInteractionScore>
-0.969136 

> <ConfScore>
-0.156663 

> <ConfScorePBest>
0.00658068 

> <ConfTolerance>
0.3028 

> <RosettaParamsInstructions>
M  ROOT 3
M  POLY_N_BB 3
M  POLY_CA_BB 4
M  POLY_C_BB 2
M  POLY_O_BB 5
M  POLY_IGNORE 9 10 11 12 13 14 15 16 17 18 
M  POLY_UPPER 6
M  POLY_LOWER 8
M  POLY_CHG 0
M  POLY_PROPERTIES ALPHA_AA L_AA PROTEIN AROMATIC POLYMER 
M  END

$$$$



 36 36  0  0  0  0  0  0  0  0999 V2000
    0.5046    3.3979    1.7617 H   0  0  0  1  0  0  0  0  0  0  0  0
    0.6970    1.3137    1.5016 C   0  0  0  1  0  0  0  0  0  0  0  0
    0.4275    2.9638   -0.2510 N   0  0  0  1  0  0  0  0  0  0  0  0
    0.0742    2.6526    1.1260 C   0  0  0  1  0  0  0  0  0  0  0  0
    1.0781    0.5308    0.6471 O   0  0  0  1  0  0  0  0  0  0  0  0
    0.7932    1.0651    2.8108 N   0  0  0  1  0  0  0  0  0  0  0  0
    0.2031    2.3190   -0.9541 H   0  0  0  1  0  0  0  0  0  0  0  0
    1.0473    4.0978   -0.5899 C   0  0  0  1  0  0  0  0  0  0  0  0
    1.3024   -0.1966    3.3272 C   0  0  0  1  0  0  0  0  0  0  0  0
    1.3025    4.3115   -2.0843 C   0  0  0  1  0  0  0  0  0  0  0  0
    1.4222    4.9665    0.1811 O   0  0  0  1  0  0  0  0  0  0  0  0
    0.5110    1.7565    3.4454 H   0  0  0  1  0  0  0  0  0  0  0  0
    2.0137   -0.6032    2.6390 H   0  0  0  1  0  0  0  0  0  0  0  0
    0.4920   -0.8844    3.4502 H   0  0  0  1  0  0  0  0  0  0  0  0
    1.7759   -0.0298    4.2721 H   0  0  0  1  0  0  0  0  0  0  0  0
    1.8582    3.4842   -2.4737 H   0  0  0  1  0  0  0  0  0  0  0  0
    1.8605    5.2136   -2.2252 H   0  0  0  1  0  0  0  0  0  0  0  0
    0.3671    4.3862   -2.5986 H   0  0  0  1  0  0  0  0  0  0  0  0
   -4.0854    7.8595    0.4985 B   0  0  0  1  0  0  0  0  0  0  0  0
   -3.9416    8.8149    1.4530 O   0  0  0  1  0  0  0  0  0  0  0  0
   -4.7930    8.1672   -0.6213 O   0  0  0  1  0  0  0  0  0  0  0  0
   -3.4362    6.4103    0.6929 C   0  0  0  1  0  0  0  0  0  0  0  0
   -2.5427    6.2920    1.7407 C   0  0  0  1  0  0  0  0  0  0  0  0
   -1.8642    5.1000    1.9419 C   0  0  0  1  0  0  0  0  0  0  0  0
   -2.0773    4.0317    1.0914 C   0  0  0  1  0  0  0  0  0  0  0  0
   -2.9733    4.1502    0.0404 C   0  0  0  1  0  0  0  0  0  0  0  0
   -3.6497    5.3387   -0.1600 C   0  0  0  1  0  0  0  0  0  0  0  0
   -1.4315    2.6944    1.3294 C   0  0  0  1  0  0  0  0  0  0  0  0
   -4.7766    8.9396    1.9099 H   0  0  0  1  0  0  0  0  0  0  0  0
   -4.8213    7.4037   -1.2025 H   0  0  0  1  0  0  0  0  0  0  0  0
   -2.3794    7.0972    2.3783 H   0  0  0  1  0  0  0  0  0  0  0  0
   -1.1949    5.0097    2.7328 H   0  0  0  1  0  0  0  0  0  0  0  0
   -3.1366    3.3450   -0.5972 H   0  0  0  1  0  0  0  0  0  0  0  0
   -4.3190    5.4290   -0.9509 H   0  0  0  1  0  0  0  0  0  0  0  0
   -1.6365    2.4038    2.3386 H   0  0  0  1  0  0  0  0  0  0  0  0
   -1.8750    1.9894    0.6577 H   0  0  0  1  0  0  0  0  0  0  0  0
  1  4  1  0  0  0  0
  2  4  1  0  0  0  0
  2  5  2  0  0  0  0
  2  6  1  0  0  0  0
  3  4  1  0  0  0  0
  3  7  1  0  0  0  0
  3  8  1  0  0  0  0
  4 28  1  0  0  0  0
  6  9  1  0  0  0  0
  6 12  1  0  0  0  0
  8 10  1  0  0  0  0
  8 11  2  0  0  0  0
  9 13  1  0  0  0  0
  9 14  1  0  0  0  0
  9 15  1  0  0  0  0
 10 16  1  0  0  0  0
 10 17  1  0  0  0  0
 10 18  1  0  0  0  0
 19 20  1  0  0  0  0
 19 21  1  0  0  0  0
 19 22  1  0  0  0  0
 20 29  1  0  0  0  0
 21 30  1  0  0  0  0
 22 23  4  0  0  0  0
 22 27  4  0  0  0  0
 23 24  4  0  0  0  0
 23 31  1  0  0  0  0
 24 25  4  0  0  0  0
 24 32  1  0  0  0  0
 25 26  4  0  0  0  0
 25 28  1  0  0  0  0
 26 27  4  0  0  0  0
 26 33  1  0  0  0  0
 27 34  1  0  0  0  0
 28 35  1  0  0  0  0
 28 36  1  0  0  0  0
M  END
> <BCLConfClusterSize>
1

> <ConfClashScore>
0 

> <ConfOneFourInteractionScore>
-0.992613 

> <ConfScore>
-0.156487 

> <ConfScorePBest>
0.0065522 

> <ConfTolerance>
0.309992 

> <RosettaParamsInstructions>
M  ROOT 3
M  POLY_N_BB 3
M  POLY_CA_BB 4
M  POLY_C_BB 2
M  POLY_O_BB 5
M  POLY_IGNORE 9 10 11 12 13 14 15 16 17 18 
M  POLY_UPPER 6
M  POLY_LOWER 8
M  POLY_CHG 0
M  POLY_PROPERTIES ALPHA_AA L_AA PROTEIN AROMATIC POLYMER 
M  END

$$$$



 36 36  0  0  0  0  0  0  0  0999 V2000
   -3.1695    1.5340    1.2618 H   0  0  0  1  0  0  0  0  0  0  0  0
   -1.6764    0.3070    2.1020 C   0  0  0  1  0  0  0  0  0  0  0  0
   -2.9115    2.1513    3.2078 N   0  0  0  1  0  0  0  0  0  0  0  0
   -2.3623    1.6604    1.9526 C   0  0  0  1  0  0  0  0  0  0  0  0
   -0.7042    0.1664    2.8255 O   0  0  0  1  0  0  0  0  0  0  0  0
   -2.2107   -0.6987    1.3926 N   0  0  0  1  0  0  0  0  0  0  0  0
   -2.3009    2.2274    3.9705 H   0  0  0  1  0  0  0  0  0  0  0  0
   -4.2335    2.5195    3.4057 C   0  0  0  1  0  0  0  0  0  0  0  0
   -1.6014   -2.0199    1.4248 C   0  0  0  1  0  0  0  0  0  0  0  0
   -4.6938    2.8720    4.7923 C   0  0  0  1  0  0  0  0  0  0  0  0
   -4.9809    2.5451    2.4448 O   0  0  0  1  0  0  0  0  0  0  0  0
   -3.0129   -0.5432    0.8517 H   0  0  0  1  0  0  0  0  0  0  0  0
   -1.8208   -2.5367    0.5139 H   0  0  0  1  0  0  0  0  0  0  0  0
   -1.9940   -2.5734    2.2521 H   0  0  0  1  0  0  0  0  0  0  0  0
   -0.5414   -1.9210    1.5320 H   0  0  0  1  0  0  0  0  0  0  0  0
   -5.1516    3.8391    4.7816 H   0  0  0  1  0  0  0  0  0  0  0  0
   -3.8537    2.8826    5.4548 H   0  0  0  1  0  0  0  0  0  0  0  0
   -5.4039    2.1452    5.1276 H   0  0  0  1  0  0  0  0  0  0  0  0
   -4.1182    7.8171    0.4332 B   0  0  0  1  0  0  0  0  0  0  0  0
   -5.0362    7.8766   -0.5553 O   0  0  0  1  0  0  0  0  0  0  0  0
   -3.7476    8.8629    1.2023 O   0  0  0  1  0  0  0  0  0  0  0  0
   -3.4287    6.4193    0.7075 C   0  0  0  1  0  0  0  0  0  0  0  0
   -2.5331    6.2881    1.7520 C   0  0  0  1  0  0  0  0  0  0  0  0
   -1.8608    5.0909    1.9426 C   0  0  0  1  0  0  0  0  0  0  0  0
   -2.0821    4.0301    1.0846 C   0  0  0  1  0  0  0  0  0  0  0  0
   -2.9803    4.1615    0.0370 C   0  0  0  1  0  0  0  0  0  0  0  0
   -3.6505    5.3552   -0.1528 C   0  0  0  1  0  0  0  0  0  0  0  0
   -1.4119    2.6994    1.3553 C   0  0  0  1  0  0  0  0  0  0  0  0
   -5.8589    8.2289   -0.2078 H   0  0  0  1  0  0  0  0  0  0  0  0
   -2.8493    9.1202    0.9821 H   0  0  0  1  0  0  0  0  0  0  0  0
   -2.3636    7.0877    2.3951 H   0  0  0  1  0  0  0  0  0  0  0  0
   -1.1899    4.9909    2.7309 H   0  0  0  1  0  0  0  0  0  0  0  0
   -3.1498    3.3620   -0.6061 H   0  0  0  1  0  0  0  0  0  0  0  0
   -4.3214    5.4552   -0.9411 H   0  0  0  1  0  0  0  0  0  0  0  0
   -1.0269    2.3181    0.4327 H   0  0  0  1  0  0  0  0  0  0  0  0
   -0.6056    2.8573    2.0407 H   0  0  0  1  0  0  0  0  0  0  0  0
  1  4  1  0  0  0  0
  2  4  1  0  0  0  0
  2  5  2  0  0  0  0
  2  6  1  0  0  0  0
  3  4  1  0  0  0  0
  3  7  1  0  0  0  0
  3  8  1  0  0  0  0
  4 28  1  0  0  0  0
  6  9  1  0  0  0  0
  6 12  1  0  0  0  0
  8 10  1  0  0  0  0
  8 11  2  0  0  0  0
  9 13  1  0  0  0  0
  9 14  1  0  0  0  0
  9 15  1  0  0  0  0
 10 16  1  0  0  0  0
 10 17  1  0  0  0  0
 10 18  1  0  0  0  0
 19 20  1  0  0  0  0
 19 21  1  0  0  0  0
 19 22  1  0  0  0  0
 20 29  1  0  0  0  0
 21 30  1  0  0  0  0
 22 23  4  0  0  0  0
 22 27  4  0  0  0  0
 23 24  4  0  0  0  0
 23 31  1  0  0  0  0
 24 25  4  0  0  0  0
 24 32  1  0  0  0  0
 25 26  4  0  0  0  0
 25 28  1  0  0  0  0
 26 27  4  0  0  0  0
 26 33  1  0  0  0  0
 27 34  1  0  0  0  0
 28 35  1  0  0  0  0
 28 36  1  0  0  0  0
M  END
> <BCLConfClusterSize>
1

> <ConfClashScore>
0 

> <ConfOneFourInteractionScore>
-0.992613 

> <ConfScore>
-0.147891 

> <ConfScorePBest>
0.00652372 

> <ConfTolerance>
0.295079 

> <RosettaParamsInstructions>
M  ROOT 3
M  POLY_N_BB 3
M  POLY_CA_BB 4
M  POLY_C_BB 2
M  POLY_O_BB 5
M  POLY_IGNORE 9 10 11 12 13 14 15 16 17 18 
M  POLY_UPPER 6
M  POLY_LOWER 8
M  POLY_CHG 0
M  POLY_PROPERTIES ALPHA_AA L_AA PROTEIN AROMATIC POLYMER 
M  END

$$$$



 36 36  0  0  0  0  0  0  0  0999 V2000
   -3.3234    1.9894    1.7853 H   0  0  0  1  0  0  0  0  0  0  0  0
   -2.1053    0.3436    2.1353 C   0  0  0  1  0  0  0  0  0  0  0  0
   -2.4345    2.3257    3.5971 N   0  0  0  1  0  0  0  0  0  0  0  0
   -2.3504    1.8413    2.2051 C   0  0  0  1  0  0  0  0  0  0  0  0
   -2.6557   -0.3544    1.2847 O   0  0  0  1  0  0  0  0  0  0  0  0
   -1.2602   -0.1525    3.0528 N   0  0  0  1  0  0  0  0  0  0  0  0
   -1.9114    3.1129    3.8564 H   0  0  0  1  0  0  0  0  0  0  0  0
   -3.1990    1.7284    4.5157 C   0  0  0  1  0  0  0  0  0  0  0  0
   -1.0946   -1.5827    3.2645 C   0  0  0  1  0  0  0  0  0  0  0  0
   -3.1161    2.3030    5.9164 C   0  0  0  1  0  0  0  0  0  0  0  0
   -3.9238    0.7797    4.2621 O   0  0  0  1  0  0  0  0  0  0  0  0
   -0.7364    0.4702    3.5990 H   0  0  0  1  0  0  0  0  0  0  0  0
   -2.0332   -2.0760    3.1209 H   0  0  0  1  0  0  0  0  0  0  0  0
   -0.7489   -1.7578    4.2618 H   0  0  0  1  0  0  0  0  0  0  0  0
   -0.3801   -1.9660    2.5663 H   0  0  0  1  0  0  0  0  0  0  0  0
   -2.2152    1.9687    6.3870 H   0  0  0  1  0  0  0  0  0  0  0  0
   -3.9594    1.9742    6.4870 H   0  0  0  1  0  0  0  0  0  0  0  0
   -3.1154    3.3717    5.8638 H   0  0  0  1  0  0  0  0  0  0  0  0
   -4.1436    7.8101    0.3943 B   0  0  0  1  0  0  0  0  0  0  0  0
   -3.4614    8.7107   -0.3595 O   0  0  0  1  0  0  0  0  0  0  0  0
   -5.3932    8.0064    0.8935 O   0  0  0  1  0  0  0  0  0  0  0  0
   -3.4241    6.4221    0.7158 C   0  0  0  1  0  0  0  0  0  0  0  0
   -2.5277    6.2865    1.7590 C   0  0  0  1  0  0  0  0  0  0  0  0
   -1.8573    5.0875    1.9455 C   0  0  0  1  0  0  0  0  0  0  0  0
   -2.0815    4.0295    1.0849 C   0  0  0  1  0  0  0  0  0  0  0  0
   -2.9805    4.1654    0.0386 C   0  0  0  1  0  0  0  0  0  0  0  0
   -3.6488    5.3609   -0.1472 C   0  0  0  1  0  0  0  0  0  0  0  0
   -1.4126    2.6953    1.3515 C   0  0  0  1  0  0  0  0  0  0  0  0
   -2.9929    8.2521   -1.0608 H   0  0  0  1  0  0  0  0  0  0  0  0
   -5.3311    8.3195    1.7989 H   0  0  0  1  0  0  0  0  0  0  0  0
   -2.3561    7.0840    2.4041 H   0  0  0  1  0  0  0  0  0  0  0  0
   -1.1858    4.9842    2.7329 H   0  0  0  1  0  0  0  0  0  0  0  0
   -3.1521    3.3680   -0.6065 H   0  0  0  1  0  0  0  0  0  0  0  0
   -4.3203    5.4642   -0.9346 H   0  0  0  1  0  0  0  0  0  0  0  0
   -1.2170    2.1986    0.4242 H   0  0  0  1  0  0  0  0  0  0  0  0
   -0.4920    2.8517    1.8740 H   0  0  0  1  0  0  0  0  0  0  0  0
  1  4  1  0  0  0  0
  2  4  1  0  0  0  0
  2  5  2  0  0  0  0
  2  6  1  0  0  0  0
  3  4  1  0  0  0  0
  3  7  1  0  0  0  0
  3  8  1  0  0  0  0
  4 28  1  0  0  0  0
  6  9  1  0  0  0  0
  6 12  1  0  0  0  0
  8 10  1  0  0  0  0
  8 11  2  0  0  0  0
  9 13  1  0  0  0  0
  9 14  1  0  0  0  0
  9 15  1  0  0  0  0
 10 16  1  0  0  0  0
 10 17  1  0  0  0  0
 10 18  1  0  0  0  0
 19 20  1  0  0  0  0
 19 21  1  0  0  0  0
 19 22  1  0  0  0  0
 20 29  1  0  0  0  0
 21 30  1  0  0  0  0
 22 23  4  0  0  0  0
 22 27  4  0  0  0  0
 23 24  4  0  0  0  0
 23 31  1  0  0  0  0
 24 25  4  0  0  0  0
 24 32  1  0  0  0  0
 25 26  4  0  0  0  0
 25 28  1  0  0  0  0
 26 27  4  0  0  0  0
 26 33  1  0  0  0  0
 27 34  1  0  0  0  0
 28 35  1  0  0  0  0
 28 36  1  0  0  0  0
M  END
> <BCLConfClusterSize>
1

> <ConfClashScore>
0 

> <ConfOneFourInteractionScore>
-0.960008 

> <ConfScore>
-0.147869 

> <ConfScorePBest>
0.00649524 

> <ConfTolerance>
0.317634 

> <RosettaParamsInstructions>
M  ROOT 3
M  POLY_N_BB 3
M  POLY_CA_BB 4
M  POLY_C_BB 2
M  POLY_O_BB 5
M  POLY_IGNORE 9 10 11 12 13 14 15 16 17 18 
M  POLY_UPPER 6
M  POLY_LOWER 8
M  POLY_CHG 0
M  POLY_PROPERTIES ALPHA_AA L_AA PROTEIN AROMATIC POLYMER 
M  END

$$$$



 36 36  0  0  0  0  0  0  0  0999 V2000
    0.5897    3.1991    0.9531 H   0  0  0  1  0  0  0  0  0  0  0  0
    0.4651    1.0933    0.9293 C   0  0  0  1  0  0  0  0  0  0  0  0
   -0.3130    2.6744   -0.8197 N   0  0  0  1  0  0  0  0  0  0  0  0
   -0.1135    2.4706    0.6073 C   0  0  0  1  0  0  0  0  0  0  0  0
    0.1527    0.1180    0.2662 O   0  0  0  1  0  0  0  0  0  0  0  0
    1.3792    1.0842    1.9115 N   0  0  0  1  0  0  0  0  0  0  0  0
   -0.9761    2.1379   -1.3023 H   0  0  0  1  0  0  0  0  0  0  0  0
    0.4131    3.6003   -1.4798 C   0  0  0  1  0  0  0  0  0  0  0  0
    2.0131   -0.1420    2.3722 C   0  0  0  1  0  0  0  0  0  0  0  0
   -0.0405    4.0042   -2.8692 C   0  0  0  1  0  0  0  0  0  0  0  0
    1.4201    4.1066   -0.9686 O   0  0  0  1  0  0  0  0  0  0  0  0
    1.6285    1.9329    2.3333 H   0  0  0  1  0  0  0  0  0  0  0  0
    2.4728   -0.6394    1.5438 H   0  0  0  1  0  0  0  0  0  0  0  0
    1.2752   -0.7828    2.8078 H   0  0  0  1  0  0  0  0  0  0  0  0
    2.7574    0.0946    3.1036 H   0  0  0  1  0  0  0  0  0  0  0  0
    0.8108    4.2754   -3.4580 H   0  0  0  1  0  0  0  0  0  0  0  0
   -0.7055    4.8395   -2.7982 H   0  0  0  1  0  0  0  0  0  0  0  0
   -0.5467    3.1829   -3.3317 H   0  0  0  1  0  0  0  0  0  0  0  0
   -4.1178    7.8164    0.4333 B   0  0  0  1  0  0  0  0  0  0  0  0
   -4.4612    8.6861    1.4183 O   0  0  0  1  0  0  0  0  0  0  0  0
   -4.4179    8.2495   -0.8204 O   0  0  0  1  0  0  0  0  0  0  0  0
   -3.4282    6.4185    0.7076 C   0  0  0  1  0  0  0  0  0  0  0  0
   -2.5327    6.2874    1.7522 C   0  0  0  1  0  0  0  0  0  0  0  0
   -1.8604    5.0902    1.9427 C   0  0  0  1  0  0  0  0  0  0  0  0
   -2.0818    4.0294    1.0848 C   0  0  0  1  0  0  0  0  0  0  0  0
   -2.9799    4.1608    0.0372 C   0  0  0  1  0  0  0  0  0  0  0  0
   -3.6501    5.3545   -0.1526 C   0  0  0  1  0  0  0  0  0  0  0  0
   -1.4162    2.7077    1.3537 C   0  0  0  1  0  0  0  0  0  0  0  0
   -3.7858    8.6806    2.1005 H   0  0  0  1  0  0  0  0  0  0  0  0
   -5.3626    8.1671   -0.9703 H   0  0  0  1  0  0  0  0  0  0  0  0
   -2.3632    7.0870    2.3952 H   0  0  0  1  0  0  0  0  0  0  0  0
   -1.1895    4.9902    2.7311 H   0  0  0  1  0  0  0  0  0  0  0  0
   -3.1494    3.3612   -0.6059 H   0  0  0  1  0  0  0  0  0  0  0  0
   -4.3210    5.4544   -0.9410 H   0  0  0  1  0  0  0  0  0  0  0  0
   -1.2113    2.6486    2.4022 H   0  0  0  1  0  0  0  0  0  0  0  0
   -2.0999    1.9319    1.0790 H   0  0  0  1  0  0  0  0  0  0  0  0
  1  4  1  0  0  0  0
  2  4  1  0  0  0  0
  2  5  2  0  0  0  0
  2  6  1  0  0  0  0
  3  4  1  0  0  0  0
  3  7  1  0  0  0  0
  3  8  1  0  0  0  0
  4 28  1  0  0  0  0
  6  9  1  0  0  0  0
  6 12  1  0  0  0  0
  8 10  1  0  0  0  0
  8 11  2  0  0  0  0
  9 13  1  0  0  0  0
  9 14  1  0  0  0  0
  9 15  1  0  0  0  0
 10 16  1  0  0  0  0
 10 17  1  0  0  0  0
 10 18  1  0  0  0  0
 19 20  1  0  0  0  0
 19 21  1  0  0  0  0
 19 22  1  0  0  0  0
 20 29  1  0  0  0  0
 21 30  1  0  0  0  0
 22 23  4  0  0  0  0
 22 27  4  0  0  0  0
 23 24  4  0  0  0  0
 23 31  1  0  0  0  0
 24 25  4  0  0  0  0
 24 32  1  0  0  0  0
 25 26  4  0  0  0  0
 25 28  1  0  0  0  0
 26 27  4  0  0  0  0
 26 33  1  0  0  0  0
 27 34  1  0  0  0  0
 28 35  1  0  0  0  0
 28 36  1  0  0  0  0
M  END
> <BCLConfClusterSize>
1

> <ConfClashScore>
0 

> <ConfOneFourInteractionScore>
-0.988961 

> <ConfScore>
-0.145957 

> <ConfScorePBest>
0.00646676 

> <ConfTolerance>
0.351 

> <RosettaParamsInstructions>
M  ROOT 3
M  POLY_N_BB 3
M  POLY_CA_BB 4
M  POLY_C_BB 2
M  POLY_O_BB 5
M  POLY_IGNORE 9 10 11 12 13 14 15 16 17 18 
M  POLY_UPPER 6
M  POLY_LOWER 8
M  POLY_CHG 0
M  POLY_PROPERTIES ALPHA_AA L_AA PROTEIN AROMATIC POLYMER 
M  END

$$$$



 36 36  0  0  0  0  0  0  0  0999 V2000
    0.6226    3.2746    1.1166 H   0  0  0  1  0  0  0  0  0  0  0  0
    0.5065    1.1636    0.8885 C   0  0  0  1  0  0  0  0  0  0  0  0
   -0.1474    2.7969   -0.7531 N   0  0  0  1  0  0  0  0  0  0  0  0
   -0.0520    2.5671    0.6815 C   0  0  0  1  0  0  0  0  0  0  0  0
    0.1679    0.2286    0.1642 O   0  0  0  1  0  0  0  0  0  0  0  0
    1.3727    1.0270    1.8936 N   0  0  0  1  0  0  0  0  0  0  0  0
   -0.8607    2.3522   -1.2569 H   0  0  0  1  0  0  0  0  0  0  0  0
    0.7037    3.5930   -1.4065 C   0  0  0  1  0  0  0  0  0  0  0  0
    2.0721   -0.2341    2.0892 C   0  0  0  1  0  0  0  0  0  0  0  0
    0.5651    3.6077   -2.9120 C   0  0  0  1  0  0  0  0  0  0  0  0
    1.5510    4.2763   -0.8378 O   0  0  0  1  0  0  0  0  0  0  0  0
    1.5386    1.7775    2.5016 H   0  0  0  1  0  0  0  0  0  0  0  0
    1.6842   -0.9663    1.4122 H   0  0  0  1  0  0  0  0  0  0  0  0
    1.9295   -0.5683    3.0957 H   0  0  0  1  0  0  0  0  0  0  0  0
    3.1166   -0.0950    1.9037 H   0  0  0  1  0  0  0  0  0  0  0  0
    1.1663    4.3941   -3.3184 H   0  0  0  1  0  0  0  0  0  0  0  0
   -0.4594    3.7707   -3.1741 H   0  0  0  1  0  0  0  0  0  0  0  0
    0.8903    2.6689   -3.3091 H   0  0  0  1  0  0  0  0  0  0  0  0
   -4.0834    7.8618    0.5018 B   0  0  0  1  0  0  0  0  0  0  0  0
   -3.3089    8.8326   -0.0480 O   0  0  0  1  0  0  0  0  0  0  0  0
   -5.3579    8.1762    0.8573 O   0  0  0  1  0  0  0  0  0  0  0  0
   -3.4367    6.4110    0.6924 C   0  0  0  1  0  0  0  0  0  0  0  0
   -2.5426    6.2886    1.7393 C   0  0  0  1  0  0  0  0  0  0  0  0
   -1.8662    5.0950    1.9372 C   0  0  0  1  0  0  0  0  0  0  0  0
   -2.0820    4.0289    1.0844 C   0  0  0  1  0  0  0  0  0  0  0  0
   -2.9786    4.1515    0.0345 C   0  0  0  1  0  0  0  0  0  0  0  0
   -3.6530    5.3417   -0.1628 C   0  0  0  1  0  0  0  0  0  0  0  0
   -1.4073    2.7022    1.3632 C   0  0  0  1  0  0  0  0  0  0  0  0
   -2.6179    8.4293   -0.5785 H   0  0  0  1  0  0  0  0  0  0  0  0
   -5.3427    8.8416    1.5490 H   0  0  0  1  0  0  0  0  0  0  0  0
   -2.3773    7.0921    2.3785 H   0  0  0  1  0  0  0  0  0  0  0  0
   -1.1964    5.0016    2.7274 H   0  0  0  1  0  0  0  0  0  0  0  0
   -3.1439    3.3480   -0.6048 H   0  0  0  1  0  0  0  0  0  0  0  0
   -4.3227    5.4351   -0.9529 H   0  0  0  1  0  0  0  0  0  0  0  0
   -1.2681    2.6062    2.4198 H   0  0  0  1  0  0  0  0  0  0  0  0
   -2.0440    1.9163    1.0140 H   0  0  0  1  0  0  0  0  0  0  0  0
  1  4  1  0  0  0  0
  2  4  1  0  0  0  0
  2  5  2  0  0  0  0
  2  6  1  0  0  0  0
  3  4  1  0  0  0  0
  3  7  1  0  0  0  0
  3  8  1  0  0  0  0
  4 28  1  0  0  0  0
  6  9  1  0  0  0  0
  6 12  1  0  0  0  0
  8 10  1  0  0  0  0
  8 11  2  0  0  0  0
  9 13  1  0  0  0  0
  9 14  1  0  0  0  0
  9 15  1  0  0  0  0
 10 16  1  0  0  0  0
 10 17  1  0  0  0  0
 10 18  1  0  0  0  0
 19 20  1  0  0  0  0
 19 21  1  0  0  0  0
 19 22  1  0  0  0  0
 20 29  1  0  0  0  0
 21 30  1  0  0  0  0
 22 23  4  0  0  0  0
 22 27  4  0  0  0  0
 23 24  4  0  0  0  0
 23 31  1  0  0  0  0
 24 25  4  0  0  0  0
 24 32  1  0  0  0  0
 25 26  4  0  0  0  0
 25 28  1  0  0  0  0
 26 27  4  0  0  0  0
 26 33  1  0  0  0  0
 27 34  1  0  0  0  0
 28 35  1  0  0  0  0
 28 36  1  0  0  0  0
M  END
> <BCLConfClusterSize>
1

> <ConfClashScore>
0 

> <ConfOneFourInteractionScore>
-0.988961 

> <ConfScore>
-0.144515 

> <ConfScorePBest>
0.00643828 

> <ConfTolerance>
0.294594 

> <RosettaParamsInstructions>
M  ROOT 3
M  POLY_N_BB 3
M  POLY_CA_BB 4
M  POLY_C_BB 2
M  POLY_O_BB 5
M  POLY_IGNORE 9 10 11 12 13 14 15 16 17 18 
M  POLY_UPPER 6
M  POLY_LOWER 8
M  POLY_CHG 0
M  POLY_PROPERTIES ALPHA_AA L_AA PROTEIN AROMATIC POLYMER 
M  END

$$$$



 36 36  0  0  0  0  0  0  0  0999 V2000
    0.4078    3.4997    2.0024 H   0  0  0  1  0  0  0  0  0  0  0  0
    0.6638    1.4140    1.7563 C   0  0  0  1  0  0  0  0  0  0  0  0
    0.5561    3.1501   -0.0281 N   0  0  0  1  0  0  0  0  0  0  0  0
    0.1016    2.7557    1.2970 C   0  0  0  1  0  0  0  0  0  0  0  0
    0.8479    0.4910    0.9598 O   0  0  0  1  0  0  0  0  0  0  0  0
    0.9378    1.3144    3.0659 N   0  0  0  1  0  0  0  0  0  0  0  0
   -0.0975    3.3860   -0.7191 H   0  0  0  1  0  0  0  0  0  0  0  0
    1.8643    3.1912   -0.3048 C   0  0  0  1  0  0  0  0  0  0  0  0
    1.4307    0.0835    3.6656 C   0  0  0  1  0  0  0  0  0  0  0  0
    2.2963    3.6893   -1.6898 C   0  0  0  1  0  0  0  0  0  0  0  0
    2.7425    2.8537    0.4846 O   0  0  0  1  0  0  0  0  0  0  0  0
    0.8014    2.0979    3.6386 H   0  0  0  1  0  0  0  0  0  0  0  0
    0.6808   -0.6760    3.5897 H   0  0  0  1  0  0  0  0  0  0  0  0
    1.6600    0.2561    4.6964 H   0  0  0  1  0  0  0  0  0  0  0  0
    2.3135   -0.2348    3.1517 H   0  0  0  1  0  0  0  0  0  0  0  0
    1.8722    3.0598   -2.4440 H   0  0  0  1  0  0  0  0  0  0  0  0
    3.3635    3.6619   -1.7615 H   0  0  0  1  0  0  0  0  0  0  0  0
    1.9545    4.6935   -1.8301 H   0  0  0  1  0  0  0  0  0  0  0  0
   -4.1009    7.8181    0.4053 B   0  0  0  1  0  0  0  0  0  0  0  0
   -5.0694    7.9683   -0.5349 O   0  0  0  1  0  0  0  0  0  0  0  0
   -3.5970    8.8896    1.0620 O   0  0  0  1  0  0  0  0  0  0  0  0
   -3.4355    6.4162    0.7160 C   0  0  0  1  0  0  0  0  0  0  0  0
   -2.5378    6.2893    1.7592 C   0  0  0  1  0  0  0  0  0  0  0  0
   -1.8587    5.0956    1.9481 C   0  0  0  1  0  0  0  0  0  0  0  0
   -2.0755    4.0342    1.0898 C   0  0  0  1  0  0  0  0  0  0  0  0
   -2.9758    4.1613    0.0435 C   0  0  0  1  0  0  0  0  0  0  0  0
   -3.6527    5.3515   -0.1446 C   0  0  0  1  0  0  0  0  0  0  0  0
   -1.4284    2.6937    1.3147 C   0  0  0  1  0  0  0  0  0  0  0  0
   -4.8148    8.6604   -1.1496 H   0  0  0  1  0  0  0  0  0  0  0  0
   -4.1160    9.0539    1.8527 H   0  0  0  1  0  0  0  0  0  0  0  0
   -2.3718    7.0894    2.4026 H   0  0  0  1  0  0  0  0  0  0  0  0
   -1.1862    4.9988    2.7355 H   0  0  0  1  0  0  0  0  0  0  0  0
   -3.1418    3.3612   -0.5998 H   0  0  0  1  0  0  0  0  0  0  0  0
   -4.3252    5.4482   -0.9320 H   0  0  0  1  0  0  0  0  0  0  0  0
   -1.7431    2.3190    2.2662 H   0  0  0  1  0  0  0  0  0  0  0  0
   -1.7512    2.0261    0.5434 H   0  0  0  1  0  0  0  0  0  0  0  0
  1  4  1  0  0  0  0
  2  4  1  0  0  0  0
  2  5  2  0  0  0  0
  2  6  1  0  0  0  0
  3  4  1  0  0  0  0
  3  7  1  0  0  0  0
  3  8  1  0  0  0  0
  4 28  1  0  0  0  0
  6  9  1  0  0  0  0
  6 12  1  0  0  0  0
  8 10  1  0  0  0  0
  8 11  2  0  0  0  0
  9 13  1  0  0  0  0
  9 14  1  0  0  0  0
  9 15  1  0  0  0  0
 10 16  1  0  0  0  0
 10 17  1  0  0  0  0
 10 18  1  0  0  0  0
 19 20  1  0  0  0  0
 19 21  1  0  0  0  0
 19 22  1  0  0  0  0
 20 29  1  0  0  0  0
 21 30  1  0  0  0  0
 22 23  4  0  0  0  0
 22 27  4  0  0  0  0
 23 24  4  0  0  0  0
 23 31  1  0  0  0  0
 24 25  4  0  0  0  0
 24 32  1  0  0  0  0
 25 26  4  0  0  0  0
 25 28  1  0  0  0  0
 26 27  4  0  0  0  0
 26 33  1  0  0  0  0
 27 34  1  0  0  0  0
 28 35  1  0  0  0  0
 28 36  1  0  0  0  0
M  END
> <BCLConfClusterSize>
1

> <ConfClashScore>
0 

> <ConfOneFourInteractionScore>
-0.988961 

> <ConfScore>
-0.140863 

> <ConfScorePBest>
0.0064098 

> <ConfTolerance>
0.309074 

> <RosettaParamsInstructions>
M  ROOT 3
M  POLY_N_BB 3
M  POLY_CA_BB 4
M  POLY_C_BB 2
M  POLY_O_BB 5
M  POLY_IGNORE 9 10 11 12 13 14 15 16 17 18 
M  POLY_UPPER 6
M  POLY_LOWER 8
M  POLY_CHG 0
M  POLY_PROPERTIES ALPHA_AA L_AA PROTEIN AROMATIC POLYMER 
M  END

$$$$



 36 36  0  0  0  0  0  0  0  0999 V2000
    0.5709    3.4192    1.2080 H   0  0  0  1  0  0  0  0  0  0  0  0
    0.6823    1.3120    1.1947 C   0  0  0  1  0  0  0  0  0  0  0  0
    0.0499    2.7360   -0.6651 N   0  0  0  1  0  0  0  0  0  0  0  0
    0.0058    2.6153    0.7845 C   0  0  0  1  0  0  0  0  0  0  0  0
    0.8933    0.4177    0.3774 O   0  0  0  1  0  0  0  0  0  0  0  0
    1.0218    1.2152    2.4811 N   0  0  0  1  0  0  0  0  0  0  0  0
   -0.7590    2.5367   -1.1811 H   0  0  0  1  0  0  0  0  0  0  0  0
    1.1801    3.1176   -1.3317 C   0  0  0  1  0  0  0  0  0  0  0  0
    1.6090    0.0369    3.1014 C   0  0  0  1  0  0  0  0  0  0  0  0
    1.0655    2.9935   -2.8386 C   0  0  0  1  0  0  0  0  0  0  0  0
    2.1743    3.5170   -0.7455 O   0  0  0  1  0  0  0  0  0  0  0  0
    0.8639    1.9963    3.0514 H   0  0  0  1  0  0  0  0  0  0  0  0
    1.4002    0.0441    4.1508 H   0  0  0  1  0  0  0  0  0  0  0  0
    2.6680    0.0440    2.9486 H   0  0  0  1  0  0  0  0  0  0  0  0
    1.1905   -0.8438    2.6608 H   0  0  0  1  0  0  0  0  0  0  0  0
    0.0447    2.8158   -3.1057 H   0  0  0  1  0  0  0  0  0  0  0  0
    1.6695    2.1773   -3.1759 H   0  0  0  1  0  0  0  0  0  0  0  0
    1.4013    3.9000   -3.2974 H   0  0  0  1  0  0  0  0  0  0  0  0
   -4.1166    7.8139    0.4338 B   0  0  0  1  0  0  0  0  0  0  0  0
   -5.2544    7.8175   -0.3077 O   0  0  0  1  0  0  0  0  0  0  0  0
   -3.5289    8.9235    0.9562 O   0  0  0  1  0  0  0  0  0  0  0  0
   -3.4288    6.4196    0.7075 C   0  0  0  1  0  0  0  0  0  0  0  0
   -2.5332    6.2884    1.7520 C   0  0  0  1  0  0  0  0  0  0  0  0
   -1.8609    5.0912    1.9425 C   0  0  0  1  0  0  0  0  0  0  0  0
   -2.0823    4.0304    1.0846 C   0  0  0  1  0  0  0  0  0  0  0  0
   -2.9805    4.1618    0.0370 C   0  0  0  1  0  0  0  0  0  0  0  0
   -3.6506    5.3555   -0.1528 C   0  0  0  1  0  0  0  0  0  0  0  0
   -1.4121    2.6997    1.3553 C   0  0  0  1  0  0  0  0  0  0  0  0
   -5.0292    7.7850   -1.2404 H   0  0  0  1  0  0  0  0  0  0  0  0
   -4.1853    9.4423    1.4268 H   0  0  0  1  0  0  0  0  0  0  0  0
   -2.3637    7.0880    2.3951 H   0  0  0  1  0  0  0  0  0  0  0  0
   -1.1900    4.9912    2.7309 H   0  0  0  1  0  0  0  0  0  0  0  0
   -3.1500    3.3623   -0.6061 H   0  0  0  1  0  0  0  0  0  0  0  0
   -4.3215    5.4555   -0.9412 H   0  0  0  1  0  0  0  0  0  0  0  0
   -1.3624    2.5525    2.4139 H   0  0  0  1  0  0  0  0  0  0  0  0
   -2.0034    1.9246    0.9142 H   0  0  0  1  0  0  0  0  0  0  0  0
  1  4  1  0  0  0  0
  2  4  1  0  0  0  0
  2  5  2  0  0  0  0
  2  6  1  0  0  0  0
  3  4  1  0  0  0  0
  3  7  1  0  0  0  0
  3  8  1  0  0  0  0
  4 28  1  0  0  0  0
  6  9  1  0  0  0  0
  6 12  1  0  0  0  0
  8 10  1  0  0  0  0
  8 11  2  0  0  0  0
  9 13  1  0  0  0  0
  9 14  1  0  0  0  0
  9 15  1  0  0  0  0
 10 16  1  0  0  0  0
 10 17  1  0  0  0  0
 10 18  1  0  0  0  0
 19 20  1  0  0  0  0
 19 21  1  0  0  0  0
 19 22  1  0  0  0  0
 20 29  1  0  0  0  0
 21 30  1  0  0  0  0
 22 23  4  0  0  0  0
 22 27  4  0  0  0  0
 23 24  4  0  0  0  0
 23 31  1  0  0  0  0
 24 25  4  0  0  0  0
 24 32  1  0  0  0  0
 25 26  4  0  0  0  0
 25 28  1  0  0  0  0
 26 27  4  0  0  0  0
 26 33  1  0  0  0  0
 27 34  1  0  0  0  0
 28 35  1  0  0  0  0
 28 36  1  0  0  0  0
M  END
> <BCLConfClusterSize>
1

> <ConfClashScore>
0 

> <ConfOneFourInteractionScore>
-0.99043 

> <ConfScore>
-0.140232 

> <ConfScorePBest>
0.00638132 

> <ConfTolerance>
0.296133 

> <RosettaParamsInstructions>
M  ROOT 3
M  POLY_N_BB 3
M  POLY_CA_BB 4
M  POLY_C_BB 2
M  POLY_O_BB 5
M  POLY_IGNORE 9 10 11 12 13 14 15 16 17 18 
M  POLY_UPPER 6
M  POLY_LOWER 8
M  POLY_CHG 0
M  POLY_PROPERTIES ALPHA_AA L_AA PROTEIN AROMATIC POLYMER 
M  END

$$$$



 36 36  0  0  0  0  0  0  0  0999 V2000
    0.2932    3.3009    0.2782 H   0  0  0  1  0  0  0  0  0  0  0  0
    0.6804    1.3540    0.9442 C   0  0  0  1  0  0  0  0  0  0  0  0
   -0.7454    2.0185   -0.9379 N   0  0  0  1  0  0  0  0  0  0  0  0
   -0.2680    2.3961    0.3839 C   0  0  0  1  0  0  0  0  0  0  0  0
    0.5768    0.1667    0.6391 O   0  0  0  1  0  0  0  0  0  0  0  0
    1.6234    1.8140    1.7816 N   0  0  0  1  0  0  0  0  0  0  0  0
   -1.6951    1.8073   -1.0553 H   0  0  0  1  0  0  0  0  0  0  0  0
    0.0648    1.9498   -1.9954 C   0  0  0  1  0  0  0  0  0  0  0  0
    2.6235    0.9425    2.3802 C   0  0  0  1  0  0  0  0  0  0  0  0
   -0.5660    1.4401   -3.2766 C   0  0  0  1  0  0  0  0  0  0  0  0
    1.2413    2.2722   -1.9533 O   0  0  0  1  0  0  0  0  0  0  0  0
    1.6390    2.7698    1.9973 H   0  0  0  1  0  0  0  0  0  0  0  0
    2.1907   -0.0163    2.5757 H   0  0  0  1  0  0  0  0  0  0  0  0
    2.9673    1.3722    3.2979 H   0  0  0  1  0  0  0  0  0  0  0  0
    3.4478    0.8309    1.7072 H   0  0  0  1  0  0  0  0  0  0  0  0
   -1.6167    1.6419   -3.2623 H   0  0  0  1  0  0  0  0  0  0  0  0
   -0.4068    0.3850   -3.3570 H   0  0  0  1  0  0  0  0  0  0  0  0
   -0.1196    1.9336   -4.1145 H   0  0  0  1  0  0  0  0  0  0  0  0
   -4.1147    7.8101    0.4345 B   0  0  0  1  0  0  0  0  0  0  0  0
   -4.0504    8.7452    1.4175 O   0  0  0  1  0  0  0  0  0  0  0  0
   -4.7235    7.9878   -0.7572 O   0  0  0  1  0  0  0  0  0  0  0  0
   -3.4289    6.4199    0.7074 C   0  0  0  1  0  0  0  0  0  0  0  0
   -2.5334    6.2888    1.7519 C   0  0  0  1  0  0  0  0  0  0  0  0
   -1.8611    5.0915    1.9424 C   0  0  0  1  0  0  0  0  0  0  0  0
   -2.0825    4.0307    1.0845 C   0  0  0  1  0  0  0  0  0  0  0  0
   -2.9806    4.1622    0.0369 C   0  0  0  1  0  0  0  0  0  0  0  0
   -3.6508    5.3559   -0.1529 C   0  0  0  1  0  0  0  0  0  0  0  0
   -1.4123    2.7000    1.3552 C   0  0  0  1  0  0  0  0  0  0  0  0
   -4.5774    8.4588    2.1671 H   0  0  0  1  0  0  0  0  0  0  0  0
   -5.5758    7.5459   -0.7507 H   0  0  0  1  0  0  0  0  0  0  0  0
   -2.3639    7.0883    2.3950 H   0  0  0  1  0  0  0  0  0  0  0  0
   -1.1902    4.9916    2.7308 H   0  0  0  1  0  0  0  0  0  0  0  0
   -3.1502    3.3626   -0.6062 H   0  0  0  1  0  0  0  0  0  0  0  0
   -4.3217    5.4559   -0.9413 H   0  0  0  1  0  0  0  0  0  0  0  0
   -1.0199    2.7126    2.3506 H   0  0  0  1  0  0  0  0  0  0  0  0
   -2.1459    1.9257    1.2702 H   0  0  0  1  0  0  0  0  0  0  0  0
  1  4  1  0  0  0  0
  2  4  1  0  0  0  0
  2  5  2  0  0  0  0
  2  6  1  0  0  0  0
  3  4  1  0  0  0  0
  3  7  1  0  0  0  0
  3  8  1  0  0  0  0
  4 28  1  0  0  0  0
  6  9  1  0  0  0  0
  6 12  1  0  0  0  0
  8 10  1  0  0  0  0
  8 11  2  0  0  0  0
  9 13  1  0  0  0  0
  9 14  1  0  0  0  0
  9 15  1  0  0  0  0
 10 16  1  0  0  0  0
 10 17  1  0  0  0  0
 10 18  1  0  0  0  0
 19 20  1  0  0  0  0
 19 21  1  0  0  0  0
 19 22  1  0  0  0  0
 20 29  1  0  0  0  0
 21 30  1  0  0  0  0
 22 23  4  0  0  0  0
 22 27  4  0  0  0  0
 23 24  4  0  0  0  0
 23 31  1  0  0  0  0
 24 25  4  0  0  0  0
 24 32  1  0  0  0  0
 25 26  4  0  0  0  0
 25 28  1  0  0  0  0
 26 27  4  0  0  0  0
 26 33  1  0  0  0  0
 27 34  1  0  0  0  0
 28 35  1  0  0  0  0
 28 36  1  0  0  0  0
M  END
> <BCLConfClusterSize>
1

> <ConfClashScore>
0 

> <ConfOneFourInteractionScore>
-0.979973 

> <ConfScore>
-0.14002 

> <ConfScorePBest>
0.00635284 

> <ConfTolerance>
0.298822 

> <RosettaParamsInstructions>
M  ROOT 3
M  POLY_N_BB 3
M  POLY_CA_BB 4
M  POLY_C_BB 2
M  POLY_O_BB 5
M  POLY_IGNORE 9 10 11 12 13 14 15 16 17 18 
M  POLY_UPPER 6
M  POLY_LOWER 8
M  POLY_CHG 0
M  POLY_PROPERTIES ALPHA_AA L_AA PROTEIN AROMATIC POLYMER 
M  END

$$$$



 36 36  0  0  0  0  0  0  0  0999 V2000
    0.2526    1.5856    0.7236 H   0  0  0  1  0  0  0  0  0  0  0  0
   -0.4682    2.4157   -1.0511 C   0  0  0  1  0  0  0  0  0  0  0  0
    0.7959    3.5729    0.7264 N   0  0  0  1  0  0  0  0  0  0  0  0
   -0.1949    2.5144    0.4371 C   0  0  0  1  0  0  0  0  0  0  0  0
   -0.6195    3.4233   -1.7406 O   0  0  0  1  0  0  0  0  0  0  0  0
   -0.5318    1.1715   -1.5511 N   0  0  0  1  0  0  0  0  0  0  0  0
    0.9120    4.3181    0.1007 H   0  0  0  1  0  0  0  0  0  0  0  0
    1.5363    3.5154    1.8439 C   0  0  0  1  0  0  0  0  0  0  0  0
   -0.6898    0.9667   -2.9832 C   0  0  0  1  0  0  0  0  0  0  0  0
    2.5686    4.5854    2.0632 C   0  0  0  1  0  0  0  0  0  0  0  0
    1.3781    2.6215    2.6597 O   0  0  0  1  0  0  0  0  0  0  0  0
   -0.4716    0.3995   -0.9505 H   0  0  0  1  0  0  0  0  0  0  0  0
   -1.3343    1.7215   -3.3830 H   0  0  0  1  0  0  0  0  0  0  0  0
   -1.1178    0.0022   -3.1602 H   0  0  0  1  0  0  0  0  0  0  0  0
    0.2666    1.0259   -3.4594 H   0  0  0  1  0  0  0  0  0  0  0  0
    3.2838    4.5602    1.2677 H   0  0  0  1  0  0  0  0  0  0  0  0
    3.0661    4.4150    2.9952 H   0  0  0  1  0  0  0  0  0  0  0  0
    2.0911    5.5427    2.0831 H   0  0  0  1  0  0  0  0  0  0  0  0
   -4.1205    7.8153    0.4298 B   0  0  0  1  0  0  0  0  0  0  0  0
   -5.0826    7.8652   -0.5275 O   0  0  0  1  0  0  0  0  0  0  0  0
   -3.8071    8.9645    1.0936 O   0  0  0  1  0  0  0  0  0  0  0  0
   -3.4285    6.4194    0.7079 C   0  0  0  1  0  0  0  0  0  0  0  0
   -2.5335    6.2923    1.7534 C   0  0  0  1  0  0  0  0  0  0  0  0
   -1.8591    5.0968    1.9471 C   0  0  0  1  0  0  0  0  0  0  0  0
   -2.0778    4.0336    1.0914 C   0  0  0  1  0  0  0  0  0  0  0  0
   -2.9754    4.1610    0.0428 C   0  0  0  1  0  0  0  0  0  0  0  0
   -3.6477    5.3530   -0.1502 C   0  0  0  1  0  0  0  0  0  0  0  0
   -1.4322    2.6835    1.3229 C   0  0  0  1  0  0  0  0  0  0  0  0
   -5.9257    7.6063   -0.1484 H   0  0  0  1  0  0  0  0  0  0  0  0
   -4.0114    8.8620    2.0260 H   0  0  0  1  0  0  0  0  0  0  0  0
   -2.3660    7.0936    2.3948 H   0  0  0  1  0  0  0  0  0  0  0  0
   -1.1886    4.9998    2.7362 H   0  0  0  1  0  0  0  0  0  0  0  0
   -3.1429    3.3596   -0.5986 H   0  0  0  1  0  0  0  0  0  0  0  0
   -4.3181    5.4499   -0.9393 H   0  0  0  1  0  0  0  0  0  0  0  0
   -1.1419    2.6049    2.3498 H   0  0  0  1  0  0  0  0  0  0  0  0
   -2.1375    1.9130    1.0911 H   0  0  0  1  0  0  0  0  0  0  0  0
  1  4  1  0  0  0  0
  2  4  1  0  0  0  0
  2  5  2  0  0  0  0
  2  6  1  0  0  0  0
  3  4  1  0  0  0  0
  3  7  1  0  0  0  0
  3  8  1  0  0  0  0
  4 28  1  0  0  0  0
  6  9  1  0  0  0  0
  6 12  1  0  0  0  0
  8 10  1  0  0  0  0
  8 11  2  0  0  0  0
  9 13  1  0  0  0  0
  9 14  1  0  0  0  0
  9 15  1  0  0  0  0
 10 16  1  0  0  0  0
 10 17  1  0  0  0  0
 10 18  1  0  0  0  0
 19 20  1  0  0  0  0
 19 21  1  0  0  0  0
 19 22  1  0  0  0  0
 20 29  1  0  0  0  0
 21 30  1  0  0  0  0
 22 23  4  0  0  0  0
 22 27  4  0  0  0  0
 23 24  4  0  0  0  0
 23 31  1  0  0  0  0
 24 25  4  0  0  0  0
 24 32  1  0  0  0  0
 25 26  4  0  0  0  0
 25 28  1  0  0  0  0
 26 27  4  0  0  0  0
 26 33  1  0  0  0  0
 27 34  1  0  0  0  0
 28 35  1  0  0  0  0
 28 36  1  0  0  0  0
M  END
> <BCLConfClusterSize>
1

> <ConfClashScore>
0 

> <ConfOneFourInteractionScore>
-0.985058 

> <ConfScore>
-0.13871 

> <ConfScorePBest>
0.00632436 

> <ConfTolerance>
0.314776 

> <RosettaParamsInstructions>
M  ROOT 3
M  POLY_N_BB 3
M  POLY_CA_BB 4
M  POLY_C_BB 2
M  POLY_O_BB 5
M  POLY_IGNORE 9 10 11 12 13 14 15 16 17 18 
M  POLY_UPPER 6
M  POLY_LOWER 8
M  POLY_CHG 0
M  POLY_PROPERTIES ALPHA_AA L_AA PROTEIN AROMATIC POLYMER 
M  END

$$$$



 36 36  0  0  0  0  0  0  0  0999 V2000
   -3.2493    1.6060    1.4027 H   0  0  0  1  0  0  0  0  0  0  0  0
   -1.7428    0.2995    2.0643 C   0  0  0  1  0  0  0  0  0  0  0  0
   -2.7539    2.1770    3.3162 N   0  0  0  1  0  0  0  0  0  0  0  0
   -2.3674    1.6798    2.0042 C   0  0  0  1  0  0  0  0  0  0  0  0
   -1.0513    0.0222    3.0434 O   0  0  0  1  0  0  0  0  0  0  0  0
   -1.9740   -0.5395    1.0569 N   0  0  0  1  0  0  0  0  0  0  0  0
   -2.0896    2.2283    4.0348 H   0  0  0  1  0  0  0  0  0  0  0  0
   -4.0178    2.5654    3.5440 C   0  0  0  1  0  0  0  0  0  0  0  0
   -1.5186   -1.9216    1.0760 C   0  0  0  1  0  0  0  0  0  0  0  0
   -4.3742    3.0360    4.9261 C   0  0  0  1  0  0  0  0  0  0  0  0
   -4.8554    2.5381    2.6567 O   0  0  0  1  0  0  0  0  0  0  0  0
   -2.4681   -0.2152    0.2751 H   0  0  0  1  0  0  0  0  0  0  0  0
   -1.4809   -2.2712    2.0866 H   0  0  0  1  0  0  0  0  0  0  0  0
   -0.5427   -1.9813    0.6415 H   0  0  0  1  0  0  0  0  0  0  0  0
   -2.1976   -2.5284    0.5141 H   0  0  0  1  0  0  0  0  0  0  0  0
   -3.4848    3.3284    5.4443 H   0  0  0  1  0  0  0  0  0  0  0  0
   -4.8534    2.2425    5.4604 H   0  0  0  1  0  0  0  0  0  0  0  0
   -5.0380    3.8724    4.8577 H   0  0  0  1  0  0  0  0  0  0  0  0
   -4.1458    7.8080    0.3910 B   0  0  0  1  0  0  0  0  0  0  0  0
   -5.4928    7.9336    0.6739 O   0  0  0  1  0  0  0  0  0  0  0  0
   -3.4659    8.9837    0.6249 O   0  0  0  1  0  0  0  0  0  0  0  0
   -3.4239    6.4221    0.7162 C   0  0  0  1  0  0  0  0  0  0  0  0
   -2.5280    6.2905    1.7604 C   0  0  0  1  0  0  0  0  0  0  0  0
   -1.8555    5.0932    1.9501 C   0  0  0  1  0  0  0  0  0  0  0  0
   -2.0770    4.0329    1.0917 C   0  0  0  1  0  0  0  0  0  0  0  0
   -2.9755    4.1647    0.0444 C   0  0  0  1  0  0  0  0  0  0  0  0
   -3.6459    5.3584   -0.1446 C   0  0  0  1  0  0  0  0  0  0  0  0
   -1.4336    2.6809    1.3188 C   0  0  0  1  0  0  0  0  0  0  0  0
   -5.6570    7.6599    1.5793 H   0  0  0  1  0  0  0  0  0  0  0  0
   -4.0760    9.6458    0.9581 H   0  0  0  1  0  0  0  0  0  0  0  0
   -2.3584    7.0897    2.4038 H   0  0  0  1  0  0  0  0  0  0  0  0
   -1.1845    4.9929    2.7383 H   0  0  0  1  0  0  0  0  0  0  0  0
   -3.1451    3.3655   -0.5990 H   0  0  0  1  0  0  0  0  0  0  0  0
   -4.3170    5.4587   -0.9328 H   0  0  0  1  0  0  0  0  0  0  0  0
   -1.1406    2.2797    0.3711 H   0  0  0  1  0  0  0  0  0  0  0  0
   -0.5678    2.8147    1.9331 H   0  0  0  1  0  0  0  0  0  0  0  0
  1  4  1  0  0  0  0
  2  4  1  0  0  0  0
  2  5  2  0  0  0  0
  2  6  1  0  0  0  0
  3  4  1  0  0  0  0
  3  7  1  0  0  0  0
  3  8  1  0  0  0  0
  4 28  1  0  0  0  0
  6  9  1  0  0  0  0
  6 12  1  0  0  0  0
  8 10  1  0  0  0  0
  8 11  2  0  0  0  0
  9 13  1  0  0  0  0
  9 14  1  0  0  0  0
  9 15  1  0  0  0  0
 10 16  1  0  0  0  0
 10 17  1  0  0  0  0
 10 18  1  0  0  0  0
 19 20  1  0  0  0  0
 19 21  1  0  0  0  0
 19 22  1  0  0  0  0
 20 29  1  0  0  0  0
 21 30  1  0  0  0  0
 22 23  4  0  0  0  0
 22 27  4  0  0  0  0
 23 24  4  0  0  0  0
 23 31  1  0  0  0  0
 24 25  4  0  0  0  0
 24 32  1  0  0  0  0
 25 26  4  0  0  0  0
 25 28  1  0  0  0  0
 26 27  4  0  0  0  0
 26 33  1  0  0  0  0
 27 34  1  0  0  0  0
 28 35  1  0  0  0  0
 28 36  1  0  0  0  0
M  END
> <BCLConfClusterSize>
1

> <ConfClashScore>
0 

> <ConfOneFourInteractionScore>
-0.992613 

> <ConfScore>
-0.138666 

> <ConfScorePBest>
0.00629587 

> <ConfTolerance>
0.327714 

> <RosettaParamsInstructions>
M  ROOT 3
M  POLY_N_BB 3
M  POLY_CA_BB 4
M  POLY_C_BB 2
M  POLY_O_BB 5
M  POLY_IGNORE 9 10 11 12 13 14 15 16 17 18 
M  POLY_UPPER 6
M  POLY_LOWER 8
M  POLY_CHG 0
M  POLY_PROPERTIES ALPHA_AA L_AA PROTEIN AROMATIC POLYMER 
M  END

$$$$



 36 36  0  0  0  0  0  0  0  0999 V2000
   -2.9509    1.5069    0.5061 H   0  0  0  1  0  0  0  0  0  0  0  0
   -1.7380    0.1414    1.5314 C   0  0  0  1  0  0  0  0  0  0  0  0
   -3.3680    1.7281    2.5115 N   0  0  0  1  0  0  0  0  0  0  0  0
   -2.3943    1.5143    1.4198 C   0  0  0  1  0  0  0  0  0  0  0  0
   -1.3105   -0.2565    2.6142 O   0  0  0  1  0  0  0  0  0  0  0  0
   -1.5733   -0.5521    0.3938 N   0  0  0  1  0  0  0  0  0  0  0  0
   -3.0347    1.8581    3.4239 H   0  0  0  1  0  0  0  0  0  0  0  0
   -4.6977    1.7506    2.2957 C   0  0  0  1  0  0  0  0  0  0  0  0
   -0.9996   -1.8812    0.2443 C   0  0  0  1  0  0  0  0  0  0  0  0
   -5.5082    2.1183    3.5233 C   0  0  0  1  0  0  0  0  0  0  0  0
   -5.2365    1.5017    1.2180 O   0  0  0  1  0  0  0  0  0  0  0  0
   -1.8734   -0.1135   -0.4296 H   0  0  0  1  0  0  0  0  0  0  0  0
   -1.6254   -2.5975    0.7343 H   0  0  0  1  0  0  0  0  0  0  0  0
   -0.0244   -1.8999    0.6842 H   0  0  0  1  0  0  0  0  0  0  0  0
   -0.9271   -2.1232   -0.7954 H   0  0  0  1  0  0  0  0  0  0  0  0
   -5.5287    1.2891    4.1993 H   0  0  0  1  0  0  0  0  0  0  0  0
   -6.5075    2.3639    3.2302 H   0  0  0  1  0  0  0  0  0  0  0  0
   -5.0603    2.9612    4.0068 H   0  0  0  1  0  0  0  0  0  0  0  0
   -4.1071    7.8427    0.4615 B   0  0  0  1  0  0  0  0  0  0  0  0
   -3.7909    8.9195    1.1789 O   0  0  0  1  0  0  0  0  0  0  0  0
   -4.9841    8.0037   -0.5735 O   0  0  0  1  0  0  0  0  0  0  0  0
   -3.4316    6.4141    0.7009 C   0  0  0  1  0  0  0  0  0  0  0  0
   -2.5374    6.2911    1.7475 C   0  0  0  1  0  0  0  0  0  0  0  0
   -1.8610    5.0973    1.9448 C   0  0  0  1  0  0  0  0  0  0  0  0
   -2.0770    4.0316    1.0916 C   0  0  0  1  0  0  0  0  0  0  0  0
   -2.9739    4.1548    0.0419 C   0  0  0  1  0  0  0  0  0  0  0  0
   -3.6481    5.3452   -0.1547 C   0  0  0  1  0  0  0  0  0  0  0  0
   -1.4337    2.6925    1.3254 C   0  0  0  1  0  0  0  0  0  0  0  0
   -2.8790    9.1640    1.0049 H   0  0  0  1  0  0  0  0  0  0  0  0
   -5.8547    8.2116   -0.2264 H   0  0  0  1  0  0  0  0  0  0  0  0
   -2.3719    7.0943    2.3871 H   0  0  0  1  0  0  0  0  0  0  0  0
   -1.1911    5.0035    2.7348 H   0  0  0  1  0  0  0  0  0  0  0  0
   -3.1394    3.3516   -0.5977 H   0  0  0  1  0  0  0  0  0  0  0  0
   -4.3180    5.4389   -0.9447 H   0  0  0  1  0  0  0  0  0  0  0  0
   -0.7593    2.5045    0.5162 H   0  0  0  1  0  0  0  0  0  0  0  0
   -0.8851    2.7454    2.2425 H   0  0  0  1  0  0  0  0  0  0  0  0
  1  4  1  0  0  0  0
  2  4  1  0  0  0  0
  2  5  2  0  0  0  0
  2  6  1  0  0  0  0
  3  4  1  0  0  0  0
  3  7  1  0  0  0  0
  3  8  1  0  0  0  0
  4 28  1  0  0  0  0
  6  9  1  0  0  0  0
  6 12  1  0  0  0  0
  8 10  1  0  0  0  0
  8 11  2  0  0  0  0
  9 13  1  0  0  0  0
  9 14  1  0  0  0  0
  9 15  1  0  0  0  0
 10 16  1  0  0  0  0
 10 17  1  0  0  0  0
 10 18  1  0  0  0  0
 19 20  1  0  0  0  0
 19 21  1  0  0  0  0
 19 22  1  0  0  0  0
 20 29  1  0  0  0  0
 21 30  1  0  0  0  0
 22 23  4  0  0  0  0
 22 27  4  0  0  0  0
 23 24  4  0  0  0  0
 23 31  1  0  0  0  0
 24 25  4  0  0  0  0
 24 32  1  0  0  0  0
 25 26  4  0  0  0  0
 25 28  1  0  0  0  0
 26 27  4  0  0  0  0
 26 33  1  0  0  0  0
 27 34  1  0  0  0  0
 28 35  1  0  0  0  0
 28 36  1  0  0  0  0
M  END
> <BCLConfClusterSize>
1

> <ConfClashScore>
0 

> <ConfOneFourInteractionScore>
-0.988961 

> <ConfScore>
-0.138397 

> <ConfScorePBest>
0.00626739 

> <ConfTolerance>
0.327591 

> <RosettaParamsInstructions>
M  ROOT 3
M  POLY_N_BB 3
M  POLY_CA_BB 4
M  POLY_C_BB 2
M  POLY_O_BB 5
M  POLY_IGNORE 9 10 11 12 13 14 15 16 17 18 
M  POLY_UPPER 6
M  POLY_LOWER 8
M  POLY_CHG 0
M  POLY_PROPERTIES ALPHA_AA L_AA PROTEIN AROMATIC POLYMER 
M  END

$$$$



 36 36  0  0  0  0  0  0  0  0999 V2000
   -1.3567    2.0444   -0.6497 H   0  0  0  1  0  0  0  0  0  0  0  0
    0.3548    3.2416   -0.4291 C   0  0  0  1  0  0  0  0  0  0  0  0
    0.0412    0.9570    0.4201 N   0  0  0  1  0  0  0  0  0  0  0  0
   -0.6394    2.2327    0.1216 C   0  0  0  1  0  0  0  0  0  0  0  0
   -0.0458    4.2019   -1.0817 O   0  0  0  1  0  0  0  0  0  0  0  0
    1.6364    3.0691   -0.0932 N   0  0  0  1  0  0  0  0  0  0  0  0
    0.0178    0.5914    1.3290 H   0  0  0  1  0  0  0  0  0  0  0  0
    0.6915    0.2973   -0.5505 C   0  0  0  1  0  0  0  0  0  0  0  0
    2.6459    4.0101   -0.5549 C   0  0  0  1  0  0  0  0  0  0  0  0
    1.5685   -0.8577   -0.0724 C   0  0  0  1  0  0  0  0  0  0  0  0
    0.6628    0.6223   -1.7367 O   0  0  0  1  0  0  0  0  0  0  0  0
    1.8972    2.3072    0.4653 H   0  0  0  1  0  0  0  0  0  0  0  0
    2.3901    4.3562   -1.5346 H   0  0  0  1  0  0  0  0  0  0  0  0
    3.5986    3.5240   -0.5861 H   0  0  0  1  0  0  0  0  0  0  0  0
    2.6912    4.8421    0.1164 H   0  0  0  1  0  0  0  0  0  0  0  0
    1.0065   -1.4826    0.5898 H   0  0  0  1  0  0  0  0  0  0  0  0
    2.4212   -0.4679    0.4433 H   0  0  0  1  0  0  0  0  0  0  0  0
    1.8925   -1.4318   -0.9152 H   0  0  0  1  0  0  0  0  0  0  0  0
   -4.1431    7.8093    0.3944 B   0  0  0  1  0  0  0  0  0  0  0  0
   -3.4958    8.7778   -0.3039 O   0  0  0  1  0  0  0  0  0  0  0  0
   -5.4148    8.0538    0.8098 O   0  0  0  1  0  0  0  0  0  0  0  0
   -3.4237    6.4213    0.7159 C   0  0  0  1  0  0  0  0  0  0  0  0
   -2.5273    6.2857    1.7591 C   0  0  0  1  0  0  0  0  0  0  0  0
   -1.8569    5.0868    1.9457 C   0  0  0  1  0  0  0  0  0  0  0  0
   -2.0811    4.0287    1.0851 C   0  0  0  1  0  0  0  0  0  0  0  0
   -2.9801    4.1646    0.0388 C   0  0  0  1  0  0  0  0  0  0  0  0
   -3.6483    5.3601   -0.1471 C   0  0  0  1  0  0  0  0  0  0  0  0
   -1.4170    2.7040    1.3498 C   0  0  0  1  0  0  0  0  0  0  0  0
   -2.9429    9.2877    0.2926 H   0  0  0  1  0  0  0  0  0  0  0  0
   -6.0030    7.3849    0.4519 H   0  0  0  1  0  0  0  0  0  0  0  0
   -2.3556    7.0832    2.4042 H   0  0  0  1  0  0  0  0  0  0  0  0
   -1.1854    4.9834    2.7331 H   0  0  0  1  0  0  0  0  0  0  0  0
   -3.1517    3.3671   -0.6063 H   0  0  0  1  0  0  0  0  0  0  0  0
   -4.3198    5.4634   -0.9345 H   0  0  0  1  0  0  0  0  0  0  0  0
   -0.7421    2.8083    2.1736 H   0  0  0  1  0  0  0  0  0  0  0  0
   -2.1655    1.9783    1.5909 H   0  0  0  1  0  0  0  0  0  0  0  0
  1  4  1  0  0  0  0
  2  4  1  0  0  0  0
  2  5  2  0  0  0  0
  2  6  1  0  0  0  0
  3  4  1  0  0  0  0
  3  7  1  0  0  0  0
  3  8  1  0  0  0  0
  4 28  1  0  0  0  0
  6  9  1  0  0  0  0
  6 12  1  0  0  0  0
  8 10  1  0  0  0  0
  8 11  2  0  0  0  0
  9 13  1  0  0  0  0
  9 14  1  0  0  0  0
  9 15  1  0  0  0  0
 10 16  1  0  0  0  0
 10 17  1  0  0  0  0
 10 18  1  0  0  0  0
 19 20  1  0  0  0  0
 19 21  1  0  0  0  0
 19 22  1  0  0  0  0
 20 29  1  0  0  0  0
 21 30  1  0  0  0  0
 22 23  4  0  0  0  0
 22 27  4  0  0  0  0
 23 24  4  0  0  0  0
 23 31  1  0  0  0  0
 24 25  4  0  0  0  0
 24 32  1  0  0  0  0
 25 26  4  0  0  0  0
 25 28  1  0  0  0  0
 26 27  4  0  0  0  0
 26 33  1  0  0  0  0
 27 34  1  0  0  0  0
 28 35  1  0  0  0  0
 28 36  1  0  0  0  0
M  END
> <BCLConfClusterSize>
1

> <ConfClashScore>
0 

> <ConfOneFourInteractionScore>
-0.969136 

> <ConfScore>
-0.136289 

> <ConfScorePBest>
0.00623891 

> <ConfTolerance>
0.376165 

> <RosettaParamsInstructions>
M  ROOT 3
M  POLY_N_BB 3
M  POLY_CA_BB 4
M  POLY_C_BB 2
M  POLY_O_BB 5
M  POLY_IGNORE 9 10 11 12 13 14 15 16 17 18 
M  POLY_UPPER 6
M  POLY_LOWER 8
M  POLY_CHG 0
M  POLY_PROPERTIES ALPHA_AA L_AA PROTEIN AROMATIC POLYMER 
M  END

$$$$



 36 36  0  0  0  0  0  0  0  0999 V2000
    0.4305    3.3900    0.5924 H   0  0  0  1  0  0  0  0  0  0  0  0
    0.7031    1.3729    1.0992 C   0  0  0  1  0  0  0  0  0  0  0  0
   -0.4887    2.2704   -0.8683 N   0  0  0  1  0  0  0  0  0  0  0  0
   -0.1426    2.4887    0.5283 C   0  0  0  1  0  0  0  0  0  0  0  0
    0.2102    0.2749    1.3544 O   0  0  0  1  0  0  0  0  0  0  0  0
    1.9960    1.6149    1.3170 N   0  0  0  1  0  0  0  0  0  0  0  0
   -0.9151    1.4368   -1.1575 H   0  0  0  1  0  0  0  0  0  0  0  0
   -0.2085    3.2389   -1.7449 C   0  0  0  1  0  0  0  0  0  0  0  0
    2.9636    0.5996    1.7054 C   0  0  0  1  0  0  0  0  0  0  0  0
   -0.6381    3.0025   -3.1940 C   0  0  0  1  0  0  0  0  0  0  0  0
    0.2918    4.3053   -1.4252 O   0  0  0  1  0  0  0  0  0  0  0  0
    2.3151    2.5352    1.2087 H   0  0  0  1  0  0  0  0  0  0  0  0
    2.4549   -0.2200    2.1684 H   0  0  0  1  0  0  0  0  0  0  0  0
    3.6640    1.0205    2.3962 H   0  0  0  1  0  0  0  0  0  0  0  0
    3.4832    0.2518    0.8371 H   0  0  0  1  0  0  0  0  0  0  0  0
   -1.6933    2.8287   -3.2298 H   0  0  0  1  0  0  0  0  0  0  0  0
   -0.1229    2.1496   -3.5838 H   0  0  0  1  0  0  0  0  0  0  0  0
   -0.3986    3.8639   -3.7818 H   0  0  0  1  0  0  0  0  0  0  0  0
   -4.1182    7.8171    0.4332 B   0  0  0  1  0  0  0  0  0  0  0  0
   -3.5101    8.7460   -0.3490 O   0  0  0  1  0  0  0  0  0  0  0  0
   -5.3299    8.1199    0.9714 O   0  0  0  1  0  0  0  0  0  0  0  0
   -3.4287    6.4193    0.7075 C   0  0  0  1  0  0  0  0  0  0  0  0
   -2.5331    6.2881    1.7520 C   0  0  0  1  0  0  0  0  0  0  0  0
   -1.8608    5.0909    1.9426 C   0  0  0  1  0  0  0  0  0  0  0  0
   -2.0821    4.0301    1.0846 C   0  0  0  1  0  0  0  0  0  0  0  0
   -2.9803    4.1615    0.0370 C   0  0  0  1  0  0  0  0  0  0  0  0
   -3.6505    5.3552   -0.1528 C   0  0  0  1  0  0  0  0  0  0  0  0
   -1.4119    2.6994    1.3553 C   0  0  0  1  0  0  0  0  0  0  0  0
   -3.7844    8.6261   -1.2612 H   0  0  0  1  0  0  0  0  0  0  0  0
   -6.0171    7.9703    0.3180 H   0  0  0  1  0  0  0  0  0  0  0  0
   -2.3636    7.0877    2.3951 H   0  0  0  1  0  0  0  0  0  0  0  0
   -1.1899    4.9909    2.7309 H   0  0  0  1  0  0  0  0  0  0  0  0
   -3.1498    3.3620   -0.6061 H   0  0  0  1  0  0  0  0  0  0  0  0
   -4.3214    5.4552   -0.9411 H   0  0  0  1  0  0  0  0  0  0  0  0
   -1.1542    2.6527    2.3927 H   0  0  0  1  0  0  0  0  0  0  0  0
   -2.1034    1.9164    1.1234 H   0  0  0  1  0  0  0  0  0  0  0  0
  1  4  1  0  0  0  0
  2  4  1  0  0  0  0
  2  5  2  0  0  0  0
  2  6  1  0  0  0  0
  3  4  1  0  0  0  0
  3  7  1  0  0  0  0
  3  8  1  0  0  0  0
  4 28  1  0  0  0  0
  6  9  1  0  0  0  0
  6 12  1  0  0  0  0
  8 10  1  0  0  0  0
  8 11  2  0  0  0  0
  9 13  1  0  0  0  0
  9 14  1  0  0  0  0
  9 15  1  0  0  0  0
 10 16  1  0  0  0  0
 10 17  1  0  0  0  0
 10 18  1  0  0  0  0
 19 20  1  0  0  0  0
 19 21  1  0  0  0  0
 19 22  1  0  0  0  0
 20 29  1  0  0  0  0
 21 30  1  0  0  0  0
 22 23  4  0  0  0  0
 22 27  4  0  0  0  0
 23 24  4  0  0  0  0
 23 31  1  0  0  0  0
 24 25  4  0  0  0  0
 24 32  1  0  0  0  0
 25 26  4  0  0  0  0
 25 28  1  0  0  0  0
 26 27  4  0  0  0  0
 26 33  1  0  0  0  0
 27 34  1  0  0  0  0
 28 35  1  0  0  0  0
 28 36  1  0  0  0  0
M  END
> <BCLConfClusterSize>
1

> <ConfClashScore>
0 

> <ConfOneFourInteractionScore>
-0.98145 

> <ConfScore>
-0.134363 

> <ConfScorePBest>
0.00621043 

> <ConfTolerance>
0.373709 

> <RosettaParamsInstructions>
M  ROOT 3
M  POLY_N_BB 3
M  POLY_CA_BB 4
M  POLY_C_BB 2
M  POLY_O_BB 5
M  POLY_IGNORE 9 10 11 12 13 14 15 16 17 18 
M  POLY_UPPER 6
M  POLY_LOWER 8
M  POLY_CHG 0
M  POLY_PROPERTIES ALPHA_AA L_AA PROTEIN AROMATIC POLYMER 
M  END

$$$$



 36 36  0  0  0  0  0  0  0  0999 V2000
   -3.1449    1.8305    2.2005 H   0  0  0  1  0  0  0  0  0  0  0  0
   -1.5968    0.4684    2.5992 C   0  0  0  1  0  0  0  0  0  0  0  0
   -1.9842    2.6207    3.7201 N   0  0  0  1  0  0  0  0  0  0  0  0
   -2.1043    1.8922    2.4417 C   0  0  0  1  0  0  0  0  0  0  0  0
   -0.4214    0.3116    2.9271 O   0  0  0  1  0  0  0  0  0  0  0  0
   -2.4784   -0.5018    2.3661 N   0  0  0  1  0  0  0  0  0  0  0  0
   -1.0932    2.6849    4.1230 H   0  0  0  1  0  0  0  0  0  0  0  0
   -2.9988    3.1989    4.3692 C   0  0  0  1  0  0  0  0  0  0  0  0
   -2.1790   -1.9256    2.4007 C   0  0  0  1  0  0  0  0  0  0  0  0
   -2.5855    4.0651    5.5604 C   0  0  0  1  0  0  0  0  0  0  0  0
   -4.1685    3.1339    4.0239 O   0  0  0  1  0  0  0  0  0  0  0  0
   -3.3981   -0.2372    2.1553 H   0  0  0  1  0  0  0  0  0  0  0  0
   -1.4729   -2.1609    1.6319 H   0  0  0  1  0  0  0  0  0  0  0  0
   -3.0784   -2.4829    2.2413 H   0  0  0  1  0  0  0  0  0  0  0  0
   -1.7656   -2.1798    3.3543 H   0  0  0  1  0  0  0  0  0  0  0  0
   -2.6570    3.4916    6.4609 H   0  0  0  1  0  0  0  0  0  0  0  0
   -3.2338    4.9138    5.6260 H   0  0  0  1  0  0  0  0  0  0  0  0
   -1.5766    4.3958    5.4276 H   0  0  0  1  0  0  0  0  0  0  0  0
   -4.1042    7.8367    0.4625 B   0  0  0  1  0  0  0  0  0  0  0  0
   -4.9215    8.1100   -0.5872 O   0  0  0  1  0  0  0  0  0  0  0  0
   -3.8341    8.8152    1.3675 O   0  0  0  1  0  0  0  0  0  0  0  0
   -3.4319    6.4147    0.7008 C   0  0  0  1  0  0  0  0  0  0  0  0
   -2.5376    6.2918    1.7474 C   0  0  0  1  0  0  0  0  0  0  0  0
   -1.8613    5.0979    1.9447 C   0  0  0  1  0  0  0  0  0  0  0  0
   -2.0774    4.0323    1.0915 C   0  0  0  1  0  0  0  0  0  0  0  0
   -2.9742    4.1555    0.0417 C   0  0  0  1  0  0  0  0  0  0  0  0
   -3.6484    5.3458   -0.1548 C   0  0  0  1  0  0  0  0  0  0  0  0
   -1.4335    2.6919    1.3255 C   0  0  0  1  0  0  0  0  0  0  0  0
   -5.7334    7.6049   -0.5012 H   0  0  0  1  0  0  0  0  0  0  0  0
   -3.3915    8.4338    2.1293 H   0  0  0  1  0  0  0  0  0  0  0  0
   -2.3721    7.0950    2.3870 H   0  0  0  1  0  0  0  0  0  0  0  0
   -1.1914    5.0041    2.7347 H   0  0  0  1  0  0  0  0  0  0  0  0
   -3.1397    3.3523   -0.5978 H   0  0  0  1  0  0  0  0  0  0  0  0
   -4.3183    5.4396   -0.9448 H   0  0  0  1  0  0  0  0  0  0  0  0
   -1.4886    2.1248    0.4198 H   0  0  0  1  0  0  0  0  0  0  0  0
   -0.4078    2.8479    1.5874 H   0  0  0  1  0  0  0  0  0  0  0  0
  1  4  1  0  0  0  0
  2  4  1  0  0  0  0
  2  5  2  0  0  0  0
  2  6  1  0  0  0  0
  3  4  1  0  0  0  0
  3  7  1  0  0  0  0
  3  8  1  0  0  0  0
  4 28  1  0  0  0  0
  6  9  1  0  0  0  0
  6 12  1  0  0  0  0
  8 10  1  0  0  0  0
  8 11  2  0  0  0  0
  9 13  1  0  0  0  0
  9 14  1  0  0  0  0
  9 15  1  0  0  0  0
 10 16  1  0  0  0  0
 10 17  1  0  0  0  0
 10 18  1  0  0  0  0
 19 20  1  0  0  0  0
 19 21  1  0  0  0  0
 19 22  1  0  0  0  0
 20 29  1  0  0  0  0
 21 30  1  0  0  0  0
 22 23  4  0  0  0  0
 22 27  4  0  0  0  0
 23 24  4  0  0  0  0
 23 31  1  0  0  0  0
 24 25  4  0  0  0  0
 24 32  1  0  0  0  0
 25 26  4  0  0  0  0
 25 28  1  0  0  0  0
 26 27  4  0  0  0  0
 26 33  1  0  0  0  0
 27 34  1  0  0  0  0
 28 35  1  0  0  0  0
 28 36  1  0  0  0  0
M  END
> <BCLConfClusterSize>
1

> <ConfClashScore>
0 

> <ConfOneFourInteractionScore>
-0.983625 

> <ConfScore>
-0.128441 

> <ConfScorePBest>
0.00618195 

> <ConfTolerance>
0.365596 

> <RosettaParamsInstructions>
M  ROOT 3
M  POLY_N_BB 3
M  POLY_CA_BB 4
M  POLY_C_BB 2
M  POLY_O_BB 5
M  POLY_IGNORE 9 10 11 12 13 14 15 16 17 18 
M  POLY_UPPER 6
M  POLY_LOWER 8
M  POLY_CHG 0
M  POLY_PROPERTIES ALPHA_AA L_AA PROTEIN AROMATIC POLYMER 
M  END

$$$$



 36 36  0  0  0  0  0  0  0  0999 V2000
    0.5962    3.3819    1.3702 H   0  0  0  1  0  0  0  0  0  0  0  0
    0.6351    1.2858    1.1226 C   0  0  0  1  0  0  0  0  0  0  0  0
    0.0849    2.9366   -0.5830 N   0  0  0  1  0  0  0  0  0  0  0  0
    0.0268    2.6461    0.8418 C   0  0  0  1  0  0  0  0  0  0  0  0
    0.9576    0.9537    2.2625 O   0  0  0  1  0  0  0  0  0  0  0  0
    0.7929    0.4861    0.0560 N   0  0  0  1  0  0  0  0  0  0  0  0
   -0.7406    3.1850   -1.0491 H   0  0  0  1  0  0  0  0  0  0  0  0
    1.2246    2.8766   -1.2777 C   0  0  0  1  0  0  0  0  0  0  0  0
    1.4440   -0.8122    0.1474 C   0  0  0  1  0  0  0  0  0  0  0  0
    1.1164    3.0421   -2.7989 C   0  0  0  1  0  0  0  0  0  0  0  0
    2.3222    2.7765   -0.7535 O   0  0  0  1  0  0  0  0  0  0  0  0
    0.4580    0.7870   -0.8144 H   0  0  0  1  0  0  0  0  0  0  0  0
    0.9600   -1.5017   -0.5124 H   0  0  0  1  0  0  0  0  0  0  0  0
    1.3778   -1.1742    1.1522 H   0  0  0  1  0  0  0  0  0  0  0  0
    2.4727   -0.7154   -0.1303 H   0  0  0  1  0  0  0  0  0  0  0  0
    1.6034    2.2215   -3.2830 H   0  0  0  1  0  0  0  0  0  0  0  0
    1.5855    3.9581   -3.0920 H   0  0  0  1  0  0  0  0  0  0  0  0
    0.0850    3.0623   -3.0827 H   0  0  0  1  0  0  0  0  0  0  0  0
   -4.1178    7.8165    0.4333 B   0  0  0  1  0  0  0  0  0  0  0  0
   -3.3761    8.9524    0.3702 O   0  0  0  1  0  0  0  0  0  0  0  0
   -5.4527    7.9123    0.2563 O   0  0  0  1  0  0  0  0  0  0  0  0
   -3.4283    6.4186    0.7076 C   0  0  0  1  0  0  0  0  0  0  0  0
   -2.5327    6.2875    1.7522 C   0  0  0  1  0  0  0  0  0  0  0  0
   -1.8604    5.0903    1.9427 C   0  0  0  1  0  0  0  0  0  0  0  0
   -2.0818    4.0295    1.0848 C   0  0  0  1  0  0  0  0  0  0  0  0
   -2.9800    4.1609    0.0372 C   0  0  0  1  0  0  0  0  0  0  0  0
   -3.6502    5.3546   -0.1526 C   0  0  0  1  0  0  0  0  0  0  0  0
   -1.4156    2.7067    1.3539 C   0  0  0  1  0  0  0  0  0  0  0  0
   -3.4785    9.4478    1.1862 H   0  0  0  1  0  0  0  0  0  0  0  0
   -5.8870    7.9557    1.1113 H   0  0  0  1  0  0  0  0  0  0  0  0
   -2.3632    7.0871    2.3952 H   0  0  0  1  0  0  0  0  0  0  0  0
   -1.1896    4.9903    2.7311 H   0  0  0  1  0  0  0  0  0  0  0  0
   -3.1495    3.3613   -0.6059 H   0  0  0  1  0  0  0  0  0  0  0  0
   -4.3210    5.4545   -0.9410 H   0  0  0  1  0  0  0  0  0  0  0  0
   -1.4094    2.5372    2.4104 H   0  0  0  1  0  0  0  0  0  0  0  0
   -1.9808    1.9364    0.8719 H   0  0  0  1  0  0  0  0  0  0  0  0
  1  4  1  0  0  0  0
  2  4  1  0  0  0  0
  2  5  2  0  0  0  0
  2  6  1  0  0  0  0
  3  4  1  0  0  0  0
  3  7  1  0  0  0  0
  3  8  1  0  0  0  0
  4 28  1  0  0  0  0
  6  9  1  0  0  0  0
  6 12  1  0  0  0  0
  8 10  1  0  0  0  0
  8 11  2  0  0  0  0
  9 13  1  0  0  0  0
  9 14  1  0  0  0  0
  9 15  1  0  0  0  0
 10 16  1  0  0  0  0
 10 17  1  0  0  0  0
 10 18  1  0  0  0  0
 19 20  1  0  0  0  0
 19 21  1  0  0  0  0
 19 22  1  0  0  0  0
 20 29  1  0  0  0  0
 21 30  1  0  0  0  0
 22 23  4  0  0  0  0
 22 27  4  0  0  0  0
 23 24  4  0  0  0  0
 23 31  1  0  0  0  0
 24 25  4  0  0  0  0
 24 32  1  0  0  0  0
 25 26  4  0  0  0  0
 25 28  1  0  0  0  0
 26 27  4  0  0  0  0
 26 33  1  0  0  0  0
 27 34  1  0  0  0  0
 28 35  1  0  0  0  0
 28 36  1  0  0  0  0
M  END
> <BCLConfClusterSize>
1

> <ConfClashScore>
0 

> <ConfOneFourInteractionScore>
-0.954617 

> <ConfScore>
-0.124403 

> <ConfScorePBest>
0.00615347 

> <ConfTolerance>
0.414628 

> <RosettaParamsInstructions>
M  ROOT 3
M  POLY_N_BB 3
M  POLY_CA_BB 4
M  POLY_C_BB 2
M  POLY_O_BB 5
M  POLY_IGNORE 9 10 11 12 13 14 15 16 17 18 
M  POLY_UPPER 6
M  POLY_LOWER 8
M  POLY_CHG 0
M  POLY_PROPERTIES ALPHA_AA L_AA PROTEIN AROMATIC POLYMER 
M  END

$$$$



 36 36  0  0  0  0  0  0  0  0999 V2000
    0.0367    2.8855   -0.1587 H   0  0  0  1  0  0  0  0  0  0  0  0
    0.2235    0.9669    0.7070 C   0  0  0  1  0  0  0  0  0  0  0  0
   -1.4914    1.7283   -0.9141 N   0  0  0  1  0  0  0  0  0  0  0  0
   -0.6306    2.1253    0.1901 C   0  0  0  1  0  0  0  0  0  0  0  0
    1.3188    1.1620    1.2076 O   0  0  0  1  0  0  0  0  0  0  0  0
   -0.3108   -0.2572    0.5717 N   0  0  0  1  0  0  0  0  0  0  0  0
   -2.4624    1.8105   -0.8100 H   0  0  0  1  0  0  0  0  0  0  0  0
   -1.0040    1.2557   -2.0648 C   0  0  0  1  0  0  0  0  0  0  0  0
    0.3467   -1.4527    1.0782 C   0  0  0  1  0  0  0  0  0  0  0  0
   -1.9858    0.8777   -3.1567 C   0  0  0  1  0  0  0  0  0  0  0  0
    0.1865    1.1094   -2.2910 O   0  0  0  1  0  0  0  0  0  0  0  0
   -1.1735   -0.3490    0.1160 H   0  0  0  1  0  0  0  0  0  0  0  0
   -0.3918   -2.1708    1.3681 H   0  0  0  1  0  0  0  0  0  0  0  0
    0.9473   -1.1970    1.9261 H   0  0  0  1  0  0  0  0  0  0  0  0
    0.9678   -1.8692    0.3130 H   0  0  0  1  0  0  0  0  0  0  0  0
   -1.5111    0.2155   -3.8502 H   0  0  0  1  0  0  0  0  0  0  0  0
   -2.3062    1.7607   -3.6692 H   0  0  0  1  0  0  0  0  0  0  0  0
   -2.8329    0.3903   -2.7212 H   0  0  0  1  0  0  0  0  0  0  0  0
   -4.1178    7.8164    0.4333 B   0  0  0  1  0  0  0  0  0  0  0  0
   -3.8584    8.8894    1.2245 O   0  0  0  1  0  0  0  0  0  0  0  0
   -4.9961    8.0691   -0.5737 O   0  0  0  1  0  0  0  0  0  0  0  0
   -3.4282    6.4185    0.7076 C   0  0  0  1  0  0  0  0  0  0  0  0
   -2.5327    6.2874    1.7522 C   0  0  0  1  0  0  0  0  0  0  0  0
   -1.8604    5.0902    1.9427 C   0  0  0  1  0  0  0  0  0  0  0  0
   -2.0818    4.0294    1.0848 C   0  0  0  1  0  0  0  0  0  0  0  0
   -2.9799    4.1608    0.0372 C   0  0  0  1  0  0  0  0  0  0  0  0
   -3.6501    5.3545   -0.1526 C   0  0  0  1  0  0  0  0  0  0  0  0
   -1.4162    2.7077    1.3537 C   0  0  0  1  0  0  0  0  0  0  0  0
   -4.6850    9.2996    1.4892 H   0  0  0  1  0  0  0  0  0  0  0  0
   -4.6586    8.7810   -1.1222 H   0  0  0  1  0  0  0  0  0  0  0  0
   -2.3632    7.0870    2.3952 H   0  0  0  1  0  0  0  0  0  0  0  0
   -1.1895    4.9902    2.7311 H   0  0  0  1  0  0  0  0  0  0  0  0
   -3.1494    3.3612   -0.6059 H   0  0  0  1  0  0  0  0  0  0  0  0
   -4.3210    5.4544   -0.9410 H   0  0  0  1  0  0  0  0  0  0  0  0
   -0.7423    2.8385    2.1744 H   0  0  0  1  0  0  0  0  0  0  0  0
   -2.1760    2.0044    1.6239 H   0  0  0  1  0  0  0  0  0  0  0  0
  1  4  1  0  0  0  0
  2  4  1  0  0  0  0
  2  5  2  0  0  0  0
  2  6  1  0  0  0  0
  3  4  1  0  0  0  0
  3  7  1  0  0  0  0
  3  8  1  0  0  0  0
  4 28  1  0  0  0  0
  6  9  1  0  0  0  0
  6 12  1  0  0  0  0
  8 10  1  0  0  0  0
  8 11  2  0  0  0  0
  9 13  1  0  0  0  0
  9 14  1  0  0  0  0
  9 15  1  0  0  0  0
 10 16  1  0  0  0  0
 10 17  1  0  0  0  0
 10 18  1  0  0  0  0
 19 20  1  0  0  0  0
 19 21  1  0  0  0  0
 19 22  1  0  0  0  0
 20 29  1  0  0  0  0
 21 30  1  0  0  0  0
 22 23  4  0  0  0  0
 22 27  4  0  0  0  0
 23 24  4  0  0  0  0
 23 31  1  0  0  0  0
 24 25  4  0  0  0  0
 24 32  1  0  0  0  0
 25 26  4  0  0  0  0
 25 28  1  0  0  0  0
 26 27  4  0  0  0  0
 26 33  1  0  0  0  0
 27 34  1  0  0  0  0
 28 35  1  0  0  0  0
 28 36  1  0  0  0  0
M  END
> <BCLConfClusterSize>
1

> <ConfClashScore>
0 

> <ConfOneFourInteractionScore>
-0.966122 

> <ConfScore>
-0.120307 

> <ConfScorePBest>
0.00612499 

> <ConfTolerance>
0.321848 

> <RosettaParamsInstructions>
M  ROOT 3
M  POLY_N_BB 3
M  POLY_CA_BB 4
M  POLY_C_BB 2
M  POLY_O_BB 5
M  POLY_IGNORE 9 10 11 12 13 14 15 16 17 18 
M  POLY_UPPER 6
M  POLY_LOWER 8
M  POLY_CHG 0
M  POLY_PROPERTIES ALPHA_AA L_AA PROTEIN AROMATIC POLYMER 
M  END

$$$$



 36 36  0  0  0  0  0  0  0  0999 V2000
    0.5369    3.3812    0.9662 H   0  0  0  1  0  0  0  0  0  0  0  0
    0.6062    1.2880    1.3350 C   0  0  0  1  0  0  0  0  0  0  0  0
   -0.1465    2.3885   -0.7248 N   0  0  0  1  0  0  0  0  0  0  0  0
   -0.0504    2.5209    0.7212 C   0  0  0  1  0  0  0  0  0  0  0  0
    1.3482    1.3795    2.3095 O   0  0  0  1  0  0  0  0  0  0  0  0
    0.3200    0.1237    0.7454 N   0  0  0  1  0  0  0  0  0  0  0  0
   -1.0351    2.4727   -1.1294 H   0  0  0  1  0  0  0  0  0  0  0  0
    0.8854    2.1607   -1.5423 C   0  0  0  1  0  0  0  0  0  0  0  0
    0.7672   -1.1516    1.2850 C   0  0  0  1  0  0  0  0  0  0  0  0
    0.5526    1.9951   -3.0210 C   0  0  0  1  0  0  0  0  0  0  0  0
    2.0659    2.0744   -1.2071 O   0  0  0  1  0  0  0  0  0  0  0  0
   -0.2097    0.1288   -0.0791 H   0  0  0  1  0  0  0  0  0  0  0  0
    1.2934   -1.6949    0.5281 H   0  0  0  1  0  0  0  0  0  0  0  0
   -0.0806   -1.7194    1.6071 H   0  0  0  1  0  0  0  0  0  0  0  0
    1.4178   -0.9783    2.1166 H   0  0  0  1  0  0  0  0  0  0  0  0
    0.0414    1.0671   -3.1703 H   0  0  0  1  0  0  0  0  0  0  0  0
    1.4572    1.9997   -3.5925 H   0  0  0  1  0  0  0  0  0  0  0  0
   -0.0741    2.8024   -3.3378 H   0  0  0  1  0  0  0  0  0  0  0  0
   -4.1201    7.8147    0.4299 B   0  0  0  1  0  0  0  0  0  0  0  0
   -5.0144    8.3040    1.3274 O   0  0  0  1  0  0  0  0  0  0  0  0
   -3.7864    8.4675   -0.7036 O   0  0  0  1  0  0  0  0  0  0  0  0
   -3.4281    6.4186    0.7080 C   0  0  0  1  0  0  0  0  0  0  0  0
   -2.5331    6.2915    1.7535 C   0  0  0  1  0  0  0  0  0  0  0  0
   -1.8587    5.0960    1.9473 C   0  0  0  1  0  0  0  0  0  0  0  0
   -2.0774    4.0328    1.0916 C   0  0  0  1  0  0  0  0  0  0  0  0
   -2.9750    4.1602    0.0430 C   0  0  0  1  0  0  0  0  0  0  0  0
   -3.6473    5.3522   -0.1501 C   0  0  0  1  0  0  0  0  0  0  0  0
   -1.4363    2.6919    1.3215 C   0  0  0  1  0  0  0  0  0  0  0  0
   -5.8965    8.0027    1.0977 H   0  0  0  1  0  0  0  0  0  0  0  0
   -3.9478    7.8990   -1.4602 H   0  0  0  1  0  0  0  0  0  0  0  0
   -2.3656    7.0928    2.3949 H   0  0  0  1  0  0  0  0  0  0  0  0
   -1.1883    4.9990    2.7364 H   0  0  0  1  0  0  0  0  0  0  0  0
   -3.1425    3.3589   -0.5985 H   0  0  0  1  0  0  0  0  0  0  0  0
   -4.3177    5.4491   -0.9392 H   0  0  0  1  0  0  0  0  0  0  0  0
   -1.3596    2.5395    2.3778 H   0  0  0  1  0  0  0  0  0  0  0  0
   -2.0739    1.9442    0.8981 H   0  0  0  1  0  0  0  0  0  0  0  0
  1  4  1  0  0  0  0
  2  4  1  0  0  0  0
  2  5  2  0  0  0  0
  2  6  1  0  0  0  0
  3  4  1  0  0  0  0
  3  7  1  0  0  0  0
  3  8  1  0  0  0  0
  4 28  1  0  0  0  0
  6  9  1  0  0  0  0
  6 12  1  0  0  0  0
  8 10  1  0  0  0  0
  8 11  2  0  0  0  0
  9 13  1  0  0  0  0
  9 14  1  0  0  0  0
  9 15  1  0  0  0  0
 10 16  1  0  0  0  0
 10 17  1  0  0  0  0
 10 18  1  0  0  0  0
 19 20  1  0  0  0  0
 19 21  1  0  0  0  0
 19 22  1  0  0  0  0
 20 29  1  0  0  0  0
 21 30  1  0  0  0  0
 22 23  4  0  0  0  0
 22 27  4  0  0  0  0
 23 24  4  0  0  0  0
 23 31  1  0  0  0  0
 24 25  4  0  0  0  0
 24 32  1  0  0  0  0
 25 26  4  0  0  0  0
 25 28  1  0  0  0  0
 26 27  4  0  0  0  0
 26 33  1  0  0  0  0
 27 34  1  0  0  0  0
 28 35  1  0  0  0  0
 28 36  1  0  0  0  0
M  END
> <BCLConfClusterSize>
1

> <ConfClashScore>
0 

> <ConfOneFourInteractionScore>
-0.969136 

> <ConfScore>
-0.119548 

> <ConfScorePBest>
0.00609651 

> <ConfTolerance>
0.459138 

> <RosettaParamsInstructions>
M  ROOT 3
M  POLY_N_BB 3
M  POLY_CA_BB 4
M  POLY_C_BB 2
M  POLY_O_BB 5
M  POLY_IGNORE 9 10 11 12 13 14 15 16 17 18 
M  POLY_UPPER 6
M  POLY_LOWER 8
M  POLY_CHG 0
M  POLY_PROPERTIES ALPHA_AA L_AA PROTEIN AROMATIC POLYMER 
M  END

$$$$



 36 36  0  0  0  0  0  0  0  0999 V2000
   -2.9246    1.3164    0.8314 H   0  0  0  1  0  0  0  0  0  0  0  0
   -1.6572    0.3581    2.2297 C   0  0  0  1  0  0  0  0  0  0  0  0
   -3.3540    2.0460    2.7181 N   0  0  0  1  0  0  0  0  0  0  0  0
   -2.3970    1.5892    1.7214 C   0  0  0  1  0  0  0  0  0  0  0  0
   -1.2796    0.2712    3.3866 O   0  0  0  1  0  0  0  0  0  0  0  0
   -1.4739   -0.5899    1.2900 N   0  0  0  1  0  0  0  0  0  0  0  0
   -3.0233    2.3312    3.5955 H   0  0  0  1  0  0  0  0  0  0  0  0
   -4.6677    2.0899    2.4787 C   0  0  0  1  0  0  0  0  0  0  0  0
   -0.6628   -1.7935    1.3956 C   0  0  0  1  0  0  0  0  0  0  0  0
   -5.5418    2.4477    3.6650 C   0  0  0  1  0  0  0  0  0  0  0  0
   -5.1553    1.8580    1.3733 O   0  0  0  1  0  0  0  0  0  0  0  0
   -1.9396   -0.4533    0.4387 H   0  0  0  1  0  0  0  0  0  0  0  0
    0.2264   -1.5776    1.9503 H   0  0  0  1  0  0  0  0  0  0  0  0
   -0.3981   -2.1321    0.4157 H   0  0  0  1  0  0  0  0  0  0  0  0
   -1.2202   -2.5560    1.8985 H   0  0  0  1  0  0  0  0  0  0  0  0
   -4.9247    2.6484    4.5157 H   0  0  0  1  0  0  0  0  0  0  0  0
   -6.1967    1.6304    3.8845 H   0  0  0  1  0  0  0  0  0  0  0  0
   -6.1209    3.3167    3.4317 H   0  0  0  1  0  0  0  0  0  0  0  0
   -4.0834    7.8618    0.5018 B   0  0  0  1  0  0  0  0  0  0  0  0
   -4.2753    8.6200    1.6122 O   0  0  0  1  0  0  0  0  0  0  0  0
   -4.4508    8.3773   -0.7058 O   0  0  0  1  0  0  0  0  0  0  0  0
   -3.4367    6.4110    0.6924 C   0  0  0  1  0  0  0  0  0  0  0  0
   -2.5426    6.2886    1.7393 C   0  0  0  1  0  0  0  0  0  0  0  0
   -1.8662    5.0950    1.9372 C   0  0  0  1  0  0  0  0  0  0  0  0
   -2.0820    4.0289    1.0844 C   0  0  0  1  0  0  0  0  0  0  0  0
   -2.9786    4.1515    0.0345 C   0  0  0  1  0  0  0  0  0  0  0  0
   -3.6530    5.3417   -0.1628 C   0  0  0  1  0  0  0  0  0  0  0  0
   -1.4073    2.7022    1.3632 C   0  0  0  1  0  0  0  0  0  0  0  0
   -3.5113    8.5434    2.1885 H   0  0  0  1  0  0  0  0  0  0  0  0
   -4.6890    7.6623   -1.3004 H   0  0  0  1  0  0  0  0  0  0  0  0
   -2.3773    7.0921    2.3785 H   0  0  0  1  0  0  0  0  0  0  0  0
   -1.1964    5.0016    2.7274 H   0  0  0  1  0  0  0  0  0  0  0  0
   -3.1439    3.3480   -0.6048 H   0  0  0  1  0  0  0  0  0  0  0  0
   -4.3227    5.4351   -0.9529 H   0  0  0  1  0  0  0  0  0  0  0  0
   -0.8636    2.4065    0.4903 H   0  0  0  1  0  0  0  0  0  0  0  0
   -0.7285    2.8303    2.1804 H   0  0  0  1  0  0  0  0  0  0  0  0
  1  4  1  0  0  0  0
  2  4  1  0  0  0  0
  2  5  2  0  0  0  0
  2  6  1  0  0  0  0
  3  4  1  0  0  0  0
  3  7  1  0  0  0  0
  3  8  1  0  0  0  0
  4 28  1  0  0  0  0
  6  9  1  0  0  0  0
  6 12  1  0  0  0  0
  8 10  1  0  0  0  0
  8 11  2  0  0  0  0
  9 13  1  0  0  0  0
  9 14  1  0  0  0  0
  9 15  1  0  0  0  0
 10 16  1  0  0  0  0
 10 17  1  0  0  0  0
 10 18  1  0  0  0  0
 19 20  1  0  0  0  0
 19 21  1  0  0  0  0
 19 22  1  0  0  0  0
 20 29  1  0  0  0  0
 21 30  1  0  0  0  0
 22 23  4  0  0  0  0
 22 27  4  0  0  0  0
 23 24  4  0  0  0  0
 23 31  1  0  0  0  0
 24 25  4  0  0  0  0
 24 32  1  0  0  0  0
 25 26  4  0  0  0  0
 25 28  1  0  0  0  0
 26 27  4  0  0  0  0
 26 33  1  0  0  0  0
 27 34  1  0  0  0  0
 28 35  1  0  0  0  0
 28 36  1  0  0  0  0
M  END
> <BCLConfClusterSize>
1

> <ConfClashScore>
0 

> <ConfOneFourInteractionScore>
-0.992613 

> <ConfScore>
-0.117889 

> <ConfScorePBest>
0.00606803 

> <ConfTolerance>
0.460317 

> <RosettaParamsInstructions>
M  ROOT 3
M  POLY_N_BB 3
M  POLY_CA_BB 4
M  POLY_C_BB 2
M  POLY_O_BB 5
M  POLY_IGNORE 9 10 11 12 13 14 15 16 17 18 
M  POLY_UPPER 6
M  POLY_LOWER 8
M  POLY_CHG 0
M  POLY_PROPERTIES ALPHA_AA L_AA PROTEIN AROMATIC POLYMER 
M  END

$$$$



 36 36  0  0  0  0  0  0  0  0999 V2000
   -0.9653    3.2103    3.3529 H   0  0  0  1  0  0  0  0  0  0  0  0
   -0.0482    1.3575    2.9815 C   0  0  0  1  0  0  0  0  0  0  0  0
    0.6990    3.5805    2.2071 N   0  0  0  1  0  0  0  0  0  0  0  0
   -0.4460    2.7517    2.5375 C   0  0  0  1  0  0  0  0  0  0  0  0
   -0.7810    0.6845    3.7052 O   0  0  0  1  0  0  0  0  0  0  0  0
    1.1400    0.9201    2.5353 N   0  0  0  1  0  0  0  0  0  0  0  0
    0.8542    3.8208    1.2698 H   0  0  0  1  0  0  0  0  0  0  0  0
    1.5486    4.0271    3.1364 C   0  0  0  1  0  0  0  0  0  0  0  0
    1.6643   -0.3930    2.8798 C   0  0  0  1  0  0  0  0  0  0  0  0
    2.7106    4.8551    2.6232 C   0  0  0  1  0  0  0  0  0  0  0  0
    1.4142    3.7937    4.3269 O   0  0  0  1  0  0  0  0  0  0  0  0
    1.6728    1.5054    1.9575 H   0  0  0  1  0  0  0  0  0  0  0  0
    2.7304   -0.3433    2.9556 H   0  0  0  1  0  0  0  0  0  0  0  0
    1.3934   -1.0956    2.1196 H   0  0  0  1  0  0  0  0  0  0  0  0
    1.2545   -0.7056    3.8174 H   0  0  0  1  0  0  0  0  0  0  0  0
    3.1532    4.3658    1.7808 H   0  0  0  1  0  0  0  0  0  0  0  0
    3.4413    4.9623    3.3974 H   0  0  0  1  0  0  0  0  0  0  0  0
    2.3573    5.8213    2.3291 H   0  0  0  1  0  0  0  0  0  0  0  0
   -4.1025    7.8397    0.4657 B   0  0  0  1  0  0  0  0  0  0  0  0
   -4.1849    8.7582    1.4628 O   0  0  0  1  0  0  0  0  0  0  0  0
   -4.7881    8.1235   -0.6740 O   0  0  0  1  0  0  0  0  0  0  0  0
   -3.4324    6.4153    0.7003 C   0  0  0  1  0  0  0  0  0  0  0  0
   -2.5375    6.2883    1.7460 C   0  0  0  1  0  0  0  0  0  0  0  0
   -1.8633    5.0927    1.9401 C   0  0  0  1  0  0  0  0  0  0  0  0
   -2.0820    4.0294    1.0846 C   0  0  0  1  0  0  0  0  0  0  0  0
   -2.9794    4.1567    0.0358 C   0  0  0  1  0  0  0  0  0  0  0  0
   -3.6516    5.3487   -0.1575 C   0  0  0  1  0  0  0  0  0  0  0  0
   -1.4097    2.7006    1.3591 C   0  0  0  1  0  0  0  0  0  0  0  0
   -4.4630    8.3265    2.2739 H   0  0  0  1  0  0  0  0  0  0  0  0
   -5.5494    7.5427   -0.7430 H   0  0  0  1  0  0  0  0  0  0  0  0
   -2.3700    7.0897    2.3872 H   0  0  0  1  0  0  0  0  0  0  0  0
   -1.1929    4.9959    2.7293 H   0  0  0  1  0  0  0  0  0  0  0  0
   -3.1470    3.3552   -0.6054 H   0  0  0  1  0  0  0  0  0  0  0  0
   -4.3219    5.4455   -0.9468 H   0  0  0  1  0  0  0  0  0  0  0  0
   -2.1659    1.9732    1.5689 H   0  0  0  1  0  0  0  0  0  0  0  0
   -0.8649    2.4077    0.4860 H   0  0  0  1  0  0  0  0  0  0  0  0
  1  4  1  0  0  0  0
  2  4  1  0  0  0  0
  2  5  2  0  0  0  0
  2  6  1  0  0  0  0
  3  4  1  0  0  0  0
  3  7  1  0  0  0  0
  3  8  1  0  0  0  0
  4 28  1  0  0  0  0
  6  9  1  0  0  0  0
  6 12  1  0  0  0  0
  8 10  1  0  0  0  0
  8 11  2  0  0  0  0
  9 13  1  0  0  0  0
  9 14  1  0  0  0  0
  9 15  1  0  0  0  0
 10 16  1  0  0  0  0
 10 17  1  0  0  0  0
 10 18  1  0  0  0  0
 19 20  1  0  0  0  0
 19 21  1  0  0  0  0
 19 22  1  0  0  0  0
 20 29  1  0  0  0  0
 21 30  1  0  0  0  0
 22 23  4  0  0  0  0
 22 27  4  0  0  0  0
 23 24  4  0  0  0  0
 23 31  1  0  0  0  0
 24 25  4  0  0  0  0
 24 32  1  0  0  0  0
 25 26  4  0  0  0  0
 25 28  1  0  0  0  0
 26 27  4  0  0  0  0
 26 33  1  0  0  0  0
 27 34  1  0  0  0  0
 28 35  1  0  0  0  0
 28 36  1  0  0  0  0
M  END
> <BCLConfClusterSize>
1

> <ConfClashScore>
0 

> <ConfOneFourInteractionScore>
-0.960334 

> <ConfScore>
-0.117353 

> <ConfScorePBest>
0.00603955 

> <ConfTolerance>
0.286599 

> <RosettaParamsInstructions>
M  ROOT 3
M  POLY_N_BB 3
M  POLY_CA_BB 4
M  POLY_C_BB 2
M  POLY_O_BB 5
M  POLY_IGNORE 9 10 11 12 13 14 15 16 17 18 
M  POLY_UPPER 6
M  POLY_LOWER 8
M  POLY_CHG 0
M  POLY_PROPERTIES ALPHA_AA L_AA PROTEIN AROMATIC POLYMER 
M  END

$$$$



 36 36  0  0  0  0  0  0  0  0999 V2000
    0.4194    3.2326    0.4654 H   0  0  0  1  0  0  0  0  0  0  0  0
    0.5812    3.5980    2.5286 C   0  0  0  1  0  0  0  0  0  0  0  0
    0.6613    1.3985    1.3832 N   0  0  0  1  0  0  0  0  0  0  0  0
    0.0995    2.7519    1.3662 C   0  0  0  1  0  0  0  0  0  0  0  0
    0.8969    4.7768    2.3725 O   0  0  0  1  0  0  0  0  0  0  0  0
    0.6367    2.9778    3.7179 N   0  0  0  1  0  0  0  0  0  0  0  0
    0.0325    0.6471    1.4028 H   0  0  0  1  0  0  0  0  0  0  0  0
    1.9641    1.1123    1.3741 C   0  0  0  1  0  0  0  0  0  0  0  0
    1.1418    3.6825    4.8867 C   0  0  0  1  0  0  0  0  0  0  0  0
    2.3185   -0.3632    1.5074 C   0  0  0  1  0  0  0  0  0  0  0  0
    2.8307    1.9643    1.2667 O   0  0  0  1  0  0  0  0  0  0  0  0
    0.3365    2.0485    3.7991 H   0  0  0  1  0  0  0  0  0  0  0  0
    0.6158    4.6073    5.0011 H   0  0  0  1  0  0  0  0  0  0  0  0
    2.1859    3.8796    4.7605 H   0  0  0  1  0  0  0  0  0  0  0  0
    0.9949    3.0789    5.7579 H   0  0  0  1  0  0  0  0  0  0  0  0
    1.8721   -0.9117    0.7045 H   0  0  0  1  0  0  0  0  0  0  0  0
    1.9507   -0.7351    2.4409 H   0  0  0  1  0  0  0  0  0  0  0  0
    3.3815   -0.4792    1.4706 H   0  0  0  1  0  0  0  0  0  0  0  0
   -4.1081    7.8446    0.4612 B   0  0  0  1  0  0  0  0  0  0  0  0
   -5.1320    7.9514   -0.4384 O   0  0  0  1  0  0  0  0  0  0  0  0
   -3.6698    8.9685    1.0385 O   0  0  0  1  0  0  0  0  0  0  0  0
   -3.4320    6.4147    0.7008 C   0  0  0  1  0  0  0  0  0  0  0  0
   -2.5377    6.2918    1.7474 C   0  0  0  1  0  0  0  0  0  0  0  0
   -1.8613    5.0980    1.9447 C   0  0  0  1  0  0  0  0  0  0  0  0
   -2.0773    4.0323    1.0915 C   0  0  0  1  0  0  0  0  0  0  0  0
   -2.9742    4.1555    0.0417 C   0  0  0  1  0  0  0  0  0  0  0  0
   -3.6485    5.3458   -0.1548 C   0  0  0  1  0  0  0  0  0  0  0  0
   -1.4295    2.6839    1.3268 C   0  0  0  1  0  0  0  0  0  0  0  0
   -5.9691    7.9800    0.0306 H   0  0  0  1  0  0  0  0  0  0  0  0
   -4.1933    9.1514    1.8221 H   0  0  0  1  0  0  0  0  0  0  0  0
   -2.3722    7.0950    2.3870 H   0  0  0  1  0  0  0  0  0  0  0  0
   -1.1914    5.0042    2.7347 H   0  0  0  1  0  0  0  0  0  0  0  0
   -3.1397    3.3523   -0.5979 H   0  0  0  1  0  0  0  0  0  0  0  0
   -4.3184    5.4395   -0.9448 H   0  0  0  1  0  0  0  0  0  0  0  0
   -1.7774    2.2976    2.2620 H   0  0  0  1  0  0  0  0  0  0  0  0
   -1.7208    2.0236    0.5370 H   0  0  0  1  0  0  0  0  0  0  0  0
  1  4  1  0  0  0  0
  2  4  1  0  0  0  0
  2  5  2  0  0  0  0
  2  6  1  0  0  0  0
  3  4  1  0  0  0  0
  3  7  1  0  0  0  0
  3  8  1  0  0  0  0
  4 28  1  0  0  0  0
  6  9  1  0  0  0  0
  6 12  1  0  0  0  0
  8 10  1  0  0  0  0
  8 11  2  0  0  0  0
  9 13  1  0  0  0  0
  9 14  1  0  0  0  0
  9 15  1  0  0  0  0
 10 16  1  0  0  0  0
 10 17  1  0  0  0  0
 10 18  1  0  0  0  0
 19 20  1  0  0  0  0
 19 21  1  0  0  0  0
 19 22  1  0  0  0  0
 20 29  1  0  0  0  0
 21 30  1  0  0  0  0
 22 23  4  0  0  0  0
 22 27  4  0  0  0  0
 23 24  4  0  0  0  0
 23 31  1  0  0  0  0
 24 25  4  0  0  0  0
 24 32  1  0  0  0  0
 25 26  4  0  0  0  0
 25 28  1  0  0  0  0
 26 27  4  0  0  0  0
 26 33  1  0  0  0  0
 27 34  1  0  0  0  0
 28 35  1  0  0  0  0
 28 36  1  0  0  0  0
M  END
> <BCLConfClusterSize>
1

> <ConfClashScore>
0 

> <ConfOneFourInteractionScore>
-0.969136 

> <ConfScore>
-0.116396 

> <ConfScorePBest>
0.00601107 

> <ConfTolerance>
0.490362 

> <RosettaParamsInstructions>
M  ROOT 3
M  POLY_N_BB 3
M  POLY_CA_BB 4
M  POLY_C_BB 2
M  POLY_O_BB 5
M  POLY_IGNORE 9 10 11 12 13 14 15 16 17 18 
M  POLY_UPPER 6
M  POLY_LOWER 8
M  POLY_CHG 0
M  POLY_PROPERTIES ALPHA_AA L_AA PROTEIN AROMATIC POLYMER 
M  END

$$$$



 36 36  0  0  0  0  0  0  0  0999 V2000
    0.2876    3.4967    0.4488 H   0  0  0  1  0  0  0  0  0  0  0  0
    0.7848    1.5148    0.8900 C   0  0  0  1  0  0  0  0  0  0  0  0
   -0.5806    2.3522   -0.9976 N   0  0  0  1  0  0  0  0  0  0  0  0
   -0.2183    2.5552    0.3972 C   0  0  0  1  0  0  0  0  0  0  0  0
    0.8880    0.4180    0.3424 O   0  0  0  1  0  0  0  0  0  0  0  0
    1.5314    1.8784    1.9447 N   0  0  0  1  0  0  0  0  0  0  0  0
   -1.3511    1.7844   -1.2083 H   0  0  0  1  0  0  0  0  0  0  0  0
    0.1035    2.9153   -2.0051 C   0  0  0  1  0  0  0  0  0  0  0  0
    2.4251    0.9939    2.6774 C   0  0  0  1  0  0  0  0  0  0  0  0
   -0.3821    2.6711   -3.4207 C   0  0  0  1  0  0  0  0  0  0  0  0
    1.0881    3.6042   -1.7912 O   0  0  0  1  0  0  0  0  0  0  0  0
    1.4701    2.8097    2.2438 H   0  0  0  1  0  0  0  0  0  0  0  0
    2.3684    0.0079    2.2657 H   0  0  0  1  0  0  0  0  0  0  0  0
    2.1352    0.9675    3.7071 H   0  0  0  1  0  0  0  0  0  0  0  0
    3.4288    1.3560    2.5982 H   0  0  0  1  0  0  0  0  0  0  0  0
   -0.5897    3.6082   -3.8937 H   0  0  0  1  0  0  0  0  0  0  0  0
   -1.2736    2.0799   -3.3946 H   0  0  0  1  0  0  0  0  0  0  0  0
    0.3741    2.1530   -3.9725 H   0  0  0  1  0  0  0  0  0  0  0  0
   -4.1206    7.8154    0.4298 B   0  0  0  1  0  0  0  0  0  0  0  0
   -5.3029    7.9271   -0.1734 O   0  0  0  1  0  0  0  0  0  0  0  0
   -3.5381    8.9526    0.8954 O   0  0  0  1  0  0  0  0  0  0  0  0
   -3.4286    6.4195    0.7078 C   0  0  0  1  0  0  0  0  0  0  0  0
   -2.5336    6.2924    1.7534 C   0  0  0  1  0  0  0  0  0  0  0  0
   -1.8591    5.0969    1.9471 C   0  0  0  1  0  0  0  0  0  0  0  0
   -2.0778    4.0337    1.0914 C   0  0  0  1  0  0  0  0  0  0  0  0
   -2.9754    4.1611    0.0428 C   0  0  0  1  0  0  0  0  0  0  0  0
   -3.6477    5.3531   -0.1502 C   0  0  0  1  0  0  0  0  0  0  0  0
   -1.4314    2.6820    1.3232 C   0  0  0  1  0  0  0  0  0  0  0  0
   -5.1745    7.9757   -1.1235 H   0  0  0  1  0  0  0  0  0  0  0  0
   -3.9069    9.1733    1.7539 H   0  0  0  1  0  0  0  0  0  0  0  0
   -2.3661    7.0937    2.3948 H   0  0  0  1  0  0  0  0  0  0  0  0
   -1.1887    5.0000    2.7362 H   0  0  0  1  0  0  0  0  0  0  0  0
   -3.1429    3.3598   -0.5986 H   0  0  0  1  0  0  0  0  0  0  0  0
   -4.3182    5.4500   -0.9393 H   0  0  0  1  0  0  0  0  0  0  0  0
   -1.1163    2.6033    2.3427 H   0  0  0  1  0  0  0  0  0  0  0  0
   -2.1337    1.9047    1.1054 H   0  0  0  1  0  0  0  0  0  0  0  0
  1  4  1  0  0  0  0
  2  4  1  0  0  0  0
  2  5  2  0  0  0  0
  2  6  1  0  0  0  0
  3  4  1  0  0  0  0
  3  7  1  0  0  0  0
  3  8  1  0  0  0  0
  4 28  1  0  0  0  0
  6  9  1  0  0  0  0
  6 12  1  0  0  0  0
  8 10  1  0  0  0  0
  8 11  2  0  0  0  0
  9 13  1  0  0  0  0
  9 14  1  0  0  0  0
  9 15  1  0  0  0  0
 10 16  1  0  0  0  0
 10 17  1  0  0  0  0
 10 18  1  0  0  0  0
 19 20  1  0  0  0  0
 19 21  1  0  0  0  0
 19 22  1  0  0  0  0
 20 29  1  0  0  0  0
 21 30  1  0  0  0  0
 22 23  4  0  0  0  0
 22 27  4  0  0  0  0
 23 24  4  0  0  0  0
 23 31  1  0  0  0  0
 24 25  4  0  0  0  0
 24 32  1  0  0  0  0
 25 26  4  0  0  0  0
 25 28  1  0  0  0  0
 26 27  4  0  0  0  0
 26 33  1  0  0  0  0
 27 34  1  0  0  0  0
 28 35  1  0  0  0  0
 28 36  1  0  0  0  0
M  END
> <BCLConfClusterSize>
1

> <ConfClashScore>
0 

> <ConfOneFourInteractionScore>
-0.986002 

> <ConfScore>
-0.115042 

> <ConfScorePBest>
0.00598259 

> <ConfTolerance>
0.364756 

> <RosettaParamsInstructions>
M  ROOT 3
M  POLY_N_BB 3
M  POLY_CA_BB 4
M  POLY_C_BB 2
M  POLY_O_BB 5
M  POLY_IGNORE 9 10 11 12 13 14 15 16 17 18 
M  POLY_UPPER 6
M  POLY_LOWER 8
M  POLY_CHG 0
M  POLY_PROPERTIES ALPHA_AA L_AA PROTEIN AROMATIC POLYMER 
M  END

$$$$



 36 36  0  0  0  0  0  0  0  0999 V2000
    0.5529    3.4070    1.1178 H   0  0  0  1  0  0  0  0  0  0  0  0
    0.6697    1.3024    1.1619 C   0  0  0  1  0  0  0  0  0  0  0  0
   -0.1112    2.7328   -0.7080 N   0  0  0  1  0  0  0  0  0  0  0  0
   -0.0270    2.5924    0.7369 C   0  0  0  1  0  0  0  0  0  0  0  0
    0.7561    0.3521    0.3853 O   0  0  0  1  0  0  0  0  0  0  0  0
    1.2319    1.3431    2.3803 N   0  0  0  1  0  0  0  0  0  0  0  0
   -0.9427    2.5046   -1.1738 H   0  0  0  1  0  0  0  0  0  0  0  0
    0.9388    3.1706   -1.3994 C   0  0  0  1  0  0  0  0  0  0  0  0
    2.0421    0.2821    2.9598 C   0  0  0  1  0  0  0  0  0  0  0  0
    0.7923    3.3274   -2.9088 C   0  0  0  1  0  0  0  0  0  0  0  0
    2.0210    3.4566   -0.8939 O   0  0  0  1  0  0  0  0  0  0  0  0
    1.0857    2.1479    2.9201 H   0  0  0  1  0  0  0  0  0  0  0  0
    2.2599    0.5163    3.9809 H   0  0  0  1  0  0  0  0  0  0  0  0
    2.9567    0.1923    2.4118 H   0  0  0  1  0  0  0  0  0  0  0  0
    1.5053   -0.6423    2.9129 H   0  0  0  1  0  0  0  0  0  0  0  0
   -0.2384    3.2305   -3.1796 H   0  0  0  1  0  0  0  0  0  0  0  0
    1.3633    2.5694   -3.4030 H   0  0  0  1  0  0  0  0  0  0  0  0
    1.1490    4.2922   -3.2033 H   0  0  0  1  0  0  0  0  0  0  0  0
   -4.1435    7.8100    0.3943 B   0  0  0  1  0  0  0  0  0  0  0  0
   -3.7533    8.6976   -0.5513 O   0  0  0  1  0  0  0  0  0  0  0  0
   -5.2331    8.0955    1.1476 O   0  0  0  1  0  0  0  0  0  0  0  0
   -3.4240    6.4220    0.7158 C   0  0  0  1  0  0  0  0  0  0  0  0
   -2.5276    6.2863    1.7590 C   0  0  0  1  0  0  0  0  0  0  0  0
   -1.8572    5.0874    1.9455 C   0  0  0  1  0  0  0  0  0  0  0  0
   -2.0814    4.0294    1.0849 C   0  0  0  1  0  0  0  0  0  0  0  0
   -2.9804    4.1653    0.0386 C   0  0  0  1  0  0  0  0  0  0  0  0
   -3.6487    5.3607   -0.1472 C   0  0  0  1  0  0  0  0  0  0  0  0
   -1.4133    2.6967    1.3512 C   0  0  0  1  0  0  0  0  0  0  0  0
   -4.4601    8.8170   -1.1899 H   0  0  0  1  0  0  0  0  0  0  0  0
   -6.0066    7.6757    0.7642 H   0  0  0  1  0  0  0  0  0  0  0  0
   -2.3560    7.0838    2.4041 H   0  0  0  1  0  0  0  0  0  0  0  0
   -1.1857    4.9841    2.7329 H   0  0  0  1  0  0  0  0  0  0  0  0
   -3.1520    3.3678   -0.6065 H   0  0  0  1  0  0  0  0  0  0  0  0
   -4.3202    5.4640   -0.9346 H   0  0  0  1  0  0  0  0  0  0  0  0
   -1.3277    2.5641    2.4095 H   0  0  0  1  0  0  0  0  0  0  0  0
   -2.0263    1.9208    0.9425 H   0  0  0  1  0  0  0  0  0  0  0  0
  1  4  1  0  0  0  0
  2  4  1  0  0  0  0
  2  5  2  0  0  0  0
  2  6  1  0  0  0  0
  3  4  1  0  0  0  0
  3  7  1  0  0  0  0
  3  8  1  0  0  0  0
  4 28  1  0  0  0  0
  6  9  1  0  0  0  0
  6 12  1  0  0  0  0
  8 10  1  0  0  0  0
  8 11  2  0  0  0  0
  9 13  1  0  0  0  0
  9 14  1  0  0  0  0
  9 15  1  0  0  0  0
 10 16  1  0  0  0  0
 10 17  1  0  0  0  0
 10 18  1  0  0  0  0
 19 20  1  0  0  0  0
 19 21  1  0  0  0  0
 19 22  1  0  0  0  0
 20 29  1  0  0  0  0
 21 30  1  0  0  0  0
 22 23  4  0  0  0  0
 22 27  4  0  0  0  0
 23 24  4  0  0  0  0
 23 31  1  0  0  0  0
 24 25  4  0  0  0  0
 24 32  1  0  0  0  0
 25 26  4  0  0  0  0
 25 28  1  0  0  0  0
 26 27  4  0  0  0  0
 26 33  1  0  0  0  0
 27 34  1  0  0  0  0
 28 35  1  0  0  0  0
 28 36  1  0  0  0  0
M  END
> <BCLConfClusterSize>
1

> <ConfClashScore>
0 

> <ConfOneFourInteractionScore>
-0.988961 

> <ConfScore>
-0.114724 

> <ConfScorePBest>
0.00595411 

> <ConfTolerance>
0.279126 

> <RosettaParamsInstructions>
M  ROOT 3
M  POLY_N_BB 3
M  POLY_CA_BB 4
M  POLY_C_BB 2
M  POLY_O_BB 5
M  POLY_IGNORE 9 10 11 12 13 14 15 16 17 18 
M  POLY_UPPER 6
M  POLY_LOWER 8
M  POLY_CHG 0
M  POLY_PROPERTIES ALPHA_AA L_AA PROTEIN AROMATIC POLYMER 
M  END

$$$$



 36 36  0  0  0  0  0  0  0  0999 V2000
    0.3957    3.2533    0.4248 H   0  0  0  1  0  0  0  0  0  0  0  0
    0.5238    1.2069    0.9365 C   0  0  0  1  0  0  0  0  0  0  0  0
   -0.7100    2.2101   -0.9660 N   0  0  0  1  0  0  0  0  0  0  0  0
   -0.2592    2.4074    0.4036 C   0  0  0  1  0  0  0  0  0  0  0  0
    0.2755    0.0761    0.5501 O   0  0  0  1  0  0  0  0  0  0  0  0
    1.4855    1.4333    1.8358 N   0  0  0  1  0  0  0  0  0  0  0  0
   -1.6648    2.3006   -1.1673 H   0  0  0  1  0  0  0  0  0  0  0  0
    0.1388    1.9075   -1.9658 C   0  0  0  1  0  0  0  0  0  0  0  0
    2.3411    0.3681    2.3466 C   0  0  0  1  0  0  0  0  0  0  0  0
   -0.4449    1.9170   -3.3751 C   0  0  0  1  0  0  0  0  0  0  0  0
    1.3385    1.7129   -1.7767 O   0  0  0  1  0  0  0  0  0  0  0  0
    1.6209    2.3469    2.1637 H   0  0  0  1  0  0  0  0  0  0  0  0
    1.8327   -0.5696    2.2625 H   0  0  0  1  0  0  0  0  0  0  0  0
    2.5714    0.5578    3.3742 H   0  0  0  1  0  0  0  0  0  0  0  0
    3.2468    0.3348    1.7779 H   0  0  0  1  0  0  0  0  0  0  0  0
   -1.2671    2.6004   -3.4166 H   0  0  0  1  0  0  0  0  0  0  0  0
   -0.7853    0.9342   -3.6265 H   0  0  0  1  0  0  0  0  0  0  0  0
    0.3084    2.2229   -4.0708 H   0  0  0  1  0  0  0  0  0  0  0  0
   -4.1182    7.8171    0.4332 B   0  0  0  1  0  0  0  0  0  0  0  0
   -3.4408    8.8109   -0.2113 O   0  0  0  1  0  0  0  0  0  0  0  0
   -5.3991    8.0605    0.8323 O   0  0  0  1  0  0  0  0  0  0  0  0
   -3.4287    6.4193    0.7075 C   0  0  0  1  0  0  0  0  0  0  0  0
   -2.5331    6.2881    1.7520 C   0  0  0  1  0  0  0  0  0  0  0  0
   -1.8608    5.0909    1.9426 C   0  0  0  1  0  0  0  0  0  0  0  0
   -2.0821    4.0301    1.0846 C   0  0  0  1  0  0  0  0  0  0  0  0
   -2.9803    4.1615    0.0370 C   0  0  0  1  0  0  0  0  0  0  0  0
   -3.6505    5.3552   -0.1528 C   0  0  0  1  0  0  0  0  0  0  0  0
   -1.4119    2.6994    1.3553 C   0  0  0  1  0  0  0  0  0  0  0  0
   -3.3785    9.5793    0.3606 H   0  0  0  1  0  0  0  0  0  0  0  0
   -5.6065    7.5147    1.5943 H   0  0  0  1  0  0  0  0  0  0  0  0
   -2.3636    7.0877    2.3951 H   0  0  0  1  0  0  0  0  0  0  0  0
   -1.1899    4.9909    2.7309 H   0  0  0  1  0  0  0  0  0  0  0  0
   -3.1498    3.3620   -0.6061 H   0  0  0  1  0  0  0  0  0  0  0  0
   -4.3214    5.4552   -0.9411 H   0  0  0  1  0  0  0  0  0  0  0  0
   -1.0338    2.7059    2.3563 H   0  0  0  1  0  0  0  0  0  0  0  0
   -2.1419    1.9236    1.2542 H   0  0  0  1  0  0  0  0  0  0  0  0
  1  4  1  0  0  0  0
  2  4  1  0  0  0  0
  2  5  2  0  0  0  0
  2  6  1  0  0  0  0
  3  4  1  0  0  0  0
  3  7  1  0  0  0  0
  3  8  1  0  0  0  0
  4 28  1  0  0  0  0
  6  9  1  0  0  0  0
  6 12  1  0  0  0  0
  8 10  1  0  0  0  0
  8 11  2  0  0  0  0
  9 13  1  0  0  0  0
  9 14  1  0  0  0  0
  9 15  1  0  0  0  0
 10 16  1  0  0  0  0
 10 17  1  0  0  0  0
 10 18  1  0  0  0  0
 19 20  1  0  0  0  0
 19 21  1  0  0  0  0
 19 22  1  0  0  0  0
 20 29  1  0  0  0  0
 21 30  1  0  0  0  0
 22 23  4  0  0  0  0
 22 27  4  0  0  0  0
 23 24  4  0  0  0  0
 23 31  1  0  0  0  0
 24 25  4  0  0  0  0
 24 32  1  0  0  0  0
 25 26  4  0  0  0  0
 25 28  1  0  0  0  0
 26 27  4  0  0  0  0
 26 33  1  0  0  0  0
 27 34  1  0  0  0  0
 28 35  1  0  0  0  0
 28 36  1  0  0  0  0
M  END
> <BCLConfClusterSize>
1

> <ConfClashScore>
0 

> <ConfOneFourInteractionScore>
-0.985947 

> <ConfScore>
-0.112575 

> <ConfScorePBest>
0.00592562 

> <ConfTolerance>
0.36202 

> <RosettaParamsInstructions>
M  ROOT 3
M  POLY_N_BB 3
M  POLY_CA_BB 4
M  POLY_C_BB 2
M  POLY_O_BB 5
M  POLY_IGNORE 9 10 11 12 13 14 15 16 17 18 
M  POLY_UPPER 6
M  POLY_LOWER 8
M  POLY_CHG 0
M  POLY_PROPERTIES ALPHA_AA L_AA PROTEIN AROMATIC POLYMER 
M  END

$$$$



 36 36  0  0  0  0  0  0  0  0999 V2000
    0.4988    3.1422    0.6261 H   0  0  0  1  0  0  0  0  0  0  0  0
    0.4392    1.0612    1.0125 C   0  0  0  1  0  0  0  0  0  0  0  0
   -0.5371    2.2171   -0.9062 N   0  0  0  1  0  0  0  0  0  0  0  0
   -0.2058    2.3461    0.5050 C   0  0  0  1  0  0  0  0  0  0  0  0
    0.1199    0.0036    0.4710 O   0  0  0  1  0  0  0  0  0  0  0  0
    1.3128    1.1491    2.0131 N   0  0  0  1  0  0  0  0  0  0  0  0
   -1.3592    1.7468   -1.1580 H   0  0  0  1  0  0  0  0  0  0  0  0
    0.2404    2.7177   -1.8705 C   0  0  0  1  0  0  0  0  0  0  0  0
    1.8694   -0.0272    2.6647 C   0  0  0  1  0  0  0  0  0  0  0  0
   -0.1640    2.3698   -3.2899 C   0  0  0  1  0  0  0  0  0  0  0  0
    1.2177    3.4125   -1.6426 O   0  0  0  1  0  0  0  0  0  0  0  0
    1.5908    2.0367    2.3217 H   0  0  0  1  0  0  0  0  0  0  0  0
    2.7985   -0.2860    2.2014 H   0  0  0  1  0  0  0  0  0  0  0  0
    1.1847   -0.8440    2.5711 H   0  0  0  1  0  0  0  0  0  0  0  0
    2.0343    0.1838    3.7007 H   0  0  0  1  0  0  0  0  0  0  0  0
   -0.1540    1.3070   -3.4138 H   0  0  0  1  0  0  0  0  0  0  0  0
    0.5256    2.8151   -3.9762 H   0  0  0  1  0  0  0  0  0  0  0  0
   -1.1488    2.7417   -3.4812 H   0  0  0  1  0  0  0  0  0  0  0  0
   -4.1458    7.8080    0.3910 B   0  0  0  1  0  0  0  0  0  0  0  0
   -5.4137    7.9773    0.8473 O   0  0  0  1  0  0  0  0  0  0  0  0
   -3.4490    8.7332   -0.3217 O   0  0  0  1  0  0  0  0  0  0  0  0
   -3.4239    6.4221    0.7162 C   0  0  0  1  0  0  0  0  0  0  0  0
   -2.5280    6.2905    1.7604 C   0  0  0  1  0  0  0  0  0  0  0  0
   -1.8555    5.0932    1.9501 C   0  0  0  1  0  0  0  0  0  0  0  0
   -2.0770    4.0329    1.0917 C   0  0  0  1  0  0  0  0  0  0  0  0
   -2.9755    4.1647    0.0444 C   0  0  0  1  0  0  0  0  0  0  0  0
   -3.6459    5.3584   -0.1446 C   0  0  0  1  0  0  0  0  0  0  0  0
   -1.4336    2.6809    1.3188 C   0  0  0  1  0  0  0  0  0  0  0  0
   -5.9962    7.3479    0.4159 H   0  0  0  1  0  0  0  0  0  0  0  0
   -2.7791    8.2929   -0.8499 H   0  0  0  1  0  0  0  0  0  0  0  0
   -2.3584    7.0897    2.4038 H   0  0  0  1  0  0  0  0  0  0  0  0
   -1.1845    4.9929    2.7383 H   0  0  0  1  0  0  0  0  0  0  0  0
   -3.1451    3.3655   -0.5990 H   0  0  0  1  0  0  0  0  0  0  0  0
   -4.3170    5.4587   -0.9328 H   0  0  0  1  0  0  0  0  0  0  0  0
   -1.1579    2.6270    2.3513 H   0  0  0  1  0  0  0  0  0  0  0  0
   -2.1714    1.9356    1.1067 H   0  0  0  1  0  0  0  0  0  0  0  0
  1  4  1  0  0  0  0
  2  4  1  0  0  0  0
  2  5  2  0  0  0  0
  2  6  1  0  0  0  0
  3  4  1  0  0  0  0
  3  7  1  0  0  0  0
  3  8  1  0  0  0  0
  4 28  1  0  0  0  0
  6  9  1  0  0  0  0
  6 12  1  0  0  0  0
  8 10  1  0  0  0  0
  8 11  2  0  0  0  0
  9 13  1  0  0  0  0
  9 14  1  0  0  0  0
  9 15  1  0  0  0  0
 10 16  1  0  0  0  0
 10 17  1  0  0  0  0
 10 18  1  0  0  0  0
 19 20  1  0  0  0  0
 19 21  1  0  0  0  0
 19 22  1  0  0  0  0
 20 29  1  0  0  0  0
 21 30  1  0  0  0  0
 22 23  4  0  0  0  0
 22 27  4  0  0  0  0
 23 24  4  0  0  0  0
 23 31  1  0  0  0  0
 24 25  4  0  0  0  0
 24 32  1  0  0  0  0
 25 26  4  0  0  0  0
 25 28  1  0  0  0  0
 26 27  4  0  0  0  0
 26 33  1  0  0  0  0
 27 34  1  0  0  0  0
 28 35  1  0  0  0  0
 28 36  1  0  0  0  0
M  END
> <BCLConfClusterSize>
1

> <ConfClashScore>
0 

> <ConfOneFourInteractionScore>
-0.988961 

> <ConfScore>
-0.112039 

> <ConfScorePBest>
0.00589714 

> <ConfTolerance>
0.409071 

> <RosettaParamsInstructions>
M  ROOT 3
M  POLY_N_BB 3
M  POLY_CA_BB 4
M  POLY_C_BB 2
M  POLY_O_BB 5
M  POLY_IGNORE 9 10 11 12 13 14 15 16 17 18 
M  POLY_UPPER 6
M  POLY_LOWER 8
M  POLY_CHG 0
M  POLY_PROPERTIES ALPHA_AA L_AA PROTEIN AROMATIC POLYMER 
M  END

$$$$



 36 36  0  0  0  0  0  0  0  0999 V2000
   -2.3799    1.5017   -0.0767 H   0  0  0  1  0  0  0  0  0  0  0  0
   -1.5386    0.1716    1.3225 C   0  0  0  1  0  0  0  0  0  0  0  0
   -3.5360    1.5006    1.6286 N   0  0  0  1  0  0  0  0  0  0  0  0
   -2.2319    1.4801    0.9828 C   0  0  0  1  0  0  0  0  0  0  0  0
   -0.7367   -0.3462    0.5464 O   0  0  0  1  0  0  0  0  0  0  0  0
   -1.8595   -0.3674    2.5093 N   0  0  0  1  0  0  0  0  0  0  0  0
   -3.6941    2.1395    2.3547 H   0  0  0  1  0  0  0  0  0  0  0  0
   -4.5250    0.6788    1.2659 C   0  0  0  1  0  0  0  0  0  0  0  0
   -1.2780   -1.6163    2.9786 C   0  0  0  1  0  0  0  0  0  0  0  0
   -5.8120    0.8076    2.0573 C   0  0  0  1  0  0  0  0  0  0  0  0
   -4.4177   -0.1302    0.3584 O   0  0  0  1  0  0  0  0  0  0  0  0
   -2.5078    0.0961    3.0796 H   0  0  0  1  0  0  0  0  0  0  0  0
   -0.2902   -1.7220    2.5811 H   0  0  0  1  0  0  0  0  0  0  0  0
   -1.8832   -2.4361    2.6522 H   0  0  0  1  0  0  0  0  0  0  0  0
   -1.2331   -1.6090    4.0476 H   0  0  0  1  0  0  0  0  0  0  0  0
   -6.6352    0.9245    1.3838 H   0  0  0  1  0  0  0  0  0  0  0  0
   -5.7521    1.6619    2.6987 H   0  0  0  1  0  0  0  0  0  0  0  0
   -5.9569   -0.0729    2.6478 H   0  0  0  1  0  0  0  0  0  0  0  0
   -4.1178    7.8164    0.4333 B   0  0  0  1  0  0  0  0  0  0  0  0
   -3.7111    8.9296    1.0965 O   0  0  0  1  0  0  0  0  0  0  0  0
   -5.1310    7.9358   -0.4705 O   0  0  0  1  0  0  0  0  0  0  0  0
   -3.4282    6.4185    0.7076 C   0  0  0  1  0  0  0  0  0  0  0  0
   -2.5327    6.2874    1.7522 C   0  0  0  1  0  0  0  0  0  0  0  0
   -1.8604    5.0902    1.9427 C   0  0  0  1  0  0  0  0  0  0  0  0
   -2.0818    4.0294    1.0848 C   0  0  0  1  0  0  0  0  0  0  0  0
   -2.9799    4.1608    0.0372 C   0  0  0  1  0  0  0  0  0  0  0  0
   -3.6501    5.3545   -0.1526 C   0  0  0  1  0  0  0  0  0  0  0  0
   -1.4162    2.7077    1.3537 C   0  0  0  1  0  0  0  0  0  0  0  0
   -2.7750    8.8589    1.2975 H   0  0  0  1  0  0  0  0  0  0  0  0
   -5.8860    8.3558   -0.0519 H   0  0  0  1  0  0  0  0  0  0  0  0
   -2.3632    7.0870    2.3952 H   0  0  0  1  0  0  0  0  0  0  0  0
   -1.1895    4.9902    2.7311 H   0  0  0  1  0  0  0  0  0  0  0  0
   -3.1494    3.3612   -0.6059 H   0  0  0  1  0  0  0  0  0  0  0  0
   -4.3210    5.4544   -0.9410 H   0  0  0  1  0  0  0  0  0  0  0  0
   -0.5035    2.6783    0.7960 H   0  0  0  1  0  0  0  0  0  0  0  0
   -1.1975    2.6551    2.3998 H   0  0  0  1  0  0  0  0  0  0  0  0
  1  4  1  0  0  0  0
  2  4  1  0  0  0  0
  2  5  2  0  0  0  0
  2  6  1  0  0  0  0
  3  4  1  0  0  0  0
  3  7  1  0  0  0  0
  3  8  1  0  0  0  0
  4 28  1  0  0  0  0
  6  9  1  0  0  0  0
  6 12  1  0  0  0  0
  8 10  1  0  0  0  0
  8 11  2  0  0  0  0
  9 13  1  0  0  0  0
  9 14  1  0  0  0  0
  9 15  1  0  0  0  0
 10 16  1  0  0  0  0
 10 17  1  0  0  0  0
 10 18  1  0  0  0  0
 19 20  1  0  0  0  0
 19 21  1  0  0  0  0
 19 22  1  0  0  0  0
 20 29  1  0  0  0  0
 21 30  1  0  0  0  0
 22 23  4  0  0  0  0
 22 27  4  0  0  0  0
 23 24  4  0  0  0  0
 23 31  1  0  0  0  0
 24 25  4  0  0  0  0
 24 32  1  0  0  0  0
 25 26  4  0  0  0  0
 25 28  1  0  0  0  0
 26 27  4  0  0  0  0
 26 33  1  0  0  0  0
 27 34  1  0  0  0  0
 28 35  1  0  0  0  0
 28 36  1  0  0  0  0
M  END
> <BCLConfClusterSize>
1

> <ConfClashScore>
0 

> <ConfOneFourInteractionScore>
-0.948829 

> <ConfScore>
-0.111444 

> <ConfScorePBest>
0.00586866 

> <ConfTolerance>
0.384282 

> <RosettaParamsInstructions>
M  ROOT 3
M  POLY_N_BB 3
M  POLY_CA_BB 4
M  POLY_C_BB 2
M  POLY_O_BB 5
M  POLY_IGNORE 9 10 11 12 13 14 15 16 17 18 
M  POLY_UPPER 6
M  POLY_LOWER 8
M  POLY_CHG 0
M  POLY_PROPERTIES ALPHA_AA L_AA PROTEIN AROMATIC POLYMER 
M  END

$$$$



 36 36  0  0  0  0  0  0  0  0999 V2000
   -3.3051    1.7748    1.7061 H   0  0  0  1  0  0  0  0  0  0  0  0
   -1.7960    0.3553    2.1222 C   0  0  0  1  0  0  0  0  0  0  0  0
   -2.4866    2.2768    3.5290 N   0  0  0  1  0  0  0  0  0  0  0  0
   -2.3398    1.7838    2.1677 C   0  0  0  1  0  0  0  0  0  0  0  0
   -1.6477   -0.2296    1.0500 O   0  0  0  1  0  0  0  0  0  0  0  0
   -1.4878   -0.2366    3.2796 N   0  0  0  1  0  0  0  0  0  0  0  0
   -1.7492    2.7611    3.9558 H   0  0  0  1  0  0  0  0  0  0  0  0
   -3.6244    2.0706    4.1982 C   0  0  0  1  0  0  0  0  0  0  0  0
   -1.1006   -1.6373    3.3576 C   0  0  0  1  0  0  0  0  0  0  0  0
   -3.7491    2.7947    5.5246 C   0  0  0  1  0  0  0  0  0  0  0  0
   -4.5171    1.3493    3.7843 O   0  0  0  1  0  0  0  0  0  0  0  0
   -1.5238    0.2908    4.1049 H   0  0  0  1  0  0  0  0  0  0  0  0
   -1.1153   -2.0670    2.3778 H   0  0  0  1  0  0  0  0  0  0  0  0
   -1.7879   -2.1625    3.9875 H   0  0  0  1  0  0  0  0  0  0  0  0
   -0.1140   -1.7122    3.7649 H   0  0  0  1  0  0  0  0  0  0  0  0
   -2.8475    2.6683    6.0866 H   0  0  0  1  0  0  0  0  0  0  0  0
   -4.5723    2.3900    6.0755 H   0  0  0  1  0  0  0  0  0  0  0  0
   -3.9156    3.8367    5.3475 H   0  0  0  1  0  0  0  0  0  0  0  0
   -4.1458    7.8080    0.3910 B   0  0  0  1  0  0  0  0  0  0  0  0
   -3.5477    8.7274   -0.4101 O   0  0  0  1  0  0  0  0  0  0  0  0
   -5.3703    8.0995    0.9056 O   0  0  0  1  0  0  0  0  0  0  0  0
   -3.4239    6.4221    0.7162 C   0  0  0  1  0  0  0  0  0  0  0  0
   -2.5280    6.2905    1.7604 C   0  0  0  1  0  0  0  0  0  0  0  0
   -1.8555    5.0932    1.9501 C   0  0  0  1  0  0  0  0  0  0  0  0
   -2.0770    4.0329    1.0917 C   0  0  0  1  0  0  0  0  0  0  0  0
   -2.9755    4.1647    0.0444 C   0  0  0  1  0  0  0  0  0  0  0  0
   -3.6459    5.3584   -0.1446 C   0  0  0  1  0  0  0  0  0  0  0  0
   -1.4336    2.6810    1.3188 C   0  0  0  1  0  0  0  0  0  0  0  0
   -3.1271    9.3991    0.1316 H   0  0  0  1  0  0  0  0  0  0  0  0
   -5.8310    8.7007    0.3158 H   0  0  0  1  0  0  0  0  0  0  0  0
   -2.3584    7.0897    2.4038 H   0  0  0  1  0  0  0  0  0  0  0  0
   -1.1845    4.9929    2.7383 H   0  0  0  1  0  0  0  0  0  0  0  0
   -3.1451    3.3655   -0.5990 H   0  0  0  1  0  0  0  0  0  0  0  0
   -4.3170    5.4587   -0.9328 H   0  0  0  1  0  0  0  0  0  0  0  0
   -1.2614    2.2111    0.3731 H   0  0  0  1  0  0  0  0  0  0  0  0
   -0.5009    2.8170    1.8252 H   0  0  0  1  0  0  0  0  0  0  0  0
  1  4  1  0  0  0  0
  2  4  1  0  0  0  0
  2  5  2  0  0  0  0
  2  6  1  0  0  0  0
  3  4  1  0  0  0  0
  3  7  1  0  0  0  0
  3  8  1  0  0  0  0
  4 28  1  0  0  0  0
  6  9  1  0  0  0  0
  6 12  1  0  0  0  0
  8 10  1  0  0  0  0
  8 11  2  0  0  0  0
  9 13  1  0  0  0  0
  9 14  1  0  0  0  0
  9 15  1  0  0  0  0
 10 16  1  0  0  0  0
 10 17  1  0  0  0  0
 10 18  1  0  0  0  0
 19 20  1  0  0  0  0
 19 21  1  0  0  0  0
 19 22  1  0  0  0  0
 20 29  1  0  0  0  0
 21 30  1  0  0  0  0
 22 23  4  0  0  0  0
 22 27  4  0  0  0  0
 23 24  4  0  0  0  0
 23 31  1  0  0  0  0
 24 25  4  0  0  0  0
 24 32  1  0  0  0  0
 25 26  4  0  0  0  0
 25 28  1  0  0  0  0
 26 27  4  0  0  0  0
 26 33  1  0  0  0  0
 27 34  1  0  0  0  0
 28 35  1  0  0  0  0
 28 36  1  0  0  0  0
M  END
> <BCLConfClusterSize>
1

> <ConfClashScore>
0 

> <ConfOneFourInteractionScore>
-0.969136 

> <ConfScore>
-0.106833 

> <ConfScorePBest>
0.00584018 

> <ConfTolerance>
0.343208 

> <RosettaParamsInstructions>
M  ROOT 3
M  POLY_N_BB 3
M  POLY_CA_BB 4
M  POLY_C_BB 2
M  POLY_O_BB 5
M  POLY_IGNORE 9 10 11 12 13 14 15 16 17 18 
M  POLY_UPPER 6
M  POLY_LOWER 8
M  POLY_CHG 0
M  POLY_PROPERTIES ALPHA_AA L_AA PROTEIN AROMATIC POLYMER 
M  END

$$$$



 36 36  0  0  0  0  0  0  0  0999 V2000
    0.5586    3.0741    0.6393 H   0  0  0  1  0  0  0  0  0  0  0  0
    0.3142    0.9722    0.9211 C   0  0  0  1  0  0  0  0  0  0  0  0
   -0.6348    2.3257   -0.8954 N   0  0  0  1  0  0  0  0  0  0  0  0
   -0.2099    2.3434    0.4963 C   0  0  0  1  0  0  0  0  0  0  0  0
    1.2782    0.8070    1.6446 O   0  0  0  1  0  0  0  0  0  0  0  0
   -0.3545   -0.0797    0.4478 N   0  0  0  1  0  0  0  0  0  0  0  0
   -1.5690    2.1138   -1.1020 H   0  0  0  1  0  0  0  0  0  0  0  0
    0.2045    2.5882   -1.9013 C   0  0  0  1  0  0  0  0  0  0  0  0
   -0.0834   -1.4585    0.8262 C   0  0  0  1  0  0  0  0  0  0  0  0
   -0.4005    2.4297   -3.2973 C   0  0  0  1  0  0  0  0  0  0  0  0
    1.3440    3.0025   -1.7614 O   0  0  0  1  0  0  0  0  0  0  0  0
   -1.0746    0.0863   -0.1960 H   0  0  0  1  0  0  0  0  0  0  0  0
    0.9489   -1.6801    0.6526 H   0  0  0  1  0  0  0  0  0  0  0  0
   -0.6923   -2.1151    0.2406 H   0  0  0  1  0  0  0  0  0  0  0  0
   -0.3074   -1.5939    1.8637 H   0  0  0  1  0  0  0  0  0  0  0  0
   -0.8242    1.4519   -3.3940 H   0  0  0  1  0  0  0  0  0  0  0  0
    0.3641    2.5612   -4.0342 H   0  0  0  1  0  0  0  0  0  0  0  0
   -1.1646    3.1649   -3.4403 H   0  0  0  1  0  0  0  0  0  0  0  0
   -4.0990    7.8208    0.4085 B   0  0  0  1  0  0  0  0  0  0  0  0
   -5.4369    8.0468    0.4676 O   0  0  0  1  0  0  0  0  0  0  0  0
   -3.3095    8.8733    0.0648 O   0  0  0  1  0  0  0  0  0  0  0  0
   -3.4360    6.4168    0.7156 C   0  0  0  1  0  0  0  0  0  0  0  0
   -2.5377    6.2858    1.7578 C   0  0  0  1  0  0  0  0  0  0  0  0
   -1.8607    5.0905    1.9434 C   0  0  0  1  0  0  0  0  0  0  0  0
   -2.0801    4.0314    1.0829 C   0  0  0  1  0  0  0  0  0  0  0  0
   -2.9810    4.1626    0.0376 C   0  0  0  1  0  0  0  0  0  0  0  0
   -3.6559    5.3544   -0.1473 C   0  0  0  1  0  0  0  0  0  0  0  0
   -1.4046    2.7023    1.3483 C   0  0  0  1  0  0  0  0  0  0  0  0
   -5.9075    7.2643    0.1711 H   0  0  0  1  0  0  0  0  0  0  0  0
   -2.4531    8.5504   -0.2250 H   0  0  0  1  0  0  0  0  0  0  0  0
   -2.3696    7.0841    2.4028 H   0  0  0  1  0  0  0  0  0  0  0  0
   -1.1877    4.9906    2.7300 H   0  0  0  1  0  0  0  0  0  0  0  0
   -3.1490    3.3642   -0.6074 H   0  0  0  1  0  0  0  0  0  0  0  0
   -4.3288    5.4542   -0.9339 H   0  0  0  1  0  0  0  0  0  0  0  0
   -1.0810    2.7056    2.3682 H   0  0  0  1  0  0  0  0  0  0  0  0
   -2.1388    1.9365    1.2090 H   0  0  0  1  0  0  0  0  0  0  0  0
  1  4  1  0  0  0  0
  2  4  1  0  0  0  0
  2  5  2  0  0  0  0
  2  6  1  0  0  0  0
  3  4  1  0  0  0  0
  3  7  1  0  0  0  0
  3  8  1  0  0  0  0
  4 28  1  0  0  0  0
  6  9  1  0  0  0  0
  6 12  1  0  0  0  0
  8 10  1  0  0  0  0
  8 11  2  0  0  0  0
  9 13  1  0  0  0  0
  9 14  1  0  0  0  0
  9 15  1  0  0  0  0
 10 16  1  0  0  0  0
 10 17  1  0  0  0  0
 10 18  1  0  0  0  0
 19 20  1  0  0  0  0
 19 21  1  0  0  0  0
 19 22  1  0  0  0  0
 20 29  1  0  0  0  0
 21 30  1  0  0  0  0
 22 23  4  0  0  0  0
 22 27  4  0  0  0  0
 23 24  4  0  0  0  0
 23 31  1  0  0  0  0
 24 25  4  0  0  0  0
 24 32  1  0  0  0  0
 25 26  4  0  0  0  0
 25 28  1  0  0  0  0
 26 27  4  0  0  0  0
 26 33  1  0  0  0  0
 27 34  1  0  0  0  0
 28 35  1  0  0  0  0
 28 36  1  0  0  0  0
M  END
> <BCLConfClusterSize>
1

> <ConfClashScore>
0 

> <ConfOneFourInteractionScore>
-0.966122 

> <ConfScore>
-0.106554 

> <ConfScorePBest>
0.0058117 

> <ConfTolerance>
0.41945 

> <RosettaParamsInstructions>
M  ROOT 3
M  POLY_N_BB 3
M  POLY_CA_BB 4
M  POLY_C_BB 2
M  POLY_O_BB 5
M  POLY_IGNORE 9 10 11 12 13 14 15 16 17 18 
M  POLY_UPPER 6
M  POLY_LOWER 8
M  POLY_CHG 0
M  POLY_PROPERTIES ALPHA_AA L_AA PROTEIN AROMATIC POLYMER 
M  END

$$$$



 36 36  0  0  0  0  0  0  0  0999 V2000
   -2.7264    1.4027    0.3016 H   0  0  0  1  0  0  0  0  0  0  0  0
   -1.6911    0.2320    1.7263 C   0  0  0  1  0  0  0  0  0  0  0  0
   -3.5381    1.7650    2.1686 N   0  0  0  1  0  0  0  0  0  0  0  0
   -2.3890    1.5182    1.3104 C   0  0  0  1  0  0  0  0  0  0  0  0
   -1.8247   -0.2263    2.8490 O   0  0  0  1  0  0  0  0  0  0  0  0
   -0.9367   -0.3467    0.7907 N   0  0  0  1  0  0  0  0  0  0  0  0
   -3.4512    2.4097    2.9016 H   0  0  0  1  0  0  0  0  0  0  0  0
   -4.7444    1.1236    1.9864 C   0  0  0  1  0  0  0  0  0  0  0  0
   -0.2540   -1.6121    1.0154 C   0  0  0  1  0  0  0  0  0  0  0  0
   -5.7681    1.3326    3.0640 C   0  0  0  1  0  0  0  0  0  0  0  0
   -4.9285    0.4364    0.9946 O   0  0  0  1  0  0  0  0  0  0  0  0
   -0.8389    0.0957   -0.0783 H   0  0  0  1  0  0  0  0  0  0  0  0
    0.1298   -1.9806    0.0871 H   0  0  0  1  0  0  0  0  0  0  0  0
   -0.9435   -2.3216    1.4228 H   0  0  0  1  0  0  0  0  0  0  0  0
    0.5537   -1.4643    1.7015 H   0  0  0  1  0  0  0  0  0  0  0  0
   -5.6334    2.2996    3.5018 H   0  0  0  1  0  0  0  0  0  0  0  0
   -5.6516    0.5812    3.8168 H   0  0  0  1  0  0  0  0  0  0  0  0
   -6.7489    1.2660    2.6416 H   0  0  0  1  0  0  0  0  0  0  0  0
   -4.1435    7.8100    0.3943 B   0  0  0  1  0  0  0  0  0  0  0  0
   -4.9918    7.9005   -0.6625 O   0  0  0  1  0  0  0  0  0  0  0  0
   -3.9710    8.9520    1.1179 O   0  0  0  1  0  0  0  0  0  0  0  0
   -3.4240    6.4220    0.7158 C   0  0  0  1  0  0  0  0  0  0  0  0
   -2.5276    6.2863    1.7590 C   0  0  0  1  0  0  0  0  0  0  0  0
   -1.8572    5.0874    1.9455 C   0  0  0  1  0  0  0  0  0  0  0  0
   -2.0814    4.0294    1.0849 C   0  0  0  1  0  0  0  0  0  0  0  0
   -2.9804    4.1653    0.0386 C   0  0  0  1  0  0  0  0  0  0  0  0
   -3.6487    5.3607   -0.1472 C   0  0  0  1  0  0  0  0  0  0  0  0
   -1.4133    2.6967    1.3512 C   0  0  0  1  0  0  0  0  0  0  0  0
   -5.4569    7.0679   -0.7723 H   0  0  0  1  0  0  0  0  0  0  0  0
   -3.1719    9.3978    0.8275 H   0  0  0  1  0  0  0  0  0  0  0  0
   -2.3560    7.0838    2.4041 H   0  0  0  1  0  0  0  0  0  0  0  0
   -1.1857    4.9841    2.7329 H   0  0  0  1  0  0  0  0  0  0  0  0
   -3.1520    3.3678   -0.6065 H   0  0  0  1  0  0  0  0  0  0  0  0
   -4.3202    5.4640   -0.9346 H   0  0  0  1  0  0  0  0  0  0  0  0
   -0.6585    2.5399    0.6092 H   0  0  0  1  0  0  0  0  0  0  0  0
   -0.9603    2.7304    2.3200 H   0  0  0  1  0  0  0  0  0  0  0  0
  1  4  1  0  0  0  0
  2  4  1  0  0  0  0
  2  5  2  0  0  0  0
  2  6  1  0  0  0  0
  3  4  1  0  0  0  0
  3  7  1  0  0  0  0
  3  8  1  0  0  0  0
  4 28  1  0  0  0  0
  6  9  1  0  0  0  0
  6 12  1  0  0  0  0
  8 10  1  0  0  0  0
  8 11  2  0  0  0  0
  9 13  1  0  0  0  0
  9 14  1  0  0  0  0
  9 15  1  0  0  0  0
 10 16  1  0  0  0  0
 10 17  1  0  0  0  0
 10 18  1  0  0  0  0
 19 20  1  0  0  0  0
 19 21  1  0  0  0  0
 19 22  1  0  0  0  0
 20 29  1  0  0  0  0
 21 30  1  0  0  0  0
 22 23  4  0  0  0  0
 22 27  4  0  0  0  0
 23 24  4  0  0  0  0
 23 31  1  0  0  0  0
 24 25  4  0  0  0  0
 24 32  1  0  0  0  0
 25 26  4  0  0  0  0
 25 28  1  0  0  0  0
 26 27  4  0  0  0  0
 26 33  1  0  0  0  0
 27 34  1  0  0  0  0
 28 35  1  0  0  0  0
 28 36  1  0  0  0  0
M  END
> <BCLConfClusterSize>
1

> <ConfClashScore>
0 

> <ConfOneFourInteractionScore>
-0.99043 

> <ConfScore>
-0.106477 

> <ConfScorePBest>
0.00578322 

> <ConfTolerance>
0.398671 

> <RosettaParamsInstructions>
M  ROOT 3
M  POLY_N_BB 3
M  POLY_CA_BB 4
M  POLY_C_BB 2
M  POLY_O_BB 5
M  POLY_IGNORE 9 10 11 12 13 14 15 16 17 18 
M  POLY_UPPER 6
M  POLY_LOWER 8
M  POLY_CHG 0
M  POLY_PROPERTIES ALPHA_AA L_AA PROTEIN AROMATIC POLYMER 
M  END

$$$$



 36 36  0  0  0  0  0  0  0  0999 V2000
   -3.2012    1.8186    2.0215 H   0  0  0  1  0  0  0  0  0  0  0  0
   -1.6860    0.3888    2.2941 C   0  0  0  1  0  0  0  0  0  0  0  0
   -2.1154    2.3979    3.6704 N   0  0  0  1  0  0  0  0  0  0  0  0
   -2.1782    1.8224    2.3352 C   0  0  0  1  0  0  0  0  0  0  0  0
   -2.0781   -0.3883    1.4246 O   0  0  0  1  0  0  0  0  0  0  0  0
   -0.8117   -0.0055    3.2334 N   0  0  0  1  0  0  0  0  0  0  0  0
   -1.2626    2.7601    3.9897 H   0  0  0  1  0  0  0  0  0  0  0  0
   -3.1800    2.4495    4.4760 C   0  0  0  1  0  0  0  0  0  0  0  0
   -0.2331   -1.3375    3.3264 C   0  0  0  1  0  0  0  0  0  0  0  0
   -3.0037    3.2493    5.7469 C   0  0  0  1  0  0  0  0  0  0  0  0
   -4.2440    1.8887    4.2170 O   0  0  0  1  0  0  0  0  0  0  0  0
   -0.5428    0.6534    3.9072 H   0  0  0  1  0  0  0  0  0  0  0  0
   -0.2285   -1.7933    2.3583 H   0  0  0  1  0  0  0  0  0  0  0  0
   -0.8155   -1.9330    3.9980 H   0  0  0  1  0  0  0  0  0  0  0  0
    0.7703   -1.2656    3.6912 H   0  0  0  1  0  0  0  0  0  0  0  0
   -2.6286    4.2224    5.5075 H   0  0  0  1  0  0  0  0  0  0  0  0
   -2.3105    2.7484    6.3900 H   0  0  0  1  0  0  0  0  0  0  0  0
   -3.9472    3.3431    6.2428 H   0  0  0  1  0  0  0  0  0  0  0  0
   -4.0990    7.8208    0.4085 B   0  0  0  1  0  0  0  0  0  0  0  0
   -4.6115    8.6772    1.3296 O   0  0  0  1  0  0  0  0  0  0  0  0
   -4.1808    8.2414   -0.8822 O   0  0  0  1  0  0  0  0  0  0  0  0
   -3.4360    6.4168    0.7156 C   0  0  0  1  0  0  0  0  0  0  0  0
   -2.5377    6.2858    1.7578 C   0  0  0  1  0  0  0  0  0  0  0  0
   -1.8607    5.0905    1.9434 C   0  0  0  1  0  0  0  0  0  0  0  0
   -2.0801    4.0314    1.0829 C   0  0  0  1  0  0  0  0  0  0  0  0
   -2.9810    4.1626    0.0376 C   0  0  0  1  0  0  0  0  0  0  0  0
   -3.6559    5.3544   -0.1473 C   0  0  0  1  0  0  0  0  0  0  0  0
   -1.4046    2.7023    1.3483 C   0  0  0  1  0  0  0  0  0  0  0  0
   -4.3934    8.3672    2.2116 H   0  0  0  1  0  0  0  0  0  0  0  0
   -4.9157    8.8522   -0.9742 H   0  0  0  1  0  0  0  0  0  0  0  0
   -2.3696    7.0841    2.4028 H   0  0  0  1  0  0  0  0  0  0  0  0
   -1.1877    4.9906    2.7300 H   0  0  0  1  0  0  0  0  0  0  0  0
   -3.1490    3.3642   -0.6074 H   0  0  0  1  0  0  0  0  0  0  0  0
   -4.3288    5.4542   -0.9339 H   0  0  0  1  0  0  0  0  0  0  0  0
   -1.3134    2.1755    0.4214 H   0  0  0  1  0  0  0  0  0  0  0  0
   -0.4307    2.8895    1.7500 H   0  0  0  1  0  0  0  0  0  0  0  0
  1  4  1  0  0  0  0
  2  4  1  0  0  0  0
  2  5  2  0  0  0  0
  2  6  1  0  0  0  0
  3  4  1  0  0  0  0
  3  7  1  0  0  0  0
  3  8  1  0  0  0  0
  4 28  1  0  0  0  0
  6  9  1  0  0  0  0
  6 12  1  0  0  0  0
  8 10  1  0  0  0  0
  8 11  2  0  0  0  0
  9 13  1  0  0  0  0
  9 14  1  0  0  0  0
  9 15  1  0  0  0  0
 10 16  1  0  0  0  0
 10 17  1  0  0  0  0
 10 18  1  0  0  0  0
 19 20  1  0  0  0  0
 19 21  1  0  0  0  0
 19 22  1  0  0  0  0
 20 29  1  0  0  0  0
 21 30  1  0  0  0  0
 22 23  4  0  0  0  0
 22 27  4  0  0  0  0
 23 24  4  0  0  0  0
 23 31  1  0  0  0  0
 24 25  4  0  0  0  0
 24 32  1  0  0  0  0
 25 26  4  0  0  0  0
 25 28  1  0  0  0  0
 26 27  4  0  0  0  0
 26 33  1  0  0  0  0
 27 34  1  0  0  0  0
 28 35  1  0  0  0  0
 28 36  1  0  0  0  0
M  END
> <BCLConfClusterSize>
1

> <ConfClashScore>
0 

> <ConfOneFourInteractionScore>
-0.966122 

> <ConfScore>
-0.106324 

> <ConfScorePBest>
0.00575474 

> <ConfTolerance>
0.34945 

> <RosettaParamsInstructions>
M  ROOT 3
M  POLY_N_BB 3
M  POLY_CA_BB 4
M  POLY_C_BB 2
M  POLY_O_BB 5
M  POLY_IGNORE 9 10 11 12 13 14 15 16 17 18 
M  POLY_UPPER 6
M  POLY_LOWER 8
M  POLY_CHG 0
M  POLY_PROPERTIES ALPHA_AA L_AA PROTEIN AROMATIC POLYMER 
M  END

$$$$



 36 36  0  0  0  0  0  0  0  0999 V2000
   -2.8943    1.4494    0.5270 H   0  0  0  1  0  0  0  0  0  0  0  0
   -1.6739    0.2207    1.7297 C   0  0  0  1  0  0  0  0  0  0  0  0
   -3.4327    1.6891    2.4949 N   0  0  0  1  0  0  0  0  0  0  0  0
   -2.4057    1.5409    1.4746 C   0  0  0  1  0  0  0  0  0  0  0  0
   -1.4960   -0.1959    2.8625 O   0  0  0  1  0  0  0  0  0  0  0  0
   -1.2505   -0.4322    0.6359 N   0  0  0  1  0  0  0  0  0  0  0  0
   -3.4582    2.5135    3.0241 H   0  0  0  1  0  0  0  0  0  0  0  0
   -4.3498    0.7323    2.7372 C   0  0  0  1  0  0  0  0  0  0  0  0
   -0.4444   -1.6438    0.6486 C   0  0  0  1  0  0  0  0  0  0  0  0
   -5.1707    0.9761    3.9970 C   0  0  0  1  0  0  0  0  0  0  0  0
   -4.5319   -0.2493    2.0350 O   0  0  0  1  0  0  0  0  0  0  0  0
   -1.5032   -0.0653   -0.2370 H   0  0  0  1  0  0  0  0  0  0  0  0
    0.1246   -1.6847    1.5539 H   0  0  0  1  0  0  0  0  0  0  0  0
    0.2200   -1.6387   -0.1901 H   0  0  0  1  0  0  0  0  0  0  0  0
   -1.0852   -2.4988    0.5915 H   0  0  0  1  0  0  0  0  0  0  0  0
   -5.6341    1.9389    3.9406 H   0  0  0  1  0  0  0  0  0  0  0  0
   -4.5297    0.9386    4.8529 H   0  0  0  1  0  0  0  0  0  0  0  0
   -5.9250    0.2220    4.0824 H   0  0  0  1  0  0  0  0  0  0  0  0
   -4.1174    7.8154    0.4335 B   0  0  0  1  0  0  0  0  0  0  0  0
   -3.5167    8.8230   -0.2511 O   0  0  0  1  0  0  0  0  0  0  0  0
   -5.3776    7.9973    0.9170 O   0  0  0  1  0  0  0  0  0  0  0  0
   -3.4287    6.4195    0.7075 C   0  0  0  1  0  0  0  0  0  0  0  0
   -2.5331    6.2883    1.7520 C   0  0  0  1  0  0  0  0  0  0  0  0
   -1.8608    5.0911    1.9425 C   0  0  0  1  0  0  0  0  0  0  0  0
   -2.0822    4.0303    1.0846 C   0  0  0  1  0  0  0  0  0  0  0  0
   -2.9804    4.1617    0.0370 C   0  0  0  1  0  0  0  0  0  0  0  0
   -3.6506    5.3554   -0.1528 C   0  0  0  1  0  0  0  0  0  0  0  0
   -1.4120    2.6996    1.3553 C   0  0  0  1  0  0  0  0  0  0  0  0
   -2.8221    9.2075    0.2885 H   0  0  0  1  0  0  0  0  0  0  0  0
   -5.9642    7.3384    0.5384 H   0  0  0  1  0  0  0  0  0  0  0  0
   -2.3636    7.0878    2.3951 H   0  0  0  1  0  0  0  0  0  0  0  0
   -1.1900    4.9911    2.7309 H   0  0  0  1  0  0  0  0  0  0  0  0
   -3.1499    3.3621   -0.6061 H   0  0  0  1  0  0  0  0  0  0  0  0
   -4.3215    5.4554   -0.9412 H   0  0  0  1  0  0  0  0  0  0  0  0
   -0.7374    2.4884    0.5520 H   0  0  0  1  0  0  0  0  0  0  0  0
   -0.8643    2.7742    2.2714 H   0  0  0  1  0  0  0  0  0  0  0  0
  1  4  1  0  0  0  0
  2  4  1  0  0  0  0
  2  5  2  0  0  0  0
  2  6  1  0  0  0  0
  3  4  1  0  0  0  0
  3  7  1  0  0  0  0
  3  8  1  0  0  0  0
  4 28  1  0  0  0  0
  6  9  1  0  0  0  0
  6 12  1  0  0  0  0
  8 10  1  0  0  0  0
  8 11  2  0  0  0  0
  9 13  1  0  0  0  0
  9 14  1  0  0  0  0
  9 15  1  0  0  0  0
 10 16  1  0  0  0  0
 10 17  1  0  0  0  0
 10 18  1  0  0  0  0
 19 20  1  0  0  0  0
 19 21  1  0  0  0  0
 19 22  1  0  0  0  0
 20 29  1  0  0  0  0
 21 30  1  0  0  0  0
 22 23  4  0  0  0  0
 22 27  4  0  0  0  0
 23 24  4  0  0  0  0
 23 31  1  0  0  0  0
 24 25  4  0  0  0  0
 24 32  1  0  0  0  0
 25 26  4  0  0  0  0
 25 28  1  0  0  0  0
 26 27  4  0  0  0  0
 26 33  1  0  0  0  0
 27 34  1  0  0  0  0
 28 35  1  0  0  0  0
 28 36  1  0  0  0  0
M  END
> <BCLConfClusterSize>
1

> <ConfClashScore>
0 

> <ConfOneFourInteractionScore>
-0.99043 

> <ConfScore>
-0.104126 

> <ConfScorePBest>
0.00572626 

> <ConfTolerance>
0.391151 

> <RosettaParamsInstructions>
M  ROOT 3
M  POLY_N_BB 3
M  POLY_CA_BB 4
M  POLY_C_BB 2
M  POLY_O_BB 5
M  POLY_IGNORE 9 10 11 12 13 14 15 16 17 18 
M  POLY_UPPER 6
M  POLY_LOWER 8
M  POLY_CHG 0
M  POLY_PROPERTIES ALPHA_AA L_AA PROTEIN AROMATIC POLYMER 
M  END

$$$$



 36 36  0  0  0  0  0  0  0  0999 V2000
    0.0994    1.4286    0.5786 H   0  0  0  1  0  0  0  0  0  0  0  0
   -0.5257    2.6975   -0.9883 C   0  0  0  1  0  0  0  0  0  0  0  0
    0.9252    3.3009    0.8739 N   0  0  0  1  0  0  0  0  0  0  0  0
   -0.1868    2.4538    0.4694 C   0  0  0  1  0  0  0  0  0  0  0  0
   -0.9042    1.7901   -1.7106 O   0  0  0  1  0  0  0  0  0  0  0  0
   -0.3819    3.9554   -1.4151 N   0  0  0  1  0  0  0  0  0  0  0  0
    0.7838    3.9012    1.6355 H   0  0  0  1  0  0  0  0  0  0  0  0
    2.1244    3.3219    0.2852 C   0  0  0  1  0  0  0  0  0  0  0  0
   -0.6236    4.4055   -2.7778 C   0  0  0  1  0  0  0  0  0  0  0  0
    3.1710    4.2612    0.8740 C   0  0  0  1  0  0  0  0  0  0  0  0
    2.3663    2.6887   -0.7298 O   0  0  0  1  0  0  0  0  0  0  0  0
   -0.0919    4.6253   -0.7613 H   0  0  0  1  0  0  0  0  0  0  0  0
   -1.5124    3.9438   -3.1541 H   0  0  0  1  0  0  0  0  0  0  0  0
    0.2074    4.1349   -3.3952 H   0  0  0  1  0  0  0  0  0  0  0  0
   -0.7434    5.4687   -2.7859 H   0  0  0  1  0  0  0  0  0  0  0  0
    3.0452    4.3160    1.9352 H   0  0  0  1  0  0  0  0  0  0  0  0
    3.0532    5.2367    0.4503 H   0  0  0  1  0  0  0  0  0  0  0  0
    4.1493    3.8902    0.6499 H   0  0  0  1  0  0  0  0  0  0  0  0
   -4.1166    7.8139    0.4338 B   0  0  0  1  0  0  0  0  0  0  0  0
   -4.8454    7.9412   -0.7051 O   0  0  0  1  0  0  0  0  0  0  0  0
   -3.9389    8.7926    1.3465 O   0  0  0  1  0  0  0  0  0  0  0  0
   -3.4288    6.4196    0.7075 C   0  0  0  1  0  0  0  0  0  0  0  0
   -2.5332    6.2884    1.7520 C   0  0  0  1  0  0  0  0  0  0  0  0
   -1.8609    5.0912    1.9425 C   0  0  0  1  0  0  0  0  0  0  0  0
   -2.0823    4.0304    1.0846 C   0  0  0  1  0  0  0  0  0  0  0  0
   -2.9805    4.1618    0.0370 C   0  0  0  1  0  0  0  0  0  0  0  0
   -3.6506    5.3555   -0.1528 C   0  0  0  1  0  0  0  0  0  0  0  0
   -1.4121    2.6997    1.3553 C   0  0  0  1  0  0  0  0  0  0  0  0
   -5.7276    8.2515   -0.4881 H   0  0  0  1  0  0  0  0  0  0  0  0
   -4.7922    9.0750    1.6838 H   0  0  0  1  0  0  0  0  0  0  0  0
   -2.3637    7.0880    2.3951 H   0  0  0  1  0  0  0  0  0  0  0  0
   -1.1900    4.9912    2.7309 H   0  0  0  1  0  0  0  0  0  0  0  0
   -3.1500    3.3623   -0.6061 H   0  0  0  1  0  0  0  0  0  0  0  0
   -4.3215    5.4555   -0.9412 H   0  0  0  1  0  0  0  0  0  0  0  0
   -1.1023    2.6764    2.3792 H   0  0  0  1  0  0  0  0  0  0  0  0
   -2.1220    1.9188    1.1790 H   0  0  0  1  0  0  0  0  0  0  0  0
  1  4  1  0  0  0  0
  2  4  1  0  0  0  0
  2  5  2  0  0  0  0
  2  6  1  0  0  0  0
  3  4  1  0  0  0  0
  3  7  1  0  0  0  0
  3  8  1  0  0  0  0
  4 28  1  0  0  0  0
  6  9  1  0  0  0  0
  6 12  1  0  0  0  0
  8 10  1  0  0  0  0
  8 11  2  0  0  0  0
  9 13  1  0  0  0  0
  9 14  1  0  0  0  0
  9 15  1  0  0  0  0
 10 16  1  0  0  0  0
 10 17  1  0  0  0  0
 10 18  1  0  0  0  0
 19 20  1  0  0  0  0
 19 21  1  0  0  0  0
 19 22  1  0  0  0  0
 20 29  1  0  0  0  0
 21 30  1  0  0  0  0
 22 23  4  0  0  0  0
 22 27  4  0  0  0  0
 23 24  4  0  0  0  0
 23 31  1  0  0  0  0
 24 25  4  0  0  0  0
 24 32  1  0  0  0  0
 25 26  4  0  0  0  0
 25 28  1  0  0  0  0
 26 27  4  0  0  0  0
 26 33  1  0  0  0  0
 27 34  1  0  0  0  0
 28 35  1  0  0  0  0
 28 36  1  0  0  0  0
M  END
> <BCLConfClusterSize>
1

> <ConfClashScore>
0 

> <ConfOneFourInteractionScore>
-0.966613 

> <ConfScore>
-0.101792 

> <ConfScorePBest>
0.00569778 

> <ConfTolerance>
0.239932 

> <RosettaParamsInstructions>
M  ROOT 3
M  POLY_N_BB 3
M  POLY_CA_BB 4
M  POLY_C_BB 2
M  POLY_O_BB 5
M  POLY_IGNORE 9 10 11 12 13 14 15 16 17 18 
M  POLY_UPPER 6
M  POLY_LOWER 8
M  POLY_CHG 0
M  POLY_PROPERTIES ALPHA_AA L_AA PROTEIN AROMATIC POLYMER 
M  END

$$$$



 36 36  0  0  0  0  0  0  0  0999 V2000
   -2.8920    1.5053    0.4120 H   0  0  0  1  0  0  0  0  0  0  0  0
   -1.6080    0.2398    1.5269 C   0  0  0  1  0  0  0  0  0  0  0  0
   -3.3651    1.6920    2.4309 N   0  0  0  1  0  0  0  0  0  0  0  0
   -2.3870    1.5293    1.3550 C   0  0  0  1  0  0  0  0  0  0  0  0
   -1.0739   -0.3080    0.5634 O   0  0  0  1  0  0  0  0  0  0  0  0
   -1.5193   -0.2843    2.7596 N   0  0  0  1  0  0  0  0  0  0  0  0
   -3.0511    1.9647    3.3183 H   0  0  0  1  0  0  0  0  0  0  0  0
   -4.6693    1.4820    2.2460 C   0  0  0  1  0  0  0  0  0  0  0  0
   -0.8511   -1.5507    3.0196 C   0  0  0  1  0  0  0  0  0  0  0  0
   -5.5500    1.6966    3.4616 C   0  0  0  1  0  0  0  0  0  0  0  0
   -5.1418    1.1388    1.1742 O   0  0  0  1  0  0  0  0  0  0  0  0
   -1.9184    0.2028    3.5105 H   0  0  0  1  0  0  0  0  0  0  0  0
   -1.4105   -2.3475    2.5757 H   0  0  0  1  0  0  0  0  0  0  0  0
   -0.7838   -1.7079    4.0759 H   0  0  0  1  0  0  0  0  0  0  0  0
    0.1323   -1.5279    2.5985 H   0  0  0  1  0  0  0  0  0  0  0  0
   -6.2089    2.5208    3.2843 H   0  0  0  1  0  0  0  0  0  0  0  0
   -4.9371    1.9071    4.3130 H   0  0  0  1  0  0  0  0  0  0  0  0
   -6.1253    0.8134    3.6453 H   0  0  0  1  0  0  0  0  0  0  0  0
   -4.1182    7.8171    0.4332 B   0  0  0  1  0  0  0  0  0  0  0  0
   -5.2795    7.8166   -0.2723 O   0  0  0  1  0  0  0  0  0  0  0  0
   -3.5077    8.9309    0.9192 O   0  0  0  1  0  0  0  0  0  0  0  0
   -3.4287    6.4193    0.7075 C   0  0  0  1  0  0  0  0  0  0  0  0
   -2.5331    6.2881    1.7520 C   0  0  0  1  0  0  0  0  0  0  0  0
   -1.8608    5.0909    1.9426 C   0  0  0  1  0  0  0  0  0  0  0  0
   -2.0821    4.0301    1.0846 C   0  0  0  1  0  0  0  0  0  0  0  0
   -2.9803    4.1615    0.0370 C   0  0  0  1  0  0  0  0  0  0  0  0
   -3.6505    5.3552   -0.1528 C   0  0  0  1  0  0  0  0  0  0  0  0
   -1.4119    2.6994    1.3553 C   0  0  0  1  0  0  0  0  0  0  0  0
   -5.9160    7.2417    0.1588 H   0  0  0  1  0  0  0  0  0  0  0  0
   -3.8490    9.1271    1.7948 H   0  0  0  1  0  0  0  0  0  0  0  0
   -2.3636    7.0877    2.3951 H   0  0  0  1  0  0  0  0  0  0  0  0
   -1.1899    4.9909    2.7309 H   0  0  0  1  0  0  0  0  0  0  0  0
   -3.1498    3.3620   -0.6061 H   0  0  0  1  0  0  0  0  0  0  0  0
   -4.3214    5.4552   -0.9411 H   0  0  0  1  0  0  0  0  0  0  0  0
   -0.6751    2.5290    0.5983 H   0  0  0  1  0  0  0  0  0  0  0  0
   -0.9363    2.7461    2.3126 H   0  0  0  1  0  0  0  0  0  0  0  0
  1  4  1  0  0  0  0
  2  4  1  0  0  0  0
  2  5  2  0  0  0  0
  2  6  1  0  0  0  0
  3  4  1  0  0  0  0
  3  7  1  0  0  0  0
  3  8  1  0  0  0  0
  4 28  1  0  0  0  0
  6  9  1  0  0  0  0
  6 12  1  0  0  0  0
  8 10  1  0  0  0  0
  8 11  2  0  0  0  0
  9 13  1  0  0  0  0
  9 14  1  0  0  0  0
  9 15  1  0  0  0  0
 10 16  1  0  0  0  0
 10 17  1  0  0  0  0
 10 18  1  0  0  0  0
 19 20  1  0  0  0  0
 19 21  1  0  0  0  0
 19 22  1  0  0  0  0
 20 29  1  0  0  0  0
 21 30  1  0  0  0  0
 22 23  4  0  0  0  0
 22 27  4  0  0  0  0
 23 24  4  0  0  0  0
 23 31  1  0  0  0  0
 24 25  4  0  0  0  0
 24 32  1  0  0  0  0
 25 26  4  0  0  0  0
 25 28  1  0  0  0  0
 26 27  4  0  0  0  0
 26 33  1  0  0  0  0
 27 34  1  0  0  0  0
 28 35  1  0  0  0  0
 28 36  1  0  0  0  0
M  END
> <BCLConfClusterSize>
1

> <ConfClashScore>
0 

> <ConfOneFourInteractionScore>
-0.969136 

> <ConfScore>
-0.101119 

> <ConfScorePBest>
0.0056693 

> <ConfTolerance>
0.37842 

> <RosettaParamsInstructions>
M  ROOT 3
M  POLY_N_BB 3
M  POLY_CA_BB 4
M  POLY_C_BB 2
M  POLY_O_BB 5
M  POLY_IGNORE 9 10 11 12 13 14 15 16 17 18 
M  POLY_UPPER 6
M  POLY_LOWER 8
M  POLY_CHG 0
M  POLY_PROPERTIES ALPHA_AA L_AA PROTEIN AROMATIC POLYMER 
M  END

$$$$



 36 36  0  0  0  0  0  0  0  0999 V2000
   -1.5439    1.8026   -0.5642 H   0  0  0  1  0  0  0  0  0  0  0  0
    0.1036    3.1473   -0.5573 C   0  0  0  1  0  0  0  0  0  0  0  0
    0.0205    0.9268    0.4835 N   0  0  0  1  0  0  0  0  0  0  0  0
   -0.7696    2.0921    0.1152 C   0  0  0  1  0  0  0  0  0  0  0  0
   -0.3249    3.8354   -1.4800 O   0  0  0  1  0  0  0  0  0  0  0  0
    1.3450    3.2651   -0.0776 N   0  0  0  1  0  0  0  0  0  0  0  0
    0.0788    0.6525    1.4226 H   0  0  0  1  0  0  0  0  0  0  0  0
    0.6666    0.2301   -0.4558 C   0  0  0  1  0  0  0  0  0  0  0  0
    2.3728    4.1344   -0.6304 C   0  0  0  1  0  0  0  0  0  0  0  0
    1.6430   -0.8127    0.0523 C   0  0  0  1  0  0  0  0  0  0  0  0
    0.4923    0.4104   -1.6678 O   0  0  0  1  0  0  0  0  0  0  0  0
    1.5811    2.7254    0.7056 H   0  0  0  1  0  0  0  0  0  0  0  0
    1.9206    5.0290   -1.0047 H   0  0  0  1  0  0  0  0  0  0  0  0
    2.8761    3.6289   -1.4279 H   0  0  0  1  0  0  0  0  0  0  0  0
    3.0775    4.3846    0.1349 H   0  0  0  1  0  0  0  0  0  0  0  0
    2.6215   -0.3846    0.1165 H   0  0  0  1  0  0  0  0  0  0  0  0
    1.6608   -1.6430   -0.6224 H   0  0  0  1  0  0  0  0  0  0  0  0
    1.3358   -1.1465    1.0214 H   0  0  0  1  0  0  0  0  0  0  0  0
   -4.1166    7.8139    0.4338 B   0  0  0  1  0  0  0  0  0  0  0  0
   -3.4566    8.9339    0.8291 O   0  0  0  1  0  0  0  0  0  0  0  0
   -5.3291    7.9570   -0.1735 O   0  0  0  1  0  0  0  0  0  0  0  0
   -3.4288    6.4196    0.7075 C   0  0  0  1  0  0  0  0  0  0  0  0
   -2.5332    6.2884    1.7520 C   0  0  0  1  0  0  0  0  0  0  0  0
   -1.8609    5.0912    1.9425 C   0  0  0  1  0  0  0  0  0  0  0  0
   -2.0823    4.0304    1.0846 C   0  0  0  1  0  0  0  0  0  0  0  0
   -2.9805    4.1618    0.0370 C   0  0  0  1  0  0  0  0  0  0  0  0
   -3.6506    5.3555   -0.1528 C   0  0  0  1  0  0  0  0  0  0  0  0
   -1.4121    2.6997    1.3553 C   0  0  0  1  0  0  0  0  0  0  0  0
   -3.7478    9.1837    1.7091 H   0  0  0  1  0  0  0  0  0  0  0  0
   -5.6875    7.0911   -0.3816 H   0  0  0  1  0  0  0  0  0  0  0  0
   -2.3637    7.0880    2.3951 H   0  0  0  1  0  0  0  0  0  0  0  0
   -1.1900    4.9912    2.7309 H   0  0  0  1  0  0  0  0  0  0  0  0
   -3.1500    3.3623   -0.6061 H   0  0  0  1  0  0  0  0  0  0  0  0
   -4.3215    5.4555   -0.9412 H   0  0  0  1  0  0  0  0  0  0  0  0
   -0.6533    2.8449    2.0956 H   0  0  0  1  0  0  0  0  0  0  0  0
   -2.1477    2.0172    1.7268 H   0  0  0  1  0  0  0  0  0  0  0  0
  1  4  1  0  0  0  0
  2  4  1  0  0  0  0
  2  5  2  0  0  0  0
  2  6  1  0  0  0  0
  3  4  1  0  0  0  0
  3  7  1  0  0  0  0
  3  8  1  0  0  0  0
  4 28  1  0  0  0  0
  6  9  1  0  0  0  0
  6 12  1  0  0  0  0
  8 10  1  0  0  0  0
  8 11  2  0  0  0  0
  9 13  1  0  0  0  0
  9 14  1  0  0  0  0
  9 15  1  0  0  0  0
 10 16  1  0  0  0  0
 10 17  1  0  0  0  0
 10 18  1  0  0  0  0
 19 20  1  0  0  0  0
 19 21  1  0  0  0  0
 19 22  1  0  0  0  0
 20 29  1  0  0  0  0
 21 30  1  0  0  0  0
 22 23  4  0  0  0  0
 22 27  4  0  0  0  0
 23 24  4  0  0  0  0
 23 31  1  0  0  0  0
 24 25  4  0  0  0  0
 24 32  1  0  0  0  0
 25 26  4  0  0  0  0
 25 28  1  0  0  0  0
 26 27  4  0  0  0  0
 26 33  1  0  0  0  0
 27 34  1  0  0  0  0
 28 35  1  0  0  0  0
 28 36  1  0  0  0  0
M  END
> <BCLConfClusterSize>
1

> <ConfClashScore>
0 

> <ConfOneFourInteractionScore>
-0.969136 

> <ConfScore>
-0.0973549 

> <ConfScorePBest>
0.00564082 

> <ConfTolerance>
0.498486 

> <RosettaParamsInstructions>
M  ROOT 3
M  POLY_N_BB 3
M  POLY_CA_BB 4
M  POLY_C_BB 2
M  POLY_O_BB 5
M  POLY_IGNORE 9 10 11 12 13 14 15 16 17 18 
M  POLY_UPPER 6
M  POLY_LOWER 8
M  POLY_CHG 0
M  POLY_PROPERTIES ALPHA_AA L_AA PROTEIN AROMATIC POLYMER 
M  END

$$$$



 36 36  0  0  0  0  0  0  0  0999 V2000
   -2.5916    2.0105    2.9946 H   0  0  0  1  0  0  0  0  0  0  0  0
   -3.7090    1.6824    1.2166 C   0  0  0  1  0  0  0  0  0  0  0  0
   -1.8144    0.3801    1.9626 N   0  0  0  1  0  0  0  0  0  0  0  0
   -2.3988    1.7127    1.9851 C   0  0  0  1  0  0  0  0  0  0  0  0
   -3.7910    1.1081    0.1316 O   0  0  0  1  0  0  0  0  0  0  0  0
   -4.7717    2.2998    1.7565 N   0  0  0  1  0  0  0  0  0  0  0  0
   -0.9227    0.2612    1.5737 H   0  0  0  1  0  0  0  0  0  0  0  0
   -2.4511   -0.6868    2.4537 C   0  0  0  1  0  0  0  0  0  0  0  0
   -6.0601    2.3616    1.0826 C   0  0  0  1  0  0  0  0  0  0  0  0
   -1.6852   -1.9953    2.4340 C   0  0  0  1  0  0  0  0  0  0  0  0
   -3.5559   -0.6112    2.9670 O   0  0  0  1  0  0  0  0  0  0  0  0
   -4.6766    2.7237    2.6349 H   0  0  0  1  0  0  0  0  0  0  0  0
   -6.1866    1.4912    0.4733 H   0  0  0  1  0  0  0  0  0  0  0  0
   -6.0990    3.2361    0.4673 H   0  0  0  1  0  0  0  0  0  0  0  0
   -6.8421    2.4029    1.8118 H   0  0  0  1  0  0  0  0  0  0  0  0
   -1.5340   -2.3054    1.4212 H   0  0  0  1  0  0  0  0  0  0  0  0
   -2.2442   -2.7434    2.9562 H   0  0  0  1  0  0  0  0  0  0  0  0
   -0.7368   -1.8603    2.9108 H   0  0  0  1  0  0  0  0  0  0  0  0
   -4.1182    7.8171    0.4332 B   0  0  0  1  0  0  0  0  0  0  0  0
   -4.9857    7.8951   -0.6089 O   0  0  0  1  0  0  0  0  0  0  0  0
   -3.8007    8.8524    1.2559 O   0  0  0  1  0  0  0  0  0  0  0  0
   -3.4287    6.4193    0.7075 C   0  0  0  1  0  0  0  0  0  0  0  0
   -2.5331    6.2881    1.7520 C   0  0  0  1  0  0  0  0  0  0  0  0
   -1.8608    5.0909    1.9426 C   0  0  0  1  0  0  0  0  0  0  0  0
   -2.0821    4.0301    1.0846 C   0  0  0  1  0  0  0  0  0  0  0  0
   -2.9803    4.1615    0.0370 C   0  0  0  1  0  0  0  0  0  0  0  0
   -3.6505    5.3552   -0.1528 C   0  0  0  1  0  0  0  0  0  0  0  0
   -1.4119    2.6994    1.3553 C   0  0  0  1  0  0  0  0  0  0  0  0
   -4.5080    8.1358   -1.4061 H   0  0  0  1  0  0  0  0  0  0  0  0
   -3.1727    9.4302    0.8161 H   0  0  0  1  0  0  0  0  0  0  0  0
   -2.3636    7.0877    2.3951 H   0  0  0  1  0  0  0  0  0  0  0  0
   -1.1899    4.9909    2.7309 H   0  0  0  1  0  0  0  0  0  0  0  0
   -3.1498    3.3620   -0.6061 H   0  0  0  1  0  0  0  0  0  0  0  0
   -4.3214    5.4552   -0.9411 H   0  0  0  1  0  0  0  0  0  0  0  0
   -1.0512    2.2943    0.4330 H   0  0  0  1  0  0  0  0  0  0  0  0
   -0.5909    2.8499    2.0247 H   0  0  0  1  0  0  0  0  0  0  0  0
  1  4  1  0  0  0  0
  2  4  1  0  0  0  0
  2  5  2  0  0  0  0
  2  6  1  0  0  0  0
  3  4  1  0  0  0  0
  3  7  1  0  0  0  0
  3  8  1  0  0  0  0
  4 28  1  0  0  0  0
  6  9  1  0  0  0  0
  6 12  1  0  0  0  0
  8 10  1  0  0  0  0
  8 11  2  0  0  0  0
  9 13  1  0  0  0  0
  9 14  1  0  0  0  0
  9 15  1  0  0  0  0
 10 16  1  0  0  0  0
 10 17  1  0  0  0  0
 10 18  1  0  0  0  0
 19 20  1  0  0  0  0
 19 21  1  0  0  0  0
 19 22  1  0  0  0  0
 20 29  1  0  0  0  0
 21 30  1  0  0  0  0
 22 23  4  0  0  0  0
 22 27  4  0  0  0  0
 23 24  4  0  0  0  0
 23 31  1  0  0  0  0
 24 25  4  0  0  0  0
 24 32  1  0  0  0  0
 25 26  4  0  0  0  0
 25 28  1  0  0  0  0
 26 27  4  0  0  0  0
 26 33  1  0  0  0  0
 27 34  1  0  0  0  0
 28 35  1  0  0  0  0
 28 36  1  0  0  0  0
M  END
> <BCLConfClusterSize>
1

> <ConfClashScore>
0 

> <ConfOneFourInteractionScore>
-0.985947 

> <ConfScore>
-0.0971811 

> <ConfScorePBest>
0.00561234 

> <ConfTolerance>
0.293291 

> <RosettaParamsInstructions>
M  ROOT 3
M  POLY_N_BB 3
M  POLY_CA_BB 4
M  POLY_C_BB 2
M  POLY_O_BB 5
M  POLY_IGNORE 9 10 11 12 13 14 15 16 17 18 
M  POLY_UPPER 6
M  POLY_LOWER 8
M  POLY_CHG 0
M  POLY_PROPERTIES ALPHA_AA L_AA PROTEIN AROMATIC POLYMER 
M  END

$$$$



 36 36  0  0  0  0  0  0  0  0999 V2000
    0.2024    1.4983    0.6848 H   0  0  0  1  0  0  0  0  0  0  0  0
   -0.3147    2.7779   -0.9218 C   0  0  0  1  0  0  0  0  0  0  0  0
    0.9033    3.3976    1.1052 N   0  0  0  1  0  0  0  0  0  0  0  0
   -0.1192    2.5121    0.5681 C   0  0  0  1  0  0  0  0  0  0  0  0
   -0.1944    3.9073   -1.3890 O   0  0  0  1  0  0  0  0  0  0  0  0
   -0.6202    1.7132   -1.6651 N   0  0  0  1  0  0  0  0  0  0  0  0
    1.1012    4.2330    0.6327 H   0  0  0  1  0  0  0  0  0  0  0  0
    1.6072    3.1002    2.2622 C   0  0  0  1  0  0  0  0  0  0  0  0
   -0.9253    1.8175   -3.0842 C   0  0  0  1  0  0  0  0  0  0  0  0
    2.6721    4.0503    2.7338 C   0  0  0  1  0  0  0  0  0  0  0  0
    1.3378    2.0745    2.8603 O   0  0  0  1  0  0  0  0  0  0  0  0
   -0.6398    0.8300   -1.2408 H   0  0  0  1  0  0  0  0  0  0  0  0
   -0.5314    2.7355   -3.4677 H   0  0  0  1  0  0  0  0  0  0  0  0
   -1.9861    1.7994   -3.2230 H   0  0  0  1  0  0  0  0  0  0  0  0
   -0.4828    0.9944   -3.6054 H   0  0  0  1  0  0  0  0  0  0  0  0
    3.4189    4.1550    1.9748 H   0  0  0  1  0  0  0  0  0  0  0  0
    3.1218    3.6671    3.6259 H   0  0  0  1  0  0  0  0  0  0  0  0
    2.2335    5.0050    2.9366 H   0  0  0  1  0  0  0  0  0  0  0  0
   -4.1458    7.8080    0.3910 B   0  0  0  1  0  0  0  0  0  0  0  0
   -4.8316    7.9387   -0.7972 O   0  0  0  1  0  0  0  0  0  0  0  0
   -3.5092    8.9831    0.7435 O   0  0  0  1  0  0  0  0  0  0  0  0
   -3.4239    6.4221    0.7162 C   0  0  0  1  0  0  0  0  0  0  0  0
   -2.5280    6.2905    1.7604 C   0  0  0  1  0  0  0  0  0  0  0  0
   -1.8555    5.0932    1.9501 C   0  0  0  1  0  0  0  0  0  0  0  0
   -2.0770    4.0329    1.0917 C   0  0  0  1  0  0  0  0  0  0  0  0
   -2.9755    4.1647    0.0444 C   0  0  0  1  0  0  0  0  0  0  0  0
   -3.6459    5.3584   -0.1446 C   0  0  0  1  0  0  0  0  0  0  0  0
   -1.4336    2.6810    1.3188 C   0  0  0  1  0  0  0  0  0  0  0  0
   -5.2947    7.1205   -0.9916 H   0  0  0  1  0  0  0  0  0  0  0  0
   -2.6797    9.0541    0.2654 H   0  0  0  1  0  0  0  0  0  0  0  0
   -2.3584    7.0897    2.4038 H   0  0  0  1  0  0  0  0  0  0  0  0
   -1.1845    4.9929    2.7383 H   0  0  0  1  0  0  0  0  0  0  0  0
   -3.1451    3.3655   -0.5990 H   0  0  0  1  0  0  0  0  0  0  0  0
   -4.3170    5.4587   -0.9328 H   0  0  0  1  0  0  0  0  0  0  0  0
   -1.2452    2.5650    2.3657 H   0  0  0  1  0  0  0  0  0  0  0  0
   -2.1126    1.9214    0.9918 H   0  0  0  1  0  0  0  0  0  0  0  0
  1  4  1  0  0  0  0
  2  4  1  0  0  0  0
  2  5  2  0  0  0  0
  2  6  1  0  0  0  0
  3  4  1  0  0  0  0
  3  7  1  0  0  0  0
  3  8  1  0  0  0  0
  4 28  1  0  0  0  0
  6  9  1  0  0  0  0
  6 12  1  0  0  0  0
  8 10  1  0  0  0  0
  8 11  2  0  0  0  0
  9 13  1  0  0  0  0
  9 14  1  0  0  0  0
  9 15  1  0  0  0  0
 10 16  1  0  0  0  0
 10 17  1  0  0  0  0
 10 18  1  0  0  0  0
 19 20  1  0  0  0  0
 19 21  1  0  0  0  0
 19 22  1  0  0  0  0
 20 29  1  0  0  0  0
 21 30  1  0  0  0  0
 22 23  4  0  0  0  0
 22 27  4  0  0  0  0
 23 24  4  0  0  0  0
 23 31  1  0  0  0  0
 24 25  4  0  0  0  0
 24 32  1  0  0  0  0
 25 26  4  0  0  0  0
 25 28  1  0  0  0  0
 26 27  4  0  0  0  0
 26 33  1  0  0  0  0
 27 34  1  0  0  0  0
 28 35  1  0  0  0  0
 28 36  1  0  0  0  0
M  END
> <BCLConfClusterSize>
1

> <ConfClashScore>
0 

> <ConfOneFourInteractionScore>
-0.99009 

> <ConfScore>
-0.08893 

> <ConfScorePBest>
0.00558386 

> <ConfTolerance>
0.337928 

> <RosettaParamsInstructions>
M  ROOT 3
M  POLY_N_BB 3
M  POLY_CA_BB 4
M  POLY_C_BB 2
M  POLY_O_BB 5
M  POLY_IGNORE 9 10 11 12 13 14 15 16 17 18 
M  POLY_UPPER 6
M  POLY_LOWER 8
M  POLY_CHG 0
M  POLY_PROPERTIES ALPHA_AA L_AA PROTEIN AROMATIC POLYMER 
M  END

$$$$



 36 36  0  0  0  0  0  0  0  0999 V2000
   -0.6346    2.6293   -0.6235 H   0  0  0  1  0  0  0  0  0  0  0  0
    0.9036    3.3260    0.6182 C   0  0  0  1  0  0  0  0  0  0  0  0
    0.1274    1.0093    0.3754 N   0  0  0  1  0  0  0  0  0  0  0  0
   -0.2783    2.4068    0.3606 C   0  0  0  1  0  0  0  0  0  0  0  0
    1.9146    2.9205    1.1854 O   0  0  0  1  0  0  0  0  0  0  0  0
    0.7639    4.5900    0.1882 N   0  0  0  1  0  0  0  0  0  0  0  0
   -0.4017    0.3897    0.9199 H   0  0  0  1  0  0  0  0  0  0  0  0
    1.1770    0.5025   -0.3041 C   0  0  0  1  0  0  0  0  0  0  0  0
    1.8124    5.5662    0.4376 C   0  0  0  1  0  0  0  0  0  0  0  0
    1.4942   -0.9702   -0.1311 C   0  0  0  1  0  0  0  0  0  0  0  0
    1.8529    1.2065   -1.0371 O   0  0  0  1  0  0  0  0  0  0  0  0
   -0.0465    4.8555   -0.2948 H   0  0  0  1  0  0  0  0  0  0  0  0
    2.3876    5.2632    1.2875 H   0  0  0  1  0  0  0  0  0  0  0  0
    1.3713    6.5222    0.6282 H   0  0  0  1  0  0  0  0  0  0  0  0
    2.4498    5.6313   -0.4193 H   0  0  0  1  0  0  0  0  0  0  0  0
    1.8572   -1.1432    0.8605 H   0  0  0  1  0  0  0  0  0  0  0  0
    2.2418   -1.2594   -0.8398 H   0  0  0  1  0  0  0  0  0  0  0  0
    0.6075   -1.5470   -0.2918 H   0  0  0  1  0  0  0  0  0  0  0  0
   -4.1201    7.8146    0.4299 B   0  0  0  1  0  0  0  0  0  0  0  0
   -4.9839    7.9633   -0.6076 O   0  0  0  1  0  0  0  0  0  0  0  0
   -3.8687    8.8882    1.2157 O   0  0  0  1  0  0  0  0  0  0  0  0
   -3.4282    6.4187    0.7080 C   0  0  0  1  0  0  0  0  0  0  0  0
   -2.5332    6.2916    1.7535 C   0  0  0  1  0  0  0  0  0  0  0  0
   -1.8588    5.0961    1.9472 C   0  0  0  1  0  0  0  0  0  0  0  0
   -2.0775    4.0329    1.0916 C   0  0  0  1  0  0  0  0  0  0  0  0
   -2.9751    4.1603    0.0429 C   0  0  0  1  0  0  0  0  0  0  0  0
   -3.6473    5.3523   -0.1501 C   0  0  0  1  0  0  0  0  0  0  0  0
   -1.4357    2.6908    1.3217 C   0  0  0  1  0  0  0  0  0  0  0  0
   -4.5348    7.7567   -1.4305 H   0  0  0  1  0  0  0  0  0  0  0  0
   -3.0321    9.2835    0.9601 H   0  0  0  1  0  0  0  0  0  0  0  0
   -2.3657    7.0929    2.3949 H   0  0  0  1  0  0  0  0  0  0  0  0
   -1.1883    4.9991    2.7364 H   0  0  0  1  0  0  0  0  0  0  0  0
   -3.1426    3.3590   -0.5985 H   0  0  0  1  0  0  0  0  0  0  0  0
   -4.3178    5.4492   -0.9392 H   0  0  0  1  0  0  0  0  0  0  0  0
   -1.0619    2.6594    2.3237 H   0  0  0  1  0  0  0  0  0  0  0  0
   -2.1788    1.9316    1.1937 H   0  0  0  1  0  0  0  0  0  0  0  0
  1  4  1  0  0  0  0
  2  4  1  0  0  0  0
  2  5  2  0  0  0  0
  2  6  1  0  0  0  0
  3  4  1  0  0  0  0
  3  7  1  0  0  0  0
  3  8  1  0  0  0  0
  4 28  1  0  0  0  0
  6  9  1  0  0  0  0
  6 12  1  0  0  0  0
  8 10  1  0  0  0  0
  8 11  2  0  0  0  0
  9 13  1  0  0  0  0
  9 14  1  0  0  0  0
  9 15  1  0  0  0  0
 10 16  1  0  0  0  0
 10 17  1  0  0  0  0
 10 18  1  0  0  0  0
 19 20  1  0  0  0  0
 19 21  1  0  0  0  0
 19 22  1  0  0  0  0
 20 29  1  0  0  0  0
 21 30  1  0  0  0  0
 22 23  4  0  0  0  0
 22 27  4  0  0  0  0
 23 24  4  0  0  0  0
 23 31  1  0  0  0  0
 24 25  4  0  0  0  0
 24 32  1  0  0  0  0
 25 26  4  0  0  0  0
 25 28  1  0  0  0  0
 26 27  4  0  0  0  0
 26 33  1  0  0  0  0
 27 34  1  0  0  0  0
 28 35  1  0  0  0  0
 28 36  1  0  0  0  0
M  END
> <BCLConfClusterSize>
1

> <ConfClashScore>
0 

> <ConfOneFourInteractionScore>
-0.988961 

> <ConfScore>
-0.087472 

> <ConfScorePBest>
0.00555537 

> <ConfTolerance>
0.277076 

> <RosettaParamsInstructions>
M  ROOT 3
M  POLY_N_BB 3
M  POLY_CA_BB 4
M  POLY_C_BB 2
M  POLY_O_BB 5
M  POLY_IGNORE 9 10 11 12 13 14 15 16 17 18 
M  POLY_UPPER 6
M  POLY_LOWER 8
M  POLY_CHG 0
M  POLY_PROPERTIES ALPHA_AA L_AA PROTEIN AROMATIC POLYMER 
M  END

$$$$



 36 36  0  0  0  0  0  0  0  0999 V2000
   -2.9581    1.5347    0.4324 H   0  0  0  1  0  0  0  0  0  0  0  0
   -1.6059    0.1981    1.3621 C   0  0  0  1  0  0  0  0  0  0  0  0
   -3.2891    1.5758    2.4733 N   0  0  0  1  0  0  0  0  0  0  0  0
   -2.3845    1.5072    1.3353 C   0  0  0  1  0  0  0  0  0  0  0  0
   -1.2808   -0.3298    2.4248 O   0  0  0  1  0  0  0  0  0  0  0  0
   -1.3084   -0.3236    0.1710 N   0  0  0  1  0  0  0  0  0  0  0  0
   -2.9175    1.5086    3.3776 H   0  0  0  1  0  0  0  0  0  0  0  0
   -4.6086    1.7272    2.3280 C   0  0  0  1  0  0  0  0  0  0  0  0
   -0.4767   -1.5025   -0.0203 C   0  0  0  1  0  0  0  0  0  0  0  0
   -5.4611    1.6613    3.5955 C   0  0  0  1  0  0  0  0  0  0  0  0
   -5.1388    1.8307    1.2335 O   0  0  0  1  0  0  0  0  0  0  0  0
   -1.6731    0.1148   -0.6259 H   0  0  0  1  0  0  0  0  0  0  0  0
   -0.0893   -1.5082   -1.0177 H   0  0  0  1  0  0  0  0  0  0  0  0
   -1.0639   -2.3826    0.1391 H   0  0  0  1  0  0  0  0  0  0  0  0
    0.3346   -1.4832    0.6771 H   0  0  0  1  0  0  0  0  0  0  0  0
   -6.4888    1.5294    3.3282 H   0  0  0  1  0  0  0  0  0  0  0  0
   -5.3504    2.5714    4.1472 H   0  0  0  1  0  0  0  0  0  0  0  0
   -5.1409    0.8372    4.1980 H   0  0  0  1  0  0  0  0  0  0  0  0
   -4.1010    7.8301    0.4636 B   0  0  0  1  0  0  0  0  0  0  0  0
   -5.3709    7.9968    0.9154 O   0  0  0  1  0  0  0  0  0  0  0  0
   -3.4413    8.8426   -0.1645 O   0  0  0  1  0  0  0  0  0  0  0  0
   -3.4321    6.4153    0.7007 C   0  0  0  1  0  0  0  0  0  0  0  0
   -2.5378    6.2923    1.7473 C   0  0  0  1  0  0  0  0  0  0  0  0
   -1.8616    5.0984    1.9447 C   0  0  0  1  0  0  0  0  0  0  0  0
   -2.0777    4.0328    1.0914 C   0  0  0  1  0  0  0  0  0  0  0  0
   -2.9745    4.1560    0.0417 C   0  0  0  1  0  0  0  0  0  0  0  0
   -3.6487    5.3464   -0.1549 C   0  0  0  1  0  0  0  0  0  0  0  0
   -1.4344    2.6935    1.3252 C   0  0  0  1  0  0  0  0  0  0  0  0
   -5.9913    7.7561    0.2235 H   0  0  0  1  0  0  0  0  0  0  0  0
   -3.8223    8.9822   -1.0345 H   0  0  0  1  0  0  0  0  0  0  0  0
   -2.3723    7.0955    2.3869 H   0  0  0  1  0  0  0  0  0  0  0  0
   -1.1917    5.0046    2.7346 H   0  0  0  1  0  0  0  0  0  0  0  0
   -3.1400    3.3528   -0.5979 H   0  0  0  1  0  0  0  0  0  0  0  0
   -4.3185    5.4402   -0.9449 H   0  0  0  1  0  0  0  0  0  0  0  0
   -0.7145    2.5333    0.5499 H   0  0  0  1  0  0  0  0  0  0  0  0
   -0.9378    2.7268    2.2724 H   0  0  0  1  0  0  0  0  0  0  0  0
  1  4  1  0  0  0  0
  2  4  1  0  0  0  0
  2  5  2  0  0  0  0
  2  6  1  0  0  0  0
  3  4  1  0  0  0  0
  3  7  1  0  0  0  0
  3  8  1  0  0  0  0
  4 28  1  0  0  0  0
  6  9  1  0  0  0  0
  6 12  1  0  0  0  0
  8 10  1  0  0  0  0
  8 11  2  0  0  0  0
  9 13  1  0  0  0  0
  9 14  1  0  0  0  0
  9 15  1  0  0  0  0
 10 16  1  0  0  0  0
 10 17  1  0  0  0  0
 10 18  1  0  0  0  0
 19 20  1  0  0  0  0
 19 21  1  0  0  0  0
 19 22  1  0  0  0  0
 20 29  1  0  0  0  0
 21 30  1  0  0  0  0
 22 23  4  0  0  0  0
 22 27  4  0  0  0  0
 23 24  4  0  0  0  0
 23 31  1  0  0  0  0
 24 25  4  0  0  0  0
 24 32  1  0  0  0  0
 25 26  4  0  0  0  0
 25 28  1  0  0  0  0
 26 27  4  0  0  0  0
 26 33  1  0  0  0  0
 27 34  1  0  0  0  0
 28 35  1  0  0  0  0
 28 36  1  0  0  0  0
M  END
> <BCLConfClusterSize>
1

> <ConfClashScore>
0 

> <ConfOneFourInteractionScore>
-0.992613 

> <ConfScore>
-0.0869815 

> <ConfScorePBest>
0.00552689 

> <ConfTolerance>
0.455014 

> <RosettaParamsInstructions>
M  ROOT 3
M  POLY_N_BB 3
M  POLY_CA_BB 4
M  POLY_C_BB 2
M  POLY_O_BB 5
M  POLY_IGNORE 9 10 11 12 13 14 15 16 17 18 
M  POLY_UPPER 6
M  POLY_LOWER 8
M  POLY_CHG 0
M  POLY_PROPERTIES ALPHA_AA L_AA PROTEIN AROMATIC POLYMER 
M  END

$$$$



 36 36  0  0  0  0  0  0  0  0999 V2000
   -1.9889    2.1581    3.2779 H   0  0  0  1  0  0  0  0  0  0  0  0
   -3.5912    1.5900    2.0380 C   0  0  0  1  0  0  0  0  0  0  0  0
   -1.3699    0.4767    2.2432 N   0  0  0  1  0  0  0  0  0  0  0  0
   -2.1054    1.7450    2.2978 C   0  0  0  1  0  0  0  0  0  0  0  0
   -4.0134    1.2991    0.9309 O   0  0  0  1  0  0  0  0  0  0  0  0
   -4.3925    1.7926    3.0958 N   0  0  0  1  0  0  0  0  0  0  0  0
   -0.5912    0.4230    1.6507 H   0  0  0  1  0  0  0  0  0  0  0  0
   -1.6935   -0.6076    2.9485 C   0  0  0  1  0  0  0  0  0  0  0  0
   -5.8413    1.6651    3.1441 C   0  0  0  1  0  0  0  0  0  0  0  0
   -0.9038   -1.8617    2.6280 C   0  0  0  1  0  0  0  0  0  0  0  0
   -2.5735   -0.6095    3.8083 O   0  0  0  1  0  0  0  0  0  0  0  0
   -3.9516    2.0564    3.9304 H   0  0  0  1  0  0  0  0  0  0  0  0
   -6.1269    0.6982    2.7858 H   0  0  0  1  0  0  0  0  0  0  0  0
   -6.2862    2.4189    2.5287 H   0  0  0  1  0  0  0  0  0  0  0  0
   -6.1762    1.7844    4.1533 H   0  0  0  1  0  0  0  0  0  0  0  0
   -0.1721   -1.6414    1.8790 H   0  0  0  1  0  0  0  0  0  0  0  0
   -1.5681   -2.6183    2.2656 H   0  0  0  1  0  0  0  0  0  0  0  0
   -0.4141   -2.2105    3.5131 H   0  0  0  1  0  0  0  0  0  0  0  0
   -4.1046    7.8373    0.4624 B   0  0  0  1  0  0  0  0  0  0  0  0
   -4.8408    8.0754   -0.6538 O   0  0  0  1  0  0  0  0  0  0  0  0
   -3.9584    8.8463    1.3691 O   0  0  0  1  0  0  0  0  0  0  0  0
   -3.4323    6.4154    0.7007 C   0  0  0  1  0  0  0  0  0  0  0  0
   -2.5380    6.2924    1.7473 C   0  0  0  1  0  0  0  0  0  0  0  0
   -1.8616    5.0986    1.9446 C   0  0  0  1  0  0  0  0  0  0  0  0
   -2.0777    4.0330    1.0913 C   0  0  0  1  0  0  0  0  0  0  0  0
   -2.9745    4.1562    0.0416 C   0  0  0  1  0  0  0  0  0  0  0  0
   -3.6488    5.3465   -0.1549 C   0  0  0  1  0  0  0  0  0  0  0  0
   -1.4299    2.6846    1.3267 C   0  0  0  1  0  0  0  0  0  0  0  0
   -4.3217    7.8598   -1.4320 H   0  0  0  1  0  0  0  0  0  0  0  0
   -4.6417    8.7761    2.0397 H   0  0  0  1  0  0  0  0  0  0  0  0
   -2.3725    7.0956    2.3869 H   0  0  0  1  0  0  0  0  0  0  0  0
   -1.1917    5.0048    2.7346 H   0  0  0  1  0  0  0  0  0  0  0  0
   -3.1400    3.3529   -0.5980 H   0  0  0  1  0  0  0  0  0  0  0  0
   -4.3187    5.4403   -0.9449 H   0  0  0  1  0  0  0  0  0  0  0  0
   -1.3776    2.1852    0.3819 H   0  0  0  1  0  0  0  0  0  0  0  0
   -0.4400    2.8642    1.6911 H   0  0  0  1  0  0  0  0  0  0  0  0
  1  4  1  0  0  0  0
  2  4  1  0  0  0  0
  2  5  2  0  0  0  0
  2  6  1  0  0  0  0
  3  4  1  0  0  0  0
  3  7  1  0  0  0  0
  3  8  1  0  0  0  0
  4 28  1  0  0  0  0
  6  9  1  0  0  0  0
  6 12  1  0  0  0  0
  8 10  1  0  0  0  0
  8 11  2  0  0  0  0
  9 13  1  0  0  0  0
  9 14  1  0  0  0  0
  9 15  1  0  0  0  0
 10 16  1  0  0  0  0
 10 17  1  0  0  0  0
 10 18  1  0  0  0  0
 19 20  1  0  0  0  0
 19 21  1  0  0  0  0
 19 22  1  0  0  0  0
 20 29  1  0  0  0  0
 21 30  1  0  0  0  0
 22 23  4  0  0  0  0
 22 27  4  0  0  0  0
 23 24  4  0  0  0  0
 23 31  1  0  0  0  0
 24 25  4  0  0  0  0
 24 32  1  0  0  0  0
 25 26  4  0  0  0  0
 25 28  1  0  0  0  0
 26 27  4  0  0  0  0
 26 33  1  0  0  0  0
 27 34  1  0  0  0  0
 28 35  1  0  0  0  0
 28 36  1  0  0  0  0
M  END
> <BCLConfClusterSize>
1

> <ConfClashScore>
0 

> <ConfOneFourInteractionScore>
-0.980757 

> <ConfScore>
-0.080567 

> <ConfScorePBest>
0.00549841 

> <ConfTolerance>
0.349409 

> <RosettaParamsInstructions>
M  ROOT 3
M  POLY_N_BB 3
M  POLY_CA_BB 4
M  POLY_C_BB 2
M  POLY_O_BB 5
M  POLY_IGNORE 9 10 11 12 13 14 15 16 17 18 
M  POLY_UPPER 6
M  POLY_LOWER 8
M  POLY_CHG 0
M  POLY_PROPERTIES ALPHA_AA L_AA PROTEIN AROMATIC POLYMER 
M  END

$$$$



 36 36  0  0  0  0  0  0  0  0999 V2000
   -2.2921    2.2289    3.2086 H   0  0  0  1  0  0  0  0  0  0  0  0
   -3.6749    1.6423    1.7254 C   0  0  0  1  0  0  0  0  0  0  0  0
   -1.6403    0.4619    2.3577 N   0  0  0  1  0  0  0  0  0  0  0  0
   -2.2549    1.7745    2.2405 C   0  0  0  1  0  0  0  0  0  0  0  0
   -3.9410    0.9211    0.7649 O   0  0  0  1  0  0  0  0  0  0  0  0
   -4.6020    2.3562    2.3819 N   0  0  0  1  0  0  0  0  0  0  0  0
   -1.4835   -0.0780    1.5550 H   0  0  0  1  0  0  0  0  0  0  0  0
   -1.2897   -0.0090    3.5555 C   0  0  0  1  0  0  0  0  0  0  0  0
   -5.9873    2.4234    1.9414 C   0  0  0  1  0  0  0  0  0  0  0  0
   -0.5730   -1.3452    3.5539 C   0  0  0  1  0  0  0  0  0  0  0  0
   -1.5256    0.5921    4.6113 O   0  0  0  1  0  0  0  0  0  0  0  0
   -4.3370    2.8497    3.1861 H   0  0  0  1  0  0  0  0  0  0  0  0
   -6.5547    3.0084    2.6347 H   0  0  0  1  0  0  0  0  0  0  0  0
   -6.3941    1.4350    1.8925 H   0  0  0  1  0  0  0  0  0  0  0  0
   -6.0318    2.8762    0.9729 H   0  0  0  1  0  0  0  0  0  0  0  0
    0.3751   -1.2415    3.0687 H   0  0  0  1  0  0  0  0  0  0  0  0
   -1.1646   -2.0664    3.0297 H   0  0  0  1  0  0  0  0  0  0  0  0
   -0.4236   -1.6707    4.5622 H   0  0  0  1  0  0  0  0  0  0  0  0
   -4.1205    7.8153    0.4298 B   0  0  0  1  0  0  0  0  0  0  0  0
   -3.7651    8.9515    1.0998 O   0  0  0  1  0  0  0  0  0  0  0  0
   -5.1482    7.8190   -0.4449 O   0  0  0  1  0  0  0  0  0  0  0  0
   -3.4285    6.4194    0.7079 C   0  0  0  1  0  0  0  0  0  0  0  0
   -2.5335    6.2923    1.7534 C   0  0  0  1  0  0  0  0  0  0  0  0
   -1.8591    5.0968    1.9471 C   0  0  0  1  0  0  0  0  0  0  0  0
   -2.0778    4.0336    1.0914 C   0  0  0  1  0  0  0  0  0  0  0  0
   -2.9754    4.1610    0.0428 C   0  0  0  1  0  0  0  0  0  0  0  0
   -3.6477    5.3530   -0.1502 C   0  0  0  1  0  0  0  0  0  0  0  0
   -1.4322    2.6835    1.3229 C   0  0  0  1  0  0  0  0  0  0  0  0
   -3.1596    9.4654    0.5606 H   0  0  0  1  0  0  0  0  0  0  0  0
   -4.9382    8.3952   -1.1835 H   0  0  0  1  0  0  0  0  0  0  0  0
   -2.3660    7.0936    2.3948 H   0  0  0  1  0  0  0  0  0  0  0  0
   -1.1886    4.9998    2.7362 H   0  0  0  1  0  0  0  0  0  0  0  0
   -3.1429    3.3596   -0.5986 H   0  0  0  1  0  0  0  0  0  0  0  0
   -4.3181    5.4499   -0.9393 H   0  0  0  1  0  0  0  0  0  0  0  0
   -1.3138    2.1960    0.3778 H   0  0  0  1  0  0  0  0  0  0  0  0
   -0.4714    2.8373    1.7682 H   0  0  0  1  0  0  0  0  0  0  0  0
  1  4  1  0  0  0  0
  2  4  1  0  0  0  0
  2  5  2  0  0  0  0
  2  6  1  0  0  0  0
  3  4  1  0  0  0  0
  3  7  1  0  0  0  0
  3  8  1  0  0  0  0
  4 28  1  0  0  0  0
  6  9  1  0  0  0  0
  6 12  1  0  0  0  0
  8 10  1  0  0  0  0
  8 11  2  0  0  0  0
  9 13  1  0  0  0  0
  9 14  1  0  0  0  0
  9 15  1  0  0  0  0
 10 16  1  0  0  0  0
 10 17  1  0  0  0  0
 10 18  1  0  0  0  0
 19 20  1  0  0  0  0
 19 21  1  0  0  0  0
 19 22  1  0  0  0  0
 20 29  1  0  0  0  0
 21 30  1  0  0  0  0
 22 23  4  0  0  0  0
 22 27  4  0  0  0  0
 23 24  4  0  0  0  0
 23 31  1  0  0  0  0
 24 25  4  0  0  0  0
 24 32  1  0  0  0  0
 25 26  4  0  0  0  0
 25 28  1  0  0  0  0
 26 27  4  0  0  0  0
 26 33  1  0  0  0  0
 27 34  1  0  0  0  0
 28 35  1  0  0  0  0
 28 36  1  0  0  0  0
M  END
> <BCLConfClusterSize>
1

> <ConfClashScore>
0 

> <ConfOneFourInteractionScore>
-0.988961 

> <ConfScore>
-0.0773737 

> <ConfScorePBest>
0.00546993 

> <ConfTolerance>
0.291359 

> <RosettaParamsInstructions>
M  ROOT 3
M  POLY_N_BB 3
M  POLY_CA_BB 4
M  POLY_C_BB 2
M  POLY_O_BB 5
M  POLY_IGNORE 9 10 11 12 13 14 15 16 17 18 
M  POLY_UPPER 6
M  POLY_LOWER 8
M  POLY_CHG 0
M  POLY_PROPERTIES ALPHA_AA L_AA PROTEIN AROMATIC POLYMER 
M  END

$$$$



 36 36  0  0  0  0  0  0  0  0999 V2000
    0.3387    1.6101    0.8957 H   0  0  0  1  0  0  0  0  0  0  0  0
   -0.5128    2.1865   -0.9395 C   0  0  0  1  0  0  0  0  0  0  0  0
    0.7450    3.6118    0.6465 N   0  0  0  1  0  0  0  0  0  0  0  0
   -0.1554    2.4768    0.5087 C   0  0  0  1  0  0  0  0  0  0  0  0
   -0.7572    1.0332   -1.2912 O   0  0  0  1  0  0  0  0  0  0  0  0
   -0.6272    3.2443   -1.7580 N   0  0  0  1  0  0  0  0  0  0  0  0
    0.4311    4.3781    1.1704 H   0  0  0  1  0  0  0  0  0  0  0  0
    2.0135    3.6906    0.0922 C   0  0  0  1  0  0  0  0  0  0  0  0
   -1.0740    3.1634   -3.1406 C   0  0  0  1  0  0  0  0  0  0  0  0
    2.8008    4.9614    0.2474 C   0  0  0  1  0  0  0  0  0  0  0  0
    2.4503    2.7205   -0.5060 O   0  0  0  1  0  0  0  0  0  0  0  0
   -0.3949    4.1273   -1.4018 H   0  0  0  1  0  0  0  0  0  0  0  0
   -0.7492    2.2375   -3.5674 H   0  0  0  1  0  0  0  0  0  0  0  0
   -0.6591    3.9775   -3.6975 H   0  0  0  1  0  0  0  0  0  0  0  0
   -2.1422    3.2158   -3.1736 H   0  0  0  1  0  0  0  0  0  0  0  0
    2.1502    5.8019    0.1239 H   0  0  0  1  0  0  0  0  0  0  0  0
    3.5719    4.9957   -0.4936 H   0  0  0  1  0  0  0  0  0  0  0  0
    3.2407    4.9913    1.2223 H   0  0  0  1  0  0  0  0  0  0  0  0
   -4.1219    7.8244    0.4318 B   0  0  0  1  0  0  0  0  0  0  0  0
   -3.6443    8.9266    1.0669 O   0  0  0  1  0  0  0  0  0  0  0  0
   -5.1039    7.9873   -0.4773 O   0  0  0  1  0  0  0  0  0  0  0  0
   -3.4284    6.4186    0.7077 C   0  0  0  1  0  0  0  0  0  0  0  0
   -2.5328    6.2875    1.7522 C   0  0  0  1  0  0  0  0  0  0  0  0
   -1.8604    5.0903    1.9427 C   0  0  0  1  0  0  0  0  0  0  0  0
   -2.0818    4.0295    1.0847 C   0  0  0  1  0  0  0  0  0  0  0  0
   -2.9800    4.1609    0.0371 C   0  0  0  1  0  0  0  0  0  0  0  0
   -3.6502    5.3546   -0.1526 C   0  0  0  1  0  0  0  0  0  0  0  0
   -1.4115    2.6988    1.3554 C   0  0  0  1  0  0  0  0  0  0  0  0
   -4.1874    9.1137    1.8361 H   0  0  0  1  0  0  0  0  0  0  0  0
   -5.8111    7.3627   -0.3005 H   0  0  0  1  0  0  0  0  0  0  0  0
   -2.3633    7.0870    2.3953 H   0  0  0  1  0  0  0  0  0  0  0  0
   -1.1895    4.9903    2.7310 H   0  0  0  1  0  0  0  0  0  0  0  0
   -3.1495    3.3613   -0.6060 H   0  0  0  1  0  0  0  0  0  0  0  0
   -4.3211    5.4545   -0.9410 H   0  0  0  1  0  0  0  0  0  0  0  0
   -1.1370    2.6597    2.3888 H   0  0  0  1  0  0  0  0  0  0  0  0
   -2.1092    1.9163    1.1413 H   0  0  0  1  0  0  0  0  0  0  0  0
  1  4  1  0  0  0  0
  2  4  1  0  0  0  0
  2  5  2  0  0  0  0
  2  6  1  0  0  0  0
  3  4  1  0  0  0  0
  3  7  1  0  0  0  0
  3  8  1  0  0  0  0
  4 28  1  0  0  0  0
  6  9  1  0  0  0  0
  6 12  1  0  0  0  0
  8 10  1  0  0  0  0
  8 11  2  0  0  0  0
  9 13  1  0  0  0  0
  9 14  1  0  0  0  0
  9 15  1  0  0  0  0
 10 16  1  0  0  0  0
 10 17  1  0  0  0  0
 10 18  1  0  0  0  0
 19 20  1  0  0  0  0
 19 21  1  0  0  0  0
 19 22  1  0  0  0  0
 20 29  1  0  0  0  0
 21 30  1  0  0  0  0
 22 23  4  0  0  0  0
 22 27  4  0  0  0  0
 23 24  4  0  0  0  0
 23 31  1  0  0  0  0
 24 25  4  0  0  0  0
 24 32  1  0  0  0  0
 25 26  4  0  0  0  0
 25 28  1  0  0  0  0
 26 27  4  0  0  0  0
 26 33  1  0  0  0  0
 27 34  1  0  0  0  0
 28 35  1  0  0  0  0
 28 36  1  0  0  0  0
M  END
> <BCLConfClusterSize>
1

> <ConfClashScore>
0 

> <ConfOneFourInteractionScore>
-0.961581 

> <ConfScore>
-0.0720465 

> <ConfScorePBest>
0.00544145 

> <ConfTolerance>
0.271448 

> <RosettaParamsInstructions>
M  ROOT 3
M  POLY_N_BB 3
M  POLY_CA_BB 4
M  POLY_C_BB 2
M  POLY_O_BB 5
M  POLY_IGNORE 9 10 11 12 13 14 15 16 17 18 
M  POLY_UPPER 6
M  POLY_LOWER 8
M  POLY_CHG 0
M  POLY_PROPERTIES ALPHA_AA L_AA PROTEIN AROMATIC POLYMER 
M  END

$$$$



 36 36  0  0  0  0  0  0  0  0999 V2000
   -1.5257    2.8751    3.4750 H   0  0  0  1  0  0  0  0  0  0  0  0
   -3.2351    1.8171    2.8308 C   0  0  0  1  0  0  0  0  0  0  0  0
   -0.9713    0.9358    3.0204 N   0  0  0  1  0  0  0  0  0  0  0  0
   -1.7542    2.1305    2.7414 C   0  0  0  1  0  0  0  0  0  0  0  0
   -3.7681    1.0490    2.0470 O   0  0  0  1  0  0  0  0  0  0  0  0
   -3.9035    2.4354    3.8172 N   0  0  0  1  0  0  0  0  0  0  0  0
   -0.9217    0.2174    2.3557 H   0  0  0  1  0  0  0  0  0  0  0  0
   -0.3137    0.8152    4.1922 C   0  0  0  1  0  0  0  0  0  0  0  0
   -5.3371    2.2077    3.9216 C   0  0  0  1  0  0  0  0  0  0  0  0
    0.4621   -0.4736    4.3826 C   0  0  0  1  0  0  0  0  0  0  0  0
   -0.3308    1.6898    5.0677 O   0  0  0  1  0  0  0  0  0  0  0  0
   -3.4393    3.0234    4.4490 H   0  0  0  1  0  0  0  0  0  0  0  0
   -5.7483    2.0658    2.9440 H   0  0  0  1  0  0  0  0  0  0  0  0
   -5.7998    3.0547    4.3835 H   0  0  0  1  0  0  0  0  0  0  0  0
   -5.5171    1.3350    4.5141 H   0  0  0  1  0  0  0  0  0  0  0  0
    1.0067   -0.6980    3.4893 H   0  0  0  1  0  0  0  0  0  0  0  0
   -0.2187   -1.2714    4.5948 H   0  0  0  1  0  0  0  0  0  0  0  0
    1.1457   -0.3610    5.1980 H   0  0  0  1  0  0  0  0  0  0  0  0
   -4.0834    7.8618    0.5018 B   0  0  0  1  0  0  0  0  0  0  0  0
   -4.7839    8.0809   -0.6409 O   0  0  0  1  0  0  0  0  0  0  0  0
   -3.9441    8.8399    1.4363 O   0  0  0  1  0  0  0  0  0  0  0  0
   -3.4367    6.4110    0.6924 C   0  0  0  1  0  0  0  0  0  0  0  0
   -2.5426    6.2886    1.7393 C   0  0  0  1  0  0  0  0  0  0  0  0
   -1.8662    5.0950    1.9372 C   0  0  0  1  0  0  0  0  0  0  0  0
   -2.0820    4.0289    1.0844 C   0  0  0  1  0  0  0  0  0  0  0  0
   -2.9786    4.1515    0.0345 C   0  0  0  1  0  0  0  0  0  0  0  0
   -3.6530    5.3417   -0.1628 C   0  0  0  1  0  0  0  0  0  0  0  0
   -1.4073    2.7022    1.3632 C   0  0  0  1  0  0  0  0  0  0  0  0
   -4.3807    8.8013   -1.1309 H   0  0  0  1  0  0  0  0  0  0  0  0
   -4.6177    8.7355    2.1123 H   0  0  0  1  0  0  0  0  0  0  0  0
   -2.3773    7.0921    2.3785 H   0  0  0  1  0  0  0  0  0  0  0  0
   -1.1964    5.0016    2.7274 H   0  0  0  1  0  0  0  0  0  0  0  0
   -3.1439    3.3480   -0.6048 H   0  0  0  1  0  0  0  0  0  0  0  0
   -4.3227    5.4351   -0.9529 H   0  0  0  1  0  0  0  0  0  0  0  0
   -1.7144    2.0003    0.6162 H   0  0  0  1  0  0  0  0  0  0  0  0
   -0.3477    2.8408    1.3089 H   0  0  0  1  0  0  0  0  0  0  0  0
  1  4  1  0  0  0  0
  2  4  1  0  0  0  0
  2  5  2  0  0  0  0
  2  6  1  0  0  0  0
  3  4  1  0  0  0  0
  3  7  1  0  0  0  0
  3  8  1  0  0  0  0
  4 28  1  0  0  0  0
  6  9  1  0  0  0  0
  6 12  1  0  0  0  0
  8 10  1  0  0  0  0
  8 11  2  0  0  0  0
  9 13  1  0  0  0  0
  9 14  1  0  0  0  0
  9 15  1  0  0  0  0
 10 16  1  0  0  0  0
 10 17  1  0  0  0  0
 10 18  1  0  0  0  0
 19 20  1  0  0  0  0
 19 21  1  0  0  0  0
 19 22  1  0  0  0  0
 20 29  1  0  0  0  0
 21 30  1  0  0  0  0
 22 23  4  0  0  0  0
 22 27  4  0  0  0  0
 23 24  4  0  0  0  0
 23 31  1  0  0  0  0
 24 25  4  0  0  0  0
 24 32  1  0  0  0  0
 25 26  4  0  0  0  0
 25 28  1  0  0  0  0
 26 27  4  0  0  0  0
 26 33  1  0  0  0  0
 27 34  1  0  0  0  0
 28 35  1  0  0  0  0
 28 36  1  0  0  0  0
M  END
> <BCLConfClusterSize>
1

> <ConfClashScore>
0 

> <ConfOneFourInteractionScore>
-0.977798 

> <ConfScore>
-0.0710418 

> <ConfScorePBest>
0.00541297 

> <ConfTolerance>
0.305327 

> <RosettaParamsInstructions>
M  ROOT 3
M  POLY_N_BB 3
M  POLY_CA_BB 4
M  POLY_C_BB 2
M  POLY_O_BB 5
M  POLY_IGNORE 9 10 11 12 13 14 15 16 17 18 
M  POLY_UPPER 6
M  POLY_LOWER 8
M  POLY_CHG 0
M  POLY_PROPERTIES ALPHA_AA L_AA PROTEIN AROMATIC POLYMER 
M  END

$$$$



 36 36  0  0  0  0  0  0  0  0999 V2000
   -2.4504    2.0475    3.0421 H   0  0  0  1  0  0  0  0  0  0  0  0
   -3.8124    1.8511    1.4746 C   0  0  0  1  0  0  0  0  0  0  0  0
   -1.8929    0.3653    2.0278 N   0  0  0  1  0  0  0  0  0  0  0  0
   -2.4038    1.7280    2.0220 C   0  0  0  1  0  0  0  0  0  0  0  0
   -4.6415    2.5759    2.0232 O   0  0  0  1  0  0  0  0  0  0  0  0
   -4.1263    1.1467    0.3757 N   0  0  0  1  0  0  0  0  0  0  0  0
   -0.9746    0.1862    1.7361 H   0  0  0  1  0  0  0  0  0  0  0  0
   -2.6796   -0.6504    2.4334 C   0  0  0  1  0  0  0  0  0  0  0  0
   -5.4950    1.0217   -0.1029 C   0  0  0  1  0  0  0  0  0  0  0  0
   -2.0548   -2.0337    2.3734 C   0  0  0  1  0  0  0  0  0  0  0  0
   -3.8236   -0.4887    2.8269 O   0  0  0  1  0  0  0  0  0  0  0  0
   -3.4089    0.7012   -0.1214 H   0  0  0  1  0  0  0  0  0  0  0  0
   -5.8349    1.9697   -0.4643 H   0  0  0  1  0  0  0  0  0  0  0  0
   -6.1251    0.6993    0.6995 H   0  0  0  1  0  0  0  0  0  0  0  0
   -5.5311    0.3042   -0.8959 H   0  0  0  1  0  0  0  0  0  0  0  0
   -1.0180   -1.9687    2.6297 H   0  0  0  1  0  0  0  0  0  0  0  0
   -2.1531   -2.4266    1.3830 H   0  0  0  1  0  0  0  0  0  0  0  0
   -2.5531   -2.6802    3.0652 H   0  0  0  1  0  0  0  0  0  0  0  0
   -4.1206    7.8154    0.4298 B   0  0  0  1  0  0  0  0  0  0  0  0
   -5.4066    8.0436    0.8246 O   0  0  0  1  0  0  0  0  0  0  0  0
   -3.4519    8.8178   -0.2074 O   0  0  0  1  0  0  0  0  0  0  0  0
   -3.4286    6.4195    0.7078 C   0  0  0  1  0  0  0  0  0  0  0  0
   -2.5336    6.2924    1.7534 C   0  0  0  1  0  0  0  0  0  0  0  0
   -1.8591    5.0969    1.9471 C   0  0  0  1  0  0  0  0  0  0  0  0
   -2.0778    4.0337    1.0914 C   0  0  0  1  0  0  0  0  0  0  0  0
   -2.9754    4.1611    0.0428 C   0  0  0  1  0  0  0  0  0  0  0  0
   -3.6477    5.3531   -0.1502 C   0  0  0  1  0  0  0  0  0  0  0  0
   -1.4314    2.6820    1.3232 C   0  0  0  1  0  0  0  0  0  0  0  0
   -5.8959    7.2178    0.8157 H   0  0  0  1  0  0  0  0  0  0  0  0
   -3.1949    8.5245   -1.0846 H   0  0  0  1  0  0  0  0  0  0  0  0
   -2.3661    7.0937    2.3948 H   0  0  0  1  0  0  0  0  0  0  0  0
   -1.1887    5.0000    2.7362 H   0  0  0  1  0  0  0  0  0  0  0  0
   -3.1429    3.3598   -0.5986 H   0  0  0  1  0  0  0  0  0  0  0  0
   -4.3182    5.4500   -0.9393 H   0  0  0  1  0  0  0  0  0  0  0  0
   -1.1458    2.2635    0.3807 H   0  0  0  1  0  0  0  0  0  0  0  0
   -0.5632    2.8087    1.9355 H   0  0  0  1  0  0  0  0  0  0  0  0
  1  4  1  0  0  0  0
  2  4  1  0  0  0  0
  2  5  2  0  0  0  0
  2  6  1  0  0  0  0
  3  4  1  0  0  0  0
  3  7  1  0  0  0  0
  3  8  1  0  0  0  0
  4 28  1  0  0  0  0
  6  9  1  0  0  0  0
  6 12  1  0  0  0  0
  8 10  1  0  0  0  0
  8 11  2  0  0  0  0
  9 13  1  0  0  0  0
  9 14  1  0  0  0  0
  9 15  1  0  0  0  0
 10 16  1  0  0  0  0
 10 17  1  0  0  0  0
 10 18  1  0  0  0  0
 19 20  1  0  0  0  0
 19 21  1  0  0  0  0
 19 22  1  0  0  0  0
 20 29  1  0  0  0  0
 21 30  1  0  0  0  0
 22 23  4  0  0  0  0
 22 27  4  0  0  0  0
 23 24  4  0  0  0  0
 23 31  1  0  0  0  0
 24 25  4  0  0  0  0
 24 32  1  0  0  0  0
 25 26  4  0  0  0  0
 25 28  1  0  0  0  0
 26 27  4  0  0  0  0
 26 33  1  0  0  0  0
 27 34  1  0  0  0  0
 28 35  1  0  0  0  0
 28 36  1  0  0  0  0
M  END
> <BCLConfClusterSize>
1

> <ConfClashScore>
0 

> <ConfOneFourInteractionScore>
-0.96064 

> <ConfScore>
-0.0659828 

> <ConfScorePBest>
0.00538449 

> <ConfTolerance>
0.705198 

> <RosettaParamsInstructions>
M  ROOT 3
M  POLY_N_BB 3
M  POLY_CA_BB 4
M  POLY_C_BB 2
M  POLY_O_BB 5
M  POLY_IGNORE 9 10 11 12 13 14 15 16 17 18 
M  POLY_UPPER 6
M  POLY_LOWER 8
M  POLY_CHG 0
M  POLY_PROPERTIES ALPHA_AA L_AA PROTEIN AROMATIC POLYMER 
M  END

$$$$



 36 36  0  0  0  0  0  0  0  0999 V2000
   -2.7698    2.2030    2.8975 H   0  0  0  1  0  0  0  0  0  0  0  0
   -3.4351    1.2445    1.1389 C   0  0  0  1  0  0  0  0  0  0  0  0
   -1.5673    0.5589    2.5455 N   0  0  0  1  0  0  0  0  0  0  0  0
   -2.3239    1.7044    2.0624 C   0  0  0  1  0  0  0  0  0  0  0  0
   -3.3261    0.3426    0.3245 O   0  0  0  1  0  0  0  0  0  0  0  0
   -4.5740    1.9256    1.2936 N   0  0  0  1  0  0  0  0  0  0  0  0
   -0.5955    0.5282    2.4235 H   0  0  0  1  0  0  0  0  0  0  0  0
   -2.2011   -0.4608    3.1610 C   0  0  0  1  0  0  0  0  0  0  0  0
   -5.7364    1.6991    0.4478 C   0  0  0  1  0  0  0  0  0  0  0  0
   -1.3308   -1.6321    3.5564 C   0  0  0  1  0  0  0  0  0  0  0  0
   -3.3996   -0.4557    3.3921 O   0  0  0  1  0  0  0  0  0  0  0  0
   -4.6285    2.6014    2.0013 H   0  0  0  1  0  0  0  0  0  0  0  0
   -6.4108    2.5248    0.5390 H   0  0  0  1  0  0  0  0  0  0  0  0
   -6.2299    0.8003    0.7536 H   0  0  0  1  0  0  0  0  0  0  0  0
   -5.4231    1.6056   -0.5710 H   0  0  0  1  0  0  0  0  0  0  0  0
   -0.6018   -1.8091    2.7934 H   0  0  0  1  0  0  0  0  0  0  0  0
   -1.9395   -2.5039    3.6768 H   0  0  0  1  0  0  0  0  0  0  0  0
   -0.8351   -1.4124    4.4789 H   0  0  0  1  0  0  0  0  0  0  0  0
   -4.1435    7.8100    0.3943 B   0  0  0  1  0  0  0  0  0  0  0  0
   -4.0345    8.9108    1.1822 O   0  0  0  1  0  0  0  0  0  0  0  0
   -4.9123    7.9230   -0.7218 O   0  0  0  1  0  0  0  0  0  0  0  0
   -3.4240    6.4220    0.7158 C   0  0  0  1  0  0  0  0  0  0  0  0
   -2.5276    6.2863    1.7590 C   0  0  0  1  0  0  0  0  0  0  0  0
   -1.8572    5.0874    1.9455 C   0  0  0  1  0  0  0  0  0  0  0  0
   -2.0814    4.0294    1.0849 C   0  0  0  1  0  0  0  0  0  0  0  0
   -2.9804    4.1653    0.0386 C   0  0  0  1  0  0  0  0  0  0  0  0
   -3.6487    5.3607   -0.1472 C   0  0  0  1  0  0  0  0  0  0  0  0
   -1.4133    2.6967    1.3512 C   0  0  0  1  0  0  0  0  0  0  0  0
   -4.8983    9.1413    1.5321 H   0  0  0  1  0  0  0  0  0  0  0  0
   -4.3867    8.2879   -1.4374 H   0  0  0  1  0  0  0  0  0  0  0  0
   -2.3560    7.0838    2.4041 H   0  0  0  1  0  0  0  0  0  0  0  0
   -1.1857    4.9841    2.7329 H   0  0  0  1  0  0  0  0  0  0  0  0
   -3.1520    3.3678   -0.6065 H   0  0  0  1  0  0  0  0  0  0  0  0
   -4.3202    5.4640   -0.9346 H   0  0  0  1  0  0  0  0  0  0  0  0
   -1.1130    2.2733    0.4156 H   0  0  0  1  0  0  0  0  0  0  0  0
   -0.5501    2.8643    1.9609 H   0  0  0  1  0  0  0  0  0  0  0  0
  1  4  1  0  0  0  0
  2  4  1  0  0  0  0
  2  5  2  0  0  0  0
  2  6  1  0  0  0  0
  3  4  1  0  0  0  0
  3  7  1  0  0  0  0
  3  8  1  0  0  0  0
  4 28  1  0  0  0  0
  6  9  1  0  0  0  0
  6 12  1  0  0  0  0
  8 10  1  0  0  0  0
  8 11  2  0  0  0  0
  9 13  1  0  0  0  0
  9 14  1  0  0  0  0
  9 15  1  0  0  0  0
 10 16  1  0  0  0  0
 10 17  1  0  0  0  0
 10 18  1  0  0  0  0
 19 20  1  0  0  0  0
 19 21  1  0  0  0  0
 19 22  1  0  0  0  0
 20 29  1  0  0  0  0
 21 30  1  0  0  0  0
 22 23  4  0  0  0  0
 22 27  4  0  0  0  0
 23 24  4  0  0  0  0
 23 31  1  0  0  0  0
 24 25  4  0  0  0  0
 24 32  1  0  0  0  0
 25 26  4  0  0  0  0
 25 28  1  0  0  0  0
 26 27  4  0  0  0  0
 26 33  1  0  0  0  0
 27 34  1  0  0  0  0
 28 35  1  0  0  0  0
 28 36  1  0  0  0  0
M  END
> <BCLConfClusterSize>
1

> <ConfClashScore>
0 

> <ConfOneFourInteractionScore>
-0.982988 

> <ConfScore>
-0.0652817 

> <ConfScorePBest>
0.00535601 

> <ConfTolerance>
0.316501 

> <RosettaParamsInstructions>
M  ROOT 3
M  POLY_N_BB 3
M  POLY_CA_BB 4
M  POLY_C_BB 2
M  POLY_O_BB 5
M  POLY_IGNORE 9 10 11 12 13 14 15 16 17 18 
M  POLY_UPPER 6
M  POLY_LOWER 8
M  POLY_CHG 0
M  POLY_PROPERTIES ALPHA_AA L_AA PROTEIN AROMATIC POLYMER 
M  END

$$$$



 36 36  0  0  0  0  0  0  0  0999 V2000
   -2.3116    2.4852    3.2636 H   0  0  0  1  0  0  0  0  0  0  0  0
   -3.5105    1.4194    1.8911 C   0  0  0  1  0  0  0  0  0  0  0  0
   -1.3979    0.6881    2.8361 N   0  0  0  1  0  0  0  0  0  0  0  0
   -2.1456    1.8617    2.4100 C   0  0  0  1  0  0  0  0  0  0  0  0
   -3.5375    0.6555    0.9270 O   0  0  0  1  0  0  0  0  0  0  0  0
   -4.5716    1.9036    2.5334 N   0  0  0  1  0  0  0  0  0  0  0  0
   -1.2464   -0.0178    2.1735 H   0  0  0  1  0  0  0  0  0  0  0  0
   -0.8976    0.4988    4.0747 C   0  0  0  1  0  0  0  0  0  0  0  0
   -5.9333    1.6482    2.0880 C   0  0  0  1  0  0  0  0  0  0  0  0
    0.0077   -0.6907    4.3015 C   0  0  0  1  0  0  0  0  0  0  0  0
   -1.1685    1.2700    4.9943 O   0  0  0  1  0  0  0  0  0  0  0  0
   -4.4307    2.4510    3.3339 H   0  0  0  1  0  0  0  0  0  0  0  0
   -5.9236    1.3571    1.0583 H   0  0  0  1  0  0  0  0  0  0  0  0
   -6.5181    2.5370    2.2016 H   0  0  0  1  0  0  0  0  0  0  0  0
   -6.3594    0.8626    2.6764 H   0  0  0  1  0  0  0  0  0  0  0  0
    1.0133   -0.3528    4.4414 H   0  0  0  1  0  0  0  0  0  0  0  0
   -0.0355   -1.3387    3.4511 H   0  0  0  1  0  0  0  0  0  0  0  0
   -0.3140   -1.2225    5.1725 H   0  0  0  1  0  0  0  0  0  0  0  0
   -4.0834    7.8618    0.5018 B   0  0  0  1  0  0  0  0  0  0  0  0
   -4.8948    8.0935   -0.5624 O   0  0  0  1  0  0  0  0  0  0  0  0
   -3.7898    8.8088    1.4223 O   0  0  0  1  0  0  0  0  0  0  0  0
   -3.4367    6.4110    0.6924 C   0  0  0  1  0  0  0  0  0  0  0  0
   -2.5426    6.2886    1.7393 C   0  0  0  1  0  0  0  0  0  0  0  0
   -1.8662    5.0950    1.9372 C   0  0  0  1  0  0  0  0  0  0  0  0
   -2.0820    4.0289    1.0844 C   0  0  0  1  0  0  0  0  0  0  0  0
   -2.9786    4.1515    0.0345 C   0  0  0  1  0  0  0  0  0  0  0  0
   -3.6530    5.3417   -0.1628 C   0  0  0  1  0  0  0  0  0  0  0  0
   -1.4073    2.7022    1.3632 C   0  0  0  1  0  0  0  0  0  0  0  0
   -4.5907    7.5807   -1.3149 H   0  0  0  1  0  0  0  0  0  0  0  0
   -2.9360    9.1984    1.2202 H   0  0  0  1  0  0  0  0  0  0  0  0
   -2.3773    7.0921    2.3785 H   0  0  0  1  0  0  0  0  0  0  0  0
   -1.1964    5.0016    2.7274 H   0  0  0  1  0  0  0  0  0  0  0  0
   -3.1439    3.3480   -0.6048 H   0  0  0  1  0  0  0  0  0  0  0  0
   -4.3227    5.4351   -0.9529 H   0  0  0  1  0  0  0  0  0  0  0  0
   -1.3606    2.1454    0.4507 H   0  0  0  1  0  0  0  0  0  0  0  0
   -0.4154    2.8921    1.7168 H   0  0  0  1  0  0  0  0  0  0  0  0
  1  4  1  0  0  0  0
  2  4  1  0  0  0  0
  2  5  2  0  0  0  0
  2  6  1  0  0  0  0
  3  4  1  0  0  0  0
  3  7  1  0  0  0  0
  3  8  1  0  0  0  0
  4 28  1  0  0  0  0
  6  9  1  0  0  0  0
  6 12  1  0  0  0  0
  8 10  1  0  0  0  0
  8 11  2  0  0  0  0
  9 13  1  0  0  0  0
  9 14  1  0  0  0  0
  9 15  1  0  0  0  0
 10 16  1  0  0  0  0
 10 17  1  0  0  0  0
 10 18  1  0  0  0  0
 19 20  1  0  0  0  0
 19 21  1  0  0  0  0
 19 22  1  0  0  0  0
 20 29  1  0  0  0  0
 21 30  1  0  0  0  0
 22 23  4  0  0  0  0
 22 27  4  0  0  0  0
 23 24  4  0  0  0  0
 23 31  1  0  0  0  0
 24 25  4  0  0  0  0
 24 32  1  0  0  0  0
 25 26  4  0  0  0  0
 25 28  1  0  0  0  0
 26 27  4  0  0  0  0
 26 33  1  0  0  0  0
 27 34  1  0  0  0  0
 28 35  1  0  0  0  0
 28 36  1  0  0  0  0
M  END
> <BCLConfClusterSize>
1

> <ConfClashScore>
0 

> <ConfOneFourInteractionScore>
-0.98664 

> <ConfScore>
-0.0647746 

> <ConfScorePBest>
0.00532753 

> <ConfTolerance>
0.317937 

> <RosettaParamsInstructions>
M  ROOT 3
M  POLY_N_BB 3
M  POLY_CA_BB 4
M  POLY_C_BB 2
M  POLY_O_BB 5
M  POLY_IGNORE 9 10 11 12 13 14 15 16 17 18 
M  POLY_UPPER 6
M  POLY_LOWER 8
M  POLY_CHG 0
M  POLY_PROPERTIES ALPHA_AA L_AA PROTEIN AROMATIC POLYMER 
M  END

$$$$



 36 36  0  0  0  0  0  0  0  0999 V2000
   -1.3844    2.3100   -0.7359 H   0  0  0  1  0  0  0  0  0  0  0  0
   -0.5497    0.6227    0.1625 C   0  0  0  1  0  0  0  0  0  0  0  0
   -2.9551    1.2501    0.0253 N   0  0  0  1  0  0  0  0  0  0  0  0
   -1.5859    1.7295    0.1401 C   0  0  0  1  0  0  0  0  0  0  0  0
    0.5794    0.7974   -0.2881 O   0  0  0  1  0  0  0  0  0  0  0  0
   -0.9500   -0.5401    0.7010 N   0  0  0  1  0  0  0  0  0  0  0  0
   -3.4590    1.0575    0.8434 H   0  0  0  1  0  0  0  0  0  0  0  0
   -3.5491    1.0635   -1.1568 C   0  0  0  1  0  0  0  0  0  0  0  0
   -0.0198   -1.6174    1.0041 C   0  0  0  1  0  0  0  0  0  0  0  0
   -4.9519    0.4900   -1.1059 C   0  0  0  1  0  0  0  0  0  0  0  0
   -3.0127    1.3316   -2.2199 O   0  0  0  1  0  0  0  0  0  0  0  0
   -1.9017   -0.6678    0.8967 H   0  0  0  1  0  0  0  0  0  0  0  0
    0.9403   -1.2058    1.2357 H   0  0  0  1  0  0  0  0  0  0  0  0
    0.0649   -2.2644    0.1561 H   0  0  0  1  0  0  0  0  0  0  0  0
   -0.3807   -2.1743    1.8435 H   0  0  0  1  0  0  0  0  0  0  0  0
   -5.4155    0.7617   -0.1806 H   0  0  0  1  0  0  0  0  0  0  0  0
   -4.9039   -0.5763   -1.1809 H   0  0  0  1  0  0  0  0  0  0  0  0
   -5.5261    0.8799   -1.9202 H   0  0  0  1  0  0  0  0  0  0  0  0
   -4.1014    7.8308    0.4635 B   0  0  0  1  0  0  0  0  0  0  0  0
   -3.6216    8.8798    1.1805 O   0  0  0  1  0  0  0  0  0  0  0  0
   -5.1134    7.9094   -0.4415 O   0  0  0  1  0  0  0  0  0  0  0  0
   -3.4325    6.4160    0.7006 C   0  0  0  1  0  0  0  0  0  0  0  0
   -2.5382    6.2930    1.7472 C   0  0  0  1  0  0  0  0  0  0  0  0
   -1.8619    5.0992    1.9445 C   0  0  0  1  0  0  0  0  0  0  0  0
   -2.0780    4.0335    1.0912 C   0  0  0  1  0  0  0  0  0  0  0  0
   -2.9748    4.1568    0.0415 C   0  0  0  1  0  0  0  0  0  0  0  0
   -3.6490    5.3471   -0.1551 C   0  0  0  1  0  0  0  0  0  0  0  0
   -1.4302    2.6851    1.3266 C   0  0  0  1  0  0  0  0  0  0  0  0
   -4.1357    8.9800    1.9850 H   0  0  0  1  0  0  0  0  0  0  0  0
   -4.8011    8.3524   -1.2338 H   0  0  0  1  0  0  0  0  0  0  0  0
   -2.3727    7.0962    2.3868 H   0  0  0  1  0  0  0  0  0  0  0  0
   -1.1920    5.0054    2.7345 H   0  0  0  1  0  0  0  0  0  0  0  0
   -3.1404    3.3536   -0.5981 H   0  0  0  1  0  0  0  0  0  0  0  0
   -4.3189    5.4409   -0.9450 H   0  0  0  1  0  0  0  0  0  0  0  0
   -0.3865    2.8357    1.5081 H   0  0  0  1  0  0  0  0  0  0  0  0
   -1.8812    2.2362    2.1869 H   0  0  0  1  0  0  0  0  0  0  0  0
  1  4  1  0  0  0  0
  2  4  1  0  0  0  0
  2  5  2  0  0  0  0
  2  6  1  0  0  0  0
  3  4  1  0  0  0  0
  3  7  1  0  0  0  0
  3  8  1  0  0  0  0
  4 28  1  0  0  0  0
  6  9  1  0  0  0  0
  6 12  1  0  0  0  0
  8 10  1  0  0  0  0
  8 11  2  0  0  0  0
  9 13  1  0  0  0  0
  9 14  1  0  0  0  0
  9 15  1  0  0  0  0
 10 16  1  0  0  0  0
 10 17  1  0  0  0  0
 10 18  1  0  0  0  0
 19 20  1  0  0  0  0
 19 21  1  0  0  0  0
 19 22  1  0  0  0  0
 20 29  1  0  0  0  0
 21 30  1  0  0  0  0
 22 23  4  0  0  0  0
 22 27  4  0  0  0  0
 23 24  4  0  0  0  0
 23 31  1  0  0  0  0
 24 25  4  0  0  0  0
 24 32  1  0  0  0  0
 25 26  4  0  0  0  0
 25 28  1  0  0  0  0
 26 27  4  0  0  0  0
 26 33  1  0  0  0  0
 27 34  1  0  0  0  0
 28 35  1  0  0  0  0
 28 36  1  0  0  0  0
M  END
> <BCLConfClusterSize>
1

> <ConfClashScore>
0 

> <ConfOneFourInteractionScore>
-0.960334 

> <ConfScore>
-0.0647693 

> <ConfScorePBest>
0.00529905 

> <ConfTolerance>
0.401793 

> <RosettaParamsInstructions>
M  ROOT 3
M  POLY_N_BB 3
M  POLY_CA_BB 4
M  POLY_C_BB 2
M  POLY_O_BB 5
M  POLY_IGNORE 9 10 11 12 13 14 15 16 17 18 
M  POLY_UPPER 6
M  POLY_LOWER 8
M  POLY_CHG 0
M  POLY_PROPERTIES ALPHA_AA L_AA PROTEIN AROMATIC POLYMER 
M  END

$$$$



 36 36  0  0  0  0  0  0  0  0999 V2000
    0.5430    3.3767    0.8923 H   0  0  0  1  0  0  0  0  0  0  0  0
    0.5890    1.2640    0.8794 C   0  0  0  1  0  0  0  0  0  0  0  0
   -0.3314    2.7076   -0.8579 N   0  0  0  1  0  0  0  0  0  0  0  0
   -0.1000    2.5831    0.5735 C   0  0  0  1  0  0  0  0  0  0  0  0
    0.4674    0.2990    0.1260 O   0  0  0  1  0  0  0  0  0  0  0  0
    1.3326    1.1841    1.9941 N   0  0  0  1  0  0  0  0  0  0  0  0
   -0.5572    1.8926   -1.3529 H   0  0  0  1  0  0  0  0  0  0  0  0
   -0.2585    3.8607   -1.5546 C   0  0  0  1  0  0  0  0  0  0  0  0
    1.9797   -0.0513    2.4101 C   0  0  0  1  0  0  0  0  0  0  0  0
   -0.3462    3.7867   -3.0666 C   0  0  0  1  0  0  0  0  0  0  0  0
   -0.1258    4.9330   -0.9870 O   0  0  0  1  0  0  0  0  0  0  0  0
    1.4437    1.9855    2.5471 H   0  0  0  1  0  0  0  0  0  0  0  0
    2.6533    0.1521    3.2161 H   0  0  0  1  0  0  0  0  0  0  0  0
    2.5238   -0.4636    1.5861 H   0  0  0  1  0  0  0  0  0  0  0  0
    1.2375   -0.7509    2.7337 H   0  0  0  1  0  0  0  0  0  0  0  0
   -0.3791    2.7619   -3.3727 H   0  0  0  1  0  0  0  0  0  0  0  0
    0.5117    4.2598   -3.4969 H   0  0  0  1  0  0  0  0  0  0  0  0
   -1.2329    4.2860   -3.3970 H   0  0  0  1  0  0  0  0  0  0  0  0
   -4.1435    7.8100    0.3943 B   0  0  0  1  0  0  0  0  0  0  0  0
   -4.8584    7.8475   -0.7599 O   0  0  0  1  0  0  0  0  0  0  0  0
   -4.0849    8.9182    1.1803 O   0  0  0  1  0  0  0  0  0  0  0  0
   -3.4240    6.4220    0.7158 C   0  0  0  1  0  0  0  0  0  0  0  0
   -2.5276    6.2863    1.7590 C   0  0  0  1  0  0  0  0  0  0  0  0
   -1.8572    5.0874    1.9455 C   0  0  0  1  0  0  0  0  0  0  0  0
   -2.0814    4.0294    1.0849 C   0  0  0  1  0  0  0  0  0  0  0  0
   -2.9804    4.1653    0.0386 C   0  0  0  1  0  0  0  0  0  0  0  0
   -3.6487    5.3607   -0.1472 C   0  0  0  1  0  0  0  0  0  0  0  0
   -1.4133    2.6967    1.3512 C   0  0  0  1  0  0  0  0  0  0  0  0
   -4.2714    7.7013   -1.5053 H   0  0  0  1  0  0  0  0  0  0  0  0
   -3.2782    9.4030    0.9912 H   0  0  0  1  0  0  0  0  0  0  0  0
   -2.3560    7.0838    2.4041 H   0  0  0  1  0  0  0  0  0  0  0  0
   -1.1857    4.9841    2.7329 H   0  0  0  1  0  0  0  0  0  0  0  0
   -3.1520    3.3678   -0.6065 H   0  0  0  1  0  0  0  0  0  0  0  0
   -4.3202    5.4640   -0.9346 H   0  0  0  1  0  0  0  0  0  0  0  0
   -1.2098    2.6093    2.3981 H   0  0  0  1  0  0  0  0  0  0  0  0
   -2.0700    1.9083    1.0480 H   0  0  0  1  0  0  0  0  0  0  0  0
  1  4  1  0  0  0  0
  2  4  1  0  0  0  0
  2  5  2  0  0  0  0
  2  6  1  0  0  0  0
  3  4  1  0  0  0  0
  3  7  1  0  0  0  0
  3  8  1  0  0  0  0
  4 28  1  0  0  0  0
  6  9  1  0  0  0  0
  6 12  1  0  0  0  0
  8 10  1  0  0  0  0
  8 11  2  0  0  0  0
  9 13  1  0  0  0  0
  9 14  1  0  0  0  0
  9 15  1  0  0  0  0
 10 16  1  0  0  0  0
 10 17  1  0  0  0  0
 10 18  1  0  0  0  0
 19 20  1  0  0  0  0
 19 21  1  0  0  0  0
 19 22  1  0  0  0  0
 20 29  1  0  0  0  0
 21 30  1  0  0  0  0
 22 23  4  0  0  0  0
 22 27  4  0  0  0  0
 23 24  4  0  0  0  0
 23 31  1  0  0  0  0
 24 25  4  0  0  0  0
 24 32  1  0  0  0  0
 25 26  4  0  0  0  0
 25 28  1  0  0  0  0
 26 27  4  0  0  0  0
 26 33  1  0  0  0  0
 27 34  1  0  0  0  0
 28 35  1  0  0  0  0
 28 36  1  0  0  0  0
M  END
> <BCLConfClusterSize>
1

> <ConfClashScore>
0 

> <ConfOneFourInteractionScore>
-0.992613 

> <ConfScore>
-0.0610428 

> <ConfScorePBest>
0.00527057 

> <ConfTolerance>
0.403198 

> <RosettaParamsInstructions>
M  ROOT 3
M  POLY_N_BB 3
M  POLY_CA_BB 4
M  POLY_C_BB 2
M  POLY_O_BB 5
M  POLY_IGNORE 9 10 11 12 13 14 15 16 17 18 
M  POLY_UPPER 6
M  POLY_LOWER 8
M  POLY_CHG 0
M  POLY_PROPERTIES ALPHA_AA L_AA PROTEIN AROMATIC POLYMER 
M  END

$$$$



 36 36  0  0  0  0  0  0  0  0999 V2000
   -3.2278    1.6396    1.6741 H   0  0  0  1  0  0  0  0  0  0  0  0
   -1.6660    0.3673    2.2706 C   0  0  0  1  0  0  0  0  0  0  0  0
   -2.5380    2.3389    3.4818 N   0  0  0  1  0  0  0  0  0  0  0  0
   -2.2890    1.7465    2.1761 C   0  0  0  1  0  0  0  0  0  0  0  0
   -0.5474    0.2080    2.7309 O   0  0  0  1  0  0  0  0  0  0  0  0
   -2.4170   -0.6397    1.8220 N   0  0  0  1  0  0  0  0  0  0  0  0
   -1.9712    3.0615    3.8238 H   0  0  0  1  0  0  0  0  0  0  0  0
   -3.6002    1.8520    4.2283 C   0  0  0  1  0  0  0  0  0  0  0  0
   -1.9627   -2.0178    1.7264 C   0  0  0  1  0  0  0  0  0  0  0  0
   -3.9098    2.4835    5.5565 C   0  0  0  1  0  0  0  0  0  0  0  0
   -4.2496    0.9245    3.7806 O   0  0  0  1  0  0  0  0  0  0  0  0
   -3.3332   -0.4380    1.5387 H   0  0  0  1  0  0  0  0  0  0  0  0
   -0.8930   -2.0416    1.7200 H   0  0  0  1  0  0  0  0  0  0  0  0
   -2.3343   -2.4537    0.8226 H   0  0  0  1  0  0  0  0  0  0  0  0
   -2.3265   -2.5720    2.5662 H   0  0  0  1  0  0  0  0  0  0  0  0
   -4.4462    1.7872    6.1667 H   0  0  0  1  0  0  0  0  0  0  0  0
   -4.5071    3.3582    5.4047 H   0  0  0  1  0  0  0  0  0  0  0  0
   -2.9966    2.7547    6.0437 H   0  0  0  1  0  0  0  0  0  0  0  0
   -4.0858    7.8602    0.4984 B   0  0  0  1  0  0  0  0  0  0  0  0
   -4.8482    8.1994   -0.5732 O   0  0  0  1  0  0  0  0  0  0  0  0
   -3.8505    8.7854    1.4669 O   0  0  0  1  0  0  0  0  0  0  0  0
   -3.4366    6.4111    0.6928 C   0  0  0  1  0  0  0  0  0  0  0  0
   -2.5431    6.2927    1.7406 C   0  0  0  1  0  0  0  0  0  0  0  0
   -1.8645    5.1008    1.9418 C   0  0  0  1  0  0  0  0  0  0  0  0
   -2.0776    4.0324    1.0912 C   0  0  0  1  0  0  0  0  0  0  0  0
   -2.9737    4.1510    0.0403 C   0  0  0  1  0  0  0  0  0  0  0  0
   -3.6501    5.3394   -0.1602 C   0  0  0  1  0  0  0  0  0  0  0  0
   -1.4274    2.6860    1.3309 C   0  0  0  1  0  0  0  0  0  0  0  0
   -5.7744    8.1980   -0.3209 H   0  0  0  1  0  0  0  0  0  0  0  0
   -3.3860    9.5352    1.0877 H   0  0  0  1  0  0  0  0  0  0  0  0
   -2.3798    7.0980    2.3782 H   0  0  0  1  0  0  0  0  0  0  0  0
   -1.1952    5.0105    2.7326 H   0  0  0  1  0  0  0  0  0  0  0  0
   -3.1370    3.3457   -0.5973 H   0  0  0  1  0  0  0  0  0  0  0  0
   -4.3194    5.4297   -0.9510 H   0  0  0  1  0  0  0  0  0  0  0  0
   -1.2459    2.2220    0.3839 H   0  0  0  1  0  0  0  0  0  0  0  0
   -0.4972    2.8421    1.8362 H   0  0  0  1  0  0  0  0  0  0  0  0
  1  4  1  0  0  0  0
  2  4  1  0  0  0  0
  2  5  2  0  0  0  0
  2  6  1  0  0  0  0
  3  4  1  0  0  0  0
  3  7  1  0  0  0  0
  3  8  1  0  0  0  0
  4 28  1  0  0  0  0
  6  9  1  0  0  0  0
  6 12  1  0  0  0  0
  8 10  1  0  0  0  0
  8 11  2  0  0  0  0
  9 13  1  0  0  0  0
  9 14  1  0  0  0  0
  9 15  1  0  0  0  0
 10 16  1  0  0  0  0
 10 17  1  0  0  0  0
 10 18  1  0  0  0  0
 19 20  1  0  0  0  0
 19 21  1  0  0  0  0
 19 22  1  0  0  0  0
 20 29  1  0  0  0  0
 21 30  1  0  0  0  0
 22 23  4  0  0  0  0
 22 27  4  0  0  0  0
 23 24  4  0  0  0  0
 23 31  1  0  0  0  0
 24 25  4  0  0  0  0
 24 32  1  0  0  0  0
 25 26  4  0  0  0  0
 25 28  1  0  0  0  0
 26 27  4  0  0  0  0
 26 33  1  0  0  0  0
 27 34  1  0  0  0  0
 28 35  1  0  0  0  0
 28 36  1  0  0  0  0
M  END
> <BCLConfClusterSize>
1

> <ConfClashScore>
0 

> <ConfOneFourInteractionScore>
-0.977798 

> <ConfScore>
-0.0607835 

> <ConfScorePBest>
0.00524209 

> <ConfTolerance>
0.305314 

> <RosettaParamsInstructions>
M  ROOT 3
M  POLY_N_BB 3
M  POLY_CA_BB 4
M  POLY_C_BB 2
M  POLY_O_BB 5
M  POLY_IGNORE 9 10 11 12 13 14 15 16 17 18 
M  POLY_UPPER 6
M  POLY_LOWER 8
M  POLY_CHG 0
M  POLY_PROPERTIES ALPHA_AA L_AA PROTEIN AROMATIC POLYMER 
M  END

$$$$



 36 36  0  0  0  0  0  0  0  0999 V2000
   -3.0819    1.7937    2.2348 H   0  0  0  1  0  0  0  0  0  0  0  0
   -1.4802    0.4599    2.4922 C   0  0  0  1  0  0  0  0  0  0  0  0
   -1.9284    2.5138    3.7695 N   0  0  0  1  0  0  0  0  0  0  0  0
   -2.0404    1.8776    2.4654 C   0  0  0  1  0  0  0  0  0  0  0  0
   -1.2659   -0.2141    1.5016 O   0  0  0  1  0  0  0  0  0  0  0  0
   -1.2370    0.0054    3.7248 N   0  0  0  1  0  0  0  0  0  0  0  0
   -1.0274    2.6659    4.1235 H   0  0  0  1  0  0  0  0  0  0  0  0
   -2.9717    2.9098    4.5278 C   0  0  0  1  0  0  0  0  0  0  0  0
   -0.4704   -1.2073    3.9689 C   0  0  0  1  0  0  0  0  0  0  0  0
   -2.6845    3.4148    5.9237 C   0  0  0  1  0  0  0  0  0  0  0  0
   -4.1145    2.8628    4.1019 O   0  0  0  1  0  0  0  0  0  0  0  0
   -1.5869    0.5060    4.4911 H   0  0  0  1  0  0  0  0  0  0  0  0
    0.4321   -1.1811    3.3946 H   0  0  0  1  0  0  0  0  0  0  0  0
   -1.0506   -2.0595    3.6824 H   0  0  0  1  0  0  0  0  0  0  0  0
   -0.2290   -1.2730    5.0093 H   0  0  0  1  0  0  0  0  0  0  0  0
   -3.5218    3.2089    6.5573 H   0  0  0  1  0  0  0  0  0  0  0  0
   -2.5123    4.4704    5.8925 H   0  0  0  1  0  0  0  0  0  0  0  0
   -1.8163    2.9225    6.3093 H   0  0  0  1  0  0  0  0  0  0  0  0
   -4.1053    7.8456    0.4647 B   0  0  0  1  0  0  0  0  0  0  0  0
   -5.0170    7.9904   -0.5401 O   0  0  0  1  0  0  0  0  0  0  0  0
   -3.7615    8.9395    1.1529 O   0  0  0  1  0  0  0  0  0  0  0  0
   -3.4317    6.4139    0.7005 C   0  0  0  1  0  0  0  0  0  0  0  0
   -2.5369    6.2869    1.7462 C   0  0  0  1  0  0  0  0  0  0  0  0
   -1.8626    5.0914    1.9403 C   0  0  0  1  0  0  0  0  0  0  0  0
   -2.0813    4.0281    1.0849 C   0  0  0  1  0  0  0  0  0  0  0  0
   -2.9787    4.1553    0.0361 C   0  0  0  1  0  0  0  0  0  0  0  0
   -3.6509    5.3473   -0.1573 C   0  0  0  1  0  0  0  0  0  0  0  0
   -1.4136    2.7083    1.3576 C   0  0  0  1  0  0  0  0  0  0  0  0
   -5.9029    7.9983   -0.1703 H   0  0  0  1  0  0  0  0  0  0  0  0
   -3.3301    9.5649    0.5660 H   0  0  0  1  0  0  0  0  0  0  0  0
   -2.3694    7.0884    2.3874 H   0  0  0  1  0  0  0  0  0  0  0  0
   -1.1923    4.9946    2.7295 H   0  0  0  1  0  0  0  0  0  0  0  0
   -3.1463    3.3538   -0.6051 H   0  0  0  1  0  0  0  0  0  0  0  0
   -4.3212    5.4441   -0.9465 H   0  0  0  1  0  0  0  0  0  0  0  0
   -1.4416    2.1318    0.4566 H   0  0  0  1  0  0  0  0  0  0  0  0
   -0.3961    2.9024    1.6260 H   0  0  0  1  0  0  0  0  0  0  0  0
  1  4  1  0  0  0  0
  2  4  1  0  0  0  0
  2  5  2  0  0  0  0
  2  6  1  0  0  0  0
  3  4  1  0  0  0  0
  3  7  1  0  0  0  0
  3  8  1  0  0  0  0
  4 28  1  0  0  0  0
  6  9  1  0  0  0  0
  6 12  1  0  0  0  0
  8 10  1  0  0  0  0
  8 11  2  0  0  0  0
  9 13  1  0  0  0  0
  9 14  1  0  0  0  0
  9 15  1  0  0  0  0
 10 16  1  0  0  0  0
 10 17  1  0  0  0  0
 10 18  1  0  0  0  0
 19 20  1  0  0  0  0
 19 21  1  0  0  0  0
 19 22  1  0  0  0  0
 20 29  1  0  0  0  0
 21 30  1  0  0  0  0
 22 23  4  0  0  0  0
 22 27  4  0  0  0  0
 23 24  4  0  0  0  0
 23 31  1  0  0  0  0
 24 25  4  0  0  0  0
 24 32  1  0  0  0  0
 25 26  4  0  0  0  0
 25 28  1  0  0  0  0
 26 27  4  0  0  0  0
 26 33  1  0  0  0  0
 27 34  1  0  0  0  0
 28 35  1  0  0  0  0
 28 36  1  0  0  0  0
M  END
> <BCLConfClusterSize>
1

> <ConfClashScore>
0 

> <ConfOneFourInteractionScore>
-0.958269 

> <ConfScore>
-0.0585161 

> <ConfScorePBest>
0.00521361 

> <ConfTolerance>
0.297162 

> <RosettaParamsInstructions>
M  ROOT 3
M  POLY_N_BB 3
M  POLY_CA_BB 4
M  POLY_C_BB 2
M  POLY_O_BB 5
M  POLY_IGNORE 9 10 11 12 13 14 15 16 17 18 
M  POLY_UPPER 6
M  POLY_LOWER 8
M  POLY_CHG 0
M  POLY_PROPERTIES ALPHA_AA L_AA PROTEIN AROMATIC POLYMER 
M  END

$$$$



 36 36  0  0  0  0  0  0  0  0999 V2000
    0.2344    1.5173    0.7382 H   0  0  0  1  0  0  0  0  0  0  0  0
   -0.5380    2.4189   -1.0043 C   0  0  0  1  0  0  0  0  0  0  0  0
    0.8395    3.4841    0.7629 N   0  0  0  1  0  0  0  0  0  0  0  0
   -0.1673    2.4735    0.4750 C   0  0  0  1  0  0  0  0  0  0  0  0
   -0.2847    3.3536   -1.7597 O   0  0  0  1  0  0  0  0  0  0  0  0
   -1.1458    1.3025   -1.4086 N   0  0  0  1  0  0  0  0  0  0  0  0
    0.8951    4.2742    0.1858 H   0  0  0  1  0  0  0  0  0  0  0  0
    1.6905    3.3724    1.7868 C   0  0  0  1  0  0  0  0  0  0  0  0
   -1.6165    1.1825   -2.7805 C   0  0  0  1  0  0  0  0  0  0  0  0
    2.7327    4.4679    1.8997 C   0  0  0  1  0  0  0  0  0  0  0  0
    1.6465    2.4414    2.6011 O   0  0  0  1  0  0  0  0  0  0  0  0
   -1.2757    0.5615   -0.7805 H   0  0  0  1  0  0  0  0  0  0  0  0
   -2.2861    1.9877   -3.0001 H   0  0  0  1  0  0  0  0  0  0  0  0
   -2.1280    0.2505   -2.9015 H   0  0  0  1  0  0  0  0  0  0  0  0
   -0.7815    1.2211   -3.4484 H   0  0  0  1  0  0  0  0  0  0  0  0
    2.3815    5.3477    1.4021 H   0  0  0  1  0  0  0  0  0  0  0  0
    3.6442    4.1409    1.4445 H   0  0  0  1  0  0  0  0  0  0  0  0
    2.9079    4.6882    2.9320 H   0  0  0  1  0  0  0  0  0  0  0  0
   -4.0974    7.8174    0.4092 B   0  0  0  1  0  0  0  0  0  0  0  0
   -4.4393    8.7139    1.3790 O   0  0  0  1  0  0  0  0  0  0  0  0
   -4.3288    8.1256   -0.8888 O   0  0  0  1  0  0  0  0  0  0  0  0
   -3.4361    6.4171    0.7155 C   0  0  0  1  0  0  0  0  0  0  0  0
   -2.5378    6.2861    1.7577 C   0  0  0  1  0  0  0  0  0  0  0  0
   -1.8608    5.0908    1.9433 C   0  0  0  1  0  0  0  0  0  0  0  0
   -2.0803    4.0317    1.0829 C   0  0  0  1  0  0  0  0  0  0  0  0
   -2.9812    4.1629    0.0376 C   0  0  0  1  0  0  0  0  0  0  0  0
   -3.6560    5.3547   -0.1474 C   0  0  0  1  0  0  0  0  0  0  0  0
   -1.4048    2.7026    1.3483 C   0  0  0  1  0  0  0  0  0  0  0  0
   -3.6624    9.2121    1.6432 H   0  0  0  1  0  0  0  0  0  0  0  0
   -3.5438    7.9364   -1.4079 H   0  0  0  1  0  0  0  0  0  0  0  0
   -2.3698    7.0844    2.4027 H   0  0  0  1  0  0  0  0  0  0  0  0
   -1.1879    4.9909    2.7300 H   0  0  0  1  0  0  0  0  0  0  0  0
   -3.1492    3.3646   -0.6075 H   0  0  0  1  0  0  0  0  0  0  0  0
   -4.3290    5.4545   -0.9340 H   0  0  0  1  0  0  0  0  0  0  0  0
   -1.1072    2.6709    2.3756 H   0  0  0  1  0  0  0  0  0  0  0  0
   -2.1074    1.9189    1.1556 H   0  0  0  1  0  0  0  0  0  0  0  0
  1  4  1  0  0  0  0
  2  4  1  0  0  0  0
  2  5  2  0  0  0  0
  2  6  1  0  0  0  0
  3  4  1  0  0  0  0
  3  7  1  0  0  0  0
  3  8  1  0  0  0  0
  4 28  1  0  0  0  0
  6  9  1  0  0  0  0
  6 12  1  0  0  0  0
  8 10  1  0  0  0  0
  8 11  2  0  0  0  0
  9 13  1  0  0  0  0
  9 14  1  0  0  0  0
  9 15  1  0  0  0  0
 10 16  1  0  0  0  0
 10 17  1  0  0  0  0
 10 18  1  0  0  0  0
 19 20  1  0  0  0  0
 19 21  1  0  0  0  0
 19 22  1  0  0  0  0
 20 29  1  0  0  0  0
 21 30  1  0  0  0  0
 22 23  4  0  0  0  0
 22 27  4  0  0  0  0
 23 24  4  0  0  0  0
 23 31  1  0  0  0  0
 24 25  4  0  0  0  0
 24 32  1  0  0  0  0
 25 26  4  0  0  0  0
 25 28  1  0  0  0  0
 26 27  4  0  0  0  0
 26 33  1  0  0  0  0
 27 34  1  0  0  0  0
 28 35  1  0  0  0  0
 28 36  1  0  0  0  0
M  END
> <BCLConfClusterSize>
1

> <ConfClashScore>
0 

> <ConfOneFourInteractionScore>
-0.985058 

> <ConfScore>
-0.0579094 

> <ConfScorePBest>
0.00518512 

> <ConfTolerance>
0.379168 

> <RosettaParamsInstructions>
M  ROOT 3
M  POLY_N_BB 3
M  POLY_CA_BB 4
M  POLY_C_BB 2
M  POLY_O_BB 5
M  POLY_IGNORE 9 10 11 12 13 14 15 16 17 18 
M  POLY_UPPER 6
M  POLY_LOWER 8
M  POLY_CHG 0
M  POLY_PROPERTIES ALPHA_AA L_AA PROTEIN AROMATIC POLYMER 
M  END

$$$$



 36 36  0  0  0  0  0  0  0  0999 V2000
   -1.9789    2.4981    3.3517 H   0  0  0  1  0  0  0  0  0  0  0  0
   -3.5629    1.6654    2.2593 C   0  0  0  1  0  0  0  0  0  0  0  0
   -1.4055    0.6281    2.7292 N   0  0  0  1  0  0  0  0  0  0  0  0
   -2.0697    1.9073    2.4643 C   0  0  0  1  0  0  0  0  0  0  0  0
   -3.9838    0.5818    1.8890 O   0  0  0  1  0  0  0  0  0  0  0  0
   -4.3634    2.7131    2.5117 N   0  0  0  1  0  0  0  0  0  0  0  0
   -0.7436    0.3176    2.0766 H   0  0  0  1  0  0  0  0  0  0  0  0
   -1.6429   -0.1758    3.8337 C   0  0  0  1  0  0  0  0  0  0  0  0
   -5.7775    2.8416    2.1930 C   0  0  0  1  0  0  0  0  0  0  0  0
   -0.9788   -1.5216    3.9139 C   0  0  0  1  0  0  0  0  0  0  0  0
   -2.3870    0.2385    4.7080 O   0  0  0  1  0  0  0  0  0  0  0  0
   -3.9483    3.4784    2.9617 H   0  0  0  1  0  0  0  0  0  0  0  0
   -6.1447    1.9100    1.8159 H   0  0  0  1  0  0  0  0  0  0  0  0
   -5.9082    3.6024    1.4520 H   0  0  0  1  0  0  0  0  0  0  0  0
   -6.3193    3.1068    3.0767 H   0  0  0  1  0  0  0  0  0  0  0  0
   -0.9332   -1.9562    2.9371 H   0  0  0  1  0  0  0  0  0  0  0  0
   -1.5429   -2.1595    4.5618 H   0  0  0  1  0  0  0  0  0  0  0  0
    0.0127   -1.4074    4.2997 H   0  0  0  1  0  0  0  0  0  0  0  0
   -4.0990    7.8208    0.4085 B   0  0  0  1  0  0  0  0  0  0  0  0
   -3.8210    8.9552    1.1139 O   0  0  0  1  0  0  0  0  0  0  0  0
   -4.9992    7.9298   -0.6098 O   0  0  0  1  0  0  0  0  0  0  0  0
   -3.4360    6.4168    0.7156 C   0  0  0  1  0  0  0  0  0  0  0  0
   -2.5377    6.2858    1.7578 C   0  0  0  1  0  0  0  0  0  0  0  0
   -1.8607    5.0905    1.9434 C   0  0  0  1  0  0  0  0  0  0  0  0
   -2.0801    4.0314    1.0829 C   0  0  0  1  0  0  0  0  0  0  0  0
   -2.9810    4.1626    0.0376 C   0  0  0  1  0  0  0  0  0  0  0  0
   -3.6559    5.3544   -0.1473 C   0  0  0  1  0  0  0  0  0  0  0  0
   -1.4046    2.7023    1.3483 C   0  0  0  1  0  0  0  0  0  0  0  0
   -4.3985    9.0064    1.8790 H   0  0  0  1  0  0  0  0  0  0  0  0
   -5.8626    7.6397   -0.3067 H   0  0  0  1  0  0  0  0  0  0  0  0
   -2.3696    7.0841    2.4028 H   0  0  0  1  0  0  0  0  0  0  0  0
   -1.1877    4.9906    2.7300 H   0  0  0  1  0  0  0  0  0  0  0  0
   -3.1490    3.3642   -0.6074 H   0  0  0  1  0  0  0  0  0  0  0  0
   -4.3288    5.4542   -0.9339 H   0  0  0  1  0  0  0  0  0  0  0  0
   -1.4341    2.1200    0.4511 H   0  0  0  1  0  0  0  0  0  0  0  0
   -0.3865    2.8862    1.6213 H   0  0  0  1  0  0  0  0  0  0  0  0
  1  4  1  0  0  0  0
  2  4  1  0  0  0  0
  2  5  2  0  0  0  0
  2  6  1  0  0  0  0
  3  4  1  0  0  0  0
  3  7  1  0  0  0  0
  3  8  1  0  0  0  0
  4 28  1  0  0  0  0
  6  9  1  0  0  0  0
  6 12  1  0  0  0  0
  8 10  1  0  0  0  0
  8 11  2  0  0  0  0
  9 13  1  0  0  0  0
  9 14  1  0  0  0  0
  9 15  1  0  0  0  0
 10 16  1  0  0  0  0
 10 17  1  0  0  0  0
 10 18  1  0  0  0  0
 19 20  1  0  0  0  0
 19 21  1  0  0  0  0
 19 22  1  0  0  0  0
 20 29  1  0  0  0  0
 21 30  1  0  0  0  0
 22 23  4  0  0  0  0
 22 27  4  0  0  0  0
 23 24  4  0  0  0  0
 23 31  1  0  0  0  0
 24 25  4  0  0  0  0
 24 32  1  0  0  0  0
 25 26  4  0  0  0  0
 25 28  1  0  0  0  0
 26 27  4  0  0  0  0
 26 33  1  0  0  0  0
 27 34  1  0  0  0  0
 28 35  1  0  0  0  0
 28 36  1  0  0  0  0
M  END
> <BCLConfClusterSize>
1

> <ConfClashScore>
0 

> <ConfOneFourInteractionScore>
-0.99043 

> <ConfScore>
-0.053204 

> <ConfScorePBest>
0.00515664 

> <ConfTolerance>
0.37263 

> <RosettaParamsInstructions>
M  ROOT 3
M  POLY_N_BB 3
M  POLY_CA_BB 4
M  POLY_C_BB 2
M  POLY_O_BB 5
M  POLY_IGNORE 9 10 11 12 13 14 15 16 17 18 
M  POLY_UPPER 6
M  POLY_LOWER 8
M  POLY_CHG 0
M  POLY_PROPERTIES ALPHA_AA L_AA PROTEIN AROMATIC POLYMER 
M  END

$$$$



 36 36  0  0  0  0  0  0  0  0999 V2000
   -1.2217    2.8878    3.4167 H   0  0  0  1  0  0  0  0  0  0  0  0
   -0.0763    1.2306    2.7947 C   0  0  0  1  0  0  0  0  0  0  0  0
    0.4720    3.6358    2.5026 N   0  0  0  1  0  0  0  0  0  0  0  0
   -0.5885    2.6430    2.5897 C   0  0  0  1  0  0  0  0  0  0  0  0
   -0.7875    0.3597    3.2941 O   0  0  0  1  0  0  0  0  0  0  0  0
    1.1864    1.0050    2.3988 N   0  0  0  1  0  0  0  0  0  0  0  0
    0.6042    4.1138    1.6573 H   0  0  0  1  0  0  0  0  0  0  0  0
    1.2716    3.9184    3.5350 C   0  0  0  1  0  0  0  0  0  0  0  0
    1.8232   -0.3036    2.4039 C   0  0  0  1  0  0  0  0  0  0  0  0
    2.3231    5.0081    3.3239 C   0  0  0  1  0  0  0  0  0  0  0  0
    1.2372    3.2898    4.5806 O   0  0  0  1  0  0  0  0  0  0  0  0
    1.7130    1.7702    2.0863 H   0  0  0  1  0  0  0  0  0  0  0  0
    2.3528   -0.4468    1.4853 H   0  0  0  1  0  0  0  0  0  0  0  0
    1.0764   -1.0630    2.5069 H   0  0  0  1  0  0  0  0  0  0  0  0
    2.5086   -0.3632    3.2234 H   0  0  0  1  0  0  0  0  0  0  0  0
    1.9233    5.7724    2.6908 H   0  0  0  1  0  0  0  0  0  0  0  0
    3.1905    4.5822    2.8644 H   0  0  0  1  0  0  0  0  0  0  0  0
    2.5915    5.4323    4.2689 H   0  0  0  1  0  0  0  0  0  0  0  0
   -4.1201    7.8146    0.4299 B   0  0  0  1  0  0  0  0  0  0  0  0
   -5.0521    8.3850    1.2380 O   0  0  0  1  0  0  0  0  0  0  0  0
   -3.4245    8.5187   -0.5081 O   0  0  0  1  0  0  0  0  0  0  0  0
   -3.4282    6.4187    0.7080 C   0  0  0  1  0  0  0  0  0  0  0  0
   -2.5332    6.2916    1.7535 C   0  0  0  1  0  0  0  0  0  0  0  0
   -1.8588    5.0961    1.9472 C   0  0  0  1  0  0  0  0  0  0  0  0
   -2.0775    4.0329    1.0916 C   0  0  0  1  0  0  0  0  0  0  0  0
   -2.9751    4.1603    0.0429 C   0  0  0  1  0  0  0  0  0  0  0  0
   -3.6473    5.3523   -0.1501 C   0  0  0  1  0  0  0  0  0  0  0  0
   -1.4357    2.6908    1.3217 C   0  0  0  1  0  0  0  0  0  0  0  0
   -5.7909    8.6927    0.7077 H   0  0  0  1  0  0  0  0  0  0  0  0
   -3.4172    8.0307   -1.3348 H   0  0  0  1  0  0  0  0  0  0  0  0
   -2.3657    7.0929    2.3949 H   0  0  0  1  0  0  0  0  0  0  0  0
   -1.1883    4.9991    2.7364 H   0  0  0  1  0  0  0  0  0  0  0  0
   -3.1426    3.3590   -0.5985 H   0  0  0  1  0  0  0  0  0  0  0  0
   -4.3178    5.4492   -0.9392 H   0  0  0  1  0  0  0  0  0  0  0  0
   -2.2071    1.9534    1.3994 H   0  0  0  1  0  0  0  0  0  0  0  0
   -0.8088    2.4651    0.4845 H   0  0  0  1  0  0  0  0  0  0  0  0
  1  4  1  0  0  0  0
  2  4  1  0  0  0  0
  2  5  2  0  0  0  0
  2  6  1  0  0  0  0
  3  4  1  0  0  0  0
  3  7  1  0  0  0  0
  3  8  1  0  0  0  0
  4 28  1  0  0  0  0
  6  9  1  0  0  0  0
  6 12  1  0  0  0  0
  8 10  1  0  0  0  0
  8 11  2  0  0  0  0
  9 13  1  0  0  0  0
  9 14  1  0  0  0  0
  9 15  1  0  0  0  0
 10 16  1  0  0  0  0
 10 17  1  0  0  0  0
 10 18  1  0  0  0  0
 19 20  1  0  0  0  0
 19 21  1  0  0  0  0
 19 22  1  0  0  0  0
 20 29  1  0  0  0  0
 21 30  1  0  0  0  0
 22 23  4  0  0  0  0
 22 27  4  0  0  0  0
 23 24  4  0  0  0  0
 23 31  1  0  0  0  0
 24 25  4  0  0  0  0
 24 32  1  0  0  0  0
 25 26  4  0  0  0  0
 25 28  1  0  0  0  0
 26 27  4  0  0  0  0
 26 33  1  0  0  0  0
 27 34  1  0  0  0  0
 28 35  1  0  0  0  0
 28 36  1  0  0  0  0
M  END
> <BCLConfClusterSize>
1

> <ConfClashScore>
0 

> <ConfOneFourInteractionScore>
-0.960334 

> <ConfScore>
-0.0488535 

> <ConfScorePBest>
0.00512816 

> <ConfTolerance>
0.462062 

> <RosettaParamsInstructions>
M  ROOT 3
M  POLY_N_BB 3
M  POLY_CA_BB 4
M  POLY_C_BB 2
M  POLY_O_BB 5
M  POLY_IGNORE 9 10 11 12 13 14 15 16 17 18 
M  POLY_UPPER 6
M  POLY_LOWER 8
M  POLY_CHG 0
M  POLY_PROPERTIES ALPHA_AA L_AA PROTEIN AROMATIC POLYMER 
M  END

$$$$



 36 36  0  0  0  0  0  0  0  0999 V2000
   -3.0166    1.5181    0.6225 H   0  0  0  1  0  0  0  0  0  0  0  0
   -1.6686    0.2061    1.6101 C   0  0  0  1  0  0  0  0  0  0  0  0
   -3.2626    1.7413    2.6641 N   0  0  0  1  0  0  0  0  0  0  0  0
   -2.4083    1.5456    1.5024 C   0  0  0  1  0  0  0  0  0  0  0  0
   -1.1414   -0.2783    0.6223 O   0  0  0  1  0  0  0  0  0  0  0  0
   -1.5675   -0.3322    2.8358 N   0  0  0  1  0  0  0  0  0  0  0  0
   -2.8807    2.2621    3.4013 H   0  0  0  1  0  0  0  0  0  0  0  0
   -4.5084    1.2916    2.8400 C   0  0  0  1  0  0  0  0  0  0  0  0
   -0.9485   -1.6151    3.1338 C   0  0  0  1  0  0  0  0  0  0  0  0
   -5.1229    1.6041    4.2025 C   0  0  0  1  0  0  0  0  0  0  0  0
   -5.1162    0.6051    2.0088 O   0  0  0  1  0  0  0  0  0  0  0  0
   -1.9384    0.1772    3.5863 H   0  0  0  1  0  0  0  0  0  0  0  0
   -1.4489   -2.0690    3.9636 H   0  0  0  1  0  0  0  0  0  0  0  0
    0.0824   -1.4653    3.3778 H   0  0  0  1  0  0  0  0  0  0  0  0
   -1.0240   -2.2544    2.2790 H   0  0  0  1  0  0  0  0  0  0  0  0
   -5.7188    0.7756    4.5240 H   0  0  0  1  0  0  0  0  0  0  0  0
   -5.7377    2.4764    4.1246 H   0  0  0  1  0  0  0  0  0  0  0  0
   -4.3428    1.7793    4.9136 H   0  0  0  1  0  0  0  0  0  0  0  0
   -4.1144    7.8095    0.4346 B   0  0  0  1  0  0  0  0  0  0  0  0
   -3.8109    8.5227   -0.6806 O   0  0  0  1  0  0  0  0  0  0  0  0
   -5.0224    8.3272    1.3046 O   0  0  0  1  0  0  0  0  0  0  0  0
   -3.4290    6.4200    0.7074 C   0  0  0  1  0  0  0  0  0  0  0  0
   -2.5334    6.2888    1.7519 C   0  0  0  1  0  0  0  0  0  0  0  0
   -1.8611    5.0916    1.9424 C   0  0  0  1  0  0  0  0  0  0  0  0
   -2.0825    4.0308    1.0845 C   0  0  0  1  0  0  0  0  0  0  0  0
   -2.9807    4.1622    0.0369 C   0  0  0  1  0  0  0  0  0  0  0  0
   -3.6508    5.3560   -0.1529 C   0  0  0  1  0  0  0  0  0  0  0  0
   -1.4123    2.7001    1.3552 C   0  0  0  1  0  0  0  0  0  0  0  0
   -4.3334    8.2007   -1.4189 H   0  0  0  1  0  0  0  0  0  0  0  0
   -4.6526    9.1049    1.7287 H   0  0  0  1  0  0  0  0  0  0  0  0
   -2.3639    7.0884    2.3950 H   0  0  0  1  0  0  0  0  0  0  0  0
   -1.1902    4.9916    2.7308 H   0  0  0  1  0  0  0  0  0  0  0  0
   -3.1502    3.3627   -0.6062 H   0  0  0  1  0  0  0  0  0  0  0  0
   -4.3217    5.4559   -0.9413 H   0  0  0  1  0  0  0  0  0  0  0  0
   -0.7528    2.4793    0.5421 H   0  0  0  1  0  0  0  0  0  0  0  0
   -0.8483    2.7808    2.2609 H   0  0  0  1  0  0  0  0  0  0  0  0
  1  4  1  0  0  0  0
  2  4  1  0  0  0  0
  2  5  2  0  0  0  0
  2  6  1  0  0  0  0
  3  4  1  0  0  0  0
  3  7  1  0  0  0  0
  3  8  1  0  0  0  0
  4 28  1  0  0  0  0
  6  9  1  0  0  0  0
  6 12  1  0  0  0  0
  8 10  1  0  0  0  0
  8 11  2  0  0  0  0
  9 13  1  0  0  0  0
  9 14  1  0  0  0  0
  9 15  1  0  0  0  0
 10 16  1  0  0  0  0
 10 17  1  0  0  0  0
 10 18  1  0  0  0  0
 19 20  1  0  0  0  0
 19 21  1  0  0  0  0
 19 22  1  0  0  0  0
 20 29  1  0  0  0  0
 21 30  1  0  0  0  0
 22 23  4  0  0  0  0
 22 27  4  0  0  0  0
 23 24  4  0  0  0  0
 23 31  1  0  0  0  0
 24 25  4  0  0  0  0
 24 32  1  0  0  0  0
 25 26  4  0  0  0  0
 25 28  1  0  0  0  0
 26 27  4  0  0  0  0
 26 33  1  0  0  0  0
 27 34  1  0  0  0  0
 28 35  1  0  0  0  0
 28 36  1  0  0  0  0
M  END
> <BCLConfClusterSize>
1

> <ConfClashScore>
0 

> <ConfOneFourInteractionScore>
-0.969136 

> <ConfScore>
-0.0432951 

> <ConfScorePBest>
0.00509968 

> <ConfTolerance>
0.443277 

> <RosettaParamsInstructions>
M  ROOT 3
M  POLY_N_BB 3
M  POLY_CA_BB 4
M  POLY_C_BB 2
M  POLY_O_BB 5
M  POLY_IGNORE 9 10 11 12 13 14 15 16 17 18 
M  POLY_UPPER 6
M  POLY_LOWER 8
M  POLY_CHG 0
M  POLY_PROPERTIES ALPHA_AA L_AA PROTEIN AROMATIC POLYMER 
M  END

$$$$



 36 36  0  0  0  0  0  0  0  0999 V2000
   -3.3199    1.9063    1.7400 H   0  0  0  1  0  0  0  0  0  0  0  0
   -2.0376    0.3168    1.2090 C   0  0  0  1  0  0  0  0  0  0  0  0
   -2.1413    1.5032    3.3805 N   0  0  0  1  0  0  0  0  0  0  0  0
   -2.3061    1.6288    1.9401 C   0  0  0  1  0  0  0  0  0  0  0  0
   -2.6625    0.0111    0.2068 O   0  0  0  1  0  0  0  0  0  0  0  0
   -1.0817   -0.4611    1.7396 N   0  0  0  1  0  0  0  0  0  0  0  0
   -1.5251    2.1105    3.8408 H   0  0  0  1  0  0  0  0  0  0  0  0
   -2.8258    0.5542    4.1244 C   0  0  0  1  0  0  0  0  0  0  0  0
   -0.7433   -1.7637    1.1859 C   0  0  0  1  0  0  0  0  0  0  0  0
   -2.6111    0.4973    5.6108 C   0  0  0  1  0  0  0  0  0  0  0  0
   -3.5833   -0.2069    3.5442 O   0  0  0  1  0  0  0  0  0  0  0  0
   -0.5946   -0.1410    2.5274 H   0  0  0  1  0  0  0  0  0  0  0  0
    0.2927   -1.9675    1.3598 H   0  0  0  1  0  0  0  0  0  0  0  0
   -0.9348   -1.7643    0.1332 H   0  0  0  1  0  0  0  0  0  0  0  0
   -1.3388   -2.5172    1.6577 H   0  0  0  1  0  0  0  0  0  0  0  0
   -3.2837    1.1741    6.0950 H   0  0  0  1  0  0  0  0  0  0  0  0
   -1.6026    0.7747    5.8362 H   0  0  0  1  0  0  0  0  0  0  0  0
   -2.7943   -0.4976    5.9596 H   0  0  0  1  0  0  0  0  0  0  0  0
   -4.0951    7.8129    0.4100 B   0  0  0  1  0  0  0  0  0  0  0  0
   -4.9701    7.8866   -0.6268 O   0  0  0  1  0  0  0  0  0  0  0  0
   -3.8398    8.9435    1.1214 O   0  0  0  1  0  0  0  0  0  0  0  0
   -3.4358    6.4167    0.7155 C   0  0  0  1  0  0  0  0  0  0  0  0
   -2.5376    6.2857    1.7578 C   0  0  0  1  0  0  0  0  0  0  0  0
   -1.8606    5.0904    1.9434 C   0  0  0  1  0  0  0  0  0  0  0  0
   -2.0801    4.0312    1.0830 C   0  0  0  1  0  0  0  0  0  0  0  0
   -2.9810    4.1624    0.0377 C   0  0  0  1  0  0  0  0  0  0  0  0
   -3.6558    5.3543   -0.1473 C   0  0  0  1  0  0  0  0  0  0  0  0
   -1.4092    2.7112    1.3466 C   0  0  0  1  0  0  0  0  0  0  0  0
   -4.5072    8.1745   -1.4170 H   0  0  0  1  0  0  0  0  0  0  0  0
   -3.1391    9.4404    0.6927 H   0  0  0  1  0  0  0  0  0  0  0  0
   -2.3695    7.0841    2.4027 H   0  0  0  1  0  0  0  0  0  0  0  0
   -1.1877    4.9905    2.7301 H   0  0  0  1  0  0  0  0  0  0  0  0
   -3.1490    3.3641   -0.6073 H   0  0  0  1  0  0  0  0  0  0  0  0
   -4.3287    5.4541   -0.9340 H   0  0  0  1  0  0  0  0  0  0  0  0
   -1.0219    2.3466    0.4183 H   0  0  0  1  0  0  0  0  0  0  0  0
   -0.6022    2.8815    2.0282 H   0  0  0  1  0  0  0  0  0  0  0  0
  1  4  1  0  0  0  0
  2  4  1  0  0  0  0
  2  5  2  0  0  0  0
  2  6  1  0  0  0  0
  3  4  1  0  0  0  0
  3  7  1  0  0  0  0
  3  8  1  0  0  0  0
  4 28  1  0  0  0  0
  6  9  1  0  0  0  0
  6 12  1  0  0  0  0
  8 10  1  0  0  0  0
  8 11  2  0  0  0  0
  9 13  1  0  0  0  0
  9 14  1  0  0  0  0
  9 15  1  0  0  0  0
 10 16  1  0  0  0  0
 10 17  1  0  0  0  0
 10 18  1  0  0  0  0
 19 20  1  0  0  0  0
 19 21  1  0  0  0  0
 19 22  1  0  0  0  0
 20 29  1  0  0  0  0
 21 30  1  0  0  0  0
 22 23  4  0  0  0  0
 22 27  4  0  0  0  0
 23 24  4  0  0  0  0
 23 31  1  0  0  0  0
 24 25  4  0  0  0  0
 24 32  1  0  0  0  0
 25 26  4  0  0  0  0
 25 28  1  0  0  0  0
 26 27  4  0  0  0  0
 26 33  1  0  0  0  0
 27 34  1  0  0  0  0
 28 35  1  0  0  0  0
 28 36  1  0  0  0  0
M  END
> <BCLConfClusterSize>
1

> <ConfClashScore>
0 

> <ConfOneFourInteractionScore>
-0.954034 

> <ConfScore>
-0.0430879 

> <ConfScorePBest>
0.0050712 

> <ConfTolerance>
0.543185 

> <RosettaParamsInstructions>
M  ROOT 3
M  POLY_N_BB 3
M  POLY_CA_BB 4
M  POLY_C_BB 2
M  POLY_O_BB 5
M  POLY_IGNORE 9 10 11 12 13 14 15 16 17 18 
M  POLY_UPPER 6
M  POLY_LOWER 8
M  POLY_CHG 0
M  POLY_PROPERTIES ALPHA_AA L_AA PROTEIN AROMATIC POLYMER 
M  END

$$$$



 36 36  0  0  0  0  0  0  0  0999 V2000
   -0.1034    1.3110    0.4328 H   0  0  0  1  0  0  0  0  0  0  0  0
   -1.2344    2.1642   -1.1417 C   0  0  0  1  0  0  0  0  0  0  0  0
    0.5894    3.2336    0.1166 N   0  0  0  1  0  0  0  0  0  0  0  0
   -0.5024    2.2743    0.1924 C   0  0  0  1  0  0  0  0  0  0  0  0
   -1.8234    1.1332   -1.4637 O   0  0  0  1  0  0  0  0  0  0  0  0
   -1.1894    3.2495   -1.9198 N   0  0  0  1  0  0  0  0  0  0  0  0
    0.6794    3.9273    0.8030 H   0  0  0  1  0  0  0  0  0  0  0  0
    1.4693    3.1705   -0.8868 C   0  0  0  1  0  0  0  0  0  0  0  0
   -1.9265    3.3399   -3.1713 C   0  0  0  1  0  0  0  0  0  0  0  0
    2.4844    4.2943   -0.9630 C   0  0  0  1  0  0  0  0  0  0  0  0
    1.5169    2.2253   -1.6576 O   0  0  0  1  0  0  0  0  0  0  0  0
   -0.6409    4.0111   -1.6379 H   0  0  0  1  0  0  0  0  0  0  0  0
   -1.9341    2.3836   -3.6512 H   0  0  0  1  0  0  0  0  0  0  0  0
   -1.4555    4.0562   -3.8114 H   0  0  0  1  0  0  0  0  0  0  0  0
   -2.9320    3.6462   -2.9713 H   0  0  0  1  0  0  0  0  0  0  0  0
    3.3707    3.9428   -1.4486 H   0  0  0  1  0  0  0  0  0  0  0  0
    2.7265    4.6235    0.0259 H   0  0  0  1  0  0  0  0  0  0  0  0
    2.0722    5.1097   -1.5200 H   0  0  0  1  0  0  0  0  0  0  0  0
   -4.1201    7.8146    0.4299 B   0  0  0  1  0  0  0  0  0  0  0  0
   -5.0357    8.0147   -0.5531 O   0  0  0  1  0  0  0  0  0  0  0  0
   -3.7985    8.8870    1.2020 O   0  0  0  1  0  0  0  0  0  0  0  0
   -3.4282    6.4187    0.7080 C   0  0  0  1  0  0  0  0  0  0  0  0
   -2.5332    6.2916    1.7535 C   0  0  0  1  0  0  0  0  0  0  0  0
   -1.8588    5.0961    1.9472 C   0  0  0  1  0  0  0  0  0  0  0  0
   -2.0775    4.0329    1.0916 C   0  0  0  1  0  0  0  0  0  0  0  0
   -2.9751    4.1603    0.0429 C   0  0  0  1  0  0  0  0  0  0  0  0
   -3.6473    5.3523   -0.1501 C   0  0  0  1  0  0  0  0  0  0  0  0
   -1.4357    2.6908    1.3217 C   0  0  0  1  0  0  0  0  0  0  0  0
   -5.7074    7.3302   -0.5095 H   0  0  0  1  0  0  0  0  0  0  0  0
   -4.2540    8.8233    2.0446 H   0  0  0  1  0  0  0  0  0  0  0  0
   -2.3657    7.0929    2.3949 H   0  0  0  1  0  0  0  0  0  0  0  0
   -1.1883    4.9991    2.7364 H   0  0  0  1  0  0  0  0  0  0  0  0
   -3.1426    3.3590   -0.5985 H   0  0  0  1  0  0  0  0  0  0  0  0
   -4.3178    5.4492   -0.9392 H   0  0  0  1  0  0  0  0  0  0  0  0
   -0.8727    2.7339    2.2305 H   0  0  0  1  0  0  0  0  0  0  0  0
   -2.2076    1.9556    1.4142 H   0  0  0  1  0  0  0  0  0  0  0  0
  1  4  1  0  0  0  0
  2  4  1  0  0  0  0
  2  5  2  0  0  0  0
  2  6  1  0  0  0  0
  3  4  1  0  0  0  0
  3  7  1  0  0  0  0
  3  8  1  0  0  0  0
  4 28  1  0  0  0  0
  6  9  1  0  0  0  0
  6 12  1  0  0  0  0
  8 10  1  0  0  0  0
  8 11  2  0  0  0  0
  9 13  1  0  0  0  0
  9 14  1  0  0  0  0
  9 15  1  0  0  0  0
 10 16  1  0  0  0  0
 10 17  1  0  0  0  0
 10 18  1  0  0  0  0
 19 20  1  0  0  0  0
 19 21  1  0  0  0  0
 19 22  1  0  0  0  0
 20 29  1  0  0  0  0
 21 30  1  0  0  0  0
 22 23  4  0  0  0  0
 22 27  4  0  0  0  0
 23 24  4  0  0  0  0
 23 31  1  0  0  0  0
 24 25  4  0  0  0  0
 24 32  1  0  0  0  0
 25 26  4  0  0  0  0
 25 28  1  0  0  0  0
 26 27  4  0  0  0  0
 26 33  1  0  0  0  0
 27 34  1  0  0  0  0
 28 35  1  0  0  0  0
 28 36  1  0  0  0  0
M  END
> <BCLConfClusterSize>
1

> <ConfClashScore>
0 

> <ConfOneFourInteractionScore>
-0.961581 

> <ConfScore>
-0.0417652 

> <ConfScorePBest>
0.00504272 

> <ConfTolerance>
0.364196 

> <RosettaParamsInstructions>
M  ROOT 3
M  POLY_N_BB 3
M  POLY_CA_BB 4
M  POLY_C_BB 2
M  POLY_O_BB 5
M  POLY_IGNORE 9 10 11 12 13 14 15 16 17 18 
M  POLY_UPPER 6
M  POLY_LOWER 8
M  POLY_CHG 0
M  POLY_PROPERTIES ALPHA_AA L_AA PROTEIN AROMATIC POLYMER 
M  END

$$$$



 36 36  0  0  0  0  0  0  0  0999 V2000
    0.2991    3.6428    2.0345 H   0  0  0  1  0  0  0  0  0  0  0  0
    0.7106    1.5804    2.0212 C   0  0  0  1  0  0  0  0  0  0  0  0
    0.6183    3.1068    0.0743 N   0  0  0  1  0  0  0  0  0  0  0  0
    0.0810    2.8134    1.3946 C   0  0  0  1  0  0  0  0  0  0  0  0
    1.1404    0.6318    1.3913 O   0  0  0  1  0  0  0  0  0  0  0  0
    0.7550    1.6236    3.3537 N   0  0  0  1  0  0  0  0  0  0  0  0
    0.2105    2.6799   -0.7078 H   0  0  0  1  0  0  0  0  0  0  0  0
    1.6483    3.9379   -0.1084 C   0  0  0  1  0  0  0  0  0  0  0  0
    1.1108    0.5036    4.2122 C   0  0  0  1  0  0  0  0  0  0  0  0
    2.0847    4.1398   -1.5465 C   0  0  0  1  0  0  0  0  0  0  0  0
    2.2188    4.5116    0.8184 O   0  0  0  1  0  0  0  0  0  0  0  0
    0.5313    2.4736    3.7872 H   0  0  0  1  0  0  0  0  0  0  0  0
    0.7562   -0.4071    3.7765 H   0  0  0  1  0  0  0  0  0  0  0  0
    0.6630    0.6362    5.1748 H   0  0  0  1  0  0  0  0  0  0  0  0
    2.1747    0.4583    4.3163 H   0  0  0  1  0  0  0  0  0  0  0  0
    1.8659    3.2589   -2.1132 H   0  0  0  1  0  0  0  0  0  0  0  0
    3.1371    4.3304   -1.5762 H   0  0  0  1  0  0  0  0  0  0  0  0
    1.5589    4.9724   -1.9650 H   0  0  0  1  0  0  0  0  0  0  0  0
   -4.1189    7.8121    0.4305 B   0  0  0  1  0  0  0  0  0  0  0  0
   -4.6902    8.0381   -0.8032 O   0  0  0  1  0  0  0  0  0  0  0  0
   -3.5272    8.9549    0.9347 O   0  0  0  1  0  0  0  0  0  0  0  0
   -3.4287    6.4198    0.7078 C   0  0  0  1  0  0  0  0  0  0  0  0
   -2.5337    6.2927    1.7533 C   0  0  0  1  0  0  0  0  0  0  0  0
   -1.8593    5.0972    1.9470 C   0  0  0  1  0  0  0  0  0  0  0  0
   -2.0780    4.0340    1.0913 C   0  0  0  1  0  0  0  0  0  0  0  0
   -2.9756    4.1614    0.0427 C   0  0  0  1  0  0  0  0  0  0  0  0
   -3.6479    5.3534   -0.1503 C   0  0  0  1  0  0  0  0  0  0  0  0
   -1.4316    2.6823    1.3231 C   0  0  0  1  0  0  0  0  0  0  0  0
   -5.6257    8.2236   -0.6940 H   0  0  0  1  0  0  0  0  0  0  0  0
   -3.4291    9.6017    0.2321 H   0  0  0  1  0  0  0  0  0  0  0  0
   -2.3662    7.0940    2.3947 H   0  0  0  1  0  0  0  0  0  0  0  0
   -1.1888    5.0003    2.7362 H   0  0  0  1  0  0  0  0  0  0  0  0
   -3.1431    3.3601   -0.5987 H   0  0  0  1  0  0  0  0  0  0  0  0
   -4.3183    5.4503   -0.9394 H   0  0  0  1  0  0  0  0  0  0  0  0
   -1.7923    2.2742    2.2441 H   0  0  0  1  0  0  0  0  0  0  0  0
   -1.6893    2.0274    0.5171 H   0  0  0  1  0  0  0  0  0  0  0  0
  1  4  1  0  0  0  0
  2  4  1  0  0  0  0
  2  5  2  0  0  0  0
  2  6  1  0  0  0  0
  3  4  1  0  0  0  0
  3  7  1  0  0  0  0
  3  8  1  0  0  0  0
  4 28  1  0  0  0  0
  6  9  1  0  0  0  0
  6 12  1  0  0  0  0
  8 10  1  0  0  0  0
  8 11  2  0  0  0  0
  9 13  1  0  0  0  0
  9 14  1  0  0  0  0
  9 15  1  0  0  0  0
 10 16  1  0  0  0  0
 10 17  1  0  0  0  0
 10 18  1  0  0  0  0
 19 20  1  0  0  0  0
 19 21  1  0  0  0  0
 19 22  1  0  0  0  0
 20 29  1  0  0  0  0
 21 30  1  0  0  0  0
 22 23  4  0  0  0  0
 22 27  4  0  0  0  0
 23 24  4  0  0  0  0
 23 31  1  0  0  0  0
 24 25  4  0  0  0  0
 24 32  1  0  0  0  0
 25 26  4  0  0  0  0
 25 28  1  0  0  0  0
 26 27  4  0  0  0  0
 26 33  1  0  0  0  0
 27 34  1  0  0  0  0
 28 35  1  0  0  0  0
 28 36  1  0  0  0  0
M  END
> <BCLConfClusterSize>
1

> <ConfClashScore>
0 

> <ConfOneFourInteractionScore>
-0.982988 

> <ConfScore>
-0.0399266 

> <ConfScorePBest>
0.00501424 

> <ConfTolerance>
0.509458 

> <RosettaParamsInstructions>
M  ROOT 3
M  POLY_N_BB 3
M  POLY_CA_BB 4
M  POLY_C_BB 2
M  POLY_O_BB 5
M  POLY_IGNORE 9 10 11 12 13 14 15 16 17 18 
M  POLY_UPPER 6
M  POLY_LOWER 8
M  POLY_CHG 0
M  POLY_PROPERTIES ALPHA_AA L_AA PROTEIN AROMATIC POLYMER 
M  END

$$$$



 36 36  0  0  0  0  0  0  0  0999 V2000
    0.5112    3.2581    0.7146 H   0  0  0  1  0  0  0  0  0  0  0  0
    0.4867    1.1444    0.8434 C   0  0  0  1  0  0  0  0  0  0  0  0
   -0.4868    2.5104   -0.9347 N   0  0  0  1  0  0  0  0  0  0  0  0
   -0.1770    2.4711    0.4867 C   0  0  0  1  0  0  0  0  0  0  0  0
   -0.1516    0.1737    1.2078 O   0  0  0  1  0  0  0  0  0  0  0  0
    1.8156    1.0385    0.7545 N   0  0  0  1  0  0  0  0  0  0  0  0
   -1.2302    1.9682   -1.2719 H   0  0  0  1  0  0  0  0  0  0  0  0
    0.2060    3.2588   -1.7945 C   0  0  0  1  0  0  0  0  0  0  0  0
    2.5076   -0.2301    0.9269 C   0  0  0  1  0  0  0  0  0  0  0  0
   -0.1542    3.0873   -3.2529 C   0  0  0  1  0  0  0  0  0  0  0  0
    1.0782    4.0376   -1.4449 O   0  0  0  1  0  0  0  0  0  0  0  0
    2.3426    1.8430    0.5667 H   0  0  0  1  0  0  0  0  0  0  0  0
    1.9650   -0.8420    1.6169 H   0  0  0  1  0  0  0  0  0  0  0  0
    3.4915   -0.0506    1.3072 H   0  0  0  1  0  0  0  0  0  0  0  0
    2.5751   -0.7304   -0.0165 H   0  0  0  1  0  0  0  0  0  0  0  0
   -0.4186    2.0672   -3.4379 H   0  0  0  1  0  0  0  0  0  0  0  0
    0.6849    3.3539   -3.8610 H   0  0  0  1  0  0  0  0  0  0  0  0
   -0.9837    3.7195   -3.4919 H   0  0  0  1  0  0  0  0  0  0  0  0
   -4.1206    7.8154    0.4298 B   0  0  0  1  0  0  0  0  0  0  0  0
   -3.6936    8.8771    1.1466 O   0  0  0  1  0  0  0  0  0  0  0  0
   -5.0936    7.8598   -0.5050 O   0  0  0  1  0  0  0  0  0  0  0  0
   -3.4285    6.4194    0.7079 C   0  0  0  1  0  0  0  0  0  0  0  0
   -2.5335    6.2922    1.7534 C   0  0  0  1  0  0  0  0  0  0  0  0
   -1.8591    5.0967    1.9471 C   0  0  0  1  0  0  0  0  0  0  0  0
   -2.0778    4.0336    1.0914 C   0  0  0  1  0  0  0  0  0  0  0  0
   -2.9754    4.1610    0.0428 C   0  0  0  1  0  0  0  0  0  0  0  0
   -3.6477    5.3530   -0.1502 C   0  0  0  1  0  0  0  0  0  0  0  0
   -1.4321    2.6835    1.3229 C   0  0  0  1  0  0  0  0  0  0  0  0
   -3.5604    8.6143    2.0603 H   0  0  0  1  0  0  0  0  0  0  0  0
   -4.6980    7.8559   -1.3797 H   0  0  0  1  0  0  0  0  0  0  0  0
   -2.3660    7.0936    2.3948 H   0  0  0  1  0  0  0  0  0  0  0  0
   -1.1886    4.9998    2.7362 H   0  0  0  1  0  0  0  0  0  0  0  0
   -3.1429    3.3596   -0.5986 H   0  0  0  1  0  0  0  0  0  0  0  0
   -4.3181    5.4499   -0.9393 H   0  0  0  1  0  0  0  0  0  0  0  0
   -1.1698    2.6043    2.3572 H   0  0  0  1  0  0  0  0  0  0  0  0
   -2.1399    1.9204    1.0745 H   0  0  0  1  0  0  0  0  0  0  0  0
  1  4  1  0  0  0  0
  2  4  1  0  0  0  0
  2  5  2  0  0  0  0
  2  6  1  0  0  0  0
  3  4  1  0  0  0  0
  3  7  1  0  0  0  0
  3  8  1  0  0  0  0
  4 28  1  0  0  0  0
  6  9  1  0  0  0  0
  6 12  1  0  0  0  0
  8 10  1  0  0  0  0
  8 11  2  0  0  0  0
  9 13  1  0  0  0  0
  9 14  1  0  0  0  0
  9 15  1  0  0  0  0
 10 16  1  0  0  0  0
 10 17  1  0  0  0  0
 10 18  1  0  0  0  0
 19 20  1  0  0  0  0
 19 21  1  0  0  0  0
 19 22  1  0  0  0  0
 20 29  1  0  0  0  0
 21 30  1  0  0  0  0
 22 23  4  0  0  0  0
 22 27  4  0  0  0  0
 23 24  4  0  0  0  0
 23 31  1  0  0  0  0
 24 25  4  0  0  0  0
 24 32  1  0  0  0  0
 25 26  4  0  0  0  0
 25 28  1  0  0  0  0
 26 27  4  0  0  0  0
 26 33  1  0  0  0  0
 27 34  1  0  0  0  0
 28 35  1  0  0  0  0
 28 36  1  0  0  0  0
M  END
> <BCLConfClusterSize>
1

> <ConfClashScore>
0 

> <ConfOneFourInteractionScore>
-0.983771 

> <ConfScore>
-0.0398316 

> <ConfScorePBest>
0.00498576 

> <ConfTolerance>
0.316499 

> <RosettaParamsInstructions>
M  ROOT 3
M  POLY_N_BB 3
M  POLY_CA_BB 4
M  POLY_C_BB 2
M  POLY_O_BB 5
M  POLY_IGNORE 9 10 11 12 13 14 15 16 17 18 
M  POLY_UPPER 6
M  POLY_LOWER 8
M  POLY_CHG 0
M  POLY_PROPERTIES ALPHA_AA L_AA PROTEIN AROMATIC POLYMER 
M  END

$$$$



 36 36  0  0  0  0  0  0  0  0999 V2000
   -0.4910    3.0531    3.1880 H   0  0  0  1  0  0  0  0  0  0  0  0
    0.2914    1.2684    2.3333 C   0  0  0  1  0  0  0  0  0  0  0  0
    0.8453    3.5175    1.6567 N   0  0  0  1  0  0  0  0  0  0  0  0
   -0.2141    2.6934    2.2191 C   0  0  0  1  0  0  0  0  0  0  0  0
    0.6035    0.6262    1.3441 O   0  0  0  1  0  0  0  0  0  0  0  0
    0.3686    0.7751    3.5794 N   0  0  0  1  0  0  0  0  0  0  0  0
    1.2035    3.2894    0.7734 H   0  0  0  1  0  0  0  0  0  0  0  0
    1.3466    4.5741    2.3026 C   0  0  0  1  0  0  0  0  0  0  0  0
    0.6620   -0.6255    3.8443 C   0  0  0  1  0  0  0  0  0  0  0  0
    2.2575    5.5147    1.5378 C   0  0  0  1  0  0  0  0  0  0  0  0
    1.1121    4.8325    3.4900 O   0  0  0  1  0  0  0  0  0  0  0  0
    0.2224    1.3792    4.3371 H   0  0  0  1  0  0  0  0  0  0  0  0
    1.6278   -0.8683    3.4529 H   0  0  0  1  0  0  0  0  0  0  0  0
   -0.0777   -1.2396    3.3744 H   0  0  0  1  0  0  0  0  0  0  0  0
    0.6515   -0.7984    4.9001 H   0  0  0  1  0  0  0  0  0  0  0  0
    2.4148    5.1349    0.5499 H   0  0  0  1  0  0  0  0  0  0  0  0
    3.1971    5.5910    2.0442 H   0  0  0  1  0  0  0  0  0  0  0  0
    1.8035    6.4818    1.4798 H   0  0  0  1  0  0  0  0  0  0  0  0
   -4.1453    7.8073    0.3911 B   0  0  0  1  0  0  0  0  0  0  0  0
   -4.9026    7.9077   -0.7319 O   0  0  0  1  0  0  0  0  0  0  0  0
   -3.9792    8.9107    1.1281 O   0  0  0  1  0  0  0  0  0  0  0  0
   -3.4235    6.4213    0.7163 C   0  0  0  1  0  0  0  0  0  0  0  0
   -2.5276    6.2897    1.7605 C   0  0  0  1  0  0  0  0  0  0  0  0
   -1.8552    5.0925    1.9503 C   0  0  0  1  0  0  0  0  0  0  0  0
   -2.0767    4.0321    1.0919 C   0  0  0  1  0  0  0  0  0  0  0  0
   -2.9751    4.1639    0.0446 C   0  0  0  1  0  0  0  0  0  0  0  0
   -3.6455    5.3577   -0.1445 C   0  0  0  1  0  0  0  0  0  0  0  0
   -1.4377    2.6894    1.3174 C   0  0  0  1  0  0  0  0  0  0  0  0
   -5.8098    7.6680   -0.5292 H   0  0  0  1  0  0  0  0  0  0  0  0
   -3.1820    9.3663    0.8479 H   0  0  0  1  0  0  0  0  0  0  0  0
   -2.3580    7.0890    2.4039 H   0  0  0  1  0  0  0  0  0  0  0  0
   -1.1841    4.9921    2.7384 H   0  0  0  1  0  0  0  0  0  0  0  0
   -3.1448    3.3647   -0.5989 H   0  0  0  1  0  0  0  0  0  0  0  0
   -4.3166    5.4580   -0.9326 H   0  0  0  1  0  0  0  0  0  0  0  0
   -2.1699    2.0451    1.7575 H   0  0  0  1  0  0  0  0  0  0  0  0
   -1.1447    2.2991    0.3652 H   0  0  0  1  0  0  0  0  0  0  0  0
  1  4  1  0  0  0  0
  2  4  1  0  0  0  0
  2  5  2  0  0  0  0
  2  6  1  0  0  0  0
  3  4  1  0  0  0  0
  3  7  1  0  0  0  0
  3  8  1  0  0  0  0
  4 28  1  0  0  0  0
  6  9  1  0  0  0  0
  6 12  1  0  0  0  0
  8 10  1  0  0  0  0
  8 11  2  0  0  0  0
  9 13  1  0  0  0  0
  9 14  1  0  0  0  0
  9 15  1  0  0  0  0
 10 16  1  0  0  0  0
 10 17  1  0  0  0  0
 10 18  1  0  0  0  0
 19 20  1  0  0  0  0
 19 21  1  0  0  0  0
 19 22  1  0  0  0  0
 20 29  1  0  0  0  0
 21 30  1  0  0  0  0
 22 23  4  0  0  0  0
 22 27  4  0  0  0  0
 23 24  4  0  0  0  0
 23 31  1  0  0  0  0
 24 25  4  0  0  0  0
 24 32  1  0  0  0  0
 25 26  4  0  0  0  0
 25 28  1  0  0  0  0
 26 27  4  0  0  0  0
 26 33  1  0  0  0  0
 27 34  1  0  0  0  0
 28 35  1  0  0  0  0
 28 36  1  0  0  0  0
M  END
> <BCLConfClusterSize>
1

> <ConfClashScore>
0 

> <ConfOneFourInteractionScore>
-0.981636 

> <ConfScore>
-0.0364329 

> <ConfScorePBest>
0.00495728 

> <ConfTolerance>
0.471197 

> <RosettaParamsInstructions>
M  ROOT 3
M  POLY_N_BB 3
M  POLY_CA_BB 4
M  POLY_C_BB 2
M  POLY_O_BB 5
M  POLY_IGNORE 9 10 11 12 13 14 15 16 17 18 
M  POLY_UPPER 6
M  POLY_LOWER 8
M  POLY_CHG 0
M  POLY_PROPERTIES ALPHA_AA L_AA PROTEIN AROMATIC POLYMER 
M  END

$$$$



 36 36  0  0  0  0  0  0  0  0999 V2000
    0.0733    1.4209    0.5833 H   0  0  0  1  0  0  0  0  0  0  0  0
   -0.8166    2.3665   -1.0633 C   0  0  0  1  0  0  0  0  0  0  0  0
    0.8255    3.3290    0.5621 N   0  0  0  1  0  0  0  0  0  0  0  0
   -0.2802    2.4053    0.3576 C   0  0  0  1  0  0  0  0  0  0  0  0
   -1.7835    1.6829   -1.3566 O   0  0  0  1  0  0  0  0  0  0  0  0
   -0.1605    3.1255   -1.9553 N   0  0  0  1  0  0  0  0  0  0  0  0
    0.6272    4.2588    0.7999 H   0  0  0  1  0  0  0  0  0  0  0  0
    2.1499    2.9394    0.4322 C   0  0  0  1  0  0  0  0  0  0  0  0
   -0.5401    3.0955   -3.3598 C   0  0  0  1  0  0  0  0  0  0  0  0
    3.2356    3.9509    0.6706 C   0  0  0  1  0  0  0  0  0  0  0  0
    2.3906    1.7824    0.1270 O   0  0  0  1  0  0  0  0  0  0  0  0
    0.5757    3.7010   -1.6599 H   0  0  0  1  0  0  0  0  0  0  0  0
   -1.5954    2.9387   -3.4413 H   0  0  0  1  0  0  0  0  0  0  0  0
   -0.0223    2.2990   -3.8521 H   0  0  0  1  0  0  0  0  0  0  0  0
   -0.2817    4.0269   -3.8188 H   0  0  0  1  0  0  0  0  0  0  0  0
    3.2105    4.2676    1.6923 H   0  0  0  1  0  0  0  0  0  0  0  0
    3.0824    4.7955    0.0317 H   0  0  0  1  0  0  0  0  0  0  0  0
    4.1868    3.5097    0.4575 H   0  0  0  1  0  0  0  0  0  0  0  0
   -4.1189    7.8122    0.4304 B   0  0  0  1  0  0  0  0  0  0  0  0
   -5.1520    7.8338   -0.4451 O   0  0  0  1  0  0  0  0  0  0  0  0
   -3.6032    8.9947    0.8448 O   0  0  0  1  0  0  0  0  0  0  0  0
   -3.4283    6.4189    0.7079 C   0  0  0  1  0  0  0  0  0  0  0  0
   -2.5333    6.2918    1.7534 C   0  0  0  1  0  0  0  0  0  0  0  0
   -1.8589    5.0963    1.9472 C   0  0  0  1  0  0  0  0  0  0  0  0
   -2.0776    4.0331    1.0915 C   0  0  0  1  0  0  0  0  0  0  0  0
   -2.9752    4.1605    0.0429 C   0  0  0  1  0  0  0  0  0  0  0  0
   -3.6475    5.3525   -0.1501 C   0  0  0  1  0  0  0  0  0  0  0  0
   -1.4359    2.6910    1.3216 C   0  0  0  1  0  0  0  0  0  0  0  0
   -4.8287    8.0746   -1.3164 H   0  0  0  1  0  0  0  0  0  0  0  0
   -3.7027    9.0718    1.7965 H   0  0  0  1  0  0  0  0  0  0  0  0
   -2.3658    7.0931    2.3949 H   0  0  0  1  0  0  0  0  0  0  0  0
   -1.1884    4.9993    2.7363 H   0  0  0  1  0  0  0  0  0  0  0  0
   -3.1427    3.3592   -0.5985 H   0  0  0  1  0  0  0  0  0  0  0  0
   -4.3179    5.4495   -0.9393 H   0  0  0  1  0  0  0  0  0  0  0  0
   -1.0596    2.6606    2.3228 H   0  0  0  1  0  0  0  0  0  0  0  0
   -2.1795    1.9320    1.1964 H   0  0  0  1  0  0  0  0  0  0  0  0
  1  4  1  0  0  0  0
  2  4  1  0  0  0  0
  2  5  2  0  0  0  0
  2  6  1  0  0  0  0
  3  4  1  0  0  0  0
  3  7  1  0  0  0  0
  3  8  1  0  0  0  0
  4 28  1  0  0  0  0
  6  9  1  0  0  0  0
  6 12  1  0  0  0  0
  8 10  1  0  0  0  0
  8 11  2  0  0  0  0
  9 13  1  0  0  0  0
  9 14  1  0  0  0  0
  9 15  1  0  0  0  0
 10 16  1  0  0  0  0
 10 17  1  0  0  0  0
 10 18  1  0  0  0  0
 19 20  1  0  0  0  0
 19 21  1  0  0  0  0
 19 22  1  0  0  0  0
 20 29  1  0  0  0  0
 21 30  1  0  0  0  0
 22 23  4  0  0  0  0
 22 27  4  0  0  0  0
 23 24  4  0  0  0  0
 23 31  1  0  0  0  0
 24 25  4  0  0  0  0
 24 32  1  0  0  0  0
 25 26  4  0  0  0  0
 25 28  1  0  0  0  0
 26 27  4  0  0  0  0
 26 33  1  0  0  0  0
 27 34  1  0  0  0  0
 28 35  1  0  0  0  0
 28 36  1  0  0  0  0
M  END
> <BCLConfClusterSize>
1

> <ConfClashScore>
0 

> <ConfOneFourInteractionScore>
-0.966613 

> <ConfScore>
-0.0341054 

> <ConfScorePBest>
0.0049288 

> <ConfTolerance>
0.349609 

> <RosettaParamsInstructions>
M  ROOT 3
M  POLY_N_BB 3
M  POLY_CA_BB 4
M  POLY_C_BB 2
M  POLY_O_BB 5
M  POLY_IGNORE 9 10 11 12 13 14 15 16 17 18 
M  POLY_UPPER 6
M  POLY_LOWER 8
M  POLY_CHG 0
M  POLY_PROPERTIES ALPHA_AA L_AA PROTEIN AROMATIC POLYMER 
M  END

$$$$



 36 36  0  0  0  0  0  0  0  0999 V2000
   -1.7778    0.8170    2.2790 H   0  0  0  1  0  0  0  0  0  0  0  0
   -2.9421    2.3249    3.2500 C   0  0  0  1  0  0  0  0  0  0  0  0
   -3.4421    1.2959    1.1206 N   0  0  0  1  0  0  0  0  0  0  0  0
   -2.3439    1.6795    1.9951 C   0  0  0  1  0  0  0  0  0  0  0  0
   -4.0330    2.8705    3.2226 O   0  0  0  1  0  0  0  0  0  0  0  0
   -2.1914    2.2471    4.3602 N   0  0  0  1  0  0  0  0  0  0  0  0
   -4.2497    1.8510    1.1278 H   0  0  0  1  0  0  0  0  0  0  0  0
   -3.4193    0.2353    0.3085 C   0  0  0  1  0  0  0  0  0  0  0  0
   -2.6087    2.8365    5.6236 C   0  0  0  1  0  0  0  0  0  0  0  0
   -4.7399   -0.1222   -0.3453 C   0  0  0  1  0  0  0  0  0  0  0  0
   -2.4098   -0.4164    0.0945 O   0  0  0  1  0  0  0  0  0  0  0  0
   -1.3325    1.7771    4.3184 H   0  0  0  1  0  0  0  0  0  0  0  0
   -3.2652    3.6600    5.4341 H   0  0  0  1  0  0  0  0  0  0  0  0
   -1.7481    3.1823    6.1571 H   0  0  0  1  0  0  0  0  0  0  0  0
   -3.1197    2.1007    6.2087 H   0  0  0  1  0  0  0  0  0  0  0  0
   -5.2625    0.7738   -0.6080 H   0  0  0  1  0  0  0  0  0  0  0  0
   -5.3329   -0.6933    0.3381 H   0  0  0  1  0  0  0  0  0  0  0  0
   -4.5562   -0.6993   -1.2275 H   0  0  0  1  0  0  0  0  0  0  0  0
   -4.1022    7.8391    0.4658 B   0  0  0  1  0  0  0  0  0  0  0  0
   -5.3591    8.0668    0.9274 O   0  0  0  1  0  0  0  0  0  0  0  0
   -3.3764    8.7795   -0.1962 O   0  0  0  1  0  0  0  0  0  0  0  0
   -3.4324    6.4153    0.7003 C   0  0  0  1  0  0  0  0  0  0  0  0
   -2.5375    6.2883    1.7460 C   0  0  0  1  0  0  0  0  0  0  0  0
   -1.8633    5.0928    1.9400 C   0  0  0  1  0  0  0  0  0  0  0  0
   -2.0820    4.0295    1.0846 C   0  0  0  1  0  0  0  0  0  0  0  0
   -2.9795    4.1567    0.0358 C   0  0  0  1  0  0  0  0  0  0  0  0
   -3.6516    5.3488   -0.1575 C   0  0  0  1  0  0  0  0  0  0  0  0
   -1.4097    2.7006    1.3591 C   0  0  0  1  0  0  0  0  0  0  0  0
   -5.3240    8.6856    1.6605 H   0  0  0  1  0  0  0  0  0  0  0  0
   -3.0829    8.4237   -1.0382 H   0  0  0  1  0  0  0  0  0  0  0  0
   -2.3700    7.0898    2.3872 H   0  0  0  1  0  0  0  0  0  0  0  0
   -1.1930    4.9959    2.7293 H   0  0  0  1  0  0  0  0  0  0  0  0
   -3.1470    3.3553   -0.6055 H   0  0  0  1  0  0  0  0  0  0  0  0
   -4.3219    5.4456   -0.9468 H   0  0  0  1  0  0  0  0  0  0  0  0
   -1.0503    2.3030    0.4330 H   0  0  0  1  0  0  0  0  0  0  0  0
   -0.5852    2.8663    2.0206 H   0  0  0  1  0  0  0  0  0  0  0  0
  1  4  1  0  0  0  0
  2  4  1  0  0  0  0
  2  5  2  0  0  0  0
  2  6  1  0  0  0  0
  3  4  1  0  0  0  0
  3  7  1  0  0  0  0
  3  8  1  0  0  0  0
  4 28  1  0  0  0  0
  6  9  1  0  0  0  0
  6 12  1  0  0  0  0
  8 10  1  0  0  0  0
  8 11  2  0  0  0  0
  9 13  1  0  0  0  0
  9 14  1  0  0  0  0
  9 15  1  0  0  0  0
 10 16  1  0  0  0  0
 10 17  1  0  0  0  0
 10 18  1  0  0  0  0
 19 20  1  0  0  0  0
 19 21  1  0  0  0  0
 19 22  1  0  0  0  0
 20 29  1  0  0  0  0
 21 30  1  0  0  0  0
 22 23  4  0  0  0  0
 22 27  4  0  0  0  0
 23 24  4  0  0  0  0
 23 31  1  0  0  0  0
 24 25  4  0  0  0  0
 24 32  1  0  0  0  0
 25 26  4  0  0  0  0
 25 28  1  0  0  0  0
 26 27  4  0  0  0  0
 26 33  1  0  0  0  0
 27 34  1  0  0  0  0
 28 35  1  0  0  0  0
 28 36  1  0  0  0  0
M  END
> <BCLConfClusterSize>
1

> <ConfClashScore>
0 

> <ConfOneFourInteractionScore>
-0.99009 

> <ConfScore>
-0.033793 

> <ConfScorePBest>
0.00490032 

> <ConfTolerance>
0.388514 

> <RosettaParamsInstructions>
M  ROOT 3
M  POLY_N_BB 3
M  POLY_CA_BB 4
M  POLY_C_BB 2
M  POLY_O_BB 5
M  POLY_IGNORE 9 10 11 12 13 14 15 16 17 18 
M  POLY_UPPER 6
M  POLY_LOWER 8
M  POLY_CHG 0
M  POLY_PROPERTIES ALPHA_AA L_AA PROTEIN AROMATIC POLYMER 
M  END

$$$$



 36 36  0  0  0  0  0  0  0  0999 V2000
   -2.6461    1.6804   -0.0819 H   0  0  0  1  0  0  0  0  0  0  0  0
   -0.8011    2.0937   -1.0294 C   0  0  0  1  0  0  0  0  0  0  0  0
   -1.2288    0.3512    0.6254 N   0  0  0  1  0  0  0  0  0  0  0  0
   -1.6118    1.6866    0.1919 C   0  0  0  1  0  0  0  0  0  0  0  0
   -1.3283    2.6335   -1.9880 O   0  0  0  1  0  0  0  0  0  0  0  0
    0.5058    1.8215   -0.9755 N   0  0  0  1  0  0  0  0  0  0  0  0
   -0.7919    0.2254    1.4935 H   0  0  0  1  0  0  0  0  0  0  0  0
   -1.4725   -0.7082   -0.1611 C   0  0  0  1  0  0  0  0  0  0  0  0
    1.4280    2.2261   -2.0261 C   0  0  0  1  0  0  0  0  0  0  0  0
   -1.0213   -2.0604    0.3151 C   0  0  0  1  0  0  0  0  0  0  0  0
   -2.0482   -0.5792   -1.2407 O   0  0  0  1  0  0  0  0  0  0  0  0
    0.8556    1.3325   -0.2017 H   0  0  0  1  0  0  0  0  0  0  0  0
    2.4112    2.3316   -1.6172 H   0  0  0  1  0  0  0  0  0  0  0  0
    1.1110    3.1614   -2.4379 H   0  0  0  1  0  0  0  0  0  0  0  0
    1.4400    1.4827   -2.7956 H   0  0  0  1  0  0  0  0  0  0  0  0
   -1.5092   -2.2951    1.2380 H   0  0  0  1  0  0  0  0  0  0  0  0
    0.0381   -2.0505    0.4644 H   0  0  0  1  0  0  0  0  0  0  0  0
   -1.2718   -2.7983   -0.4181 H   0  0  0  1  0  0  0  0  0  0  0  0
   -4.1009    7.8182    0.4052 B   0  0  0  1  0  0  0  0  0  0  0  0
   -4.5217    8.1873   -0.8322 O   0  0  0  1  0  0  0  0  0  0  0  0
   -4.2499    8.6832    1.4440 O   0  0  0  1  0  0  0  0  0  0  0  0
   -3.4355    6.4161    0.7161 C   0  0  0  1  0  0  0  0  0  0  0  0
   -2.5377    6.2892    1.7593 C   0  0  0  1  0  0  0  0  0  0  0  0
   -1.8586    5.0955    1.9481 C   0  0  0  1  0  0  0  0  0  0  0  0
   -2.0754    4.0341    1.0898 C   0  0  0  1  0  0  0  0  0  0  0  0
   -2.9757    4.1612    0.0436 C   0  0  0  1  0  0  0  0  0  0  0  0
   -3.6527    5.3514   -0.1446 C   0  0  0  1  0  0  0  0  0  0  0  0
   -1.4289    2.6948    1.3145 C   0  0  0  1  0  0  0  0  0  0  0  0
   -4.2020    9.0709   -1.0290 H   0  0  0  1  0  0  0  0  0  0  0  0
   -3.5423    9.3316    1.4251 H   0  0  0  1  0  0  0  0  0  0  0  0
   -2.3717    7.0892    2.4026 H   0  0  0  1  0  0  0  0  0  0  0  0
   -1.1861    4.9987    2.7355 H   0  0  0  1  0  0  0  0  0  0  0  0
   -3.1418    3.3611   -0.5998 H   0  0  0  1  0  0  0  0  0  0  0  0
   -4.3252    5.4481   -0.9320 H   0  0  0  1  0  0  0  0  0  0  0  0
   -0.3792    2.8533    1.4481 H   0  0  0  1  0  0  0  0  0  0  0  0
   -1.8431    2.2739    2.2068 H   0  0  0  1  0  0  0  0  0  0  0  0
  1  4  1  0  0  0  0
  2  4  1  0  0  0  0
  2  5  2  0  0  0  0
  2  6  1  0  0  0  0
  3  4  1  0  0  0  0
  3  7  1  0  0  0  0
  3  8  1  0  0  0  0
  4 28  1  0  0  0  0
  6  9  1  0  0  0  0
  6 12  1  0  0  0  0
  8 10  1  0  0  0  0
  8 11  2  0  0  0  0
  9 13  1  0  0  0  0
  9 14  1  0  0  0  0
  9 15  1  0  0  0  0
 10 16  1  0  0  0  0
 10 17  1  0  0  0  0
 10 18  1  0  0  0  0
 19 20  1  0  0  0  0
 19 21  1  0  0  0  0
 19 22  1  0  0  0  0
 20 29  1  0  0  0  0
 21 30  1  0  0  0  0
 22 23  4  0  0  0  0
 22 27  4  0  0  0  0
 23 24  4  0  0  0  0
 23 31  1  0  0  0  0
 24 25  4  0  0  0  0
 24 32  1  0  0  0  0
 25 26  4  0  0  0  0
 25 28  1  0  0  0  0
 26 27  4  0  0  0  0
 26 33  1  0  0  0  0
 27 34  1  0  0  0  0
 28 35  1  0  0  0  0
 28 36  1  0  0  0  0
M  END
> <BCLConfClusterSize>
1

> <ConfClashScore>
0 

> <ConfOneFourInteractionScore>
-0.963349 

> <ConfScore>
-0.0334615 

> <ConfScorePBest>
0.00487184 

> <ConfTolerance>
0.508566 

> <RosettaParamsInstructions>
M  ROOT 3
M  POLY_N_BB 3
M  POLY_CA_BB 4
M  POLY_C_BB 2
M  POLY_O_BB 5
M  POLY_IGNORE 9 10 11 12 13 14 15 16 17 18 
M  POLY_UPPER 6
M  POLY_LOWER 8
M  POLY_CHG 0
M  POLY_PROPERTIES ALPHA_AA L_AA PROTEIN AROMATIC POLYMER 
M  END

$$$$



 36 36  0  0  0  0  0  0  0  0999 V2000
    0.5083    3.0764    0.6269 H   0  0  0  1  0  0  0  0  0  0  0  0
    0.2950    0.9963    0.4682 C   0  0  0  1  0  0  0  0  0  0  0  0
   -0.6219    2.6799   -1.0405 N   0  0  0  1  0  0  0  0  0  0  0  0
   -0.2809    2.4057    0.3581 C   0  0  0  1  0  0  0  0  0  0  0  0
   -0.0996    0.0398   -0.1727 O   0  0  0  1  0  0  0  0  0  0  0  0
    1.2987    0.8951    1.3528 N   0  0  0  1  0  0  0  0  0  0  0  0
   -1.5367    2.9550   -1.2591 H   0  0  0  1  0  0  0  0  0  0  0  0
    0.2722    2.5676   -2.0292 C   0  0  0  1  0  0  0  0  0  0  0  0
    1.7682   -0.4150    1.7785 C   0  0  0  1  0  0  0  0  0  0  0  0
   -0.2509    2.8566   -3.4304 C   0  0  0  1  0  0  0  0  0  0  0  0
    1.4367    2.2549   -1.8398 O   0  0  0  1  0  0  0  0  0  0  0  0
    1.7166    1.7051    1.7131 H   0  0  0  1  0  0  0  0  0  0  0  0
    1.2611   -1.1746    1.2211 H   0  0  0  1  0  0  0  0  0  0  0  0
    1.5671   -0.5441    2.8215 H   0  0  0  1  0  0  0  0  0  0  0  0
    2.8216   -0.4895    1.6060 H   0  0  0  1  0  0  0  0  0  0  0  0
    0.2927    2.2712   -4.1423 H   0  0  0  1  0  0  0  0  0  0  0  0
   -0.1229    3.8956   -3.6514 H   0  0  0  1  0  0  0  0  0  0  0  0
   -1.2898    2.6058   -3.4817 H   0  0  0  1  0  0  0  0  0  0  0  0
   -4.1175    7.8094    0.4310 B   0  0  0  1  0  0  0  0  0  0  0  0
   -3.9608    8.5034   -0.7259 O   0  0  0  1  0  0  0  0  0  0  0  0
   -4.9052    8.3231    1.4133 O   0  0  0  1  0  0  0  0  0  0  0  0
   -3.4284    6.4192    0.7079 C   0  0  0  1  0  0  0  0  0  0  0  0
   -2.5334    6.2921    1.7534 C   0  0  0  1  0  0  0  0  0  0  0  0
   -1.8590    5.0965    1.9472 C   0  0  0  1  0  0  0  0  0  0  0  0
   -2.0777    4.0334    1.0915 C   0  0  0  1  0  0  0  0  0  0  0  0
   -2.9753    4.1608    0.0429 C   0  0  0  1  0  0  0  0  0  0  0  0
   -3.6476    5.3528   -0.1502 C   0  0  0  1  0  0  0  0  0  0  0  0
   -1.4360    2.6913    1.3216 C   0  0  0  1  0  0  0  0  0  0  0  0
   -3.6298    7.9163   -1.4095 H   0  0  0  1  0  0  0  0  0  0  0  0
   -5.8181    8.0703    1.2571 H   0  0  0  1  0  0  0  0  0  0  0  0
   -2.3659    7.0934    2.3948 H   0  0  0  1  0  0  0  0  0  0  0  0
   -1.1886    4.9996    2.7363 H   0  0  0  1  0  0  0  0  0  0  0  0
   -3.1428    3.3594   -0.5986 H   0  0  0  1  0  0  0  0  0  0  0  0
   -4.3180    5.4497   -0.9393 H   0  0  0  1  0  0  0  0  0  0  0  0
   -1.0598    2.6609    2.3228 H   0  0  0  1  0  0  0  0  0  0  0  0
   -2.1797    1.9322    1.1962 H   0  0  0  1  0  0  0  0  0  0  0  0
  1  4  1  0  0  0  0
  2  4  1  0  0  0  0
  2  5  2  0  0  0  0
  2  6  1  0  0  0  0
  3  4  1  0  0  0  0
  3  7  1  0  0  0  0
  3  8  1  0  0  0  0
  4 28  1  0  0  0  0
  6  9  1  0  0  0  0
  6 12  1  0  0  0  0
  8 10  1  0  0  0  0
  8 11  2  0  0  0  0
  9 13  1  0  0  0  0
  9 14  1  0  0  0  0
  9 15  1  0  0  0  0
 10 16  1  0  0  0  0
 10 17  1  0  0  0  0
 10 18  1  0  0  0  0
 19 20  1  0  0  0  0
 19 21  1  0  0  0  0
 19 22  1  0  0  0  0
 20 29  1  0  0  0  0
 21 30  1  0  0  0  0
 22 23  4  0  0  0  0
 22 27  4  0  0  0  0
 23 24  4  0  0  0  0
 23 31  1  0  0  0  0
 24 25  4  0  0  0  0
 24 32  1  0  0  0  0
 25 26  4  0  0  0  0
 25 28  1  0  0  0  0
 26 27  4  0  0  0  0
 26 33  1  0  0  0  0
 27 34  1  0  0  0  0
 28 35  1  0  0  0  0
 28 36  1  0  0  0  0
M  END
> <BCLConfClusterSize>
1

> <ConfClashScore>
0 

> <ConfOneFourInteractionScore>
-0.988961 

> <ConfScore>
-0.0328512 

> <ConfScorePBest>
0.00484336 

> <ConfTolerance>
0.50302 

> <RosettaParamsInstructions>
M  ROOT 3
M  POLY_N_BB 3
M  POLY_CA_BB 4
M  POLY_C_BB 2
M  POLY_O_BB 5
M  POLY_IGNORE 9 10 11 12 13 14 15 16 17 18 
M  POLY_UPPER 6
M  POLY_LOWER 8
M  POLY_CHG 0
M  POLY_PROPERTIES ALPHA_AA L_AA PROTEIN AROMATIC POLYMER 
M  END

$$$$



 36 36  0  0  0  0  0  0  0  0999 V2000
   -1.3681    1.8774   -0.6162 H   0  0  0  1  0  0  0  0  0  0  0  0
    0.2735    3.2177   -0.4318 C   0  0  0  1  0  0  0  0  0  0  0  0
    0.1582    0.9927    0.4849 N   0  0  0  1  0  0  0  0  0  0  0  0
   -0.6575    2.1504    0.1357 C   0  0  0  1  0  0  0  0  0  0  0  0
    1.2578    3.6028    0.1937 O   0  0  0  1  0  0  0  0  0  0  0  0
   -0.0549    3.6934   -1.6364 N   0  0  0  1  0  0  0  0  0  0  0  0
    0.1307    0.6548    1.4044 H   0  0  0  1  0  0  0  0  0  0  0  0
    0.9449    0.3744   -0.4089 C   0  0  0  1  0  0  0  0  0  0  0  0
    0.7227    4.7278   -2.3021 C   0  0  0  1  0  0  0  0  0  0  0  0
    1.6606   -0.8657    0.0901 C   0  0  0  1  0  0  0  0  0  0  0  0
    1.0875    0.7699   -1.5542 O   0  0  0  1  0  0  0  0  0  0  0  0
   -0.8469    3.3331   -2.0873 H   0  0  0  1  0  0  0  0  0  0  0  0
    0.9086    5.5301   -1.6191 H   0  0  0  1  0  0  0  0  0  0  0  0
    0.1770    5.0967   -3.1453 H   0  0  0  1  0  0  0  0  0  0  0  0
    1.6542    4.3170   -2.6314 H   0  0  0  1  0  0  0  0  0  0  0  0
    2.2652   -0.6131    0.9361 H   0  0  0  1  0  0  0  0  0  0  0  0
    2.2823   -1.2561   -0.6884 H   0  0  0  1  0  0  0  0  0  0  0  0
    0.9395   -1.6032    0.3749 H   0  0  0  1  0  0  0  0  0  0  0  0
   -4.1459    7.8146    0.3933 B   0  0  0  1  0  0  0  0  0  0  0  0
   -4.0216    8.7704    1.3373 O   0  0  0  1  0  0  0  0  0  0  0  0
   -4.8919    8.0128   -0.7080 O   0  0  0  1  0  0  0  0  0  0  0  0
   -3.4238    6.4216    0.7159 C   0  0  0  1  0  0  0  0  0  0  0  0
   -2.5274    6.2859    1.7591 C   0  0  0  1  0  0  0  0  0  0  0  0
   -1.8570    5.0870    1.9456 C   0  0  0  1  0  0  0  0  0  0  0  0
   -2.0812    4.0290    1.0850 C   0  0  0  1  0  0  0  0  0  0  0  0
   -2.9802    4.1649    0.0387 C   0  0  0  1  0  0  0  0  0  0  0  0
   -3.6485    5.3603   -0.1471 C   0  0  0  1  0  0  0  0  0  0  0  0
   -1.4131    2.6963    1.3513 C   0  0  0  1  0  0  0  0  0  0  0  0
   -4.8931    9.0660    1.6108 H   0  0  0  1  0  0  0  0  0  0  0  0
   -4.3511    7.8788   -1.4897 H   0  0  0  1  0  0  0  0  0  0  0  0
   -2.3558    7.0834    2.4043 H   0  0  0  1  0  0  0  0  0  0  0  0
   -1.1855    4.9836    2.7330 H   0  0  0  1  0  0  0  0  0  0  0  0
   -3.1518    3.3674   -0.6064 H   0  0  0  1  0  0  0  0  0  0  0  0
   -4.3200    5.4636   -0.9345 H   0  0  0  1  0  0  0  0  0  0  0  0
   -0.7195    2.8180    2.1569 H   0  0  0  1  0  0  0  0  0  0  0  0
   -2.1649    1.9883    1.6311 H   0  0  0  1  0  0  0  0  0  0  0  0
  1  4  1  0  0  0  0
  2  4  1  0  0  0  0
  2  5  2  0  0  0  0
  2  6  1  0  0  0  0
  3  4  1  0  0  0  0
  3  7  1  0  0  0  0
  3  8  1  0  0  0  0
  4 28  1  0  0  0  0
  6  9  1  0  0  0  0
  6 12  1  0  0  0  0
  8 10  1  0  0  0  0
  8 11  2  0  0  0  0
  9 13  1  0  0  0  0
  9 14  1  0  0  0  0
  9 15  1  0  0  0  0
 10 16  1  0  0  0  0
 10 17  1  0  0  0  0
 10 18  1  0  0  0  0
 19 20  1  0  0  0  0
 19 21  1  0  0  0  0
 19 22  1  0  0  0  0
 20 29  1  0  0  0  0
 21 30  1  0  0  0  0
 22 23  4  0  0  0  0
 22 27  4  0  0  0  0
 23 24  4  0  0  0  0
 23 31  1  0  0  0  0
 24 25  4  0  0  0  0
 24 32  1  0  0  0  0
 25 26  4  0  0  0  0
 25 28  1  0  0  0  0
 26 27  4  0  0  0  0
 26 33  1  0  0  0  0
 27 34  1  0  0  0  0
 28 35  1  0  0  0  0
 28 36  1  0  0  0  0
M  END
> <BCLConfClusterSize>
1

> <ConfClashScore>
0 

> <ConfOneFourInteractionScore>
-0.988961 

> <ConfScore>
-0.0297801 

> <ConfScorePBest>
0.00481488 

> <ConfTolerance>
0.432187 

> <RosettaParamsInstructions>
M  ROOT 3
M  POLY_N_BB 3
M  POLY_CA_BB 4
M  POLY_C_BB 2
M  POLY_O_BB 5
M  POLY_IGNORE 9 10 11 12 13 14 15 16 17 18 
M  POLY_UPPER 6
M  POLY_LOWER 8
M  POLY_CHG 0
M  POLY_PROPERTIES ALPHA_AA L_AA PROTEIN AROMATIC POLYMER 
M  END

$$$$



 36 36  0  0  0  0  0  0  0  0999 V2000
   -3.2413    1.7491    1.8927 H   0  0  0  1  0  0  0  0  0  0  0  0
   -1.6694    0.3817    2.2739 C   0  0  0  1  0  0  0  0  0  0  0  0
   -2.2595    2.3390    3.6142 N   0  0  0  1  0  0  0  0  0  0  0  0
   -2.2388    1.7973    2.2637 C   0  0  0  1  0  0  0  0  0  0  0  0
   -1.1332   -0.0930    1.2735 O   0  0  0  1  0  0  0  0  0  0  0  0
   -1.8742   -0.3057    3.4087 N   0  0  0  1  0  0  0  0  0  0  0  0
   -3.1153    2.3947    4.0884 H   0  0  0  1  0  0  0  0  0  0  0  0
   -1.1523    2.7631    4.2300 C   0  0  0  1  0  0  0  0  0  0  0  0
   -1.5578   -1.7212    3.5279 C   0  0  0  1  0  0  0  0  0  0  0  0
   -1.3625    3.4425    5.5692 C   0  0  0  1  0  0  0  0  0  0  0  0
   -0.0352    2.6216    3.7604 O   0  0  0  1  0  0  0  0  0  0  0  0
   -2.2498    0.1619    4.1837 H   0  0  0  1  0  0  0  0  0  0  0  0
   -2.1831   -2.1653    4.2740 H   0  0  0  1  0  0  0  0  0  0  0  0
   -0.5317   -1.8345    3.8092 H   0  0  0  1  0  0  0  0  0  0  0  0
   -1.7260   -2.2044    2.5882 H   0  0  0  1  0  0  0  0  0  0  0  0
   -1.8889    2.7820    6.2261 H   0  0  0  1  0  0  0  0  0  0  0  0
   -1.9339    4.3364    5.4296 H   0  0  0  1  0  0  0  0  0  0  0  0
   -0.4131    3.6887    5.9969 H   0  0  0  1  0  0  0  0  0  0  0  0
   -4.0855    7.8595    0.4985 B   0  0  0  1  0  0  0  0  0  0  0  0
   -4.7639    8.1661   -0.6374 O   0  0  0  1  0  0  0  0  0  0  0  0
   -3.9739    8.8137    1.4611 O   0  0  0  1  0  0  0  0  0  0  0  0
   -3.4362    6.4104    0.6929 C   0  0  0  1  0  0  0  0  0  0  0  0
   -2.5427    6.2921    1.7407 C   0  0  0  1  0  0  0  0  0  0  0  0
   -1.8642    5.1001    1.9419 C   0  0  0  1  0  0  0  0  0  0  0  0
   -2.0773    4.0318    1.0913 C   0  0  0  1  0  0  0  0  0  0  0  0
   -2.9734    4.1503    0.0404 C   0  0  0  1  0  0  0  0  0  0  0  0
   -3.6498    5.3388   -0.1600 C   0  0  0  1  0  0  0  0  0  0  0  0
   -1.4310    2.6933    1.3296 C   0  0  0  1  0  0  0  0  0  0  0  0
   -4.1579    8.5389   -1.2819 H   0  0  0  1  0  0  0  0  0  0  0  0
   -3.0937    9.1957    1.4331 H   0  0  0  1  0  0  0  0  0  0  0  0
   -2.3795    7.0973    2.3783 H   0  0  0  1  0  0  0  0  0  0  0  0
   -1.1949    5.0098    2.7328 H   0  0  0  1  0  0  0  0  0  0  0  0
   -3.1367    3.3451   -0.5972 H   0  0  0  1  0  0  0  0  0  0  0  0
   -4.3191    5.4291   -0.9509 H   0  0  0  1  0  0  0  0  0  0  0  0
   -1.3228    2.1950    0.3889 H   0  0  0  1  0  0  0  0  0  0  0  0
   -0.4654    2.8535    1.7620 H   0  0  0  1  0  0  0  0  0  0  0  0
  1  4  1  0  0  0  0
  2  4  1  0  0  0  0
  2  5  2  0  0  0  0
  2  6  1  0  0  0  0
  3  4  1  0  0  0  0
  3  7  1  0  0  0  0
  3  8  1  0  0  0  0
  4 28  1  0  0  0  0
  6  9  1  0  0  0  0
  6 12  1  0  0  0  0
  8 10  1  0  0  0  0
  8 11  2  0  0  0  0
  9 13  1  0  0  0  0
  9 14  1  0  0  0  0
  9 15  1  0  0  0  0
 10 16  1  0  0  0  0
 10 17  1  0  0  0  0
 10 18  1  0  0  0  0
 19 20  1  0  0  0  0
 19 21  1  0  0  0  0
 19 22  1  0  0  0  0
 20 29  1  0  0  0  0
 21 30  1  0  0  0  0
 22 23  4  0  0  0  0
 22 27  4  0  0  0  0
 23 24  4  0  0  0  0
 23 31  1  0  0  0  0
 24 25  4  0  0  0  0
 24 32  1  0  0  0  0
 25 26  4  0  0  0  0
 25 28  1  0  0  0  0
 26 27  4  0  0  0  0
 26 33  1  0  0  0  0
 27 34  1  0  0  0  0
 28 35  1  0  0  0  0
 28 36  1  0  0  0  0
M  END
> <BCLConfClusterSize>
1

> <ConfClashScore>
0 

> <ConfOneFourInteractionScore>
-0.963519 

> <ConfScore>
-0.0297435 

> <ConfScorePBest>
0.00478639 

> <ConfTolerance>
0.27594 

> <RosettaParamsInstructions>
M  ROOT 3
M  POLY_N_BB 3
M  POLY_CA_BB 4
M  POLY_C_BB 2
M  POLY_O_BB 5
M  POLY_IGNORE 9 10 11 12 13 14 15 16 17 18 
M  POLY_UPPER 6
M  POLY_LOWER 8
M  POLY_CHG 0
M  POLY_PROPERTIES ALPHA_AA L_AA PROTEIN AROMATIC POLYMER 
M  END

$$$$



 36 36  0  0  0  0  0  0  0  0999 V2000
   -0.3267    2.5499   -0.4639 H   0  0  0  1  0  0  0  0  0  0  0  0
    0.9515    3.3495    1.0240 C   0  0  0  1  0  0  0  0  0  0  0  0
    0.2629    1.0166    0.7911 N   0  0  0  1  0  0  0  0  0  0  0  0
   -0.1524    2.3941    0.5803 C   0  0  0  1  0  0  0  0  0  0  0  0
    1.3103    3.3965    2.1999 O   0  0  0  1  0  0  0  0  0  0  0  0
    1.5149    4.1315    0.0988 N   0  0  0  1  0  0  0  0  0  0  0  0
   -0.2635    0.4311    1.3747 H   0  0  0  1  0  0  0  0  0  0  0  0
    1.3651    0.5455    0.1883 C   0  0  0  1  0  0  0  0  0  0  0  0
    2.5610    5.0898    0.4231 C   0  0  0  1  0  0  0  0  0  0  0  0
    1.7012   -0.9058    0.4710 C   0  0  0  1  0  0  0  0  0  0  0  0
    2.0691    1.2309   -0.5486 O   0  0  0  1  0  0  0  0  0  0  0  0
    1.2132    4.0571   -0.8307 H   0  0  0  1  0  0  0  0  0  0  0  0
    2.4845    5.9358   -0.2275 H   0  0  0  1  0  0  0  0  0  0  0  0
    3.5183    4.6287    0.2972 H   0  0  0  1  0  0  0  0  0  0  0  0
    2.4492    5.4095    1.4381 H   0  0  0  1  0  0  0  0  0  0  0  0
    1.8811   -1.0334    1.5180 H   0  0  0  1  0  0  0  0  0  0  0  0
    2.5774   -1.1821   -0.0775 H   0  0  0  1  0  0  0  0  0  0  0  0
    0.8822   -1.5261    0.1719 H   0  0  0  1  0  0  0  0  0  0  0  0
   -4.1453    7.8073    0.3911 B   0  0  0  1  0  0  0  0  0  0  0  0
   -4.3325    8.2766   -0.8764 O   0  0  0  1  0  0  0  0  0  0  0  0
   -4.5904    8.5450    1.4478 O   0  0  0  1  0  0  0  0  0  0  0  0
   -3.4235    6.4214    0.7163 C   0  0  0  1  0  0  0  0  0  0  0  0
   -2.5277    6.2898    1.7605 C   0  0  0  1  0  0  0  0  0  0  0  0
   -1.8552    5.0925    1.9503 C   0  0  0  1  0  0  0  0  0  0  0  0
   -2.0767    4.0321    1.0919 C   0  0  0  1  0  0  0  0  0  0  0  0
   -2.9752    4.1640    0.0445 C   0  0  0  1  0  0  0  0  0  0  0  0
   -3.6455    5.3577   -0.1445 C   0  0  0  1  0  0  0  0  0  0  0  0
   -1.4375    2.6889    1.3175 C   0  0  0  1  0  0  0  0  0  0  0  0
   -5.1130    7.8678   -1.2575 H   0  0  0  1  0  0  0  0  0  0  0  0
   -5.4998    8.3079    1.6438 H   0  0  0  1  0  0  0  0  0  0  0  0
   -2.3581    7.0890    2.4039 H   0  0  0  1  0  0  0  0  0  0  0  0
   -1.1841    4.9922    2.7384 H   0  0  0  1  0  0  0  0  0  0  0  0
   -3.1448    3.3647   -0.5989 H   0  0  0  1  0  0  0  0  0  0  0  0
   -4.3166    5.4580   -0.9326 H   0  0  0  1  0  0  0  0  0  0  0  0
   -1.2329    2.6035    2.3643 H   0  0  0  1  0  0  0  0  0  0  0  0
   -2.1493    1.9433    1.0307 H   0  0  0  1  0  0  0  0  0  0  0  0
  1  4  1  0  0  0  0
  2  4  1  0  0  0  0
  2  5  2  0  0  0  0
  2  6  1  0  0  0  0
  3  4  1  0  0  0  0
  3  7  1  0  0  0  0
  3  8  1  0  0  0  0
  4 28  1  0  0  0  0
  6  9  1  0  0  0  0
  6 12  1  0  0  0  0
  8 10  1  0  0  0  0
  8 11  2  0  0  0  0
  9 13  1  0  0  0  0
  9 14  1  0  0  0  0
  9 15  1  0  0  0  0
 10 16  1  0  0  0  0
 10 17  1  0  0  0  0
 10 18  1  0  0  0  0
 19 20  1  0  0  0  0
 19 21  1  0  0  0  0
 19 22  1  0  0  0  0
 20 29  1  0  0  0  0
 21 30  1  0  0  0  0
 22 23  4  0  0  0  0
 22 27  4  0  0  0  0
 23 24  4  0  0  0  0
 23 31  1  0  0  0  0
 24 25  4  0  0  0  0
 24 32  1  0  0  0  0
 25 26  4  0  0  0  0
 25 28  1  0  0  0  0
 26 27  4  0  0  0  0
 26 33  1  0  0  0  0
 27 34  1  0  0  0  0
 28 35  1  0  0  0  0
 28 36  1  0  0  0  0
M  END
> <BCLConfClusterSize>
1

> <ConfClashScore>
0 

> <ConfOneFourInteractionScore>
-0.988961 

> <ConfScore>
-0.0291066 

> <ConfScorePBest>
0.00475791 

> <ConfTolerance>
0.374799 

> <RosettaParamsInstructions>
M  ROOT 3
M  POLY_N_BB 3
M  POLY_CA_BB 4
M  POLY_C_BB 2
M  POLY_O_BB 5
M  POLY_IGNORE 9 10 11 12 13 14 15 16 17 18 
M  POLY_UPPER 6
M  POLY_LOWER 8
M  POLY_CHG 0
M  POLY_PROPERTIES ALPHA_AA L_AA PROTEIN AROMATIC POLYMER 
M  END

$$$$



 36 36  0  0  0  0  0  0  0  0999 V2000
   -1.7954    2.7372    3.4126 H   0  0  0  1  0  0  0  0  0  0  0  0
   -0.6167    1.0325    3.0115 C   0  0  0  1  0  0  0  0  0  0  0  0
    0.1539    3.3430    3.0834 N   0  0  0  1  0  0  0  0  0  0  0  0
   -0.9787    2.4849    2.7690 C   0  0  0  1  0  0  0  0  0  0  0  0
   -1.4718    0.2015    3.2699 O   0  0  0  1  0  0  0  0  0  0  0  0
    0.6891    0.7343    2.9227 N   0  0  0  1  0  0  0  0  0  0  0  0
    0.4131    4.0204    2.4244 H   0  0  0  1  0  0  0  0  0  0  0  0
    0.8627    3.2660    4.2133 C   0  0  0  1  0  0  0  0  0  0  0  0
    1.1885   -0.6241    3.0754 C   0  0  0  1  0  0  0  0  0  0  0  0
    1.9871    4.2733    4.3554 C   0  0  0  1  0  0  0  0  0  0  0  0
    0.6313    2.4327    5.0986 O   0  0  0  1  0  0  0  0  0  0  0  0
    1.3284    1.4564    2.7488 H   0  0  0  1  0  0  0  0  0  0  0  0
    0.3794   -1.2752    3.3332 H   0  0  0  1  0  0  0  0  0  0  0  0
    1.9258   -0.6477    3.8505 H   0  0  0  1  0  0  0  0  0  0  0  0
    1.6273   -0.9481    2.1550 H   0  0  0  1  0  0  0  0  0  0  0  0
    2.3742    4.5155    3.3876 H   0  0  0  1  0  0  0  0  0  0  0  0
    2.7670    3.8546    4.9566 H   0  0  0  1  0  0  0  0  0  0  0  0
    1.6137    5.1608    4.8222 H   0  0  0  1  0  0  0  0  0  0  0  0
   -4.1185    7.8114    0.4306 B   0  0  0  1  0  0  0  0  0  0  0  0
   -3.4753    8.9214    0.8519 O   0  0  0  1  0  0  0  0  0  0  0  0
   -5.3158    7.8076   -0.2142 O   0  0  0  1  0  0  0  0  0  0  0  0
   -3.4283    6.4190    0.7079 C   0  0  0  1  0  0  0  0  0  0  0  0
   -2.5333    6.2919    1.7534 C   0  0  0  1  0  0  0  0  0  0  0  0
   -1.8589    5.0964    1.9472 C   0  0  0  1  0  0  0  0  0  0  0  0
   -2.0776    4.0332    1.0915 C   0  0  0  1  0  0  0  0  0  0  0  0
   -2.9752    4.1606    0.0429 C   0  0  0  1  0  0  0  0  0  0  0  0
   -3.6475    5.3526   -0.1501 C   0  0  0  1  0  0  0  0  0  0  0  0
   -1.4359    2.6911    1.3216 C   0  0  0  1  0  0  0  0  0  0  0  0
   -2.5454    8.8599    0.6213 H   0  0  0  1  0  0  0  0  0  0  0  0
   -5.2250    7.3556   -1.0562 H   0  0  0  1  0  0  0  0  0  0  0  0
   -2.3658    7.0932    2.3948 H   0  0  0  1  0  0  0  0  0  0  0  0
   -1.1885    4.9994    2.7363 H   0  0  0  1  0  0  0  0  0  0  0  0
   -3.1427    3.3593   -0.5985 H   0  0  0  1  0  0  0  0  0  0  0  0
   -4.3179    5.4495   -0.9393 H   0  0  0  1  0  0  0  0  0  0  0  0
   -2.1448    1.9281    1.0764 H   0  0  0  1  0  0  0  0  0  0  0  0
   -0.5838    2.6065    0.6800 H   0  0  0  1  0  0  0  0  0  0  0  0
  1  4  1  0  0  0  0
  2  4  1  0  0  0  0
  2  5  2  0  0  0  0
  2  6  1  0  0  0  0
  3  4  1  0  0  0  0
  3  7  1  0  0  0  0
  3  8  1  0  0  0  0
  4 28  1  0  0  0  0
  6  9  1  0  0  0  0
  6 12  1  0  0  0  0
  8 10  1  0  0  0  0
  8 11  2  0  0  0  0
  9 13  1  0  0  0  0
  9 14  1  0  0  0  0
  9 15  1  0  0  0  0
 10 16  1  0  0  0  0
 10 17  1  0  0  0  0
 10 18  1  0  0  0  0
 19 20  1  0  0  0  0
 19 21  1  0  0  0  0
 19 22  1  0  0  0  0
 20 29  1  0  0  0  0
 21 30  1  0  0  0  0
 22 23  4  0  0  0  0
 22 27  4  0  0  0  0
 23 24  4  0  0  0  0
 23 31  1  0  0  0  0
 24 25  4  0  0  0  0
 24 32  1  0  0  0  0
 25 26  4  0  0  0  0
 25 28  1  0  0  0  0
 26 27  4  0  0  0  0
 26 33  1  0  0  0  0
 27 34  1  0  0  0  0
 28 35  1  0  0  0  0
 28 36  1  0  0  0  0
M  END
> <BCLConfClusterSize>
1

> <ConfClashScore>
0 

> <ConfOneFourInteractionScore>
-0.960334 

> <ConfScore>
-0.0287624 

> <ConfScorePBest>
0.00472943 

> <ConfTolerance>
0.560549 

> <RosettaParamsInstructions>
M  ROOT 3
M  POLY_N_BB 3
M  POLY_CA_BB 4
M  POLY_C_BB 2
M  POLY_O_BB 5
M  POLY_IGNORE 9 10 11 12 13 14 15 16 17 18 
M  POLY_UPPER 6
M  POLY_LOWER 8
M  POLY_CHG 0
M  POLY_PROPERTIES ALPHA_AA L_AA PROTEIN AROMATIC POLYMER 
M  END

$$$$



 36 36  0  0  0  0  0  0  0  0999 V2000
   -1.7598    0.8170    2.2698 H   0  0  0  1  0  0  0  0  0  0  0  0
   -2.4988    2.3010    3.5767 C   0  0  0  1  0  0  0  0  0  0  0  0
   -3.5604    1.5134    1.5297 N   0  0  0  1  0  0  0  0  0  0  0  0
   -2.2807    1.7475    2.1819 C   0  0  0  1  0  0  0  0  0  0  0  0
   -1.7980    1.9430    4.5224 O   0  0  0  1  0  0  0  0  0  0  0  0
   -3.4940    3.1933    3.7009 N   0  0  0  1  0  0  0  0  0  0  0  0
   -3.8128    2.0757    0.7678 H   0  0  0  1  0  0  0  0  0  0  0  0
   -4.4018    0.5601    1.9329 C   0  0  0  1  0  0  0  0  0  0  0  0
   -3.9057    3.8134    4.9515 C   0  0  0  1  0  0  0  0  0  0  0  0
   -5.7516    0.5377    1.2425 C   0  0  0  1  0  0  0  0  0  0  0  0
   -4.1206   -0.2510    2.8006 O   0  0  0  1  0  0  0  0  0  0  0  0
   -3.9800    3.4461    2.8883 H   0  0  0  1  0  0  0  0  0  0  0  0
   -4.1415    4.8427    4.7790 H   0  0  0  1  0  0  0  0  0  0  0  0
   -3.1091    3.7446    5.6626 H   0  0  0  1  0  0  0  0  0  0  0  0
   -4.7690    3.3089    5.3323 H   0  0  0  1  0  0  0  0  0  0  0  0
   -6.3784   -0.1945    1.7072 H   0  0  0  1  0  0  0  0  0  0  0  0
   -5.6197    0.2903    0.2099 H   0  0  0  1  0  0  0  0  0  0  0  0
   -6.2092    1.5015    1.3232 H   0  0  0  1  0  0  0  0  0  0  0  0
   -4.1182    7.8171    0.4332 B   0  0  0  1  0  0  0  0  0  0  0  0
   -5.2681    7.9594   -0.2755 O   0  0  0  1  0  0  0  0  0  0  0  0
   -3.5523    8.9463    0.9196 O   0  0  0  1  0  0  0  0  0  0  0  0
   -3.4287    6.4193    0.7075 C   0  0  0  1  0  0  0  0  0  0  0  0
   -2.5331    6.2881    1.7520 C   0  0  0  1  0  0  0  0  0  0  0  0
   -1.8608    5.0909    1.9426 C   0  0  0  1  0  0  0  0  0  0  0  0
   -2.0821    4.0301    1.0846 C   0  0  0  1  0  0  0  0  0  0  0  0
   -2.9803    4.1615    0.0370 C   0  0  0  1  0  0  0  0  0  0  0  0
   -3.6505    5.3552   -0.1528 C   0  0  0  1  0  0  0  0  0  0  0  0
   -1.4119    2.6994    1.3553 C   0  0  0  1  0  0  0  0  0  0  0  0
   -5.0651    7.9871   -1.2134 H   0  0  0  1  0  0  0  0  0  0  0  0
   -4.1585    9.3708    1.5311 H   0  0  0  1  0  0  0  0  0  0  0  0
   -2.3636    7.0877    2.3951 H   0  0  0  1  0  0  0  0  0  0  0  0
   -1.1899    4.9909    2.7309 H   0  0  0  1  0  0  0  0  0  0  0  0
   -3.1498    3.3620   -0.6061 H   0  0  0  1  0  0  0  0  0  0  0  0
   -4.3214    5.4552   -0.9411 H   0  0  0  1  0  0  0  0  0  0  0  0
   -1.1915    2.2323    0.4182 H   0  0  0  1  0  0  0  0  0  0  0  0
   -0.5014    2.8788    1.8879 H   0  0  0  1  0  0  0  0  0  0  0  0
  1  4  1  0  0  0  0
  2  4  1  0  0  0  0
  2  5  2  0  0  0  0
  2  6  1  0  0  0  0
  3  4  1  0  0  0  0
  3  7  1  0  0  0  0
  3  8  1  0  0  0  0
  4 28  1  0  0  0  0
  6  9  1  0  0  0  0
  6 12  1  0  0  0  0
  8 10  1  0  0  0  0
  8 11  2  0  0  0  0
  9 13  1  0  0  0  0
  9 14  1  0  0  0  0
  9 15  1  0  0  0  0
 10 16  1  0  0  0  0
 10 17  1  0  0  0  0
 10 18  1  0  0  0  0
 19 20  1  0  0  0  0
 19 21  1  0  0  0  0
 19 22  1  0  0  0  0
 20 29  1  0  0  0  0
 21 30  1  0  0  0  0
 22 23  4  0  0  0  0
 22 27  4  0  0  0  0
 23 24  4  0  0  0  0
 23 31  1  0  0  0  0
 24 25  4  0  0  0  0
 24 32  1  0  0  0  0
 25 26  4  0  0  0  0
 25 28  1  0  0  0  0
 26 27  4  0  0  0  0
 26 33  1  0  0  0  0
 27 34  1  0  0  0  0
 28 35  1  0  0  0  0
 28 36  1  0  0  0  0
M  END
> <BCLConfClusterSize>
1

> <ConfClashScore>
0 

> <ConfOneFourInteractionScore>
-0.961581 

> <ConfScore>
-0.0267054 

> <ConfScorePBest>
0.00470095 

> <ConfTolerance>
0.368434 

> <RosettaParamsInstructions>
M  ROOT 3
M  POLY_N_BB 3
M  POLY_CA_BB 4
M  POLY_C_BB 2
M  POLY_O_BB 5
M  POLY_IGNORE 9 10 11 12 13 14 15 16 17 18 
M  POLY_UPPER 6
M  POLY_LOWER 8
M  POLY_CHG 0
M  POLY_PROPERTIES ALPHA_AA L_AA PROTEIN AROMATIC POLYMER 
M  END

$$$$



 36 36  0  0  0  0  0  0  0  0999 V2000
    0.0992    3.1053   -0.0570 H   0  0  0  1  0  0  0  0  0  0  0  0
    0.4412    1.1131    0.5298 C   0  0  0  1  0  0  0  0  0  0  0  0
   -1.3078    1.9201   -1.0041 N   0  0  0  1  0  0  0  0  0  0  0  0
   -0.5072    2.2587    0.1890 C   0  0  0  1  0  0  0  0  0  0  0  0
    0.2392   -0.0187    0.1215 O   0  0  0  1  0  0  0  0  0  0  0  0
    1.4936    1.4361    1.2969 N   0  0  0  1  0  0  0  0  0  0  0  0
   -1.8985    1.1402   -0.9470 H   0  0  0  1  0  0  0  0  0  0  0  0
   -1.2878    2.5968   -2.1560 C   0  0  0  1  0  0  0  0  0  0  0  0
    2.4155    0.4801    1.8918 C   0  0  0  1  0  0  0  0  0  0  0  0
   -2.3032    2.1604   -3.1941 C   0  0  0  1  0  0  0  0  0  0  0  0
   -0.5093    3.5106   -2.3765 O   0  0  0  1  0  0  0  0  0  0  0  0
    1.6534    2.3874    1.4695 H   0  0  0  1  0  0  0  0  0  0  0  0
    1.8791   -0.1718    2.5492 H   0  0  0  1  0  0  0  0  0  0  0  0
    3.1659    1.0054    2.4450 H   0  0  0  1  0  0  0  0  0  0  0  0
    2.8795   -0.0961    1.1188 H   0  0  0  1  0  0  0  0  0  0  0  0
   -2.3351    1.0917   -3.2354 H   0  0  0  1  0  0  0  0  0  0  0  0
   -2.0220    2.5459   -4.1518 H   0  0  0  1  0  0  0  0  0  0  0  0
   -3.2692    2.5357   -2.9276 H   0  0  0  1  0  0  0  0  0  0  0  0
   -4.1014    7.8308    0.4635 B   0  0  0  1  0  0  0  0  0  0  0  0
   -5.0864    8.0483   -0.4459 O   0  0  0  1  0  0  0  0  0  0  0  0
   -3.6528    8.8686    1.2192 O   0  0  0  1  0  0  0  0  0  0  0  0
   -3.4325    6.4160    0.7006 C   0  0  0  1  0  0  0  0  0  0  0  0
   -2.5382    6.2930    1.7472 C   0  0  0  1  0  0  0  0  0  0  0  0
   -1.8619    5.0992    1.9445 C   0  0  0  1  0  0  0  0  0  0  0  0
   -2.0780    4.0335    1.0912 C   0  0  0  1  0  0  0  0  0  0  0  0
   -2.9748    4.1568    0.0415 C   0  0  0  1  0  0  0  0  0  0  0  0
   -3.6490    5.3471   -0.1551 C   0  0  0  1  0  0  0  0  0  0  0  0
   -1.4302    2.6851    1.3266 C   0  0  0  1  0  0  0  0  0  0  0  0
   -4.7287    8.5268   -1.1974 H   0  0  0  1  0  0  0  0  0  0  0  0
   -2.7342    9.0474    1.0050 H   0  0  0  1  0  0  0  0  0  0  0  0
   -2.3727    7.0962    2.3868 H   0  0  0  1  0  0  0  0  0  0  0  0
   -1.1920    5.0054    2.7345 H   0  0  0  1  0  0  0  0  0  0  0  0
   -3.1404    3.3536   -0.5981 H   0  0  0  1  0  0  0  0  0  0  0  0
   -4.3189    5.4409   -0.9450 H   0  0  0  1  0  0  0  0  0  0  0  0
   -0.8577    2.7352    2.2292 H   0  0  0  1  0  0  0  0  0  0  0  0
   -2.2012    1.9509    1.4331 H   0  0  0  1  0  0  0  0  0  0  0  0
  1  4  1  0  0  0  0
  2  4  1  0  0  0  0
  2  5  2  0  0  0  0
  2  6  1  0  0  0  0
  3  4  1  0  0  0  0
  3  7  1  0  0  0  0
  3  8  1  0  0  0  0
  4 28  1  0  0  0  0
  6  9  1  0  0  0  0
  6 12  1  0  0  0  0
  8 10  1  0  0  0  0
  8 11  2  0  0  0  0
  9 13  1  0  0  0  0
  9 14  1  0  0  0  0
  9 15  1  0  0  0  0
 10 16  1  0  0  0  0
 10 17  1  0  0  0  0
 10 18  1  0  0  0  0
 19 20  1  0  0  0  0
 19 21  1  0  0  0  0
 19 22  1  0  0  0  0
 20 29  1  0  0  0  0
 21 30  1  0  0  0  0
 22 23  4  0  0  0  0
 22 27  4  0  0  0  0
 23 24  4  0  0  0  0
 23 31  1  0  0  0  0
 24 25  4  0  0  0  0
 24 32  1  0  0  0  0
 25 26  4  0  0  0  0
 25 28  1  0  0  0  0
 26 27  4  0  0  0  0
 26 33  1  0  0  0  0
 27 34  1  0  0  0  0
 28 35  1  0  0  0  0
 28 36  1  0  0  0  0
M  END
> <BCLConfClusterSize>
1

> <ConfClashScore>
0 

> <ConfOneFourInteractionScore>
-0.989599 

> <ConfScore>
-0.0172559 

> <ConfScorePBest>
0.00467247 

> <ConfTolerance>
0.539384 

> <RosettaParamsInstructions>
M  ROOT 3
M  POLY_N_BB 3
M  POLY_CA_BB 4
M  POLY_C_BB 2
M  POLY_O_BB 5
M  POLY_IGNORE 9 10 11 12 13 14 15 16 17 18 
M  POLY_UPPER 6
M  POLY_LOWER 8
M  POLY_CHG 0
M  POLY_PROPERTIES ALPHA_AA L_AA PROTEIN AROMATIC POLYMER 
M  END

$$$$



 36 36  0  0  0  0  0  0  0  0999 V2000
   -0.6824    2.1107   -0.5481 H   0  0  0  1  0  0  0  0  0  0  0  0
    0.6695    3.5269    0.2648 C   0  0  0  1  0  0  0  0  0  0  0  0
    0.4986    1.2232    0.9115 N   0  0  0  1  0  0  0  0  0  0  0  0
   -0.2752    2.3500    0.4120 C   0  0  0  1  0  0  0  0  0  0  0  0
    1.3903    3.8869    1.1942 O   0  0  0  1  0  0  0  0  0  0  0  0
    0.6612    4.1325   -0.9261 N   0  0  0  1  0  0  0  0  0  0  0  0
    0.9630    1.3363    1.7671 H   0  0  0  1  0  0  0  0  0  0  0  0
    0.6233    0.0482    0.2926 C   0  0  0  1  0  0  0  0  0  0  0  0
    1.5748    5.1913   -1.3287 C   0  0  0  1  0  0  0  0  0  0  0  0
    1.6064   -0.9304    0.9475 C   0  0  0  1  0  0  0  0  0  0  0  0
    0.0629   -0.2302   -0.7667 O   0  0  0  1  0  0  0  0  0  0  0  0
   -0.0107    3.8417   -1.5775 H   0  0  0  1  0  0  0  0  0  0  0  0
    1.0295    6.1023   -1.4613 H   0  0  0  1  0  0  0  0  0  0  0  0
    2.0485    4.9222   -2.2497 H   0  0  0  1  0  0  0  0  0  0  0  0
    2.3182    5.3278   -0.5713 H   0  0  0  1  0  0  0  0  0  0  0  0
    1.1787   -1.3166    1.8491 H   0  0  0  1  0  0  0  0  0  0  0  0
    2.5186   -0.4199    1.1758 H   0  0  0  1  0  0  0  0  0  0  0  0
    1.8076   -1.7374    0.2743 H   0  0  0  1  0  0  0  0  0  0  0  0
   -4.1431    7.8092    0.3944 B   0  0  0  1  0  0  0  0  0  0  0  0
   -3.5082    8.9480    0.7748 O   0  0  0  1  0  0  0  0  0  0  0  0
   -5.3447    7.7676   -0.2392 O   0  0  0  1  0  0  0  0  0  0  0  0
   -3.4236    6.4212    0.7159 C   0  0  0  1  0  0  0  0  0  0  0  0
   -2.5272    6.2856    1.7592 C   0  0  0  1  0  0  0  0  0  0  0  0
   -1.8569    5.0867    1.9457 C   0  0  0  1  0  0  0  0  0  0  0  0
   -2.0811    4.0286    1.0851 C   0  0  0  1  0  0  0  0  0  0  0  0
   -2.9801    4.1645    0.0388 C   0  0  0  1  0  0  0  0  0  0  0  0
   -3.6483    5.3600   -0.1470 C   0  0  0  1  0  0  0  0  0  0  0  0
   -1.4176    2.7051    1.3496 C   0  0  0  1  0  0  0  0  0  0  0  0
   -3.8673    9.2507    1.6120 H   0  0  0  1  0  0  0  0  0  0  0  0
   -5.3030    8.2950   -1.0403 H   0  0  0  1  0  0  0  0  0  0  0  0
   -2.3556    7.0831    2.4043 H   0  0  0  1  0  0  0  0  0  0  0  0
   -1.1854    4.9833    2.7331 H   0  0  0  1  0  0  0  0  0  0  0  0
   -3.1517    3.3670   -0.6063 H   0  0  0  1  0  0  0  0  0  0  0  0
   -4.3198    5.4633   -0.9344 H   0  0  0  1  0  0  0  0  0  0  0  0
   -1.0321    2.7227    2.3476 H   0  0  0  1  0  0  0  0  0  0  0  0
   -2.1617    1.9406    1.2676 H   0  0  0  1  0  0  0  0  0  0  0  0
  1  4  1  0  0  0  0
  2  4  1  0  0  0  0
  2  5  2  0  0  0  0
  2  6  1  0  0  0  0
  3  4  1  0  0  0  0
  3  7  1  0  0  0  0
  3  8  1  0  0  0  0
  4 28  1  0  0  0  0
  6  9  1  0  0  0  0
  6 12  1  0  0  0  0
  8 10  1  0  0  0  0
  8 11  2  0  0  0  0
  9 13  1  0  0  0  0
  9 14  1  0  0  0  0
  9 15  1  0  0  0  0
 10 16  1  0  0  0  0
 10 17  1  0  0  0  0
 10 18  1  0  0  0  0
 19 20  1  0  0  0  0
 19 21  1  0  0  0  0
 19 22  1  0  0  0  0
 20 29  1  0  0  0  0
 21 30  1  0  0  0  0
 22 23  4  0  0  0  0
 22 27  4  0  0  0  0
 23 24  4  0  0  0  0
 23 31  1  0  0  0  0
 24 25  4  0  0  0  0
 24 32  1  0  0  0  0
 25 26  4  0  0  0  0
 25 28  1  0  0  0  0
 26 27  4  0  0  0  0
 26 33  1  0  0  0  0
 27 34  1  0  0  0  0
 28 35  1  0  0  0  0
 28 36  1  0  0  0  0
M  END
> <BCLConfClusterSize>
1

> <ConfClashScore>
0 

> <ConfOneFourInteractionScore>
-0.992613 

> <ConfScore>
-0.0119695 

> <ConfScorePBest>
0.00464399 

> <ConfTolerance>
0.437318 

> <RosettaParamsInstructions>
M  ROOT 3
M  POLY_N_BB 3
M  POLY_CA_BB 4
M  POLY_C_BB 2
M  POLY_O_BB 5
M  POLY_IGNORE 9 10 11 12 13 14 15 16 17 18 
M  POLY_UPPER 6
M  POLY_LOWER 8
M  POLY_CHG 0
M  POLY_PROPERTIES ALPHA_AA L_AA PROTEIN AROMATIC POLYMER 
M  END

$$$$



 36 36  0  0  0  0  0  0  0  0999 V2000
   -3.2240    1.6906    1.8752 H   0  0  0  1  0  0  0  0  0  0  0  0
   -1.5757    0.4351    2.3308 C   0  0  0  1  0  0  0  0  0  0  0  0
   -2.2958    2.4087    3.5879 N   0  0  0  1  0  0  0  0  0  0  0  0
   -2.2344    1.8026    2.2663 C   0  0  0  1  0  0  0  0  0  0  0  0
   -1.5584   -0.3120    1.3535 O   0  0  0  1  0  0  0  0  0  0  0  0
   -1.0244    0.1084    3.5105 N   0  0  0  1  0  0  0  0  0  0  0  0
   -1.4537    2.5129    4.0782 H   0  0  0  1  0  0  0  0  0  0  0  0
   -3.4493    2.8471    4.2021 C   0  0  0  1  0  0  0  0  0  0  0  0
   -0.2564   -1.1134    3.6978 C   0  0  0  1  0  0  0  0  0  0  0  0
   -3.2751    3.4723    5.5555 C   0  0  0  1  0  0  0  0  0  0  0  0
   -4.5272    2.7160    3.6448 O   0  0  0  1  0  0  0  0  0  0  0  0
   -1.1433    0.7137    4.2719 H   0  0  0  1  0  0  0  0  0  0  0  0
   -0.1147   -1.5948    2.7528 H   0  0  0  1  0  0  0  0  0  0  0  0
   -0.7859   -1.7698    4.3563 H   0  0  0  1  0  0  0  0  0  0  0  0
    0.6963   -0.8741    4.1222 H   0  0  0  1  0  0  0  0  0  0  0  0
   -3.4650    2.7414    6.3136 H   0  0  0  1  0  0  0  0  0  0  0  0
   -3.9625    4.2851    5.6638 H   0  0  0  1  0  0  0  0  0  0  0  0
   -2.2736    3.8359    5.6539 H   0  0  0  1  0  0  0  0  0  0  0  0
   -4.1166    7.8077    0.4313 B   0  0  0  1  0  0  0  0  0  0  0  0
   -5.3980    7.8848   -0.0785 O   0  0  0  1  0  0  0  0  0  0  0  0
   -3.3997    8.9662    0.7140 O   0  0  0  1  0  0  0  0  0  0  0  0
   -3.4285    6.4194    0.7078 C   0  0  0  1  0  0  0  0  0  0  0  0
   -2.5335    6.2922    1.7534 C   0  0  0  1  0  0  0  0  0  0  0  0
   -1.8591    5.0967    1.9471 C   0  0  0  1  0  0  0  0  0  0  0  0
   -2.0778    4.0335    1.0914 C   0  0  0  1  0  0  0  0  0  0  0  0
   -2.9754    4.1609    0.0428 C   0  0  0  1  0  0  0  0  0  0  0  0
   -3.6477    5.3530   -0.1502 C   0  0  0  1  0  0  0  0  0  0  0  0
   -1.4361    2.6914    1.3216 C   0  0  0  1  0  0  0  0  0  0  0  0
   -6.0106    8.1066    0.6267 H   0  0  0  1  0  0  0  0  0  0  0  0
   -3.9480    9.5654    1.2257 H   0  0  0  1  0  0  0  0  0  0  0  0
   -2.3660    7.0936    2.3948 H   0  0  0  1  0  0  0  0  0  0  0  0
   -1.1887    4.9997    2.7363 H   0  0  0  1  0  0  0  0  0  0  0  0
   -3.1429    3.3596   -0.5986 H   0  0  0  1  0  0  0  0  0  0  0  0
   -4.3181    5.4499   -0.9394 H   0  0  0  1  0  0  0  0  0  0  0  0
   -1.3445    2.1918    0.3798 H   0  0  0  1  0  0  0  0  0  0  0  0
   -0.4635    2.8462    1.7399 H   0  0  0  1  0  0  0  0  0  0  0  0
  1  4  1  0  0  0  0
  2  4  1  0  0  0  0
  2  5  2  0  0  0  0
  2  6  1  0  0  0  0
  3  4  1  0  0  0  0
  3  7  1  0  0  0  0
  3  8  1  0  0  0  0
  4 28  1  0  0  0  0
  6  9  1  0  0  0  0
  6 12  1  0  0  0  0
  8 10  1  0  0  0  0
  8 11  2  0  0  0  0
  9 13  1  0  0  0  0
  9 14  1  0  0  0  0
  9 15  1  0  0  0  0
 10 16  1  0  0  0  0
 10 17  1  0  0  0  0
 10 18  1  0  0  0  0
 19 20  1  0  0  0  0
 19 21  1  0  0  0  0
 19 22  1  0  0  0  0
 20 29  1  0  0  0  0
 21 30  1  0  0  0  0
 22 23  4  0  0  0  0
 22 27  4  0  0  0  0
 23 24  4  0  0  0  0
 23 31  1  0  0  0  0
 24 25  4  0  0  0  0
 24 32  1  0  0  0  0
 25 26  4  0  0  0  0
 25 28  1  0  0  0  0
 26 27  4  0  0  0  0
 26 33  1  0  0  0  0
 27 34  1  0  0  0  0
 28 35  1  0  0  0  0
 28 36  1  0  0  0  0
M  END
> <BCLConfClusterSize>
1

> <ConfClashScore>
0 

> <ConfOneFourInteractionScore>
-0.955255 

> <ConfScore>
-0.00805715 

> <ConfScorePBest>
0.00461551 

> <ConfTolerance>
0.360862 

> <RosettaParamsInstructions>
M  ROOT 3
M  POLY_N_BB 3
M  POLY_CA_BB 4
M  POLY_C_BB 2
M  POLY_O_BB 5
M  POLY_IGNORE 9 10 11 12 13 14 15 16 17 18 
M  POLY_UPPER 6
M  POLY_LOWER 8
M  POLY_CHG 0
M  POLY_PROPERTIES ALPHA_AA L_AA PROTEIN AROMATIC POLYMER 
M  END

$$$$



 36 36  0  0  0  0  0  0  0  0999 V2000
   -0.0560    2.8805   -0.2856 H   0  0  0  1  0  0  0  0  0  0  0  0
    0.9114    3.5784    1.4633 C   0  0  0  1  0  0  0  0  0  0  0  0
    0.5068    1.2477    0.8511 N   0  0  0  1  0  0  0  0  0  0  0  0
   -0.0150    2.6022    0.7468 C   0  0  0  1  0  0  0  0  0  0  0  0
    1.0114    4.7418    1.1097 O   0  0  0  1  0  0  0  0  0  0  0  0
    1.5774    3.0345    2.4858 N   0  0  0  1  0  0  0  0  0  0  0  0
    0.3151    0.7279    1.6594 H   0  0  0  1  0  0  0  0  0  0  0  0
    1.2382    0.6881   -0.1169 C   0  0  0  1  0  0  0  0  0  0  0  0
    2.5936    3.7652    3.2283 C   0  0  0  1  0  0  0  0  0  0  0  0
    1.8532   -0.6665    0.2167 C   0  0  0  1  0  0  0  0  0  0  0  0
    1.4137    1.2128   -1.2048 O   0  0  0  1  0  0  0  0  0  0  0  0
    1.3745    2.1114    2.7449 H   0  0  0  1  0  0  0  0  0  0  0  0
    2.1519    4.2096    4.0956 H   0  0  0  1  0  0  0  0  0  0  0  0
    3.0072    4.5316    2.6066 H   0  0  0  1  0  0  0  0  0  0  0  0
    3.3689    3.0917    3.5286 H   0  0  0  1  0  0  0  0  0  0  0  0
    2.2800   -1.0924   -0.6673 H   0  0  0  1  0  0  0  0  0  0  0  0
    1.0946   -1.3187    0.5961 H   0  0  0  1  0  0  0  0  0  0  0  0
    2.6168   -0.5390    0.9553 H   0  0  0  1  0  0  0  0  0  0  0  0
   -4.0978    7.8117    0.4066 B   0  0  0  1  0  0  0  0  0  0  0  0
   -3.8634    8.8298    1.2745 O   0  0  0  1  0  0  0  0  0  0  0  0
   -4.8888    8.0540   -0.6774 O   0  0  0  1  0  0  0  0  0  0  0  0
   -3.4361    6.4175    0.7157 C   0  0  0  1  0  0  0  0  0  0  0  0
   -2.5384    6.2906    1.7590 C   0  0  0  1  0  0  0  0  0  0  0  0
   -1.8593    5.0970    1.9479 C   0  0  0  1  0  0  0  0  0  0  0  0
   -2.0761    4.0355    1.0896 C   0  0  0  1  0  0  0  0  0  0  0  0
   -2.9764    4.1626    0.0433 C   0  0  0  1  0  0  0  0  0  0  0  0
   -3.6534    5.3528   -0.1449 C   0  0  0  1  0  0  0  0  0  0  0  0
   -1.4252    2.6870    1.3159 C   0  0  0  1  0  0  0  0  0  0  0  0
   -2.9905    8.7271    1.6607 H   0  0  0  1  0  0  0  0  0  0  0  0
   -5.7959    8.1813   -0.3901 H   0  0  0  1  0  0  0  0  0  0  0  0
   -2.3724    7.0907    2.4023 H   0  0  0  1  0  0  0  0  0  0  0  0
   -1.1868    5.0002    2.7352 H   0  0  0  1  0  0  0  0  0  0  0  0
   -3.1424    3.3625   -0.6000 H   0  0  0  1  0  0  0  0  0  0  0  0
   -4.3258    5.4495   -0.9323 H   0  0  0  1  0  0  0  0  0  0  0  0
   -1.3791    2.5035    2.3690 H   0  0  0  1  0  0  0  0  0  0  0  0
   -2.0268    1.9357    0.8484 H   0  0  0  1  0  0  0  0  0  0  0  0
  1  4  1  0  0  0  0
  2  4  1  0  0  0  0
  2  5  2  0  0  0  0
  2  6  1  0  0  0  0
  3  4  1  0  0  0  0
  3  7  1  0  0  0  0
  3  8  1  0  0  0  0
  4 28  1  0  0  0  0
  6  9  1  0  0  0  0
  6 12  1  0  0  0  0
  8 10  1  0  0  0  0
  8 11  2  0  0  0  0
  9 13  1  0  0  0  0
  9 14  1  0  0  0  0
  9 15  1  0  0  0  0
 10 16  1  0  0  0  0
 10 17  1  0  0  0  0
 10 18  1  0  0  0  0
 19 20  1  0  0  0  0
 19 21  1  0  0  0  0
 19 22  1  0  0  0  0
 20 29  1  0  0  0  0
 21 30  1  0  0  0  0
 22 23  4  0  0  0  0
 22 27  4  0  0  0  0
 23 24  4  0  0  0  0
 23 31  1  0  0  0  0
 24 25  4  0  0  0  0
 24 32  1  0  0  0  0
 25 26  4  0  0  0  0
 25 28  1  0  0  0  0
 26 27  4  0  0  0  0
 26 33  1  0  0  0  0
 27 34  1  0  0  0  0
 28 35  1  0  0  0  0
 28 36  1  0  0  0  0
M  END
> <BCLConfClusterSize>
1

> <ConfClashScore>
0 

> <ConfOneFourInteractionScore>
-0.969136 

> <ConfScore>
-0.00774533 

> <ConfScorePBest>
0.00458703 

> <ConfTolerance>
0.462951 

> <RosettaParamsInstructions>
M  ROOT 3
M  POLY_N_BB 3
M  POLY_CA_BB 4
M  POLY_C_BB 2
M  POLY_O_BB 5
M  POLY_IGNORE 9 10 11 12 13 14 15 16 17 18 
M  POLY_UPPER 6
M  POLY_LOWER 8
M  POLY_CHG 0
M  POLY_PROPERTIES ALPHA_AA L_AA PROTEIN AROMATIC POLYMER 
M  END

$$$$



 36 36  0  0  0  0  0  0  0  0999 V2000
   -1.8381    0.8622    2.3222 H   0  0  0  1  0  0  0  0  0  0  0  0
   -2.8462    2.3990    3.3744 C   0  0  0  1  0  0  0  0  0  0  0  0
   -3.5197    1.4014    1.2468 N   0  0  0  1  0  0  0  0  0  0  0  0
   -2.3756    1.7535    2.0744 C   0  0  0  1  0  0  0  0  0  0  0  0
   -2.3413    2.1977    4.4666 O   0  0  0  1  0  0  0  0  0  0  0  0
   -3.8826    3.2236    3.2152 N   0  0  0  1  0  0  0  0  0  0  0  0
   -3.6345    1.8498    0.3830 H   0  0  0  1  0  0  0  0  0  0  0  0
   -4.4190    0.4880    1.6237 C   0  0  0  1  0  0  0  0  0  0  0  0
   -4.4722    4.0340    4.2704 C   0  0  0  1  0  0  0  0  0  0  0  0
   -5.5516    0.2367    0.6473 C   0  0  0  1  0  0  0  0  0  0  0  0
   -4.3488   -0.1239    2.6972 O   0  0  0  1  0  0  0  0  0  0  0  0
   -4.2766    3.2886    2.3203 H   0  0  0  1  0  0  0  0  0  0  0  0
   -5.5308    4.0928    4.1264 H   0  0  0  1  0  0  0  0  0  0  0  0
   -4.0532    5.0181    4.2403 H   0  0  0  1  0  0  0  0  0  0  0  0
   -4.2660    3.5870    5.2205 H   0  0  0  1  0  0  0  0  0  0  0  0
   -5.4565   -0.7462    0.2353 H   0  0  0  1  0  0  0  0  0  0  0  0
   -5.5096    0.9591   -0.1409 H   0  0  0  1  0  0  0  0  0  0  0  0
   -6.4879    0.3198    1.1585 H   0  0  0  1  0  0  0  0  0  0  0  0
   -4.1075    7.8434    0.4614 B   0  0  0  1  0  0  0  0  0  0  0  0
   -4.4398    8.6606    1.4593 O   0  0  0  1  0  0  0  0  0  0  0  0
   -4.2790    8.2951   -0.8098 O   0  0  0  1  0  0  0  0  0  0  0  0
   -3.4320    6.4148    0.7008 C   0  0  0  1  0  0  0  0  0  0  0  0
   -2.5377    6.2919    1.7474 C   0  0  0  1  0  0  0  0  0  0  0  0
   -1.8614    5.0981    1.9447 C   0  0  0  1  0  0  0  0  0  0  0  0
   -2.0774    4.0324    1.0914 C   0  0  0  1  0  0  0  0  0  0  0  0
   -2.9742    4.1556    0.0417 C   0  0  0  1  0  0  0  0  0  0  0  0
   -3.6485    5.3459   -0.1549 C   0  0  0  1  0  0  0  0  0  0  0  0
   -1.4296    2.6840    1.3268 C   0  0  0  1  0  0  0  0  0  0  0  0
   -5.3061    9.0380    1.2896 H   0  0  0  1  0  0  0  0  0  0  0  0
   -5.1910    8.1601   -1.0775 H   0  0  0  1  0  0  0  0  0  0  0  0
   -2.3723    7.0951    2.3870 H   0  0  0  1  0  0  0  0  0  0  0  0
   -1.1914    5.0043    2.7346 H   0  0  0  1  0  0  0  0  0  0  0  0
   -3.1397    3.3524   -0.5979 H   0  0  0  1  0  0  0  0  0  0  0  0
   -4.3184    5.4397   -0.9448 H   0  0  0  1  0  0  0  0  0  0  0  0
   -1.1791    2.2457    0.3834 H   0  0  0  1  0  0  0  0  0  0  0  0
   -0.5397    2.8186    1.9056 H   0  0  0  1  0  0  0  0  0  0  0  0
  1  4  1  0  0  0  0
  2  4  1  0  0  0  0
  2  5  2  0  0  0  0
  2  6  1  0  0  0  0
  3  4  1  0  0  0  0
  3  7  1  0  0  0  0
  3  8  1  0  0  0  0
  4 28  1  0  0  0  0
  6  9  1  0  0  0  0
  6 12  1  0  0  0  0
  8 10  1  0  0  0  0
  8 11  2  0  0  0  0
  9 13  1  0  0  0  0
  9 14  1  0  0  0  0
  9 15  1  0  0  0  0
 10 16  1  0  0  0  0
 10 17  1  0  0  0  0
 10 18  1  0  0  0  0
 19 20  1  0  0  0  0
 19 21  1  0  0  0  0
 19 22  1  0  0  0  0
 20 29  1  0  0  0  0
 21 30  1  0  0  0  0
 22 23  4  0  0  0  0
 22 27  4  0  0  0  0
 23 24  4  0  0  0  0
 23 31  1  0  0  0  0
 24 25  4  0  0  0  0
 24 32  1  0  0  0  0
 25 26  4  0  0  0  0
 25 28  1  0  0  0  0
 26 27  4  0  0  0  0
 26 33  1  0  0  0  0
 27 34  1  0  0  0  0
 28 35  1  0  0  0  0
 28 36  1  0  0  0  0
M  END
> <BCLConfClusterSize>
1

> <ConfClashScore>
0 

> <ConfOneFourInteractionScore>
-0.966613 

> <ConfScore>
-0.00400332 

> <ConfScorePBest>
0.00455855 

> <ConfTolerance>
0.452405 

> <RosettaParamsInstructions>
M  ROOT 3
M  POLY_N_BB 3
M  POLY_CA_BB 4
M  POLY_C_BB 2
M  POLY_O_BB 5
M  POLY_IGNORE 9 10 11 12 13 14 15 16 17 18 
M  POLY_UPPER 6
M  POLY_LOWER 8
M  POLY_CHG 0
M  POLY_PROPERTIES ALPHA_AA L_AA PROTEIN AROMATIC POLYMER 
M  END

$$$$



 36 36  0  0  0  0  0  0  0  0999 V2000
   -0.7297    2.8418    3.3598 H   0  0  0  1  0  0  0  0  0  0  0  0
    0.5265    1.4558    2.3400 C   0  0  0  1  0  0  0  0  0  0  0  0
    0.5743    3.8661    2.1030 N   0  0  0  1  0  0  0  0  0  0  0  0
   -0.3000    2.7375    2.3854 C   0  0  0  1  0  0  0  0  0  0  0  0
   -0.0329    0.3991    2.6302 O   0  0  0  1  0  0  0  0  0  0  0  0
    1.8076    1.5460    1.9897 N   0  0  0  1  0  0  0  0  0  0  0  0
    0.8343    4.0422    1.1747 H   0  0  0  1  0  0  0  0  0  0  0  0
    1.0349    4.6703    3.0654 C   0  0  0  1  0  0  0  0  0  0  0  0
    2.7035    0.3994    2.0162 C   0  0  0  1  0  0  0  0  0  0  0  0
    1.8741    5.8435    2.5978 C   0  0  0  1  0  0  0  0  0  0  0  0
    0.8051    4.4882    4.2502 O   0  0  0  1  0  0  0  0  0  0  0  0
    2.1597    2.4148    1.7040 H   0  0  0  1  0  0  0  0  0  0  0  0
    3.4503    0.5121    1.2583 H   0  0  0  1  0  0  0  0  0  0  0  0
    2.1438   -0.4944    1.8349 H   0  0  0  1  0  0  0  0  0  0  0  0
    3.1749    0.3375    2.9747 H   0  0  0  1  0  0  0  0  0  0  0  0
    2.4078    5.5702    1.7117 H   0  0  0  1  0  0  0  0  0  0  0  0
    2.5702    6.1118    3.3648 H   0  0  0  1  0  0  0  0  0  0  0  0
    1.2362    6.6764    2.3871 H   0  0  0  1  0  0  0  0  0  0  0  0
   -4.1154    7.8116    0.4342 B   0  0  0  1  0  0  0  0  0  0  0  0
   -4.5852    8.1600   -0.7916 O   0  0  0  1  0  0  0  0  0  0  0  0
   -4.1391    8.6878    1.4604 O   0  0  0  1  0  0  0  0  0  0  0  0
   -3.4285    6.4191    0.7075 C   0  0  0  1  0  0  0  0  0  0  0  0
   -2.5329    6.2879    1.7521 C   0  0  0  1  0  0  0  0  0  0  0  0
   -1.8607    5.0907    1.9426 C   0  0  0  1  0  0  0  0  0  0  0  0
   -2.0821    4.0299    1.0847 C   0  0  0  1  0  0  0  0  0  0  0  0
   -2.9802    4.1613    0.0371 C   0  0  0  1  0  0  0  0  0  0  0  0
   -3.6504    5.3550   -0.1527 C   0  0  0  1  0  0  0  0  0  0  0  0
   -1.4159    2.7071    1.3538 C   0  0  0  1  0  0  0  0  0  0  0  0
   -4.1974    8.9969   -1.0575 H   0  0  0  1  0  0  0  0  0  0  0  0
   -5.0459    8.9471    1.6395 H   0  0  0  1  0  0  0  0  0  0  0  0
   -2.3634    7.0875    2.3951 H   0  0  0  1  0  0  0  0  0  0  0  0
   -1.1898    4.9907    2.7310 H   0  0  0  1  0  0  0  0  0  0  0  0
   -3.1497    3.3617   -0.6060 H   0  0  0  1  0  0  0  0  0  0  0  0
   -4.3212    5.4550   -0.9411 H   0  0  0  1  0  0  0  0  0  0  0  0
   -2.1646    2.0243    1.6975 H   0  0  0  1  0  0  0  0  0  0  0  0
   -1.0041    2.3514    0.4325 H   0  0  0  1  0  0  0  0  0  0  0  0
  1  4  1  0  0  0  0
  2  4  1  0  0  0  0
  2  5  2  0  0  0  0
  2  6  1  0  0  0  0
  3  4  1  0  0  0  0
  3  7  1  0  0  0  0
  3  8  1  0  0  0  0
  4 28  1  0  0  0  0
  6  9  1  0  0  0  0
  6 12  1  0  0  0  0
  8 10  1  0  0  0  0
  8 11  2  0  0  0  0
  9 13  1  0  0  0  0
  9 14  1  0  0  0  0
  9 15  1  0  0  0  0
 10 16  1  0  0  0  0
 10 17  1  0  0  0  0
 10 18  1  0  0  0  0
 19 20  1  0  0  0  0
 19 21  1  0  0  0  0
 19 22  1  0  0  0  0
 20 29  1  0  0  0  0
 21 30  1  0  0  0  0
 22 23  4  0  0  0  0
 22 27  4  0  0  0  0
 23 24  4  0  0  0  0
 23 31  1  0  0  0  0
 24 25  4  0  0  0  0
 24 32  1  0  0  0  0
 25 26  4  0  0  0  0
 25 28  1  0  0  0  0
 26 27  4  0  0  0  0
 26 33  1  0  0  0  0
 27 34  1  0  0  0  0
 28 35  1  0  0  0  0
 28 36  1  0  0  0  0
M  END
> <BCLConfClusterSize>
1

> <ConfClashScore>
0 

> <ConfOneFourInteractionScore>
-0.938315 

> <ConfScore>
-0.00172063 

> <ConfScorePBest>
0.00453007 

> <ConfTolerance>
0.580123 

> <RosettaParamsInstructions>
M  ROOT 3
M  POLY_N_BB 3
M  POLY_CA_BB 4
M  POLY_C_BB 2
M  POLY_O_BB 5
M  POLY_IGNORE 9 10 11 12 13 14 15 16 17 18 
M  POLY_UPPER 6
M  POLY_LOWER 8
M  POLY_CHG 0
M  POLY_PROPERTIES ALPHA_AA L_AA PROTEIN AROMATIC POLYMER 
M  END

$$$$



 36 36  0  0  0  0  0  0  0  0999 V2000
   -1.1275    3.1776    3.3925 H   0  0  0  1  0  0  0  0  0  0  0  0
   -0.2426    1.2944    3.0851 C   0  0  0  1  0  0  0  0  0  0  0  0
    0.6479    3.5013    2.4043 N   0  0  0  1  0  0  0  0  0  0  0  0
   -0.5524    2.7078    2.6221 C   0  0  0  1  0  0  0  0  0  0  0  0
    0.8081    0.7482    2.7920 O   0  0  0  1  0  0  0  0  0  0  0  0
   -1.1923    0.7023    3.8265 N   0  0  0  1  0  0  0  0  0  0  0  0
    0.8297    3.8469    1.5054 H   0  0  0  1  0  0  0  0  0  0  0  0
    1.5106    3.7750    3.3870 C   0  0  0  1  0  0  0  0  0  0  0  0
   -1.0809   -0.6778    4.2745 C   0  0  0  1  0  0  0  0  0  0  0  0
    2.5897    4.7868    3.0536 C   0  0  0  1  0  0  0  0  0  0  0  0
    1.4498    3.2539    4.4890 O   0  0  0  1  0  0  0  0  0  0  0  0
   -1.9883    1.2173    4.0746 H   0  0  0  1  0  0  0  0  0  0  0  0
   -0.0873   -1.0323    4.0956 H   0  0  0  1  0  0  0  0  0  0  0  0
   -1.7783   -1.2848    3.7359 H   0  0  0  1  0  0  0  0  0  0  0  0
   -1.2952   -0.7311    5.3215 H   0  0  0  1  0  0  0  0  0  0  0  0
    2.7679    4.7843    1.9985 H   0  0  0  1  0  0  0  0  0  0  0  0
    3.4916    4.5285    3.5680 H   0  0  0  1  0  0  0  0  0  0  0  0
    2.2709    5.7615    3.3589 H   0  0  0  1  0  0  0  0  0  0  0  0
   -4.1166    7.8139    0.4338 B   0  0  0  1  0  0  0  0  0  0  0  0
   -3.8782    8.8157    1.3194 O   0  0  0  1  0  0  0  0  0  0  0  0
   -4.8981    7.9254   -0.6613 O   0  0  0  1  0  0  0  0  0  0  0  0
   -3.4288    6.4196    0.7075 C   0  0  0  1  0  0  0  0  0  0  0  0
   -2.5332    6.2884    1.7520 C   0  0  0  1  0  0  0  0  0  0  0  0
   -1.8609    5.0912    1.9425 C   0  0  0  1  0  0  0  0  0  0  0  0
   -2.0823    4.0304    1.0846 C   0  0  0  1  0  0  0  0  0  0  0  0
   -2.9805    4.1618    0.0370 C   0  0  0  1  0  0  0  0  0  0  0  0
   -3.6506    5.3555   -0.1528 C   0  0  0  1  0  0  0  0  0  0  0  0
   -1.4121    2.6997    1.3553 C   0  0  0  1  0  0  0  0  0  0  0  0
   -4.6931    9.0426    1.7734 H   0  0  0  1  0  0  0  0  0  0  0  0
   -4.3968    7.6719   -1.4398 H   0  0  0  1  0  0  0  0  0  0  0  0
   -2.3637    7.0880    2.3951 H   0  0  0  1  0  0  0  0  0  0  0  0
   -1.1900    4.9912    2.7309 H   0  0  0  1  0  0  0  0  0  0  0  0
   -3.1500    3.3623   -0.6061 H   0  0  0  1  0  0  0  0  0  0  0  0
   -4.3215    5.4555   -0.9412 H   0  0  0  1  0  0  0  0  0  0  0  0
   -2.1702    1.9522    1.4629 H   0  0  0  1  0  0  0  0  0  0  0  0
   -0.7872    2.4572    0.5212 H   0  0  0  1  0  0  0  0  0  0  0  0
  1  4  1  0  0  0  0
  2  4  1  0  0  0  0
  2  5  2  0  0  0  0
  2  6  1  0  0  0  0
  3  4  1  0  0  0  0
  3  7  1  0  0  0  0
  3  8  1  0  0  0  0
  4 28  1  0  0  0  0
  6  9  1  0  0  0  0
  6 12  1  0  0  0  0
  8 10  1  0  0  0  0
  8 11  2  0  0  0  0
  9 13  1  0  0  0  0
  9 14  1  0  0  0  0
  9 15  1  0  0  0  0
 10 16  1  0  0  0  0
 10 17  1  0  0  0  0
 10 18  1  0  0  0  0
 19 20  1  0  0  0  0
 19 21  1  0  0  0  0
 19 22  1  0  0  0  0
 20 29  1  0  0  0  0
 21 30  1  0  0  0  0
 22 23  4  0  0  0  0
 22 27  4  0  0  0  0
 23 24  4  0  0  0  0
 23 31  1  0  0  0  0
 24 25  4  0  0  0  0
 24 32  1  0  0  0  0
 25 26  4  0  0  0  0
 25 28  1  0  0  0  0
 26 27  4  0  0  0  0
 26 33  1  0  0  0  0
 27 34  1  0  0  0  0
 28 35  1  0  0  0  0
 28 36  1  0  0  0  0
M  END
> <BCLConfClusterSize>
1

> <ConfClashScore>
0 

> <ConfOneFourInteractionScore>
-0.980159 

> <ConfScore>
-0.000419338 

> <ConfScorePBest>
0.00450159 

> <ConfTolerance>
0.486701 

> <RosettaParamsInstructions>
M  ROOT 3
M  POLY_N_BB 3
M  POLY_CA_BB 4
M  POLY_C_BB 2
M  POLY_O_BB 5
M  POLY_IGNORE 9 10 11 12 13 14 15 16 17 18 
M  POLY_UPPER 6
M  POLY_LOWER 8
M  POLY_CHG 0
M  POLY_PROPERTIES ALPHA_AA L_AA PROTEIN AROMATIC POLYMER 
M  END

$$$$



 36 36  0  0  0  0  0  0  0  0999 V2000
   -1.3455    0.9822    2.5652 H   0  0  0  1  0  0  0  0  0  0  0  0
   -1.5225    2.6751    3.8273 C   0  0  0  1  0  0  0  0  0  0  0  0
   -3.3027    1.6286    2.4262 N   0  0  0  1  0  0  0  0  0  0  0  0
   -1.8803    1.9089    2.5526 C   0  0  0  1  0  0  0  0  0  0  0  0
   -0.4539    2.4706    4.4018 O   0  0  0  1  0  0  0  0  0  0  0  0
   -2.4117    3.6146    4.1859 N   0  0  0  1  0  0  0  0  0  0  0  0
   -3.7638    1.8853    1.6005 H   0  0  0  1  0  0  0  0  0  0  0  0
   -4.0087    1.0278    3.4065 C   0  0  0  1  0  0  0  0  0  0  0  0
   -2.1151    4.5193    5.2866 C   0  0  0  1  0  0  0  0  0  0  0  0
   -5.4975    0.8320    3.1953 C   0  0  0  1  0  0  0  0  0  0  0  0
   -3.4599    0.6468    4.4482 O   0  0  0  1  0  0  0  0  0  0  0  0
   -3.2624    3.6915    3.7055 H   0  0  0  1  0  0  0  0  0  0  0  0
   -2.1105    3.9731    6.2066 H   0  0  0  1  0  0  0  0  0  0  0  0
   -2.8617    5.2845    5.3301 H   0  0  0  1  0  0  0  0  0  0  0  0
   -1.1549    4.9656    5.1323 H   0  0  0  1  0  0  0  0  0  0  0  0
   -5.9554    1.7757    2.9840 H   0  0  0  1  0  0  0  0  0  0  0  0
   -5.9312    0.4155    4.0804 H   0  0  0  1  0  0  0  0  0  0  0  0
   -5.6563    0.1666    2.3726 H   0  0  0  1  0  0  0  0  0  0  0  0
   -4.1435    7.8100    0.3943 B   0  0  0  1  0  0  0  0  0  0  0  0
   -3.6069    8.7637   -0.4102 O   0  0  0  1  0  0  0  0  0  0  0  0
   -5.3592    8.0768    0.9423 O   0  0  0  1  0  0  0  0  0  0  0  0
   -3.4240    6.4220    0.7158 C   0  0  0  1  0  0  0  0  0  0  0  0
   -2.5276    6.2863    1.7590 C   0  0  0  1  0  0  0  0  0  0  0  0
   -1.8572    5.0874    1.9455 C   0  0  0  1  0  0  0  0  0  0  0  0
   -2.0814    4.0294    1.0849 C   0  0  0  1  0  0  0  0  0  0  0  0
   -2.9804    4.1653    0.0386 C   0  0  0  1  0  0  0  0  0  0  0  0
   -3.6487    5.3607   -0.1472 C   0  0  0  1  0  0  0  0  0  0  0  0
   -1.4133    2.6967    1.3512 C   0  0  0  1  0  0  0  0  0  0  0  0
   -4.2751    9.0790   -1.0231 H   0  0  0  1  0  0  0  0  0  0  0  0
   -5.9741    7.3756    0.7148 H   0  0  0  1  0  0  0  0  0  0  0  0
   -2.3560    7.0838    2.4041 H   0  0  0  1  0  0  0  0  0  0  0  0
   -1.1857    4.9841    2.7329 H   0  0  0  1  0  0  0  0  0  0  0  0
   -3.1520    3.3678   -0.6065 H   0  0  0  1  0  0  0  0  0  0  0  0
   -4.3202    5.4640   -0.9346 H   0  0  0  1  0  0  0  0  0  0  0  0
   -1.5658    2.0839    0.4875 H   0  0  0  1  0  0  0  0  0  0  0  0
   -0.3671    2.8826    1.4772 H   0  0  0  1  0  0  0  0  0  0  0  0
  1  4  1  0  0  0  0
  2  4  1  0  0  0  0
  2  5  2  0  0  0  0
  2  6  1  0  0  0  0
  3  4  1  0  0  0  0
  3  7  1  0  0  0  0
  3  8  1  0  0  0  0
  4 28  1  0  0  0  0
  6  9  1  0  0  0  0
  6 12  1  0  0  0  0
  8 10  1  0  0  0  0
  8 11  2  0  0  0  0
  9 13  1  0  0  0  0
  9 14  1  0  0  0  0
  9 15  1  0  0  0  0
 10 16  1  0  0  0  0
 10 17  1  0  0  0  0
 10 18  1  0  0  0  0
 19 20  1  0  0  0  0
 19 21  1  0  0  0  0
 19 22  1  0  0  0  0
 20 29  1  0  0  0  0
 21 30  1  0  0  0  0
 22 23  4  0  0  0  0
 22 27  4  0  0  0  0
 23 24  4  0  0  0  0
 23 31  1  0  0  0  0
 24 25  4  0  0  0  0
 24 32  1  0  0  0  0
 25 26  4  0  0  0  0
 25 28  1  0  0  0  0
 26 27  4  0  0  0  0
 26 33  1  0  0  0  0
 27 34  1  0  0  0  0
 28 35  1  0  0  0  0
 28 36  1  0  0  0  0
M  END
> <BCLConfClusterSize>
1

> <ConfClashScore>
0 

> <ConfOneFourInteractionScore>
-0.961581 

> <ConfScore>
-0.00021018 

> <ConfScorePBest>
0.00447311 

> <ConfTolerance>
0.389519 

> <RosettaParamsInstructions>
M  ROOT 3
M  POLY_N_BB 3
M  POLY_CA_BB 4
M  POLY_C_BB 2
M  POLY_O_BB 5
M  POLY_IGNORE 9 10 11 12 13 14 15 16 17 18 
M  POLY_UPPER 6
M  POLY_LOWER 8
M  POLY_CHG 0
M  POLY_PROPERTIES ALPHA_AA L_AA PROTEIN AROMATIC POLYMER 
M  END

$$$$



 36 36  0  0  0  0  0  0  0  0999 V2000
    0.1479    1.4652    0.6467 H   0  0  0  1  0  0  0  0  0  0  0  0
   -0.5482    2.5610   -1.0047 C   0  0  0  1  0  0  0  0  0  0  0  0
    0.8837    3.3756    0.8382 N   0  0  0  1  0  0  0  0  0  0  0  0
   -0.1868    2.4651    0.4648 C   0  0  0  1  0  0  0  0  0  0  0  0
   -0.5872    3.6462   -1.5830 O   0  0  0  1  0  0  0  0  0  0  0  0
   -0.8173    1.3967   -1.6162 N   0  0  0  1  0  0  0  0  0  0  0  0
    0.7989    4.3335    0.6496 H   0  0  0  1  0  0  0  0  0  0  0  0
    1.9827    2.9089    1.4378 C   0  0  0  1  0  0  0  0  0  0  0  0
   -1.0909    1.3681   -3.0453 C   0  0  0  1  0  0  0  0  0  0  0  0
    2.9040    3.9440    2.0535 C   0  0  0  1  0  0  0  0  0  0  0  0
    2.2060    1.7055    1.5627 O   0  0  0  1  0  0  0  0  0  0  0  0
   -0.8295    0.5642   -1.0993 H   0  0  0  1  0  0  0  0  0  0  0  0
   -0.2267    1.7010   -3.5812 H   0  0  0  1  0  0  0  0  0  0  0  0
   -1.9160    2.0136   -3.2632 H   0  0  0  1  0  0  0  0  0  0  0  0
   -1.3313    0.3686   -3.3422 H   0  0  0  1  0  0  0  0  0  0  0  0
    2.7373    4.8927    1.5877 H   0  0  0  1  0  0  0  0  0  0  0  0
    3.9216    3.6482    1.9057 H   0  0  0  1  0  0  0  0  0  0  0  0
    2.7032    4.0213    3.1016 H   0  0  0  1  0  0  0  0  0  0  0  0
   -4.0990    7.8208    0.4085 B   0  0  0  1  0  0  0  0  0  0  0  0
   -3.9128    8.9225    1.1805 O   0  0  0  1  0  0  0  0  0  0  0  0
   -4.9044    7.9586   -0.6831 O   0  0  0  1  0  0  0  0  0  0  0  0
   -3.4360    6.4168    0.7156 C   0  0  0  1  0  0  0  0  0  0  0  0
   -2.5377    6.2858    1.7578 C   0  0  0  1  0  0  0  0  0  0  0  0
   -1.8607    5.0905    1.9434 C   0  0  0  1  0  0  0  0  0  0  0  0
   -2.0801    4.0314    1.0829 C   0  0  0  1  0  0  0  0  0  0  0  0
   -2.9810    4.1626    0.0376 C   0  0  0  1  0  0  0  0  0  0  0  0
   -3.6559    5.3544   -0.1473 C   0  0  0  1  0  0  0  0  0  0  0  0
   -1.4046    2.7023    1.3483 C   0  0  0  1  0  0  0  0  0  0  0  0
   -4.4329    8.8428    1.9835 H   0  0  0  1  0  0  0  0  0  0  0  0
   -4.3761    7.8903   -1.4818 H   0  0  0  1  0  0  0  0  0  0  0  0
   -2.3696    7.0841    2.4028 H   0  0  0  1  0  0  0  0  0  0  0  0
   -1.1877    4.9906    2.7300 H   0  0  0  1  0  0  0  0  0  0  0  0
   -3.1490    3.3642   -0.6074 H   0  0  0  1  0  0  0  0  0  0  0  0
   -4.3288    5.4542   -0.9339 H   0  0  0  1  0  0  0  0  0  0  0  0
   -1.0930    2.6769    2.3716 H   0  0  0  1  0  0  0  0  0  0  0  0
   -2.1119    1.9193    1.1707 H   0  0  0  1  0  0  0  0  0  0  0  0
  1  4  1  0  0  0  0
  2  4  1  0  0  0  0
  2  5  2  0  0  0  0
  2  6  1  0  0  0  0
  3  4  1  0  0  0  0
  3  7  1  0  0  0  0
  3  8  1  0  0  0  0
  4 28  1  0  0  0  0
  6  9  1  0  0  0  0
  6 12  1  0  0  0  0
  8 10  1  0  0  0  0
  8 11  2  0  0  0  0
  9 13  1  0  0  0  0
  9 14  1  0  0  0  0
  9 15  1  0  0  0  0
 10 16  1  0  0  0  0
 10 17  1  0  0  0  0
 10 18  1  0  0  0  0
 19 20  1  0  0  0  0
 19 21  1  0  0  0  0
 19 22  1  0  0  0  0
 20 29  1  0  0  0  0
 21 30  1  0  0  0  0
 22 23  4  0  0  0  0
 22 27  4  0  0  0  0
 23 24  4  0  0  0  0
 23 31  1  0  0  0  0
 24 25  4  0  0  0  0
 24 32  1  0  0  0  0
 25 26  4  0  0  0  0
 25 28  1  0  0  0  0
 26 27  4  0  0  0  0
 26 33  1  0  0  0  0
 27 34  1  0  0  0  0
 28 35  1  0  0  0  0
 28 36  1  0  0  0  0
M  END
> <BCLConfClusterSize>
1

> <ConfClashScore>
0 

> <ConfOneFourInteractionScore>
-0.99009 

> <ConfScore>
0.00226085 

> <ConfScorePBest>
0.00444463 

> <ConfTolerance>
0.395528 

> <RosettaParamsInstructions>
M  ROOT 3
M  POLY_N_BB 3
M  POLY_CA_BB 4
M  POLY_C_BB 2
M  POLY_O_BB 5
M  POLY_IGNORE 9 10 11 12 13 14 15 16 17 18 
M  POLY_UPPER 6
M  POLY_LOWER 8
M  POLY_CHG 0
M  POLY_PROPERTIES ALPHA_AA L_AA PROTEIN AROMATIC POLYMER 
M  END

$$$$



 36 36  0  0  0  0  0  0  0  0999 V2000
    0.3253    3.3625    2.2796 H   0  0  0  1  0  0  0  0  0  0  0  0
    0.6864    1.3891    1.6462 C   0  0  0  1  0  0  0  0  0  0  0  0
    0.7150    3.3693    0.2565 N   0  0  0  1  0  0  0  0  0  0  0  0
    0.0899    2.7652    1.4236 C   0  0  0  1  0  0  0  0  0  0  0  0
    0.5324    0.4860    0.8249 O   0  0  0  1  0  0  0  0  0  0  0  0
    1.3817    1.2318    2.7837 N   0  0  0  1  0  0  0  0  0  0  0  0
    0.1530    3.6115   -0.5089 H   0  0  0  1  0  0  0  0  0  0  0  0
    2.0414    3.6076    0.1917 C   0  0  0  1  0  0  0  0  0  0  0  0
    2.0820   -0.0168    3.0454 C   0  0  0  1  0  0  0  0  0  0  0  0
    2.5894    4.2509   -1.0674 C   0  0  0  1  0  0  0  0  0  0  0  0
    2.7852    3.3130    1.1235 O   0  0  0  1  0  0  0  0  0  0  0  0
    1.4177    1.9594    3.4393 H   0  0  0  1  0  0  0  0  0  0  0  0
    1.3723   -0.8129    3.1321 H   0  0  0  1  0  0  0  0  0  0  0  0
    2.6346    0.0690    3.9576 H   0  0  0  1  0  0  0  0  0  0  0  0
    2.7538   -0.2244    2.2390 H   0  0  0  1  0  0  0  0  0  0  0  0
    2.2076    5.2466   -1.1549 H   0  0  0  1  0  0  0  0  0  0  0  0
    2.2895    3.6779   -1.9198 H   0  0  0  1  0  0  0  0  0  0  0  0
    3.6577    4.2820   -1.0157 H   0  0  0  1  0  0  0  0  0  0  0  0
   -4.1201    7.8146    0.4299 B   0  0  0  1  0  0  0  0  0  0  0  0
   -4.8404    8.0869   -0.6965 O   0  0  0  1  0  0  0  0  0  0  0  0
   -4.0061    8.8129    1.3464 O   0  0  0  1  0  0  0  0  0  0  0  0
   -3.4282    6.4187    0.7080 C   0  0  0  1  0  0  0  0  0  0  0  0
   -2.5332    6.2916    1.7535 C   0  0  0  1  0  0  0  0  0  0  0  0
   -1.8588    5.0961    1.9472 C   0  0  0  1  0  0  0  0  0  0  0  0
   -2.0775    4.0329    1.0916 C   0  0  0  1  0  0  0  0  0  0  0  0
   -2.9751    4.1603    0.0429 C   0  0  0  1  0  0  0  0  0  0  0  0
   -3.6473    5.3523   -0.1501 C   0  0  0  1  0  0  0  0  0  0  0  0
   -1.4357    2.6908    1.3217 C   0  0  0  1  0  0  0  0  0  0  0  0
   -5.6779    7.6188   -0.6623 H   0  0  0  1  0  0  0  0  0  0  0  0
   -4.4101    8.5372    2.1725 H   0  0  0  1  0  0  0  0  0  0  0  0
   -2.3657    7.0929    2.3949 H   0  0  0  1  0  0  0  0  0  0  0  0
   -1.1883    4.9991    2.7364 H   0  0  0  1  0  0  0  0  0  0  0  0
   -3.1426    3.3590   -0.5985 H   0  0  0  1  0  0  0  0  0  0  0  0
   -4.3178    5.4492   -0.9392 H   0  0  0  1  0  0  0  0  0  0  0  0
   -1.8185    2.2822    2.2335 H   0  0  0  1  0  0  0  0  0  0  0  0
   -1.6916    2.0467    0.5064 H   0  0  0  1  0  0  0  0  0  0  0  0
  1  4  1  0  0  0  0
  2  4  1  0  0  0  0
  2  5  2  0  0  0  0
  2  6  1  0  0  0  0
  3  4  1  0  0  0  0
  3  7  1  0  0  0  0
  3  8  1  0  0  0  0
  4 28  1  0  0  0  0
  6  9  1  0  0  0  0
  6 12  1  0  0  0  0
  8 10  1  0  0  0  0
  8 11  2  0  0  0  0
  9 13  1  0  0  0  0
  9 14  1  0  0  0  0
  9 15  1  0  0  0  0
 10 16  1  0  0  0  0
 10 17  1  0  0  0  0
 10 18  1  0  0  0  0
 19 20  1  0  0  0  0
 19 21  1  0  0  0  0
 19 22  1  0  0  0  0
 20 29  1  0  0  0  0
 21 30  1  0  0  0  0
 22 23  4  0  0  0  0
 22 27  4  0  0  0  0
 23 24  4  0  0  0  0
 23 31  1  0  0  0  0
 24 25  4  0  0  0  0
 24 32  1  0  0  0  0
 25 26  4  0  0  0  0
 25 28  1  0  0  0  0
 26 27  4  0  0  0  0
 26 33  1  0  0  0  0
 27 34  1  0  0  0  0
 28 35  1  0  0  0  0
 28 36  1  0  0  0  0
M  END
> <BCLConfClusterSize>
1

> <ConfClashScore>
0 

> <ConfOneFourInteractionScore>
-0.988961 

> <ConfScore>
0.010864 

> <ConfScorePBest>
0.00441614 

> <ConfTolerance>
0.505692 

> <RosettaParamsInstructions>
M  ROOT 3
M  POLY_N_BB 3
M  POLY_CA_BB 4
M  POLY_C_BB 2
M  POLY_O_BB 5
M  POLY_IGNORE 9 10 11 12 13 14 15 16 17 18 
M  POLY_UPPER 6
M  POLY_LOWER 8
M  POLY_CHG 0
M  POLY_PROPERTIES ALPHA_AA L_AA PROTEIN AROMATIC POLYMER 
M  END

$$$$



 36 36  0  0  0  0  0  0  0  0999 V2000
   -0.1557    3.1492   -0.2534 H   0  0  0  1  0  0  0  0  0  0  0  0
    0.3974    1.2183    0.3134 C   0  0  0  1  0  0  0  0  0  0  0  0
   -1.6151    1.8772   -0.9563 N   0  0  0  1  0  0  0  0  0  0  0  0
   -0.6657    2.2789    0.1033 C   0  0  0  1  0  0  0  0  0  0  0  0
    1.5126    1.5180    0.7378 O   0  0  0  1  0  0  0  0  0  0  0  0
    0.0871   -0.0465    0.0246 N   0  0  0  1  0  0  0  0  0  0  0  0
   -2.5654    1.7651   -0.7447 H   0  0  0  1  0  0  0  0  0  0  0  0
   -1.1802    1.6665   -2.2020 C   0  0  0  1  0  0  0  0  0  0  0  0
    0.9832   -1.1818    0.1855 C   0  0  0  1  0  0  0  0  0  0  0  0
   -2.2567    1.4519   -3.2480 C   0  0  0  1  0  0  0  0  0  0  0  0
    0.0132    1.6447   -2.5002 O   0  0  0  1  0  0  0  0  0  0  0  0
   -0.8121   -0.2246   -0.3221 H   0  0  0  1  0  0  0  0  0  0  0  0
    1.6566   -1.2258   -0.6449 H   0  0  0  1  0  0  0  0  0  0  0  0
    0.4106   -2.0847    0.2282 H   0  0  0  1  0  0  0  0  0  0  0  0
    1.5414   -1.0697    1.0915 H   0  0  0  1  0  0  0  0  0  0  0  0
   -1.9652    1.9244   -4.1627 H   0  0  0  1  0  0  0  0  0  0  0  0
   -3.1769    1.8767   -2.9049 H   0  0  0  1  0  0  0  0  0  0  0  0
   -2.3877    0.4031   -3.4146 H   0  0  0  1  0  0  0  0  0  0  0  0
   -4.1140    7.8088    0.4347 B   0  0  0  1  0  0  0  0  0  0  0  0
   -5.3584    7.9625    0.9567 O   0  0  0  1  0  0  0  0  0  0  0  0
   -3.5570    8.8228   -0.2638 O   0  0  0  1  0  0  0  0  0  0  0  0
   -3.4286    6.4194    0.7075 C   0  0  0  1  0  0  0  0  0  0  0  0
   -2.5331    6.2882    1.7520 C   0  0  0  1  0  0  0  0  0  0  0  0
   -1.8608    5.0909    1.9426 C   0  0  0  1  0  0  0  0  0  0  0  0
   -2.0822    4.0301    1.0847 C   0  0  0  1  0  0  0  0  0  0  0  0
   -2.9803    4.1616    0.0370 C   0  0  0  1  0  0  0  0  0  0  0  0
   -3.6505    5.3553   -0.1528 C   0  0  0  1  0  0  0  0  0  0  0  0
   -1.4160    2.7073    1.3538 C   0  0  0  1  0  0  0  0  0  0  0  0
   -5.3844    8.7573    1.4945 H   0  0  0  1  0  0  0  0  0  0  0  0
   -3.9853    8.8954   -1.1199 H   0  0  0  1  0  0  0  0  0  0  0  0
   -2.3635    7.0878    2.3951 H   0  0  0  1  0  0  0  0  0  0  0  0
   -1.1899    4.9910    2.7310 H   0  0  0  1  0  0  0  0  0  0  0  0
   -3.1499    3.3620   -0.6060 H   0  0  0  1  0  0  0  0  0  0  0  0
   -4.3213    5.4552   -0.9412 H   0  0  0  1  0  0  0  0  0  0  0  0
   -0.7301    2.8085    2.1687 H   0  0  0  1  0  0  0  0  0  0  0  0
   -2.1561    1.9744    1.5988 H   0  0  0  1  0  0  0  0  0  0  0  0
  1  4  1  0  0  0  0
  2  4  1  0  0  0  0
  2  5  2  0  0  0  0
  2  6  1  0  0  0  0
  3  4  1  0  0  0  0
  3  7  1  0  0  0  0
  3  8  1  0  0  0  0
  4 28  1  0  0  0  0
  6  9  1  0  0  0  0
  6 12  1  0  0  0  0
  8 10  1  0  0  0  0
  8 11  2  0  0  0  0
  9 13  1  0  0  0  0
  9 14  1  0  0  0  0
  9 15  1  0  0  0  0
 10 16  1  0  0  0  0
 10 17  1  0  0  0  0
 10 18  1  0  0  0  0
 19 20  1  0  0  0  0
 19 21  1  0  0  0  0
 19 22  1  0  0  0  0
 20 29  1  0  0  0  0
 21 30  1  0  0  0  0
 22 23  4  0  0  0  0
 22 27  4  0  0  0  0
 23 24  4  0  0  0  0
 23 31  1  0  0  0  0
 24 25  4  0  0  0  0
 24 32  1  0  0  0  0
 25 26  4  0  0  0  0
 25 28  1  0  0  0  0
 26 27  4  0  0  0  0
 26 33  1  0  0  0  0
 27 34  1  0  0  0  0
 28 35  1  0  0  0  0
 28 36  1  0  0  0  0
M  END
> <BCLConfClusterSize>
1

> <ConfClashScore>
0 

> <ConfOneFourInteractionScore>
-0.963163 

> <ConfScore>
0.0126421 

> <ConfScorePBest>
0.00438766 

> <ConfTolerance>
0.611081 

> <RosettaParamsInstructions>
M  ROOT 3
M  POLY_N_BB 3
M  POLY_CA_BB 4
M  POLY_C_BB 2
M  POLY_O_BB 5
M  POLY_IGNORE 9 10 11 12 13 14 15 16 17 18 
M  POLY_UPPER 6
M  POLY_LOWER 8
M  POLY_CHG 0
M  POLY_PROPERTIES ALPHA_AA L_AA PROTEIN AROMATIC POLYMER 
M  END

$$$$



 36 36  0  0  0  0  0  0  0  0999 V2000
   -2.8885    1.8290    2.5661 H   0  0  0  1  0  0  0  0  0  0  0  0
   -3.4762    1.4092    0.6013 C   0  0  0  1  0  0  0  0  0  0  0  0
   -1.7088    0.2964    1.8876 N   0  0  0  1  0  0  0  0  0  0  0  0
   -2.3965    1.5578    1.6555 C   0  0  0  1  0  0  0  0  0  0  0  0
   -3.1949    1.1674   -0.5695 O   0  0  0  1  0  0  0  0  0  0  0  0
   -4.7382    1.5587    1.0339 N   0  0  0  1  0  0  0  0  0  0  0  0
   -1.1821   -0.1127    1.1695 H   0  0  0  1  0  0  0  0  0  0  0  0
   -1.7943   -0.3063    3.0799 C   0  0  0  1  0  0  0  0  0  0  0  0
   -5.8873    1.1815    0.2245 C   0  0  0  1  0  0  0  0  0  0  0  0
   -1.2122   -1.7169    3.1353 C   0  0  0  1  0  0  0  0  0  0  0  0
   -2.3610    0.1842    4.0556 O   0  0  0  1  0  0  0  0  0  0  0  0
   -4.8910    1.9348    1.9259 H   0  0  0  1  0  0  0  0  0  0  0  0
   -5.5883    0.4582   -0.5051 H   0  0  0  1  0  0  0  0  0  0  0  0
   -6.2746    2.0477   -0.2701 H   0  0  0  1  0  0  0  0  0  0  0  0
   -6.6439    0.7613    0.8537 H   0  0  0  1  0  0  0  0  0  0  0  0
   -0.4924   -1.7756    3.9249 H   0  0  0  1  0  0  0  0  0  0  0  0
   -0.7381   -1.9436    2.2033 H   0  0  0  1  0  0  0  0  0  0  0  0
   -1.9982   -2.4199    3.3166 H   0  0  0  1  0  0  0  0  0  0  0  0
   -4.1201    7.8145    0.4299 B   0  0  0  1  0  0  0  0  0  0  0  0
   -3.7073    8.9324    1.0815 O   0  0  0  1  0  0  0  0  0  0  0  0
   -5.1392    7.9274   -0.4634 O   0  0  0  1  0  0  0  0  0  0  0  0
   -3.4281    6.4186    0.7080 C   0  0  0  1  0  0  0  0  0  0  0  0
   -2.5331    6.2915    1.7535 C   0  0  0  1  0  0  0  0  0  0  0  0
   -1.8587    5.0960    1.9473 C   0  0  0  1  0  0  0  0  0  0  0  0
   -2.0774    4.0328    1.0916 C   0  0  0  1  0  0  0  0  0  0  0  0
   -2.9750    4.1602    0.0430 C   0  0  0  1  0  0  0  0  0  0  0  0
   -3.6473    5.3522   -0.1501 C   0  0  0  1  0  0  0  0  0  0  0  0
   -1.4363    2.6919    1.3215 C   0  0  0  1  0  0  0  0  0  0  0  0
   -3.9147    8.8540    2.0155 H   0  0  0  1  0  0  0  0  0  0  0  0
   -5.9355    8.2092   -0.0072 H   0  0  0  1  0  0  0  0  0  0  0  0
   -2.3656    7.0928    2.3949 H   0  0  0  1  0  0  0  0  0  0  0  0
   -1.1883    4.9990    2.7364 H   0  0  0  1  0  0  0  0  0  0  0  0
   -3.1425    3.3589   -0.5985 H   0  0  0  1  0  0  0  0  0  0  0  0
   -4.3177    5.4491   -0.9392 H   0  0  0  1  0  0  0  0  0  0  0  0
   -0.9048    2.4234    0.4325 H   0  0  0  1  0  0  0  0  0  0  0  0
   -0.7468    2.7906    2.1337 H   0  0  0  1  0  0  0  0  0  0  0  0
  1  4  1  0  0  0  0
  2  4  1  0  0  0  0
  2  5  2  0  0  0  0
  2  6  1  0  0  0  0
  3  4  1  0  0  0  0
  3  7  1  0  0  0  0
  3  8  1  0  0  0  0
  4 28  1  0  0  0  0
  6  9  1  0  0  0  0
  6 12  1  0  0  0  0
  8 10  1  0  0  0  0
  8 11  2  0  0  0  0
  9 13  1  0  0  0  0
  9 14  1  0  0  0  0
  9 15  1  0  0  0  0
 10 16  1  0  0  0  0
 10 17  1  0  0  0  0
 10 18  1  0  0  0  0
 19 20  1  0  0  0  0
 19 21  1  0  0  0  0
 19 22  1  0  0  0  0
 20 29  1  0  0  0  0
 21 30  1  0  0  0  0
 22 23  4  0  0  0  0
 22 27  4  0  0  0  0
 23 24  4  0  0  0  0
 23 31  1  0  0  0  0
 24 25  4  0  0  0  0
 24 32  1  0  0  0  0
 25 26  4  0  0  0  0
 25 28  1  0  0  0  0
 26 27  4  0  0  0  0
 26 33  1  0  0  0  0
 27 34  1  0  0  0  0
 28 35  1  0  0  0  0
 28 36  1  0  0  0  0
M  END
> <BCLConfClusterSize>
1

> <ConfClashScore>
0 

> <ConfOneFourInteractionScore>
-0.984409 

> <ConfScore>
0.0132601 

> <ConfScorePBest>
0.00435918 

> <ConfTolerance>
0.381274 

> <RosettaParamsInstructions>
M  ROOT 3
M  POLY_N_BB 3
M  POLY_CA_BB 4
M  POLY_C_BB 2
M  POLY_O_BB 5
M  POLY_IGNORE 9 10 11 12 13 14 15 16 17 18 
M  POLY_UPPER 6
M  POLY_LOWER 8
M  POLY_CHG 0
M  POLY_PROPERTIES ALPHA_AA L_AA PROTEIN AROMATIC POLYMER 
M  END

$$$$



 36 36  0  0  0  0  0  0  0  0999 V2000
   -1.1084    2.4708   -0.7738 H   0  0  0  1  0  0  0  0  0  0  0  0
    0.7620    2.6857    0.2382 C   0  0  0  1  0  0  0  0  0  0  0  0
   -0.6529    0.6768    0.1852 N   0  0  0  1  0  0  0  0  0  0  0  0
   -0.6603    2.1312    0.1366 C   0  0  0  1  0  0  0  0  0  0  0  0
    1.0519    3.7818   -0.2394 O   0  0  0  1  0  0  0  0  0  0  0  0
    1.6368    1.9550    0.9474 N   0  0  0  1  0  0  0  0  0  0  0  0
   -1.1735    0.2241    0.8812 H   0  0  0  1  0  0  0  0  0  0  0  0
    0.0380   -0.0617   -0.6847 C   0  0  0  1  0  0  0  0  0  0  0  0
    3.0290    2.3479    1.1065 C   0  0  0  1  0  0  0  0  0  0  0  0
    0.0100   -1.5589   -0.4460 C   0  0  0  1  0  0  0  0  0  0  0  0
    0.6676    0.4260   -1.6320 O   0  0  0  1  0  0  0  0  0  0  0  0
    1.3271    1.1282    1.3727 H   0  0  0  1  0  0  0  0  0  0  0  0
    3.0942    3.4140    1.1701 H   0  0  0  1  0  0  0  0  0  0  0  0
    3.5942    2.0057    0.2649 H   0  0  0  1  0  0  0  0  0  0  0  0
    3.4220    1.9127    2.0015 H   0  0  0  1  0  0  0  0  0  0  0  0
    0.7747   -1.8233    0.2541 H   0  0  0  1  0  0  0  0  0  0  0  0
    0.1806   -2.0703   -1.3702 H   0  0  0  1  0  0  0  0  0  0  0  0
   -0.9450   -1.8394   -0.0535 H   0  0  0  1  0  0  0  0  0  0  0  0
   -4.1453    7.8073    0.3911 B   0  0  0  1  0  0  0  0  0  0  0  0
   -5.3091    7.7871   -0.3543 O   0  0  0  1  0  0  0  0  0  0  0  0
   -4.1820    8.7831    1.3636 O   0  0  0  1  0  0  0  0  0  0  0  0
   -3.4235    6.4213    0.7163 C   0  0  0  1  0  0  0  0  0  0  0  0
   -2.5276    6.2897    1.7605 C   0  0  0  1  0  0  0  0  0  0  0  0
   -1.8552    5.0925    1.9503 C   0  0  0  1  0  0  0  0  0  0  0  0
   -2.0767    4.0321    1.0919 C   0  0  0  1  0  0  0  0  0  0  0  0
   -2.9751    4.1639    0.0446 C   0  0  0  1  0  0  0  0  0  0  0  0
   -3.6455    5.3577   -0.1445 C   0  0  0  1  0  0  0  0  0  0  0  0
   -1.4377    2.6894    1.3174 C   0  0  0  1  0  0  0  0  0  0  0  0
   -5.0970    7.9067   -1.2829 H   0  0  0  1  0  0  0  0  0  0  0  0
   -4.5711    8.4232    2.1640 H   0  0  0  1  0  0  0  0  0  0  0  0
   -2.3580    7.0890    2.4039 H   0  0  0  1  0  0  0  0  0  0  0  0
   -1.1841    4.9921    2.7384 H   0  0  0  1  0  0  0  0  0  0  0  0
   -3.1448    3.3647   -0.5989 H   0  0  0  1  0  0  0  0  0  0  0  0
   -4.3166    5.4580   -0.9326 H   0  0  0  1  0  0  0  0  0  0  0  0
   -0.7637    2.7792    2.1436 H   0  0  0  1  0  0  0  0  0  0  0  0
   -2.2118    1.9924    1.5621 H   0  0  0  1  0  0  0  0  0  0  0  0
  1  4  1  0  0  0  0
  2  4  1  0  0  0  0
  2  5  2  0  0  0  0
  2  6  1  0  0  0  0
  3  4  1  0  0  0  0
  3  7  1  0  0  0  0
  3  8  1  0  0  0  0
  4 28  1  0  0  0  0
  6  9  1  0  0  0  0
  6 12  1  0  0  0  0
  8 10  1  0  0  0  0
  8 11  2  0  0  0  0
  9 13  1  0  0  0  0
  9 14  1  0  0  0  0
  9 15  1  0  0  0  0
 10 16  1  0  0  0  0
 10 17  1  0  0  0  0
 10 18  1  0  0  0  0
 19 20  1  0  0  0  0
 19 21  1  0  0  0  0
 19 22  1  0  0  0  0
 20 29  1  0  0  0  0
 21 30  1  0  0  0  0
 22 23  4  0  0  0  0
 22 27  4  0  0  0  0
 23 24  4  0  0  0  0
 23 31  1  0  0  0  0
 24 25  4  0  0  0  0
 24 32  1  0  0  0  0
 25 26  4  0  0  0  0
 25 28  1  0  0  0  0
 26 27  4  0  0  0  0
 26 33  1  0  0  0  0
 27 34  1  0  0  0  0
 28 35  1  0  0  0  0
 28 36  1  0  0  0  0
M  END
> <BCLConfClusterSize>
1

> <ConfClashScore>
0 

> <ConfOneFourInteractionScore>
-0.954034 

> <ConfScore>
0.0134544 

> <ConfScorePBest>
0.0043307 

> <ConfTolerance>
0.595371 

> <RosettaParamsInstructions>
M  ROOT 3
M  POLY_N_BB 3
M  POLY_CA_BB 4
M  POLY_C_BB 2
M  POLY_O_BB 5
M  POLY_IGNORE 9 10 11 12 13 14 15 16 17 18 
M  POLY_UPPER 6
M  POLY_LOWER 8
M  POLY_CHG 0
M  POLY_PROPERTIES ALPHA_AA L_AA PROTEIN AROMATIC POLYMER 
M  END

$$$$



 36 36  0  0  0  0  0  0  0  0999 V2000
   -3.1758    1.5422    1.4628 H   0  0  0  1  0  0  0  0  0  0  0  0
   -1.6337    0.3691    2.2753 C   0  0  0  1  0  0  0  0  0  0  0  0
   -2.7806    2.2831    3.3411 N   0  0  0  1  0  0  0  0  0  0  0  0
   -2.3217    1.7070    2.0860 C   0  0  0  1  0  0  0  0  0  0  0  0
   -0.7242    0.0156    1.5430 O   0  0  0  1  0  0  0  0  0  0  0  0
   -2.0905   -0.3833    3.2889 N   0  0  0  1  0  0  0  0  0  0  0  0
   -3.7049    2.5975    3.4258 H   0  0  0  1  0  0  0  0  0  0  0  0
   -1.9443    2.3844    4.3782 C   0  0  0  1  0  0  0  0  0  0  0  0
   -1.6212   -1.7410    3.5221 C   0  0  0  1  0  0  0  0  0  0  0  0
   -2.3755    3.2217    5.5665 C   0  0  0  1  0  0  0  0  0  0  0  0
   -0.8430    1.8382    4.4277 O   0  0  0  1  0  0  0  0  0  0  0  0
   -2.7634   -0.0052    3.8928 H   0  0  0  1  0  0  0  0  0  0  0  0
   -0.9167   -2.0107    2.7633 H   0  0  0  1  0  0  0  0  0  0  0  0
   -2.4517   -2.4151    3.4932 H   0  0  0  1  0  0  0  0  0  0  0  0
   -1.1502   -1.7955    4.4814 H   0  0  0  1  0  0  0  0  0  0  0  0
   -2.0753    4.2376    5.4154 H   0  0  0  1  0  0  0  0  0  0  0  0
   -1.9158    2.8426    6.4552 H   0  0  0  1  0  0  0  0  0  0  0  0
   -3.4398    3.1758    5.6675 H   0  0  0  1  0  0  0  0  0  0  0  0
   -4.1182    7.8171    0.4332 B   0  0  0  1  0  0  0  0  0  0  0  0
   -3.7843    8.8520    1.2469 O   0  0  0  1  0  0  0  0  0  0  0  0
   -5.0010    7.8964   -0.5982 O   0  0  0  1  0  0  0  0  0  0  0  0
   -3.4287    6.4193    0.7075 C   0  0  0  1  0  0  0  0  0  0  0  0
   -2.5331    6.2881    1.7520 C   0  0  0  1  0  0  0  0  0  0  0  0
   -1.8608    5.0909    1.9426 C   0  0  0  1  0  0  0  0  0  0  0  0
   -2.0821    4.0301    1.0846 C   0  0  0  1  0  0  0  0  0  0  0  0
   -2.9803    4.1615    0.0370 C   0  0  0  1  0  0  0  0  0  0  0  0
   -3.6505    5.3552   -0.1528 C   0  0  0  1  0  0  0  0  0  0  0  0
   -1.4119    2.6994    1.3553 C   0  0  0  1  0  0  0  0  0  0  0  0
   -4.0932    8.6717    2.1378 H   0  0  0  1  0  0  0  0  0  0  0  0
   -4.5878    8.3446   -1.3399 H   0  0  0  1  0  0  0  0  0  0  0  0
   -2.3636    7.0877    2.3951 H   0  0  0  1  0  0  0  0  0  0  0  0
   -1.1899    4.9909    2.7309 H   0  0  0  1  0  0  0  0  0  0  0  0
   -3.1498    3.3620   -0.6061 H   0  0  0  1  0  0  0  0  0  0  0  0
   -4.3214    5.4552   -0.9411 H   0  0  0  1  0  0  0  0  0  0  0  0
   -1.1197    2.2688    0.4203 H   0  0  0  1  0  0  0  0  0  0  0  0
   -0.5435    2.8715    1.9562 H   0  0  0  1  0  0  0  0  0  0  0  0
  1  4  1  0  0  0  0
  2  4  1  0  0  0  0
  2  5  2  0  0  0  0
  2  6  1  0  0  0  0
  3  4  1  0  0  0  0
  3  7  1  0  0  0  0
  3  8  1  0  0  0  0
  4 28  1  0  0  0  0
  6  9  1  0  0  0  0
  6 12  1  0  0  0  0
  8 10  1  0  0  0  0
  8 11  2  0  0  0  0
  9 13  1  0  0  0  0
  9 14  1  0  0  0  0
  9 15  1  0  0  0  0
 10 16  1  0  0  0  0
 10 17  1  0  0  0  0
 10 18  1  0  0  0  0
 19 20  1  0  0  0  0
 19 21  1  0  0  0  0
 19 22  1  0  0  0  0
 20 29  1  0  0  0  0
 21 30  1  0  0  0  0
 22 23  4  0  0  0  0
 22 27  4  0  0  0  0
 23 24  4  0  0  0  0
 23 31  1  0  0  0  0
 24 25  4  0  0  0  0
 24 32  1  0  0  0  0
 25 26  4  0  0  0  0
 25 28  1  0  0  0  0
 26 27  4  0  0  0  0
 26 33  1  0  0  0  0
 27 34  1  0  0  0  0
 28 35  1  0  0  0  0
 28 36  1  0  0  0  0
M  END
> <BCLConfClusterSize>
1

> <ConfClashScore>
0 

> <ConfOneFourInteractionScore>
-0.966839 

> <ConfScore>
0.0139149 

> <ConfScorePBest>
0.00430222 

> <ConfTolerance>
0.325014 

> <RosettaParamsInstructions>
M  ROOT 3
M  POLY_N_BB 3
M  POLY_CA_BB 4
M  POLY_C_BB 2
M  POLY_O_BB 5
M  POLY_IGNORE 9 10 11 12 13 14 15 16 17 18 
M  POLY_UPPER 6
M  POLY_LOWER 8
M  POLY_CHG 0
M  POLY_PROPERTIES ALPHA_AA L_AA PROTEIN AROMATIC POLYMER 
M  END

$$$$



 36 36  0  0  0  0  0  0  0  0999 V2000
   -0.7302    2.2525   -0.5772 H   0  0  0  1  0  0  0  0  0  0  0  0
    0.7473    3.5144    0.1989 C   0  0  0  1  0  0  0  0  0  0  0  0
    0.3851    1.1276    0.7405 N   0  0  0  1  0  0  0  0  0  0  0  0
   -0.2746    2.4005    0.3795 C   0  0  0  1  0  0  0  0  0  0  0  0
    1.7321    3.6019    0.9303 O   0  0  0  1  0  0  0  0  0  0  0  0
    0.5004    4.3719   -0.7919 N   0  0  0  1  0  0  0  0  0  0  0  0
    0.0459    0.6199    1.5070 H   0  0  0  1  0  0  0  0  0  0  0  0
    1.4276    0.6455    0.0580 C   0  0  0  1  0  0  0  0  0  0  0  0
    1.4039    5.4862   -1.0361 C   0  0  0  1  0  0  0  0  0  0  0  0
    2.0988   -0.6136    0.5712 C   0  0  0  1  0  0  0  0  0  0  0  0
    1.8740    1.1586   -0.9565 O   0  0  0  1  0  0  0  0  0  0  0  0
   -0.2913    4.2514   -1.3569 H   0  0  0  1  0  0  0  0  0  0  0  0
    2.4034    5.1191   -1.1418 H   0  0  0  1  0  0  0  0  0  0  0  0
    1.3599    6.1678   -0.2124 H   0  0  0  1  0  0  0  0  0  0  0  0
    1.1128    5.9911   -1.9334 H   0  0  0  1  0  0  0  0  0  0  0  0
    1.3907   -1.4156    0.5849 H   0  0  0  1  0  0  0  0  0  0  0  0
    2.4644   -0.4440    1.5624 H   0  0  0  1  0  0  0  0  0  0  0  0
    2.9150   -0.8697   -0.0716 H   0  0  0  1  0  0  0  0  0  0  0  0
   -4.1178    7.8165    0.4333 B   0  0  0  1  0  0  0  0  0  0  0  0
   -3.4475    8.8017   -0.2184 O   0  0  0  1  0  0  0  0  0  0  0  0
   -5.3914    8.0632    0.8413 O   0  0  0  1  0  0  0  0  0  0  0  0
   -3.4283    6.4186    0.7076 C   0  0  0  1  0  0  0  0  0  0  0  0
   -2.5327    6.2875    1.7522 C   0  0  0  1  0  0  0  0  0  0  0  0
   -1.8604    5.0903    1.9427 C   0  0  0  1  0  0  0  0  0  0  0  0
   -2.0818    4.0295    1.0848 C   0  0  0  1  0  0  0  0  0  0  0  0
   -2.9800    4.1609    0.0372 C   0  0  0  1  0  0  0  0  0  0  0  0
   -3.6502    5.3546   -0.1526 C   0  0  0  1  0  0  0  0  0  0  0  0
   -1.4156    2.7067    1.3539 C   0  0  0  1  0  0  0  0  0  0  0  0
   -3.9310    9.0488   -1.0101 H   0  0  0  1  0  0  0  0  0  0  0  0
   -5.8559    7.2318    0.9622 H   0  0  0  1  0  0  0  0  0  0  0  0
   -2.3632    7.0871    2.3952 H   0  0  0  1  0  0  0  0  0  0  0  0
   -1.1896    4.9903    2.7311 H   0  0  0  1  0  0  0  0  0  0  0  0
   -3.1495    3.3613   -0.6059 H   0  0  0  1  0  0  0  0  0  0  0  0
   -4.3210    5.4545   -0.9410 H   0  0  0  1  0  0  0  0  0  0  0  0
   -1.0201    2.7205    2.3480 H   0  0  0  1  0  0  0  0  0  0  0  0
   -2.1500    1.9327    1.2724 H   0  0  0  1  0  0  0  0  0  0  0  0
  1  4  1  0  0  0  0
  2  4  1  0  0  0  0
  2  5  2  0  0  0  0
  2  6  1  0  0  0  0
  3  4  1  0  0  0  0
  3  7  1  0  0  0  0
  3  8  1  0  0  0  0
  4 28  1  0  0  0  0
  6  9  1  0  0  0  0
  6 12  1  0  0  0  0
  8 10  1  0  0  0  0
  8 11  2  0  0  0  0
  9 13  1  0  0  0  0
  9 14  1  0  0  0  0
  9 15  1  0  0  0  0
 10 16  1  0  0  0  0
 10 17  1  0  0  0  0
 10 18  1  0  0  0  0
 19 20  1  0  0  0  0
 19 21  1  0  0  0  0
 19 22  1  0  0  0  0
 20 29  1  0  0  0  0
 21 30  1  0  0  0  0
 22 23  4  0  0  0  0
 22 27  4  0  0  0  0
 23 24  4  0  0  0  0
 23 31  1  0  0  0  0
 24 25  4  0  0  0  0
 24 32  1  0  0  0  0
 25 26  4  0  0  0  0
 25 28  1  0  0  0  0
 26 27  4  0  0  0  0
 26 33  1  0  0  0  0
 27 34  1  0  0  0  0
 28 35  1  0  0  0  0
 28 36  1  0  0  0  0
M  END
> <BCLConfClusterSize>
1

> <ConfClashScore>
0 

> <ConfOneFourInteractionScore>
-0.988961 

> <ConfScore>
0.0156863 

> <ConfScorePBest>
0.00427374 

> <ConfTolerance>
0.367553 

> <RosettaParamsInstructions>
M  ROOT 3
M  POLY_N_BB 3
M  POLY_CA_BB 4
M  POLY_C_BB 2
M  POLY_O_BB 5
M  POLY_IGNORE 9 10 11 12 13 14 15 16 17 18 
M  POLY_UPPER 6
M  POLY_LOWER 8
M  POLY_CHG 0
M  POLY_PROPERTIES ALPHA_AA L_AA PROTEIN AROMATIC POLYMER 
M  END

$$$$



 36 36  0  0  0  0  0  0  0  0999 V2000
   -2.6012    2.1306    2.9808 H   0  0  0  1  0  0  0  0  0  0  0  0
   -3.6527    1.4933    1.2903 C   0  0  0  1  0  0  0  0  0  0  0  0
   -1.6844    0.4245    2.3447 N   0  0  0  1  0  0  0  0  0  0  0  0
   -2.3383    1.6889    2.0424 C   0  0  0  1  0  0  0  0  0  0  0  0
   -3.7182    0.7403    0.3196 O   0  0  0  1  0  0  0  0  0  0  0  0
   -4.7318    2.1666    1.7197 N   0  0  0  1  0  0  0  0  0  0  0  0
   -1.4566   -0.1786    1.6066 H   0  0  0  1  0  0  0  0  0  0  0  0
   -1.3808    0.0536    3.6059 C   0  0  0  1  0  0  0  0  0  0  0  0
   -6.0265    2.1449    1.0556 C   0  0  0  1  0  0  0  0  0  0  0  0
   -0.7121   -1.2869    3.8111 C   0  0  0  1  0  0  0  0  0  0  0  0
   -1.6373    0.7770    4.5549 O   0  0  0  1  0  0  0  0  0  0  0  0
   -4.6419    2.7071    2.5322 H   0  0  0  1  0  0  0  0  0  0  0  0
   -6.0166    1.4103    0.2777 H   0  0  0  1  0  0  0  0  0  0  0  0
   -6.2270    3.1078    0.6340 H   0  0  0  1  0  0  0  0  0  0  0  0
   -6.7878    1.9008    1.7667 H   0  0  0  1  0  0  0  0  0  0  0  0
    0.0403   -1.1987    4.5668 H   0  0  0  1  0  0  0  0  0  0  0  0
   -0.2609   -1.6042    2.8942 H   0  0  0  1  0  0  0  0  0  0  0  0
   -1.4425   -2.0063    4.1175 H   0  0  0  1  0  0  0  0  0  0  0  0
   -4.1435    7.8100    0.3943 B   0  0  0  1  0  0  0  0  0  0  0  0
   -3.4933    8.7816   -0.2970 O   0  0  0  1  0  0  0  0  0  0  0  0
   -5.4180    8.0513    0.8029 O   0  0  0  1  0  0  0  0  0  0  0  0
   -3.4240    6.4220    0.7158 C   0  0  0  1  0  0  0  0  0  0  0  0
   -2.5276    6.2863    1.7590 C   0  0  0  1  0  0  0  0  0  0  0  0
   -1.8572    5.0874    1.9455 C   0  0  0  1  0  0  0  0  0  0  0  0
   -2.0814    4.0294    1.0849 C   0  0  0  1  0  0  0  0  0  0  0  0
   -2.9804    4.1653    0.0386 C   0  0  0  1  0  0  0  0  0  0  0  0
   -3.6487    5.3607   -0.1472 C   0  0  0  1  0  0  0  0  0  0  0  0
   -1.4133    2.6967    1.3512 C   0  0  0  1  0  0  0  0  0  0  0  0
   -3.5221    9.6024    0.2000 H   0  0  0  1  0  0  0  0  0  0  0  0
   -5.9472    8.3322    0.0528 H   0  0  0  1  0  0  0  0  0  0  0  0
   -2.3560    7.0838    2.4041 H   0  0  0  1  0  0  0  0  0  0  0  0
   -1.1857    4.9841    2.7329 H   0  0  0  1  0  0  0  0  0  0  0  0
   -3.1520    3.3678   -0.6065 H   0  0  0  1  0  0  0  0  0  0  0  0
   -4.3202    5.4640   -0.9346 H   0  0  0  1  0  0  0  0  0  0  0  0
   -1.0955    2.2825    0.4173 H   0  0  0  1  0  0  0  0  0  0  0  0
   -0.5613    2.8619    1.9771 H   0  0  0  1  0  0  0  0  0  0  0  0
  1  4  1  0  0  0  0
  2  4  1  0  0  0  0
  2  5  2  0  0  0  0
  2  6  1  0  0  0  0
  3  4  1  0  0  0  0
  3  7  1  0  0  0  0
  3  8  1  0  0  0  0
  4 28  1  0  0  0  0
  6  9  1  0  0  0  0
  6 12  1  0  0  0  0
  8 10  1  0  0  0  0
  8 11  2  0  0  0  0
  9 13  1  0  0  0  0
  9 14  1  0  0  0  0
  9 15  1  0  0  0  0
 10 16  1  0  0  0  0
 10 17  1  0  0  0  0
 10 18  1  0  0  0  0
 19 20  1  0  0  0  0
 19 21  1  0  0  0  0
 19 22  1  0  0  0  0
 20 29  1  0  0  0  0
 21 30  1  0  0  0  0
 22 23  4  0  0  0  0
 22 27  4  0  0  0  0
 23 24  4  0  0  0  0
 23 31  1  0  0  0  0
 24 25  4  0  0  0  0
 24 32  1  0  0  0  0
 25 26  4  0  0  0  0
 25 28  1  0  0  0  0
 26 27  4  0  0  0  0
 26 33  1  0  0  0  0
 27 34  1  0  0  0  0
 28 35  1  0  0  0  0
 28 36  1  0  0  0  0
M  END
> <BCLConfClusterSize>
1

> <ConfClashScore>
0 

> <ConfOneFourInteractionScore>
-0.992613 

> <ConfScore>
0.018121 

> <ConfScorePBest>
0.00424526 

> <ConfTolerance>
0.382412 

> <RosettaParamsInstructions>
M  ROOT 3
M  POLY_N_BB 3
M  POLY_CA_BB 4
M  POLY_C_BB 2
M  POLY_O_BB 5
M  POLY_IGNORE 9 10 11 12 13 14 15 16 17 18 
M  POLY_UPPER 6
M  POLY_LOWER 8
M  POLY_CHG 0
M  POLY_PROPERTIES ALPHA_AA L_AA PROTEIN AROMATIC POLYMER 
M  END

$$$$



 36 36  0  0  0  0  0  0  0  0999 V2000
   -2.9168    1.7895    2.5183 H   0  0  0  1  0  0  0  0  0  0  0  0
   -3.2992    1.3701    0.4697 C   0  0  0  1  0  0  0  0  0  0  0  0
   -1.5784    0.3377    1.8785 N   0  0  0  1  0  0  0  0  0  0  0  0
   -2.3454    1.5509    1.6456 C   0  0  0  1  0  0  0  0  0  0  0  0
   -2.8699    1.1820   -0.6678 O   0  0  0  1  0  0  0  0  0  0  0  0
   -4.6183    1.4225    0.7132 N   0  0  0  1  0  0  0  0  0  0  0  0
   -0.6020    0.3736    1.8026 H   0  0  0  1  0  0  0  0  0  0  0  0
   -2.1584   -0.8242    2.1924 C   0  0  0  1  0  0  0  0  0  0  0  0
   -5.6089    1.3401   -0.3497 C   0  0  0  1  0  0  0  0  0  0  0  0
   -1.2941   -2.0696    2.2271 C   0  0  0  1  0  0  0  0  0  0  0  0
   -3.3446   -0.9444    2.4535 O   0  0  0  1  0  0  0  0  0  0  0  0
   -4.9249    1.5196    1.6390 H   0  0  0  1  0  0  0  0  0  0  0  0
   -5.2072    0.7827   -1.1699 H   0  0  0  1  0  0  0  0  0  0  0  0
   -5.8615    2.3265   -0.6787 H   0  0  0  1  0  0  0  0  0  0  0  0
   -6.4864    0.8507    0.0181 H   0  0  0  1  0  0  0  0  0  0  0  0
   -0.8020   -2.1892    1.2845 H   0  0  0  1  0  0  0  0  0  0  0  0
   -1.9082   -2.9244    2.4197 H   0  0  0  1  0  0  0  0  0  0  0  0
   -0.5621   -1.9739    3.0017 H   0  0  0  1  0  0  0  0  0  0  0  0
   -4.0972    7.8172    0.4091 B   0  0  0  1  0  0  0  0  0  0  0  0
   -4.9468    7.8452   -0.6417 O   0  0  0  1  0  0  0  0  0  0  0  0
   -3.8718    8.9499    1.1111 O   0  0  0  1  0  0  0  0  0  0  0  0
   -3.4357    6.4164    0.7156 C   0  0  0  1  0  0  0  0  0  0  0  0
   -2.5375    6.2854    1.7578 C   0  0  0  1  0  0  0  0  0  0  0  0
   -1.8605    5.0901    1.9435 C   0  0  0  1  0  0  0  0  0  0  0  0
   -2.0799    4.0309    1.0830 C   0  0  0  1  0  0  0  0  0  0  0  0
   -2.9808    4.1621    0.0377 C   0  0  0  1  0  0  0  0  0  0  0  0
   -3.6557    5.3540   -0.1472 C   0  0  0  1  0  0  0  0  0  0  0  0
   -1.4085    2.7098    1.3469 C   0  0  0  1  0  0  0  0  0  0  0  0
   -5.7631    8.2787   -0.3824 H   0  0  0  1  0  0  0  0  0  0  0  0
   -2.9515    8.9809    1.3824 H   0  0  0  1  0  0  0  0  0  0  0  0
   -2.3694    7.0838    2.4028 H   0  0  0  1  0  0  0  0  0  0  0  0
   -1.1876    4.9902    2.7301 H   0  0  0  1  0  0  0  0  0  0  0  0
   -3.1489    3.3638   -0.6073 H   0  0  0  1  0  0  0  0  0  0  0  0
   -4.3286    5.4538   -0.9339 H   0  0  0  1  0  0  0  0  0  0  0  0
   -0.8322    2.4539    0.4824 H   0  0  0  1  0  0  0  0  0  0  0  0
   -0.7571    2.8325    2.1869 H   0  0  0  1  0  0  0  0  0  0  0  0
  1  4  1  0  0  0  0
  2  4  1  0  0  0  0
  2  5  2  0  0  0  0
  2  6  1  0  0  0  0
  3  4  1  0  0  0  0
  3  7  1  0  0  0  0
  3  8  1  0  0  0  0
  4 28  1  0  0  0  0
  6  9  1  0  0  0  0
  6 12  1  0  0  0  0
  8 10  1  0  0  0  0
  8 11  2  0  0  0  0
  9 13  1  0  0  0  0
  9 14  1  0  0  0  0
  9 15  1  0  0  0  0
 10 16  1  0  0  0  0
 10 17  1  0  0  0  0
 10 18  1  0  0  0  0
 19 20  1  0  0  0  0
 19 21  1  0  0  0  0
 19 22  1  0  0  0  0
 20 29  1  0  0  0  0
 21 30  1  0  0  0  0
 22 23  4  0  0  0  0
 22 27  4  0  0  0  0
 23 24  4  0  0  0  0
 23 31  1  0  0  0  0
 24 25  4  0  0  0  0
 24 32  1  0  0  0  0
 25 26  4  0  0  0  0
 25 28  1  0  0  0  0
 26 27  4  0  0  0  0
 26 33  1  0  0  0  0
 27 34  1  0  0  0  0
 28 35  1  0  0  0  0
 28 36  1  0  0  0  0
M  END
> <BCLConfClusterSize>
1

> <ConfClashScore>
0 

> <ConfOneFourInteractionScore>
-0.980757 

> <ConfScore>
0.02147 

> <ConfScorePBest>
0.00421678 

> <ConfTolerance>
0.524109 

> <RosettaParamsInstructions>
M  ROOT 3
M  POLY_N_BB 3
M  POLY_CA_BB 4
M  POLY_C_BB 2
M  POLY_O_BB 5
M  POLY_IGNORE 9 10 11 12 13 14 15 16 17 18 
M  POLY_UPPER 6
M  POLY_LOWER 8
M  POLY_CHG 0
M  POLY_PROPERTIES ALPHA_AA L_AA PROTEIN AROMATIC POLYMER 
M  END

$$$$



 36 36  0  0  0  0  0  0  0  0999 V2000
    0.4451    1.7090    1.3608 H   0  0  0  1  0  0  0  0  0  0  0  0
    0.5913    3.3139   -0.0140 C   0  0  0  1  0  0  0  0  0  0  0  0
    0.6524    3.4702    2.4247 N   0  0  0  1  0  0  0  0  0  0  0  0
    0.1030    2.7212    1.3045 C   0  0  0  1  0  0  0  0  0  0  0  0
    0.7174    4.5279   -0.1505 O   0  0  0  1  0  0  0  0  0  0  0  0
    0.8768    2.4737   -1.0128 N   0  0  0  1  0  0  0  0  0  0  0  0
    0.6119    4.4492    2.4044 H   0  0  0  1  0  0  0  0  0  0  0  0
    1.2092    2.8707    3.4782 C   0  0  0  1  0  0  0  0  0  0  0  0
    1.1765    2.9393   -2.3586 C   0  0  0  1  0  0  0  0  0  0  0  0
    1.6937    3.7921    4.5806 C   0  0  0  1  0  0  0  0  0  0  0  0
    1.3306    1.6496    3.5673 O   0  0  0  1  0  0  0  0  0  0  0  0
    0.8847    1.5104   -0.8329 H   0  0  0  1  0  0  0  0  0  0  0  0
    0.7174    3.8927   -2.5173 H   0  0  0  1  0  0  0  0  0  0  0  0
    0.7963    2.2377   -3.0714 H   0  0  0  1  0  0  0  0  0  0  0  0
    2.2361    3.0299   -2.4768 H   0  0  0  1  0  0  0  0  0  0  0  0
    0.9104    4.4693    4.8501 H   0  0  0  1  0  0  0  0  0  0  0  0
    2.5410    4.3466    4.2350 H   0  0  0  1  0  0  0  0  0  0  0  0
    1.9717    3.2106    5.4347 H   0  0  0  1  0  0  0  0  0  0  0  0
   -4.1186    7.8179    0.4330 B   0  0  0  1  0  0  0  0  0  0  0  0
   -3.9039    8.8366    1.3052 O   0  0  0  1  0  0  0  0  0  0  0  0
   -4.8365    8.0719   -0.6817 O   0  0  0  1  0  0  0  0  0  0  0  0
   -3.4282    6.4184    0.7077 C   0  0  0  1  0  0  0  0  0  0  0  0
   -2.5326    6.2872    1.7522 C   0  0  0  1  0  0  0  0  0  0  0  0
   -1.8603    5.0900    1.9427 C   0  0  0  1  0  0  0  0  0  0  0  0
   -2.0817    4.0292    1.0848 C   0  0  0  1  0  0  0  0  0  0  0  0
   -2.9799    4.1606    0.0372 C   0  0  0  1  0  0  0  0  0  0  0  0
   -3.6500    5.3543   -0.1526 C   0  0  0  1  0  0  0  0  0  0  0  0
   -1.4161    2.7076    1.3537 C   0  0  0  1  0  0  0  0  0  0  0  0
   -3.5376    9.5892    0.8350 H   0  0  0  1  0  0  0  0  0  0  0  0
   -5.5170    7.4026   -0.7840 H   0  0  0  1  0  0  0  0  0  0  0  0
   -2.3631    7.0868    2.3953 H   0  0  0  1  0  0  0  0  0  0  0  0
   -1.1894    4.9901    2.7311 H   0  0  0  1  0  0  0  0  0  0  0  0
   -3.1494    3.3611   -0.6059 H   0  0  0  1  0  0  0  0  0  0  0  0
   -4.3209    5.4543   -0.9410 H   0  0  0  1  0  0  0  0  0  0  0  0
   -1.7118    2.3814    2.3289 H   0  0  0  1  0  0  0  0  0  0  0  0
   -1.7638    2.0081    0.6224 H   0  0  0  1  0  0  0  0  0  0  0  0
  1  4  1  0  0  0  0
  2  4  1  0  0  0  0
  2  5  2  0  0  0  0
  2  6  1  0  0  0  0
  3  4  1  0  0  0  0
  3  7  1  0  0  0  0
  3  8  1  0  0  0  0
  4 28  1  0  0  0  0
  6  9  1  0  0  0  0
  6 12  1  0  0  0  0
  8 10  1  0  0  0  0
  8 11  2  0  0  0  0
  9 13  1  0  0  0  0
  9 14  1  0  0  0  0
  9 15  1  0  0  0  0
 10 16  1  0  0  0  0
 10 17  1  0  0  0  0
 10 18  1  0  0  0  0
 19 20  1  0  0  0  0
 19 21  1  0  0  0  0
 19 22  1  0  0  0  0
 20 29  1  0  0  0  0
 21 30  1  0  0  0  0
 22 23  4  0  0  0  0
 22 27  4  0  0  0  0
 23 24  4  0  0  0  0
 23 31  1  0  0  0  0
 24 25  4  0  0  0  0
 24 32  1  0  0  0  0
 25 26  4  0  0  0  0
 25 28  1  0  0  0  0
 26 27  4  0  0  0  0
 26 33  1  0  0  0  0
 27 34  1  0  0  0  0
 28 35  1  0  0  0  0
 28 36  1  0  0  0  0
M  END
> <BCLConfClusterSize>
1

> <ConfClashScore>
0 

> <ConfOneFourInteractionScore>
-0.99009 

> <ConfScore>
0.0222739 

> <ConfScorePBest>
0.0041883 

> <ConfTolerance>
0.497578 

> <RosettaParamsInstructions>
M  ROOT 3
M  POLY_N_BB 3
M  POLY_CA_BB 4
M  POLY_C_BB 2
M  POLY_O_BB 5
M  POLY_IGNORE 9 10 11 12 13 14 15 16 17 18 
M  POLY_UPPER 6
M  POLY_LOWER 8
M  POLY_CHG 0
M  POLY_PROPERTIES ALPHA_AA L_AA PROTEIN AROMATIC POLYMER 
M  END

$$$$



 36 36  0  0  0  0  0  0  0  0999 V2000
   -1.5932    0.9810    2.5324 H   0  0  0  1  0  0  0  0  0  0  0  0
   -2.6039    2.4748    3.5975 C   0  0  0  1  0  0  0  0  0  0  0  0
   -3.4392    1.2373    1.6716 N   0  0  0  1  0  0  0  0  0  0  0  0
   -2.2326    1.8018    2.2824 C   0  0  0  1  0  0  0  0  0  0  0  0
   -3.6399    3.1288    3.7099 O   0  0  0  1  0  0  0  0  0  0  0  0
   -1.7338    2.3049    4.6056 N   0  0  0  1  0  0  0  0  0  0  0  0
   -3.7072    1.5461    0.7809 H   0  0  0  1  0  0  0  0  0  0  0  0
   -4.1865    0.3164    2.2866 C   0  0  0  1  0  0  0  0  0  0  0  0
   -1.9806    2.8263    5.9417 C   0  0  0  1  0  0  0  0  0  0  0  0
   -5.4633   -0.0807    1.5715 C   0  0  0  1  0  0  0  0  0  0  0  0
   -3.8775   -0.1844    3.3560 O   0  0  0  1  0  0  0  0  0  0  0  0
   -0.9035    1.8127    4.4359 H   0  0  0  1  0  0  0  0  0  0  0  0
   -2.4431    3.7885    5.8699 H   0  0  0  1  0  0  0  0  0  0  0  0
   -1.0525    2.9152    6.4667 H   0  0  0  1  0  0  0  0  0  0  0  0
   -2.6277    2.1584    6.4710 H   0  0  0  1  0  0  0  0  0  0  0  0
   -5.8249    0.7481    0.9996 H   0  0  0  1  0  0  0  0  0  0  0  0
   -6.2014   -0.3658    2.2918 H   0  0  0  1  0  0  0  0  0  0  0  0
   -5.2645   -0.9047    0.9185 H   0  0  0  1  0  0  0  0  0  0  0  0
   -4.1177    7.8098    0.4309 B   0  0  0  1  0  0  0  0  0  0  0  0
   -5.0808    7.9940   -0.5176 O   0  0  0  1  0  0  0  0  0  0  0  0
   -3.7206    8.8594    1.1813 O   0  0  0  1  0  0  0  0  0  0  0  0
   -3.4284    6.4192    0.7079 C   0  0  0  1  0  0  0  0  0  0  0  0
   -2.5334    6.2920    1.7534 C   0  0  0  1  0  0  0  0  0  0  0  0
   -1.8590    5.0965    1.9472 C   0  0  0  1  0  0  0  0  0  0  0  0
   -2.0777    4.0334    1.0915 C   0  0  0  1  0  0  0  0  0  0  0  0
   -2.9753    4.1607    0.0429 C   0  0  0  1  0  0  0  0  0  0  0  0
   -3.6476    5.3528   -0.1502 C   0  0  0  1  0  0  0  0  0  0  0  0
   -1.4360    2.6913    1.3216 C   0  0  0  1  0  0  0  0  0  0  0  0
   -5.5291    8.8284   -0.3612 H   0  0  0  1  0  0  0  0  0  0  0  0
   -4.4830    9.2506    1.6140 H   0  0  0  1  0  0  0  0  0  0  0  0
   -2.3659    7.0934    2.3948 H   0  0  0  1  0  0  0  0  0  0  0  0
   -1.1886    4.9996    2.7363 H   0  0  0  1  0  0  0  0  0  0  0  0
   -3.1428    3.3594   -0.5986 H   0  0  0  1  0  0  0  0  0  0  0  0
   -4.3180    5.4497   -0.9393 H   0  0  0  1  0  0  0  0  0  0  0  0
   -1.3529    2.1878    0.3811 H   0  0  0  1  0  0  0  0  0  0  0  0
   -0.4598    2.8463    1.7313 H   0  0  0  1  0  0  0  0  0  0  0  0
  1  4  1  0  0  0  0
  2  4  1  0  0  0  0
  2  5  2  0  0  0  0
  2  6  1  0  0  0  0
  3  4  1  0  0  0  0
  3  7  1  0  0  0  0
  3  8  1  0  0  0  0
  4 28  1  0  0  0  0
  6  9  1  0  0  0  0
  6 12  1  0  0  0  0
  8 10  1  0  0  0  0
  8 11  2  0  0  0  0
  9 13  1  0  0  0  0
  9 14  1  0  0  0  0
  9 15  1  0  0  0  0
 10 16  1  0  0  0  0
 10 17  1  0  0  0  0
 10 18  1  0  0  0  0
 19 20  1  0  0  0  0
 19 21  1  0  0  0  0
 19 22  1  0  0  0  0
 20 29  1  0  0  0  0
 21 30  1  0  0  0  0
 22 23  4  0  0  0  0
 22 27  4  0  0  0  0
 23 24  4  0  0  0  0
 23 31  1  0  0  0  0
 24 25  4  0  0  0  0
 24 32  1  0  0  0  0
 25 26  4  0  0  0  0
 25 28  1  0  0  0  0
 26 27  4  0  0  0  0
 26 33  1  0  0  0  0
 27 34  1  0  0  0  0
 28 35  1  0  0  0  0
 28 36  1  0  0  0  0
M  END
> <BCLConfClusterSize>
1

> <ConfClashScore>
0 

> <ConfOneFourInteractionScore>
-0.986438 

> <ConfScore>
0.0240818 

> <ConfScorePBest>
0.00415982 

> <ConfTolerance>
0.365141 

> <RosettaParamsInstructions>
M  ROOT 3
M  POLY_N_BB 3
M  POLY_CA_BB 4
M  POLY_C_BB 2
M  POLY_O_BB 5
M  POLY_IGNORE 9 10 11 12 13 14 15 16 17 18 
M  POLY_UPPER 6
M  POLY_LOWER 8
M  POLY_CHG 0
M  POLY_PROPERTIES ALPHA_AA L_AA PROTEIN AROMATIC POLYMER 
M  END

$$$$



 36 36  0  0  0  0  0  0  0  0999 V2000
   -1.7318    0.8414    2.2730 H   0  0  0  1  0  0  0  0  0  0  0  0
   -2.9200    2.2308    3.4077 C   0  0  0  1  0  0  0  0  0  0  0  0
   -3.3659    1.2161    1.1072 N   0  0  0  1  0  0  0  0  0  0  0  0
   -2.3420    1.6857    2.0287 C   0  0  0  1  0  0  0  0  0  0  0  0
   -2.1619    2.7511    4.2779 O   0  0  0  1  0  0  0  0  0  0  0  0
   -4.2892    2.0963    3.5822 N   0  0  0  1  0  0  0  0  0  0  0  0
   -3.5380    1.7560    0.3077 H   0  0  0  1  0  0  0  0  0  0  0  0
   -4.0950    0.0950    1.2705 C   0  0  0  1  0  0  0  0  0  0  0  0
   -4.9784    2.6172    4.7533 C   0  0  0  1  0  0  0  0  0  0  0  0
   -5.1507   -0.1066    0.2010 C   0  0  0  1  0  0  0  0  0  0  0  0
   -3.9450   -0.7104    2.1885 O   0  0  0  1  0  0  0  0  0  0  0  0
   -4.8107    1.6343    2.8930 H   0  0  0  1  0  0  0  0  0  0  0  0
   -5.8520    2.0296    4.9444 H   0  0  0  1  0  0  0  0  0  0  0  0
   -5.2638    3.6331    4.5764 H   0  0  0  1  0  0  0  0  0  0  0  0
   -4.3262    2.5718    5.6003 H   0  0  0  1  0  0  0  0  0  0  0  0
   -5.2294    0.7788   -0.3946 H   0  0  0  1  0  0  0  0  0  0  0  0
   -6.0936   -0.3092    0.6646 H   0  0  0  1  0  0  0  0  0  0  0  0
   -4.8743   -0.9317   -0.4217 H   0  0  0  1  0  0  0  0  0  0  0  0
   -4.1158    7.8123    0.4341 B   0  0  0  1  0  0  0  0  0  0  0  0
   -4.5467    8.6392    1.4216 O   0  0  0  1  0  0  0  0  0  0  0  0
   -4.2743    8.1829   -0.8523 O   0  0  0  1  0  0  0  0  0  0  0  0
   -3.4289    6.4197    0.7074 C   0  0  0  1  0  0  0  0  0  0  0  0
   -2.5333    6.2886    1.7519 C   0  0  0  1  0  0  0  0  0  0  0  0
   -1.8610    5.0914    1.9425 C   0  0  0  1  0  0  0  0  0  0  0  0
   -2.0824    4.0306    1.0846 C   0  0  0  1  0  0  0  0  0  0  0  0
   -2.9805    4.1620    0.0369 C   0  0  0  1  0  0  0  0  0  0  0  0
   -3.6507    5.3557   -0.1529 C   0  0  0  1  0  0  0  0  0  0  0  0
   -1.4122    2.6998    1.3552 C   0  0  0  1  0  0  0  0  0  0  0  0
   -5.4777    8.4779    1.5912 H   0  0  0  1  0  0  0  0  0  0  0  0
   -4.3390    7.4010   -1.4055 H   0  0  0  1  0  0  0  0  0  0  0  0
   -2.3638    7.0881    2.3950 H   0  0  0  1  0  0  0  0  0  0  0  0
   -1.1901    4.9914    2.7308 H   0  0  0  1  0  0  0  0  0  0  0  0
   -3.1501    3.3624   -0.6061 H   0  0  0  1  0  0  0  0  0  0  0  0
   -4.3216    5.4557   -0.9412 H   0  0  0  1  0  0  0  0  0  0  0  0
   -1.0791    2.2907    0.4244 H   0  0  0  1  0  0  0  0  0  0  0  0
   -0.5701    2.8663    1.9940 H   0  0  0  1  0  0  0  0  0  0  0  0
  1  4  1  0  0  0  0
  2  4  1  0  0  0  0
  2  5  2  0  0  0  0
  2  6  1  0  0  0  0
  3  4  1  0  0  0  0
  3  7  1  0  0  0  0
  3  8  1  0  0  0  0
  4 28  1  0  0  0  0
  6  9  1  0  0  0  0
  6 12  1  0  0  0  0
  8 10  1  0  0  0  0
  8 11  2  0  0  0  0
  9 13  1  0  0  0  0
  9 14  1  0  0  0  0
  9 15  1  0  0  0  0
 10 16  1  0  0  0  0
 10 17  1  0  0  0  0
 10 18  1  0  0  0  0
 19 20  1  0  0  0  0
 19 21  1  0  0  0  0
 19 22  1  0  0  0  0
 20 29  1  0  0  0  0
 21 30  1  0  0  0  0
 22 23  4  0  0  0  0
 22 27  4  0  0  0  0
 23 24  4  0  0  0  0
 23 31  1  0  0  0  0
 24 25  4  0  0  0  0
 24 32  1  0  0  0  0
 25 26  4  0  0  0  0
 25 28  1  0  0  0  0
 26 27  4  0  0  0  0
 26 33  1  0  0  0  0
 27 34  1  0  0  0  0
 28 35  1  0  0  0  0
 28 36  1  0  0  0  0
M  END
> <BCLConfClusterSize>
1

> <ConfClashScore>
0 

> <ConfOneFourInteractionScore>
-0.966613 

> <ConfScore>
0.0271856 

> <ConfScorePBest>
0.00413134 

> <ConfTolerance>
0.477443 

> <RosettaParamsInstructions>
M  ROOT 3
M  POLY_N_BB 3
M  POLY_CA_BB 4
M  POLY_C_BB 2
M  POLY_O_BB 5
M  POLY_IGNORE 9 10 11 12 13 14 15 16 17 18 
M  POLY_UPPER 6
M  POLY_LOWER 8
M  POLY_CHG 0
M  POLY_PROPERTIES ALPHA_AA L_AA PROTEIN AROMATIC POLYMER 
M  END

$$$$



 36 36  0  0  0  0  0  0  0  0999 V2000
   -1.8301    0.7232    1.9459 H   0  0  0  1  0  0  0  0  0  0  0  0
   -3.3599    1.9337    2.7320 C   0  0  0  1  0  0  0  0  0  0  0  0
   -3.0793    1.2040    0.3834 N   0  0  0  1  0  0  0  0  0  0  0  0
   -2.3963    1.5689    1.6156 C   0  0  0  1  0  0  0  0  0  0  0  0
   -2.9893    1.9844    3.9041 O   0  0  0  1  0  0  0  0  0  0  0  0
   -4.6214    2.1917    2.3524 N   0  0  0  1  0  0  0  0  0  0  0  0
   -2.8204    1.6766   -0.4352 H   0  0  0  1  0  0  0  0  0  0  0  0
   -4.0313    0.2749    0.2843 C   0  0  0  1  0  0  0  0  0  0  0  0
   -5.6867    2.6278    3.2429 C   0  0  0  1  0  0  0  0  0  0  0  0
   -4.4564   -0.0848   -1.1260 C   0  0  0  1  0  0  0  0  0  0  0  0
   -4.5392   -0.2624    1.2554 O   0  0  0  1  0  0  0  0  0  0  0  0
   -4.8416    2.0778    1.4043 H   0  0  0  1  0  0  0  0  0  0  0  0
   -5.2667    3.1736    4.0618 H   0  0  0  1  0  0  0  0  0  0  0  0
   -6.2116    1.7733    3.6159 H   0  0  0  1  0  0  0  0  0  0  0  0
   -6.3650    3.2572    2.7056 H   0  0  0  1  0  0  0  0  0  0  0  0
   -4.2920   -1.1288   -1.2933 H   0  0  0  1  0  0  0  0  0  0  0  0
   -3.8817    0.4833   -1.8273 H   0  0  0  1  0  0  0  0  0  0  0  0
   -5.4954    0.1372   -1.2526 H   0  0  0  1  0  0  0  0  0  0  0  0
   -4.0990    7.8208    0.4085 B   0  0  0  1  0  0  0  0  0  0  0  0
   -3.7997    8.9248    1.0909 O   0  0  0  1  0  0  0  0  0  0  0  0
   -4.9476    7.9405   -0.6475 O   0  0  0  1  0  0  0  0  0  0  0  0
   -3.4360    6.4168    0.7156 C   0  0  0  1  0  0  0  0  0  0  0  0
   -2.5377    6.2858    1.7578 C   0  0  0  1  0  0  0  0  0  0  0  0
   -1.8607    5.0905    1.9434 C   0  0  0  1  0  0  0  0  0  0  0  0
   -2.0801    4.0314    1.0829 C   0  0  0  1  0  0  0  0  0  0  0  0
   -2.9810    4.1626    0.0376 C   0  0  0  1  0  0  0  0  0  0  0  0
   -3.6559    5.3544   -0.1473 C   0  0  0  1  0  0  0  0  0  0  0  0
   -1.4046    2.7023    1.3483 C   0  0  0  1  0  0  0  0  0  0  0  0
   -4.0433    9.6966    0.5747 H   0  0  0  1  0  0  0  0  0  0  0  0
   -5.8300    8.1427   -0.3281 H   0  0  0  1  0  0  0  0  0  0  0  0
   -2.3696    7.0841    2.4028 H   0  0  0  1  0  0  0  0  0  0  0  0
   -1.1877    4.9906    2.7300 H   0  0  0  1  0  0  0  0  0  0  0  0
   -3.1490    3.3642   -0.6074 H   0  0  0  1  0  0  0  0  0  0  0  0
   -4.3288    5.4542   -0.9339 H   0  0  0  1  0  0  0  0  0  0  0  0
   -0.8141    2.4438    0.4942 H   0  0  0  1  0  0  0  0  0  0  0  0
   -0.7695    2.8077    2.2030 H   0  0  0  1  0  0  0  0  0  0  0  0
  1  4  1  0  0  0  0
  2  4  1  0  0  0  0
  2  5  2  0  0  0  0
  2  6  1  0  0  0  0
  3  4  1  0  0  0  0
  3  7  1  0  0  0  0
  3  8  1  0  0  0  0
  4 28  1  0  0  0  0
  6  9  1  0  0  0  0
  6 12  1  0  0  0  0
  8 10  1  0  0  0  0
  8 11  2  0  0  0  0
  9 13  1  0  0  0  0
  9 14  1  0  0  0  0
  9 15  1  0  0  0  0
 10 16  1  0  0  0  0
 10 17  1  0  0  0  0
 10 18  1  0  0  0  0
 19 20  1  0  0  0  0
 19 21  1  0  0  0  0
 19 22  1  0  0  0  0
 20 29  1  0  0  0  0
 21 30  1  0  0  0  0
 22 23  4  0  0  0  0
 22 27  4  0  0  0  0
 23 24  4  0  0  0  0
 23 31  1  0  0  0  0
 24 25  4  0  0  0  0
 24 32  1  0  0  0  0
 25 26  4  0  0  0  0
 25 28  1  0  0  0  0
 26 27  4  0  0  0  0
 26 33  1  0  0  0  0
 27 34  1  0  0  0  0
 28 35  1  0  0  0  0
 28 36  1  0  0  0  0
M  END
> <BCLConfClusterSize>
1

> <ConfClashScore>
0 

> <ConfOneFourInteractionScore>
-0.966613 

> <ConfScore>
0.02841 

> <ConfScorePBest>
0.00410286 

> <ConfTolerance>
0.511792 

> <RosettaParamsInstructions>
M  ROOT 3
M  POLY_N_BB 3
M  POLY_CA_BB 4
M  POLY_C_BB 2
M  POLY_O_BB 5
M  POLY_IGNORE 9 10 11 12 13 14 15 16 17 18 
M  POLY_UPPER 6
M  POLY_LOWER 8
M  POLY_CHG 0
M  POLY_PROPERTIES ALPHA_AA L_AA PROTEIN AROMATIC POLYMER 
M  END

$$$$



 36 36  0  0  0  0  0  0  0  0999 V2000
    0.6168    3.3407    1.3205 H   0  0  0  1  0  0  0  0  0  0  0  0
    0.5895    1.2498    1.0489 C   0  0  0  1  0  0  0  0  0  0  0  0
    0.0055    2.9934   -0.6213 N   0  0  0  1  0  0  0  0  0  0  0  0
    0.0195    2.6304    0.7879 C   0  0  0  1  0  0  0  0  0  0  0  0
    0.7905    0.8522    2.1846 O   0  0  0  1  0  0  0  0  0  0  0  0
    0.8515    0.5114   -0.0412 N   0  0  0  1  0  0  0  0  0  0  0  0
   -0.3440    2.3494   -1.2721 H   0  0  0  1  0  0  0  0  0  0  0  0
    0.4563    4.1840   -1.0623 C   0  0  0  1  0  0  0  0  0  0  0  0
    1.4263   -0.8254   -0.0235 C   0  0  0  1  0  0  0  0  0  0  0  0
    0.4220    4.3276   -2.5715 C   0  0  0  1  0  0  0  0  0  0  0  0
    0.8641    5.0906   -0.3374 O   0  0  0  1  0  0  0  0  0  0  0  0
    0.6398    0.9021   -0.9146 H   0  0  0  1  0  0  0  0  0  0  0  0
    2.0780   -0.9229    0.8195 H   0  0  0  1  0  0  0  0  0  0  0  0
    1.9817   -0.9865   -0.9238 H   0  0  0  1  0  0  0  0  0  0  0  0
    0.6419   -1.5498    0.0467 H   0  0  0  1  0  0  0  0  0  0  0  0
   -0.4989    4.7859   -2.8658 H   0  0  0  1  0  0  0  0  0  0  0  0
    0.4995    3.3608   -3.0233 H   0  0  0  1  0  0  0  0  0  0  0  0
    1.2415    4.9374   -2.8901 H   0  0  0  1  0  0  0  0  0  0  0  0
   -4.0990    7.8206    0.4085 B   0  0  0  1  0  0  0  0  0  0  0  0
   -4.1725    8.3397   -0.8444 O   0  0  0  1  0  0  0  0  0  0  0  0
   -4.5304    8.5821    1.4552 O   0  0  0  1  0  0  0  0  0  0  0  0
   -3.4360    6.4168    0.7156 C   0  0  0  1  0  0  0  0  0  0  0  0
   -2.5377    6.2858    1.7578 C   0  0  0  1  0  0  0  0  0  0  0  0
   -1.8607    5.0905    1.9434 C   0  0  0  1  0  0  0  0  0  0  0  0
   -2.0801    4.0314    1.0829 C   0  0  0  1  0  0  0  0  0  0  0  0
   -2.9810    4.1626    0.0376 C   0  0  0  1  0  0  0  0  0  0  0  0
   -3.6559    5.3544   -0.1473 C   0  0  0  1  0  0  0  0  0  0  0  0
   -1.4046    2.7023    1.3483 C   0  0  0  1  0  0  0  0  0  0  0  0
   -3.4578    7.9872   -1.3798 H   0  0  0  1  0  0  0  0  0  0  0  0
   -4.1989    9.4778    1.3579 H   0  0  0  1  0  0  0  0  0  0  0  0
   -2.3697    7.0841    2.4028 H   0  0  0  1  0  0  0  0  0  0  0  0
   -1.1877    4.9906    2.7300 H   0  0  0  1  0  0  0  0  0  0  0  0
   -3.1491    3.3643   -0.6074 H   0  0  0  1  0  0  0  0  0  0  0  0
   -4.3288    5.4542   -0.9339 H   0  0  0  1  0  0  0  0  0  0  0  0
   -1.3626    2.5468    2.4061 H   0  0  0  1  0  0  0  0  0  0  0  0
   -1.9879    1.9275    0.8963 H   0  0  0  1  0  0  0  0  0  0  0  0
  1  4  1  0  0  0  0
  2  4  1  0  0  0  0
  2  5  2  0  0  0  0
  2  6  1  0  0  0  0
  3  4  1  0  0  0  0
  3  7  1  0  0  0  0
  3  8  1  0  0  0  0
  4 28  1  0  0  0  0
  6  9  1  0  0  0  0
  6 12  1  0  0  0  0
  8 10  1  0  0  0  0
  8 11  2  0  0  0  0
  9 13  1  0  0  0  0
  9 14  1  0  0  0  0
  9 15  1  0  0  0  0
 10 16  1  0  0  0  0
 10 17  1  0  0  0  0
 10 18  1  0  0  0  0
 19 20  1  0  0  0  0
 19 21  1  0  0  0  0
 19 22  1  0  0  0  0
 20 29  1  0  0  0  0
 21 30  1  0  0  0  0
 22 23  4  0  0  0  0
 22 27  4  0  0  0  0
 23 24  4  0  0  0  0
 23 31  1  0  0  0  0
 24 25  4  0  0  0  0
 24 32  1  0  0  0  0
 25 26  4  0  0  0  0
 25 28  1  0  0  0  0
 26 27  4  0  0  0  0
 26 33  1  0  0  0  0
 27 34  1  0  0  0  0
 28 35  1  0  0  0  0
 28 36  1  0  0  0  0
M  END
> <BCLConfClusterSize>
1

> <ConfClashScore>
0 

> <ConfOneFourInteractionScore>
-0.958269 

> <ConfScore>
0.0302411 

> <ConfScorePBest>
0.00407438 

> <ConfTolerance>
0.405825 

> <RosettaParamsInstructions>
M  ROOT 3
M  POLY_N_BB 3
M  POLY_CA_BB 4
M  POLY_C_BB 2
M  POLY_O_BB 5
M  POLY_IGNORE 9 10 11 12 13 14 15 16 17 18 
M  POLY_UPPER 6
M  POLY_LOWER 8
M  POLY_CHG 0
M  POLY_PROPERTIES ALPHA_AA L_AA PROTEIN AROMATIC POLYMER 
M  END

$$$$



 36 36  0  0  0  0  0  0  0  0999 V2000
   -3.1415    1.4993    1.3795 H   0  0  0  1  0  0  0  0  0  0  0  0
   -1.6315    0.3595    2.2955 C   0  0  0  1  0  0  0  0  0  0  0  0
   -2.9025    2.2220    3.2835 N   0  0  0  1  0  0  0  0  0  0  0  0
   -2.3330    1.6939    2.0528 C   0  0  0  1  0  0  0  0  0  0  0  0
   -0.6763    0.0186    1.6164 O   0  0  0  1  0  0  0  0  0  0  0  0
   -2.1899   -0.4109    3.2304 N   0  0  0  1  0  0  0  0  0  0  0  0
   -2.2843    2.4385    4.0124 H   0  0  0  1  0  0  0  0  0  0  0  0
   -4.2026    2.4335    3.4941 C   0  0  0  1  0  0  0  0  0  0  0  0
   -1.6477   -1.7163    3.5902 C   0  0  0  1  0  0  0  0  0  0  0  0
   -4.5721    2.9678    4.8743 C   0  0  0  1  0  0  0  0  0  0  0  0
   -5.0630    2.2174    2.6420 O   0  0  0  1  0  0  0  0  0  0  0  0
   -2.9923   -0.0886    3.6915 H   0  0  0  1  0  0  0  0  0  0  0  0
   -1.5658   -2.3232    2.7127 H   0  0  0  1  0  0  0  0  0  0  0  0
   -2.2998   -2.1918    4.2927 H   0  0  0  1  0  0  0  0  0  0  0  0
   -0.6798   -1.5916    4.0290 H   0  0  0  1  0  0  0  0  0  0  0  0
   -5.5299    2.5861    5.1604 H   0  0  0  1  0  0  0  0  0  0  0  0
   -4.6086    4.0367    4.8447 H   0  0  0  1  0  0  0  0  0  0  0  0
   -3.8368    2.6551    5.5861 H   0  0  0  1  0  0  0  0  0  0  0  0
   -4.1215    7.8237    0.4319 B   0  0  0  1  0  0  0  0  0  0  0  0
   -3.5308    8.9130    0.9702 O   0  0  0  1  0  0  0  0  0  0  0  0
   -5.2109    7.9530   -0.3779 O   0  0  0  1  0  0  0  0  0  0  0  0
   -3.4284    6.4187    0.7077 C   0  0  0  1  0  0  0  0  0  0  0  0
   -2.5328    6.2875    1.7522 C   0  0  0  1  0  0  0  0  0  0  0  0
   -1.8604    5.0903    1.9427 C   0  0  0  1  0  0  0  0  0  0  0  0
   -2.0818    4.0295    1.0847 C   0  0  0  1  0  0  0  0  0  0  0  0
   -2.9800    4.1609    0.0371 C   0  0  0  1  0  0  0  0  0  0  0  0
   -3.6502    5.3546   -0.1526 C   0  0  0  1  0  0  0  0  0  0  0  0
   -1.4116    2.6988    1.3554 C   0  0  0  1  0  0  0  0  0  0  0  0
   -2.8543    9.2391    0.3721 H   0  0  0  1  0  0  0  0  0  0  0  0
   -6.0091    7.9467    0.1554 H   0  0  0  1  0  0  0  0  0  0  0  0
   -2.3633    7.0871    2.3953 H   0  0  0  1  0  0  0  0  0  0  0  0
   -1.1896    4.9903    2.7310 H   0  0  0  1  0  0  0  0  0  0  0  0
   -3.1495    3.3614   -0.6060 H   0  0  0  1  0  0  0  0  0  0  0  0
   -4.3211    5.4546   -0.9410 H   0  0  0  1  0  0  0  0  0  0  0  0
   -1.0956    2.2807    0.4225 H   0  0  0  1  0  0  0  0  0  0  0  0
   -0.5582    2.8678    1.9784 H   0  0  0  1  0  0  0  0  0  0  0  0
  1  4  1  0  0  0  0
  2  4  1  0  0  0  0
  2  5  2  0  0  0  0
  2  6  1  0  0  0  0
  3  4  1  0  0  0  0
  3  7  1  0  0  0  0
  3  8  1  0  0  0  0
  4 28  1  0  0  0  0
  6  9  1  0  0  0  0
  6 12  1  0  0  0  0
  8 10  1  0  0  0  0
  8 11  2  0  0  0  0
  9 13  1  0  0  0  0
  9 14  1  0  0  0  0
  9 15  1  0  0  0  0
 10 16  1  0  0  0  0
 10 17  1  0  0  0  0
 10 18  1  0  0  0  0
 19 20  1  0  0  0  0
 19 21  1  0  0  0  0
 19 22  1  0  0  0  0
 20 29  1  0  0  0  0
 21 30  1  0  0  0  0
 22 23  4  0  0  0  0
 22 27  4  0  0  0  0
 23 24  4  0  0  0  0
 23 31  1  0  0  0  0
 24 25  4  0  0  0  0
 24 32  1  0  0  0  0
 25 26  4  0  0  0  0
 25 28  1  0  0  0  0
 26 27  4  0  0  0  0
 26 33  1  0  0  0  0
 27 34  1  0  0  0  0
 28 35  1  0  0  0  0
 28 36  1  0  0  0  0
M  END
> <BCLConfClusterSize>
1

> <ConfClashScore>
0 

> <ConfOneFourInteractionScore>
-0.954843 

> <ConfScore>
0.0364915 

> <ConfScorePBest>
0.00404589 

> <ConfTolerance>
0.328775 

> <RosettaParamsInstructions>
M  ROOT 3
M  POLY_N_BB 3
M  POLY_CA_BB 4
M  POLY_C_BB 2
M  POLY_O_BB 5
M  POLY_IGNORE 9 10 11 12 13 14 15 16 17 18 
M  POLY_UPPER 6
M  POLY_LOWER 8
M  POLY_CHG 0
M  POLY_PROPERTIES ALPHA_AA L_AA PROTEIN AROMATIC POLYMER 
M  END

$$$$



 36 36  0  0  0  0  0  0  0  0999 V2000
    0.5944    3.3783    1.0598 H   0  0  0  1  0  0  0  0  0  0  0  0
    0.5508    1.2449    1.1202 C   0  0  0  1  0  0  0  0  0  0  0  0
   -0.1572    2.6674   -0.7503 N   0  0  0  1  0  0  0  0  0  0  0  0
   -0.0321    2.5902    0.6975 C   0  0  0  1  0  0  0  0  0  0  0  0
    0.1835    0.2043    0.6001 O   0  0  0  1  0  0  0  0  0  0  0  0
    1.4800    1.2902    2.0881 N   0  0  0  1  0  0  0  0  0  0  0  0
   -0.0700    1.8456   -1.2770 H   0  0  0  1  0  0  0  0  0  0  0  0
   -0.3869    3.8197   -1.3864 C   0  0  0  1  0  0  0  0  0  0  0  0
    2.0113    0.0878    2.7124 C   0  0  0  1  0  0  0  0  0  0  0  0
   -0.4298    3.7394   -2.8999 C   0  0  0  1  0  0  0  0  0  0  0  0
   -0.5538    4.8788   -0.8033 O   0  0  0  1  0  0  0  0  0  0  0  0
    1.8120    2.1633    2.3845 H   0  0  0  1  0  0  0  0  0  0  0  0
    2.1463    0.2591    3.7600 H   0  0  0  1  0  0  0  0  0  0  0  0
    2.9526   -0.1587    2.2674 H   0  0  0  1  0  0  0  0  0  0  0  0
    1.3257   -0.7211    2.5689 H   0  0  0  1  0  0  0  0  0  0  0  0
   -0.0780    4.6600   -3.3165 H   0  0  0  1  0  0  0  0  0  0  0  0
   -1.4361    3.5651   -3.2192 H   0  0  0  1  0  0  0  0  0  0  0  0
    0.1945    2.9363   -3.2321 H   0  0  0  1  0  0  0  0  0  0  0  0
   -4.0990    7.8208    0.4085 B   0  0  0  1  0  0  0  0  0  0  0  0
   -3.2993    8.7952   -0.0985 O   0  0  0  1  0  0  0  0  0  0  0  0
   -5.4225    7.9653    0.6696 O   0  0  0  1  0  0  0  0  0  0  0  0
   -3.4360    6.4168    0.7156 C   0  0  0  1  0  0  0  0  0  0  0  0
   -2.5377    6.2858    1.7578 C   0  0  0  1  0  0  0  0  0  0  0  0
   -1.8607    5.0905    1.9434 C   0  0  0  1  0  0  0  0  0  0  0  0
   -2.0801    4.0314    1.0829 C   0  0  0  1  0  0  0  0  0  0  0  0
   -2.9810    4.1626    0.0376 C   0  0  0  1  0  0  0  0  0  0  0  0
   -3.6559    5.3544   -0.1473 C   0  0  0  1  0  0  0  0  0  0  0  0
   -1.4046    2.7023    1.3483 C   0  0  0  1  0  0  0  0  0  0  0  0
   -3.1719    8.6484   -1.0387 H   0  0  0  1  0  0  0  0  0  0  0  0
   -5.6534    7.4530    1.4480 H   0  0  0  1  0  0  0  0  0  0  0  0
   -2.3696    7.0841    2.4028 H   0  0  0  1  0  0  0  0  0  0  0  0
   -1.1877    4.9906    2.7300 H   0  0  0  1  0  0  0  0  0  0  0  0
   -3.1490    3.3642   -0.6074 H   0  0  0  1  0  0  0  0  0  0  0  0
   -4.3288    5.4542   -0.9339 H   0  0  0  1  0  0  0  0  0  0  0  0
   -1.2909    2.5831    2.4056 H   0  0  0  1  0  0  0  0  0  0  0  0
   -2.0277    1.9211    0.9657 H   0  0  0  1  0  0  0  0  0  0  0  0
  1  4  1  0  0  0  0
  2  4  1  0  0  0  0
  2  5  2  0  0  0  0
  2  6  1  0  0  0  0
  3  4  1  0  0  0  0
  3  7  1  0  0  0  0
  3  8  1  0  0  0  0
  4 28  1  0  0  0  0
  6  9  1  0  0  0  0
  6 12  1  0  0  0  0
  8 10  1  0  0  0  0
  8 11  2  0  0  0  0
  9 13  1  0  0  0  0
  9 14  1  0  0  0  0
  9 15  1  0  0  0  0
 10 16  1  0  0  0  0
 10 17  1  0  0  0  0
 10 18  1  0  0  0  0
 19 20  1  0  0  0  0
 19 21  1  0  0  0  0
 19 22  1  0  0  0  0
 20 29  1  0  0  0  0
 21 30  1  0  0  0  0
 22 23  4  0  0  0  0
 22 27  4  0  0  0  0
 23 24  4  0  0  0  0
 23 31  1  0  0  0  0
 24 25  4  0  0  0  0
 24 32  1  0  0  0  0
 25 26  4  0  0  0  0
 25 28  1  0  0  0  0
 26 27  4  0  0  0  0
 26 33  1  0  0  0  0
 27 34  1  0  0  0  0
 28 35  1  0  0  0  0
 28 36  1  0  0  0  0
M  END
> <BCLConfClusterSize>
1

> <ConfClashScore>
0 

> <ConfOneFourInteractionScore>
-0.989465 

> <ConfScore>
0.043271 

> <ConfScorePBest>
0.00401741 

> <ConfTolerance>
0.658964 

> <RosettaParamsInstructions>
M  ROOT 3
M  POLY_N_BB 3
M  POLY_CA_BB 4
M  POLY_C_BB 2
M  POLY_O_BB 5
M  POLY_IGNORE 9 10 11 12 13 14 15 16 17 18 
M  POLY_UPPER 6
M  POLY_LOWER 8
M  POLY_CHG 0
M  POLY_PROPERTIES ALPHA_AA L_AA PROTEIN AROMATIC POLYMER 
M  END

$$$$



 36 36  0  0  0  0  0  0  0  0999 V2000
    0.4776    3.5677    1.1087 H   0  0  0  1  0  0  0  0  0  0  0  0
    0.8702    1.5422    1.4812 C   0  0  0  1  0  0  0  0  0  0  0  0
    0.1010    2.5214   -0.6166 N   0  0  0  1  0  0  0  0  0  0  0  0
    0.0207    2.6376    0.8421 C   0  0  0  1  0  0  0  0  0  0  0  0
    0.7882    1.3017    2.6850 O   0  0  0  1  0  0  0  0  0  0  0  0
    1.7074    0.8511    0.6915 N   0  0  0  1  0  0  0  0  0  0  0  0
   -0.2529    1.7152   -1.0470 H   0  0  0  1  0  0  0  0  0  0  0  0
    0.6400    3.4762   -1.3800 C   0  0  0  1  0  0  0  0  0  0  0  0
    2.5303   -0.2382    1.1955 C   0  0  0  1  0  0  0  0  0  0  0  0
    0.6490    3.2007   -2.8710 C   0  0  0  1  0  0  0  0  0  0  0  0
    1.1042    4.5188   -0.9206 O   0  0  0  1  0  0  0  0  0  0  0  0
    1.7664    1.0885   -0.2575 H   0  0  0  1  0  0  0  0  0  0  0  0
    3.1703    0.1271    1.9713 H   0  0  0  1  0  0  0  0  0  0  0  0
    3.1254   -0.6334    0.3990 H   0  0  0  1  0  0  0  0  0  0  0  0
    1.9001   -1.0093    1.5870 H   0  0  0  1  0  0  0  0  0  0  0  0
    1.6589    3.0986   -3.2093 H   0  0  0  1  0  0  0  0  0  0  0  0
    0.1808    4.0132   -3.3865 H   0  0  0  1  0  0  0  0  0  0  0  0
    0.1135    2.2958   -3.0695 H   0  0  0  1  0  0  0  0  0  0  0  0
   -4.1182    7.8171    0.4332 B   0  0  0  1  0  0  0  0  0  0  0  0
   -3.9448    8.5265   -0.7119 O   0  0  0  1  0  0  0  0  0  0  0  0
   -4.9346    8.3604    1.3805 O   0  0  0  1  0  0  0  0  0  0  0  0
   -3.4287    6.4193    0.7075 C   0  0  0  1  0  0  0  0  0  0  0  0
   -2.5331    6.2881    1.7520 C   0  0  0  1  0  0  0  0  0  0  0  0
   -1.8608    5.0909    1.9426 C   0  0  0  1  0  0  0  0  0  0  0  0
   -2.0821    4.0301    1.0846 C   0  0  0  1  0  0  0  0  0  0  0  0
   -2.9803    4.1615    0.0370 C   0  0  0  1  0  0  0  0  0  0  0  0
   -3.6505    5.3552   -0.1528 C   0  0  0  1  0  0  0  0  0  0  0  0
   -1.4119    2.6994    1.3553 C   0  0  0  1  0  0  0  0  0  0  0  0
   -3.6565    9.4166   -0.4970 H   0  0  0  1  0  0  0  0  0  0  0  0
   -5.8314    8.0437    1.2505 H   0  0  0  1  0  0  0  0  0  0  0  0
   -2.3636    7.0877    2.3951 H   0  0  0  1  0  0  0  0  0  0  0  0
   -1.1899    4.9909    2.7309 H   0  0  0  1  0  0  0  0  0  0  0  0
   -3.1498    3.3620   -0.6061 H   0  0  0  1  0  0  0  0  0  0  0  0
   -4.3214    5.4552   -0.9411 H   0  0  0  1  0  0  0  0  0  0  0  0
   -1.4027    2.5314    2.4120 H   0  0  0  1  0  0  0  0  0  0  0  0
   -1.9789    1.9288    0.8761 H   0  0  0  1  0  0  0  0  0  0  0  0
  1  4  1  0  0  0  0
  2  4  1  0  0  0  0
  2  5  2  0  0  0  0
  2  6  1  0  0  0  0
  3  4  1  0  0  0  0
  3  7  1  0  0  0  0
  3  8  1  0  0  0  0
  4 28  1  0  0  0  0
  6  9  1  0  0  0  0
  6 12  1  0  0  0  0
  8 10  1  0  0  0  0
  8 11  2  0  0  0  0
  9 13  1  0  0  0  0
  9 14  1  0  0  0  0
  9 15  1  0  0  0  0
 10 16  1  0  0  0  0
 10 17  1  0  0  0  0
 10 18  1  0  0  0  0
 19 20  1  0  0  0  0
 19 21  1  0  0  0  0
 19 22  1  0  0  0  0
 20 29  1  0  0  0  0
 21 30  1  0  0  0  0
 22 23  4  0  0  0  0
 22 27  4  0  0  0  0
 23 24  4  0  0  0  0
 23 31  1  0  0  0  0
 24 25  4  0  0  0  0
 24 32  1  0  0  0  0
 25 26  4  0  0  0  0
 25 28  1  0  0  0  0
 26 27  4  0  0  0  0
 26 33  1  0  0  0  0
 27 34  1  0  0  0  0
 28 35  1  0  0  0  0
 28 36  1  0  0  0  0
M  END
> <BCLConfClusterSize>
1

> <ConfClashScore>
0 

> <ConfOneFourInteractionScore>
-0.969829 

> <ConfScore>
0.0444149 

> <ConfScorePBest>
0.00398893 

> <ConfTolerance>
0.458819 

> <RosettaParamsInstructions>
M  ROOT 3
M  POLY_N_BB 3
M  POLY_CA_BB 4
M  POLY_C_BB 2
M  POLY_O_BB 5
M  POLY_IGNORE 9 10 11 12 13 14 15 16 17 18 
M  POLY_UPPER 6
M  POLY_LOWER 8
M  POLY_CHG 0
M  POLY_PROPERTIES ALPHA_AA L_AA PROTEIN AROMATIC POLYMER 
M  END

$$$$



 36 36  0  0  0  0  0  0  0  0999 V2000
   -0.4313    2.6887   -0.5301 H   0  0  0  1  0  0  0  0  0  0  0  0
    0.9856    3.3696    0.8887 C   0  0  0  1  0  0  0  0  0  0  0  0
    0.1996    1.0596    0.5759 N   0  0  0  1  0  0  0  0  0  0  0  0
   -0.1727    2.4634    0.4835 C   0  0  0  1  0  0  0  0  0  0  0  0
    1.7797    3.0314    1.7651 O   0  0  0  1  0  0  0  0  0  0  0  0
    1.1343    4.4976    0.1799 N   0  0  0  1  0  0  0  0  0  0  0  0
   -0.2231    0.5024    1.2623 H   0  0  0  1  0  0  0  0  0  0  0  0
    1.0976    0.5040   -0.2426 C   0  0  0  1  0  0  0  0  0  0  0  0
    2.2604    5.3977    0.3783 C   0  0  0  1  0  0  0  0  0  0  0  0
    1.3097   -0.9877   -0.0727 C   0  0  0  1  0  0  0  0  0  0  0  0
    1.7172    1.1406   -1.0797 O   0  0  0  1  0  0  0  0  0  0  0  0
    0.4611    4.7240   -0.4955 H   0  0  0  1  0  0  0  0  0  0  0  0
    2.7430    5.1672    1.3050 H   0  0  0  1  0  0  0  0  0  0  0  0
    1.9094    6.4082    0.4010 H   0  0  0  1  0  0  0  0  0  0  0  0
    2.9570    5.2796   -0.4253 H   0  0  0  1  0  0  0  0  0  0  0  0
    0.3708   -1.4939   -0.1578 H   0  0  0  1  0  0  0  0  0  0  0  0
    1.7322   -1.1801    0.8913 H   0  0  0  1  0  0  0  0  0  0  0  0
    1.9756   -1.3418   -0.8317 H   0  0  0  1  0  0  0  0  0  0  0  0
   -4.1435    7.8100    0.3943 B   0  0  0  1  0  0  0  0  0  0  0  0
   -5.4485    7.9372    0.7486 O   0  0  0  1  0  0  0  0  0  0  0  0
   -3.4079    8.7789   -0.2135 O   0  0  0  1  0  0  0  0  0  0  0  0
   -3.4240    6.4220    0.7158 C   0  0  0  1  0  0  0  0  0  0  0  0
   -2.5276    6.2863    1.7590 C   0  0  0  1  0  0  0  0  0  0  0  0
   -1.8572    5.0874    1.9455 C   0  0  0  1  0  0  0  0  0  0  0  0
   -2.0814    4.0294    1.0849 C   0  0  0  1  0  0  0  0  0  0  0  0
   -2.9804    4.1653    0.0386 C   0  0  0  1  0  0  0  0  0  0  0  0
   -3.6487    5.3607   -0.1472 C   0  0  0  1  0  0  0  0  0  0  0  0
   -1.4133    2.6967    1.3512 C   0  0  0  1  0  0  0  0  0  0  0  0
   -5.8879    8.5385    0.1428 H   0  0  0  1  0  0  0  0  0  0  0  0
   -2.4780    8.5427   -0.1817 H   0  0  0  1  0  0  0  0  0  0  0  0
   -2.3560    7.0838    2.4041 H   0  0  0  1  0  0  0  0  0  0  0  0
   -1.1857    4.9841    2.7329 H   0  0  0  1  0  0  0  0  0  0  0  0
   -3.1520    3.3678   -0.6065 H   0  0  0  1  0  0  0  0  0  0  0  0
   -4.3202    5.4640   -0.9346 H   0  0  0  1  0  0  0  0  0  0  0  0
   -1.1209    2.6619    2.3799 H   0  0  0  1  0  0  0  0  0  0  0  0
   -2.1186    1.9167    1.1538 H   0  0  0  1  0  0  0  0  0  0  0  0
  1  4  1  0  0  0  0
  2  4  1  0  0  0  0
  2  5  2  0  0  0  0
  2  6  1  0  0  0  0
  3  4  1  0  0  0  0
  3  7  1  0  0  0  0
  3  8  1  0  0  0  0
  4 28  1  0  0  0  0
  6  9  1  0  0  0  0
  6 12  1  0  0  0  0
  8 10  1  0  0  0  0
  8 11  2  0  0  0  0
  9 13  1  0  0  0  0
  9 14  1  0  0  0  0
  9 15  1  0  0  0  0
 10 16  1  0  0  0  0
 10 17  1  0  0  0  0
 10 18  1  0  0  0  0
 19 20  1  0  0  0  0
 19 21  1  0  0  0  0
 19 22  1  0  0  0  0
 20 29  1  0  0  0  0
 21 30  1  0  0  0  0
 22 23  4  0  0  0  0
 22 27  4  0  0  0  0
 23 24  4  0  0  0  0
 23 31  1  0  0  0  0
 24 25  4  0  0  0  0
 24 32  1  0  0  0  0
 25 26  4  0  0  0  0
 25 28  1  0  0  0  0
 26 27  4  0  0  0  0
 26 33  1  0  0  0  0
 27 34  1  0  0  0  0
 28 35  1  0  0  0  0
 28 36  1  0  0  0  0
M  END
> <BCLConfClusterSize>
1

> <ConfClashScore>
0 

> <ConfOneFourInteractionScore>
-0.982988 

> <ConfScore>
0.0494266 

> <ConfScorePBest>
0.00396045 

> <ConfTolerance>
0.507267 

> <RosettaParamsInstructions>
M  ROOT 3
M  POLY_N_BB 3
M  POLY_CA_BB 4
M  POLY_C_BB 2
M  POLY_O_BB 5
M  POLY_IGNORE 9 10 11 12 13 14 15 16 17 18 
M  POLY_UPPER 6
M  POLY_LOWER 8
M  POLY_CHG 0
M  POLY_PROPERTIES ALPHA_AA L_AA PROTEIN AROMATIC POLYMER 
M  END

$$$$



 36 36  0  0  0  0  0  0  0  0999 V2000
    0.3337    3.0013    0.2379 H   0  0  0  1  0  0  0  0  0  0  0  0
    0.3504    1.0021    0.8719 C   0  0  0  1  0  0  0  0  0  0  0  0
   -1.0180    1.9851   -0.9350 N   0  0  0  1  0  0  0  0  0  0  0  0
   -0.3857    2.2182    0.3567 C   0  0  0  1  0  0  0  0  0  0  0  0
   -0.1143   -0.1272    0.7219 O   0  0  0  1  0  0  0  0  0  0  0  0
    1.5179    1.1911    1.4934 N   0  0  0  1  0  0  0  0  0  0  0  0
   -1.9583    2.2349   -1.0533 H   0  0  0  1  0  0  0  0  0  0  0  0
   -0.3542    1.4373   -1.9741 C   0  0  0  1  0  0  0  0  0  0  0  0
    2.3070    0.0866    2.0181 C   0  0  0  1  0  0  0  0  0  0  0  0
   -1.1049    1.2436   -3.2772 C   0  0  0  1  0  0  0  0  0  0  0  0
    0.8234    1.1045   -1.8700 O   0  0  0  1  0  0  0  0  0  0  0  0
    1.8545    2.1053    1.5997 H   0  0  0  1  0  0  0  0  0  0  0  0
    2.0436   -0.0864    3.0406 H   0  0  0  1  0  0  0  0  0  0  0  0
    3.3470    0.3298    1.9542 H   0  0  0  1  0  0  0  0  0  0  0  0
    2.1105   -0.7955    1.4452 H   0  0  0  1  0  0  0  0  0  0  0  0
   -2.1522    1.1560   -3.0765 H   0  0  0  1  0  0  0  0  0  0  0  0
   -0.7586    0.3532   -3.7591 H   0  0  0  1  0  0  0  0  0  0  0  0
   -0.9335    2.0850   -3.9157 H   0  0  0  1  0  0  0  0  0  0  0  0
   -4.1182    7.8171    0.4332 B   0  0  0  1  0  0  0  0  0  0  0  0
   -5.3939    7.8816   -0.0848 O   0  0  0  1  0  0  0  0  0  0  0  0
   -3.5848    9.0109    0.7829 O   0  0  0  1  0  0  0  0  0  0  0  0
   -3.4287    6.4193    0.7075 C   0  0  0  1  0  0  0  0  0  0  0  0
   -2.5331    6.2881    1.7520 C   0  0  0  1  0  0  0  0  0  0  0  0
   -1.8608    5.0909    1.9426 C   0  0  0  1  0  0  0  0  0  0  0  0
   -2.0821    4.0301    1.0846 C   0  0  0  1  0  0  0  0  0  0  0  0
   -2.9803    4.1615    0.0370 C   0  0  0  1  0  0  0  0  0  0  0  0
   -3.6505    5.3552   -0.1528 C   0  0  0  1  0  0  0  0  0  0  0  0
   -1.4119    2.6994    1.3553 C   0  0  0  1  0  0  0  0  0  0  0  0
   -5.9955    7.3954    0.4838 H   0  0  0  1  0  0  0  0  0  0  0  0
   -3.7559    9.1783    1.7126 H   0  0  0  1  0  0  0  0  0  0  0  0
   -2.3636    7.0877    2.3951 H   0  0  0  1  0  0  0  0  0  0  0  0
   -1.1899    4.9909    2.7309 H   0  0  0  1  0  0  0  0  0  0  0  0
   -3.1498    3.3620   -0.6061 H   0  0  0  1  0  0  0  0  0  0  0  0
   -4.3214    5.4552   -0.9411 H   0  0  0  1  0  0  0  0  0  0  0  0
   -0.9244    2.7738    2.3049 H   0  0  0  1  0  0  0  0  0  0  0  0
   -2.1816    1.9578    1.4060 H   0  0  0  1  0  0  0  0  0  0  0  0
  1  4  1  0  0  0  0
  2  4  1  0  0  0  0
  2  5  2  0  0  0  0
  2  6  1  0  0  0  0
  3  4  1  0  0  0  0
  3  7  1  0  0  0  0
  3  8  1  0  0  0  0
  4 28  1  0  0  0  0
  6  9  1  0  0  0  0
  6 12  1  0  0  0  0
  8 10  1  0  0  0  0
  8 11  2  0  0  0  0
  9 13  1  0  0  0  0
  9 14  1  0  0  0  0
  9 15  1  0  0  0  0
 10 16  1  0  0  0  0
 10 17  1  0  0  0  0
 10 18  1  0  0  0  0
 19 20  1  0  0  0  0
 19 21  1  0  0  0  0
 19 22  1  0  0  0  0
 20 29  1  0  0  0  0
 21 30  1  0  0  0  0
 22 23  4  0  0  0  0
 22 27  4  0  0  0  0
 23 24  4  0  0  0  0
 23 31  1  0  0  0  0
 24 25  4  0  0  0  0
 24 32  1  0  0  0  0
 25 26  4  0  0  0  0
 25 28  1  0  0  0  0
 26 27  4  0  0  0  0
 26 33  1  0  0  0  0
 27 34  1  0  0  0  0
 28 35  1  0  0  0  0
 28 36  1  0  0  0  0
M  END
> <BCLConfClusterSize>
1

> <ConfClashScore>
0 

> <ConfOneFourInteractionScore>
-0.985947 

> <ConfScore>
0.049632 

> <ConfScorePBest>
0.00393197 

> <ConfTolerance>
0.535504 

> <RosettaParamsInstructions>
M  ROOT 3
M  POLY_N_BB 3
M  POLY_CA_BB 4
M  POLY_C_BB 2
M  POLY_O_BB 5
M  POLY_IGNORE 9 10 11 12 13 14 15 16 17 18 
M  POLY_UPPER 6
M  POLY_LOWER 8
M  POLY_CHG 0
M  POLY_PROPERTIES ALPHA_AA L_AA PROTEIN AROMATIC POLYMER 
M  END

$$$$



 36 36  0  0  0  0  0  0  0  0999 V2000
    0.4952    3.2038    0.6425 H   0  0  0  1  0  0  0  0  0  0  0  0
    0.5123    1.1164    0.8630 C   0  0  0  1  0  0  0  0  0  0  0  0
   -0.6120    2.4253   -0.9141 N   0  0  0  1  0  0  0  0  0  0  0  0
   -0.2005    2.4045    0.4939 C   0  0  0  1  0  0  0  0  0  0  0  0
   -0.1020    0.1894    1.3891 O   0  0  0  1  0  0  0  0  0  0  0  0
    1.8001    1.0611    0.4904 N   0  0  0  1  0  0  0  0  0  0  0  0
   -1.5471    2.2181   -1.1219 H   0  0  0  1  0  0  0  0  0  0  0  0
    0.2148    2.7114   -1.9412 C   0  0  0  1  0  0  0  0  0  0  0  0
    2.5168   -0.2050    0.5240 C   0  0  0  1  0  0  0  0  0  0  0  0
   -0.3561    2.6878   -3.3410 C   0  0  0  1  0  0  0  0  0  0  0  0
    1.3893    2.9816   -1.7486 O   0  0  0  1  0  0  0  0  0  0  0  0
    2.2591    1.8751    0.1950 H   0  0  0  1  0  0  0  0  0  0  0  0
    2.3564   -0.6812    1.4687 H   0  0  0  1  0  0  0  0  0  0  0  0
    3.5629   -0.0261    0.3880 H   0  0  0  1  0  0  0  0  0  0  0  0
    2.1579   -0.8386   -0.2600 H   0  0  0  1  0  0  0  0  0  0  0  0
   -0.9562    1.8110   -3.4673 H   0  0  0  1  0  0  0  0  0  0  0  0
    0.4436    2.6779   -4.0519 H   0  0  0  1  0  0  0  0  0  0  0  0
   -0.9596    3.5579   -3.4945 H   0  0  0  1  0  0  0  0  0  0  0  0
   -4.1143    7.8094    0.4346 B   0  0  0  1  0  0  0  0  0  0  0  0
   -4.5098    8.1507   -0.8191 O   0  0  0  1  0  0  0  0  0  0  0  0
   -4.3261    8.6976    1.4424 O   0  0  0  1  0  0  0  0  0  0  0  0
   -3.4285    6.4192    0.7075 C   0  0  0  1  0  0  0  0  0  0  0  0
   -2.5330    6.2880    1.7520 C   0  0  0  1  0  0  0  0  0  0  0  0
   -1.8607    5.0908    1.9426 C   0  0  0  1  0  0  0  0  0  0  0  0
   -2.0821    4.0300    1.0847 C   0  0  0  1  0  0  0  0  0  0  0  0
   -2.9802    4.1614    0.0371 C   0  0  0  1  0  0  0  0  0  0  0  0
   -3.6504    5.3551   -0.1528 C   0  0  0  1  0  0  0  0  0  0  0  0
   -1.4165    2.7083    1.3536 C   0  0  0  1  0  0  0  0  0  0  0  0
   -4.0949    7.5649   -1.4566 H   0  0  0  1  0  0  0  0  0  0  0  0
   -3.5911    9.3137    1.4863 H   0  0  0  1  0  0  0  0  0  0  0  0
   -2.3635    7.0876    2.3951 H   0  0  0  1  0  0  0  0  0  0  0  0
   -1.1899    4.9908    2.7310 H   0  0  0  1  0  0  0  0  0  0  0  0
   -3.1498    3.3618   -0.6060 H   0  0  0  1  0  0  0  0  0  0  0  0
   -4.3213    5.4551   -0.9412 H   0  0  0  1  0  0  0  0  0  0  0  0
   -1.1079    2.6966    2.3780 H   0  0  0  1  0  0  0  0  0  0  0  0
   -2.1384    1.9358    1.1892 H   0  0  0  1  0  0  0  0  0  0  0  0
  1  4  1  0  0  0  0
  2  4  1  0  0  0  0
  2  5  2  0  0  0  0
  2  6  1  0  0  0  0
  3  4  1  0  0  0  0
  3  7  1  0  0  0  0
  3  8  1  0  0  0  0
  4 28  1  0  0  0  0
  6  9  1  0  0  0  0
  6 12  1  0  0  0  0
  8 10  1  0  0  0  0
  8 11  2  0  0  0  0
  9 13  1  0  0  0  0
  9 14  1  0  0  0  0
  9 15  1  0  0  0  0
 10 16  1  0  0  0  0
 10 17  1  0  0  0  0
 10 18  1  0  0  0  0
 19 20  1  0  0  0  0
 19 21  1  0  0  0  0
 19 22  1  0  0  0  0
 20 29  1  0  0  0  0
 21 30  1  0  0  0  0
 22 23  4  0  0  0  0
 22 27  4  0  0  0  0
 23 24  4  0  0  0  0
 23 31  1  0  0  0  0
 24 25  4  0  0  0  0
 24 32  1  0  0  0  0
 25 26  4  0  0  0  0
 25 28  1  0  0  0  0
 26 27  4  0  0  0  0
 26 33  1  0  0  0  0
 27 34  1  0  0  0  0
 28 35  1  0  0  0  0
 28 36  1  0  0  0  0
M  END
> <BCLConfClusterSize>
1

> <ConfClashScore>
0 

> <ConfOneFourInteractionScore>
-0.983771 

> <ConfScore>
0.0522278 

> <ConfScorePBest>
0.00390349 

> <ConfTolerance>
0.41077 

> <RosettaParamsInstructions>
M  ROOT 3
M  POLY_N_BB 3
M  POLY_CA_BB 4
M  POLY_C_BB 2
M  POLY_O_BB 5
M  POLY_IGNORE 9 10 11 12 13 14 15 16 17 18 
M  POLY_UPPER 6
M  POLY_LOWER 8
M  POLY_CHG 0
M  POLY_PROPERTIES ALPHA_AA L_AA PROTEIN AROMATIC POLYMER 
M  END

$$$$



 36 36  0  0  0  0  0  0  0  0999 V2000
   -1.5871    0.9245    2.4831 H   0  0  0  1  0  0  0  0  0  0  0  0
   -2.6770    2.4694    3.4544 C   0  0  0  1  0  0  0  0  0  0  0  0
   -3.3725    1.2166    1.4630 N   0  0  0  1  0  0  0  0  0  0  0  0
   -2.2265    1.7335    2.1974 C   0  0  0  1  0  0  0  0  0  0  0  0
   -1.8846    3.1402    4.1145 O   0  0  0  1  0  0  0  0  0  0  0  0
   -3.9460    2.2596    3.8081 N   0  0  0  1  0  0  0  0  0  0  0  0
   -4.2326    1.6797    1.5415 H   0  0  0  1  0  0  0  0  0  0  0  0
   -3.2923    0.1328    0.6858 C   0  0  0  1  0  0  0  0  0  0  0  0
   -4.4481    2.7799    5.0711 C   0  0  0  1  0  0  0  0  0  0  0  0
   -4.6107   -0.3668    0.1090 C   0  0  0  1  0  0  0  0  0  0  0  0
   -2.2326   -0.4375    0.4408 O   0  0  0  1  0  0  0  0  0  0  0  0
   -4.5414    1.7540    3.2163 H   0  0  0  1  0  0  0  0  0  0  0  0
   -3.8324    3.5941    5.3920 H   0  0  0  1  0  0  0  0  0  0  0  0
   -4.4278    2.0054    5.8090 H   0  0  0  1  0  0  0  0  0  0  0  0
   -5.4532    3.1229    4.9408 H   0  0  0  1  0  0  0  0  0  0  0  0
   -5.2549   -0.6757    0.9055 H   0  0  0  1  0  0  0  0  0  0  0  0
   -4.4239   -1.1965   -0.5404 H   0  0  0  1  0  0  0  0  0  0  0  0
   -5.0793    0.4207   -0.4434 H   0  0  0  1  0  0  0  0  0  0  0  0
   -4.1201    7.8145    0.4299 B   0  0  0  1  0  0  0  0  0  0  0  0
   -4.1869    8.7897    1.3536 O   0  0  0  1  0  0  0  0  0  0  0  0
   -4.7560    8.0023   -0.7625 O   0  0  0  1  0  0  0  0  0  0  0  0
   -3.4281    6.4186    0.7080 C   0  0  0  1  0  0  0  0  0  0  0  0
   -2.5331    6.2915    1.7535 C   0  0  0  1  0  0  0  0  0  0  0  0
   -1.8587    5.0960    1.9473 C   0  0  0  1  0  0  0  0  0  0  0  0
   -2.0774    4.0328    1.0916 C   0  0  0  1  0  0  0  0  0  0  0  0
   -2.9750    4.1602    0.0430 C   0  0  0  1  0  0  0  0  0  0  0  0
   -3.6473    5.3522   -0.1501 C   0  0  0  1  0  0  0  0  0  0  0  0
   -1.4363    2.6919    1.3215 C   0  0  0  1  0  0  0  0  0  0  0  0
   -3.8493    9.6075    0.9811 H   0  0  0  1  0  0  0  0  0  0  0  0
   -4.1323    8.3423   -1.4082 H   0  0  0  1  0  0  0  0  0  0  0  0
   -2.3656    7.0928    2.3949 H   0  0  0  1  0  0  0  0  0  0  0  0
   -1.1883    4.9990    2.7364 H   0  0  0  1  0  0  0  0  0  0  0  0
   -3.1425    3.3589   -0.5985 H   0  0  0  1  0  0  0  0  0  0  0  0
   -4.3177    5.4491   -0.9392 H   0  0  0  1  0  0  0  0  0  0  0  0
   -1.2934    2.2266    0.3686 H   0  0  0  1  0  0  0  0  0  0  0  0
   -0.4859    2.8556    1.7851 H   0  0  0  1  0  0  0  0  0  0  0  0
  1  4  1  0  0  0  0
  2  4  1  0  0  0  0
  2  5  2  0  0  0  0
  2  6  1  0  0  0  0
  3  4  1  0  0  0  0
  3  7  1  0  0  0  0
  3  8  1  0  0  0  0
  4 28  1  0  0  0  0
  6  9  1  0  0  0  0
  6 12  1  0  0  0  0
  8 10  1  0  0  0  0
  8 11  2  0  0  0  0
  9 13  1  0  0  0  0
  9 14  1  0  0  0  0
  9 15  1  0  0  0  0
 10 16  1  0  0  0  0
 10 17  1  0  0  0  0
 10 18  1  0  0  0  0
 19 20  1  0  0  0  0
 19 21  1  0  0  0  0
 19 22  1  0  0  0  0
 20 29  1  0  0  0  0
 21 30  1  0  0  0  0
 22 23  4  0  0  0  0
 22 27  4  0  0  0  0
 23 24  4  0  0  0  0
 23 31  1  0  0  0  0
 24 25  4  0  0  0  0
 24 32  1  0  0  0  0
 25 26  4  0  0  0  0
 25 28  1  0  0  0  0
 26 27  4  0  0  0  0
 26 33  1  0  0  0  0
 27 34  1  0  0  0  0
 28 35  1  0  0  0  0
 28 36  1  0  0  0  0
M  END
> <BCLConfClusterSize>
1

> <ConfClashScore>
0 

> <ConfOneFourInteractionScore>
-0.967118 

> <ConfScore>
0.0527011 

> <ConfScorePBest>
0.00387501 

> <ConfTolerance>
0.39937 

> <RosettaParamsInstructions>
M  ROOT 3
M  POLY_N_BB 3
M  POLY_CA_BB 4
M  POLY_C_BB 2
M  POLY_O_BB 5
M  POLY_IGNORE 9 10 11 12 13 14 15 16 17 18 
M  POLY_UPPER 6
M  POLY_LOWER 8
M  POLY_CHG 0
M  POLY_PROPERTIES ALPHA_AA L_AA PROTEIN AROMATIC POLYMER 
M  END

$$$$



 36 36  0  0  0  0  0  0  0  0999 V2000
    0.1344    2.9098   -0.0857 H   0  0  0  1  0  0  0  0  0  0  0  0
    0.1346    0.9066    0.6259 C   0  0  0  1  0  0  0  0  0  0  0  0
   -1.4372    1.8893   -0.9804 N   0  0  0  1  0  0  0  0  0  0  0  0
   -0.5922    2.1676    0.1713 C   0  0  0  1  0  0  0  0  0  0  0  0
    1.0422    0.9566    1.4550 O   0  0  0  1  0  0  0  0  0  0  0  0
   -0.2809   -0.2402    0.0653 N   0  0  0  1  0  0  0  0  0  0  0  0
   -2.1637    1.2381   -0.8877 H   0  0  0  1  0  0  0  0  0  0  0  0
   -1.2556    2.4958   -2.1696 C   0  0  0  1  0  0  0  0  0  0  0  0
    0.2307   -1.5381    0.4796 C   0  0  0  1  0  0  0  0  0  0  0  0
   -2.1837    1.9931   -3.2583 C   0  0  0  1  0  0  0  0  0  0  0  0
   -0.4265    3.3757   -2.3861 O   0  0  0  1  0  0  0  0  0  0  0  0
   -0.9521   -0.2021   -0.6478 H   0  0  0  1  0  0  0  0  0  0  0  0
    0.5116   -1.4985    1.5113 H   0  0  0  1  0  0  0  0  0  0  0  0
    1.0853   -1.7901   -0.1130 H   0  0  0  1  0  0  0  0  0  0  0  0
   -0.5285   -2.2799    0.3451 H   0  0  0  1  0  0  0  0  0  0  0  0
   -1.6735    2.0102   -4.1986 H   0  0  0  1  0  0  0  0  0  0  0  0
   -3.0470    2.6232   -3.3096 H   0  0  0  1  0  0  0  0  0  0  0  0
   -2.4855    0.9912   -3.0347 H   0  0  0  1  0  0  0  0  0  0  0  0
   -4.1201    7.8145    0.4299 B   0  0  0  1  0  0  0  0  0  0  0  0
   -3.7321    8.8700    1.1916 O   0  0  0  1  0  0  0  0  0  0  0  0
   -5.0519    7.8713   -0.5452 O   0  0  0  1  0  0  0  0  0  0  0  0
   -3.4281    6.4186    0.7080 C   0  0  0  1  0  0  0  0  0  0  0  0
   -2.5331    6.2915    1.7535 C   0  0  0  1  0  0  0  0  0  0  0  0
   -1.8587    5.0960    1.9473 C   0  0  0  1  0  0  0  0  0  0  0  0
   -2.0774    4.0328    1.0916 C   0  0  0  1  0  0  0  0  0  0  0  0
   -2.9750    4.1602    0.0430 C   0  0  0  1  0  0  0  0  0  0  0  0
   -3.6473    5.3522   -0.1501 C   0  0  0  1  0  0  0  0  0  0  0  0
   -1.4363    2.6919    1.3215 C   0  0  0  1  0  0  0  0  0  0  0  0
   -4.4961    9.2393    1.6405 H   0  0  0  1  0  0  0  0  0  0  0  0
   -5.8874    7.5380   -0.2099 H   0  0  0  1  0  0  0  0  0  0  0  0
   -2.3656    7.0928    2.3949 H   0  0  0  1  0  0  0  0  0  0  0  0
   -1.1883    4.9990    2.7364 H   0  0  0  1  0  0  0  0  0  0  0  0
   -3.1425    3.3589   -0.5985 H   0  0  0  1  0  0  0  0  0  0  0  0
   -4.3177    5.4491   -0.9392 H   0  0  0  1  0  0  0  0  0  0  0  0
   -0.8073    2.7703    2.1835 H   0  0  0  1  0  0  0  0  0  0  0  0
   -2.2143    1.9821    1.5104 H   0  0  0  1  0  0  0  0  0  0  0  0
  1  4  1  0  0  0  0
  2  4  1  0  0  0  0
  2  5  2  0  0  0  0
  2  6  1  0  0  0  0
  3  4  1  0  0  0  0
  3  7  1  0  0  0  0
  3  8  1  0  0  0  0
  4 28  1  0  0  0  0
  6  9  1  0  0  0  0
  6 12  1  0  0  0  0
  8 10  1  0  0  0  0
  8 11  2  0  0  0  0
  9 13  1  0  0  0  0
  9 14  1  0  0  0  0
  9 15  1  0  0  0  0
 10 16  1  0  0  0  0
 10 17  1  0  0  0  0
 10 18  1  0  0  0  0
 19 20  1  0  0  0  0
 19 21  1  0  0  0  0
 19 22  1  0  0  0  0
 20 29  1  0  0  0  0
 21 30  1  0  0  0  0
 22 23  4  0  0  0  0
 22 27  4  0  0  0  0
 23 24  4  0  0  0  0
 23 31  1  0  0  0  0
 24 25  4  0  0  0  0
 24 32  1  0  0  0  0
 25 26  4  0  0  0  0
 25 28  1  0  0  0  0
 26 27  4  0  0  0  0
 26 33  1  0  0  0  0
 27 34  1  0  0  0  0
 28 35  1  0  0  0  0
 28 36  1  0  0  0  0
M  END
> <BCLConfClusterSize>
1

> <ConfClashScore>
0 

> <ConfOneFourInteractionScore>
-0.966122 

> <ConfScore>
0.0527292 

> <ConfScorePBest>
0.00384653 

> <ConfTolerance>
0.615129 

> <RosettaParamsInstructions>
M  ROOT 3
M  POLY_N_BB 3
M  POLY_CA_BB 4
M  POLY_C_BB 2
M  POLY_O_BB 5
M  POLY_IGNORE 9 10 11 12 13 14 15 16 17 18 
M  POLY_UPPER 6
M  POLY_LOWER 8
M  POLY_CHG 0
M  POLY_PROPERTIES ALPHA_AA L_AA PROTEIN AROMATIC POLYMER 
M  END

$$$$



 36 36  0  0  0  0  0  0  0  0999 V2000
   -1.6059    0.9405    2.4887 H   0  0  0  1  0  0  0  0  0  0  0  0
   -1.9790    2.5313    3.8220 C   0  0  0  1  0  0  0  0  0  0  0  0
   -3.5030    1.6782    2.1351 N   0  0  0  1  0  0  0  0  0  0  0  0
   -2.0889    1.8942    2.4428 C   0  0  0  1  0  0  0  0  0  0  0  0
   -2.8949    3.1874    4.2915 O   0  0  0  1  0  0  0  0  0  0  0  0
   -0.8298    2.3233    4.4665 N   0  0  0  1  0  0  0  0  0  0  0  0
   -3.8269    1.8805    1.2326 H   0  0  0  1  0  0  0  0  0  0  0  0
   -4.3679    1.2147    3.0418 C   0  0  0  1  0  0  0  0  0  0  0  0
   -0.4811    2.9012    5.7558 C   0  0  0  1  0  0  0  0  0  0  0  0
   -5.8113    1.1195    2.5869 C   0  0  0  1  0  0  0  0  0  0  0  0
   -4.0338    0.8821    4.1759 O   0  0  0  1  0  0  0  0  0  0  0  0
   -0.1705    1.7371    4.0396 H   0  0  0  1  0  0  0  0  0  0  0  0
   -0.9576    3.8535    5.8610 H   0  0  0  1  0  0  0  0  0  0  0  0
    0.5800    3.0251    5.8157 H   0  0  0  1  0  0  0  0  0  0  0  0
   -0.8095    2.2500    6.5388 H   0  0  0  1  0  0  0  0  0  0  0  0
   -5.8835    0.4334    1.7691 H   0  0  0  1  0  0  0  0  0  0  0  0
   -6.1506    2.0847    2.2735 H   0  0  0  1  0  0  0  0  0  0  0  0
   -6.4183    0.7734    3.3973 H   0  0  0  1  0  0  0  0  0  0  0  0
   -4.0952    7.8130    0.4101 B   0  0  0  1  0  0  0  0  0  0  0  0
   -4.6352    8.5305    1.4290 O   0  0  0  1  0  0  0  0  0  0  0  0
   -4.0950    8.2421   -0.8695 O   0  0  0  1  0  0  0  0  0  0  0  0
   -3.4363    6.4175    0.7154 C   0  0  0  1  0  0  0  0  0  0  0  0
   -2.5380    6.2865    1.7576 C   0  0  0  1  0  0  0  0  0  0  0  0
   -1.8610    5.0912    1.9433 C   0  0  0  1  0  0  0  0  0  0  0  0
   -2.0805    4.0320    1.0828 C   0  0  0  1  0  0  0  0  0  0  0  0
   -2.9814    4.1633    0.0375 C   0  0  0  1  0  0  0  0  0  0  0  0
   -3.6562    5.3551   -0.1475 C   0  0  0  1  0  0  0  0  0  0  0  0
   -1.4050    2.7030    1.3482 C   0  0  0  1  0  0  0  0  0  0  0  0
   -5.5540    8.2787    1.5466 H   0  0  0  1  0  0  0  0  0  0  0  0
   -3.2135    8.5382   -1.1080 H   0  0  0  1  0  0  0  0  0  0  0  0
   -2.3699    7.0849    2.4026 H   0  0  0  1  0  0  0  0  0  0  0  0
   -1.1881    4.9913    2.7299 H   0  0  0  1  0  0  0  0  0  0  0  0
   -3.1494    3.3649   -0.6075 H   0  0  0  1  0  0  0  0  0  0  0  0
   -4.3291    5.4549   -0.9341 H   0  0  0  1  0  0  0  0  0  0  0  0
   -1.4145    2.1297    0.4448 H   0  0  0  1  0  0  0  0  0  0  0  0
   -0.3933    2.8880    1.6433 H   0  0  0  1  0  0  0  0  0  0  0  0
  1  4  1  0  0  0  0
  2  4  1  0  0  0  0
  2  5  2  0  0  0  0
  2  6  1  0  0  0  0
  3  4  1  0  0  0  0
  3  7  1  0  0  0  0
  3  8  1  0  0  0  0
  4 28  1  0  0  0  0
  6  9  1  0  0  0  0
  6 12  1  0  0  0  0
  8 10  1  0  0  0  0
  8 11  2  0  0  0  0
  9 13  1  0  0  0  0
  9 14  1  0  0  0  0
  9 15  1  0  0  0  0
 10 16  1  0  0  0  0
 10 17  1  0  0  0  0
 10 18  1  0  0  0  0
 19 20  1  0  0  0  0
 19 21  1  0  0  0  0
 19 22  1  0  0  0  0
 20 29  1  0  0  0  0
 21 30  1  0  0  0  0
 22 23  4  0  0  0  0
 22 27  4  0  0  0  0
 23 24  4  0  0  0  0
 23 31  1  0  0  0  0
 24 25  4  0  0  0  0
 24 32  1  0  0  0  0
 25 26  4  0  0  0  0
 25 28  1  0  0  0  0
 26 27  4  0  0  0  0
 26 33  1  0  0  0  0
 27 34  1  0  0  0  0
 28 35  1  0  0  0  0
 28 36  1  0  0  0  0
M  END
> <BCLConfClusterSize>
1

> <ConfClashScore>
0 

> <ConfOneFourInteractionScore>
-0.982875 

> <ConfScore>
0.0539917 

> <ConfScorePBest>
0.00381805 

> <ConfTolerance>
0.454795 

> <RosettaParamsInstructions>
M  ROOT 3
M  POLY_N_BB 3
M  POLY_CA_BB 4
M  POLY_C_BB 2
M  POLY_O_BB 5
M  POLY_IGNORE 9 10 11 12 13 14 15 16 17 18 
M  POLY_UPPER 6
M  POLY_LOWER 8
M  POLY_CHG 0
M  POLY_PROPERTIES ALPHA_AA L_AA PROTEIN AROMATIC POLYMER 
M  END

$$$$



 36 36  0  0  0  0  0  0  0  0999 V2000
   -0.0455    2.6077   -0.2548 H   0  0  0  1  0  0  0  0  0  0  0  0
    0.7426    3.9054    1.2155 C   0  0  0  1  0  0  0  0  0  0  0  0
    0.7396    1.4636    1.2768 N   0  0  0  1  0  0  0  0  0  0  0  0
    0.0101    2.6344    0.8134 C   0  0  0  1  0  0  0  0  0  0  0  0
    0.9090    4.2210    2.3796 O   0  0  0  1  0  0  0  0  0  0  0  0
    1.2245    4.7112    0.2571 N   0  0  0  1  0  0  0  0  0  0  0  0
    0.8164    1.3051    2.2408 H   0  0  0  1  0  0  0  0  0  0  0  0
    1.3109    0.5936    0.4300 C   0  0  0  1  0  0  0  0  0  0  0  0
    2.0203    5.8763    0.6139 C   0  0  0  1  0  0  0  0  0  0  0  0
    2.1502   -0.4947    1.0706 C   0  0  0  1  0  0  0  0  0  0  0  0
    1.1750    0.6582   -0.7807 O   0  0  0  1  0  0  0  0  0  0  0  0
    1.0404    4.5148   -0.6852 H   0  0  0  1  0  0  0  0  0  0  0  0
    1.4202    6.7582    0.5294 H   0  0  0  1  0  0  0  0  0  0  0  0
    2.8587    5.9512   -0.0467 H   0  0  0  1  0  0  0  0  0  0  0  0
    2.3670    5.7762    1.6212 H   0  0  0  1  0  0  0  0  0  0  0  0
    2.9609   -0.0501    1.6092 H   0  0  0  1  0  0  0  0  0  0  0  0
    2.5386   -1.1394    0.3101 H   0  0  0  1  0  0  0  0  0  0  0  0
    1.5434   -1.0625    1.7446 H   0  0  0  1  0  0  0  0  0  0  0  0
   -4.1018    7.8384    0.4659 B   0  0  0  1  0  0  0  0  0  0  0  0
   -3.9663    8.5478   -0.6858 O   0  0  0  1  0  0  0  0  0  0  0  0
   -4.8440    8.3549    1.4817 O   0  0  0  1  0  0  0  0  0  0  0  0
   -3.4321    6.4147    0.7004 C   0  0  0  1  0  0  0  0  0  0  0  0
   -2.5372    6.2877    1.7461 C   0  0  0  1  0  0  0  0  0  0  0  0
   -1.8630    5.0921    1.9402 C   0  0  0  1  0  0  0  0  0  0  0  0
   -2.0817    4.0288    1.0847 C   0  0  0  1  0  0  0  0  0  0  0  0
   -2.9791    4.1560    0.0360 C   0  0  0  1  0  0  0  0  0  0  0  0
   -3.6513    5.3481   -0.1574 C   0  0  0  1  0  0  0  0  0  0  0  0
   -1.4134    2.7079    1.3577 C   0  0  0  1  0  0  0  0  0  0  0  0
   -4.1584    7.9805   -1.4361 H   0  0  0  1  0  0  0  0  0  0  0  0
   -4.2740    8.5452    2.2303 H   0  0  0  1  0  0  0  0  0  0  0  0
   -2.3697    7.0891    2.3873 H   0  0  0  1  0  0  0  0  0  0  0  0
   -1.1926    4.9953    2.7294 H   0  0  0  1  0  0  0  0  0  0  0  0
   -3.1467    3.3546   -0.6053 H   0  0  0  1  0  0  0  0  0  0  0  0
   -4.3216    5.4449   -0.9467 H   0  0  0  1  0  0  0  0  0  0  0  0
   -1.3817    2.5546    2.4162 H   0  0  0  1  0  0  0  0  0  0  0  0
   -1.9928    1.9324    0.9017 H   0  0  0  1  0  0  0  0  0  0  0  0
  1  4  1  0  0  0  0
  2  4  1  0  0  0  0
  2  5  2  0  0  0  0
  2  6  1  0  0  0  0
  3  4  1  0  0  0  0
  3  7  1  0  0  0  0
  3  8  1  0  0  0  0
  4 28  1  0  0  0  0
  6  9  1  0  0  0  0
  6 12  1  0  0  0  0
  8 10  1  0  0  0  0
  8 11  2  0  0  0  0
  9 13  1  0  0  0  0
  9 14  1  0  0  0  0
  9 15  1  0  0  0  0
 10 16  1  0  0  0  0
 10 17  1  0  0  0  0
 10 18  1  0  0  0  0
 19 20  1  0  0  0  0
 19 21  1  0  0  0  0
 19 22  1  0  0  0  0
 20 29  1  0  0  0  0
 21 30  1  0  0  0  0
 22 23  4  0  0  0  0
 22 27  4  0  0  0  0
 23 24  4  0  0  0  0
 23 31  1  0  0  0  0
 24 25  4  0  0  0  0
 24 32  1  0  0  0  0
 25 26  4  0  0  0  0
 25 28  1  0  0  0  0
 26 27  4  0  0  0  0
 26 33  1  0  0  0  0
 27 34  1  0  0  0  0
 28 35  1  0  0  0  0
 28 36  1  0  0  0  0
M  END
> <BCLConfClusterSize>
1

> <ConfClashScore>
0 

> <ConfOneFourInteractionScore>
-0.983771 

> <ConfScore>
0.058257 

> <ConfScorePBest>
0.00378957 

> <ConfTolerance>
0.584264 

> <RosettaParamsInstructions>
M  ROOT 3
M  POLY_N_BB 3
M  POLY_CA_BB 4
M  POLY_C_BB 2
M  POLY_O_BB 5
M  POLY_IGNORE 9 10 11 12 13 14 15 16 17 18 
M  POLY_UPPER 6
M  POLY_LOWER 8
M  POLY_CHG 0
M  POLY_PROPERTIES ALPHA_AA L_AA PROTEIN AROMATIC POLYMER 
M  END

$$$$



 36 36  0  0  0  0  0  0  0  0999 V2000
   -1.0256    0.8288    0.4611 H   0  0  0  1  0  0  0  0  0  0  0  0
   -3.0724    1.1608    0.1430 C   0  0  0  1  0  0  0  0  0  0  0  0
   -1.2126    2.2275   -1.0520 N   0  0  0  1  0  0  0  0  0  0  0  0
   -1.6483    1.6716    0.2443 C   0  0  0  1  0  0  0  0  0  0  0  0
   -3.7986    1.4770   -0.7984 O   0  0  0  1  0  0  0  0  0  0  0  0
   -3.4745    0.3536    1.1374 N   0  0  0  1  0  0  0  0  0  0  0  0
   -1.0214    3.1866   -1.1150 H   0  0  0  1  0  0  0  0  0  0  0  0
   -1.0699    1.4686   -2.1423 C   0  0  0  1  0  0  0  0  0  0  0  0
   -4.8132   -0.2170    1.1192 C   0  0  0  1  0  0  0  0  0  0  0  0
   -0.6259    2.1988   -3.4033 C   0  0  0  1  0  0  0  0  0  0  0  0
   -1.2788    0.2584   -2.1467 O   0  0  0  1  0  0  0  0  0  0  0  0
   -2.8654    0.1481    1.8770 H   0  0  0  1  0  0  0  0  0  0  0  0
   -5.1503   -0.3048    0.1075 H   0  0  0  1  0  0  0  0  0  0  0  0
   -5.4794    0.4196    1.6630 H   0  0  0  1  0  0  0  0  0  0  0  0
   -4.7940   -1.1855    1.5738 H   0  0  0  1  0  0  0  0  0  0  0  0
   -1.2978    3.0071   -3.6034 H   0  0  0  1  0  0  0  0  0  0  0  0
   -0.6306    1.5186   -4.2293 H   0  0  0  1  0  0  0  0  0  0  0  0
    0.3627    2.5835   -3.2630 H   0  0  0  1  0  0  0  0  0  0  0  0
   -4.1182    7.8171    0.4332 B   0  0  0  1  0  0  0  0  0  0  0  0
   -5.1142    7.8981   -0.4866 O   0  0  0  1  0  0  0  0  0  0  0  0
   -3.6767    8.8913    1.1408 O   0  0  0  1  0  0  0  0  0  0  0  0
   -3.4287    6.4193    0.7075 C   0  0  0  1  0  0  0  0  0  0  0  0
   -2.5331    6.2881    1.7520 C   0  0  0  1  0  0  0  0  0  0  0  0
   -1.8608    5.0909    1.9426 C   0  0  0  1  0  0  0  0  0  0  0  0
   -2.0821    4.0301    1.0846 C   0  0  0  1  0  0  0  0  0  0  0  0
   -2.9803    4.1615    0.0370 C   0  0  0  1  0  0  0  0  0  0  0  0
   -3.6505    5.3552   -0.1528 C   0  0  0  1  0  0  0  0  0  0  0  0
   -1.4119    2.6994    1.3553 C   0  0  0  1  0  0  0  0  0  0  0  0
   -4.8026    7.5551   -1.3274 H   0  0  0  1  0  0  0  0  0  0  0  0
   -4.2965    9.0861    1.8476 H   0  0  0  1  0  0  0  0  0  0  0  0
   -2.3636    7.0877    2.3951 H   0  0  0  1  0  0  0  0  0  0  0  0
   -1.1899    4.9909    2.7309 H   0  0  0  1  0  0  0  0  0  0  0  0
   -3.1498    3.3620   -0.6061 H   0  0  0  1  0  0  0  0  0  0  0  0
   -4.3214    5.4552   -0.9411 H   0  0  0  1  0  0  0  0  0  0  0  0
   -0.3586    2.8617    1.4506 H   0  0  0  1  0  0  0  0  0  0  0  0
   -1.7969    2.3045    2.2722 H   0  0  0  1  0  0  0  0  0  0  0  0
  1  4  1  0  0  0  0
  2  4  1  0  0  0  0
  2  5  2  0  0  0  0
  2  6  1  0  0  0  0
  3  4  1  0  0  0  0
  3  7  1  0  0  0  0
  3  8  1  0  0  0  0
  4 28  1  0  0  0  0
  6  9  1  0  0  0  0
  6 12  1  0  0  0  0
  8 10  1  0  0  0  0
  8 11  2  0  0  0  0
  9 13  1  0  0  0  0
  9 14  1  0  0  0  0
  9 15  1  0  0  0  0
 10 16  1  0  0  0  0
 10 17  1  0  0  0  0
 10 18  1  0  0  0  0
 19 20  1  0  0  0  0
 19 21  1  0  0  0  0
 19 22  1  0  0  0  0
 20 29  1  0  0  0  0
 21 30  1  0  0  0  0
 22 23  4  0  0  0  0
 22 27  4  0  0  0  0
 23 24  4  0  0  0  0
 23 31  1  0  0  0  0
 24 25  4  0  0  0  0
 24 32  1  0  0  0  0
 25 26  4  0  0  0  0
 25 28  1  0  0  0  0
 26 27  4  0  0  0  0
 26 33  1  0  0  0  0
 27 34  1  0  0  0  0
 28 35  1  0  0  0  0
 28 36  1  0  0  0  0
M  END
> <BCLConfClusterSize>
1

> <ConfClashScore>
0 

> <ConfOneFourInteractionScore>
-0.977087 

> <ConfScore>
0.0598913 

> <ConfScorePBest>
0.00376109 

> <ConfTolerance>
0.681328 

> <RosettaParamsInstructions>
M  ROOT 3
M  POLY_N_BB 3
M  POLY_CA_BB 4
M  POLY_C_BB 2
M  POLY_O_BB 5
M  POLY_IGNORE 9 10 11 12 13 14 15 16 17 18 
M  POLY_UPPER 6
M  POLY_LOWER 8
M  POLY_CHG 0
M  POLY_PROPERTIES ALPHA_AA L_AA PROTEIN AROMATIC POLYMER 
M  END

$$$$



 36 36  0  0  0  0  0  0  0  0999 V2000
   -3.3887    1.9428    1.5998 H   0  0  0  1  0  0  0  0  0  0  0  0
   -2.5955    0.9538   -0.0783 C   0  0  0  1  0  0  0  0  0  0  0  0
   -2.0574    0.5400    2.3021 N   0  0  0  1  0  0  0  0  0  0  0  0
   -2.4396    1.5388    1.3151 C   0  0  0  1  0  0  0  0  0  0  0  0
   -3.4380    1.3966   -0.8579 O   0  0  0  1  0  0  0  0  0  0  0  0
   -1.7879   -0.0586   -0.4317 N   0  0  0  1  0  0  0  0  0  0  0  0
   -1.3007    0.7274    2.8960 H   0  0  0  1  0  0  0  0  0  0  0  0
   -2.7022   -0.6235    2.4267 C   0  0  0  1  0  0  0  0  0  0  0  0
   -1.9138   -0.6689   -1.7468 C   0  0  0  1  0  0  0  0  0  0  0  0
   -2.2682   -1.4959    3.5884 C   0  0  0  1  0  0  0  0  0  0  0  0
   -3.5864   -0.9782    1.6639 O   0  0  0  1  0  0  0  0  0  0  0  0
   -1.1121   -0.3874    0.1973 H   0  0  0  1  0  0  0  0  0  0  0  0
   -2.2128    0.0729   -2.4577 H   0  0  0  1  0  0  0  0  0  0  0  0
   -2.6495   -1.4450   -1.7107 H   0  0  0  1  0  0  0  0  0  0  0  0
   -0.9716   -1.0832   -2.0391 H   0  0  0  1  0  0  0  0  0  0  0  0
   -3.1055   -1.6808    4.2286 H   0  0  0  1  0  0  0  0  0  0  0  0
   -1.5001   -0.9969    4.1415 H   0  0  0  1  0  0  0  0  0  0  0  0
   -1.8929   -2.4258    3.2151 H   0  0  0  1  0  0  0  0  0  0  0  0
   -4.1177    7.8098    0.4309 B   0  0  0  1  0  0  0  0  0  0  0  0
   -3.6601    9.0206    0.8423 O   0  0  0  1  0  0  0  0  0  0  0  0
   -5.2762    7.8395   -0.2807 O   0  0  0  1  0  0  0  0  0  0  0  0
   -3.4284    6.4192    0.7079 C   0  0  0  1  0  0  0  0  0  0  0  0
   -2.5334    6.2920    1.7534 C   0  0  0  1  0  0  0  0  0  0  0  0
   -1.8590    5.0965    1.9472 C   0  0  0  1  0  0  0  0  0  0  0  0
   -2.0777    4.0334    1.0915 C   0  0  0  1  0  0  0  0  0  0  0  0
   -2.9753    4.1607    0.0429 C   0  0  0  1  0  0  0  0  0  0  0  0
   -3.6476    5.3528   -0.1502 C   0  0  0  1  0  0  0  0  0  0  0  0
   -1.4360    2.6913    1.3216 C   0  0  0  1  0  0  0  0  0  0  0  0
   -4.3609    9.4886    1.3022 H   0  0  0  1  0  0  0  0  0  0  0  0
   -5.1018    7.5787   -1.1880 H   0  0  0  1  0  0  0  0  0  0  0  0
   -2.3659    7.0934    2.3948 H   0  0  0  1  0  0  0  0  0  0  0  0
   -1.1886    4.9996    2.7363 H   0  0  0  1  0  0  0  0  0  0  0  0
   -3.1428    3.3594   -0.5986 H   0  0  0  1  0  0  0  0  0  0  0  0
   -4.3180    5.4497   -0.9393 H   0  0  0  1  0  0  0  0  0  0  0  0
   -0.7165    2.5207    0.5482 H   0  0  0  1  0  0  0  0  0  0  0  0
   -0.9427    2.7079    2.2710 H   0  0  0  1  0  0  0  0  0  0  0  0
  1  4  1  0  0  0  0
  2  4  1  0  0  0  0
  2  5  2  0  0  0  0
  2  6  1  0  0  0  0
  3  4  1  0  0  0  0
  3  7  1  0  0  0  0
  3  8  1  0  0  0  0
  4 28  1  0  0  0  0
  6  9  1  0  0  0  0
  6 12  1  0  0  0  0
  8 10  1  0  0  0  0
  8 11  2  0  0  0  0
  9 13  1  0  0  0  0
  9 14  1  0  0  0  0
  9 15  1  0  0  0  0
 10 16  1  0  0  0  0
 10 17  1  0  0  0  0
 10 18  1  0  0  0  0
 19 20  1  0  0  0  0
 19 21  1  0  0  0  0
 19 22  1  0  0  0  0
 20 29  1  0  0  0  0
 21 30  1  0  0  0  0
 22 23  4  0  0  0  0
 22 27  4  0  0  0  0
 23 24  4  0  0  0  0
 23 31  1  0  0  0  0
 24 25  4  0  0  0  0
 24 32  1  0  0  0  0
 25 26  4  0  0  0  0
 25 28  1  0  0  0  0
 26 27  4  0  0  0  0
 26 33  1  0  0  0  0
 27 34  1  0  0  0  0
 28 35  1  0  0  0  0
 28 36  1  0  0  0  0
M  END
> <BCLConfClusterSize>
1

> <ConfClashScore>
0 

> <ConfOneFourInteractionScore>
-0.954034 

> <ConfScore>
0.0687528 

> <ConfScorePBest>
0.00373261 

> <ConfTolerance>
0.713448 

> <RosettaParamsInstructions>
M  ROOT 3
M  POLY_N_BB 3
M  POLY_CA_BB 4
M  POLY_C_BB 2
M  POLY_O_BB 5
M  POLY_IGNORE 9 10 11 12 13 14 15 16 17 18 
M  POLY_UPPER 6
M  POLY_LOWER 8
M  POLY_CHG 0
M  POLY_PROPERTIES ALPHA_AA L_AA PROTEIN AROMATIC POLYMER 
M  END

$$$$



 36 36  0  0  0  0  0  0  0  0999 V2000
   -1.7522    0.8769    2.2805 H   0  0  0  1  0  0  0  0  0  0  0  0
   -1.9036    2.2505    3.8310 C   0  0  0  1  0  0  0  0  0  0  0  0
   -3.5946    1.7443    2.0824 N   0  0  0  1  0  0  0  0  0  0  0  0
   -2.1543    1.8631    2.3838 C   0  0  0  1  0  0  0  0  0  0  0  0
   -2.7241    2.9115    4.4663 O   0  0  0  1  0  0  0  0  0  0  0  0
   -0.7462    1.8275    4.3542 N   0  0  0  1  0  0  0  0  0  0  0  0
   -4.2171    2.3825    2.4893 H   0  0  0  1  0  0  0  0  0  0  0  0
   -4.0789    0.7969    1.2743 C   0  0  0  1  0  0  0  0  0  0  0  0
   -0.2816    2.1270    5.7005 C   0  0  0  1  0  0  0  0  0  0  0  0
   -5.5899    0.6777    1.2306 C   0  0  0  1  0  0  0  0  0  0  0  0
   -3.3605    0.0591    0.6012 O   0  0  0  1  0  0  0  0  0  0  0  0
   -0.1682    1.2746    3.7880 H   0  0  0  1  0  0  0  0  0  0  0  0
   -0.3279    1.2416    6.2995 H   0  0  0  1  0  0  0  0  0  0  0  0
   -0.9041    2.8825    6.1325 H   0  0  0  1  0  0  0  0  0  0  0  0
    0.7286    2.4770    5.6593 H   0  0  0  1  0  0  0  0  0  0  0  0
   -5.9881    1.4229    0.5741 H   0  0  0  1  0  0  0  0  0  0  0  0
   -5.9872    0.8198    2.2139 H   0  0  0  1  0  0  0  0  0  0  0  0
   -5.8605   -0.2938    0.8730 H   0  0  0  1  0  0  0  0  0  0  0  0
   -4.1431    7.8093    0.3944 B   0  0  0  1  0  0  0  0  0  0  0  0
   -3.4767    8.7997   -0.2597 O   0  0  0  1  0  0  0  0  0  0  0  0
   -5.4336    8.0344    0.7648 O   0  0  0  1  0  0  0  0  0  0  0  0
   -3.4237    6.4213    0.7159 C   0  0  0  1  0  0  0  0  0  0  0  0
   -2.5273    6.2857    1.7591 C   0  0  0  1  0  0  0  0  0  0  0  0
   -1.8569    5.0868    1.9457 C   0  0  0  1  0  0  0  0  0  0  0  0
   -2.0811    4.0287    1.0851 C   0  0  0  1  0  0  0  0  0  0  0  0
   -2.9801    4.1646    0.0388 C   0  0  0  1  0  0  0  0  0  0  0  0
   -3.6483    5.3601   -0.1471 C   0  0  0  1  0  0  0  0  0  0  0  0
   -1.4170    2.7040    1.3498 C   0  0  0  1  0  0  0  0  0  0  0  0
   -2.5309    8.6716   -0.1568 H   0  0  0  1  0  0  0  0  0  0  0  0
   -5.4969    8.0335    1.7227 H   0  0  0  1  0  0  0  0  0  0  0  0
   -2.3556    7.0832    2.4042 H   0  0  0  1  0  0  0  0  0  0  0  0
   -1.1854    4.9834    2.7331 H   0  0  0  1  0  0  0  0  0  0  0  0
   -3.1517    3.3671   -0.6063 H   0  0  0  1  0  0  0  0  0  0  0  0
   -4.3198    5.4634   -0.9345 H   0  0  0  1  0  0  0  0  0  0  0  0
   -1.3741    2.1551    0.4323 H   0  0  0  1  0  0  0  0  0  0  0  0
   -0.4238    2.8857    1.7041 H   0  0  0  1  0  0  0  0  0  0  0  0
  1  4  1  0  0  0  0
  2  4  1  0  0  0  0
  2  5  2  0  0  0  0
  2  6  1  0  0  0  0
  3  4  1  0  0  0  0
  3  7  1  0  0  0  0
  3  8  1  0  0  0  0
  4 28  1  0  0  0  0
  6  9  1  0  0  0  0
  6 12  1  0  0  0  0
  8 10  1  0  0  0  0
  8 11  2  0  0  0  0
  9 13  1  0  0  0  0
  9 14  1  0  0  0  0
  9 15  1  0  0  0  0
 10 16  1  0  0  0  0
 10 17  1  0  0  0  0
 10 18  1  0  0  0  0
 19 20  1  0  0  0  0
 19 21  1  0  0  0  0
 19 22  1  0  0  0  0
 20 29  1  0  0  0  0
 21 30  1  0  0  0  0
 22 23  4  0  0  0  0
 22 27  4  0  0  0  0
 23 24  4  0  0  0  0
 23 31  1  0  0  0  0
 24 25  4  0  0  0  0
 24 32  1  0  0  0  0
 25 26  4  0  0  0  0
 25 28  1  0  0  0  0
 26 27  4  0  0  0  0
 26 33  1  0  0  0  0
 27 34  1  0  0  0  0
 28 35  1  0  0  0  0
 28 36  1  0  0  0  0
M  END
> <BCLConfClusterSize>
1

> <ConfClashScore>
0 

> <ConfOneFourInteractionScore>
-0.986527 

> <ConfScore>
0.0691325 

> <ConfScorePBest>
0.00370413 

> <ConfTolerance>
0.559126 

> <RosettaParamsInstructions>
M  ROOT 3
M  POLY_N_BB 3
M  POLY_CA_BB 4
M  POLY_C_BB 2
M  POLY_O_BB 5
M  POLY_IGNORE 9 10 11 12 13 14 15 16 17 18 
M  POLY_UPPER 6
M  POLY_LOWER 8
M  POLY_CHG 0
M  POLY_PROPERTIES ALPHA_AA L_AA PROTEIN AROMATIC POLYMER 
M  END

$$$$



 36 36  0  0  0  0  0  0  0  0999 V2000
    0.4614    3.3449    0.6506 H   0  0  0  1  0  0  0  0  0  0  0  0
    0.5394    3.4464    2.7576 C   0  0  0  1  0  0  0  0  0  0  0  0
    0.6955    1.4415    1.4043 N   0  0  0  1  0  0  0  0  0  0  0  0
    0.0908    2.7637    1.4689 C   0  0  0  1  0  0  0  0  0  0  0  0
    0.0770    3.1168    3.8491 O   0  0  0  1  0  0  0  0  0  0  0  0
    1.4538    4.4101    2.6160 N   0  0  0  1  0  0  0  0  0  0  0  0
    0.3346    0.7116    1.9496 H   0  0  0  1  0  0  0  0  0  0  0  0
    1.7399    1.2211    0.6044 C   0  0  0  1  0  0  0  0  0  0  0  0
    1.9067    5.2226    3.7352 C   0  0  0  1  0  0  0  0  0  0  0  0
    2.3419   -0.1766    0.6720 C   0  0  0  1  0  0  0  0  0  0  0  0
    2.2006    2.0778   -0.1454 O   0  0  0  1  0  0  0  0  0  0  0  0
    1.8328    4.5756    1.7275 H   0  0  0  1  0  0  0  0  0  0  0  0
    1.2782    6.0835    3.8289 H   0  0  0  1  0  0  0  0  0  0  0  0
    2.9156    5.5349    3.5637 H   0  0  0  1  0  0  0  0  0  0  0  0
    1.8591    4.6469    4.6358 H   0  0  0  1  0  0  0  0  0  0  0  0
    3.3986   -0.1035    0.8232 H   0  0  0  1  0  0  0  0  0  0  0  0
    2.1479   -0.6930   -0.2449 H   0  0  0  1  0  0  0  0  0  0  0  0
    1.9019   -0.7152    1.4852 H   0  0  0  1  0  0  0  0  0  0  0  0
   -4.1205    7.8153    0.4298 B   0  0  0  1  0  0  0  0  0  0  0  0
   -3.5032    9.0137    0.6396 O   0  0  0  1  0  0  0  0  0  0  0  0
   -5.3958    7.7976   -0.0420 O   0  0  0  1  0  0  0  0  0  0  0  0
   -3.4285    6.4194    0.7079 C   0  0  0  1  0  0  0  0  0  0  0  0
   -2.5335    6.2923    1.7534 C   0  0  0  1  0  0  0  0  0  0  0  0
   -1.8591    5.0968    1.9471 C   0  0  0  1  0  0  0  0  0  0  0  0
   -2.0778    4.0336    1.0914 C   0  0  0  1  0  0  0  0  0  0  0  0
   -2.9754    4.1610    0.0428 C   0  0  0  1  0  0  0  0  0  0  0  0
   -3.6477    5.3530   -0.1502 C   0  0  0  1  0  0  0  0  0  0  0  0
   -1.4322    2.6835    1.3229 C   0  0  0  1  0  0  0  0  0  0  0  0
   -3.3352    9.4396   -0.2042 H   0  0  0  1  0  0  0  0  0  0  0  0
   -6.0059    7.6700    0.6882 H   0  0  0  1  0  0  0  0  0  0  0  0
   -2.3660    7.0936    2.3948 H   0  0  0  1  0  0  0  0  0  0  0  0
   -1.1886    4.9998    2.7362 H   0  0  0  1  0  0  0  0  0  0  0  0
   -3.1429    3.3596   -0.5986 H   0  0  0  1  0  0  0  0  0  0  0  0
   -4.3181    5.4499   -0.9393 H   0  0  0  1  0  0  0  0  0  0  0  0
   -1.8383    2.2607    2.2180 H   0  0  0  1  0  0  0  0  0  0  0  0
   -1.6617    2.0493    0.4922 H   0  0  0  1  0  0  0  0  0  0  0  0
  1  4  1  0  0  0  0
  2  4  1  0  0  0  0
  2  5  2  0  0  0  0
  2  6  1  0  0  0  0
  3  4  1  0  0  0  0
  3  7  1  0  0  0  0
  3  8  1  0  0  0  0
  4 28  1  0  0  0  0
  6  9  1  0  0  0  0
  6 12  1  0  0  0  0
  8 10  1  0  0  0  0
  8 11  2  0  0  0  0
  9 13  1  0  0  0  0
  9 14  1  0  0  0  0
  9 15  1  0  0  0  0
 10 16  1  0  0  0  0
 10 17  1  0  0  0  0
 10 18  1  0  0  0  0
 19 20  1  0  0  0  0
 19 21  1  0  0  0  0
 19 22  1  0  0  0  0
 20 29  1  0  0  0  0
 21 30  1  0  0  0  0
 22 23  4  0  0  0  0
 22 27  4  0  0  0  0
 23 24  4  0  0  0  0
 23 31  1  0  0  0  0
 24 25  4  0  0  0  0
 24 32  1  0  0  0  0
 25 26  4  0  0  0  0
 25 28  1  0  0  0  0
 26 27  4  0  0  0  0
 26 33  1  0  0  0  0
 27 34  1  0  0  0  0
 28 35  1  0  0  0  0
 28 36  1  0  0  0  0
M  END
> <BCLConfClusterSize>
1

> <ConfClashScore>
0 

> <ConfOneFourInteractionScore>
-0.977798 

> <ConfScore>
0.0721668 

> <ConfScorePBest>
0.00367564 

> <ConfTolerance>
0.574895 

> <RosettaParamsInstructions>
M  ROOT 3
M  POLY_N_BB 3
M  POLY_CA_BB 4
M  POLY_C_BB 2
M  POLY_O_BB 5
M  POLY_IGNORE 9 10 11 12 13 14 15 16 17 18 
M  POLY_UPPER 6
M  POLY_LOWER 8
M  POLY_CHG 0
M  POLY_PROPERTIES ALPHA_AA L_AA PROTEIN AROMATIC POLYMER 
M  END

$$$$



 36 36  0  0  0  0  0  0  0  0999 V2000
   -3.1092    1.7410    2.1084 H   0  0  0  1  0  0  0  0  0  0  0  0
   -1.5247    0.4276    2.5107 C   0  0  0  1  0  0  0  0  0  0  0  0
   -2.0875    2.4596    3.7377 N   0  0  0  1  0  0  0  0  0  0  0  0
   -2.0871    1.8430    2.4083 C   0  0  0  1  0  0  0  0  0  0  0  0
   -0.7013    0.0074    1.6989 O   0  0  0  1  0  0  0  0  0  0  0  0
   -1.9861   -0.3108    3.5325 N   0  0  0  1  0  0  0  0  0  0  0  0
   -2.9439    2.6047    4.1915 H   0  0  0  1  0  0  0  0  0  0  0  0
   -0.9609    2.8308    4.3526 C   0  0  0  1  0  0  0  0  0  0  0  0
   -1.4222   -1.6091    3.8703 C   0  0  0  1  0  0  0  0  0  0  0  0
   -1.1379    3.5127    5.7031 C   0  0  0  1  0  0  0  0  0  0  0  0
    0.1479    2.6438    3.8779 O   0  0  0  1  0  0  0  0  0  0  0  0
   -2.7286    0.0366    4.0697 H   0  0  0  1  0  0  0  0  0  0  0  0
   -0.4353   -1.4788    4.2626 H   0  0  0  1  0  0  0  0  0  0  0  0
   -1.3790   -2.2184    2.9918 H   0  0  0  1  0  0  0  0  0  0  0  0
   -2.0377   -2.0849    4.6050 H   0  0  0  1  0  0  0  0  0  0  0  0
   -0.6349    2.9456    6.4583 H   0  0  0  1  0  0  0  0  0  0  0  0
   -2.1801    3.5734    5.9379 H   0  0  0  1  0  0  0  0  0  0  0  0
   -0.7231    4.4982    5.6619 H   0  0  0  1  0  0  0  0  0  0  0  0
   -4.1178    7.8164    0.4333 B   0  0  0  1  0  0  0  0  0  0  0  0
   -5.1265    8.1857    1.2514 O   0  0  0  1  0  0  0  0  0  0  0  0
   -3.6533    8.5585   -0.6074 O   0  0  0  1  0  0  0  0  0  0  0  0
   -3.4282    6.4185    0.7076 C   0  0  0  1  0  0  0  0  0  0  0  0
   -2.5327    6.2874    1.7522 C   0  0  0  1  0  0  0  0  0  0  0  0
   -1.8604    5.0902    1.9427 C   0  0  0  1  0  0  0  0  0  0  0  0
   -2.0818    4.0294    1.0848 C   0  0  0  1  0  0  0  0  0  0  0  0
   -2.9799    4.1608    0.0372 C   0  0  0  1  0  0  0  0  0  0  0  0
   -3.6501    5.3545   -0.1526 C   0  0  0  1  0  0  0  0  0  0  0  0
   -1.4162    2.7077    1.3537 C   0  0  0  1  0  0  0  0  0  0  0  0
   -4.9124    9.0249    1.6655 H   0  0  0  1  0  0  0  0  0  0  0  0
   -4.3287    8.6151   -1.2873 H   0  0  0  1  0  0  0  0  0  0  0  0
   -2.3632    7.0870    2.3952 H   0  0  0  1  0  0  0  0  0  0  0  0
   -1.1895    4.9902    2.7311 H   0  0  0  1  0  0  0  0  0  0  0  0
   -3.1494    3.3612   -0.6059 H   0  0  0  1  0  0  0  0  0  0  0  0
   -4.3210    5.4544   -0.9410 H   0  0  0  1  0  0  0  0  0  0  0  0
   -1.3968    2.1555    0.4374 H   0  0  0  1  0  0  0  0  0  0  0  0
   -0.4142    2.9021    1.6748 H   0  0  0  1  0  0  0  0  0  0  0  0
  1  4  1  0  0  0  0
  2  4  1  0  0  0  0
  2  5  2  0  0  0  0
  2  6  1  0  0  0  0
  3  4  1  0  0  0  0
  3  7  1  0  0  0  0
  3  8  1  0  0  0  0
  4 28  1  0  0  0  0
  6  9  1  0  0  0  0
  6 12  1  0  0  0  0
  8 10  1  0  0  0  0
  8 11  2  0  0  0  0
  9 13  1  0  0  0  0
  9 14  1  0  0  0  0
  9 15  1  0  0  0  0
 10 16  1  0  0  0  0
 10 17  1  0  0  0  0
 10 18  1  0  0  0  0
 19 20  1  0  0  0  0
 19 21  1  0  0  0  0
 19 22  1  0  0  0  0
 20 29  1  0  0  0  0
 21 30  1  0  0  0  0
 22 23  4  0  0  0  0
 22 27  4  0  0  0  0
 23 24  4  0  0  0  0
 23 31  1  0  0  0  0
 24 25  4  0  0  0  0
 24 32  1  0  0  0  0
 25 26  4  0  0  0  0
 25 28  1  0  0  0  0
 26 27  4  0  0  0  0
 26 33  1  0  0  0  0
 27 34  1  0  0  0  0
 28 35  1  0  0  0  0
 28 36  1  0  0  0  0
M  END
> <BCLConfClusterSize>
1

> <ConfClashScore>
0 

> <ConfOneFourInteractionScore>
-0.981447 

> <ConfScore>
0.0740726 

> <ConfScorePBest>
0.00364716 

> <ConfTolerance>
0.350384 

> <RosettaParamsInstructions>
M  ROOT 3
M  POLY_N_BB 3
M  POLY_CA_BB 4
M  POLY_C_BB 2
M  POLY_O_BB 5
M  POLY_IGNORE 9 10 11 12 13 14 15 16 17 18 
M  POLY_UPPER 6
M  POLY_LOWER 8
M  POLY_CHG 0
M  POLY_PROPERTIES ALPHA_AA L_AA PROTEIN AROMATIC POLYMER 
M  END

$$$$



 36 36  0  0  0  0  0  0  0  0999 V2000
   -3.2039    1.5233    1.3859 H   0  0  0  1  0  0  0  0  0  0  0  0
   -1.5739    0.3240    2.0366 C   0  0  0  1  0  0  0  0  0  0  0  0
   -2.6968    2.0880    3.3187 N   0  0  0  1  0  0  0  0  0  0  0  0
   -2.3243    1.6502    1.9818 C   0  0  0  1  0  0  0  0  0  0  0  0
   -0.3997    0.3483    2.3668 O   0  0  0  1  0  0  0  0  0  0  0  0
   -2.2735   -0.7652    1.7147 N   0  0  0  1  0  0  0  0  0  0  0  0
   -2.0600    2.5983    3.8613 H   0  0  0  1  0  0  0  0  0  0  0  0
   -3.9052    1.7956    3.8080 C   0  0  0  1  0  0  0  0  0  0  0  0
   -1.6970   -2.1007    1.7592 C   0  0  0  1  0  0  0  0  0  0  0  0
   -4.1572    2.2243    5.2404 C   0  0  0  1  0  0  0  0  0  0  0  0
   -4.7693    1.2172    3.1544 O   0  0  0  1  0  0  0  0  0  0  0  0
   -3.2081   -0.6625    1.4386 H   0  0  0  1  0  0  0  0  0  0  0  0
   -2.0257   -2.6602    0.9085 H   0  0  0  1  0  0  0  0  0  0  0  0
   -2.0118   -2.5952    2.6543 H   0  0  0  1  0  0  0  0  0  0  0  0
   -0.6295   -2.0287    1.7475 H   0  0  0  1  0  0  0  0  0  0  0  0
   -3.2840    2.7061    5.6280 H   0  0  0  1  0  0  0  0  0  0  0  0
   -4.3834    1.3642    5.8354 H   0  0  0  1  0  0  0  0  0  0  0  0
   -4.9822    2.9052    5.2688 H   0  0  0  1  0  0  0  0  0  0  0  0
   -4.1184    7.8113    0.4306 B   0  0  0  1  0  0  0  0  0  0  0  0
   -3.3781    8.7661   -0.1898 O   0  0  0  1  0  0  0  0  0  0  0  0
   -5.3997    7.9679    0.8260 O   0  0  0  1  0  0  0  0  0  0  0  0
   -3.4282    6.4189    0.7079 C   0  0  0  1  0  0  0  0  0  0  0  0
   -2.5333    6.2918    1.7534 C   0  0  0  1  0  0  0  0  0  0  0  0
   -1.8589    5.0963    1.9472 C   0  0  0  1  0  0  0  0  0  0  0  0
   -2.0776    4.0331    1.0915 C   0  0  0  1  0  0  0  0  0  0  0  0
   -2.9752    4.1605    0.0429 C   0  0  0  1  0  0  0  0  0  0  0  0
   -3.6474    5.3525   -0.1501 C   0  0  0  1  0  0  0  0  0  0  0  0
   -1.4364    2.6922    1.3214 C   0  0  0  1  0  0  0  0  0  0  0  0
   -2.6668    8.3503   -0.6826 H   0  0  0  1  0  0  0  0  0  0  0  0
   -5.9453    7.2900    0.4206 H   0  0  0  1  0  0  0  0  0  0  0  0
   -2.3657    7.0931    2.3949 H   0  0  0  1  0  0  0  0  0  0  0  0
   -1.1884    4.9993    2.7363 H   0  0  0  1  0  0  0  0  0  0  0  0
   -3.1427    3.3592   -0.5985 H   0  0  0  1  0  0  0  0  0  0  0  0
   -4.3179    5.4494   -0.9393 H   0  0  0  1  0  0  0  0  0  0  0  0
   -1.1260    2.3077    0.3724 H   0  0  0  1  0  0  0  0  0  0  0  0
   -0.5795    2.8387    1.9451 H   0  0  0  1  0  0  0  0  0  0  0  0
  1  4  1  0  0  0  0
  2  4  1  0  0  0  0
  2  5  2  0  0  0  0
  2  6  1  0  0  0  0
  3  4  1  0  0  0  0
  3  7  1  0  0  0  0
  3  8  1  0  0  0  0
  4 28  1  0  0  0  0
  6  9  1  0  0  0  0
  6 12  1  0  0  0  0
  8 10  1  0  0  0  0
  8 11  2  0  0  0  0
  9 13  1  0  0  0  0
  9 14  1  0  0  0  0
  9 15  1  0  0  0  0
 10 16  1  0  0  0  0
 10 17  1  0  0  0  0
 10 18  1  0  0  0  0
 19 20  1  0  0  0  0
 19 21  1  0  0  0  0
 19 22  1  0  0  0  0
 20 29  1  0  0  0  0
 21 30  1  0  0  0  0
 22 23  4  0  0  0  0
 22 27  4  0  0  0  0
 23 24  4  0  0  0  0
 23 31  1  0  0  0  0
 24 25  4  0  0  0  0
 24 32  1  0  0  0  0
 25 26  4  0  0  0  0
 25 28  1  0  0  0  0
 26 27  4  0  0  0  0
 26 33  1  0  0  0  0
 27 34  1  0  0  0  0
 28 35  1  0  0  0  0
 28 36  1  0  0  0  0
M  END
> <BCLConfClusterSize>
1

> <ConfClashScore>
0 

> <ConfOneFourInteractionScore>
-0.983771 

> <ConfScore>
0.0772686 

> <ConfScorePBest>
0.00361868 

> <ConfTolerance>
0.534075 

> <RosettaParamsInstructions>
M  ROOT 3
M  POLY_N_BB 3
M  POLY_CA_BB 4
M  POLY_C_BB 2
M  POLY_O_BB 5
M  POLY_IGNORE 9 10 11 12 13 14 15 16 17 18 
M  POLY_UPPER 6
M  POLY_LOWER 8
M  POLY_CHG 0
M  POLY_PROPERTIES ALPHA_AA L_AA PROTEIN AROMATIC POLYMER 
M  END

$$$$



 36 36  0  0  0  0  0  0  0  0999 V2000
   -1.5840    1.0049    2.5834 H   0  0  0  1  0  0  0  0  0  0  0  0
   -1.4299    2.6204    3.9118 C   0  0  0  1  0  0  0  0  0  0  0  0
   -3.4033    1.9890    2.5958 N   0  0  0  1  0  0  0  0  0  0  0  0
   -1.9274    2.0179    2.6123 C   0  0  0  1  0  0  0  0  0  0  0  0
   -0.2747    2.3742    4.2559 O   0  0  0  1  0  0  0  0  0  0  0  0
   -2.2668    3.3831    4.6120 N   0  0  0  1  0  0  0  0  0  0  0  0
   -3.8806    2.5639    1.9617 H   0  0  0  1  0  0  0  0  0  0  0  0
   -4.1110    1.2062    3.4153 C   0  0  0  1  0  0  0  0  0  0  0  0
   -1.9403    4.0432    5.8672 C   0  0  0  1  0  0  0  0  0  0  0  0
   -5.6124    1.2173    3.2034 C   0  0  0  1  0  0  0  0  0  0  0  0
   -3.5991    0.5193    4.2847 O   0  0  0  1  0  0  0  0  0  0  0  0
   -3.1708    3.5094    4.2554 H   0  0  0  1  0  0  0  0  0  0  0  0
   -2.8339    4.4317    6.3095 H   0  0  0  1  0  0  0  0  0  0  0  0
   -1.2570    4.8453    5.6809 H   0  0  0  1  0  0  0  0  0  0  0  0
   -1.4900    3.3381    6.5342 H   0  0  0  1  0  0  0  0  0  0  0  0
   -5.8391    0.8255    2.2339 H   0  0  0  1  0  0  0  0  0  0  0  0
   -5.9751    2.2214    3.2757 H   0  0  0  1  0  0  0  0  0  0  0  0
   -6.0823    0.6130    3.9509 H   0  0  0  1  0  0  0  0  0  0  0  0
   -4.1182    7.8171    0.4332 B   0  0  0  1  0  0  0  0  0  0  0  0
   -4.2333    8.2057   -0.8631 O   0  0  0  1  0  0  0  0  0  0  0  0
   -4.5788    8.6026    1.4433 O   0  0  0  1  0  0  0  0  0  0  0  0
   -3.4287    6.4193    0.7075 C   0  0  0  1  0  0  0  0  0  0  0  0
   -2.5331    6.2881    1.7520 C   0  0  0  1  0  0  0  0  0  0  0  0
   -1.8608    5.0909    1.9426 C   0  0  0  1  0  0  0  0  0  0  0  0
   -2.0821    4.0301    1.0846 C   0  0  0  1  0  0  0  0  0  0  0  0
   -2.9803    4.1615    0.0370 C   0  0  0  1  0  0  0  0  0  0  0  0
   -3.6505    5.3552   -0.1528 C   0  0  0  1  0  0  0  0  0  0  0  0
   -1.4119    2.6994    1.3553 C   0  0  0  1  0  0  0  0  0  0  0  0
   -5.1495    8.4201   -1.0532 H   0  0  0  1  0  0  0  0  0  0  0  0
   -5.0055    9.3800    1.0757 H   0  0  0  1  0  0  0  0  0  0  0  0
   -2.3636    7.0877    2.3951 H   0  0  0  1  0  0  0  0  0  0  0  0
   -1.1899    4.9909    2.7309 H   0  0  0  1  0  0  0  0  0  0  0  0
   -3.1498    3.3620   -0.6061 H   0  0  0  1  0  0  0  0  0  0  0  0
   -4.3214    5.4552   -0.9411 H   0  0  0  1  0  0  0  0  0  0  0  0
   -1.5883    2.0533    0.5209 H   0  0  0  1  0  0  0  0  0  0  0  0
   -0.3602    2.8636    1.4638 H   0  0  0  1  0  0  0  0  0  0  0  0
  1  4  1  0  0  0  0
  2  4  1  0  0  0  0
  2  5  2  0  0  0  0
  2  6  1  0  0  0  0
  3  4  1  0  0  0  0
  3  7  1  0  0  0  0
  3  8  1  0  0  0  0
  4 28  1  0  0  0  0
  6  9  1  0  0  0  0
  6 12  1  0  0  0  0
  8 10  1  0  0  0  0
  8 11  2  0  0  0  0
  9 13  1  0  0  0  0
  9 14  1  0  0  0  0
  9 15  1  0  0  0  0
 10 16  1  0  0  0  0
 10 17  1  0  0  0  0
 10 18  1  0  0  0  0
 19 20  1  0  0  0  0
 19 21  1  0  0  0  0
 19 22  1  0  0  0  0
 20 29  1  0  0  0  0
 21 30  1  0  0  0  0
 22 23  4  0  0  0  0
 22 27  4  0  0  0  0
 23 24  4  0  0  0  0
 23 31  1  0  0  0  0
 24 25  4  0  0  0  0
 24 32  1  0  0  0  0
 25 26  4  0  0  0  0
 25 28  1  0  0  0  0
 26 27  4  0  0  0  0
 26 33  1  0  0  0  0
 27 34  1  0  0  0  0
 28 35  1  0  0  0  0
 28 36  1  0  0  0  0
M  END
> <BCLConfClusterSize>
1

> <ConfClashScore>
0 

> <ConfOneFourInteractionScore>
-0.947062 

> <ConfScore>
0.0783435 

> <ConfScorePBest>
0.0035902 

> <ConfTolerance>
0.551184 

> <RosettaParamsInstructions>
M  ROOT 3
M  POLY_N_BB 3
M  POLY_CA_BB 4
M  POLY_C_BB 2
M  POLY_O_BB 5
M  POLY_IGNORE 9 10 11 12 13 14 15 16 17 18 
M  POLY_UPPER 6
M  POLY_LOWER 8
M  POLY_CHG 0
M  POLY_PROPERTIES ALPHA_AA L_AA PROTEIN AROMATIC POLYMER 
M  END

$$$$



 36 36  0  0  0  0  0  0  0  0999 V2000
   -0.2804    1.1930    0.4498 H   0  0  0  1  0  0  0  0  0  0  0  0
   -1.0541    2.3549   -1.1158 C   0  0  0  1  0  0  0  0  0  0  0  0
    0.8370    2.9091    0.3518 N   0  0  0  1  0  0  0  0  0  0  0  0
   -0.4504    2.2349    0.2755 C   0  0  0  1  0  0  0  0  0  0  0  0
   -1.8194    1.5093   -1.5489 O   0  0  0  1  0  0  0  0  0  0  0  0
   -0.6911    3.4341   -1.8148 N   0  0  0  1  0  0  0  0  0  0  0  0
    0.9389    3.6658    0.9662 H   0  0  0  1  0  0  0  0  0  0  0  0
    1.8848    2.5325   -0.3866 C   0  0  0  1  0  0  0  0  0  0  0  0
   -1.3349    3.8018   -3.0671 C   0  0  0  1  0  0  0  0  0  0  0  0
    3.1952    3.2997   -0.1692 C   0  0  0  1  0  0  0  0  0  0  0  0
    1.8578    1.5782   -1.1471 O   0  0  0  1  0  0  0  0  0  0  0  0
    0.0339    3.9976   -1.4724 H   0  0  0  1  0  0  0  0  0  0  0  0
   -1.7188    2.9236   -3.5427 H   0  0  0  1  0  0  0  0  0  0  0  0
   -0.6208    4.2722   -3.7103 H   0  0  0  1  0  0  0  0  0  0  0  0
   -2.1384    4.4801   -2.8690 H   0  0  0  1  0  0  0  0  0  0  0  0
    3.7405    3.3430   -1.0888 H   0  0  0  1  0  0  0  0  0  0  0  0
    3.7833    2.7981    0.5706 H   0  0  0  1  0  0  0  0  0  0  0  0
    2.9758    4.2931    0.1622 H   0  0  0  1  0  0  0  0  0  0  0  0
   -4.1431    7.8092    0.3944 B   0  0  0  1  0  0  0  0  0  0  0  0
   -5.3935    7.7832   -0.1352 O   0  0  0  1  0  0  0  0  0  0  0  0
   -3.5348    9.0125    0.6378 O   0  0  0  1  0  0  0  0  0  0  0  0
   -3.4236    6.4212    0.7159 C   0  0  0  1  0  0  0  0  0  0  0  0
   -2.5272    6.2856    1.7592 C   0  0  0  1  0  0  0  0  0  0  0  0
   -1.8569    5.0867    1.9457 C   0  0  0  1  0  0  0  0  0  0  0  0
   -2.0811    4.0286    1.0851 C   0  0  0  1  0  0  0  0  0  0  0  0
   -2.9801    4.1645    0.0388 C   0  0  0  1  0  0  0  0  0  0  0  0
   -3.6483    5.3600   -0.1470 C   0  0  0  1  0  0  0  0  0  0  0  0
   -1.4176    2.7051    1.3496 C   0  0  0  1  0  0  0  0  0  0  0  0
   -6.0298    8.0497    0.5323 H   0  0  0  1  0  0  0  0  0  0  0  0
   -3.3662    9.4604   -0.1944 H   0  0  0  1  0  0  0  0  0  0  0  0
   -2.3556    7.0831    2.4043 H   0  0  0  1  0  0  0  0  0  0  0  0
   -1.1854    4.9833    2.7331 H   0  0  0  1  0  0  0  0  0  0  0  0
   -3.1517    3.3670   -0.6063 H   0  0  0  1  0  0  0  0  0  0  0  0
   -4.3198    5.4633   -0.9344 H   0  0  0  1  0  0  0  0  0  0  0  0
   -0.8762    2.7852    2.2691 H   0  0  0  1  0  0  0  0  0  0  0  0
   -2.1844    1.9656    1.4499 H   0  0  0  1  0  0  0  0  0  0  0  0
  1  4  1  0  0  0  0
  2  4  1  0  0  0  0
  2  5  2  0  0  0  0
  2  6  1  0  0  0  0
  3  4  1  0  0  0  0
  3  7  1  0  0  0  0
  3  8  1  0  0  0  0
  4 28  1  0  0  0  0
  6  9  1  0  0  0  0
  6 12  1  0  0  0  0
  8 10  1  0  0  0  0
  8 11  2  0  0  0  0
  9 13  1  0  0  0  0
  9 14  1  0  0  0  0
  9 15  1  0  0  0  0
 10 16  1  0  0  0  0
 10 17  1  0  0  0  0
 10 18  1  0  0  0  0
 19 20  1  0  0  0  0
 19 21  1  0  0  0  0
 19 22  1  0  0  0  0
 20 29  1  0  0  0  0
 21 30  1  0  0  0  0
 22 23  4  0  0  0  0
 22 27  4  0  0  0  0
 23 24  4  0  0  0  0
 23 31  1  0  0  0  0
 24 25  4  0  0  0  0
 24 32  1  0  0  0  0
 25 26  4  0  0  0  0
 25 28  1  0  0  0  0
 26 27  4  0  0  0  0
 26 33  1  0  0  0  0
 27 34  1  0  0  0  0
 28 35  1  0  0  0  0
 28 36  1  0  0  0  0
M  END
> <BCLConfClusterSize>
1

> <ConfClashScore>
0 

> <ConfOneFourInteractionScore>
-0.966613 

> <ConfScore>
0.0789483 

> <ConfScorePBest>
0.00356172 

> <ConfTolerance>
0.762178 

> <RosettaParamsInstructions>
M  ROOT 3
M  POLY_N_BB 3
M  POLY_CA_BB 4
M  POLY_C_BB 2
M  POLY_O_BB 5
M  POLY_IGNORE 9 10 11 12 13 14 15 16 17 18 
M  POLY_UPPER 6
M  POLY_LOWER 8
M  POLY_CHG 0
M  POLY_PROPERTIES ALPHA_AA L_AA PROTEIN AROMATIC POLYMER 
M  END

$$$$



 36 36  0  0  0  0  0  0  0  0999 V2000
   -2.5083    2.2286    3.0576 H   0  0  0  1  0  0  0  0  0  0  0  0
   -3.4167    1.1839    1.4949 C   0  0  0  1  0  0  0  0  0  0  0  0
   -1.3266    0.6100    2.6852 N   0  0  0  1  0  0  0  0  0  0  0  0
   -2.1644    1.6949    2.1964 C   0  0  0  1  0  0  0  0  0  0  0  0
   -3.4081    0.1025    0.9291 O   0  0  0  1  0  0  0  0  0  0  0  0
   -4.4683    2.0036    1.4549 N   0  0  0  1  0  0  0  0  0  0  0  0
   -1.3297   -0.2437    2.2039 H   0  0  0  1  0  0  0  0  0  0  0  0
   -0.5547    0.7371    3.7656 C   0  0  0  1  0  0  0  0  0  0  0  0
   -5.6979    1.6597    0.7498 C   0  0  0  1  0  0  0  0  0  0  0  0
    0.2149   -0.5128    4.1810 C   0  0  0  1  0  0  0  0  0  0  0  0
   -0.4569    1.7869    4.3992 O   0  0  0  1  0  0  0  0  0  0  0  0
   -4.4127    2.8670    1.9154 H   0  0  0  1  0  0  0  0  0  0  0  0
   -5.5025    1.5993   -0.3004 H   0  0  0  1  0  0  0  0  0  0  0  0
   -6.4359    2.4127    0.9323 H   0  0  0  1  0  0  0  0  0  0  0  0
   -6.0575    0.7149    1.1004 H   0  0  0  1  0  0  0  0  0  0  0  0
   -0.4732   -1.2626    4.5115 H   0  0  0  1  0  0  0  0  0  0  0  0
    0.8866   -0.2695    4.9776 H   0  0  0  1  0  0  0  0  0  0  0  0
    0.7712   -0.8830    3.3454 H   0  0  0  1  0  0  0  0  0  0  0  0
   -4.0834    7.8618    0.5018 B   0  0  0  1  0  0  0  0  0  0  0  0
   -4.1814    8.7803    1.5060 O   0  0  0  1  0  0  0  0  0  0  0  0
   -4.5700    8.2248   -0.7190 O   0  0  0  1  0  0  0  0  0  0  0  0
   -3.4367    6.4110    0.6924 C   0  0  0  1  0  0  0  0  0  0  0  0
   -2.5426    6.2886    1.7393 C   0  0  0  1  0  0  0  0  0  0  0  0
   -1.8662    5.0950    1.9372 C   0  0  0  1  0  0  0  0  0  0  0  0
   -2.0820    4.0289    1.0844 C   0  0  0  1  0  0  0  0  0  0  0  0
   -2.9786    4.1515    0.0345 C   0  0  0  1  0  0  0  0  0  0  0  0
   -3.6530    5.3417   -0.1628 C   0  0  0  1  0  0  0  0  0  0  0  0
   -1.4073    2.7022    1.3632 C   0  0  0  1  0  0  0  0  0  0  0  0
   -4.8253    8.4813    2.1521 H   0  0  0  1  0  0  0  0  0  0  0  0
   -5.2010    7.5673   -1.0209 H   0  0  0  1  0  0  0  0  0  0  0  0
   -2.3773    7.0921    2.3785 H   0  0  0  1  0  0  0  0  0  0  0  0
   -1.1964    5.0016    2.7274 H   0  0  0  1  0  0  0  0  0  0  0  0
   -3.1439    3.3480   -0.6048 H   0  0  0  1  0  0  0  0  0  0  0  0
   -4.3227    5.4351   -0.9529 H   0  0  0  1  0  0  0  0  0  0  0  0
   -1.1987    2.2444    0.4188 H   0  0  0  1  0  0  0  0  0  0  0  0
   -0.4882    2.9106    1.8699 H   0  0  0  1  0  0  0  0  0  0  0  0
  1  4  1  0  0  0  0
  2  4  1  0  0  0  0
  2  5  2  0  0  0  0
  2  6  1  0  0  0  0
  3  4  1  0  0  0  0
  3  7  1  0  0  0  0
  3  8  1  0  0  0  0
  4 28  1  0  0  0  0
  6  9  1  0  0  0  0
  6 12  1  0  0  0  0
  8 10  1  0  0  0  0
  8 11  2  0  0  0  0
  9 13  1  0  0  0  0
  9 14  1  0  0  0  0
  9 15  1  0  0  0  0
 10 16  1  0  0  0  0
 10 17  1  0  0  0  0
 10 18  1  0  0  0  0
 19 20  1  0  0  0  0
 19 21  1  0  0  0  0
 19 22  1  0  0  0  0
 20 29  1  0  0  0  0
 21 30  1  0  0  0  0
 22 23  4  0  0  0  0
 22 27  4  0  0  0  0
 23 24  4  0  0  0  0
 23 31  1  0  0  0  0
 24 25  4  0  0  0  0
 24 32  1  0  0  0  0
 25 26  4  0  0  0  0
 25 28  1  0  0  0  0
 26 27  4  0  0  0  0
 26 33  1  0  0  0  0
 27 34  1  0  0  0  0
 28 35  1  0  0  0  0
 28 36  1  0  0  0  0
M  END
> <BCLConfClusterSize>
1

> <ConfClashScore>
0 

> <ConfOneFourInteractionScore>
-0.992613 

> <ConfScore>
0.080457 

> <ConfScorePBest>
0.00353324 

> <ConfTolerance>
0.519141 

> <RosettaParamsInstructions>
M  ROOT 3
M  POLY_N_BB 3
M  POLY_CA_BB 4
M  POLY_C_BB 2
M  POLY_O_BB 5
M  POLY_IGNORE 9 10 11 12 13 14 15 16 17 18 
M  POLY_UPPER 6
M  POLY_LOWER 8
M  POLY_CHG 0
M  POLY_PROPERTIES ALPHA_AA L_AA PROTEIN AROMATIC POLYMER 
M  END

$$$$



 36 36  0  0  0  0  0  0  0  0999 V2000
   -3.0311    1.5573    0.5041 H   0  0  0  1  0  0  0  0  0  0  0  0
   -1.6311    0.2338    1.4318 C   0  0  0  1  0  0  0  0  0  0  0  0
   -3.2753    1.5893    2.5730 N   0  0  0  1  0  0  0  0  0  0  0  0
   -2.4302    1.5411    1.3892 C   0  0  0  1  0  0  0  0  0  0  0  0
   -0.4324    0.2031    1.1662 O   0  0  0  1  0  0  0  0  0  0  0  0
   -2.3595   -0.8287    1.7777 N   0  0  0  1  0  0  0  0  0  0  0  0
   -2.8556    1.7210    3.4487 H   0  0  0  1  0  0  0  0  0  0  0  0
   -4.6014    1.4606    2.5075 C   0  0  0  1  0  0  0  0  0  0  0  0
   -1.9115   -2.2105    1.6894 C   0  0  0  1  0  0  0  0  0  0  0  0
   -5.3381    1.5511    3.8297 C   0  0  0  1  0  0  0  0  0  0  0  0
   -5.2054    1.2794    1.4511 O   0  0  0  1  0  0  0  0  0  0  0  0
   -3.2646   -0.6667    2.1168 H   0  0  0  1  0  0  0  0  0  0  0  0
   -0.9214   -2.2911    2.0870 H   0  0  0  1  0  0  0  0  0  0  0  0
   -1.9105   -2.5201    0.6652 H   0  0  0  1  0  0  0  0  0  0  0  0
   -2.5731   -2.8363    2.2511 H   0  0  0  1  0  0  0  0  0  0  0  0
   -5.0292    0.7485    4.4664 H   0  0  0  1  0  0  0  0  0  0  0  0
   -6.3917    1.4831    3.6560 H   0  0  0  1  0  0  0  0  0  0  0  0
   -5.1132    2.4857    4.2997 H   0  0  0  1  0  0  0  0  0  0  0  0
   -4.0858    7.8602    0.4984 B   0  0  0  1  0  0  0  0  0  0  0  0
   -3.5201    8.8964    1.1698 O   0  0  0  1  0  0  0  0  0  0  0  0
   -5.1547    7.9658   -0.3195 O   0  0  0  1  0  0  0  0  0  0  0  0
   -3.4366    6.4111    0.6928 C   0  0  0  1  0  0  0  0  0  0  0  0
   -2.5431    6.2927    1.7406 C   0  0  0  1  0  0  0  0  0  0  0  0
   -1.8645    5.1008    1.9418 C   0  0  0  1  0  0  0  0  0  0  0  0
   -2.0776    4.0324    1.0912 C   0  0  0  1  0  0  0  0  0  0  0  0
   -2.9737    4.1510    0.0403 C   0  0  0  1  0  0  0  0  0  0  0  0
   -3.6501    5.3394   -0.1602 C   0  0  0  1  0  0  0  0  0  0  0  0
   -1.4274    2.6860    1.3309 C   0  0  0  1  0  0  0  0  0  0  0  0
   -2.7431    8.5869    1.6409 H   0  0  0  1  0  0  0  0  0  0  0  0
   -4.8848    8.3658   -1.1494 H   0  0  0  1  0  0  0  0  0  0  0  0
   -2.3798    7.0980    2.3782 H   0  0  0  1  0  0  0  0  0  0  0  0
   -1.1952    5.0105    2.7326 H   0  0  0  1  0  0  0  0  0  0  0  0
   -3.1370    3.3457   -0.5973 H   0  0  0  1  0  0  0  0  0  0  0  0
   -4.3194    5.4297   -0.9510 H   0  0  0  1  0  0  0  0  0  0  0  0
   -0.7377    2.4944    0.5355 H   0  0  0  1  0  0  0  0  0  0  0  0
   -0.8989    2.7236    2.2605 H   0  0  0  1  0  0  0  0  0  0  0  0
  1  4  1  0  0  0  0
  2  4  1  0  0  0  0
  2  5  2  0  0  0  0
  2  6  1  0  0  0  0
  3  4  1  0  0  0  0
  3  7  1  0  0  0  0
  3  8  1  0  0  0  0
  4 28  1  0  0  0  0
  6  9  1  0  0  0  0
  6 12  1  0  0  0  0
  8 10  1  0  0  0  0
  8 11  2  0  0  0  0
  9 13  1  0  0  0  0
  9 14  1  0  0  0  0
  9 15  1  0  0  0  0
 10 16  1  0  0  0  0
 10 17  1  0  0  0  0
 10 18  1  0  0  0  0
 19 20  1  0  0  0  0
 19 21  1  0  0  0  0
 19 22  1  0  0  0  0
 20 29  1  0  0  0  0
 21 30  1  0  0  0  0
 22 23  4  0  0  0  0
 22 27  4  0  0  0  0
 23 24  4  0  0  0  0
 23 31  1  0  0  0  0
 24 25  4  0  0  0  0
 24 32  1  0  0  0  0
 25 26  4  0  0  0  0
 25 28  1  0  0  0  0
 26 27  4  0  0  0  0
 26 33  1  0  0  0  0
 27 34  1  0  0  0  0
 28 35  1  0  0  0  0
 28 36  1  0  0  0  0
M  END
> <BCLConfClusterSize>
1

> <ConfClashScore>
0 

> <ConfOneFourInteractionScore>
-0.96571 

> <ConfScore>
0.0812559 

> <ConfScorePBest>
0.00350476 

> <ConfTolerance>
0.488682 

> <RosettaParamsInstructions>
M  ROOT 3
M  POLY_N_BB 3
M  POLY_CA_BB 4
M  POLY_C_BB 2
M  POLY_O_BB 5
M  POLY_IGNORE 9 10 11 12 13 14 15 16 17 18 
M  POLY_UPPER 6
M  POLY_LOWER 8
M  POLY_CHG 0
M  POLY_PROPERTIES ALPHA_AA L_AA PROTEIN AROMATIC POLYMER 
M  END

$$$$



 36 36  0  0  0  0  0  0  0  0999 V2000
   -1.2297    2.9602    3.4229 H   0  0  0  1  0  0  0  0  0  0  0  0
   -0.3466    1.1022    2.8872 C   0  0  0  1  0  0  0  0  0  0  0  0
    0.6001    3.3343    2.5152 N   0  0  0  1  0  0  0  0  0  0  0  0
   -0.6370    2.5750    2.6197 C   0  0  0  1  0  0  0  0  0  0  0  0
    0.4730    0.4724    2.2438 O   0  0  0  1  0  0  0  0  0  0  0  0
   -1.0123    0.4757    3.8615 N   0  0  0  1  0  0  0  0  0  0  0  0
    1.2467    3.0554    1.8336 H   0  0  0  1  0  0  0  0  0  0  0  0
    0.9202    4.3813    3.2772 C   0  0  0  1  0  0  0  0  0  0  0  0
   -0.7875   -0.9266    4.1794 C   0  0  0  1  0  0  0  0  0  0  0  0
    2.2755    5.0359    2.9968 C   0  0  0  1  0  0  0  0  0  0  0  0
    0.2328    4.8553    4.1674 O   0  0  0  1  0  0  0  0  0  0  0  0
   -1.6752    0.9778    4.3801 H   0  0  0  1  0  0  0  0  0  0  0  0
   -0.2776   -1.0029    5.1170 H   0  0  0  1  0  0  0  0  0  0  0  0
   -0.1917   -1.3749    3.4120 H   0  0  0  1  0  0  0  0  0  0  0  0
   -1.7280   -1.4328    4.2429 H   0  0  0  1  0  0  0  0  0  0  0  0
    2.1565    5.8016    2.2589 H   0  0  0  1  0  0  0  0  0  0  0  0
    2.9604    4.2970    2.6365 H   0  0  0  1  0  0  0  0  0  0  0  0
    2.6568    5.4666    3.8991 H   0  0  0  1  0  0  0  0  0  0  0  0
   -4.0854    7.8595    0.4985 B   0  0  0  1  0  0  0  0  0  0  0  0
   -5.3466    8.1720    0.8939 O   0  0  0  1  0  0  0  0  0  0  0  0
   -3.3186    8.8134   -0.0954 O   0  0  0  1  0  0  0  0  0  0  0  0
   -3.4362    6.4103    0.6929 C   0  0  0  1  0  0  0  0  0  0  0  0
   -2.5427    6.2920    1.7407 C   0  0  0  1  0  0  0  0  0  0  0  0
   -1.8642    5.1000    1.9419 C   0  0  0  1  0  0  0  0  0  0  0  0
   -2.0773    4.0317    1.0914 C   0  0  0  1  0  0  0  0  0  0  0  0
   -2.9733    4.1502    0.0404 C   0  0  0  1  0  0  0  0  0  0  0  0
   -3.6497    5.3387   -0.1600 C   0  0  0  1  0  0  0  0  0  0  0  0
   -1.4315    2.6944    1.3294 C   0  0  0  1  0  0  0  0  0  0  0  0
   -5.6310    7.5568    1.5738 H   0  0  0  1  0  0  0  0  0  0  0  0
   -2.9000    9.3537    0.5788 H   0  0  0  1  0  0  0  0  0  0  0  0
   -2.3794    7.0972    2.3783 H   0  0  0  1  0  0  0  0  0  0  0  0
   -1.1949    5.0097    2.7328 H   0  0  0  1  0  0  0  0  0  0  0  0
   -3.1366    3.3450   -0.5972 H   0  0  0  1  0  0  0  0  0  0  0  0
   -4.3190    5.4290   -0.9509 H   0  0  0  1  0  0  0  0  0  0  0  0
   -2.2034    1.9536    1.3473 H   0  0  0  1  0  0  0  0  0  0  0  0
   -0.7674    2.4986    0.5136 H   0  0  0  1  0  0  0  0  0  0  0  0
  1  4  1  0  0  0  0
  2  4  1  0  0  0  0
  2  5  2  0  0  0  0
  2  6  1  0  0  0  0
  3  4  1  0  0  0  0
  3  7  1  0  0  0  0
  3  8  1  0  0  0  0
  4 28  1  0  0  0  0
  6  9  1  0  0  0  0
  6 12  1  0  0  0  0
  8 10  1  0  0  0  0
  8 11  2  0  0  0  0
  9 13  1  0  0  0  0
  9 14  1  0  0  0  0
  9 15  1  0  0  0  0
 10 16  1  0  0  0  0
 10 17  1  0  0  0  0
 10 18  1  0  0  0  0
 19 20  1  0  0  0  0
 19 21  1  0  0  0  0
 19 22  1  0  0  0  0
 20 29  1  0  0  0  0
 21 30  1  0  0  0  0
 22 23  4  0  0  0  0
 22 27  4  0  0  0  0
 23 24  4  0  0  0  0
 23 31  1  0  0  0  0
 24 25  4  0  0  0  0
 24 32  1  0  0  0  0
 25 26  4  0  0  0  0
 25 28  1  0  0  0  0
 26 27  4  0  0  0  0
 26 33  1  0  0  0  0
 27 34  1  0  0  0  0
 28 35  1  0  0  0  0
 28 36  1  0  0  0  0
M  END
> <BCLConfClusterSize>
1

> <ConfClashScore>
0 

> <ConfOneFourInteractionScore>
-0.983811 

> <ConfScore>
0.0817453 

> <ConfScorePBest>
0.00347628 

> <ConfTolerance>
0.663295 

> <RosettaParamsInstructions>
M  ROOT 3
M  POLY_N_BB 3
M  POLY_CA_BB 4
M  POLY_C_BB 2
M  POLY_O_BB 5
M  POLY_IGNORE 9 10 11 12 13 14 15 16 17 18 
M  POLY_UPPER 6
M  POLY_LOWER 8
M  POLY_CHG 0
M  POLY_PROPERTIES ALPHA_AA L_AA PROTEIN AROMATIC POLYMER 
M  END

$$$$



 36 36  0  0  0  0  0  0  0  0999 V2000
   -3.1604    1.5033    1.5669 H   0  0  0  1  0  0  0  0  0  0  0  0
   -1.5394    0.4654    2.4547 C   0  0  0  1  0  0  0  0  0  0  0  0
   -2.7116    2.3214    3.4220 N   0  0  0  1  0  0  0  0  0  0  0  0
   -2.2975    1.7432    2.1523 C   0  0  0  1  0  0  0  0  0  0  0  0
   -1.0778    0.2465    3.5740 O   0  0  0  1  0  0  0  0  0  0  0  0
   -1.4114   -0.3931    1.4307 N   0  0  0  1  0  0  0  0  0  0  0  0
   -3.6680    2.4461    3.5953 H   0  0  0  1  0  0  0  0  0  0  0  0
   -1.8245    2.6916    4.3687 C   0  0  0  1  0  0  0  0  0  0  0  0
   -0.6244   -1.6130    1.5326 C   0  0  0  1  0  0  0  0  0  0  0  0
   -2.3494    3.4235    5.5920 C   0  0  0  1  0  0  0  0  0  0  0  0
   -0.6349    2.4469    4.2483 O   0  0  0  1  0  0  0  0  0  0  0  0
   -1.8637   -0.1914    0.5850 H   0  0  0  1  0  0  0  0  0  0  0  0
    0.4172   -1.3691    1.5096 H   0  0  0  1  0  0  0  0  0  0  0  0
   -0.8577   -2.2574    0.7109 H   0  0  0  1  0  0  0  0  0  0  0  0
   -0.8539   -2.1095    2.4522 H   0  0  0  1  0  0  0  0  0  0  0  0
   -2.7335    4.3784    5.2994 H   0  0  0  1  0  0  0  0  0  0  0  0
   -1.5540    3.5594    6.2946 H   0  0  0  1  0  0  0  0  0  0  0  0
   -3.1305    2.8483    6.0436 H   0  0  0  1  0  0  0  0  0  0  0  0
   -4.1178    7.8164    0.4333 B   0  0  0  1  0  0  0  0  0  0  0  0
   -3.6904    8.9208    1.0982 O   0  0  0  1  0  0  0  0  0  0  0  0
   -5.1410    8.0105   -0.4460 O   0  0  0  1  0  0  0  0  0  0  0  0
   -3.4283    6.4186    0.7076 C   0  0  0  1  0  0  0  0  0  0  0  0
   -2.5327    6.2874    1.7522 C   0  0  0  1  0  0  0  0  0  0  0  0
   -1.8604    5.0902    1.9427 C   0  0  0  1  0  0  0  0  0  0  0  0
   -2.0818    4.0294    1.0848 C   0  0  0  1  0  0  0  0  0  0  0  0
   -2.9799    4.1608    0.0372 C   0  0  0  1  0  0  0  0  0  0  0  0
   -3.6501    5.3545   -0.1526 C   0  0  0  1  0  0  0  0  0  0  0  0
   -1.4159    2.7073    1.3538 C   0  0  0  1  0  0  0  0  0  0  0  0
   -4.4470    9.3974    1.4476 H   0  0  0  1  0  0  0  0  0  0  0  0
   -5.7216    7.2460   -0.4358 H   0  0  0  1  0  0  0  0  0  0  0  0
   -2.3632    7.0870    2.3952 H   0  0  0  1  0  0  0  0  0  0  0  0
   -1.1895    4.9902    2.7311 H   0  0  0  1  0  0  0  0  0  0  0  0
   -3.1495    3.3612   -0.6059 H   0  0  0  1  0  0  0  0  0  0  0  0
   -4.3210    5.4545   -0.9410 H   0  0  0  1  0  0  0  0  0  0  0  0
   -1.1741    2.2509    0.4167 H   0  0  0  1  0  0  0  0  0  0  0  0
   -0.5174    2.8847    1.9070 H   0  0  0  1  0  0  0  0  0  0  0  0
  1  4  1  0  0  0  0
  2  4  1  0  0  0  0
  2  5  2  0  0  0  0
  2  6  1  0  0  0  0
  3  4  1  0  0  0  0
  3  7  1  0  0  0  0
  3  8  1  0  0  0  0
  4 28  1  0  0  0  0
  6  9  1  0  0  0  0
  6 12  1  0  0  0  0
  8 10  1  0  0  0  0
  8 11  2  0  0  0  0
  9 13  1  0  0  0  0
  9 14  1  0  0  0  0
  9 15  1  0  0  0  0
 10 16  1  0  0  0  0
 10 17  1  0  0  0  0
 10 18  1  0  0  0  0
 19 20  1  0  0  0  0
 19 21  1  0  0  0  0
 19 22  1  0  0  0  0
 20 29  1  0  0  0  0
 21 30  1  0  0  0  0
 22 23  4  0  0  0  0
 22 27  4  0  0  0  0
 23 24  4  0  0  0  0
 23 31  1  0  0  0  0
 24 25  4  0  0  0  0
 24 32  1  0  0  0  0
 25 26  4  0  0  0  0
 25 28  1  0  0  0  0
 26 27  4  0  0  0  0
 26 33  1  0  0  0  0
 27 34  1  0  0  0  0
 28 35  1  0  0  0  0
 28 36  1  0  0  0  0
M  END
> <BCLConfClusterSize>
1

> <ConfClashScore>
0 

> <ConfOneFourInteractionScore>
-0.989485 

> <ConfScore>
0.08432 

> <ConfScorePBest>
0.0034478 

> <ConfTolerance>
0.432066 

> <RosettaParamsInstructions>
M  ROOT 3
M  POLY_N_BB 3
M  POLY_CA_BB 4
M  POLY_C_BB 2
M  POLY_O_BB 5
M  POLY_IGNORE 9 10 11 12 13 14 15 16 17 18 
M  POLY_UPPER 6
M  POLY_LOWER 8
M  POLY_CHG 0
M  POLY_PROPERTIES ALPHA_AA L_AA PROTEIN AROMATIC POLYMER 
M  END

$$$$



 36 36  0  0  0  0  0  0  0  0999 V2000
    0.5865    3.4105    1.2079 H   0  0  0  1  0  0  0  0  0  0  0  0
    0.5757    1.2836    1.4258 C   0  0  0  1  0  0  0  0  0  0  0  0
    0.0260    2.5510   -0.6101 N   0  0  0  1  0  0  0  0  0  0  0  0
    0.0115    2.5830    0.8480 C   0  0  0  1  0  0  0  0  0  0  0  0
    0.3764    0.9763    2.6003 O   0  0  0  1  0  0  0  0  0  0  0  0
    1.2928    0.4914    0.6142 N   0  0  0  1  0  0  0  0  0  0  0  0
    0.3606    3.3448   -1.0775 H   0  0  0  1  0  0  0  0  0  0  0  0
   -0.3826    1.5211   -1.3567 C   0  0  0  1  0  0  0  0  0  0  0  0
    1.7974   -0.8430    0.9016 C   0  0  0  1  0  0  0  0  0  0  0  0
   -0.1681    1.6645   -2.8509 C   0  0  0  1  0  0  0  0  0  0  0  0
   -0.8976    0.5206   -0.8840 O   0  0  0  1  0  0  0  0  0  0  0  0
    1.5004    0.8525   -0.2729 H   0  0  0  1  0  0  0  0  0  0  0  0
    1.6378   -1.0703    1.9349 H   0  0  0  1  0  0  0  0  0  0  0  0
    2.8446   -0.8822    0.6856 H   0  0  0  1  0  0  0  0  0  0  0  0
    1.2807   -1.5576    0.2956 H   0  0  0  1  0  0  0  0  0  0  0  0
    0.4411    0.8585   -3.2033 H   0  0  0  1  0  0  0  0  0  0  0  0
    0.3200    2.5950   -3.0532 H   0  0  0  1  0  0  0  0  0  0  0  0
   -1.1139    1.6413   -3.3506 H   0  0  0  1  0  0  0  0  0  0  0  0
   -4.1153    7.8115    0.4342 B   0  0  0  1  0  0  0  0  0  0  0  0
   -5.3052    7.9444   -0.2071 O   0  0  0  1  0  0  0  0  0  0  0  0
   -3.4672    8.9245    0.8708 O   0  0  0  1  0  0  0  0  0  0  0  0
   -3.4284    6.4190    0.7075 C   0  0  0  1  0  0  0  0  0  0  0  0
   -2.5329    6.2878    1.7521 C   0  0  0  1  0  0  0  0  0  0  0  0
   -1.8606    5.0906    1.9426 C   0  0  0  1  0  0  0  0  0  0  0  0
   -2.0820    4.0298    1.0847 C   0  0  0  1  0  0  0  0  0  0  0  0
   -2.9802    4.1612    0.0371 C   0  0  0  1  0  0  0  0  0  0  0  0
   -3.6503    5.3549   -0.1527 C   0  0  0  1  0  0  0  0  0  0  0  0
   -1.4164    2.7082    1.3536 C   0  0  0  1  0  0  0  0  0  0  0  0
   -5.7116    7.0808   -0.3106 H   0  0  0  1  0  0  0  0  0  0  0  0
   -2.7260    9.1122    0.2903 H   0  0  0  1  0  0  0  0  0  0  0  0
   -2.3634    7.0874    2.3951 H   0  0  0  1  0  0  0  0  0  0  0  0
   -1.1898    4.9906    2.7310 H   0  0  0  1  0  0  0  0  0  0  0  0
   -3.1497    3.3616   -0.6060 H   0  0  0  1  0  0  0  0  0  0  0  0
   -4.3212    5.4549   -0.9411 H   0  0  0  1  0  0  0  0  0  0  0  0
   -1.4065    2.5529    2.4122 H   0  0  0  1  0  0  0  0  0  0  0  0
   -2.0004    1.9433    0.8859 H   0  0  0  1  0  0  0  0  0  0  0  0
  1  4  1  0  0  0  0
  2  4  1  0  0  0  0
  2  5  2  0  0  0  0
  2  6  1  0  0  0  0
  3  4  1  0  0  0  0
  3  7  1  0  0  0  0
  3  8  1  0  0  0  0
  4 28  1  0  0  0  0
  6  9  1  0  0  0  0
  6 12  1  0  0  0  0
  8 10  1  0  0  0  0
  8 11  2  0  0  0  0
  9 13  1  0  0  0  0
  9 14  1  0  0  0  0
  9 15  1  0  0  0  0
 10 16  1  0  0  0  0
 10 17  1  0  0  0  0
 10 18  1  0  0  0  0
 19 20  1  0  0  0  0
 19 21  1  0  0  0  0
 19 22  1  0  0  0  0
 20 29  1  0  0  0  0
 21 30  1  0  0  0  0
 22 23  4  0  0  0  0
 22 27  4  0  0  0  0
 23 24  4  0  0  0  0
 23 31  1  0  0  0  0
 24 25  4  0  0  0  0
 24 32  1  0  0  0  0
 25 26  4  0  0  0  0
 25 28  1  0  0  0  0
 26 27  4  0  0  0  0
 26 33  1  0  0  0  0
 27 34  1  0  0  0  0
 28 35  1  0  0  0  0
 28 36  1  0  0  0  0
M  END
> <BCLConfClusterSize>
1

> <ConfClashScore>
0 

> <ConfOneFourInteractionScore>
-0.966839 

> <ConfScore>
0.0875613 

> <ConfScorePBest>
0.00341932 

> <ConfTolerance>
0.466237 

> <RosettaParamsInstructions>
M  ROOT 3
M  POLY_N_BB 3
M  POLY_CA_BB 4
M  POLY_C_BB 2
M  POLY_O_BB 5
M  POLY_IGNORE 9 10 11 12 13 14 15 16 17 18 
M  POLY_UPPER 6
M  POLY_LOWER 8
M  POLY_CHG 0
M  POLY_PROPERTIES ALPHA_AA L_AA PROTEIN AROMATIC POLYMER 
M  END

$$$$



 36 36  0  0  0  0  0  0  0  0999 V2000
    0.4187    3.2187    2.2755 H   0  0  0  1  0  0  0  0  0  0  0  0
    0.6690    1.3164    1.3790 C   0  0  0  1  0  0  0  0  0  0  0  0
    0.6278    3.4761    0.2347 N   0  0  0  1  0  0  0  0  0  0  0  0
    0.1069    2.7349    1.3736 C   0  0  0  1  0  0  0  0  0  0  0  0
    0.0337    0.3653    1.7964 O   0  0  0  1  0  0  0  0  0  0  0  0
    1.9021    1.1048    0.9100 N   0  0  0  1  0  0  0  0  0  0  0  0
    1.0798    4.3310    0.3935 H   0  0  0  1  0  0  0  0  0  0  0  0
    0.5113    3.0324   -1.0179 C   0  0  0  1  0  0  0  0  0  0  0  0
    2.5454   -0.1989    0.9751 C   0  0  0  1  0  0  0  0  0  0  0  0
    1.2145    3.8584   -2.0774 C   0  0  0  1  0  0  0  0  0  0  0  0
   -0.1169    2.0280   -1.3114 O   0  0  0  1  0  0  0  0  0  0  0  0
    2.3902    1.8536    0.5082 H   0  0  0  1  0  0  0  0  0  0  0  0
    3.5498   -0.1199    0.6148 H   0  0  0  1  0  0  0  0  0  0  0  0
    2.0032   -0.8946    0.3694 H   0  0  0  1  0  0  0  0  0  0  0  0
    2.5563   -0.5407    1.9889 H   0  0  0  1  0  0  0  0  0  0  0  0
    1.1455    4.8960   -1.8254 H   0  0  0  1  0  0  0  0  0  0  0  0
    0.7501    3.6904   -3.0266 H   0  0  0  1  0  0  0  0  0  0  0  0
    2.2441    3.5716   -2.1277 H   0  0  0  1  0  0  0  0  0  0  0  0
   -4.1162    7.8132    0.4339 B   0  0  0  1  0  0  0  0  0  0  0  0
   -4.9568    7.9003   -0.6293 O   0  0  0  1  0  0  0  0  0  0  0  0
   -3.8276    8.8319    1.2714 O   0  0  0  1  0  0  0  0  0  0  0  0
   -3.4284    6.4189    0.7076 C   0  0  0  1  0  0  0  0  0  0  0  0
   -2.5329    6.2878    1.7521 C   0  0  0  1  0  0  0  0  0  0  0  0
   -1.8606    5.0906    1.9426 C   0  0  0  1  0  0  0  0  0  0  0  0
   -2.0820    4.0297    1.0847 C   0  0  0  1  0  0  0  0  0  0  0  0
   -2.9801    4.1612    0.0371 C   0  0  0  1  0  0  0  0  0  0  0  0
   -3.6503    5.3549   -0.1527 C   0  0  0  1  0  0  0  0  0  0  0  0
   -1.4158    2.7070    1.3538 C   0  0  0  1  0  0  0  0  0  0  0  0
   -5.8451    8.0933   -0.3206 H   0  0  0  1  0  0  0  0  0  0  0  0
   -3.6257    8.4831    2.1427 H   0  0  0  1  0  0  0  0  0  0  0  0
   -2.3634    7.0874    2.3952 H   0  0  0  1  0  0  0  0  0  0  0  0
   -1.1897    4.9906    2.7310 H   0  0  0  1  0  0  0  0  0  0  0  0
   -3.1497    3.3616   -0.6060 H   0  0  0  1  0  0  0  0  0  0  0  0
   -4.3212    5.4548   -0.9411 H   0  0  0  1  0  0  0  0  0  0  0  0
   -1.7519    2.3560    2.3071 H   0  0  0  1  0  0  0  0  0  0  0  0
   -1.7235    2.0214    0.5921 H   0  0  0  1  0  0  0  0  0  0  0  0
  1  4  1  0  0  0  0
  2  4  1  0  0  0  0
  2  5  2  0  0  0  0
  2  6  1  0  0  0  0
  3  4  1  0  0  0  0
  3  7  1  0  0  0  0
  3  8  1  0  0  0  0
  4 28  1  0  0  0  0
  6  9  1  0  0  0  0
  6 12  1  0  0  0  0
  8 10  1  0  0  0  0
  8 11  2  0  0  0  0
  9 13  1  0  0  0  0
  9 14  1  0  0  0  0
  9 15  1  0  0  0  0
 10 16  1  0  0  0  0
 10 17  1  0  0  0  0
 10 18  1  0  0  0  0
 19 20  1  0  0  0  0
 19 21  1  0  0  0  0
 19 22  1  0  0  0  0
 20 29  1  0  0  0  0
 21 30  1  0  0  0  0
 22 23  4  0  0  0  0
 22 27  4  0  0  0  0
 23 24  4  0  0  0  0
 23 31  1  0  0  0  0
 24 25  4  0  0  0  0
 24 32  1  0  0  0  0
 25 26  4  0  0  0  0
 25 28  1  0  0  0  0
 26 27  4  0  0  0  0
 26 33  1  0  0  0  0
 27 34  1  0  0  0  0
 28 35  1  0  0  0  0
 28 36  1  0  0  0  0
M  END
> <BCLConfClusterSize>
1

> <ConfClashScore>
0 

> <ConfOneFourInteractionScore>
-0.952319 

> <ConfScore>
0.101956 

> <ConfScorePBest>
0.00339084 

> <ConfTolerance>
0.468645 

> <RosettaParamsInstructions>
M  ROOT 3
M  POLY_N_BB 3
M  POLY_CA_BB 4
M  POLY_C_BB 2
M  POLY_O_BB 5
M  POLY_IGNORE 9 10 11 12 13 14 15 16 17 18 
M  POLY_UPPER 6
M  POLY_LOWER 8
M  POLY_CHG 0
M  POLY_PROPERTIES ALPHA_AA L_AA PROTEIN AROMATIC POLYMER 
M  END

$$$$



 36 36  0  0  0  0  0  0  0  0999 V2000
   -2.5018    1.0399    0.5937 H   0  0  0  1  0  0  0  0  0  0  0  0
   -1.9044    0.5751    2.5761 C   0  0  0  1  0  0  0  0  0  0  0  0
   -3.7090    2.0346    1.9593 N   0  0  0  1  0  0  0  0  0  0  0  0
   -2.4051    1.5540    1.5271 C   0  0  0  1  0  0  0  0  0  0  0  0
   -1.2902   -0.4331    2.2684 O   0  0  0  1  0  0  0  0  0  0  0  0
   -2.2025    0.9314    3.8288 N   0  0  0  1  0  0  0  0  0  0  0  0
   -3.8394    2.9974    2.0877 H   0  0  0  1  0  0  0  0  0  0  0  0
   -4.7431    1.2021    2.1889 C   0  0  0  1  0  0  0  0  0  0  0  0
   -1.9399    0.0637    4.9672 C   0  0  0  1  0  0  0  0  0  0  0  0
   -6.0180    1.9143    2.6221 C   0  0  0  1  0  0  0  0  0  0  0  0
   -4.6972   -0.0089    2.0710 O   0  0  0  1  0  0  0  0  0  0  0  0
   -2.6123    1.8075    3.9865 H   0  0  0  1  0  0  0  0  0  0  0  0
   -1.0771   -0.5367    4.7671 H   0  0  0  1  0  0  0  0  0  0  0  0
   -2.7849   -0.5711    5.1339 H   0  0  0  1  0  0  0  0  0  0  0  0
   -1.7645    0.6609    5.8375 H   0  0  0  1  0  0  0  0  0  0  0  0
   -6.8237    1.2114    2.6626 H   0  0  0  1  0  0  0  0  0  0  0  0
   -6.2525    2.6851    1.9180 H   0  0  0  1  0  0  0  0  0  0  0  0
   -5.8734    2.3468    3.5901 H   0  0  0  1  0  0  0  0  0  0  0  0
   -4.1183    7.8173    0.4332 B   0  0  0  1  0  0  0  0  0  0  0  0
   -3.8788    8.9077    1.2463 O   0  0  0  1  0  0  0  0  0  0  0  0
   -4.9789    7.9250   -0.6548 O   0  0  0  1  0  0  0  0  0  0  0  0
   -3.4286    6.4193    0.7075 C   0  0  0  1  0  0  0  0  0  0  0  0
   -2.5331    6.2881    1.7520 C   0  0  0  1  0  0  0  0  0  0  0  0
   -1.8607    5.0909    1.9426 C   0  0  0  1  0  0  0  0  0  0  0  0
   -2.0821    4.0301    1.0846 C   0  0  0  1  0  0  0  0  0  0  0  0
   -2.9803    4.1615    0.0370 C   0  0  0  1  0  0  0  0  0  0  0  0
   -3.6505    5.3552   -0.1528 C   0  0  0  1  0  0  0  0  0  0  0  0
   -1.4119    2.6994    1.3553 C   0  0  0  1  0  0  0  0  0  0  0  0
   -3.3025    8.6482    1.9689 H   0  0  0  1  0  0  0  0  0  0  0  0
   -5.0681    7.0684   -1.0789 H   0  0  0  1  0  0  0  0  0  0  0  0
   -2.3636    7.0877    2.3951 H   0  0  0  1  0  0  0  0  0  0  0  0
   -1.1899    4.9909    2.7309 H   0  0  0  1  0  0  0  0  0  0  0  0
   -3.1498    3.3620   -0.6061 H   0  0  0  1  0  0  0  0  0  0  0  0
   -4.3214    5.4552   -0.9411 H   0  0  0  1  0  0  0  0  0  0  0  0
   -0.7662    2.4699    0.5335 H   0  0  0  1  0  0  0  0  0  0  0  0
   -0.8331    2.7856    2.2511 H   0  0  0  1  0  0  0  0  0  0  0  0
  1  4  1  0  0  0  0
  2  4  1  0  0  0  0
  2  5  2  0  0  0  0
  2  6  1  0  0  0  0
  3  4  1  0  0  0  0
  3  7  1  0  0  0  0
  3  8  1  0  0  0  0
  4 28  1  0  0  0  0
  6  9  1  0  0  0  0
  6 12  1  0  0  0  0
  8 10  1  0  0  0  0
  8 11  2  0  0  0  0
  9 13  1  0  0  0  0
  9 14  1  0  0  0  0
  9 15  1  0  0  0  0
 10 16  1  0  0  0  0
 10 17  1  0  0  0  0
 10 18  1  0  0  0  0
 19 20  1  0  0  0  0
 19 21  1  0  0  0  0
 19 22  1  0  0  0  0
 20 29  1  0  0  0  0
 21 30  1  0  0  0  0
 22 23  4  0  0  0  0
 22 27  4  0  0  0  0
 23 24  4  0  0  0  0
 23 31  1  0  0  0  0
 24 25  4  0  0  0  0
 24 32  1  0  0  0  0
 25 26  4  0  0  0  0
 25 28  1  0  0  0  0
 26 27  4  0  0  0  0
 26 33  1  0  0  0  0
 27 34  1  0  0  0  0
 28 35  1  0  0  0  0
 28 36  1  0  0  0  0
M  END
> <BCLConfClusterSize>
1

> <ConfClashScore>
0 

> <ConfOneFourInteractionScore>
-0.944103 

> <ConfScore>
0.103957 

> <ConfScorePBest>
0.00336236 

> <ConfTolerance>
0.837459 

> <RosettaParamsInstructions>
M  ROOT 3
M  POLY_N_BB 3
M  POLY_CA_BB 4
M  POLY_C_BB 2
M  POLY_O_BB 5
M  POLY_IGNORE 9 10 11 12 13 14 15 16 17 18 
M  POLY_UPPER 6
M  POLY_LOWER 8
M  POLY_CHG 0
M  POLY_PROPERTIES ALPHA_AA L_AA PROTEIN AROMATIC POLYMER 
M  END

$$$$



 36 36  0  0  0  0  0  0  0  0999 V2000
    0.0235    3.5225    2.6876 H   0  0  0  1  0  0  0  0  0  0  0  0
   -1.6123    2.8433    3.8318 C   0  0  0  1  0  0  0  0  0  0  0  0
    0.1550    1.4629    2.7633 N   0  0  0  1  0  0  0  0  0  0  0  0
   -0.6372    2.6809    2.6820 C   0  0  0  1  0  0  0  0  0  0  0  0
   -2.5071    2.0228    4.0309 O   0  0  0  1  0  0  0  0  0  0  0  0
   -1.4306    3.9279    4.6018 N   0  0  0  1  0  0  0  0  0  0  0  0
    0.0607    0.7713    2.0754 H   0  0  0  1  0  0  0  0  0  0  0  0
    1.0179    1.2839    3.7825 C   0  0  0  1  0  0  0  0  0  0  0  0
   -2.2539    4.1981    5.7709 C   0  0  0  1  0  0  0  0  0  0  0  0
    1.6832   -0.0769    3.8511 C   0  0  0  1  0  0  0  0  0  0  0  0
    1.2611    2.1501    4.6072 O   0  0  0  1  0  0  0  0  0  0  0  0
   -0.7187    4.5597    4.3684 H   0  0  0  1  0  0  0  0  0  0  0  0
   -1.8715    5.0538    6.2871 H   0  0  0  1  0  0  0  0  0  0  0  0
   -2.2352    3.3504    6.4236 H   0  0  0  1  0  0  0  0  0  0  0  0
   -3.2604    4.3887    5.4618 H   0  0  0  1  0  0  0  0  0  0  0  0
    1.8195   -0.4582    2.8606 H   0  0  0  1  0  0  0  0  0  0  0  0
    1.0648   -0.7483    4.4094 H   0  0  0  1  0  0  0  0  0  0  0  0
    2.6348    0.0154    4.3316 H   0  0  0  1  0  0  0  0  0  0  0  0
   -4.1022    7.8391    0.4658 B   0  0  0  1  0  0  0  0  0  0  0  0
   -5.0094    7.9709   -0.5363 O   0  0  0  1  0  0  0  0  0  0  0  0
   -3.7897    8.9178    1.2393 O   0  0  0  1  0  0  0  0  0  0  0  0
   -3.4324    6.4153    0.7003 C   0  0  0  1  0  0  0  0  0  0  0  0
   -2.5375    6.2883    1.7460 C   0  0  0  1  0  0  0  0  0  0  0  0
   -1.8633    5.0928    1.9400 C   0  0  0  1  0  0  0  0  0  0  0  0
   -2.0820    4.0295    1.0846 C   0  0  0  1  0  0  0  0  0  0  0  0
   -2.9795    4.1567    0.0358 C   0  0  0  1  0  0  0  0  0  0  0  0
   -3.6516    5.3488   -0.1575 C   0  0  0  1  0  0  0  0  0  0  0  0
   -1.4097    2.7006    1.3591 C   0  0  0  1  0  0  0  0  0  0  0  0
   -5.3389    7.1046   -0.7863 H   0  0  0  1  0  0  0  0  0  0  0  0
   -3.2068    9.5040    0.7512 H   0  0  0  1  0  0  0  0  0  0  0  0
   -2.3700    7.0898    2.3872 H   0  0  0  1  0  0  0  0  0  0  0  0
   -1.1930    4.9959    2.7293 H   0  0  0  1  0  0  0  0  0  0  0  0
   -3.1470    3.3553   -0.6055 H   0  0  0  1  0  0  0  0  0  0  0  0
   -4.3219    5.4456   -0.9468 H   0  0  0  1  0  0  0  0  0  0  0  0
   -2.1609    1.9393    1.3919 H   0  0  0  1  0  0  0  0  0  0  0  0
   -0.7261    2.4938    0.5624 H   0  0  0  1  0  0  0  0  0  0  0  0
  1  4  1  0  0  0  0
  2  4  1  0  0  0  0
  2  5  2  0  0  0  0
  2  6  1  0  0  0  0
  3  4  1  0  0  0  0
  3  7  1  0  0  0  0
  3  8  1  0  0  0  0
  4 28  1  0  0  0  0
  6  9  1  0  0  0  0
  6 12  1  0  0  0  0
  8 10  1  0  0  0  0
  8 11  2  0  0  0  0
  9 13  1  0  0  0  0
  9 14  1  0  0  0  0
  9 15  1  0  0  0  0
 10 16  1  0  0  0  0
 10 17  1  0  0  0  0
 10 18  1  0  0  0  0
 19 20  1  0  0  0  0
 19 21  1  0  0  0  0
 19 22  1  0  0  0  0
 20 29  1  0  0  0  0
 21 30  1  0  0  0  0
 22 23  4  0  0  0  0
 22 27  4  0  0  0  0
 23 24  4  0  0  0  0
 23 31  1  0  0  0  0
 24 25  4  0  0  0  0
 24 32  1  0  0  0  0
 25 26  4  0  0  0  0
 25 28  1  0  0  0  0
 26 27  4  0  0  0  0
 26 33  1  0  0  0  0
 27 34  1  0  0  0  0
 28 35  1  0  0  0  0
 28 36  1  0  0  0  0
M  END
> <BCLConfClusterSize>
1

> <ConfClashScore>
0 

> <ConfOneFourInteractionScore>
-0.97201 

> <ConfScore>
0.105846 

> <ConfScorePBest>
0.00333388 

> <ConfTolerance>
0.609557 

> <RosettaParamsInstructions>
M  ROOT 3
M  POLY_N_BB 3
M  POLY_CA_BB 4
M  POLY_C_BB 2
M  POLY_O_BB 5
M  POLY_IGNORE 9 10 11 12 13 14 15 16 17 18 
M  POLY_UPPER 6
M  POLY_LOWER 8
M  POLY_CHG 0
M  POLY_PROPERTIES ALPHA_AA L_AA PROTEIN AROMATIC POLYMER 
M  END

$$$$



 36 36  0  0  0  0  0  0  0  0999 V2000
   -2.9298    1.6602    2.3480 H   0  0  0  1  0  0  0  0  0  0  0  0
   -1.1231    0.8744    3.0560 C   0  0  0  1  0  0  0  0  0  0  0  0
   -2.1600    3.0051    3.6897 N   0  0  0  1  0  0  0  0  0  0  0  0
   -1.9681    2.0509    2.6077 C   0  0  0  1  0  0  0  0  0  0  0  0
    0.0772    0.9907    3.2402 O   0  0  0  1  0  0  0  0  0  0  0  0
   -1.7767   -0.2753    3.2306 N   0  0  0  1  0  0  0  0  0  0  0  0
   -1.4003    3.5535    3.9770 H   0  0  0  1  0  0  0  0  0  0  0  0
   -3.3340    3.1592    4.3039 C   0  0  0  1  0  0  0  0  0  0  0  0
   -1.1060   -1.4933    3.6600 C   0  0  0  1  0  0  0  0  0  0  0  0
   -3.4191    4.3150    5.2818 C   0  0  0  1  0  0  0  0  0  0  0  0
   -4.2970    2.4211    4.1029 O   0  0  0  1  0  0  0  0  0  0  0  0
   -2.7421   -0.3005    3.0640 H   0  0  0  1  0  0  0  0  0  0  0  0
   -0.0491   -1.3820    3.5354 H   0  0  0  1  0  0  0  0  0  0  0  0
   -1.4498   -2.3167    3.0695 H   0  0  0  1  0  0  0  0  0  0  0  0
   -1.3259   -1.6768    4.6910 H   0  0  0  1  0  0  0  0  0  0  0  0
   -4.0317    4.0350    6.1132 H   0  0  0  1  0  0  0  0  0  0  0  0
   -3.8483    5.1645    4.7930 H   0  0  0  1  0  0  0  0  0  0  0  0
   -2.4374    4.5609    5.6292 H   0  0  0  1  0  0  0  0  0  0  0  0
   -4.0990    7.8206    0.4085 B   0  0  0  1  0  0  0  0  0  0  0  0
   -3.7325    8.9726    1.0306 O   0  0  0  1  0  0  0  0  0  0  0  0
   -5.0834    7.8551   -0.5286 O   0  0  0  1  0  0  0  0  0  0  0  0
   -3.4360    6.4168    0.7156 C   0  0  0  1  0  0  0  0  0  0  0  0
   -2.5377    6.2858    1.7578 C   0  0  0  1  0  0  0  0  0  0  0  0
   -1.8607    5.0905    1.9434 C   0  0  0  1  0  0  0  0  0  0  0  0
   -2.0801    4.0314    1.0829 C   0  0  0  1  0  0  0  0  0  0  0  0
   -2.9810    4.1626    0.0376 C   0  0  0  1  0  0  0  0  0  0  0  0
   -3.6559    5.3544   -0.1473 C   0  0  0  1  0  0  0  0  0  0  0  0
   -1.4046    2.7023    1.3483 C   0  0  0  1  0  0  0  0  0  0  0  0
   -4.1713    9.0303    1.8826 H   0  0  0  1  0  0  0  0  0  0  0  0
   -5.9009    8.1540   -0.1237 H   0  0  0  1  0  0  0  0  0  0  0  0
   -2.3697    7.0841    2.4028 H   0  0  0  1  0  0  0  0  0  0  0  0
   -1.1877    4.9906    2.7300 H   0  0  0  1  0  0  0  0  0  0  0  0
   -3.1491    3.3643   -0.6074 H   0  0  0  1  0  0  0  0  0  0  0  0
   -4.3288    5.4542   -0.9339 H   0  0  0  1  0  0  0  0  0  0  0  0
   -1.5684    2.0527    0.5140 H   0  0  0  1  0  0  0  0  0  0  0  0
   -0.3543    2.8619    1.4758 H   0  0  0  1  0  0  0  0  0  0  0  0
  1  4  1  0  0  0  0
  2  4  1  0  0  0  0
  2  5  2  0  0  0  0
  2  6  1  0  0  0  0
  3  4  1  0  0  0  0
  3  7  1  0  0  0  0
  3  8  1  0  0  0  0
  4 28  1  0  0  0  0
  6  9  1  0  0  0  0
  6 12  1  0  0  0  0
  8 10  1  0  0  0  0
  8 11  2  0  0  0  0
  9 13  1  0  0  0  0
  9 14  1  0  0  0  0
  9 15  1  0  0  0  0
 10 16  1  0  0  0  0
 10 17  1  0  0  0  0
 10 18  1  0  0  0  0
 19 20  1  0  0  0  0
 19 21  1  0  0  0  0
 19 22  1  0  0  0  0
 20 29  1  0  0  0  0
 21 30  1  0  0  0  0
 22 23  4  0  0  0  0
 22 27  4  0  0  0  0
 23 24  4  0  0  0  0
 23 31  1  0  0  0  0
 24 25  4  0  0  0  0
 24 32  1  0  0  0  0
 25 26  4  0  0  0  0
 25 28  1  0  0  0  0
 26 27  4  0  0  0  0
 26 33  1  0  0  0  0
 27 34  1  0  0  0  0
 28 35  1  0  0  0  0
 28 36  1  0  0  0  0
M  END
> <BCLConfClusterSize>
1

> <ConfClashScore>
0 

> <ConfOneFourInteractionScore>
-0.965687 

> <ConfScore>
0.10921 

> <ConfScorePBest>
0.0033054 

> <ConfTolerance>
0.637449 

> <RosettaParamsInstructions>
M  ROOT 3
M  POLY_N_BB 3
M  POLY_CA_BB 4
M  POLY_C_BB 2
M  POLY_O_BB 5
M  POLY_IGNORE 9 10 11 12 13 14 15 16 17 18 
M  POLY_UPPER 6
M  POLY_LOWER 8
M  POLY_CHG 0
M  POLY_PROPERTIES ALPHA_AA L_AA PROTEIN AROMATIC POLYMER 
M  END

$$$$



 36 36  0  0  0  0  0  0  0  0999 V2000
   -3.1918    1.5807    1.5751 H   0  0  0  1  0  0  0  0  0  0  0  0
   -1.6560    0.3861    2.3746 C   0  0  0  1  0  0  0  0  0  0  0  0
   -2.6752    2.3038    3.4335 N   0  0  0  1  0  0  0  0  0  0  0  0
   -2.3006    1.7393    2.1455 C   0  0  0  1  0  0  0  0  0  0  0  0
   -1.0139   -0.1661    1.4964 O   0  0  0  1  0  0  0  0  0  0  0  0
   -1.8405   -0.1493    3.5917 N   0  0  0  1  0  0  0  0  0  0  0  0
   -3.6074    2.2335    3.7276 H   0  0  0  1  0  0  0  0  0  0  0  0
   -1.7837    2.9204    4.2369 C   0  0  0  1  0  0  0  0  0  0  0  0
   -1.1513   -1.3273    4.0970 C   0  0  0  1  0  0  0  0  0  0  0  0
   -2.2785    3.4718    5.5599 C   0  0  0  1  0  0  0  0  0  0  0  0
   -0.5965    3.0339    3.9061 O   0  0  0  1  0  0  0  0  0  0  0  0
   -2.4881    0.2859    4.1847 H   0  0  0  1  0  0  0  0  0  0  0  0
   -1.6273   -1.6618    4.9950 H   0  0  0  1  0  0  0  0  0  0  0  0
   -0.1309   -1.0815    4.3048 H   0  0  0  1  0  0  0  0  0  0  0  0
   -1.1891   -2.1046    3.3627 H   0  0  0  1  0  0  0  0  0  0  0  0
   -1.8752    4.4512    5.7119 H   0  0  0  1  0  0  0  0  0  0  0  0
   -1.9623    2.8289    6.3546 H   0  0  0  1  0  0  0  0  0  0  0  0
   -3.3471    3.5245    5.5468 H   0  0  0  1  0  0  0  0  0  0  0  0
   -4.1178    7.8165    0.4333 B   0  0  0  1  0  0  0  0  0  0  0  0
   -4.3309    8.2443   -0.8380 O   0  0  0  1  0  0  0  0  0  0  0  0
   -4.5114    8.6184    1.4586 O   0  0  0  1  0  0  0  0  0  0  0  0
   -3.4283    6.4186    0.7076 C   0  0  0  1  0  0  0  0  0  0  0  0
   -2.5327    6.2875    1.7522 C   0  0  0  1  0  0  0  0  0  0  0  0
   -1.8604    5.0903    1.9427 C   0  0  0  1  0  0  0  0  0  0  0  0
   -2.0818    4.0295    1.0848 C   0  0  0  1  0  0  0  0  0  0  0  0
   -2.9800    4.1609    0.0372 C   0  0  0  1  0  0  0  0  0  0  0  0
   -3.6502    5.3546   -0.1526 C   0  0  0  1  0  0  0  0  0  0  0  0
   -1.4156    2.7067    1.3539 C   0  0  0  1  0  0  0  0  0  0  0  0
   -4.9340    7.6433   -1.2816 H   0  0  0  1  0  0  0  0  0  0  0  0
   -5.2879    9.1177    1.1951 H   0  0  0  1  0  0  0  0  0  0  0  0
   -2.3632    7.0871    2.3952 H   0  0  0  1  0  0  0  0  0  0  0  0
   -1.1896    4.9903    2.7311 H   0  0  0  1  0  0  0  0  0  0  0  0
   -3.1495    3.3613   -0.6059 H   0  0  0  1  0  0  0  0  0  0  0  0
   -4.3210    5.4545   -0.9410 H   0  0  0  1  0  0  0  0  0  0  0  0
   -1.1685    2.2530    0.4169 H   0  0  0  1  0  0  0  0  0  0  0  0
   -0.5202    2.8837    1.9122 H   0  0  0  1  0  0  0  0  0  0  0  0
  1  4  1  0  0  0  0
  2  4  1  0  0  0  0
  2  5  2  0  0  0  0
  2  6  1  0  0  0  0
  3  4  1  0  0  0  0
  3  7  1  0  0  0  0
  3  8  1  0  0  0  0
  4 28  1  0  0  0  0
  6  9  1  0  0  0  0
  6 12  1  0  0  0  0
  8 10  1  0  0  0  0
  8 11  2  0  0  0  0
  9 13  1  0  0  0  0
  9 14  1  0  0  0  0
  9 15  1  0  0  0  0
 10 16  1  0  0  0  0
 10 17  1  0  0  0  0
 10 18  1  0  0  0  0
 19 20  1  0  0  0  0
 19 21  1  0  0  0  0
 19 22  1  0  0  0  0
 20 29  1  0  0  0  0
 21 30  1  0  0  0  0
 22 23  4  0  0  0  0
 22 27  4  0  0  0  0
 23 24  4  0  0  0  0
 23 31  1  0  0  0  0
 24 25  4  0  0  0  0
 24 32  1  0  0  0  0
 25 26  4  0  0  0  0
 25 28  1  0  0  0  0
 26 27  4  0  0  0  0
 26 33  1  0  0  0  0
 27 34  1  0  0  0  0
 28 35  1  0  0  0  0
 28 36  1  0  0  0  0
M  END
> <BCLConfClusterSize>
1

> <ConfClashScore>
0 

> <ConfOneFourInteractionScore>
-0.952293 

> <ConfScore>
0.109407 

> <ConfScorePBest>
0.00327691 

> <ConfTolerance>
0.46157 

> <RosettaParamsInstructions>
M  ROOT 3
M  POLY_N_BB 3
M  POLY_CA_BB 4
M  POLY_C_BB 2
M  POLY_O_BB 5
M  POLY_IGNORE 9 10 11 12 13 14 15 16 17 18 
M  POLY_UPPER 6
M  POLY_LOWER 8
M  POLY_CHG 0
M  POLY_PROPERTIES ALPHA_AA L_AA PROTEIN AROMATIC POLYMER 
M  END

$$$$



 36 36  0  0  0  0  0  0  0  0999 V2000
    0.2998    1.5448    0.9387 H   0  0  0  1  0  0  0  0  0  0  0  0
   -0.4863    2.2308   -0.8986 C   0  0  0  1  0  0  0  0  0  0  0  0
    0.7959    3.5434    0.7835 N   0  0  0  1  0  0  0  0  0  0  0  0
   -0.1375    2.4480    0.5673 C   0  0  0  1  0  0  0  0  0  0  0  0
   -0.9136    3.1249   -1.6061 O   0  0  0  1  0  0  0  0  0  0  0  0
   -0.3196    1.0176   -1.4329 N   0  0  0  1  0  0  0  0  0  0  0  0
    0.5107    4.3377    1.2816 H   0  0  0  1  0  0  0  0  0  0  0  0
    2.0530    3.4677    0.2995 C   0  0  0  1  0  0  0  0  0  0  0  0
   -0.7089    0.7106   -2.8012 C   0  0  0  1  0  0  0  0  0  0  0  0
    3.0014    4.6130    0.5965 C   0  0  0  1  0  0  0  0  0  0  0  0
    2.4237    2.4933   -0.3675 O   0  0  0  1  0  0  0  0  0  0  0  0
    0.0786    0.3099   -0.8843 H   0  0  0  1  0  0  0  0  0  0  0  0
   -0.1309    1.3039   -3.4786 H   0  0  0  1  0  0  0  0  0  0  0  0
   -1.7480    0.9289   -2.9336 H   0  0  0  1  0  0  0  0  0  0  0  0
   -0.5339   -0.3266   -2.9973 H   0  0  0  1  0  0  0  0  0  0  0  0
    2.4389    5.5061    0.7721 H   0  0  0  1  0  0  0  0  0  0  0  0
    3.6538    4.7611   -0.2385 H   0  0  0  1  0  0  0  0  0  0  0  0
    3.5806    4.3799    1.4655 H   0  0  0  1  0  0  0  0  0  0  0  0
   -4.1215    7.8238    0.4319 B   0  0  0  1  0  0  0  0  0  0  0  0
   -5.0197    8.0127   -0.5577 O   0  0  0  1  0  0  0  0  0  0  0  0
   -3.7233    8.9035    1.1647 O   0  0  0  1  0  0  0  0  0  0  0  0
   -3.4279    6.4179    0.7078 C   0  0  0  1  0  0  0  0  0  0  0  0
   -2.5324    6.2867    1.7523 C   0  0  0  1  0  0  0  0  0  0  0  0
   -1.8600    5.0895    1.9428 C   0  0  0  1  0  0  0  0  0  0  0  0
   -2.0814    4.0287    1.0849 C   0  0  0  1  0  0  0  0  0  0  0  0
   -2.9796    4.1601    0.0373 C   0  0  0  1  0  0  0  0  0  0  0  0
   -3.6498    5.3538   -0.1525 C   0  0  0  1  0  0  0  0  0  0  0  0
   -1.4158    2.7071    1.3538 C   0  0  0  1  0  0  0  0  0  0  0  0
   -5.8276    8.3799   -0.1914 H   0  0  0  1  0  0  0  0  0  0  0  0
   -3.9180    8.7508    2.0922 H   0  0  0  1  0  0  0  0  0  0  0  0
   -2.3629    7.0863    2.3954 H   0  0  0  1  0  0  0  0  0  0  0  0
   -1.1892    4.9895    2.7312 H   0  0  0  1  0  0  0  0  0  0  0  0
   -3.1491    3.3605   -0.6058 H   0  0  0  1  0  0  0  0  0  0  0  0
   -4.3207    5.4537   -0.9409 H   0  0  0  1  0  0  0  0  0  0  0  0
   -1.1767    2.6638    2.3958 H   0  0  0  1  0  0  0  0  0  0  0  0
   -2.1132    1.9316    1.1149 H   0  0  0  1  0  0  0  0  0  0  0  0
  1  4  1  0  0  0  0
  2  4  1  0  0  0  0
  2  5  2  0  0  0  0
  2  6  1  0  0  0  0
  3  4  1  0  0  0  0
  3  7  1  0  0  0  0
  3  8  1  0  0  0  0
  4 28  1  0  0  0  0
  6  9  1  0  0  0  0
  6 12  1  0  0  0  0
  8 10  1  0  0  0  0
  8 11  2  0  0  0  0
  9 13  1  0  0  0  0
  9 14  1  0  0  0  0
  9 15  1  0  0  0  0
 10 16  1  0  0  0  0
 10 17  1  0  0  0  0
 10 18  1  0  0  0  0
 19 20  1  0  0  0  0
 19 21  1  0  0  0  0
 19 22  1  0  0  0  0
 20 29  1  0  0  0  0
 21 30  1  0  0  0  0
 22 23  4  0  0  0  0
 22 27  4  0  0  0  0
 23 24  4  0  0  0  0
 23 31  1  0  0  0  0
 24 25  4  0  0  0  0
 24 32  1  0  0  0  0
 25 26  4  0  0  0  0
 25 28  1  0  0  0  0
 26 27  4  0  0  0  0
 26 33  1  0  0  0  0
 27 34  1  0  0  0  0
 28 35  1  0  0  0  0
 28 36  1  0  0  0  0
M  END
> <BCLConfClusterSize>
1

> <ConfClashScore>
0 

> <ConfOneFourInteractionScore>
-0.981406 

> <ConfScore>
0.11083 

> <ConfScorePBest>
0.00324843 

> <ConfTolerance>
0.601279 

> <RosettaParamsInstructions>
M  ROOT 3
M  POLY_N_BB 3
M  POLY_CA_BB 4
M  POLY_C_BB 2
M  POLY_O_BB 5
M  POLY_IGNORE 9 10 11 12 13 14 15 16 17 18 
M  POLY_UPPER 6
M  POLY_LOWER 8
M  POLY_CHG 0
M  POLY_PROPERTIES ALPHA_AA L_AA PROTEIN AROMATIC POLYMER 
M  END

$$$$



 36 36  0  0  0  0  0  0  0  0999 V2000
   -2.8601    2.3156    2.8438 H   0  0  0  1  0  0  0  0  0  0  0  0
   -1.6005    0.6301    2.8209 C   0  0  0  1  0  0  0  0  0  0  0  0
   -1.0702    2.9018    3.7006 N   0  0  0  1  0  0  0  0  0  0  0  0
   -1.8164    2.1264    2.7034 C   0  0  0  1  0  0  0  0  0  0  0  0
   -0.6014    0.1705    3.3724 O   0  0  0  1  0  0  0  0  0  0  0  0
   -2.5552   -0.1361    2.2924 N   0  0  0  1  0  0  0  0  0  0  0  0
   -0.3201    3.4664    3.4197 H   0  0  0  1  0  0  0  0  0  0  0  0
   -1.4146    2.8392    5.0036 C   0  0  0  1  0  0  0  0  0  0  0  0
   -2.5981   -1.5901    2.2487 C   0  0  0  1  0  0  0  0  0  0  0  0
   -0.4604    3.5132    5.9703 C   0  0  0  1  0  0  0  0  0  0  0  0
   -2.4255    2.2802    5.3977 O   0  0  0  1  0  0  0  0  0  0  0  0
   -3.3143    0.3332    1.8875 H   0  0  0  1  0  0  0  0  0  0  0  0
   -3.6165   -1.9181    2.2664 H   0  0  0  1  0  0  0  0  0  0  0  0
   -2.0808   -1.9876    3.0968 H   0  0  0  1  0  0  0  0  0  0  0  0
   -2.1286   -1.9337    1.3507 H   0  0  0  1  0  0  0  0  0  0  0  0
   -0.1050    2.7957    6.6800 H   0  0  0  1  0  0  0  0  0  0  0  0
   -0.9711    4.3005    6.4844 H   0  0  0  1  0  0  0  0  0  0  0  0
    0.3682    3.9191    5.4284 H   0  0  0  1  0  0  0  0  0  0  0  0
   -4.1047    7.8375    0.4624 B   0  0  0  1  0  0  0  0  0  0  0  0
   -4.5197    8.5970    1.4989 O   0  0  0  1  0  0  0  0  0  0  0  0
   -4.2932    8.3538   -0.7815 O   0  0  0  1  0  0  0  0  0  0  0  0
   -3.4323    6.4155    0.7006 C   0  0  0  1  0  0  0  0  0  0  0  0
   -2.5380    6.2926    1.7473 C   0  0  0  1  0  0  0  0  0  0  0  0
   -1.8617    5.0987    1.9446 C   0  0  0  1  0  0  0  0  0  0  0  0
   -2.0777    4.0331    1.0913 C   0  0  0  1  0  0  0  0  0  0  0  0
   -2.9746    4.1563    0.0416 C   0  0  0  1  0  0  0  0  0  0  0  0
   -3.6488    5.3466   -0.1550 C   0  0  0  1  0  0  0  0  0  0  0  0
   -1.4292    2.6831    1.3270 C   0  0  0  1  0  0  0  0  0  0  0  0
   -4.3634    9.5231    1.3003 H   0  0  0  1  0  0  0  0  0  0  0  0
   -3.8331    9.1933   -0.8530 H   0  0  0  1  0  0  0  0  0  0  0  0
   -2.3726    7.0958    2.3869 H   0  0  0  1  0  0  0  0  0  0  0  0
   -1.1918    5.0050    2.7345 H   0  0  0  1  0  0  0  0  0  0  0  0
   -3.1401    3.3531   -0.5980 H   0  0  0  1  0  0  0  0  0  0  0  0
   -4.3187    5.4404   -0.9449 H   0  0  0  1  0  0  0  0  0  0  0  0
   -1.7532    2.0011    0.5689 H   0  0  0  1  0  0  0  0  0  0  0  0
   -0.3658    2.7916    1.2790 H   0  0  0  1  0  0  0  0  0  0  0  0
  1  4  1  0  0  0  0
  2  4  1  0  0  0  0
  2  5  2  0  0  0  0
  2  6  1  0  0  0  0
  3  4  1  0  0  0  0
  3  7  1  0  0  0  0
  3  8  1  0  0  0  0
  4 28  1  0  0  0  0
  6  9  1  0  0  0  0
  6 12  1  0  0  0  0
  8 10  1  0  0  0  0
  8 11  2  0  0  0  0
  9 13  1  0  0  0  0
  9 14  1  0  0  0  0
  9 15  1  0  0  0  0
 10 16  1  0  0  0  0
 10 17  1  0  0  0  0
 10 18  1  0  0  0  0
 19 20  1  0  0  0  0
 19 21  1  0  0  0  0
 19 22  1  0  0  0  0
 20 29  1  0  0  0  0
 21 30  1  0  0  0  0
 22 23  4  0  0  0  0
 22 27  4  0  0  0  0
 23 24  4  0  0  0  0
 23 31  1  0  0  0  0
 24 25  4  0  0  0  0
 24 32  1  0  0  0  0
 25 26  4  0  0  0  0
 25 28  1  0  0  0  0
 26 27  4  0  0  0  0
 26 33  1  0  0  0  0
 27 34  1  0  0  0  0
 28 35  1  0  0  0  0
 28 36  1  0  0  0  0
M  END
> <BCLConfClusterSize>
1

> <ConfClashScore>
0 

> <ConfOneFourInteractionScore>
-0.977014 

> <ConfScore>
0.116166 

> <ConfScorePBest>
0.00321995 

> <ConfTolerance>
0.726143 

> <RosettaParamsInstructions>
M  ROOT 3
M  POLY_N_BB 3
M  POLY_CA_BB 4
M  POLY_C_BB 2
M  POLY_O_BB 5
M  POLY_IGNORE 9 10 11 12 13 14 15 16 17 18 
M  POLY_UPPER 6
M  POLY_LOWER 8
M  POLY_CHG 0
M  POLY_PROPERTIES ALPHA_AA L_AA PROTEIN AROMATIC POLYMER 
M  END

$$$$



 36 36  0  0  0  0  0  0  0  0999 V2000
   -1.2274    3.4117    3.3476 H   0  0  0  1  0  0  0  0  0  0  0  0
   -0.8105    1.3424    3.3538 C   0  0  0  1  0  0  0  0  0  0  0  0
    0.6638    3.1771    2.5515 N   0  0  0  1  0  0  0  0  0  0  0  0
   -0.7073    2.7191    2.7195 C   0  0  0  1  0  0  0  0  0  0  0  0
   -1.8922    0.8041    3.5265 O   0  0  0  1  0  0  0  0  0  0  0  0
    0.3481    0.7755    3.7020 N   0  0  0  1  0  0  0  0  0  0  0  0
    1.0664    3.1474    1.6585 H   0  0  0  1  0  0  0  0  0  0  0  0
    1.3990    3.6406    3.5811 C   0  0  0  1  0  0  0  0  0  0  0  0
    0.3565   -0.5065    4.3882 C   0  0  0  1  0  0  0  0  0  0  0  0
    2.7890    4.0956    3.1812 C   0  0  0  1  0  0  0  0  0  0  0  0
    1.0137    3.7022    4.7376 O   0  0  0  1  0  0  0  0  0  0  0  0
    1.1941    1.2245    3.4945 H   0  0  0  1  0  0  0  0  0  0  0  0
   -0.1591   -1.2326    3.7949 H   0  0  0  1  0  0  0  0  0  0  0  0
   -0.1326   -0.4074    5.3347 H   0  0  0  1  0  0  0  0  0  0  0  0
    1.3673   -0.8230    4.5399 H   0  0  0  1  0  0  0  0  0  0  0  0
    2.7863    4.3901    2.1525 H   0  0  0  1  0  0  0  0  0  0  0  0
    3.4810    3.2913    3.3198 H   0  0  0  1  0  0  0  0  0  0  0  0
    3.0807    4.9265    3.7890 H   0  0  0  1  0  0  0  0  0  0  0  0
   -4.0990    7.8325    0.4669 B   0  0  0  1  0  0  0  0  0  0  0  0
   -3.7902    8.9040    1.2532 O   0  0  0  1  0  0  0  0  0  0  0  0
   -4.8545    8.0912   -0.6383 O   0  0  0  1  0  0  0  0  0  0  0  0
   -3.4327    6.4159    0.7002 C   0  0  0  1  0  0  0  0  0  0  0  0
   -2.5378    6.2889    1.7459 C   0  0  0  1  0  0  0  0  0  0  0  0
   -1.8636    5.0933    1.9399 C   0  0  0  1  0  0  0  0  0  0  0  0
   -2.0823    4.0300    1.0845 C   0  0  0  1  0  0  0  0  0  0  0  0
   -2.9798    4.1573    0.0357 C   0  0  0  1  0  0  0  0  0  0  0  0
   -3.6519    5.3494   -0.1576 C   0  0  0  1  0  0  0  0  0  0  0  0
   -1.4101    2.7012    1.3590 C   0  0  0  1  0  0  0  0  0  0  0  0
   -4.4895    9.0418    1.8963 H   0  0  0  1  0  0  0  0  0  0  0  0
   -5.7474    8.3196   -0.3699 H   0  0  0  1  0  0  0  0  0  0  0  0
   -2.3703    7.0904    2.3871 H   0  0  0  1  0  0  0  0  0  0  0  0
   -1.1932    4.9965    2.7292 H   0  0  0  1  0  0  0  0  0  0  0  0
   -3.1473    3.3559   -0.6056 H   0  0  0  1  0  0  0  0  0  0  0  0
   -4.3222    5.4462   -0.9469 H   0  0  0  1  0  0  0  0  0  0  0  0
   -2.1488    1.9271    1.3559 H   0  0  0  1  0  0  0  0  0  0  0  0
   -0.6877    2.5087    0.5935 H   0  0  0  1  0  0  0  0  0  0  0  0
  1  4  1  0  0  0  0
  2  4  1  0  0  0  0
  2  5  2  0  0  0  0
  2  6  1  0  0  0  0
  3  4  1  0  0  0  0
  3  7  1  0  0  0  0
  3  8  1  0  0  0  0
  4 28  1  0  0  0  0
  6  9  1  0  0  0  0
  6 12  1  0  0  0  0
  8 10  1  0  0  0  0
  8 11  2  0  0  0  0
  9 13  1  0  0  0  0
  9 14  1  0  0  0  0
  9 15  1  0  0  0  0
 10 16  1  0  0  0  0
 10 17  1  0  0  0  0
 10 18  1  0  0  0  0
 19 20  1  0  0  0  0
 19 21  1  0  0  0  0
 19 22  1  0  0  0  0
 20 29  1  0  0  0  0
 21 30  1  0  0  0  0
 22 23  4  0  0  0  0
 22 27  4  0  0  0  0
 23 24  4  0  0  0  0
 23 31  1  0  0  0  0
 24 25  4  0  0  0  0
 24 32  1  0  0  0  0
 25 26  4  0  0  0  0
 25 28  1  0  0  0  0
 26 27  4  0  0  0  0
 26 33  1  0  0  0  0
 27 34  1  0  0  0  0
 28 35  1  0  0  0  0
 28 36  1  0  0  0  0
M  END
> <BCLConfClusterSize>
1

> <ConfClashScore>
0 

> <ConfOneFourInteractionScore>
-0.954416 

> <ConfScore>
0.119788 

> <ConfScorePBest>
0.00319147 

> <ConfTolerance>
0.78209 

> <RosettaParamsInstructions>
M  ROOT 3
M  POLY_N_BB 3
M  POLY_CA_BB 4
M  POLY_C_BB 2
M  POLY_O_BB 5
M  POLY_IGNORE 9 10 11 12 13 14 15 16 17 18 
M  POLY_UPPER 6
M  POLY_LOWER 8
M  POLY_CHG 0
M  POLY_PROPERTIES ALPHA_AA L_AA PROTEIN AROMATIC POLYMER 
M  END

$$$$



 36 36  0  0  0  0  0  0  0  0999 V2000
   -0.7134    2.5031   -0.6095 H   0  0  0  1  0  0  0  0  0  0  0  0
    0.7691    3.5673    0.4169 C   0  0  0  1  0  0  0  0  0  0  0  0
    0.2784    1.1194    0.5182 N   0  0  0  1  0  0  0  0  0  0  0  0
   -0.2768    2.4560    0.3662 C   0  0  0  1  0  0  0  0  0  0  0  0
    1.6905    3.5339    1.2316 O   0  0  0  1  0  0  0  0  0  0  0  0
    0.5522    4.5916   -0.4232 N   0  0  0  1  0  0  0  0  0  0  0  0
    1.0918    1.0031    1.0524 H   0  0  0  1  0  0  0  0  0  0  0  0
   -0.2821    0.0454   -0.0452 C   0  0  0  1  0  0  0  0  0  0  0  0
    1.4203    5.7588   -0.4665 C   0  0  0  1  0  0  0  0  0  0  0  0
    0.5104   -1.2430    0.0603 C   0  0  0  1  0  0  0  0  0  0  0  0
   -1.3689    0.0803   -0.6162 O   0  0  0  1  0  0  0  0  0  0  0  0
   -0.2176    4.5520   -1.0285 H   0  0  0  1  0  0  0  0  0  0  0  0
    1.3258    6.3083    0.4468 H   0  0  0  1  0  0  0  0  0  0  0  0
    1.1379    6.3827   -1.2887 H   0  0  0  1  0  0  0  0  0  0  0  0
    2.4354    5.4437   -0.5895 H   0  0  0  1  0  0  0  0  0  0  0  0
    1.1218   -1.2154    0.9379 H   0  0  0  1  0  0  0  0  0  0  0  0
    1.1320   -1.3508   -0.8040 H   0  0  0  1  0  0  0  0  0  0  0  0
   -0.1634   -2.0719    0.1212 H   0  0  0  1  0  0  0  0  0  0  0  0
   -4.1435    7.8100    0.3943 B   0  0  0  1  0  0  0  0  0  0  0  0
   -3.3678    8.7508   -0.2039 O   0  0  0  1  0  0  0  0  0  0  0  0
   -5.4132    8.0743    0.7502 O   0  0  0  1  0  0  0  0  0  0  0  0
   -3.4240    6.4220    0.7158 C   0  0  0  1  0  0  0  0  0  0  0  0
   -2.5276    6.2863    1.7590 C   0  0  0  1  0  0  0  0  0  0  0  0
   -1.8572    5.0874    1.9455 C   0  0  0  1  0  0  0  0  0  0  0  0
   -2.0814    4.0294    1.0849 C   0  0  0  1  0  0  0  0  0  0  0  0
   -2.9804    4.1653    0.0386 C   0  0  0  1  0  0  0  0  0  0  0  0
   -3.6487    5.3607   -0.1472 C   0  0  0  1  0  0  0  0  0  0  0  0
   -1.4133    2.6967    1.3512 C   0  0  0  1  0  0  0  0  0  0  0  0
   -3.7773    9.0278   -1.0268 H   0  0  0  1  0  0  0  0  0  0  0  0
   -5.4549    8.2302    1.6965 H   0  0  0  1  0  0  0  0  0  0  0  0
   -2.3560    7.0838    2.4041 H   0  0  0  1  0  0  0  0  0  0  0  0
   -1.1857    4.9841    2.7329 H   0  0  0  1  0  0  0  0  0  0  0  0
   -3.1520    3.3678   -0.6065 H   0  0  0  1  0  0  0  0  0  0  0  0
   -4.3202    5.4640   -0.9346 H   0  0  0  1  0  0  0  0  0  0  0  0
   -1.0213    2.6936    2.3468 H   0  0  0  1  0  0  0  0  0  0  0  0
   -2.1369    1.9151    1.2498 H   0  0  0  1  0  0  0  0  0  0  0  0
  1  4  1  0  0  0  0
  2  4  1  0  0  0  0
  2  5  2  0  0  0  0
  2  6  1  0  0  0  0
  3  4  1  0  0  0  0
  3  7  1  0  0  0  0
  3  8  1  0  0  0  0
  4 28  1  0  0  0  0
  6  9  1  0  0  0  0
  6 12  1  0  0  0  0
  8 10  1  0  0  0  0
  8 11  2  0  0  0  0
  9 13  1  0  0  0  0
  9 14  1  0  0  0  0
  9 15  1  0  0  0  0
 10 16  1  0  0  0  0
 10 17  1  0  0  0  0
 10 18  1  0  0  0  0
 19 20  1  0  0  0  0
 19 21  1  0  0  0  0
 19 22  1  0  0  0  0
 20 29  1  0  0  0  0
 21 30  1  0  0  0  0
 22 23  4  0  0  0  0
 22 27  4  0  0  0  0
 23 24  4  0  0  0  0
 23 31  1  0  0  0  0
 24 25  4  0  0  0  0
 24 32  1  0  0  0  0
 25 26  4  0  0  0  0
 25 28  1  0  0  0  0
 26 27  4  0  0  0  0
 26 33  1  0  0  0  0
 27 34  1  0  0  0  0
 28 35  1  0  0  0  0
 28 36  1  0  0  0  0
M  END
> <BCLConfClusterSize>
1

> <ConfClashScore>
0 

> <ConfOneFourInteractionScore>
-0.992613 

> <ConfScore>
0.123089 

> <ConfScorePBest>
0.00316299 

> <ConfTolerance>
0.683111 

> <RosettaParamsInstructions>
M  ROOT 3
M  POLY_N_BB 3
M  POLY_CA_BB 4
M  POLY_C_BB 2
M  POLY_O_BB 5
M  POLY_IGNORE 9 10 11 12 13 14 15 16 17 18 
M  POLY_UPPER 6
M  POLY_LOWER 8
M  POLY_CHG 0
M  POLY_PROPERTIES ALPHA_AA L_AA PROTEIN AROMATIC POLYMER 
M  END

$$$$



 36 36  0  0  0  0  0  0  0  0999 V2000
    0.6079    3.2536    1.5119 H   0  0  0  1  0  0  0  0  0  0  0  0
    0.6051    1.2005    1.0419 C   0  0  0  1  0  0  0  0  0  0  0  0
    0.1773    3.0239   -0.4910 N   0  0  0  1  0  0  0  0  0  0  0  0
    0.0288    2.5989    0.8947 C   0  0  0  1  0  0  0  0  0  0  0  0
    0.7973    0.4841    0.0630 O   0  0  0  1  0  0  0  0  0  0  0  0
    0.8819    0.8153    2.2909 N   0  0  0  1  0  0  0  0  0  0  0  0
   -0.2074    2.4487   -1.1850 H   0  0  0  1  0  0  0  0  0  0  0  0
    0.7996    4.1409   -0.8877 C   0  0  0  1  0  0  0  0  0  0  0  0
    0.7526    1.7140    3.4283 C   0  0  0  1  0  0  0  0  0  0  0  0
    0.8214    4.3869   -2.3837 C   0  0  0  1  0  0  0  0  0  0  0  0
    1.3258    4.9292   -0.1032 O   0  0  0  1  0  0  0  0  0  0  0  0
    1.1824   -0.1044    2.4466 H   0  0  0  1  0  0  0  0  0  0  0  0
    1.3745    2.5716    3.2783 H   0  0  0  1  0  0  0  0  0  0  0  0
    1.0550    1.2060    4.3201 H   0  0  0  1  0  0  0  0  0  0  0  0
   -0.2668    2.0250    3.5227 H   0  0  0  1  0  0  0  0  0  0  0  0
    1.8315    4.5272   -2.7079 H   0  0  0  1  0  0  0  0  0  0  0  0
    0.2498    5.2629   -2.6093 H   0  0  0  1  0  0  0  0  0  0  0  0
    0.3985    3.5443   -2.8897 H   0  0  0  1  0  0  0  0  0  0  0  0
   -4.1431    7.8092    0.3944 B   0  0  0  1  0  0  0  0  0  0  0  0
   -4.9150    8.0166   -0.7037 O   0  0  0  1  0  0  0  0  0  0  0  0
   -3.9909    8.8587    1.2515 O   0  0  0  1  0  0  0  0  0  0  0  0
   -3.4236    6.4212    0.7159 C   0  0  0  1  0  0  0  0  0  0  0  0
   -2.5272    6.2856    1.7592 C   0  0  0  1  0  0  0  0  0  0  0  0
   -1.8569    5.0867    1.9457 C   0  0  0  1  0  0  0  0  0  0  0  0
   -2.0811    4.0286    1.0851 C   0  0  0  1  0  0  0  0  0  0  0  0
   -2.9801    4.1645    0.0388 C   0  0  0  1  0  0  0  0  0  0  0  0
   -3.6483    5.3600   -0.1470 C   0  0  0  1  0  0  0  0  0  0  0  0
   -1.4176    2.7051    1.3496 C   0  0  0  1  0  0  0  0  0  0  0  0
   -4.4806    8.6431   -1.2871 H   0  0  0  1  0  0  0  0  0  0  0  0
   -3.0572    8.9964    1.4269 H   0  0  0  1  0  0  0  0  0  0  0  0
   -2.3556    7.0831    2.4043 H   0  0  0  1  0  0  0  0  0  0  0  0
   -1.1854    4.9833    2.7331 H   0  0  0  1  0  0  0  0  0  0  0  0
   -3.1517    3.3670   -0.6063 H   0  0  0  1  0  0  0  0  0  0  0  0
   -4.3198    5.4633   -0.9344 H   0  0  0  1  0  0  0  0  0  0  0  0
   -1.4458    2.5266    2.4043 H   0  0  0  1  0  0  0  0  0  0  0  0
   -1.9791    1.9475    0.8440 H   0  0  0  1  0  0  0  0  0  0  0  0
  1  4  1  0  0  0  0
  2  4  1  0  0  0  0
  2  5  2  0  0  0  0
  2  6  1  0  0  0  0
  3  4  1  0  0  0  0
  3  7  1  0  0  0  0
  3  8  1  0  0  0  0
  4 28  1  0  0  0  0
  6  9  1  0  0  0  0
  6 12  1  0  0  0  0
  8 10  1  0  0  0  0
  8 11  2  0  0  0  0
  9 13  1  0  0  0  0
  9 14  1  0  0  0  0
  9 15  1  0  0  0  0
 10 16  1  0  0  0  0
 10 17  1  0  0  0  0
 10 18  1  0  0  0  0
 19 20  1  0  0  0  0
 19 21  1  0  0  0  0
 19 22  1  0  0  0  0
 20 29  1  0  0  0  0
 21 30  1  0  0  0  0
 22 23  4  0  0  0  0
 22 27  4  0  0  0  0
 23 24  4  0  0  0  0
 23 31  1  0  0  0  0
 24 25  4  0  0  0  0
 24 32  1  0  0  0  0
 25 26  4  0  0  0  0
 25 28  1  0  0  0  0
 26 27  4  0  0  0  0
 26 33  1  0  0  0  0
 27 34  1  0  0  0  0
 28 35  1  0  0  0  0
 28 36  1  0  0  0  0
M  END
> <BCLConfClusterSize>
1

> <ConfClashScore>
0 

> <ConfOneFourInteractionScore>
-0.994082 

> <ConfScore>
0.127451 

> <ConfScorePBest>
0.00313451 

> <ConfTolerance>
0.824913 

> <RosettaParamsInstructions>
M  ROOT 3
M  POLY_N_BB 3
M  POLY_CA_BB 4
M  POLY_C_BB 2
M  POLY_O_BB 5
M  POLY_IGNORE 9 10 11 12 13 14 15 16 17 18 
M  POLY_UPPER 6
M  POLY_LOWER 8
M  POLY_CHG 0
M  POLY_PROPERTIES ALPHA_AA L_AA PROTEIN AROMATIC POLYMER 
M  END

$$$$



 36 36  0  0  0  0  0  0  0  0999 V2000
   -1.7950    0.7345    2.0291 H   0  0  0  1  0  0  0  0  0  0  0  0
   -2.4043    2.0776    3.5499 C   0  0  0  1  0  0  0  0  0  0  0  0
   -3.6066    1.5693    1.4828 N   0  0  0  1  0  0  0  0  0  0  0  0
   -2.2845    1.6845    2.0802 C   0  0  0  1  0  0  0  0  0  0  0  0
   -1.6571    1.6009    4.4000 O   0  0  0  1  0  0  0  0  0  0  0  0
   -3.3638    2.9616    3.8379 N   0  0  0  1  0  0  0  0  0  0  0  0
   -4.3666    1.9964    1.9303 H   0  0  0  1  0  0  0  0  0  0  0  0
   -3.8201    0.9014    0.3456 C   0  0  0  1  0  0  0  0  0  0  0  0
   -3.5896    3.4510    5.1897 C   0  0  0  1  0  0  0  0  0  0  0  0
   -5.2507    0.8968   -0.1570 C   0  0  0  1  0  0  0  0  0  0  0  0
   -2.9273    0.3221   -0.2675 O   0  0  0  1  0  0  0  0  0  0  0  0
   -3.9353    3.2921    3.1136 H   0  0  0  1  0  0  0  0  0  0  0  0
   -4.6331    3.6410    5.3311 H   0  0  0  1  0  0  0  0  0  0  0  0
   -3.0392    4.3565    5.3376 H   0  0  0  1  0  0  0  0  0  0  0  0
   -3.2627    2.7151    5.8944 H   0  0  0  1  0  0  0  0  0  0  0  0
   -5.4510   -0.0283   -0.6561 H   0  0  0  1  0  0  0  0  0  0  0  0
   -5.3910    1.7081   -0.8404 H   0  0  0  1  0  0  0  0  0  0  0  0
   -5.9196    1.0073    0.6707 H   0  0  0  1  0  0  0  0  0  0  0  0
   -4.1041    7.8366    0.4625 B   0  0  0  1  0  0  0  0  0  0  0  0
   -4.9767    8.0257   -0.5609 O   0  0  0  1  0  0  0  0  0  0  0  0
   -3.8216    8.8945    1.2764 O   0  0  0  1  0  0  0  0  0  0  0  0
   -3.4319    6.4146    0.7008 C   0  0  0  1  0  0  0  0  0  0  0  0
   -2.5376    6.2917    1.7474 C   0  0  0  1  0  0  0  0  0  0  0  0
   -1.8613    5.0978    1.9447 C   0  0  0  1  0  0  0  0  0  0  0  0
   -2.0773    4.0322    1.0915 C   0  0  0  1  0  0  0  0  0  0  0  0
   -2.9742    4.1554    0.0418 C   0  0  0  1  0  0  0  0  0  0  0  0
   -3.6484    5.3457   -0.1548 C   0  0  0  1  0  0  0  0  0  0  0  0
   -1.4340    2.6930    1.3253 C   0  0  0  1  0  0  0  0  0  0  0  0
   -4.6427    8.7111   -1.1443 H   0  0  0  1  0  0  0  0  0  0  0  0
   -4.6196    9.1687    1.7343 H   0  0  0  1  0  0  0  0  0  0  0  0
   -2.3721    7.0949    2.3870 H   0  0  0  1  0  0  0  0  0  0  0  0
   -1.1914    5.0040    2.7347 H   0  0  0  1  0  0  0  0  0  0  0  0
   -3.1397    3.3522   -0.5978 H   0  0  0  1  0  0  0  0  0  0  0  0
   -4.3183    5.4395   -0.9448 H   0  0  0  1  0  0  0  0  0  0  0  0
   -1.1916    2.2723    0.3718 H   0  0  0  1  0  0  0  0  0  0  0  0
   -0.5357    2.8515    1.8846 H   0  0  0  1  0  0  0  0  0  0  0  0
  1  4  1  0  0  0  0
  2  4  1  0  0  0  0
  2  5  2  0  0  0  0
  2  6  1  0  0  0  0
  3  4  1  0  0  0  0
  3  7  1  0  0  0  0
  3  8  1  0  0  0  0
  4 28  1  0  0  0  0
  6  9  1  0  0  0  0
  6 12  1  0  0  0  0
  8 10  1  0  0  0  0
  8 11  2  0  0  0  0
  9 13  1  0  0  0  0
  9 14  1  0  0  0  0
  9 15  1  0  0  0  0
 10 16  1  0  0  0  0
 10 17  1  0  0  0  0
 10 18  1  0  0  0  0
 19 20  1  0  0  0  0
 19 21  1  0  0  0  0
 19 22  1  0  0  0  0
 20 29  1  0  0  0  0
 21 30  1  0  0  0  0
 22 23  4  0  0  0  0
 22 27  4  0  0  0  0
 23 24  4  0  0  0  0
 23 31  1  0  0  0  0
 24 25  4  0  0  0  0
 24 32  1  0  0  0  0
 25 26  4  0  0  0  0
 25 28  1  0  0  0  0
 26 27  4  0  0  0  0
 26 33  1  0  0  0  0
 27 34  1  0  0  0  0
 28 35  1  0  0  0  0
 28 36  1  0  0  0  0
M  END
> <BCLConfClusterSize>
1

> <ConfClashScore>
0 

> <ConfOneFourInteractionScore>
-0.950714 

> <ConfScore>
0.129779 

> <ConfScorePBest>
0.00310603 

> <ConfTolerance>
0.431076 

> <RosettaParamsInstructions>
M  ROOT 3
M  POLY_N_BB 3
M  POLY_CA_BB 4
M  POLY_C_BB 2
M  POLY_O_BB 5
M  POLY_IGNORE 9 10 11 12 13 14 15 16 17 18 
M  POLY_UPPER 6
M  POLY_LOWER 8
M  POLY_CHG 0
M  POLY_PROPERTIES ALPHA_AA L_AA PROTEIN AROMATIC POLYMER 
M  END

$$$$



 36 36  0  0  0  0  0  0  0  0999 V2000
   -0.9726    2.9825    3.3938 H   0  0  0  1  0  0  0  0  0  0  0  0
    0.2525    1.4133    2.7461 C   0  0  0  1  0  0  0  0  0  0  0  0
    0.5767    3.8074    2.3403 N   0  0  0  1  0  0  0  0  0  0  0  0
   -0.4102    2.7569    2.5120 C   0  0  0  1  0  0  0  0  0  0  0  0
   -0.2011    0.3843    2.2523 O   0  0  0  1  0  0  0  0  0  0  0  0
    1.3453    1.4311    3.5145 N   0  0  0  1  0  0  0  0  0  0  0  0
    0.6194    4.5649    2.9606 H   0  0  0  1  0  0  0  0  0  0  0  0
    1.4291    3.7117    1.3077 C   0  0  0  1  0  0  0  0  0  0  0  0
    2.1012    0.2539    3.9154 C   0  0  0  1  0  0  0  0  0  0  0  0
    2.4248    4.8468    1.1681 C   0  0  0  1  0  0  0  0  0  0  0  0
    1.4183    2.7709    0.5150 O   0  0  0  1  0  0  0  0  0  0  0  0
    1.6617    2.3026    3.8321 H   0  0  0  1  0  0  0  0  0  0  0  0
    1.4957   -0.3611    4.5478 H   0  0  0  1  0  0  0  0  0  0  0  0
    2.9783    0.5578    4.4476 H   0  0  0  1  0  0  0  0  0  0  0  0
    2.3855   -0.3004    3.0454 H   0  0  0  1  0  0  0  0  0  0  0  0
    2.0739    5.5415    0.4338 H   0  0  0  1  0  0  0  0  0  0  0  0
    3.3723    4.4543    0.8633 H   0  0  0  1  0  0  0  0  0  0  0  0
    2.5307    5.3457    2.1087 H   0  0  0  1  0  0  0  0  0  0  0  0
   -4.1168    7.8143    0.4337 B   0  0  0  1  0  0  0  0  0  0  0  0
   -3.9648    8.9309    1.1918 O   0  0  0  1  0  0  0  0  0  0  0  0
   -4.9194    7.8695   -0.6553 O   0  0  0  1  0  0  0  0  0  0  0  0
   -3.4288    6.4196    0.7075 C   0  0  0  1  0  0  0  0  0  0  0  0
   -2.5332    6.2884    1.7520 C   0  0  0  1  0  0  0  0  0  0  0  0
   -1.8609    5.0912    1.9425 C   0  0  0  1  0  0  0  0  0  0  0  0
   -2.0823    4.0304    1.0846 C   0  0  0  1  0  0  0  0  0  0  0  0
   -2.9804    4.1618    0.0370 C   0  0  0  1  0  0  0  0  0  0  0  0
   -3.6506    5.3555   -0.1528 C   0  0  0  1  0  0  0  0  0  0  0  0
   -1.4121    2.6997    1.3553 C   0  0  0  1  0  0  0  0  0  0  0  0
   -3.1982    9.4225    0.8881 H   0  0  0  1  0  0  0  0  0  0  0  0
   -4.3807    7.8962   -1.4494 H   0  0  0  1  0  0  0  0  0  0  0  0
   -2.3637    7.0879    2.3951 H   0  0  0  1  0  0  0  0  0  0  0  0
   -1.1900    4.9912    2.7309 H   0  0  0  1  0  0  0  0  0  0  0  0
   -3.1500    3.3622   -0.6061 H   0  0  0  1  0  0  0  0  0  0  0  0
   -4.3215    5.4555   -0.9412 H   0  0  0  1  0  0  0  0  0  0  0  0
   -2.1673    1.9803    1.5941 H   0  0  0  1  0  0  0  0  0  0  0  0
   -0.8939    2.3932    0.4707 H   0  0  0  1  0  0  0  0  0  0  0  0
  1  4  1  0  0  0  0
  2  4  1  0  0  0  0
  2  5  2  0  0  0  0
  2  6  1  0  0  0  0
  3  4  1  0  0  0  0
  3  7  1  0  0  0  0
  3  8  1  0  0  0  0
  4 28  1  0  0  0  0
  6  9  1  0  0  0  0
  6 12  1  0  0  0  0
  8 10  1  0  0  0  0
  8 11  2  0  0  0  0
  9 13  1  0  0  0  0
  9 14  1  0  0  0  0
  9 15  1  0  0  0  0
 10 16  1  0  0  0  0
 10 17  1  0  0  0  0
 10 18  1  0  0  0  0
 19 20  1  0  0  0  0
 19 21  1  0  0  0  0
 19 22  1  0  0  0  0
 20 29  1  0  0  0  0
 21 30  1  0  0  0  0
 22 23  4  0  0  0  0
 22 27  4  0  0  0  0
 23 24  4  0  0  0  0
 23 31  1  0  0  0  0
 24 25  4  0  0  0  0
 24 32  1  0  0  0  0
 25 26  4  0  0  0  0
 25 28  1  0  0  0  0
 26 27  4  0  0  0  0
 26 33  1  0  0  0  0
 27 34  1  0  0  0  0
 28 35  1  0  0  0  0
 28 36  1  0  0  0  0
M  END
> <BCLConfClusterSize>
1

> <ConfClashScore>
0 

> <ConfOneFourInteractionScore>
-0.946532 

> <ConfScore>
0.134781 

> <ConfScorePBest>
0.00307755 

> <ConfTolerance>
0.570387 

> <RosettaParamsInstructions>
M  ROOT 3
M  POLY_N_BB 3
M  POLY_CA_BB 4
M  POLY_C_BB 2
M  POLY_O_BB 5
M  POLY_IGNORE 9 10 11 12 13 14 15 16 17 18 
M  POLY_UPPER 6
M  POLY_LOWER 8
M  POLY_CHG 0
M  POLY_PROPERTIES ALPHA_AA L_AA PROTEIN AROMATIC POLYMER 
M  END

$$$$



 36 36  0  0  0  0  0  0  0  0999 V2000
   -1.9603    1.1206    2.6244 H   0  0  0  1  0  0  0  0  0  0  0  0
   -3.7617    2.0960    2.2228 C   0  0  0  1  0  0  0  0  0  0  0  0
   -2.5208    0.5843    0.7158 N   0  0  0  1  0  0  0  0  0  0  0  0
   -2.3977    1.6061    1.7771 C   0  0  0  1  0  0  0  0  0  0  0  0
   -4.0072    2.2820    3.4139 O   0  0  0  1  0  0  0  0  0  0  0  0
   -4.6908    2.3201    1.2801 N   0  0  0  1  0  0  0  0  0  0  0  0
   -2.1857    0.7916   -0.1815 H   0  0  0  1  0  0  0  0  0  0  0  0
   -3.0937   -0.6573    0.9458 C   0  0  0  1  0  0  0  0  0  0  0  0
   -6.0668    2.6602    1.6100 C   0  0  0  1  0  0  0  0  0  0  0  0
   -3.2963   -1.5940   -0.2119 C   0  0  0  1  0  0  0  0  0  0  0  0
   -3.4160   -0.9491    2.0863 O   0  0  0  1  0  0  0  0  0  0  0  0
   -4.4336    2.2522    0.3369 H   0  0  0  1  0  0  0  0  0  0  0  0
   -6.4604    1.9352    2.2916 H   0  0  0  1  0  0  0  0  0  0  0  0
   -6.6563    2.6667    0.7171 H   0  0  0  1  0  0  0  0  0  0  0  0
   -6.0955    3.6286    2.0641 H   0  0  0  1  0  0  0  0  0  0  0  0
   -3.9282   -1.1303   -0.9403 H   0  0  0  1  0  0  0  0  0  0  0  0
   -3.7552   -2.4960    0.1356 H   0  0  0  1  0  0  0  0  0  0  0  0
   -2.3496   -1.8227   -0.6551 H   0  0  0  1  0  0  0  0  0  0  0  0
   -4.1182    7.8171    0.4332 B   0  0  0  1  0  0  0  0  0  0  0  0
   -4.9480    7.9142   -0.6376 O   0  0  0  1  0  0  0  0  0  0  0  0
   -3.9276    8.9223    1.2061 O   0  0  0  1  0  0  0  0  0  0  0  0
   -3.4287    6.4193    0.7075 C   0  0  0  1  0  0  0  0  0  0  0  0
   -2.5331    6.2881    1.7520 C   0  0  0  1  0  0  0  0  0  0  0  0
   -1.8608    5.0909    1.9426 C   0  0  0  1  0  0  0  0  0  0  0  0
   -2.0821    4.0301    1.0846 C   0  0  0  1  0  0  0  0  0  0  0  0
   -2.9803    4.1615    0.0370 C   0  0  0  1  0  0  0  0  0  0  0  0
   -3.6505    5.3552   -0.1528 C   0  0  0  1  0  0  0  0  0  0  0  0
   -1.4119    2.6994    1.3553 C   0  0  0  1  0  0  0  0  0  0  0  0
   -4.5847    8.5395   -1.2689 H   0  0  0  1  0  0  0  0  0  0  0  0
   -4.7654    9.1953    1.5870 H   0  0  0  1  0  0  0  0  0  0  0  0
   -2.3636    7.0877    2.3951 H   0  0  0  1  0  0  0  0  0  0  0  0
   -1.1899    4.9909    2.7309 H   0  0  0  1  0  0  0  0  0  0  0  0
   -3.1498    3.3620   -0.6061 H   0  0  0  1  0  0  0  0  0  0  0  0
   -4.3214    5.4552   -0.9411 H   0  0  0  1  0  0  0  0  0  0  0  0
   -0.9124    2.3821    0.4638 H   0  0  0  1  0  0  0  0  0  0  0  0
   -0.6950    2.8322    2.1384 H   0  0  0  1  0  0  0  0  0  0  0  0
  1  4  1  0  0  0  0
  2  4  1  0  0  0  0
  2  5  2  0  0  0  0
  2  6  1  0  0  0  0
  3  4  1  0  0  0  0
  3  7  1  0  0  0  0
  3  8  1  0  0  0  0
  4 28  1  0  0  0  0
  6  9  1  0  0  0  0
  6 12  1  0  0  0  0
  8 10  1  0  0  0  0
  8 11  2  0  0  0  0
  9 13  1  0  0  0  0
  9 14  1  0  0  0  0
  9 15  1  0  0  0  0
 10 16  1  0  0  0  0
 10 17  1  0  0  0  0
 10 18  1  0  0  0  0
 19 20  1  0  0  0  0
 19 21  1  0  0  0  0
 19 22  1  0  0  0  0
 20 29  1  0  0  0  0
 21 30  1  0  0  0  0
 22 23  4  0  0  0  0
 22 27  4  0  0  0  0
 23 24  4  0  0  0  0
 23 31  1  0  0  0  0
 24 25  4  0  0  0  0
 24 32  1  0  0  0  0
 25 26  4  0  0  0  0
 25 28  1  0  0  0  0
 26 27  4  0  0  0  0
 26 33  1  0  0  0  0
 27 34  1  0  0  0  0
 28 35  1  0  0  0  0
 28 36  1  0  0  0  0
M  END
> <BCLConfClusterSize>
1

> <ConfClashScore>
0 

> <ConfOneFourInteractionScore>
-0.955157 

> <ConfScore>
0.144438 

> <ConfScorePBest>
0.00304907 

> <ConfTolerance>
0.897886 

> <RosettaParamsInstructions>
M  ROOT 3
M  POLY_N_BB 3
M  POLY_CA_BB 4
M  POLY_C_BB 2
M  POLY_O_BB 5
M  POLY_IGNORE 9 10 11 12 13 14 15 16 17 18 
M  POLY_UPPER 6
M  POLY_LOWER 8
M  POLY_CHG 0
M  POLY_PROPERTIES ALPHA_AA L_AA PROTEIN AROMATIC POLYMER 
M  END

$$$$



 36 36  0  0  0  0  0  0  0  0999 V2000
    0.2866    3.7195    1.9426 H   0  0  0  1  0  0  0  0  0  0  0  0
   -0.2826    2.4922    3.5406 C   0  0  0  1  0  0  0  0  0  0  0  0
    0.8735    1.8086    1.4881 N   0  0  0  1  0  0  0  0  0  0  0  0
   -0.1018    2.7287    2.0538 C   0  0  0  1  0  0  0  0  0  0  0  0
   -0.4407    1.3587    3.9922 O   0  0  0  1  0  0  0  0  0  0  0  0
   -0.2577    3.5898    4.3130 N   0  0  0  1  0  0  0  0  0  0  0  0
    0.7318    0.8415    1.5588 H   0  0  0  1  0  0  0  0  0  0  0  0
    1.9600    2.2789    0.8734 C   0  0  0  1  0  0  0  0  0  0  0  0
   -0.5067    3.5379    5.7459 C   0  0  0  1  0  0  0  0  0  0  0  0
    2.9356    1.2336    0.3686 C   0  0  0  1  0  0  0  0  0  0  0  0
    2.1722    3.4707    0.7181 O   0  0  0  1  0  0  0  0  0  0  0  0
   -0.0652    4.4563    3.8975 H   0  0  0  1  0  0  0  0  0  0  0  0
   -1.3542    2.9139    5.9388 H   0  0  0  1  0  0  0  0  0  0  0  0
   -0.7008    4.5252    6.1099 H   0  0  0  1  0  0  0  0  0  0  0  0
    0.3519    3.1365    6.2425 H   0  0  0  1  0  0  0  0  0  0  0  0
    2.4433    0.5964   -0.3362 H   0  0  0  1  0  0  0  0  0  0  0  0
    3.2888    0.6486    1.1919 H   0  0  0  1  0  0  0  0  0  0  0  0
    3.7629    1.7182   -0.1063 H   0  0  0  1  0  0  0  0  0  0  0  0
   -4.0970    7.8102    0.4069 B   0  0  0  1  0  0  0  0  0  0  0  0
   -4.7442    7.9920   -0.7732 O   0  0  0  1  0  0  0  0  0  0  0  0
   -3.9901    8.7817    1.3454 O   0  0  0  1  0  0  0  0  0  0  0  0
   -3.4357    6.4168    0.7158 C   0  0  0  1  0  0  0  0  0  0  0  0
   -2.5381    6.2899    1.7591 C   0  0  0  1  0  0  0  0  0  0  0  0
   -1.8590    5.0962    1.9480 C   0  0  0  1  0  0  0  0  0  0  0  0
   -2.0758    4.0348    1.0897 C   0  0  0  1  0  0  0  0  0  0  0  0
   -2.9761    4.1619    0.0434 C   0  0  0  1  0  0  0  0  0  0  0  0
   -3.6530    5.3521   -0.1448 C   0  0  0  1  0  0  0  0  0  0  0  0
   -1.4294    2.6955    1.3144 C   0  0  0  1  0  0  0  0  0  0  0  0
   -5.6911    8.0210   -0.6182 H   0  0  0  1  0  0  0  0  0  0  0  0
   -3.1536    9.2403    1.2381 H   0  0  0  1  0  0  0  0  0  0  0  0
   -2.3720    7.0900    2.4024 H   0  0  0  1  0  0  0  0  0  0  0  0
   -1.1865    4.9994    2.7354 H   0  0  0  1  0  0  0  0  0  0  0  0
   -3.1421    3.3618   -0.5999 H   0  0  0  1  0  0  0  0  0  0  0  0
   -4.3255    5.4489   -0.9322 H   0  0  0  1  0  0  0  0  0  0  0  0
   -2.1078    2.0925    1.8811 H   0  0  0  1  0  0  0  0  0  0  0  0
   -1.2636    2.2444    0.3584 H   0  0  0  1  0  0  0  0  0  0  0  0
  1  4  1  0  0  0  0
  2  4  1  0  0  0  0
  2  5  2  0  0  0  0
  2  6  1  0  0  0  0
  3  4  1  0  0  0  0
  3  7  1  0  0  0  0
  3  8  1  0  0  0  0
  4 28  1  0  0  0  0
  6  9  1  0  0  0  0
  6 12  1  0  0  0  0
  8 10  1  0  0  0  0
  8 11  2  0  0  0  0
  9 13  1  0  0  0  0
  9 14  1  0  0  0  0
  9 15  1  0  0  0  0
 10 16  1  0  0  0  0
 10 17  1  0  0  0  0
 10 18  1  0  0  0  0
 19 20  1  0  0  0  0
 19 21  1  0  0  0  0
 19 22  1  0  0  0  0
 20 29  1  0  0  0  0
 21 30  1  0  0  0  0
 22 23  4  0  0  0  0
 22 27  4  0  0  0  0
 23 24  4  0  0  0  0
 23 31  1  0  0  0  0
 24 25  4  0  0  0  0
 24 32  1  0  0  0  0
 25 26  4  0  0  0  0
 25 28  1  0  0  0  0
 26 27  4  0  0  0  0
 26 33  1  0  0  0  0
 27 34  1  0  0  0  0
 28 35  1  0  0  0  0
 28 36  1  0  0  0  0
M  END
> <BCLConfClusterSize>
1

> <ConfClashScore>
0 

> <ConfOneFourInteractionScore>
-0.974879 

> <ConfScore>
0.146412 

> <ConfScorePBest>
0.00302059 

> <ConfTolerance>
0.782074 

> <RosettaParamsInstructions>
M  ROOT 3
M  POLY_N_BB 3
M  POLY_CA_BB 4
M  POLY_C_BB 2
M  POLY_O_BB 5
M  POLY_IGNORE 9 10 11 12 13 14 15 16 17 18 
M  POLY_UPPER 6
M  POLY_LOWER 8
M  POLY_CHG 0
M  POLY_PROPERTIES ALPHA_AA L_AA PROTEIN AROMATIC POLYMER 
M  END

$$$$



 36 36  0  0  0  0  0  0  0  0999 V2000
    0.4394    3.4115    0.6739 H   0  0  0  1  0  0  0  0  0  0  0  0
    0.6983    1.3734    1.1244 C   0  0  0  1  0  0  0  0  0  0  0  0
   -0.4046    2.3427   -0.8684 N   0  0  0  1  0  0  0  0  0  0  0  0
   -0.1272    2.5122    0.5501 C   0  0  0  1  0  0  0  0  0  0  0  0
    0.5156    0.2137    0.7566 O   0  0  0  1  0  0  0  0  0  0  0  0
    1.6308    1.6708    2.0432 N   0  0  0  1  0  0  0  0  0  0  0  0
   -0.1239    3.0442   -1.4924 H   0  0  0  1  0  0  0  0  0  0  0  0
   -1.0288    1.2638   -1.3495 C   0  0  0  1  0  0  0  0  0  0  0  0
    2.4773    0.6971    2.7165 C   0  0  0  1  0  0  0  0  0  0  0  0
   -1.3787    1.3271   -2.8345 C   0  0  0  1  0  0  0  0  0  0  0  0
   -1.3735    0.3160   -0.6621 O   0  0  0  1  0  0  0  0  0  0  0  0
    1.7505    2.6146    2.2783 H   0  0  0  1  0  0  0  0  0  0  0  0
    2.8606    0.0010    1.9999 H   0  0  0  1  0  0  0  0  0  0  0  0
    1.9026    0.1725    3.4508 H   0  0  0  1  0  0  0  0  0  0  0  0
    3.2912    1.2019    3.1936 H   0  0  0  1  0  0  0  0  0  0  0  0
   -1.9877    2.1868   -3.0217 H   0  0  0  1  0  0  0  0  0  0  0  0
   -1.9144    0.4435   -3.1124 H   0  0  0  1  0  0  0  0  0  0  0  0
   -0.4792    1.3953   -3.4100 H   0  0  0  1  0  0  0  0  0  0  0  0
   -4.1201    7.8146    0.4299 B   0  0  0  1  0  0  0  0  0  0  0  0
   -4.5556    8.1136   -0.8213 O   0  0  0  1  0  0  0  0  0  0  0  0
   -4.3218    8.7732    1.3733 O   0  0  0  1  0  0  0  0  0  0  0  0
   -3.4282    6.4187    0.7080 C   0  0  0  1  0  0  0  0  0  0  0  0
   -2.5332    6.2916    1.7535 C   0  0  0  1  0  0  0  0  0  0  0  0
   -1.8588    5.0961    1.9472 C   0  0  0  1  0  0  0  0  0  0  0  0
   -2.0775    4.0329    1.0916 C   0  0  0  1  0  0  0  0  0  0  0  0
   -2.9751    4.1603    0.0429 C   0  0  0  1  0  0  0  0  0  0  0  0
   -3.6473    5.3523   -0.1501 C   0  0  0  1  0  0  0  0  0  0  0  0
   -1.4357    2.6908    1.3217 C   0  0  0  1  0  0  0  0  0  0  0  0
   -3.8033    8.1898   -1.4128 H   0  0  0  1  0  0  0  0  0  0  0  0
   -3.5579    8.8181    1.9530 H   0  0  0  1  0  0  0  0  0  0  0  0
   -2.3657    7.0929    2.3949 H   0  0  0  1  0  0  0  0  0  0  0  0
   -1.1883    4.9991    2.7364 H   0  0  0  1  0  0  0  0  0  0  0  0
   -3.1426    3.3590   -0.5985 H   0  0  0  1  0  0  0  0  0  0  0  0
   -4.3178    5.4492   -0.9392 H   0  0  0  1  0  0  0  0  0  0  0  0
   -1.2320    2.5855    2.3668 H   0  0  0  1  0  0  0  0  0  0  0  0
   -2.1201    1.9286    1.0125 H   0  0  0  1  0  0  0  0  0  0  0  0
  1  4  1  0  0  0  0
  2  4  1  0  0  0  0
  2  5  2  0  0  0  0
  2  6  1  0  0  0  0
  3  4  1  0  0  0  0
  3  7  1  0  0  0  0
  3  8  1  0  0  0  0
  4 28  1  0  0  0  0
  6  9  1  0  0  0  0
  6 12  1  0  0  0  0
  8 10  1  0  0  0  0
  8 11  2  0  0  0  0
  9 13  1  0  0  0  0
  9 14  1  0  0  0  0
  9 15  1  0  0  0  0
 10 16  1  0  0  0  0
 10 17  1  0  0  0  0
 10 18  1  0  0  0  0
 19 20  1  0  0  0  0
 19 21  1  0  0  0  0
 19 22  1  0  0  0  0
 20 29  1  0  0  0  0
 21 30  1  0  0  0  0
 22 23  4  0  0  0  0
 22 27  4  0  0  0  0
 23 24  4  0  0  0  0
 23 31  1  0  0  0  0
 24 25  4  0  0  0  0
 24 32  1  0  0  0  0
 25 26  4  0  0  0  0
 25 28  1  0  0  0  0
 26 27  4  0  0  0  0
 26 33  1  0  0  0  0
 27 34  1  0  0  0  0
 28 35  1  0  0  0  0
 28 36  1  0  0  0  0
M  END
> <BCLConfClusterSize>
1

> <ConfClashScore>
0 

> <ConfOneFourInteractionScore>
-0.988016 

> <ConfScore>
0.14735 

> <ConfScorePBest>
0.00299211 

> <ConfTolerance>
0.507563 

> <RosettaParamsInstructions>
M  ROOT 3
M  POLY_N_BB 3
M  POLY_CA_BB 4
M  POLY_C_BB 2
M  POLY_O_BB 5
M  POLY_IGNORE 9 10 11 12 13 14 15 16 17 18 
M  POLY_UPPER 6
M  POLY_LOWER 8
M  POLY_CHG 0
M  POLY_PROPERTIES ALPHA_AA L_AA PROTEIN AROMATIC POLYMER 
M  END

$$$$



 36 36  0  0  0  0  0  0  0  0999 V2000
    0.4322    3.3148    2.1279 H   0  0  0  1  0  0  0  0  0  0  0  0
    0.7352    1.4086    1.2549 C   0  0  0  1  0  0  0  0  0  0  0  0
    0.5090    3.5368    0.0726 N   0  0  0  1  0  0  0  0  0  0  0  0
    0.0966    2.7943    1.2552 C   0  0  0  1  0  0  0  0  0  0  0  0
    0.1265    0.4333    1.6930 O   0  0  0  1  0  0  0  0  0  0  0  0
    1.9724    1.2872    0.7655 N   0  0  0  1  0  0  0  0  0  0  0  0
    0.4007    3.1056   -0.8007 H   0  0  0  1  0  0  0  0  0  0  0  0
    1.0247    4.7660    0.1021 C   0  0  0  1  0  0  0  0  0  0  0  0
    2.6843    0.0179    0.7577 C   0  0  0  1  0  0  0  0  0  0  0  0
    1.5194    5.3027   -1.2220 C   0  0  0  1  0  0  0  0  0  0  0  0
    1.1012    5.4346    1.1295 O   0  0  0  1  0  0  0  0  0  0  0  0
    2.4160    2.0805    0.3990 H   0  0  0  1  0  0  0  0  0  0  0  0
    2.0000   -0.7767    0.9706 H   0  0  0  1  0  0  0  0  0  0  0  0
    3.4527    0.0357    1.5021 H   0  0  0  1  0  0  0  0  0  0  0  0
    3.1235   -0.1384   -0.2054 H   0  0  0  1  0  0  0  0  0  0  0  0
    2.5558    5.0642   -1.3393 H   0  0  0  1  0  0  0  0  0  0  0  0
    1.3933    6.3650   -1.2454 H   0  0  0  1  0  0  0  0  0  0  0  0
    0.9591    4.8589   -2.0182 H   0  0  0  1  0  0  0  0  0  0  0  0
   -4.1014    7.8308    0.4635 B   0  0  0  1  0  0  0  0  0  0  0  0
   -3.5711    8.7809   -0.3493 O   0  0  0  1  0  0  0  0  0  0  0  0
   -5.2662    8.0886    1.1164 O   0  0  0  1  0  0  0  0  0  0  0  0
   -3.4326    6.4161    0.7005 C   0  0  0  1  0  0  0  0  0  0  0  0
   -2.5383    6.2932    1.7472 C   0  0  0  1  0  0  0  0  0  0  0  0
   -1.8620    5.0993    1.9445 C   0  0  0  1  0  0  0  0  0  0  0  0
   -2.0781    4.0337    1.0912 C   0  0  0  1  0  0  0  0  0  0  0  0
   -2.9749    4.1569    0.0415 C   0  0  0  1  0  0  0  0  0  0  0  0
   -3.6491    5.3473   -0.1551 C   0  0  0  1  0  0  0  0  0  0  0  0
   -1.4295    2.6837    1.3269 C   0  0  0  1  0  0  0  0  0  0  0  0
   -3.2767    9.5265    0.1789 H   0  0  0  1  0  0  0  0  0  0  0  0
   -5.9417    8.3363    0.4808 H   0  0  0  1  0  0  0  0  0  0  0  0
   -2.3728    7.0964    2.3868 H   0  0  0  1  0  0  0  0  0  0  0  0
   -1.1921    5.0055    2.7344 H   0  0  0  1  0  0  0  0  0  0  0  0
   -3.1404    3.3537   -0.5981 H   0  0  0  1  0  0  0  0  0  0  0  0
   -4.3190    5.4410   -0.9450 H   0  0  0  1  0  0  0  0  0  0  0  0
   -1.7101    2.3238    2.2947 H   0  0  0  1  0  0  0  0  0  0  0  0
   -1.7670    1.9970    0.5789 H   0  0  0  1  0  0  0  0  0  0  0  0
  1  4  1  0  0  0  0
  2  4  1  0  0  0  0
  2  5  2  0  0  0  0
  2  6  1  0  0  0  0
  3  4  1  0  0  0  0
  3  7  1  0  0  0  0
  3  8  1  0  0  0  0
  4 28  1  0  0  0  0
  6  9  1  0  0  0  0
  6 12  1  0  0  0  0
  8 10  1  0  0  0  0
  8 11  2  0  0  0  0
  9 13  1  0  0  0  0
  9 14  1  0  0  0  0
  9 15  1  0  0  0  0
 10 16  1  0  0  0  0
 10 17  1  0  0  0  0
 10 18  1  0  0  0  0
 19 20  1  0  0  0  0
 19 21  1  0  0  0  0
 19 22  1  0  0  0  0
 20 29  1  0  0  0  0
 21 30  1  0  0  0  0
 22 23  4  0  0  0  0
 22 27  4  0  0  0  0
 23 24  4  0  0  0  0
 23 31  1  0  0  0  0
 24 25  4  0  0  0  0
 24 32  1  0  0  0  0
 25 26  4  0  0  0  0
 25 28  1  0  0  0  0
 26 27  4  0  0  0  0
 26 33  1  0  0  0  0
 27 34  1  0  0  0  0
 28 35  1  0  0  0  0
 28 36  1  0  0  0  0
M  END
> <BCLConfClusterSize>
1

> <ConfClashScore>
0 

> <ConfOneFourInteractionScore>
-0.954843 

> <ConfScore>
0.151732 

> <ConfScorePBest>
0.00296363 

> <ConfTolerance>
0.720299 

> <RosettaParamsInstructions>
M  ROOT 3
M  POLY_N_BB 3
M  POLY_CA_BB 4
M  POLY_C_BB 2
M  POLY_O_BB 5
M  POLY_IGNORE 9 10 11 12 13 14 15 16 17 18 
M  POLY_UPPER 6
M  POLY_LOWER 8
M  POLY_CHG 0
M  POLY_PROPERTIES ALPHA_AA L_AA PROTEIN AROMATIC POLYMER 
M  END

$$$$



 36 36  0  0  0  0  0  0  0  0999 V2000
   -3.1346    1.8310    2.2354 H   0  0  0  1  0  0  0  0  0  0  0  0
   -1.5176    0.5008    2.5566 C   0  0  0  1  0  0  0  0  0  0  0  0
   -1.9554    2.5839    3.7584 N   0  0  0  1  0  0  0  0  0  0  0  0
   -2.0950    1.9108    2.4757 C   0  0  0  1  0  0  0  0  0  0  0  0
   -0.4801    0.2530    3.1487 O   0  0  0  1  0  0  0  0  0  0  0  0
   -2.1675   -0.5022    1.9593 N   0  0  0  1  0  0  0  0  0  0  0  0
   -2.7494    2.9250    4.2206 H   0  0  0  1  0  0  0  0  0  0  0  0
   -0.7490    2.7376    4.3064 C   0  0  0  1  0  0  0  0  0  0  0  0
   -1.7582   -1.8909    2.1070 C   0  0  0  1  0  0  0  0  0  0  0  0
   -0.7194    3.4502    5.6539 C   0  0  0  1  0  0  0  0  0  0  0  0
    0.2848    2.3366    3.7734 O   0  0  0  1  0  0  0  0  0  0  0  0
   -2.9470   -0.2955    1.4024 H   0  0  0  1  0  0  0  0  0  0  0  0
   -1.2639   -2.0195    3.0472 H   0  0  0  1  0  0  0  0  0  0  0  0
   -1.0889   -2.1515    1.3139 H   0  0  0  1  0  0  0  0  0  0  0  0
   -2.6208   -2.5228    2.0685 H   0  0  0  1  0  0  0  0  0  0  0  0
   -1.3256    2.9148    6.3544 H   0  0  0  1  0  0  0  0  0  0  0  0
   -1.0996    4.4439    5.5400 H   0  0  0  1  0  0  0  0  0  0  0  0
    0.2877    3.4920    6.0130 H   0  0  0  1  0  0  0  0  0  0  0  0
   -4.0830    7.8611    0.5019 B   0  0  0  1  0  0  0  0  0  0  0  0
   -3.4750    8.8677   -0.1874 O   0  0  0  1  0  0  0  0  0  0  0  0
   -5.3883    8.0185    0.8571 O   0  0  0  1  0  0  0  0  0  0  0  0
   -3.4364    6.4104    0.6925 C   0  0  0  1  0  0  0  0  0  0  0  0
   -2.5423    6.2880    1.7394 C   0  0  0  1  0  0  0  0  0  0  0  0
   -1.8659    5.0943    1.9374 C   0  0  0  1  0  0  0  0  0  0  0  0
   -2.0816    4.0283    1.0846 C   0  0  0  1  0  0  0  0  0  0  0  0
   -2.9783    4.1509    0.0346 C   0  0  0  1  0  0  0  0  0  0  0  0
   -3.6526    5.3411   -0.1626 C   0  0  0  1  0  0  0  0  0  0  0  0
   -1.4110    2.7094    1.3618 C   0  0  0  1  0  0  0  0  0  0  0  0
   -3.2693    8.5688   -1.0762 H   0  0  0  1  0  0  0  0  0  0  0  0
   -5.9135    7.3158    0.4673 H   0  0  0  1  0  0  0  0  0  0  0  0
   -2.3770    7.0915    2.3786 H   0  0  0  1  0  0  0  0  0  0  0  0
   -1.1961    5.0009    2.7275 H   0  0  0  1  0  0  0  0  0  0  0  0
   -3.1436    3.3474   -0.6046 H   0  0  0  1  0  0  0  0  0  0  0  0
   -4.3224    5.4344   -0.9528 H   0  0  0  1  0  0  0  0  0  0  0  0
   -1.4255    2.1250    0.4656 H   0  0  0  1  0  0  0  0  0  0  0  0
   -0.3976    2.8965    1.6498 H   0  0  0  1  0  0  0  0  0  0  0  0
  1  4  1  0  0  0  0
  2  4  1  0  0  0  0
  2  5  2  0  0  0  0
  2  6  1  0  0  0  0
  3  4  1  0  0  0  0
  3  7  1  0  0  0  0
  3  8  1  0  0  0  0
  4 28  1  0  0  0  0
  6  9  1  0  0  0  0
  6 12  1  0  0  0  0
  8 10  1  0  0  0  0
  8 11  2  0  0  0  0
  9 13  1  0  0  0  0
  9 14  1  0  0  0  0
  9 15  1  0  0  0  0
 10 16  1  0  0  0  0
 10 17  1  0  0  0  0
 10 18  1  0  0  0  0
 19 20  1  0  0  0  0
 19 21  1  0  0  0  0
 19 22  1  0  0  0  0
 20 29  1  0  0  0  0
 21 30  1  0  0  0  0
 22 23  4  0  0  0  0
 22 27  4  0  0  0  0
 23 24  4  0  0  0  0
 23 31  1  0  0  0  0
 24 25  4  0  0  0  0
 24 32  1  0  0  0  0
 25 26  4  0  0  0  0
 25 28  1  0  0  0  0
 26 27  4  0  0  0  0
 26 33  1  0  0  0  0
 27 34  1  0  0  0  0
 28 35  1  0  0  0  0
 28 36  1  0  0  0  0
M  END
> <BCLConfClusterSize>
1

> <ConfClashScore>
0 

> <ConfOneFourInteractionScore>
-0.985002 

> <ConfScore>
0.152762 

> <ConfScorePBest>
0.00293515 

> <ConfTolerance>
0.725129 

> <RosettaParamsInstructions>
M  ROOT 3
M  POLY_N_BB 3
M  POLY_CA_BB 4
M  POLY_C_BB 2
M  POLY_O_BB 5
M  POLY_IGNORE 9 10 11 12 13 14 15 16 17 18 
M  POLY_UPPER 6
M  POLY_LOWER 8
M  POLY_CHG 0
M  POLY_PROPERTIES ALPHA_AA L_AA PROTEIN AROMATIC POLYMER 
M  END

$$$$



 36 36  0  0  0  0  0  0  0  0999 V2000
    0.2805    3.5373    0.4015 H   0  0  0  1  0  0  0  0  0  0  0  0
    1.0047    1.9002    1.5148 C   0  0  0  1  0  0  0  0  0  0  0  0
   -0.1941    1.7872   -0.5956 N   0  0  0  1  0  0  0  0  0  0  0  0
   -0.0612    2.5538    0.6483 C   0  0  0  1  0  0  0  0  0  0  0  0
    1.1879    2.1700    2.6868 O   0  0  0  1  0  0  0  0  0  0  0  0
    1.7689    0.9729    0.9084 N   0  0  0  1  0  0  0  0  0  0  0  0
   -0.5743    0.8878   -0.5129 H   0  0  0  1  0  0  0  0  0  0  0  0
    0.1450    2.1768   -1.8307 C   0  0  0  1  0  0  0  0  0  0  0  0
    2.7534    0.2636    1.7118 C   0  0  0  1  0  0  0  0  0  0  0  0
   -0.2365    1.2267   -2.9491 C   0  0  0  1  0  0  0  0  0  0  0  0
    0.7291    3.2345   -2.0628 O   0  0  0  1  0  0  0  0  0  0  0  0
    1.6653    0.7809   -0.0470 H   0  0  0  1  0  0  0  0  0  0  0  0
    3.5554    0.9266    1.9613 H   0  0  0  1  0  0  0  0  0  0  0  0
    3.1368   -0.5659    1.1552 H   0  0  0  1  0  0  0  0  0  0  0  0
    2.2919   -0.0913    2.6096 H   0  0  0  1  0  0  0  0  0  0  0  0
   -0.1053    0.2170   -2.6203 H   0  0  0  1  0  0  0  0  0  0  0  0
    0.3870    1.4085   -3.7995 H   0  0  0  1  0  0  0  0  0  0  0  0
   -1.2604    1.3842   -3.2168 H   0  0  0  1  0  0  0  0  0  0  0  0
   -4.1147    7.8101    0.4345 B   0  0  0  1  0  0  0  0  0  0  0  0
   -5.1156    7.9199   -0.4769 O   0  0  0  1  0  0  0  0  0  0  0  0
   -3.7224    8.9319    1.1033 O   0  0  0  1  0  0  0  0  0  0  0  0
   -3.4289    6.4199    0.7074 C   0  0  0  1  0  0  0  0  0  0  0  0
   -2.5334    6.2888    1.7519 C   0  0  0  1  0  0  0  0  0  0  0  0
   -1.8611    5.0915    1.9424 C   0  0  0  1  0  0  0  0  0  0  0  0
   -2.0825    4.0307    1.0845 C   0  0  0  1  0  0  0  0  0  0  0  0
   -2.9806    4.1622    0.0369 C   0  0  0  1  0  0  0  0  0  0  0  0
   -3.6508    5.3559   -0.1529 C   0  0  0  1  0  0  0  0  0  0  0  0
   -1.4123    2.7000    1.3552 C   0  0  0  1  0  0  0  0  0  0  0  0
   -4.7441    7.9210   -1.3622 H   0  0  0  1  0  0  0  0  0  0  0  0
   -3.4598    9.6059    0.4721 H   0  0  0  1  0  0  0  0  0  0  0  0
   -2.3639    7.0883    2.3950 H   0  0  0  1  0  0  0  0  0  0  0  0
   -1.1902    4.9916    2.7308 H   0  0  0  1  0  0  0  0  0  0  0  0
   -3.1502    3.3626   -0.6062 H   0  0  0  1  0  0  0  0  0  0  0  0
   -4.3217    5.4559   -0.9413 H   0  0  0  1  0  0  0  0  0  0  0  0
   -1.2570    2.6051    2.4096 H   0  0  0  1  0  0  0  0  0  0  0  0
   -2.0597    1.9178    1.0177 H   0  0  0  1  0  0  0  0  0  0  0  0
  1  4  1  0  0  0  0
  2  4  1  0  0  0  0
  2  5  2  0  0  0  0
  2  6  1  0  0  0  0
  3  4  1  0  0  0  0
  3  7  1  0  0  0  0
  3  8  1  0  0  0  0
  4 28  1  0  0  0  0
  6  9  1  0  0  0  0
  6 12  1  0  0  0  0
  8 10  1  0  0  0  0
  8 11  2  0  0  0  0
  9 13  1  0  0  0  0
  9 14  1  0  0  0  0
  9 15  1  0  0  0  0
 10 16  1  0  0  0  0
 10 17  1  0  0  0  0
 10 18  1  0  0  0  0
 19 20  1  0  0  0  0
 19 21  1  0  0  0  0
 19 22  1  0  0  0  0
 20 29  1  0  0  0  0
 21 30  1  0  0  0  0
 22 23  4  0  0  0  0
 22 27  4  0  0  0  0
 23 24  4  0  0  0  0
 23 31  1  0  0  0  0
 24 25  4  0  0  0  0
 24 32  1  0  0  0  0
 25 26  4  0  0  0  0
 25 28  1  0  0  0  0
 26 27  4  0  0  0  0
 26 33  1  0  0  0  0
 27 34  1  0  0  0  0
 28 35  1  0  0  0  0
 28 36  1  0  0  0  0
M  END
> <BCLConfClusterSize>
1

> <ConfClashScore>
0 

> <ConfOneFourInteractionScore>
-0.960204 

> <ConfScore>
0.154425 

> <ConfScorePBest>
0.00290666 

> <ConfTolerance>
0.923438 

> <RosettaParamsInstructions>
M  ROOT 3
M  POLY_N_BB 3
M  POLY_CA_BB 4
M  POLY_C_BB 2
M  POLY_O_BB 5
M  POLY_IGNORE 9 10 11 12 13 14 15 16 17 18 
M  POLY_UPPER 6
M  POLY_LOWER 8
M  POLY_CHG 0
M  POLY_PROPERTIES ALPHA_AA L_AA PROTEIN AROMATIC POLYMER 
M  END

$$$$



 36 36  0  0  0  0  0  0  0  0999 V2000
   -1.6362    0.8608    2.3481 H   0  0  0  1  0  0  0  0  0  0  0  0
   -1.7352    2.4128    3.7858 C   0  0  0  1  0  0  0  0  0  0  0  0
   -3.4997    1.7487    2.2298 N   0  0  0  1  0  0  0  0  0  0  0  0
   -2.0584    1.8422    2.4081 C   0  0  0  1  0  0  0  0  0  0  0  0
   -0.5749    2.6648    4.1080 O   0  0  0  1  0  0  0  0  0  0  0  0
   -2.7484    2.6299    4.6292 N   0  0  0  1  0  0  0  0  0  0  0  0
   -4.0581    2.3993    2.7045 H   0  0  0  1  0  0  0  0  0  0  0  0
   -4.1424    0.8086    1.4389 C   0  0  0  1  0  0  0  0  0  0  0  0
   -2.5541    3.2356    5.9381 C   0  0  0  1  0  0  0  0  0  0  0  0
   -5.6442    0.8062    1.3816 C   0  0  0  1  0  0  0  0  0  0  0  0
   -3.4653    0.0125    0.8142 O   0  0  0  1  0  0  0  0  0  0  0  0
   -3.6538    2.3722    4.3570 H   0  0  0  1  0  0  0  0  0  0  0  0
   -3.2480    2.8125    6.6340 H   0  0  0  1  0  0  0  0  0  0  0  0
   -2.7165    4.2911    5.8700 H   0  0  0  1  0  0  0  0  0  0  0  0
   -1.5551    3.0488    6.2725 H   0  0  0  1  0  0  0  0  0  0  0  0
   -5.9899    1.7571    1.0334 H   0  0  0  1  0  0  0  0  0  0  0  0
   -6.0379    0.6200    2.3590 H   0  0  0  1  0  0  0  0  0  0  0  0
   -5.9742    0.0399    0.7117 H   0  0  0  1  0  0  0  0  0  0  0  0
   -4.0974    7.8110    0.4067 B   0  0  0  1  0  0  0  0  0  0  0  0
   -3.3718    8.7120   -0.3060 O   0  0  0  1  0  0  0  0  0  0  0  0
   -5.3508    8.1639    0.8117 O   0  0  0  1  0  0  0  0  0  0  0  0
   -3.4357    6.4168    0.7159 C   0  0  0  1  0  0  0  0  0  0  0  0
   -2.5380    6.2898    1.7591 C   0  0  0  1  0  0  0  0  0  0  0  0
   -1.8590    5.0962    1.9480 C   0  0  0  1  0  0  0  0  0  0  0  0
   -2.0758    4.0347    1.0897 C   0  0  0  1  0  0  0  0  0  0  0  0
   -2.9760    4.1619    0.0434 C   0  0  0  1  0  0  0  0  0  0  0  0
   -3.6530    5.3520   -0.1448 C   0  0  0  1  0  0  0  0  0  0  0  0
   -1.4294    2.6954    1.3145 C   0  0  0  1  0  0  0  0  0  0  0  0
   -2.7273    9.1310    0.2689 H   0  0  0  1  0  0  0  0  0  0  0  0
   -5.9308    7.4007    0.7605 H   0  0  0  1  0  0  0  0  0  0  0  0
   -2.3720    7.0899    2.4024 H   0  0  0  1  0  0  0  0  0  0  0  0
   -1.1865    4.9994    2.7354 H   0  0  0  1  0  0  0  0  0  0  0  0
   -3.1421    3.3618   -0.5999 H   0  0  0  1  0  0  0  0  0  0  0  0
   -4.3254    5.4488   -0.9322 H   0  0  0  1  0  0  0  0  0  0  0  0
   -1.4799    2.1465    0.3974 H   0  0  0  1  0  0  0  0  0  0  0  0
   -0.4050    2.8628    1.5745 H   0  0  0  1  0  0  0  0  0  0  0  0
  1  4  1  0  0  0  0
  2  4  1  0  0  0  0
  2  5  2  0  0  0  0
  2  6  1  0  0  0  0
  3  4  1  0  0  0  0
  3  7  1  0  0  0  0
  3  8  1  0  0  0  0
  4 28  1  0  0  0  0
  6  9  1  0  0  0  0
  6 12  1  0  0  0  0
  8 10  1  0  0  0  0
  8 11  2  0  0  0  0
  9 13  1  0  0  0  0
  9 14  1  0  0  0  0
  9 15  1  0  0  0  0
 10 16  1  0  0  0  0
 10 17  1  0  0  0  0
 10 18  1  0  0  0  0
 19 20  1  0  0  0  0
 19 21  1  0  0  0  0
 19 22  1  0  0  0  0
 20 29  1  0  0  0  0
 21 30  1  0  0  0  0
 22 23  4  0  0  0  0
 22 27  4  0  0  0  0
 23 24  4  0  0  0  0
 23 31  1  0  0  0  0
 24 25  4  0  0  0  0
 24 32  1  0  0  0  0
 25 26  4  0  0  0  0
 25 28  1  0  0  0  0
 26 27  4  0  0  0  0
 26 33  1  0  0  0  0
 27 34  1  0  0  0  0
 28 35  1  0  0  0  0
 28 36  1  0  0  0  0
M  END
> <BCLConfClusterSize>
1

> <ConfClashScore>
0 

> <ConfOneFourInteractionScore>
-0.947566 

> <ConfScore>
0.160379 

> <ConfScorePBest>
0.00287818 

> <ConfTolerance>
0.537698 

> <RosettaParamsInstructions>
M  ROOT 3
M  POLY_N_BB 3
M  POLY_CA_BB 4
M  POLY_C_BB 2
M  POLY_O_BB 5
M  POLY_IGNORE 9 10 11 12 13 14 15 16 17 18 
M  POLY_UPPER 6
M  POLY_LOWER 8
M  POLY_CHG 0
M  POLY_PROPERTIES ALPHA_AA L_AA PROTEIN AROMATIC POLYMER 
M  END

$$$$



 36 36  0  0  0  0  0  0  0  0999 V2000
   -1.4075    1.0987    2.7248 H   0  0  0  1  0  0  0  0  0  0  0  0
   -2.1247    2.7734    3.7899 C   0  0  0  1  0  0  0  0  0  0  0  0
   -3.3359    1.4421    2.0558 N   0  0  0  1  0  0  0  0  0  0  0  0
   -2.0353    1.9400    2.5175 C   0  0  0  1  0  0  0  0  0  0  0  0
   -2.9731    3.6553    3.9172 O   0  0  0  1  0  0  0  0  0  0  0  0
   -1.2265    2.4801    4.7435 N   0  0  0  1  0  0  0  0  0  0  0  0
   -3.9960    2.0840    1.7202 H   0  0  0  1  0  0  0  0  0  0  0  0
   -3.6516    0.1441    2.0769 C   0  0  0  1  0  0  0  0  0  0  0  0
   -1.2894    3.1456    6.0361 C   0  0  0  1  0  0  0  0  0  0  0  0
   -4.9254   -0.2360    1.3473 C   0  0  0  1  0  0  0  0  0  0  0  0
   -2.9650   -0.7031    2.6465 O   0  0  0  1  0  0  0  0  0  0  0  0
   -0.5269    1.8164    4.5687 H   0  0  0  1  0  0  0  0  0  0  0  0
   -0.9101    2.4917    6.7934 H   0  0  0  1  0  0  0  0  0  0  0  0
   -2.3054    3.3971    6.2585 H   0  0  0  1  0  0  0  0  0  0  0  0
   -0.6989    4.0375    6.0070 H   0  0  0  1  0  0  0  0  0  0  0  0
   -4.7157   -0.3646    0.3060 H   0  0  0  1  0  0  0  0  0  0  0  0
   -5.6521    0.5395    1.4714 H   0  0  0  1  0  0  0  0  0  0  0  0
   -5.3071   -1.1510    1.7497 H   0  0  0  1  0  0  0  0  0  0  0  0
   -4.1435    7.8100    0.3943 B   0  0  0  1  0  0  0  0  0  0  0  0
   -3.5310    8.7433   -0.3198 O   0  0  0  1  0  0  0  0  0  0  0  0
   -5.4541    7.9974    0.7050 O   0  0  0  1  0  0  0  0  0  0  0  0
   -3.4240    6.4220    0.7158 C   0  0  0  1  0  0  0  0  0  0  0  0
   -2.5276    6.2863    1.7590 C   0  0  0  1  0  0  0  0  0  0  0  0
   -1.8572    5.0874    1.9455 C   0  0  0  1  0  0  0  0  0  0  0  0
   -2.0814    4.0294    1.0849 C   0  0  0  1  0  0  0  0  0  0  0  0
   -2.9804    4.1653    0.0386 C   0  0  0  1  0  0  0  0  0  0  0  0
   -3.6487    5.3607   -0.1472 C   0  0  0  1  0  0  0  0  0  0  0  0
   -1.4133    2.6967    1.3512 C   0  0  0  1  0  0  0  0  0  0  0  0
   -3.0666    9.3434    0.2683 H   0  0  0  1  0  0  0  0  0  0  0  0
   -5.9824    7.3089    0.2946 H   0  0  0  1  0  0  0  0  0  0  0  0
   -2.3560    7.0838    2.4041 H   0  0  0  1  0  0  0  0  0  0  0  0
   -1.1857    4.9841    2.7329 H   0  0  0  1  0  0  0  0  0  0  0  0
   -3.1520    3.3678   -0.6065 H   0  0  0  1  0  0  0  0  0  0  0  0
   -4.3202    5.4640   -0.9346 H   0  0  0  1  0  0  0  0  0  0  0  0
   -1.4947    2.0932    0.4715 H   0  0  0  1  0  0  0  0  0  0  0  0
   -0.3807    2.8712    1.5704 H   0  0  0  1  0  0  0  0  0  0  0  0
  1  4  1  0  0  0  0
  2  4  1  0  0  0  0
  2  5  2  0  0  0  0
  2  6  1  0  0  0  0
  3  4  1  0  0  0  0
  3  7  1  0  0  0  0
  3  8  1  0  0  0  0
  4 28  1  0  0  0  0
  6  9  1  0  0  0  0
  6 12  1  0  0  0  0
  8 10  1  0  0  0  0
  8 11  2  0  0  0  0
  9 13  1  0  0  0  0
  9 14  1  0  0  0  0
  9 15  1  0  0  0  0
 10 16  1  0  0  0  0
 10 17  1  0  0  0  0
 10 18  1  0  0  0  0
 19 20  1  0  0  0  0
 19 21  1  0  0  0  0
 19 22  1  0  0  0  0
 20 29  1  0  0  0  0
 21 30  1  0  0  0  0
 22 23  4  0  0  0  0
 22 27  4  0  0  0  0
 23 24  4  0  0  0  0
 23 31  1  0  0  0  0
 24 25  4  0  0  0  0
 24 32  1  0  0  0  0
 25 26  4  0  0  0  0
 25 28  1  0  0  0  0
 26 27  4  0  0  0  0
 26 33  1  0  0  0  0
 27 34  1  0  0  0  0
 28 35  1  0  0  0  0
 28 36  1  0  0  0  0
M  END
> <BCLConfClusterSize>
1

> <ConfClashScore>
0 

> <ConfOneFourInteractionScore>
-0.986438 

> <ConfScore>
0.160542 

> <ConfScorePBest>
0.0028497 

> <ConfTolerance>
0.738717 

> <RosettaParamsInstructions>
M  ROOT 3
M  POLY_N_BB 3
M  POLY_CA_BB 4
M  POLY_C_BB 2
M  POLY_O_BB 5
M  POLY_IGNORE 9 10 11 12 13 14 15 16 17 18 
M  POLY_UPPER 6
M  POLY_LOWER 8
M  POLY_CHG 0
M  POLY_PROPERTIES ALPHA_AA L_AA PROTEIN AROMATIC POLYMER 
M  END

$$$$



 36 36  0  0  0  0  0  0  0  0999 V2000
   -3.1540    1.6519    0.7722 H   0  0  0  1  0  0  0  0  0  0  0  0
   -1.7879    0.2423    1.5511 C   0  0  0  1  0  0  0  0  0  0  0  0
   -3.1467    1.8075    2.8339 N   0  0  0  1  0  0  0  0  0  0  0  0
   -2.4463    1.6093    1.5737 C   0  0  0  1  0  0  0  0  0  0  0  0
   -0.7568    0.0420    0.9147 O   0  0  0  1  0  0  0  0  0  0  0  0
   -2.4040   -0.7136    2.2644 N   0  0  0  1  0  0  0  0  0  0  0  0
   -4.0922    2.0645    2.8142 H   0  0  0  1  0  0  0  0  0  0  0  0
   -2.5467    1.6517    4.0144 C   0  0  0  1  0  0  0  0  0  0  0  0
   -1.7893   -2.0066    2.5256 C   0  0  0  1  0  0  0  0  0  0  0  0
   -3.4136    1.8579    5.2629 C   0  0  0  1  0  0  0  0  0  0  0  0
   -1.3791    1.2825    4.1329 O   0  0  0  1  0  0  0  0  0  0  0  0
   -3.2988   -0.5345    2.6217 H   0  0  0  1  0  0  0  0  0  0  0  0
   -0.7284   -1.8893    2.5995 H   0  0  0  1  0  0  0  0  0  0  0  0
   -2.0188   -2.6785    1.7251 H   0  0  0  1  0  0  0  0  0  0  0  0
   -2.1690   -2.4027    3.4442 H   0  0  0  1  0  0  0  0  0  0  0  0
   -2.8064    2.2288    6.0621 H   0  0  0  1  0  0  0  0  0  0  0  0
   -3.8510    0.9249    5.5511 H   0  0  0  1  0  0  0  0  0  0  0  0
   -4.1880    2.5638    5.0466 H   0  0  0  1  0  0  0  0  0  0  0  0
   -4.0987    7.8201    0.4085 B   0  0  0  1  0  0  0  0  0  0  0  0
   -3.2643    8.7462   -0.0827 O   0  0  0  1  0  0  0  0  0  0  0  0
   -5.4136    8.0976    0.6166 O   0  0  0  1  0  0  0  0  0  0  0  0
   -3.4356    6.4161    0.7157 C   0  0  0  1  0  0  0  0  0  0  0  0
   -2.5373    6.2852    1.7579 C   0  0  0  1  0  0  0  0  0  0  0  0
   -1.8604    5.0898    1.9435 C   0  0  0  1  0  0  0  0  0  0  0  0
   -2.0798    4.0307    1.0831 C   0  0  0  1  0  0  0  0  0  0  0  0
   -2.9807    4.1619    0.0378 C   0  0  0  1  0  0  0  0  0  0  0  0
   -3.6555    5.3537   -0.1472 C   0  0  0  1  0  0  0  0  0  0  0  0
   -1.4083    2.7095    1.3469 C   0  0  0  1  0  0  0  0  0  0  0  0
   -2.4291    8.7076    0.3891 H   0  0  0  1  0  0  0  0  0  0  0  0
   -5.9279    7.7951   -0.1355 H   0  0  0  1  0  0  0  0  0  0  0  0
   -2.3693    7.0835    2.4029 H   0  0  0  1  0  0  0  0  0  0  0  0
   -1.1874    4.9900    2.7302 H   0  0  0  1  0  0  0  0  0  0  0  0
   -3.1487    3.3636   -0.6072 H   0  0  0  1  0  0  0  0  0  0  0  0
   -4.3285    5.4535   -0.9338 H   0  0  0  1  0  0  0  0  0  0  0  0
   -0.8007    2.4505    0.5051 H   0  0  0  1  0  0  0  0  0  0  0  0
   -0.7931    2.7964    2.2181 H   0  0  0  1  0  0  0  0  0  0  0  0
  1  4  1  0  0  0  0
  2  4  1  0  0  0  0
  2  5  2  0  0  0  0
  2  6  1  0  0  0  0
  3  4  1  0  0  0  0
  3  7  1  0  0  0  0
  3  8  1  0  0  0  0
  4 28  1  0  0  0  0
  6  9  1  0  0  0  0
  6 12  1  0  0  0  0
  8 10  1  0  0  0  0
  8 11  2  0  0  0  0
  9 13  1  0  0  0  0
  9 14  1  0  0  0  0
  9 15  1  0  0  0  0
 10 16  1  0  0  0  0
 10 17  1  0  0  0  0
 10 18  1  0  0  0  0
 19 20  1  0  0  0  0
 19 21  1  0  0  0  0
 19 22  1  0  0  0  0
 20 29  1  0  0  0  0
 21 30  1  0  0  0  0
 22 23  4  0  0  0  0
 22 27  4  0  0  0  0
 23 24  4  0  0  0  0
 23 31  1  0  0  0  0
 24 25  4  0  0  0  0
 24 32  1  0  0  0  0
 25 26  4  0  0  0  0
 25 28  1  0  0  0  0
 26 27  4  0  0  0  0
 26 33  1  0  0  0  0
 27 34  1  0  0  0  0
 28 35  1  0  0  0  0
 28 36  1  0  0  0  0
M  END
> <BCLConfClusterSize>
1

> <ConfClashScore>
0 

> <ConfOneFourInteractionScore>
-0.966839 

> <ConfScore>
0.166473 

> <ConfScorePBest>
0.00282122 

> <ConfTolerance>
0.862696 

> <RosettaParamsInstructions>
M  ROOT 3
M  POLY_N_BB 3
M  POLY_CA_BB 4
M  POLY_C_BB 2
M  POLY_O_BB 5
M  POLY_IGNORE 9 10 11 12 13 14 15 16 17 18 
M  POLY_UPPER 6
M  POLY_LOWER 8
M  POLY_CHG 0
M  POLY_PROPERTIES ALPHA_AA L_AA PROTEIN AROMATIC POLYMER 
M  END

$$$$



 36 36  0  0  0  0  0  0  0  0999 V2000
    0.3655    1.8010    1.9473 H   0  0  0  1  0  0  0  0  0  0  0  0
    0.8911    3.6923    1.2203 C   0  0  0  1  0  0  0  0  0  0  0  0
   -0.1832    3.1249    3.4026 N   0  0  0  1  0  0  0  0  0  0  0  0
   -0.0585    2.7823    1.9937 C   0  0  0  1  0  0  0  0  0  0  0  0
    1.0846    4.8440    1.5731 O   0  0  0  1  0  0  0  0  0  0  0  0
    1.4120    3.1555    0.1064 N   0  0  0  1  0  0  0  0  0  0  0  0
   -0.1113    4.0653    3.6688 H   0  0  0  1  0  0  0  0  0  0  0  0
   -0.3924    2.2008    4.3469 C   0  0  0  1  0  0  0  0  0  0  0  0
    2.2358    3.9653   -0.7787 C   0  0  0  1  0  0  0  0  0  0  0  0
   -0.4372    2.7144    5.7728 C   0  0  0  1  0  0  0  0  0  0  0  0
   -0.5401    1.0155    4.0957 O   0  0  0  1  0  0  0  0  0  0  0  0
    1.2374    2.2162   -0.1116 H   0  0  0  1  0  0  0  0  0  0  0  0
    3.0260    4.4176   -0.2167 H   0  0  0  1  0  0  0  0  0  0  0  0
    1.6343    4.7288   -1.2261 H   0  0  0  1  0  0  0  0  0  0  0  0
    2.6529    3.3448   -1.5442 H   0  0  0  1  0  0  0  0  0  0  0  0
    0.2443    2.1523    6.3765 H   0  0  0  1  0  0  0  0  0  0  0  0
   -1.4288    2.6061    6.1598 H   0  0  0  1  0  0  0  0  0  0  0  0
   -0.1585    3.7474    5.7885 H   0  0  0  1  0  0  0  0  0  0  0  0
   -4.1205    7.8153    0.4298 B   0  0  0  1  0  0  0  0  0  0  0  0
   -3.5244    8.8197   -0.2633 O   0  0  0  1  0  0  0  0  0  0  0  0
   -5.3731    8.1103    0.8697 O   0  0  0  1  0  0  0  0  0  0  0  0
   -3.4285    6.4194    0.7079 C   0  0  0  1  0  0  0  0  0  0  0  0
   -2.5335    6.2923    1.7534 C   0  0  0  1  0  0  0  0  0  0  0  0
   -1.8591    5.0968    1.9471 C   0  0  0  1  0  0  0  0  0  0  0  0
   -2.0778    4.0336    1.0914 C   0  0  0  1  0  0  0  0  0  0  0  0
   -2.9754    4.1610    0.0428 C   0  0  0  1  0  0  0  0  0  0  0  0
   -3.6477    5.3530   -0.1502 C   0  0  0  1  0  0  0  0  0  0  0  0
   -1.4322    2.6835    1.3229 C   0  0  0  1  0  0  0  0  0  0  0  0
   -3.4264    8.5605   -1.1824 H   0  0  0  1  0  0  0  0  0  0  0  0
   -5.3226    8.4878    1.7510 H   0  0  0  1  0  0  0  0  0  0  0  0
   -2.3660    7.0936    2.3948 H   0  0  0  1  0  0  0  0  0  0  0  0
   -1.1886    4.9998    2.7362 H   0  0  0  1  0  0  0  0  0  0  0  0
   -3.1429    3.3596   -0.5986 H   0  0  0  1  0  0  0  0  0  0  0  0
   -4.3181    5.4499   -0.9393 H   0  0  0  1  0  0  0  0  0  0  0  0
   -2.0756    2.1011    1.9487 H   0  0  0  1  0  0  0  0  0  0  0  0
   -1.3154    2.1953    0.3779 H   0  0  0  1  0  0  0  0  0  0  0  0
  1  4  1  0  0  0  0
  2  4  1  0  0  0  0
  2  5  2  0  0  0  0
  2  6  1  0  0  0  0
  3  4  1  0  0  0  0
  3  7  1  0  0  0  0
  3  8  1  0  0  0  0
  4 28  1  0  0  0  0
  6  9  1  0  0  0  0
  6 12  1  0  0  0  0
  8 10  1  0  0  0  0
  8 11  2  0  0  0  0
  9 13  1  0  0  0  0
  9 14  1  0  0  0  0
  9 15  1  0  0  0  0
 10 16  1  0  0  0  0
 10 17  1  0  0  0  0
 10 18  1  0  0  0  0
 19 20  1  0  0  0  0
 19 21  1  0  0  0  0
 19 22  1  0  0  0  0
 20 29  1  0  0  0  0
 21 30  1  0  0  0  0
 22 23  4  0  0  0  0
 22 27  4  0  0  0  0
 23 24  4  0  0  0  0
 23 31  1  0  0  0  0
 24 25  4  0  0  0  0
 24 32  1  0  0  0  0
 25 26  4  0  0  0  0
 25 28  1  0  0  0  0
 26 27  4  0  0  0  0
 26 33  1  0  0  0  0
 27 34  1  0  0  0  0
 28 35  1  0  0  0  0
 28 36  1  0  0  0  0
M  END
> <BCLConfClusterSize>
1

> <ConfClashScore>
0 

> <ConfOneFourInteractionScore>
-0.984302 

> <ConfScore>
0.16748 

> <ConfScorePBest>
0.00279274 

> <ConfTolerance>
0.81619 

> <RosettaParamsInstructions>
M  ROOT 3
M  POLY_N_BB 3
M  POLY_CA_BB 4
M  POLY_C_BB 2
M  POLY_O_BB 5
M  POLY_IGNORE 9 10 11 12 13 14 15 16 17 18 
M  POLY_UPPER 6
M  POLY_LOWER 8
M  POLY_CHG 0
M  POLY_PROPERTIES ALPHA_AA L_AA PROTEIN AROMATIC POLYMER 
M  END

$$$$



 36 36  0  0  0  0  0  0  0  0999 V2000
   -1.8587    0.7492    2.0456 H   0  0  0  1  0  0  0  0  0  0  0  0
   -2.4794    2.1005    3.5403 C   0  0  0  1  0  0  0  0  0  0  0  0
   -3.6806    1.5397    1.5209 N   0  0  0  1  0  0  0  0  0  0  0  0
   -2.3421    1.7034    2.0682 C   0  0  0  1  0  0  0  0  0  0  0  0
   -2.3449    3.2647    3.8792 O   0  0  0  1  0  0  0  0  0  0  0  0
   -2.6590    1.1088    4.4271 N   0  0  0  1  0  0  0  0  0  0  0  0
   -4.4389    1.9998    1.9377 H   0  0  0  1  0  0  0  0  0  0  0  0
   -3.8778    0.7635    0.4515 C   0  0  0  1  0  0  0  0  0  0  0  0
   -2.9701    1.3636    5.8257 C   0  0  0  1  0  0  0  0  0  0  0  0
   -5.3318    0.5464    0.0136 C   0  0  0  1  0  0  0  0  0  0  0  0
   -2.9663    0.3000   -0.2149 O   0  0  0  1  0  0  0  0  0  0  0  0
   -2.5778    0.1811    4.1221 H   0  0  0  1  0  0  0  0  0  0  0  0
   -3.6368    2.1975    5.8972 H   0  0  0  1  0  0  0  0  0  0  0  0
   -2.0677    1.5822    6.3575 H   0  0  0  1  0  0  0  0  0  0  0  0
   -3.4346    0.4985    6.2509 H   0  0  0  1  0  0  0  0  0  0  0  0
   -5.7590    1.4815   -0.2828 H   0  0  0  1  0  0  0  0  0  0  0  0
   -5.8929    0.1408    0.8294 H   0  0  0  1  0  0  0  0  0  0  0  0
   -5.3576   -0.1348   -0.8112 H   0  0  0  1  0  0  0  0  0  0  0  0
   -4.1205    7.8153    0.4298 B   0  0  0  1  0  0  0  0  0  0  0  0
   -3.8433    8.8917    1.2103 O   0  0  0  1  0  0  0  0  0  0  0  0
   -5.0047    7.9694   -0.5919 O   0  0  0  1  0  0  0  0  0  0  0  0
   -3.4285    6.4194    0.7079 C   0  0  0  1  0  0  0  0  0  0  0  0
   -2.5335    6.2923    1.7534 C   0  0  0  1  0  0  0  0  0  0  0  0
   -1.8591    5.0968    1.9471 C   0  0  0  1  0  0  0  0  0  0  0  0
   -2.0778    4.0336    1.0914 C   0  0  0  1  0  0  0  0  0  0  0  0
   -2.9754    4.1610    0.0428 C   0  0  0  1  0  0  0  0  0  0  0  0
   -3.6477    5.3530   -0.1502 C   0  0  0  1  0  0  0  0  0  0  0  0
   -1.4322    2.6835    1.3229 C   0  0  0  1  0  0  0  0  0  0  0  0
   -4.6213    9.1257    1.7216 H   0  0  0  1  0  0  0  0  0  0  0  0
   -4.7049    8.6734   -1.1716 H   0  0  0  1  0  0  0  0  0  0  0  0
   -2.3660    7.0936    2.3948 H   0  0  0  1  0  0  0  0  0  0  0  0
   -1.1886    4.9998    2.7362 H   0  0  0  1  0  0  0  0  0  0  0  0
   -3.1429    3.3596   -0.5986 H   0  0  0  1  0  0  0  0  0  0  0  0
   -4.3181    5.4499   -0.9393 H   0  0  0  1  0  0  0  0  0  0  0  0
   -1.1799    2.2593    0.3735 H   0  0  0  1  0  0  0  0  0  0  0  0
   -0.5414    2.8261    1.8984 H   0  0  0  1  0  0  0  0  0  0  0  0
  1  4  1  0  0  0  0
  2  4  1  0  0  0  0
  2  5  2  0  0  0  0
  2  6  1  0  0  0  0
  3  4  1  0  0  0  0
  3  7  1  0  0  0  0
  3  8  1  0  0  0  0
  4 28  1  0  0  0  0
  6  9  1  0  0  0  0
  6 12  1  0  0  0  0
  8 10  1  0  0  0  0
  8 11  2  0  0  0  0
  9 13  1  0  0  0  0
  9 14  1  0  0  0  0
  9 15  1  0  0  0  0
 10 16  1  0  0  0  0
 10 17  1  0  0  0  0
 10 18  1  0  0  0  0
 19 20  1  0  0  0  0
 19 21  1  0  0  0  0
 19 22  1  0  0  0  0
 20 29  1  0  0  0  0
 21 30  1  0  0  0  0
 22 23  4  0  0  0  0
 22 27  4  0  0  0  0
 23 24  4  0  0  0  0
 23 31  1  0  0  0  0
 24 25  4  0  0  0  0
 24 32  1  0  0  0  0
 25 26  4  0  0  0  0
 25 28  1  0  0  0  0
 26 27  4  0  0  0  0
 26 33  1  0  0  0  0
 27 34  1  0  0  0  0
 28 35  1  0  0  0  0
 28 36  1  0  0  0  0
M  END
> <BCLConfClusterSize>
1

> <ConfClashScore>
0 

> <ConfOneFourInteractionScore>
-0.976721 

> <ConfScore>
0.169603 

> <ConfScorePBest>
0.00276426 

> <ConfTolerance>
0.826605 

> <RosettaParamsInstructions>
M  ROOT 3
M  POLY_N_BB 3
M  POLY_CA_BB 4
M  POLY_C_BB 2
M  POLY_O_BB 5
M  POLY_IGNORE 9 10 11 12 13 14 15 16 17 18 
M  POLY_UPPER 6
M  POLY_LOWER 8
M  POLY_CHG 0
M  POLY_PROPERTIES ALPHA_AA L_AA PROTEIN AROMATIC POLYMER 
M  END

$$$$



 36 36  0  0  0  0  0  0  0  0999 V2000
    0.6251    3.1032    1.0441 H   0  0  0  1  0  0  0  0  0  0  0  0
    0.3477    1.0688    0.5332 C   0  0  0  1  0  0  0  0  0  0  0  0
   -0.2628    2.9374   -0.8213 N   0  0  0  1  0  0  0  0  0  0  0  0
   -0.1238    2.5096    0.5628 C   0  0  0  1  0  0  0  0  0  0  0  0
    1.2292    0.6757    1.2794 O   0  0  0  1  0  0  0  0  0  0  0  0
   -0.2648    0.2729   -0.3576 N   0  0  0  1  0  0  0  0  0  0  0  0
   -0.4848    2.2691   -1.5029 H   0  0  0  1  0  0  0  0  0  0  0  0
   -0.0968    4.2202   -1.1982 C   0  0  0  1  0  0  0  0  0  0  0  0
   -0.0728   -1.1661   -0.4594 C   0  0  0  1  0  0  0  0  0  0  0  0
   -0.4585    4.4813   -2.6474 C   0  0  0  1  0  0  0  0  0  0  0  0
    0.3078    5.1195   -0.4625 O   0  0  0  1  0  0  0  0  0  0  0  0
   -0.8882    0.6925   -0.9867 H   0  0  0  1  0  0  0  0  0  0  0  0
    0.5217   -1.5062    0.3626 H   0  0  0  1  0  0  0  0  0  0  0  0
    0.4253   -1.3950   -1.3783 H   0  0  0  1  0  0  0  0  0  0  0  0
   -1.0243   -1.6551   -0.4375 H   0  0  0  1  0  0  0  0  0  0  0  0
    0.4195    4.7646   -3.1893 H   0  0  0  1  0  0  0  0  0  0  0  0
   -1.1790    5.2707   -2.6982 H   0  0  0  1  0  0  0  0  0  0  0  0
   -0.8714    3.5927   -3.0773 H   0  0  0  1  0  0  0  0  0  0  0  0
   -4.1205    7.8153    0.4298 B   0  0  0  1  0  0  0  0  0  0  0  0
   -4.8375    8.0862   -0.6914 O   0  0  0  1  0  0  0  0  0  0  0  0
   -4.0065    8.8135    1.3463 O   0  0  0  1  0  0  0  0  0  0  0  0
   -3.4285    6.4194    0.7079 C   0  0  0  1  0  0  0  0  0  0  0  0
   -2.5335    6.2923    1.7534 C   0  0  0  1  0  0  0  0  0  0  0  0
   -1.8591    5.0968    1.9471 C   0  0  0  1  0  0  0  0  0  0  0  0
   -2.0778    4.0336    1.0914 C   0  0  0  1  0  0  0  0  0  0  0  0
   -2.9754    4.1610    0.0428 C   0  0  0  1  0  0  0  0  0  0  0  0
   -3.6477    5.3530   -0.1502 C   0  0  0  1  0  0  0  0  0  0  0  0
   -1.4322    2.6835    1.3229 C   0  0  0  1  0  0  0  0  0  0  0  0
   -5.4545    8.7996   -0.5126 H   0  0  0  1  0  0  0  0  0  0  0  0
   -4.8370    8.9124    1.8175 H   0  0  0  1  0  0  0  0  0  0  0  0
   -2.3660    7.0936    2.3948 H   0  0  0  1  0  0  0  0  0  0  0  0
   -1.1886    4.9998    2.7362 H   0  0  0  1  0  0  0  0  0  0  0  0
   -3.1429    3.3596   -0.5986 H   0  0  0  1  0  0  0  0  0  0  0  0
   -4.3181    5.4499   -0.9393 H   0  0  0  1  0  0  0  0  0  0  0  0
   -1.2352    2.5750    2.3690 H   0  0  0  1  0  0  0  0  0  0  0  0
   -2.1135    1.9215    1.0068 H   0  0  0  1  0  0  0  0  0  0  0  0
  1  4  1  0  0  0  0
  2  4  1  0  0  0  0
  2  5  2  0  0  0  0
  2  6  1  0  0  0  0
  3  4  1  0  0  0  0
  3  7  1  0  0  0  0
  3  8  1  0  0  0  0
  4 28  1  0  0  0  0
  6  9  1  0  0  0  0
  6 12  1  0  0  0  0
  8 10  1  0  0  0  0
  8 11  2  0  0  0  0
  9 13  1  0  0  0  0
  9 14  1  0  0  0  0
  9 15  1  0  0  0  0
 10 16  1  0  0  0  0
 10 17  1  0  0  0  0
 10 18  1  0  0  0  0
 19 20  1  0  0  0  0
 19 21  1  0  0  0  0
 19 22  1  0  0  0  0
 20 29  1  0  0  0  0
 21 30  1  0  0  0  0
 22 23  4  0  0  0  0
 22 27  4  0  0  0  0
 23 24  4  0  0  0  0
 23 31  1  0  0  0  0
 24 25  4  0  0  0  0
 24 32  1  0  0  0  0
 25 26  4  0  0  0  0
 25 28  1  0  0  0  0
 26 27  4  0  0  0  0
 26 33  1  0  0  0  0
 27 34  1  0  0  0  0
 28 35  1  0  0  0  0
 28 36  1  0  0  0  0
M  END
> <BCLConfClusterSize>
1

> <ConfClashScore>
0 

> <ConfOneFourInteractionScore>
-0.947755 

> <ConfScore>
0.171157 

> <ConfScorePBest>
0.00273578 

> <ConfTolerance>
0.811477 

> <RosettaParamsInstructions>
M  ROOT 3
M  POLY_N_BB 3
M  POLY_CA_BB 4
M  POLY_C_BB 2
M  POLY_O_BB 5
M  POLY_IGNORE 9 10 11 12 13 14 15 16 17 18 
M  POLY_UPPER 6
M  POLY_LOWER 8
M  POLY_CHG 0
M  POLY_PROPERTIES ALPHA_AA L_AA PROTEIN AROMATIC POLYMER 
M  END

$$$$



 36 36  0  0  0  0  0  0  0  0999 V2000
   -1.0245    2.8321    3.3905 H   0  0  0  1  0  0  0  0  0  0  0  0
   -3.0346    2.2599    3.2107 C   0  0  0  1  0  0  0  0  0  0  0  0
   -1.0424    0.8383    2.8838 N   0  0  0  1  0  0  0  0  0  0  0  0
   -1.5932    2.1797    2.7614 C   0  0  0  1  0  0  0  0  0  0  0  0
   -3.3264    2.2187    4.4052 O   0  0  0  1  0  0  0  0  0  0  0  0
   -3.9793    2.3765    2.2732 N   0  0  0  1  0  0  0  0  0  0  0  0
   -0.7416    0.3748    2.0744 H   0  0  0  1  0  0  0  0  0  0  0  0
   -0.9315    0.2114    4.0712 C   0  0  0  1  0  0  0  0  0  0  0  0
   -5.3982    2.3854    2.5962 C   0  0  0  1  0  0  0  0  0  0  0  0
   -0.3735   -1.1947    3.9682 C   0  0  0  1  0  0  0  0  0  0  0  0
   -1.2414    0.6995    5.1461 O   0  0  0  1  0  0  0  0  0  0  0  0
   -3.7072    2.4589    1.3353 H   0  0  0  1  0  0  0  0  0  0  0  0
   -5.7156    1.3926    2.8384 H   0  0  0  1  0  0  0  0  0  0  0  0
   -5.9533    2.7414    1.7536 H   0  0  0  1  0  0  0  0  0  0  0  0
   -5.5690    3.0286    3.4340 H   0  0  0  1  0  0  0  0  0  0  0  0
   -1.0107   -1.7872    3.3454 H   0  0  0  1  0  0  0  0  0  0  0  0
   -0.3235   -1.6307    4.9441 H   0  0  0  1  0  0  0  0  0  0  0  0
    0.6075   -1.1586    3.5425 H   0  0  0  1  0  0  0  0  0  0  0  0
   -4.1205    7.8153    0.4298 B   0  0  0  1  0  0  0  0  0  0  0  0
   -5.0125    8.0242   -0.5771 O   0  0  0  1  0  0  0  0  0  0  0  0
   -3.8258    8.8788    1.2244 O   0  0  0  1  0  0  0  0  0  0  0  0
   -3.4285    6.4194    0.7079 C   0  0  0  1  0  0  0  0  0  0  0  0
   -2.5335    6.2923    1.7534 C   0  0  0  1  0  0  0  0  0  0  0  0
   -1.8591    5.0968    1.9471 C   0  0  0  1  0  0  0  0  0  0  0  0
   -2.0778    4.0336    1.0914 C   0  0  0  1  0  0  0  0  0  0  0  0
   -2.9754    4.1610    0.0428 C   0  0  0  1  0  0  0  0  0  0  0  0
   -3.6477    5.3530   -0.1502 C   0  0  0  1  0  0  0  0  0  0  0  0
   -1.4322    2.6835    1.3229 C   0  0  0  1  0  0  0  0  0  0  0  0
   -4.5619    7.9619   -1.4224 H   0  0  0  1  0  0  0  0  0  0  0  0
   -3.1927    9.4463    0.7785 H   0  0  0  1  0  0  0  0  0  0  0  0
   -2.3660    7.0936    2.3948 H   0  0  0  1  0  0  0  0  0  0  0  0
   -1.1886    4.9998    2.7362 H   0  0  0  1  0  0  0  0  0  0  0  0
   -3.1429    3.3596   -0.5986 H   0  0  0  1  0  0  0  0  0  0  0  0
   -4.3181    5.4499   -0.9393 H   0  0  0  1  0  0  0  0  0  0  0  0
   -1.8816    1.9731    0.6609 H   0  0  0  1  0  0  0  0  0  0  0  0
   -0.3876    2.7636    1.1051 H   0  0  0  1  0  0  0  0  0  0  0  0
  1  4  1  0  0  0  0
  2  4  1  0  0  0  0
  2  5  2  0  0  0  0
  2  6  1  0  0  0  0
  3  4  1  0  0  0  0
  3  7  1  0  0  0  0
  3  8  1  0  0  0  0
  4 28  1  0  0  0  0
  6  9  1  0  0  0  0
  6 12  1  0  0  0  0
  8 10  1  0  0  0  0
  8 11  2  0  0  0  0
  9 13  1  0  0  0  0
  9 14  1  0  0  0  0
  9 15  1  0  0  0  0
 10 16  1  0  0  0  0
 10 17  1  0  0  0  0
 10 18  1  0  0  0  0
 19 20  1  0  0  0  0
 19 21  1  0  0  0  0
 19 22  1  0  0  0  0
 20 29  1  0  0  0  0
 21 30  1  0  0  0  0
 22 23  4  0  0  0  0
 22 27  4  0  0  0  0
 23 24  4  0  0  0  0
 23 31  1  0  0  0  0
 24 25  4  0  0  0  0
 24 32  1  0  0  0  0
 25 26  4  0  0  0  0
 25 28  1  0  0  0  0
 26 27  4  0  0  0  0
 26 33  1  0  0  0  0
 27 34  1  0  0  0  0
 28 35  1  0  0  0  0
 28 36  1  0  0  0  0
M  END
> <BCLConfClusterSize>
1

> <ConfClashScore>
0.000305484 

> <ConfOneFourInteractionScore>
-0.963088 

> <ConfScore>
0.175196 

> <ConfScorePBest>
0.0027073 

> <ConfTolerance>
0.852123 

> <RosettaParamsInstructions>
M  ROOT 3
M  POLY_N_BB 3
M  POLY_CA_BB 4
M  POLY_C_BB 2
M  POLY_O_BB 5
M  POLY_IGNORE 9 10 11 12 13 14 15 16 17 18 
M  POLY_UPPER 6
M  POLY_LOWER 8
M  POLY_CHG 0
M  POLY_PROPERTIES ALPHA_AA L_AA PROTEIN AROMATIC POLYMER 
M  END

$$$$



 36 36  0  0  0  0  0  0  0  0999 V2000
    0.3010    1.5752    0.8893 H   0  0  0  1  0  0  0  0  0  0  0  0
   -0.2691    2.4499   -0.9293 C   0  0  0  1  0  0  0  0  0  0  0  0
    0.9024    3.5380    0.9132 N   0  0  0  1  0  0  0  0  0  0  0  0
   -0.0996    2.5199    0.5861 C   0  0  0  1  0  0  0  0  0  0  0  0
   -1.3406    2.2086   -1.4547 O   0  0  0  1  0  0  0  0  0  0  0  0
    0.7915    2.6597   -1.7106 N   0  0  0  1  0  0  0  0  0  0  0  0
    1.6943    3.2942    1.4365 H   0  0  0  1  0  0  0  0  0  0  0  0
    0.7348    4.8264    0.4901 C   0  0  0  1  0  0  0  0  0  0  0  0
    0.8187    2.4550   -3.1512 C   0  0  0  1  0  0  0  0  0  0  0  0
    1.7663    5.7793    1.0384 C   0  0  0  1  0  0  0  0  0  0  0  0
   -0.1717    5.1484   -0.2603 O   0  0  0  1  0  0  0  0  0  0  0  0
    1.6144    2.9756   -1.2823 H   0  0  0  1  0  0  0  0  0  0  0  0
   -0.1464    2.1352   -3.4848 H   0  0  0  1  0  0  0  0  0  0  0  0
    1.5448    1.7067   -3.3912 H   0  0  0  1  0  0  0  0  0  0  0  0
    1.0776    3.3727   -3.6368 H   0  0  0  1  0  0  0  0  0  0  0  0
    1.3532    6.3142    1.8680 H   0  0  0  1  0  0  0  0  0  0  0  0
    2.0532    6.4719    0.2750 H   0  0  0  1  0  0  0  0  0  0  0  0
    2.6246    5.2281    1.3616 H   0  0  0  1  0  0  0  0  0  0  0  0
   -4.1022    7.8391    0.4658 B   0  0  0  1  0  0  0  0  0  0  0  0
   -4.8861    8.0636   -0.6204 O   0  0  0  1  0  0  0  0  0  0  0  0
   -3.9068    8.8599    1.3428 O   0  0  0  1  0  0  0  0  0  0  0  0
   -3.4324    6.4153    0.7003 C   0  0  0  1  0  0  0  0  0  0  0  0
   -2.5375    6.2883    1.7460 C   0  0  0  1  0  0  0  0  0  0  0  0
   -1.8633    5.0928    1.9400 C   0  0  0  1  0  0  0  0  0  0  0  0
   -2.0820    4.0295    1.0846 C   0  0  0  1  0  0  0  0  0  0  0  0
   -2.9795    4.1567    0.0358 C   0  0  0  1  0  0  0  0  0  0  0  0
   -3.6516    5.3488   -0.1575 C   0  0  0  1  0  0  0  0  0  0  0  0
   -1.4097    2.7006    1.3591 C   0  0  0  1  0  0  0  0  0  0  0  0
   -4.5173    8.7827   -1.1385 H   0  0  0  1  0  0  0  0  0  0  0  0
   -4.5195    8.7735    2.0768 H   0  0  0  1  0  0  0  0  0  0  0  0
   -2.3700    7.0898    2.3872 H   0  0  0  1  0  0  0  0  0  0  0  0
   -1.1930    4.9959    2.7293 H   0  0  0  1  0  0  0  0  0  0  0  0
   -3.1470    3.3553   -0.6055 H   0  0  0  1  0  0  0  0  0  0  0  0
   -4.3219    5.4456   -0.9468 H   0  0  0  1  0  0  0  0  0  0  0  0
   -1.1991    2.6354    2.4062 H   0  0  0  1  0  0  0  0  0  0  0  0
   -2.0809    1.9153    1.0802 H   0  0  0  1  0  0  0  0  0  0  0  0
  1  4  1  0  0  0  0
  2  4  1  0  0  0  0
  2  5  2  0  0  0  0
  2  6  1  0  0  0  0
  3  4  1  0  0  0  0
  3  7  1  0  0  0  0
  3  8  1  0  0  0  0
  4 28  1  0  0  0  0
  6  9  1  0  0  0  0
  6 12  1  0  0  0  0
  8 10  1  0  0  0  0
  8 11  2  0  0  0  0
  9 13  1  0  0  0  0
  9 14  1  0  0  0  0
  9 15  1  0  0  0  0
 10 16  1  0  0  0  0
 10 17  1  0  0  0  0
 10 18  1  0  0  0  0
 19 20  1  0  0  0  0
 19 21  1  0  0  0  0
 19 22  1  0  0  0  0
 20 29  1  0  0  0  0
 21 30  1  0  0  0  0
 22 23  4  0  0  0  0
 22 27  4  0  0  0  0
 23 24  4  0  0  0  0
 23 31  1  0  0  0  0
 24 25  4  0  0  0  0
 24 32  1  0  0  0  0
 25 26  4  0  0  0  0
 25 28  1  0  0  0  0
 26 27  4  0  0  0  0
 26 33  1  0  0  0  0
 27 34  1  0  0  0  0
 28 35  1  0  0  0  0
 28 36  1  0  0  0  0
M  END
> <BCLConfClusterSize>
1

> <ConfClashScore>
0 

> <ConfOneFourInteractionScore>
-0.959284 

> <ConfScore>
0.17535 

> <ConfScorePBest>
0.00267882 

> <ConfTolerance>
0.688547 

> <RosettaParamsInstructions>
M  ROOT 3
M  POLY_N_BB 3
M  POLY_CA_BB 4
M  POLY_C_BB 2
M  POLY_O_BB 5
M  POLY_IGNORE 9 10 11 12 13 14 15 16 17 18 
M  POLY_UPPER 6
M  POLY_LOWER 8
M  POLY_CHG 0
M  POLY_PROPERTIES ALPHA_AA L_AA PROTEIN AROMATIC POLYMER 
M  END

$$$$



 36 36  0  0  0  0  0  0  0  0999 V2000
   -2.2472    2.5004    3.2687 H   0  0  0  1  0  0  0  0  0  0  0  0
   -3.6335    1.5894    2.0019 C   0  0  0  1  0  0  0  0  0  0  0  0
   -1.4698    0.6648    2.7501 N   0  0  0  1  0  0  0  0  0  0  0  0
   -2.1993    1.8979    2.3857 C   0  0  0  1  0  0  0  0  0  0  0  0
   -4.5377    2.3977    2.2084 O   0  0  0  1  0  0  0  0  0  0  0  0
   -3.8397    0.3921    1.4309 N   0  0  0  1  0  0  0  0  0  0  0  0
   -1.6930   -0.1706    2.2890 H   0  0  0  1  0  0  0  0  0  0  0  0
   -0.5167    0.6497    3.6863 C   0  0  0  1  0  0  0  0  0  0  0  0
   -5.1571   -0.0432    0.9917 C   0  0  0  1  0  0  0  0  0  0  0  0
    0.1373   -0.6948    3.9389 C   0  0  0  1  0  0  0  0  0  0  0  0
   -0.1758    1.6584    4.3172 O   0  0  0  1  0  0  0  0  0  0  0  0
   -3.0766   -0.2099    1.3055 H   0  0  0  1  0  0  0  0  0  0  0  0
   -5.5036    0.6003    0.2101 H   0  0  0  1  0  0  0  0  0  0  0  0
   -5.8388   -0.0026    1.8154 H   0  0  0  1  0  0  0  0  0  0  0  0
   -5.0974   -1.0472    0.6266 H   0  0  0  1  0  0  0  0  0  0  0  0
    1.0874   -0.5472    4.4084 H   0  0  0  1  0  0  0  0  0  0  0  0
    0.2749   -1.2047    3.0084 H   0  0  0  1  0  0  0  0  0  0  0  0
   -0.4889   -1.2812    4.5783 H   0  0  0  1  0  0  0  0  0  0  0  0
   -4.0834    7.8618    0.5018 B   0  0  0  1  0  0  0  0  0  0  0  0
   -4.9437    7.9869   -0.5331 O   0  0  0  1  0  0  0  0  0  0  0  0
   -3.8275    8.9387    1.2919 O   0  0  0  1  0  0  0  0  0  0  0  0
   -3.4367    6.4110    0.6924 C   0  0  0  1  0  0  0  0  0  0  0  0
   -2.5426    6.2886    1.7393 C   0  0  0  1  0  0  0  0  0  0  0  0
   -1.8662    5.0950    1.9372 C   0  0  0  1  0  0  0  0  0  0  0  0
   -2.0820    4.0289    1.0844 C   0  0  0  1  0  0  0  0  0  0  0  0
   -2.9786    4.1515    0.0345 C   0  0  0  1  0  0  0  0  0  0  0  0
   -3.6530    5.3417   -0.1628 C   0  0  0  1  0  0  0  0  0  0  0  0
   -1.4073    2.7022    1.3632 C   0  0  0  1  0  0  0  0  0  0  0  0
   -5.8417    8.0435   -0.1983 H   0  0  0  1  0  0  0  0  0  0  0  0
   -3.4149    9.6295    0.7683 H   0  0  0  1  0  0  0  0  0  0  0  0
   -2.3773    7.0921    2.3785 H   0  0  0  1  0  0  0  0  0  0  0  0
   -1.1964    5.0016    2.7274 H   0  0  0  1  0  0  0  0  0  0  0  0
   -3.1439    3.3480   -0.6048 H   0  0  0  1  0  0  0  0  0  0  0  0
   -4.3227    5.4351   -0.9529 H   0  0  0  1  0  0  0  0  0  0  0  0
   -1.3413    2.1440    0.4527 H   0  0  0  1  0  0  0  0  0  0  0  0
   -0.4236    2.8820    1.7440 H   0  0  0  1  0  0  0  0  0  0  0  0
  1  4  1  0  0  0  0
  2  4  1  0  0  0  0
  2  5  2  0  0  0  0
  2  6  1  0  0  0  0
  3  4  1  0  0  0  0
  3  7  1  0  0  0  0
  3  8  1  0  0  0  0
  4 28  1  0  0  0  0
  6  9  1  0  0  0  0
  6 12  1  0  0  0  0
  8 10  1  0  0  0  0
  8 11  2  0  0  0  0
  9 13  1  0  0  0  0
  9 14  1  0  0  0  0
  9 15  1  0  0  0  0
 10 16  1  0  0  0  0
 10 17  1  0  0  0  0
 10 18  1  0  0  0  0
 19 20  1  0  0  0  0
 19 21  1  0  0  0  0
 19 22  1  0  0  0  0
 20 29  1  0  0  0  0
 21 30  1  0  0  0  0
 22 23  4  0  0  0  0
 22 27  4  0  0  0  0
 23 24  4  0  0  0  0
 23 31  1  0  0  0  0
 24 25  4  0  0  0  0
 24 32  1  0  0  0  0
 25 26  4  0  0  0  0
 25 28  1  0  0  0  0
 26 27  4  0  0  0  0
 26 33  1  0  0  0  0
 27 34  1  0  0  0  0
 28 35  1  0  0  0  0
 28 36  1  0  0  0  0
M  END
> <BCLConfClusterSize>
1

> <ConfClashScore>
5.71692e-05 

> <ConfOneFourInteractionScore>
-0.972789 

> <ConfScore>
0.177855 

> <ConfScorePBest>
0.00265034 

> <ConfTolerance>
0.491817 

> <RosettaParamsInstructions>
M  ROOT 3
M  POLY_N_BB 3
M  POLY_CA_BB 4
M  POLY_C_BB 2
M  POLY_O_BB 5
M  POLY_IGNORE 9 10 11 12 13 14 15 16 17 18 
M  POLY_UPPER 6
M  POLY_LOWER 8
M  POLY_CHG 0
M  POLY_PROPERTIES ALPHA_AA L_AA PROTEIN AROMATIC POLYMER 
M  END

$$$$



 36 36  0  0  0  0  0  0  0  0999 V2000
   -1.6247    1.7245   -0.5456 H   0  0  0  1  0  0  0  0  0  0  0  0
    0.0468    3.0166   -0.6955 C   0  0  0  1  0  0  0  0  0  0  0  0
   -0.0637    0.8761    0.5125 N   0  0  0  1  0  0  0  0  0  0  0  0
   -0.8253    2.0423    0.0907 C   0  0  0  1  0  0  0  0  0  0  0  0
    0.8712    3.7142   -0.1061 O   0  0  0  1  0  0  0  0  0  0  0  0
   -0.0784    2.9977   -2.0319 N   0  0  0  1  0  0  0  0  0  0  0  0
    0.8799    0.9888    0.7519 H   0  0  0  1  0  0  0  0  0  0  0  0
   -0.6061   -0.3427    0.5846 C   0  0  0  1  0  0  0  0  0  0  0  0
    0.7080    3.8627   -2.8987 C   0  0  0  1  0  0  0  0  0  0  0  0
    0.3020   -1.4378    1.1092 C   0  0  0  1  0  0  0  0  0  0  0  0
   -1.7566   -0.5784    0.2540 O   0  0  0  1  0  0  0  0  0  0  0  0
   -0.7218    2.3800   -2.4380 H   0  0  0  1  0  0  0  0  0  0  0  0
    0.4457    4.8840   -2.7172 H   0  0  0  1  0  0  0  0  0  0  0  0
    0.5077    3.6196   -3.9213 H   0  0  0  1  0  0  0  0  0  0  0  0
    1.7487    3.7203   -2.6950 H   0  0  0  1  0  0  0  0  0  0  0  0
    1.3100   -1.2399    0.8099 H   0  0  0  1  0  0  0  0  0  0  0  0
   -0.0096   -2.3807    0.7106 H   0  0  0  1  0  0  0  0  0  0  0  0
    0.2463   -1.4657    2.1774 H   0  0  0  1  0  0  0  0  0  0  0  0
   -4.1201    7.8145    0.4299 B   0  0  0  1  0  0  0  0  0  0  0  0
   -5.0807    7.9992   -0.5194 O   0  0  0  1  0  0  0  0  0  0  0  0
   -3.7219    8.8713    1.1876 O   0  0  0  1  0  0  0  0  0  0  0  0
   -3.4281    6.4186    0.7080 C   0  0  0  1  0  0  0  0  0  0  0  0
   -2.5331    6.2915    1.7535 C   0  0  0  1  0  0  0  0  0  0  0  0
   -1.8587    5.0960    1.9473 C   0  0  0  1  0  0  0  0  0  0  0  0
   -2.0774    4.0328    1.0916 C   0  0  0  1  0  0  0  0  0  0  0  0
   -2.9750    4.1602    0.0430 C   0  0  0  1  0  0  0  0  0  0  0  0
   -3.6473    5.3522   -0.1501 C   0  0  0  1  0  0  0  0  0  0  0  0
   -1.4363    2.6919    1.3215 C   0  0  0  1  0  0  0  0  0  0  0  0
   -4.6653    8.2102   -1.3588 H   0  0  0  1  0  0  0  0  0  0  0  0
   -4.3743    9.5730    1.1270 H   0  0  0  1  0  0  0  0  0  0  0  0
   -2.3656    7.0928    2.3949 H   0  0  0  1  0  0  0  0  0  0  0  0
   -1.1883    4.9990    2.7364 H   0  0  0  1  0  0  0  0  0  0  0  0
   -3.1425    3.3589   -0.5985 H   0  0  0  1  0  0  0  0  0  0  0  0
   -4.3177    5.4491   -0.9392 H   0  0  0  1  0  0  0  0  0  0  0  0
   -0.6607    2.8171    2.0480 H   0  0  0  1  0  0  0  0  0  0  0  0
   -2.1837    2.0305    1.7072 H   0  0  0  1  0  0  0  0  0  0  0  0
  1  4  1  0  0  0  0
  2  4  1  0  0  0  0
  2  5  2  0  0  0  0
  2  6  1  0  0  0  0
  3  4  1  0  0  0  0
  3  7  1  0  0  0  0
  3  8  1  0  0  0  0
  4 28  1  0  0  0  0
  6  9  1  0  0  0  0
  6 12  1  0  0  0  0
  8 10  1  0  0  0  0
  8 11  2  0  0  0  0
  9 13  1  0  0  0  0
  9 14  1  0  0  0  0
  9 15  1  0  0  0  0
 10 16  1  0  0  0  0
 10 17  1  0  0  0  0
 10 18  1  0  0  0  0
 19 20  1  0  0  0  0
 19 21  1  0  0  0  0
 19 22  1  0  0  0  0
 20 29  1  0  0  0  0
 21 30  1  0  0  0  0
 22 23  4  0  0  0  0
 22 27  4  0  0  0  0
 23 24  4  0  0  0  0
 23 31  1  0  0  0  0
 24 25  4  0  0  0  0
 24 32  1  0  0  0  0
 25 26  4  0  0  0  0
 25 28  1  0  0  0  0
 26 27  4  0  0  0  0
 26 33  1  0  0  0  0
 27 34  1  0  0  0  0
 28 35  1  0  0  0  0
 28 36  1  0  0  0  0
M  END
> <BCLConfClusterSize>
1

> <ConfClashScore>
0 

> <ConfOneFourInteractionScore>
-0.981262 

> <ConfScore>
0.197488 

> <ConfScorePBest>
0.00262186 

> <ConfTolerance>
0.808819 

> <RosettaParamsInstructions>
M  ROOT 3
M  POLY_N_BB 3
M  POLY_CA_BB 4
M  POLY_C_BB 2
M  POLY_O_BB 5
M  POLY_IGNORE 9 10 11 12 13 14 15 16 17 18 
M  POLY_UPPER 6
M  POLY_LOWER 8
M  POLY_CHG 0
M  POLY_PROPERTIES ALPHA_AA L_AA PROTEIN AROMATIC POLYMER 
M  END

$$$$



 36 36  0  0  0  0  0  0  0  0999 V2000
   -3.1405    1.4470    1.0437 H   0  0  0  1  0  0  0  0  0  0  0  0
   -1.6992    0.3241    2.1507 C   0  0  0  1  0  0  0  0  0  0  0  0
   -3.0826    2.1268    3.0092 N   0  0  0  1  0  0  0  0  0  0  0  0
   -2.4189    1.6354    1.8109 C   0  0  0  1  0  0  0  0  0  0  0  0
   -2.2796   -0.5424    2.8033 O   0  0  0  1  0  0  0  0  0  0  0  0
   -0.4727    0.1551    1.6317 N   0  0  0  1  0  0  0  0  0  0  0  0
   -2.8565    3.0202    3.3424 H   0  0  0  1  0  0  0  0  0  0  0  0
   -3.9894    1.4022    3.6708 C   0  0  0  1  0  0  0  0  0  0  0  0
    0.2815   -1.0774    1.8048 C   0  0  0  1  0  0  0  0  0  0  0  0
   -4.6016    2.0993    4.8871 C   0  0  0  1  0  0  0  0  0  0  0  0
   -4.3891    0.2934    3.3174 O   0  0  0  1  0  0  0  0  0  0  0  0
   -0.0714    0.8871    1.1185 H   0  0  0  1  0  0  0  0  0  0  0  0
    0.4444   -1.2530    2.8476 H   0  0  0  1  0  0  0  0  0  0  0  0
    1.2244   -0.9912    1.3064 H   0  0  0  1  0  0  0  0  0  0  0  0
   -0.2696   -1.8941    1.3876 H   0  0  0  1  0  0  0  0  0  0  0  0
   -5.6482    2.2498    4.7233 H   0  0  0  1  0  0  0  0  0  0  0  0
   -4.1241    3.0456    5.0334 H   0  0  0  1  0  0  0  0  0  0  0  0
   -4.4608    1.4901    5.7554 H   0  0  0  1  0  0  0  0  0  0  0  0
   -4.1201    7.8146    0.4299 B   0  0  0  1  0  0  0  0  0  0  0  0
   -4.2300    8.8057    1.3452 O   0  0  0  1  0  0  0  0  0  0  0  0
   -4.7726    8.0505   -0.7610 O   0  0  0  1  0  0  0  0  0  0  0  0
   -3.4282    6.4187    0.7080 C   0  0  0  1  0  0  0  0  0  0  0  0
   -2.5332    6.2916    1.7535 C   0  0  0  1  0  0  0  0  0  0  0  0
   -1.8588    5.0961    1.9472 C   0  0  0  1  0  0  0  0  0  0  0  0
   -2.0775    4.0329    1.0916 C   0  0  0  1  0  0  0  0  0  0  0  0
   -2.9751    4.1603    0.0429 C   0  0  0  1  0  0  0  0  0  0  0  0
   -3.6473    5.3523   -0.1501 C   0  0  0  1  0  0  0  0  0  0  0  0
   -1.4357    2.6908    1.3217 C   0  0  0  1  0  0  0  0  0  0  0  0
   -4.8999    8.5719    1.9918 H   0  0  0  1  0  0  0  0  0  0  0  0
   -5.1684    7.2348   -1.0766 H   0  0  0  1  0  0  0  0  0  0  0  0
   -2.3657    7.0929    2.3949 H   0  0  0  1  0  0  0  0  0  0  0  0
   -1.1883    4.9991    2.7364 H   0  0  0  1  0  0  0  0  0  0  0  0
   -3.1426    3.3590   -0.5985 H   0  0  0  1  0  0  0  0  0  0  0  0
   -4.3178    5.4492   -0.9392 H   0  0  0  1  0  0  0  0  0  0  0  0
   -1.0070    2.3559    0.4003 H   0  0  0  1  0  0  0  0  0  0  0  0
   -0.6643    2.8034    2.0545 H   0  0  0  1  0  0  0  0  0  0  0  0
  1  4  1  0  0  0  0
  2  4  1  0  0  0  0
  2  5  2  0  0  0  0
  2  6  1  0  0  0  0
  3  4  1  0  0  0  0
  3  7  1  0  0  0  0
  3  8  1  0  0  0  0
  4 28  1  0  0  0  0
  6  9  1  0  0  0  0
  6 12  1  0  0  0  0
  8 10  1  0  0  0  0
  8 11  2  0  0  0  0
  9 13  1  0  0  0  0
  9 14  1  0  0  0  0
  9 15  1  0  0  0  0
 10 16  1  0  0  0  0
 10 17  1  0  0  0  0
 10 18  1  0  0  0  0
 19 20  1  0  0  0  0
 19 21  1  0  0  0  0
 19 22  1  0  0  0  0
 20 29  1  0  0  0  0
 21 30  1  0  0  0  0
 22 23  4  0  0  0  0
 22 27  4  0  0  0  0
 23 24  4  0  0  0  0
 23 31  1  0  0  0  0
 24 25  4  0  0  0  0
 24 32  1  0  0  0  0
 25 26  4  0  0  0  0
 25 28  1  0  0  0  0
 26 27  4  0  0  0  0
 26 33  1  0  0  0  0
 27 34  1  0  0  0  0
 28 35  1  0  0  0  0
 28 36  1  0  0  0  0
M  END
> <BCLConfClusterSize>
1

> <ConfClashScore>
0 

> <ConfOneFourInteractionScore>
-0.963088 

> <ConfScore>
0.203217 

> <ConfScorePBest>
0.00259338 

> <ConfTolerance>
0.85201 

> <RosettaParamsInstructions>
M  ROOT 3
M  POLY_N_BB 3
M  POLY_CA_BB 4
M  POLY_C_BB 2
M  POLY_O_BB 5
M  POLY_IGNORE 9 10 11 12 13 14 15 16 17 18 
M  POLY_UPPER 6
M  POLY_LOWER 8
M  POLY_CHG 0
M  POLY_PROPERTIES ALPHA_AA L_AA PROTEIN AROMATIC POLYMER 
M  END

$$$$



 36 36  0  0  0  0  0  0  0  0999 V2000
   -1.8941    0.7897    2.1617 H   0  0  0  1  0  0  0  0  0  0  0  0
   -3.0626    2.2411    3.1778 C   0  0  0  1  0  0  0  0  0  0  0  0
   -3.4764    1.4036    0.9652 N   0  0  0  1  0  0  0  0  0  0  0  0
   -2.4144    1.6922    1.9174 C   0  0  0  1  0  0  0  0  0  0  0  0
   -2.5055    2.0247    4.2531 O   0  0  0  1  0  0  0  0  0  0  0  0
   -4.2013    2.9287    3.0534 N   0  0  0  1  0  0  0  0  0  0  0  0
   -4.2933    1.9445    0.9894 H   0  0  0  1  0  0  0  0  0  0  0  0
   -3.3742    0.4047    0.0384 C   0  0  0  1  0  0  0  0  0  0  0  0
   -4.9925    3.3371    4.2045 C   0  0  0  1  0  0  0  0  0  0  0  0
   -4.6401    0.1965   -0.7699 C   0  0  0  1  0  0  0  0  0  0  0  0
   -2.3497   -0.2431   -0.1049 O   0  0  0  1  0  0  0  0  0  0  0  0
   -4.5147    3.1663    2.1558 H   0  0  0  1  0  0  0  0  0  0  0  0
   -5.9993    3.5278    3.8964 H   0  0  0  1  0  0  0  0  0  0  0  0
   -4.5745    4.2270    4.6268 H   0  0  0  1  0  0  0  0  0  0  0  0
   -4.9856    2.5569    4.9367 H   0  0  0  1  0  0  0  0  0  0  0  0
   -4.4137    0.2684   -1.8132 H   0  0  0  1  0  0  0  0  0  0  0  0
   -5.3573    0.9462   -0.5083 H   0  0  0  1  0  0  0  0  0  0  0  0
   -5.0426   -0.7721   -0.5585 H   0  0  0  1  0  0  0  0  0  0  0  0
   -4.1182    7.8171    0.4332 B   0  0  0  1  0  0  0  0  0  0  0  0
   -5.3426    8.0970    0.9500 O   0  0  0  1  0  0  0  0  0  0  0  0
   -3.5044    8.7665   -0.3227 O   0  0  0  1  0  0  0  0  0  0  0  0
   -3.4287    6.4193    0.7075 C   0  0  0  1  0  0  0  0  0  0  0  0
   -2.5331    6.2881    1.7520 C   0  0  0  1  0  0  0  0  0  0  0  0
   -1.8608    5.0909    1.9426 C   0  0  0  1  0  0  0  0  0  0  0  0
   -2.0821    4.0301    1.0846 C   0  0  0  1  0  0  0  0  0  0  0  0
   -2.9803    4.1615    0.0370 C   0  0  0  1  0  0  0  0  0  0  0  0
   -3.6505    5.3552   -0.1528 C   0  0  0  1  0  0  0  0  0  0  0  0
   -1.4119    2.6994    1.3553 C   0  0  0  1  0  0  0  0  0  0  0  0
   -5.3565    7.8691    1.8825 H   0  0  0  1  0  0  0  0  0  0  0  0
   -3.0906    9.4152    0.2514 H   0  0  0  1  0  0  0  0  0  0  0  0
   -2.3636    7.0877    2.3951 H   0  0  0  1  0  0  0  0  0  0  0  0
   -1.1899    4.9909    2.7309 H   0  0  0  1  0  0  0  0  0  0  0  0
   -3.1498    3.3620   -0.6061 H   0  0  0  1  0  0  0  0  0  0  0  0
   -4.3214    5.4552   -0.9411 H   0  0  0  1  0  0  0  0  0  0  0  0
   -1.0068    2.3183    0.4412 H   0  0  0  1  0  0  0  0  0  0  0  0
   -0.6228    2.8417    2.0638 H   0  0  0  1  0  0  0  0  0  0  0  0
  1  4  1  0  0  0  0
  2  4  1  0  0  0  0
  2  5  2  0  0  0  0
  2  6  1  0  0  0  0
  3  4  1  0  0  0  0
  3  7  1  0  0  0  0
  3  8  1  0  0  0  0
  4 28  1  0  0  0  0
  6  9  1  0  0  0  0
  6 12  1  0  0  0  0
  8 10  1  0  0  0  0
  8 11  2  0  0  0  0
  9 13  1  0  0  0  0
  9 14  1  0  0  0  0
  9 15  1  0  0  0  0
 10 16  1  0  0  0  0
 10 17  1  0  0  0  0
 10 18  1  0  0  0  0
 19 20  1  0  0  0  0
 19 21  1  0  0  0  0
 19 22  1  0  0  0  0
 20 29  1  0  0  0  0
 21 30  1  0  0  0  0
 22 23  4  0  0  0  0
 22 27  4  0  0  0  0
 23 24  4  0  0  0  0
 23 31  1  0  0  0  0
 24 25  4  0  0  0  0
 24 32  1  0  0  0  0
 25 26  4  0  0  0  0
 25 28  1  0  0  0  0
 26 27  4  0  0  0  0
 26 33  1  0  0  0  0
 27 34  1  0  0  0  0
 28 35  1  0  0  0  0
 28 36  1  0  0  0  0
M  END
> <BCLConfClusterSize>
1

> <ConfClashScore>
0 

> <ConfOneFourInteractionScore>
-0.970265 

> <ConfScore>
0.210141 

> <ConfScorePBest>
0.0025649 

> <ConfTolerance>
0.873036 

> <RosettaParamsInstructions>
M  ROOT 3
M  POLY_N_BB 3
M  POLY_CA_BB 4
M  POLY_C_BB 2
M  POLY_O_BB 5
M  POLY_IGNORE 9 10 11 12 13 14 15 16 17 18 
M  POLY_UPPER 6
M  POLY_LOWER 8
M  POLY_CHG 0
M  POLY_PROPERTIES ALPHA_AA L_AA PROTEIN AROMATIC POLYMER 
M  END

$$$$



 36 36  0  0  0  0  0  0  0  0999 V2000
   -2.4011    2.0229    3.0373 H   0  0  0  1  0  0  0  0  0  0  0  0
   -3.5976    1.4219    1.4141 C   0  0  0  1  0  0  0  0  0  0  0  0
   -1.5036    0.3833    2.1939 N   0  0  0  1  0  0  0  0  0  0  0  0
   -2.2252    1.6393    2.0540 C   0  0  0  1  0  0  0  0  0  0  0  0
   -4.5399    2.1394    1.7069 O   0  0  0  1  0  0  0  0  0  0  0  0
   -3.6333    0.4646    0.4737 N   0  0  0  1  0  0  0  0  0  0  0  0
   -1.6281   -0.3119    1.5145 H   0  0  0  1  0  0  0  0  0  0  0  0
   -0.6512    0.1374    3.2488 C   0  0  0  1  0  0  0  0  0  0  0  0
   -4.7996    0.3278   -0.3859 C   0  0  0  1  0  0  0  0  0  0  0  0
    0.0710   -1.1779    3.2161 C   0  0  0  1  0  0  0  0  0  0  0  0
   -0.5206    0.9630    4.1328 O   0  0  0  1  0  0  0  0  0  0  0  0
   -2.8724   -0.1435    0.3659 H   0  0  0  1  0  0  0  0  0  0  0  0
   -5.6546    0.7462    0.1029 H   0  0  0  1  0  0  0  0  0  0  0  0
   -4.9752   -0.7085   -0.5862 H   0  0  0  1  0  0  0  0  0  0  0  0
   -4.6266    0.8452   -1.3063 H   0  0  0  1  0  0  0  0  0  0  0  0
   -0.6363   -1.9760    3.3038 H   0  0  0  1  0  0  0  0  0  0  0  0
    0.7638   -1.2245    4.0302 H   0  0  0  1  0  0  0  0  0  0  0  0
    0.6003   -1.2709    2.2908 H   0  0  0  1  0  0  0  0  0  0  0  0
   -4.1013    7.8189    0.4051 B   0  0  0  1  0  0  0  0  0  0  0  0
   -5.4094    8.1364    0.5862 O   0  0  0  1  0  0  0  0  0  0  0  0
   -3.3251    8.8204   -0.0887 O   0  0  0  1  0  0  0  0  0  0  0  0
   -3.4359    6.4168    0.7159 C   0  0  0  1  0  0  0  0  0  0  0  0
   -2.5381    6.2899    1.7591 C   0  0  0  1  0  0  0  0  0  0  0  0
   -1.8590    5.0963    1.9480 C   0  0  0  1  0  0  0  0  0  0  0  0
   -2.0757    4.0348    1.0897 C   0  0  0  1  0  0  0  0  0  0  0  0
   -2.9761    4.1620    0.0434 C   0  0  0  1  0  0  0  0  0  0  0  0
   -3.6531    5.3521   -0.1447 C   0  0  0  1  0  0  0  0  0  0  0  0
   -1.4248    2.6864    1.3159 C   0  0  0  1  0  0  0  0  0  0  0  0
   -5.9425    7.6872   -0.0739 H   0  0  0  1  0  0  0  0  0  0  0  0
   -2.6217    8.4463   -0.6243 H   0  0  0  1  0  0  0  0  0  0  0  0
   -2.3721    7.0900    2.4025 H   0  0  0  1  0  0  0  0  0  0  0  0
   -1.1865    4.9995    2.7354 H   0  0  0  1  0  0  0  0  0  0  0  0
   -3.1421    3.3619   -0.5999 H   0  0  0  1  0  0  0  0  0  0  0  0
   -4.3256    5.4489   -0.9321 H   0  0  0  1  0  0  0  0  0  0  0  0
   -1.1800    2.2839    0.3552 H   0  0  0  1  0  0  0  0  0  0  0  0
   -0.5264    2.8539    1.8725 H   0  0  0  1  0  0  0  0  0  0  0  0
  1  4  1  0  0  0  0
  2  4  1  0  0  0  0
  2  5  2  0  0  0  0
  2  6  1  0  0  0  0
  3  4  1  0  0  0  0
  3  7  1  0  0  0  0
  3  8  1  0  0  0  0
  4 28  1  0  0  0  0
  6  9  1  0  0  0  0
  6 12  1  0  0  0  0
  8 10  1  0  0  0  0
  8 11  2  0  0  0  0
  9 13  1  0  0  0  0
  9 14  1  0  0  0  0
  9 15  1  0  0  0  0
 10 16  1  0  0  0  0
 10 17  1  0  0  0  0
 10 18  1  0  0  0  0
 19 20  1  0  0  0  0
 19 21  1  0  0  0  0
 19 22  1  0  0  0  0
 20 29  1  0  0  0  0
 21 30  1  0  0  0  0
 22 23  4  0  0  0  0
 22 27  4  0  0  0  0
 23 24  4  0  0  0  0
 23 31  1  0  0  0  0
 24 25  4  0  0  0  0
 24 32  1  0  0  0  0
 25 26  4  0  0  0  0
 25 28  1  0  0  0  0
 26 27  4  0  0  0  0
 26 33  1  0  0  0  0
 27 34  1  0  0  0  0
 28 35  1  0  0  0  0
 28 36  1  0  0  0  0
M  END
> <BCLConfClusterSize>
1

> <ConfClashScore>
0 

> <ConfOneFourInteractionScore>
-0.972789 

> <ConfScore>
0.211175 

> <ConfScorePBest>
0.00253641 

> <ConfTolerance>
0.803127 

> <RosettaParamsInstructions>
M  ROOT 3
M  POLY_N_BB 3
M  POLY_CA_BB 4
M  POLY_C_BB 2
M  POLY_O_BB 5
M  POLY_IGNORE 9 10 11 12 13 14 15 16 17 18 
M  POLY_UPPER 6
M  POLY_LOWER 8
M  POLY_CHG 0
M  POLY_PROPERTIES ALPHA_AA L_AA PROTEIN AROMATIC POLYMER 
M  END

$$$$



 36 36  0  0  0  0  0  0  0  0999 V2000
   -0.3735    2.9522   -0.4968 H   0  0  0  1  0  0  0  0  0  0  0  0
    1.0105    3.0065    1.1072 C   0  0  0  1  0  0  0  0  0  0  0  0
   -0.0655    1.0145    0.1818 N   0  0  0  1  0  0  0  0  0  0  0  0
   -0.2223    2.4398    0.4303 C   0  0  0  1  0  0  0  0  0  0  0  0
    1.4361    2.5320    2.1570 O   0  0  0  1  0  0  0  0  0  0  0  0
    1.5914    4.0452    0.4861 N   0  0  0  1  0  0  0  0  0  0  0  0
   -0.6716    0.3870    0.6283 H   0  0  0  1  0  0  0  0  0  0  0  0
    0.8761    0.5316   -0.6339 C   0  0  0  1  0  0  0  0  0  0  0  0
    2.7882    4.6906    1.0045 C   0  0  0  1  0  0  0  0  0  0  0  0
    0.8916   -0.9752   -0.8029 C   0  0  0  1  0  0  0  0  0  0  0  0
    1.6920    1.2524   -1.2225 O   0  0  0  1  0  0  0  0  0  0  0  0
    1.1957    4.3805   -0.3454 H   0  0  0  1  0  0  0  0  0  0  0  0
    3.5508    3.9564    1.1606 H   0  0  0  1  0  0  0  0  0  0  0  0
    2.5604    5.1708    1.9332 H   0  0  0  1  0  0  0  0  0  0  0  0
    3.1335    5.4192    0.3010 H   0  0  0  1  0  0  0  0  0  0  0  0
   -0.1122   -1.3351   -0.8904 H   0  0  0  1  0  0  0  0  0  0  0  0
    1.3585   -1.4245    0.0485 H   0  0  0  1  0  0  0  0  0  0  0  0
    1.4395   -1.2291   -1.6862 H   0  0  0  1  0  0  0  0  0  0  0  0
   -4.1205    7.8153    0.4298 B   0  0  0  1  0  0  0  0  0  0  0  0
   -4.7777    7.9647   -0.7493 O   0  0  0  1  0  0  0  0  0  0  0  0
   -3.9089    8.9225    1.1968 O   0  0  0  1  0  0  0  0  0  0  0  0
   -3.4285    6.4194    0.7079 C   0  0  0  1  0  0  0  0  0  0  0  0
   -2.5335    6.2923    1.7534 C   0  0  0  1  0  0  0  0  0  0  0  0
   -1.8591    5.0968    1.9471 C   0  0  0  1  0  0  0  0  0  0  0  0
   -2.0778    4.0336    1.0914 C   0  0  0  1  0  0  0  0  0  0  0  0
   -2.9754    4.1610    0.0428 C   0  0  0  1  0  0  0  0  0  0  0  0
   -3.6477    5.3530   -0.1502 C   0  0  0  1  0  0  0  0  0  0  0  0
   -1.4322    2.6835    1.3229 C   0  0  0  1  0  0  0  0  0  0  0  0
   -5.6970    8.1823   -0.5785 H   0  0  0  1  0  0  0  0  0  0  0  0
   -4.0350    9.7107    0.6634 H   0  0  0  1  0  0  0  0  0  0  0  0
   -2.3660    7.0936    2.3948 H   0  0  0  1  0  0  0  0  0  0  0  0
   -1.1886    4.9998    2.7362 H   0  0  0  1  0  0  0  0  0  0  0  0
   -3.1429    3.3596   -0.5986 H   0  0  0  1  0  0  0  0  0  0  0  0
   -4.3181    5.4499   -0.9393 H   0  0  0  1  0  0  0  0  0  0  0  0
   -1.1187    2.6265    2.3444 H   0  0  0  1  0  0  0  0  0  0  0  0
   -2.1576    1.9213    1.1288 H   0  0  0  1  0  0  0  0  0  0  0  0
  1  4  1  0  0  0  0
  2  4  1  0  0  0  0
  2  5  2  0  0  0  0
  2  6  1  0  0  0  0
  3  4  1  0  0  0  0
  3  7  1  0  0  0  0
  3  8  1  0  0  0  0
  4 28  1  0  0  0  0
  6  9  1  0  0  0  0
  6 12  1  0  0  0  0
  8 10  1  0  0  0  0
  8 11  2  0  0  0  0
  9 13  1  0  0  0  0
  9 14  1  0  0  0  0
  9 15  1  0  0  0  0
 10 16  1  0  0  0  0
 10 17  1  0  0  0  0
 10 18  1  0  0  0  0
 19 20  1  0  0  0  0
 19 21  1  0  0  0  0
 19 22  1  0  0  0  0
 20 29  1  0  0  0  0
 21 30  1  0  0  0  0
 22 23  4  0  0  0  0
 22 27  4  0  0  0  0
 23 24  4  0  0  0  0
 23 31  1  0  0  0  0
 24 25  4  0  0  0  0
 24 32  1  0  0  0  0
 25 26  4  0  0  0  0
 25 28  1  0  0  0  0
 26 27  4  0  0  0  0
 26 33  1  0  0  0  0
 27 34  1  0  0  0  0
 28 35  1  0  0  0  0
 28 36  1  0  0  0  0
M  END
> <BCLConfClusterSize>
1

> <ConfClashScore>
0 

> <ConfOneFourInteractionScore>
-0.977014 

> <ConfScore>
0.215182 

> <ConfScorePBest>
0.00250793 

> <ConfTolerance>
0.872665 

> <RosettaParamsInstructions>
M  ROOT 3
M  POLY_N_BB 3
M  POLY_CA_BB 4
M  POLY_C_BB 2
M  POLY_O_BB 5
M  POLY_IGNORE 9 10 11 12 13 14 15 16 17 18 
M  POLY_UPPER 6
M  POLY_LOWER 8
M  POLY_CHG 0
M  POLY_PROPERTIES ALPHA_AA L_AA PROTEIN AROMATIC POLYMER 
M  END

$$$$



 36 36  0  0  0  0  0  0  0  0999 V2000
   -2.0480    2.3489    3.3029 H   0  0  0  1  0  0  0  0  0  0  0  0
   -3.6572    1.7763    2.0920 C   0  0  0  1  0  0  0  0  0  0  0  0
   -1.5954    0.5144    2.5079 N   0  0  0  1  0  0  0  0  0  0  0  0
   -2.1676    1.8450    2.3666 C   0  0  0  1  0  0  0  0  0  0  0  0
   -4.0936    1.2616    1.0636 O   0  0  0  1  0  0  0  0  0  0  0  0
   -4.4494    2.3085    3.0361 N   0  0  0  1  0  0  0  0  0  0  0  0
   -1.0108    0.3297    3.2725 H   0  0  0  1  0  0  0  0  0  0  0  0
   -1.8393   -0.4642    1.6316 C   0  0  0  1  0  0  0  0  0  0  0  0
   -5.8775    2.3886    2.7676 C   0  0  0  1  0  0  0  0  0  0  0  0
   -1.1871   -1.8176    1.9263 C   0  0  0  1  0  0  0  0  0  0  0  0
   -2.5292   -0.3714    0.6290 O   0  0  0  1  0  0  0  0  0  0  0  0
   -4.0767    2.6339    3.8820 H   0  0  0  1  0  0  0  0  0  0  0  0
   -6.2071    1.4777    2.3132 H   0  0  0  1  0  0  0  0  0  0  0  0
   -6.0703    3.2071    2.1059 H   0  0  0  1  0  0  0  0  0  0  0  0
   -6.4049    2.5400    3.6861 H   0  0  0  1  0  0  0  0  0  0  0  0
   -0.2556   -1.8865    1.4043 H   0  0  0  1  0  0  0  0  0  0  0  0
   -1.8362   -2.6041    1.6023 H   0  0  0  1  0  0  0  0  0  0  0  0
   -1.0137   -1.9082    2.9782 H   0  0  0  1  0  0  0  0  0  0  0  0
   -4.1454    7.8073    0.3911 B   0  0  0  1  0  0  0  0  0  0  0  0
   -4.9615    7.9915   -0.6788 O   0  0  0  1  0  0  0  0  0  0  0  0
   -3.9922    8.9114    1.1701 O   0  0  0  1  0  0  0  0  0  0  0  0
   -3.4235    6.4214    0.7163 C   0  0  0  1  0  0  0  0  0  0  0  0
   -2.5277    6.2898    1.7605 C   0  0  0  1  0  0  0  0  0  0  0  0
   -1.8552    5.0926    1.9502 C   0  0  0  1  0  0  0  0  0  0  0  0
   -2.0768    4.0322    1.0919 C   0  0  0  1  0  0  0  0  0  0  0  0
   -2.9752    4.1640    0.0445 C   0  0  0  1  0  0  0  0  0  0  0  0
   -3.6455    5.3578   -0.1445 C   0  0  0  1  0  0  0  0  0  0  0  0
   -1.4372    2.6883    1.3176 C   0  0  0  1  0  0  0  0  0  0  0  0
   -5.7228    7.4114   -0.6048 H   0  0  0  1  0  0  0  0  0  0  0  0
   -3.1799    8.8362    1.6763 H   0  0  0  1  0  0  0  0  0  0  0  0
   -2.3581    7.0891    2.4039 H   0  0  0  1  0  0  0  0  0  0  0  0
   -1.1842    4.9922    2.7384 H   0  0  0  1  0  0  0  0  0  0  0  0
   -3.1448    3.3648   -0.5989 H   0  0  0  1  0  0  0  0  0  0  0  0
   -4.3166    5.4581   -0.9327 H   0  0  0  1  0  0  0  0  0  0  0  0
   -1.4346    2.1525    0.3914 H   0  0  0  1  0  0  0  0  0  0  0  0
   -0.4299    2.8411    1.6446 H   0  0  0  1  0  0  0  0  0  0  0  0
  1  4  1  0  0  0  0
  2  4  1  0  0  0  0
  2  5  2  0  0  0  0
  2  6  1  0  0  0  0
  3  4  1  0  0  0  0
  3  7  1  0  0  0  0
  3  8  1  0  0  0  0
  4 28  1  0  0  0  0
  6  9  1  0  0  0  0
  6 12  1  0  0  0  0
  8 10  1  0  0  0  0
  8 11  2  0  0  0  0
  9 13  1  0  0  0  0
  9 14  1  0  0  0  0
  9 15  1  0  0  0  0
 10 16  1  0  0  0  0
 10 17  1  0  0  0  0
 10 18  1  0  0  0  0
 19 20  1  0  0  0  0
 19 21  1  0  0  0  0
 19 22  1  0  0  0  0
 20 29  1  0  0  0  0
 21 30  1  0  0  0  0
 22 23  4  0  0  0  0
 22 27  4  0  0  0  0
 23 24  4  0  0  0  0
 23 31  1  0  0  0  0
 24 25  4  0  0  0  0
 24 32  1  0  0  0  0
 25 26  4  0  0  0  0
 25 28  1  0  0  0  0
 26 27  4  0  0  0  0
 26 33  1  0  0  0  0
 27 34  1  0  0  0  0
 28 35  1  0  0  0  0
 28 36  1  0  0  0  0
M  END
> <BCLConfClusterSize>
1

> <ConfClashScore>
0 

> <ConfOneFourInteractionScore>
-0.986942 

> <ConfScore>
0.227616 

> <ConfScorePBest>
0.00247945 

> <ConfTolerance>
0.617285 

> <RosettaParamsInstructions>
M  ROOT 3
M  POLY_N_BB 3
M  POLY_CA_BB 4
M  POLY_C_BB 2
M  POLY_O_BB 5
M  POLY_IGNORE 9 10 11 12 13 14 15 16 17 18 
M  POLY_UPPER 6
M  POLY_LOWER 8
M  POLY_CHG 0
M  POLY_PROPERTIES ALPHA_AA L_AA PROTEIN AROMATIC POLYMER 
M  END

$$$$



 36 36  0  0  0  0  0  0  0  0999 V2000
   -0.4678    2.6934   -0.5428 H   0  0  0  1  0  0  0  0  0  0  0  0
    0.8567    3.6122    0.7844 C   0  0  0  1  0  0  0  0  0  0  0  0
    0.3643    1.1817    0.5476 N   0  0  0  1  0  0  0  0  0  0  0  0
   -0.1662    2.5334    0.4712 C   0  0  0  1  0  0  0  0  0  0  0  0
    0.6303    4.5831    1.4876 O   0  0  0  1  0  0  0  0  0  0  0  0
    2.0643    3.4488    0.2367 N   0  0  0  1  0  0  0  0  0  0  0  0
    0.2577    0.5710   -0.2114 H   0  0  0  1  0  0  0  0  0  0  0  0
    1.0030    0.7665    1.6611 C   0  0  0  1  0  0  0  0  0  0  0  0
    3.0834    4.4869    0.2774 C   0  0  0  1  0  0  0  0  0  0  0  0
    1.5277   -0.6558    1.6935 C   0  0  0  1  0  0  0  0  0  0  0  0
    1.1565    1.5177    2.6232 O   0  0  0  1  0  0  0  0  0  0  0  0
    2.2710    2.6003   -0.2081 H   0  0  0  1  0  0  0  0  0  0  0  0
    3.5365    4.5806   -0.6873 H   0  0  0  1  0  0  0  0  0  0  0  0
    3.8299    4.2254    0.9980 H   0  0  0  1  0  0  0  0  0  0  0  0
    2.6329    5.4179    0.5516 H   0  0  0  1  0  0  0  0  0  0  0  0
    1.7223   -0.9876    0.6950 H   0  0  0  1  0  0  0  0  0  0  0  0
    0.7980   -1.2946    2.1456 H   0  0  0  1  0  0  0  0  0  0  0  0
    2.4331   -0.6888    2.2628 H   0  0  0  1  0  0  0  0  0  0  0  0
   -4.1458    7.8080    0.3910 B   0  0  0  1  0  0  0  0  0  0  0  0
   -3.8176    8.9208    1.0971 O   0  0  0  1  0  0  0  0  0  0  0  0
   -5.0981    7.9731   -0.5710 O   0  0  0  1  0  0  0  0  0  0  0  0
   -3.4239    6.4221    0.7162 C   0  0  0  1  0  0  0  0  0  0  0  0
   -2.5280    6.2905    1.7604 C   0  0  0  1  0  0  0  0  0  0  0  0
   -1.8555    5.0932    1.9501 C   0  0  0  1  0  0  0  0  0  0  0  0
   -2.0770    4.0329    1.0917 C   0  0  0  1  0  0  0  0  0  0  0  0
   -2.9755    4.1647    0.0444 C   0  0  0  1  0  0  0  0  0  0  0  0
   -3.6459    5.3584   -0.1446 C   0  0  0  1  0  0  0  0  0  0  0  0
   -1.4336    2.6809    1.3188 C   0  0  0  1  0  0  0  0  0  0  0  0
   -3.0719    9.3573    0.6790 H   0  0  0  1  0  0  0  0  0  0  0  0
   -5.8756    8.3833   -0.1852 H   0  0  0  1  0  0  0  0  0  0  0  0
   -2.3584    7.0897    2.4038 H   0  0  0  1  0  0  0  0  0  0  0  0
   -1.1845    4.9929    2.7383 H   0  0  0  1  0  0  0  0  0  0  0  0
   -3.1451    3.3655   -0.5990 H   0  0  0  1  0  0  0  0  0  0  0  0
   -4.3170    5.4587   -0.9328 H   0  0  0  1  0  0  0  0  0  0  0  0
   -1.1773    2.5837    2.3531 H   0  0  0  1  0  0  0  0  0  0  0  0
   -2.1275    1.9124    1.0490 H   0  0  0  1  0  0  0  0  0  0  0  0
  1  4  1  0  0  0  0
  2  4  1  0  0  0  0
  2  5  2  0  0  0  0
  2  6  1  0  0  0  0
  3  4  1  0  0  0  0
  3  7  1  0  0  0  0
  3  8  1  0  0  0  0
  4 28  1  0  0  0  0
  6  9  1  0  0  0  0
  6 12  1  0  0  0  0
  8 10  1  0  0  0  0
  8 11  2  0  0  0  0
  9 13  1  0  0  0  0
  9 14  1  0  0  0  0
  9 15  1  0  0  0  0
 10 16  1  0  0  0  0
 10 17  1  0  0  0  0
 10 18  1  0  0  0  0
 19 20  1  0  0  0  0
 19 21  1  0  0  0  0
 19 22  1  0  0  0  0
 20 29  1  0  0  0  0
 21 30  1  0  0  0  0
 22 23  4  0  0  0  0
 22 27  4  0  0  0  0
 23 24  4  0  0  0  0
 23 31  1  0  0  0  0
 24 25  4  0  0  0  0
 24 32  1  0  0  0  0
 25 26  4  0  0  0  0
 25 28  1  0  0  0  0
 26 27  4  0  0  0  0
 26 33  1  0  0  0  0
 27 34  1  0  0  0  0
 28 35  1  0  0  0  0
 28 36  1  0  0  0  0
M  END
> <BCLConfClusterSize>
1

> <ConfClashScore>
0 

> <ConfOneFourInteractionScore>
-0.981753 

> <ConfScore>
0.236287 

> <ConfScorePBest>
0.00245097 

> <ConfTolerance>
0.515502 

> <RosettaParamsInstructions>
M  ROOT 3
M  POLY_N_BB 3
M  POLY_CA_BB 4
M  POLY_C_BB 2
M  POLY_O_BB 5
M  POLY_IGNORE 9 10 11 12 13 14 15 16 17 18 
M  POLY_UPPER 6
M  POLY_LOWER 8
M  POLY_CHG 0
M  POLY_PROPERTIES ALPHA_AA L_AA PROTEIN AROMATIC POLYMER 
M  END

$$$$



 36 36  0  0  0  0  0  0  0  0999 V2000
   -1.8461    0.8555    2.2289 H   0  0  0  1  0  0  0  0  0  0  0  0
   -2.2318    2.2115    3.7566 C   0  0  0  1  0  0  0  0  0  0  0  0
   -3.6555    1.6994    1.7829 N   0  0  0  1  0  0  0  0  0  0  0  0
   -2.2730    1.8352    2.2826 C   0  0  0  1  0  0  0  0  0  0  0  0
   -2.9600    1.7276    4.6026 O   0  0  0  1  0  0  0  0  0  0  0  0
   -1.3285    3.1307    4.0985 N   0  0  0  1  0  0  0  0  0  0  0  0
   -3.9734    2.2368    1.0276 H   0  0  0  1  0  0  0  0  0  0  0  0
   -4.4644    0.8193    2.3923 C   0  0  0  1  0  0  0  0  0  0  0  0
   -1.1401    3.6272    5.4534 C   0  0  0  1  0  0  0  0  0  0  0  0
   -5.8882    0.7646    1.8737 C   0  0  0  1  0  0  0  0  0  0  0  0
   -4.0956    0.1008    3.3067 O   0  0  0  1  0  0  0  0  0  0  0  0
   -0.7549    3.4951    3.3924 H   0  0  0  1  0  0  0  0  0  0  0  0
   -1.6928    4.5344    5.5815 H   0  0  0  1  0  0  0  0  0  0  0  0
   -0.1005    3.8163    5.6224 H   0  0  0  1  0  0  0  0  0  0  0  0
   -1.4883    2.8959    6.1527 H   0  0  0  1  0  0  0  0  0  0  0  0
   -6.2760   -0.2249    1.9984 H   0  0  0  1  0  0  0  0  0  0  0  0
   -5.8996    1.0236    0.8356 H   0  0  0  1  0  0  0  0  0  0  0  0
   -6.4937    1.4564    2.4211 H   0  0  0  1  0  0  0  0  0  0  0  0
   -4.0834    7.8618    0.5018 B   0  0  0  1  0  0  0  0  0  0  0  0
   -5.1033    8.1184   -0.3595 O   0  0  0  1  0  0  0  0  0  0  0  0
   -3.5724    8.8768    1.2489 O   0  0  0  1  0  0  0  0  0  0  0  0
   -3.4367    6.4110    0.6924 C   0  0  0  1  0  0  0  0  0  0  0  0
   -2.5426    6.2886    1.7393 C   0  0  0  1  0  0  0  0  0  0  0  0
   -1.8662    5.0950    1.9372 C   0  0  0  1  0  0  0  0  0  0  0  0
   -2.0820    4.0289    1.0844 C   0  0  0  1  0  0  0  0  0  0  0  0
   -2.9786    4.1515    0.0345 C   0  0  0  1  0  0  0  0  0  0  0  0
   -3.6530    5.3417   -0.1628 C   0  0  0  1  0  0  0  0  0  0  0  0
   -1.4073    2.7022    1.3632 C   0  0  0  1  0  0  0  0  0  0  0  0
   -4.7637    8.1548   -1.2566 H   0  0  0  1  0  0  0  0  0  0  0  0
   -3.6439    8.6564    2.1805 H   0  0  0  1  0  0  0  0  0  0  0  0
   -2.3773    7.0921    2.3785 H   0  0  0  1  0  0  0  0  0  0  0  0
   -1.1964    5.0016    2.7274 H   0  0  0  1  0  0  0  0  0  0  0  0
   -3.1439    3.3480   -0.6048 H   0  0  0  1  0  0  0  0  0  0  0  0
   -4.3227    5.4351   -0.9529 H   0  0  0  1  0  0  0  0  0  0  0  0
   -1.2520    2.1864    0.4386 H   0  0  0  1  0  0  0  0  0  0  0  0
   -0.4639    2.8807    1.8354 H   0  0  0  1  0  0  0  0  0  0  0  0
  1  4  1  0  0  0  0
  2  4  1  0  0  0  0
  2  5  2  0  0  0  0
  2  6  1  0  0  0  0
  3  4  1  0  0  0  0
  3  7  1  0  0  0  0
  3  8  1  0  0  0  0
  4 28  1  0  0  0  0
  6  9  1  0  0  0  0
  6 12  1  0  0  0  0
  8 10  1  0  0  0  0
  8 11  2  0  0  0  0
  9 13  1  0  0  0  0
  9 14  1  0  0  0  0
  9 15  1  0  0  0  0
 10 16  1  0  0  0  0
 10 17  1  0  0  0  0
 10 18  1  0  0  0  0
 19 20  1  0  0  0  0
 19 21  1  0  0  0  0
 19 22  1  0  0  0  0
 20 29  1  0  0  0  0
 21 30  1  0  0  0  0
 22 23  4  0  0  0  0
 22 27  4  0  0  0  0
 23 24  4  0  0  0  0
 23 31  1  0  0  0  0
 24 25  4  0  0  0  0
 24 32  1  0  0  0  0
 25 26  4  0  0  0  0
 25 28  1  0  0  0  0
 26 27  4  0  0  0  0
 26 33  1  0  0  0  0
 27 34  1  0  0  0  0
 28 35  1  0  0  0  0
 28 36  1  0  0  0  0
M  END
> <BCLConfClusterSize>
1

> <ConfClashScore>
2.95656e-05 

> <ConfOneFourInteractionScore>
-0.955533 

> <ConfScore>
0.238338 

> <ConfScorePBest>
0.00242249 

> <ConfTolerance>
0.943517 

> <RosettaParamsInstructions>
M  ROOT 3
M  POLY_N_BB 3
M  POLY_CA_BB 4
M  POLY_C_BB 2
M  POLY_O_BB 5
M  POLY_IGNORE 9 10 11 12 13 14 15 16 17 18 
M  POLY_UPPER 6
M  POLY_LOWER 8
M  POLY_CHG 0
M  POLY_PROPERTIES ALPHA_AA L_AA PROTEIN AROMATIC POLYMER 
M  END

$$$$



 36 36  0  0  0  0  0  0  0  0999 V2000
   -2.9313    1.4614    0.5971 H   0  0  0  1  0  0  0  0  0  0  0  0
   -1.5832    0.2208    1.6322 C   0  0  0  1  0  0  0  0  0  0  0  0
   -3.2813    1.7473    2.6138 N   0  0  0  1  0  0  0  0  0  0  0  0
   -2.3563    1.5221    1.4974 C   0  0  0  1  0  0  0  0  0  0  0  0
   -1.1574   -0.1488    2.7233 O   0  0  0  1  0  0  0  0  0  0  0  0
   -1.3816   -0.5070    0.5301 N   0  0  0  1  0  0  0  0  0  0  0  0
   -3.0934    2.4996    3.2131 H   0  0  0  1  0  0  0  0  0  0  0  0
   -4.3625    1.0025    2.8755 C   0  0  0  1  0  0  0  0  0  0  0  0
   -0.5776   -1.7200    0.5359 C   0  0  0  1  0  0  0  0  0  0  0  0
   -4.6630   -0.0967    1.8752 C   0  0  0  1  0  0  0  0  0  0  0  0
   -5.0785    1.1835    3.8595 O   0  0  0  1  0  0  0  0  0  0  0  0
   -1.7894   -0.2139   -0.3114 H   0  0  0  1  0  0  0  0  0  0  0  0
   -0.1614   -1.8681    1.5104 H   0  0  0  1  0  0  0  0  0  0  0  0
    0.2132   -1.6269   -0.1790 H   0  0  0  1  0  0  0  0  0  0  0  0
   -1.1933   -2.5570    0.2803 H   0  0  0  1  0  0  0  0  0  0  0  0
   -5.6402    0.0508    1.4652 H   0  0  0  1  0  0  0  0  0  0  0  0
   -4.6221   -1.0465    2.3664 H   0  0  0  1  0  0  0  0  0  0  0  0
   -3.9386   -0.0702    1.0882 H   0  0  0  1  0  0  0  0  0  0  0  0
   -4.1178    7.8164    0.4333 B   0  0  0  1  0  0  0  0  0  0  0  0
   -4.8045    7.9153   -0.7343 O   0  0  0  1  0  0  0  0  0  0  0  0
   -3.9833    8.8713    1.2564 O   0  0  0  1  0  0  0  0  0  0  0  0
   -3.4282    6.4185    0.7076 C   0  0  0  1  0  0  0  0  0  0  0  0
   -2.5327    6.2874    1.7522 C   0  0  0  1  0  0  0  0  0  0  0  0
   -1.8604    5.0902    1.9427 C   0  0  0  1  0  0  0  0  0  0  0  0
   -2.0818    4.0294    1.0848 C   0  0  0  1  0  0  0  0  0  0  0  0
   -2.9799    4.1608    0.0372 C   0  0  0  1  0  0  0  0  0  0  0  0
   -3.6501    5.3545   -0.1526 C   0  0  0  1  0  0  0  0  0  0  0  0
   -1.4162    2.7077    1.3537 C   0  0  0  1  0  0  0  0  0  0  0  0
   -4.2595    8.3561   -1.3903 H   0  0  0  1  0  0  0  0  0  0  0  0
   -3.6971    9.6366    0.7524 H   0  0  0  1  0  0  0  0  0  0  0  0
   -2.3632    7.0870    2.3952 H   0  0  0  1  0  0  0  0  0  0  0  0
   -1.1895    4.9902    2.7311 H   0  0  0  1  0  0  0  0  0  0  0  0
   -3.1494    3.3612   -0.6059 H   0  0  0  1  0  0  0  0  0  0  0  0
   -4.3210    5.4544   -0.9410 H   0  0  0  1  0  0  0  0  0  0  0  0
   -0.7487    2.5033    0.5427 H   0  0  0  1  0  0  0  0  0  0  0  0
   -0.8577    2.7981    2.2619 H   0  0  0  1  0  0  0  0  0  0  0  0
  1  4  1  0  0  0  0
  2  4  1  0  0  0  0
  2  5  2  0  0  0  0
  2  6  1  0  0  0  0
  3  4  1  0  0  0  0
  3  7  1  0  0  0  0
  3  8  1  0  0  0  0
  4 28  1  0  0  0  0
  6  9  1  0  0  0  0
  6 12  1  0  0  0  0
  8 10  1  0  0  0  0
  8 11  2  0  0  0  0
  9 13  1  0  0  0  0
  9 14  1  0  0  0  0
  9 15  1  0  0  0  0
 10 16  1  0  0  0  0
 10 17  1  0  0  0  0
 10 18  1  0  0  0  0
 19 20  1  0  0  0  0
 19 21  1  0  0  0  0
 19 22  1  0  0  0  0
 20 29  1  0  0  0  0
 21 30  1  0  0  0  0
 22 23  4  0  0  0  0
 22 27  4  0  0  0  0
 23 24  4  0  0  0  0
 23 31  1  0  0  0  0
 24 25  4  0  0  0  0
 24 32  1  0  0  0  0
 25 26  4  0  0  0  0
 25 28  1  0  0  0  0
 26 27  4  0  0  0  0
 26 33  1  0  0  0  0
 27 34  1  0  0  0  0
 28 35  1  0  0  0  0
 28 36  1  0  0  0  0
M  END
> <BCLConfClusterSize>
1

> <ConfClashScore>
0 

> <ConfOneFourInteractionScore>
-0.988961 

> <ConfScore>
0.242895 

> <ConfScorePBest>
0.00239401 

> <ConfTolerance>
1.05574 

> <RosettaParamsInstructions>
M  ROOT 3
M  POLY_N_BB 3
M  POLY_CA_BB 4
M  POLY_C_BB 2
M  POLY_O_BB 5
M  POLY_IGNORE 9 10 11 12 13 14 15 16 17 18 
M  POLY_UPPER 6
M  POLY_LOWER 8
M  POLY_CHG 0
M  POLY_PROPERTIES ALPHA_AA L_AA PROTEIN AROMATIC POLYMER 
M  END

$$$$



 36 36  0  0  0  0  0  0  0  0999 V2000
    0.2142    1.6695    0.4810 H   0  0  0  1  0  0  0  0  0  0  0  0
   -1.4485    1.2328   -0.7264 C   0  0  0  1  0  0  0  0  0  0  0  0
   -0.1521    3.3377   -0.6657 N   0  0  0  1  0  0  0  0  0  0  0  0
   -0.6347    2.2031    0.1075 C   0  0  0  1  0  0  0  0  0  0  0  0
   -2.5187    1.5677   -1.2327 O   0  0  0  1  0  0  0  0  0  0  0  0
   -0.9251    0.0049   -0.8688 N   0  0  0  1  0  0  0  0  0  0  0  0
   -0.7914    4.0262   -0.9446 H   0  0  0  1  0  0  0  0  0  0  0  0
    1.1321    3.4734   -1.0084 C   0  0  0  1  0  0  0  0  0  0  0  0
   -1.5842   -1.1100   -1.5326 C   0  0  0  1  0  0  0  0  0  0  0  0
    1.4464    4.6257   -1.9424 C   0  0  0  1  0  0  0  0  0  0  0  0
    2.0098    2.7272   -0.6055 O   0  0  0  1  0  0  0  0  0  0  0  0
   -0.0318   -0.1527   -0.4979 H   0  0  0  1  0  0  0  0  0  0  0  0
   -0.8972   -1.5835   -2.2025 H   0  0  0  1  0  0  0  0  0  0  0  0
   -2.4274   -0.7487   -2.0834 H   0  0  0  1  0  0  0  0  0  0  0  0
   -1.9125   -1.8173   -0.8000 H   0  0  0  1  0  0  0  0  0  0  0  0
    2.2662    4.3586   -2.5760 H   0  0  0  1  0  0  0  0  0  0  0  0
    1.7071    5.4896   -1.3675 H   0  0  0  1  0  0  0  0  0  0  0  0
    0.5876    4.8422   -2.5430 H   0  0  0  1  0  0  0  0  0  0  0  0
   -4.1009    7.8183    0.4052 B   0  0  0  1  0  0  0  0  0  0  0  0
   -4.9257    8.0372   -0.6562 O   0  0  0  1  0  0  0  0  0  0  0  0
   -3.8935    8.9169    1.1860 O   0  0  0  1  0  0  0  0  0  0  0  0
   -3.4355    6.4162    0.7160 C   0  0  0  1  0  0  0  0  0  0  0  0
   -2.5378    6.2893    1.7592 C   0  0  0  1  0  0  0  0  0  0  0  0
   -1.8587    5.0956    1.9481 C   0  0  0  1  0  0  0  0  0  0  0  0
   -2.0754    4.0342    1.0898 C   0  0  0  1  0  0  0  0  0  0  0  0
   -2.9758    4.1613    0.0435 C   0  0  0  1  0  0  0  0  0  0  0  0
   -3.6527    5.3515   -0.1446 C   0  0  0  1  0  0  0  0  0  0  0  0
   -1.4284    2.6937    1.3147 C   0  0  0  1  0  0  0  0  0  0  0  0
   -4.4611    7.8315   -1.4708 H   0  0  0  1  0  0  0  0  0  0  0  0
   -3.2329    8.7159    1.8530 H   0  0  0  1  0  0  0  0  0  0  0  0
   -2.3718    7.0893    2.4026 H   0  0  0  1  0  0  0  0  0  0  0  0
   -1.1862    4.9988    2.7355 H   0  0  0  1  0  0  0  0  0  0  0  0
   -3.1418    3.3612   -0.5998 H   0  0  0  1  0  0  0  0  0  0  0  0
   -4.3252    5.4482   -0.9320 H   0  0  0  1  0  0  0  0  0  0  0  0
   -0.7643    2.7720    2.1500 H   0  0  0  1  0  0  0  0  0  0  0  0
   -2.1937    1.9784    1.5327 H   0  0  0  1  0  0  0  0  0  0  0  0
  1  4  1  0  0  0  0
  2  4  1  0  0  0  0
  2  5  2  0  0  0  0
  2  6  1  0  0  0  0
  3  4  1  0  0  0  0
  3  7  1  0  0  0  0
  3  8  1  0  0  0  0
  4 28  1  0  0  0  0
  6  9  1  0  0  0  0
  6 12  1  0  0  0  0
  8 10  1  0  0  0  0
  8 11  2  0  0  0  0
  9 13  1  0  0  0  0
  9 14  1  0  0  0  0
  9 15  1  0  0  0  0
 10 16  1  0  0  0  0
 10 17  1  0  0  0  0
 10 18  1  0  0  0  0
 19 20  1  0  0  0  0
 19 21  1  0  0  0  0
 19 22  1  0  0  0  0
 20 29  1  0  0  0  0
 21 30  1  0  0  0  0
 22 23  4  0  0  0  0
 22 27  4  0  0  0  0
 23 24  4  0  0  0  0
 23 31  1  0  0  0  0
 24 25  4  0  0  0  0
 24 32  1  0  0  0  0
 25 26  4  0  0  0  0
 25 28  1  0  0  0  0
 26 27  4  0  0  0  0
 26 33  1  0  0  0  0
 27 34  1  0  0  0  0
 28 35  1  0  0  0  0
 28 36  1  0  0  0  0
M  END
> <BCLConfClusterSize>
1

> <ConfClashScore>
0 

> <ConfOneFourInteractionScore>
-0.965687 

> <ConfScore>
0.246666 

> <ConfScorePBest>
0.00236553 

> <ConfTolerance>
1.07774 

> <RosettaParamsInstructions>
M  ROOT 3
M  POLY_N_BB 3
M  POLY_CA_BB 4
M  POLY_C_BB 2
M  POLY_O_BB 5
M  POLY_IGNORE 9 10 11 12 13 14 15 16 17 18 
M  POLY_UPPER 6
M  POLY_LOWER 8
M  POLY_CHG 0
M  POLY_PROPERTIES ALPHA_AA L_AA PROTEIN AROMATIC POLYMER 
M  END

$$$$



 36 36  0  0  0  0  0  0  0  0999 V2000
   -0.8011    2.8157    3.3580 H   0  0  0  1  0  0  0  0  0  0  0  0
   -2.8178    2.2140    3.3966 C   0  0  0  1  0  0  0  0  0  0  0  0
   -0.8410    0.8394    2.7465 N   0  0  0  1  0  0  0  0  0  0  0  0
   -1.4344    2.1809    2.7742 C   0  0  0  1  0  0  0  0  0  0  0  0
   -3.6532    3.0701    3.1567 O   0  0  0  1  0  0  0  0  0  0  0  0
   -3.0965    1.2275    4.2535 N   0  0  0  1  0  0  0  0  0  0  0  0
    0.0409    0.7039    3.1518 H   0  0  0  1  0  0  0  0  0  0  0  0
   -1.4611   -0.2039    2.1878 C   0  0  0  1  0  0  0  0  0  0  0  0
   -4.4112    1.0706    4.8574 C   0  0  0  1  0  0  0  0  0  0  0  0
   -0.6949   -1.5122    2.2054 C   0  0  0  1  0  0  0  0  0  0  0  0
   -2.5886   -0.1266    1.6834 O   0  0  0  1  0  0  0  0  0  0  0  0
   -2.3910    0.5872    4.4832 H   0  0  0  1  0  0  0  0  0  0  0  0
   -5.0288    1.9023    4.5895 H   0  0  0  1  0  0  0  0  0  0  0  0
   -4.3117    1.0288    5.9219 H   0  0  0  1  0  0  0  0  0  0  0  0
   -4.8597    0.1654    4.5048 H   0  0  0  1  0  0  0  0  0  0  0  0
   -1.2439   -2.2402    2.7652 H   0  0  0  1  0  0  0  0  0  0  0  0
    0.2612   -1.3593    2.6607 H   0  0  0  1  0  0  0  0  0  0  0  0
   -0.5613   -1.8605    1.2025 H   0  0  0  1  0  0  0  0  0  0  0  0
   -4.1215    7.8237    0.4319 B   0  0  0  1  0  0  0  0  0  0  0  0
   -3.9513    8.9251    1.2082 O   0  0  0  1  0  0  0  0  0  0  0  0
   -5.0542    7.9617   -0.5735 O   0  0  0  1  0  0  0  0  0  0  0  0
   -3.4284    6.4187    0.7077 C   0  0  0  1  0  0  0  0  0  0  0  0
   -2.5328    6.2875    1.7522 C   0  0  0  1  0  0  0  0  0  0  0  0
   -1.8604    5.0903    1.9427 C   0  0  0  1  0  0  0  0  0  0  0  0
   -2.0818    4.0295    1.0847 C   0  0  0  1  0  0  0  0  0  0  0  0
   -2.9800    4.1609    0.0371 C   0  0  0  1  0  0  0  0  0  0  0  0
   -3.6502    5.3546   -0.1526 C   0  0  0  1  0  0  0  0  0  0  0  0
   -1.4116    2.6988    1.3554 C   0  0  0  1  0  0  0  0  0  0  0  0
   -4.1079    8.6967    2.1274 H   0  0  0  1  0  0  0  0  0  0  0  0
   -4.8180    8.7078   -1.1295 H   0  0  0  1  0  0  0  0  0  0  0  0
   -2.3633    7.0871    2.3953 H   0  0  0  1  0  0  0  0  0  0  0  0
   -1.1896    4.9903    2.7310 H   0  0  0  1  0  0  0  0  0  0  0  0
   -3.1495    3.3614   -0.6060 H   0  0  0  1  0  0  0  0  0  0  0  0
   -4.3211    5.4546   -0.9410 H   0  0  0  1  0  0  0  0  0  0  0  0
   -1.8920    1.9673    0.7397 H   0  0  0  1  0  0  0  0  0  0  0  0
   -0.3859    2.7920    1.0651 H   0  0  0  1  0  0  0  0  0  0  0  0
  1  4  1  0  0  0  0
  2  4  1  0  0  0  0
  2  5  2  0  0  0  0
  2  6  1  0  0  0  0
  3  4  1  0  0  0  0
  3  7  1  0  0  0  0
  3  8  1  0  0  0  0
  4 28  1  0  0  0  0
  6  9  1  0  0  0  0
  6 12  1  0  0  0  0
  8 10  1  0  0  0  0
  8 11  2  0  0  0  0
  9 13  1  0  0  0  0
  9 14  1  0  0  0  0
  9 15  1  0  0  0  0
 10 16  1  0  0  0  0
 10 17  1  0  0  0  0
 10 18  1  0  0  0  0
 19 20  1  0  0  0  0
 19 21  1  0  0  0  0
 19 22  1  0  0  0  0
 20 29  1  0  0  0  0
 21 30  1  0  0  0  0
 22 23  4  0  0  0  0
 22 27  4  0  0  0  0
 23 24  4  0  0  0  0
 23 31  1  0  0  0  0
 24 25  4  0  0  0  0
 24 32  1  0  0  0  0
 25 26  4  0  0  0  0
 25 28  1  0  0  0  0
 26 27  4  0  0  0  0
 26 33  1  0  0  0  0
 27 34  1  0  0  0  0
 28 35  1  0  0  0  0
 28 36  1  0  0  0  0
M  END
> <BCLConfClusterSize>
1

> <ConfClashScore>
0 

> <ConfOneFourInteractionScore>
-0.963798 

> <ConfScore>
0.251589 

> <ConfScorePBest>
0.00233705 

> <ConfTolerance>
0.87579 

> <RosettaParamsInstructions>
M  ROOT 3
M  POLY_N_BB 3
M  POLY_CA_BB 4
M  POLY_C_BB 2
M  POLY_O_BB 5
M  POLY_IGNORE 9 10 11 12 13 14 15 16 17 18 
M  POLY_UPPER 6
M  POLY_LOWER 8
M  POLY_CHG 0
M  POLY_PROPERTIES ALPHA_AA L_AA PROTEIN AROMATIC POLYMER 
M  END

$$$$



 36 36  0  0  0  0  0  0  0  0999 V2000
   -2.8876    1.2284    1.8367 H   0  0  0  1  0  0  0  0  0  0  0  0
   -1.1975    0.9456    3.0984 C   0  0  0  1  0  0  0  0  0  0  0  0
   -2.8669    2.6754    3.3395 N   0  0  0  1  0  0  0  0  0  0  0  0
   -2.1765    1.8434    2.3477 C   0  0  0  1  0  0  0  0  0  0  0  0
   -0.1743    0.5257    2.5596 O   0  0  0  1  0  0  0  0  0  0  0  0
   -1.5272    0.6546    4.3601 N   0  0  0  1  0  0  0  0  0  0  0  0
   -3.8469    2.6725    3.3300 H   0  0  0  1  0  0  0  0  0  0  0  0
   -2.2613    3.4355    4.2531 C   0  0  0  1  0  0  0  0  0  0  0  0
   -0.7014   -0.1115    5.2815 C   0  0  0  1  0  0  0  0  0  0  0  0
   -3.1718    4.1922    5.2151 C   0  0  0  1  0  0  0  0  0  0  0  0
   -1.0475    3.4693    4.3764 O   0  0  0  1  0  0  0  0  0  0  0  0
   -2.3902    0.9817    4.6898 H   0  0  0  1  0  0  0  0  0  0  0  0
   -1.0069   -1.1368    5.2669 H   0  0  0  1  0  0  0  0  0  0  0  0
   -0.8142    0.2800    6.2709 H   0  0  0  1  0  0  0  0  0  0  0  0
    0.3240   -0.0408    4.9841 H   0  0  0  1  0  0  0  0  0  0  0  0
   -3.7070    3.4939    5.8242 H   0  0  0  1  0  0  0  0  0  0  0  0
   -3.8667    4.7841    4.6569 H   0  0  0  1  0  0  0  0  0  0  0  0
   -2.5803    4.8292    5.8390 H   0  0  0  1  0  0  0  0  0  0  0  0
   -4.1201    7.8146    0.4299 B   0  0  0  1  0  0  0  0  0  0  0  0
   -3.9743    8.8951    1.2399 O   0  0  0  1  0  0  0  0  0  0  0  0
   -4.8964    7.9169   -0.6820 O   0  0  0  1  0  0  0  0  0  0  0  0
   -3.4282    6.4187    0.7080 C   0  0  0  1  0  0  0  0  0  0  0  0
   -2.5332    6.2916    1.7535 C   0  0  0  1  0  0  0  0  0  0  0  0
   -1.8588    5.0961    1.9472 C   0  0  0  1  0  0  0  0  0  0  0  0
   -2.0775    4.0329    1.0916 C   0  0  0  1  0  0  0  0  0  0  0  0
   -2.9751    4.1603    0.0429 C   0  0  0  1  0  0  0  0  0  0  0  0
   -3.6473    5.3523   -0.1501 C   0  0  0  1  0  0  0  0  0  0  0  0
   -1.4357    2.6908    1.3217 C   0  0  0  1  0  0  0  0  0  0  0  0
   -3.2162    9.4100    0.9538 H   0  0  0  1  0  0  0  0  0  0  0  0
   -4.6366    8.6929   -1.1839 H   0  0  0  1  0  0  0  0  0  0  0  0
   -2.3657    7.0929    2.3949 H   0  0  0  1  0  0  0  0  0  0  0  0
   -1.1883    4.9991    2.7364 H   0  0  0  1  0  0  0  0  0  0  0  0
   -3.1426    3.3590   -0.5985 H   0  0  0  1  0  0  0  0  0  0  0  0
   -4.3178    5.4492   -0.9392 H   0  0  0  1  0  0  0  0  0  0  0  0
   -1.4144    2.1598    0.3930 H   0  0  0  1  0  0  0  0  0  0  0  0
   -0.4351    2.8466    1.6672 H   0  0  0  1  0  0  0  0  0  0  0  0
  1  4  1  0  0  0  0
  2  4  1  0  0  0  0
  2  5  2  0  0  0  0
  2  6  1  0  0  0  0
  3  4  1  0  0  0  0
  3  7  1  0  0  0  0
  3  8  1  0  0  0  0
  4 28  1  0  0  0  0
  6  9  1  0  0  0  0
  6 12  1  0  0  0  0
  8 10  1  0  0  0  0
  8 11  2  0  0  0  0
  9 13  1  0  0  0  0
  9 14  1  0  0  0  0
  9 15  1  0  0  0  0
 10 16  1  0  0  0  0
 10 17  1  0  0  0  0
 10 18  1  0  0  0  0
 19 20  1  0  0  0  0
 19 21  1  0  0  0  0
 19 22  1  0  0  0  0
 20 29  1  0  0  0  0
 21 30  1  0  0  0  0
 22 23  4  0  0  0  0
 22 27  4  0  0  0  0
 23 24  4  0  0  0  0
 23 31  1  0  0  0  0
 24 25  4  0  0  0  0
 24 32  1  0  0  0  0
 25 26  4  0  0  0  0
 25 28  1  0  0  0  0
 26 27  4  0  0  0  0
 26 33  1  0  0  0  0
 27 34  1  0  0  0  0
 28 35  1  0  0  0  0
 28 36  1  0  0  0  0
M  END
> <BCLConfClusterSize>
1

> <ConfClashScore>
0 

> <ConfOneFourInteractionScore>
-0.941805 

> <ConfScore>
0.287092 

> <ConfScorePBest>
0.00230857 

> <ConfTolerance>
1.26504 

> <RosettaParamsInstructions>
M  ROOT 3
M  POLY_N_BB 3
M  POLY_CA_BB 4
M  POLY_C_BB 2
M  POLY_O_BB 5
M  POLY_IGNORE 9 10 11 12 13 14 15 16 17 18 
M  POLY_UPPER 6
M  POLY_LOWER 8
M  POLY_CHG 0
M  POLY_PROPERTIES ALPHA_AA L_AA PROTEIN AROMATIC POLYMER 
M  END

$$$$



 36 36  0  0  0  0  0  0  0  0999 V2000
   -2.8592    2.6122    2.9023 H   0  0  0  1  0  0  0  0  0  0  0  0
   -2.7259    0.6825    2.0569 C   0  0  0  1  0  0  0  0  0  0  0  0
   -1.1306    1.7077    3.5869 N   0  0  0  1  0  0  0  0  0  0  0  0
   -2.0869    1.9761    2.5232 C   0  0  0  1  0  0  0  0  0  0  0  0
   -2.0341   -0.2778    1.7211 O   0  0  0  1  0  0  0  0  0  0  0  0
   -4.0578    0.6180    2.0219 N   0  0  0  1  0  0  0  0  0  0  0  0
   -0.6604    0.8479    3.5943 H   0  0  0  1  0  0  0  0  0  0  0  0
   -0.8710    2.5939    4.5548 C   0  0  0  1  0  0  0  0  0  0  0  0
   -4.8244   -0.5170    1.5301 C   0  0  0  1  0  0  0  0  0  0  0  0
    0.0752    2.1233    5.6422 C   0  0  0  1  0  0  0  0  0  0  0  0
   -1.3594    3.7228    4.5780 O   0  0  0  1  0  0  0  0  0  0  0  0
   -4.5578    1.3934    2.3524 H   0  0  0  1  0  0  0  0  0  0  0  0
   -4.2061   -1.3903    1.5248 H   0  0  0  1  0  0  0  0  0  0  0  0
   -5.1632   -0.3142    0.5356 H   0  0  0  1  0  0  0  0  0  0  0  0
   -5.6675   -0.6811    2.1681 H   0  0  0  1  0  0  0  0  0  0  0  0
   -0.0960    2.6892    6.5341 H   0  0  0  1  0  0  0  0  0  0  0  0
    1.0860    2.2629    5.3201 H   0  0  0  1  0  0  0  0  0  0  0  0
   -0.0967    1.0859    5.8399 H   0  0  0  1  0  0  0  0  0  0  0  0
   -4.1435    7.8100    0.3943 B   0  0  0  1  0  0  0  0  0  0  0  0
   -4.7780    7.9321   -0.8003 O   0  0  0  1  0  0  0  0  0  0  0  0
   -4.1571    8.8744    1.2466 O   0  0  0  1  0  0  0  0  0  0  0  0
   -3.4240    6.4220    0.7158 C   0  0  0  1  0  0  0  0  0  0  0  0
   -2.5276    6.2863    1.7590 C   0  0  0  1  0  0  0  0  0  0  0  0
   -1.8572    5.0874    1.9455 C   0  0  0  1  0  0  0  0  0  0  0  0
   -2.0814    4.0294    1.0849 C   0  0  0  1  0  0  0  0  0  0  0  0
   -2.9804    4.1653    0.0386 C   0  0  0  1  0  0  0  0  0  0  0  0
   -3.6487    5.3607   -0.1472 C   0  0  0  1  0  0  0  0  0  0  0  0
   -1.4133    2.6967    1.3512 C   0  0  0  1  0  0  0  0  0  0  0  0
   -5.1105    7.0747   -1.0757 H   0  0  0  1  0  0  0  0  0  0  0  0
   -3.6086    9.5772    0.8904 H   0  0  0  1  0  0  0  0  0  0  0  0
   -2.3560    7.0838    2.4041 H   0  0  0  1  0  0  0  0  0  0  0  0
   -1.1857    4.9841    2.7329 H   0  0  0  1  0  0  0  0  0  0  0  0
   -3.1520    3.3678   -0.6065 H   0  0  0  1  0  0  0  0  0  0  0  0
   -4.3202    5.4640   -0.9346 H   0  0  0  1  0  0  0  0  0  0  0  0
   -1.4864    2.0864    0.4754 H   0  0  0  1  0  0  0  0  0  0  0  0
   -0.3826    2.8618    1.5865 H   0  0  0  1  0  0  0  0  0  0  0  0
  1  4  1  0  0  0  0
  2  4  1  0  0  0  0
  2  5  2  0  0  0  0
  2  6  1  0  0  0  0
  3  4  1  0  0  0  0
  3  7  1  0  0  0  0
  3  8  1  0  0  0  0
  4 28  1  0  0  0  0
  6  9  1  0  0  0  0
  6 12  1  0  0  0  0
  8 10  1  0  0  0  0
  8 11  2  0  0  0  0
  9 13  1  0  0  0  0
  9 14  1  0  0  0  0
  9 15  1  0  0  0  0
 10 16  1  0  0  0  0
 10 17  1  0  0  0  0
 10 18  1  0  0  0  0
 19 20  1  0  0  0  0
 19 21  1  0  0  0  0
 19 22  1  0  0  0  0
 20 29  1  0  0  0  0
 21 30  1  0  0  0  0
 22 23  4  0  0  0  0
 22 27  4  0  0  0  0
 23 24  4  0  0  0  0
 23 31  1  0  0  0  0
 24 25  4  0  0  0  0
 24 32  1  0  0  0  0
 25 26  4  0  0  0  0
 25 28  1  0  0  0  0
 26 27  4  0  0  0  0
 26 33  1  0  0  0  0
 27 34  1  0  0  0  0
 28 35  1  0  0  0  0
 28 36  1  0  0  0  0
M  END
> <BCLConfClusterSize>
1

> <ConfClashScore>
0 

> <ConfOneFourInteractionScore>
-0.983681 

> <ConfScore>
0.292608 

> <ConfScorePBest>
0.00228009 

> <ConfTolerance>
1.23828 

> <RosettaParamsInstructions>
M  ROOT 3
M  POLY_N_BB 3
M  POLY_CA_BB 4
M  POLY_C_BB 2
M  POLY_O_BB 5
M  POLY_IGNORE 9 10 11 12 13 14 15 16 17 18 
M  POLY_UPPER 6
M  POLY_LOWER 8
M  POLY_CHG 0
M  POLY_PROPERTIES ALPHA_AA L_AA PROTEIN AROMATIC POLYMER 
M  END

$$$$



 36 36  0  0  0  0  0  0  0  0999 V2000
   -2.0596    2.1827    3.2769 H   0  0  0  1  0  0  0  0  0  0  0  0
   -3.7537    2.0377    2.0427 C   0  0  0  1  0  0  0  0  0  0  0  0
   -1.8727    0.4402    2.1990 N   0  0  0  1  0  0  0  0  0  0  0  0
   -2.2706    1.8373    2.2864 C   0  0  0  1  0  0  0  0  0  0  0  0
   -4.2859    1.6614    0.9992 O   0  0  0  1  0  0  0  0  0  0  0  0
   -4.4303    2.6445    3.0307 N   0  0  0  1  0  0  0  0  0  0  0  0
   -1.1021    0.2019    1.6425 H   0  0  0  1  0  0  0  0  0  0  0  0
   -2.5215   -0.5288    2.8510 C   0  0  0  1  0  0  0  0  0  0  0  0
   -5.7940    3.1507    2.9866 C   0  0  0  1  0  0  0  0  0  0  0  0
   -2.0310   -1.9439    2.6143 C   0  0  0  1  0  0  0  0  0  0  0  0
   -3.4076   -0.2958    3.6574 O   0  0  0  1  0  0  0  0  0  0  0  0
   -3.9515    2.7598    3.8780 H   0  0  0  1  0  0  0  0  0  0  0  0
   -6.3614    2.7186    3.7842 H   0  0  0  1  0  0  0  0  0  0  0  0
   -6.2407    2.8904    2.0497 H   0  0  0  1  0  0  0  0  0  0  0  0
   -5.7827    4.2153    3.0933 H   0  0  0  1  0  0  0  0  0  0  0  0
   -2.0439   -2.1556    1.5655 H   0  0  0  1  0  0  0  0  0  0  0  0
   -2.6709   -2.6330    3.1248 H   0  0  0  1  0  0  0  0  0  0  0  0
   -1.0323   -2.0417    2.9854 H   0  0  0  1  0  0  0  0  0  0  0  0
   -4.1181    7.8105    0.4308 B   0  0  0  1  0  0  0  0  0  0  0  0
   -5.2257    7.9561   -0.3523 O   0  0  0  1  0  0  0  0  0  0  0  0
   -3.5674    8.9041    1.0088 O   0  0  0  1  0  0  0  0  0  0  0  0
   -3.4288    6.4200    0.7077 C   0  0  0  1  0  0  0  0  0  0  0  0
   -2.5338    6.2928    1.7533 C   0  0  0  1  0  0  0  0  0  0  0  0
   -1.8594    5.0973    1.9470 C   0  0  0  1  0  0  0  0  0  0  0  0
   -2.0781    4.0342    1.0913 C   0  0  0  1  0  0  0  0  0  0  0  0
   -2.9756    4.1615    0.0427 C   0  0  0  1  0  0  0  0  0  0  0  0
   -3.6480    5.3535   -0.1503 C   0  0  0  1  0  0  0  0  0  0  0  0
   -1.4317    2.6824    1.3231 C   0  0  0  1  0  0  0  0  0  0  0  0
   -4.9941    8.4405   -1.1481 H   0  0  0  1  0  0  0  0  0  0  0  0
   -4.2466    9.3956    1.4765 H   0  0  0  1  0  0  0  0  0  0  0  0
   -2.3663    7.0942    2.3947 H   0  0  0  1  0  0  0  0  0  0  0  0
   -1.1889    5.0004    2.7361 H   0  0  0  1  0  0  0  0  0  0  0  0
   -3.1432    3.3602   -0.5987 H   0  0  0  1  0  0  0  0  0  0  0  0
   -4.3184    5.4505   -0.9394 H   0  0  0  1  0  0  0  0  0  0  0  0
   -1.3474    2.1689    0.3881 H   0  0  0  1  0  0  0  0  0  0  0  0
   -0.4571    2.8266    1.7405 H   0  0  0  1  0  0  0  0  0  0  0  0
  1  4  1  0  0  0  0
  2  4  1  0  0  0  0
  2  5  2  0  0  0  0
  2  6  1  0  0  0  0
  3  4  1  0  0  0  0
  3  7  1  0  0  0  0
  3  8  1  0  0  0  0
  4 28  1  0  0  0  0
  6  9  1  0  0  0  0
  6 12  1  0  0  0  0
  8 10  1  0  0  0  0
  8 11  2  0  0  0  0
  9 13  1  0  0  0  0
  9 14  1  0  0  0  0
  9 15  1  0  0  0  0
 10 16  1  0  0  0  0
 10 17  1  0  0  0  0
 10 18  1  0  0  0  0
 19 20  1  0  0  0  0
 19 21  1  0  0  0  0
 19 22  1  0  0  0  0
 20 29  1  0  0  0  0
 21 30  1  0  0  0  0
 22 23  4  0  0  0  0
 22 27  4  0  0  0  0
 23 24  4  0  0  0  0
 23 31  1  0  0  0  0
 24 25  4  0  0  0  0
 24 32  1  0  0  0  0
 25 26  4  0  0  0  0
 25 28  1  0  0  0  0
 26 27  4  0  0  0  0
 26 33  1  0  0  0  0
 27 34  1  0  0  0  0
 28 35  1  0  0  0  0
 28 36  1  0  0  0  0
M  END
> <BCLConfClusterSize>
1

> <ConfClashScore>
0 

> <ConfOneFourInteractionScore>
-0.974982 

> <ConfScore>
0.30586 

> <ConfScorePBest>
0.00225161 

> <ConfTolerance>
1.17086 

> <RosettaParamsInstructions>
M  ROOT 3
M  POLY_N_BB 3
M  POLY_CA_BB 4
M  POLY_C_BB 2
M  POLY_O_BB 5
M  POLY_IGNORE 9 10 11 12 13 14 15 16 17 18 
M  POLY_UPPER 6
M  POLY_LOWER 8
M  POLY_CHG 0
M  POLY_PROPERTIES ALPHA_AA L_AA PROTEIN AROMATIC POLYMER 
M  END

$$$$



 36 36  0  0  0  0  0  0  0  0999 V2000
   -0.2148    2.9153   -0.3914 H   0  0  0  1  0  0  0  0  0  0  0  0
    1.0041    3.1380    1.3200 C   0  0  0  1  0  0  0  0  0  0  0  0
    0.0738    1.0252    0.3889 N   0  0  0  1  0  0  0  0  0  0  0  0
   -0.1312    2.4545    0.5707 C   0  0  0  1  0  0  0  0  0  0  0  0
    0.8422    4.2269    1.8693 O   0  0  0  1  0  0  0  0  0  0  0  0
    2.1721    2.4777    1.3369 N   0  0  0  1  0  0  0  0  0  0  0  0
   -0.0358    0.6418   -0.5063 H   0  0  0  1  0  0  0  0  0  0  0  0
    0.4089    0.2108    1.4085 C   0  0  0  1  0  0  0  0  0  0  0  0
    3.3603    3.0163    1.9819 C   0  0  0  1  0  0  0  0  0  0  0  0
    0.6466   -1.2265    0.9877 C   0  0  0  1  0  0  0  0  0  0  0  0
    0.5195    0.5634    2.5717 O   0  0  0  1  0  0  0  0  0  0  0  0
    2.2269    1.6024    0.8997 H   0  0  0  1  0  0  0  0  0  0  0  0
    4.2341    2.6022    1.5239 H   0  0  0  1  0  0  0  0  0  0  0  0
    3.3480    2.7618    3.0211 H   0  0  0  1  0  0  0  0  0  0  0  0
    3.3723    4.0809    1.8750 H   0  0  0  1  0  0  0  0  0  0  0  0
    0.9979   -1.2493   -0.0228 H   0  0  0  1  0  0  0  0  0  0  0  0
   -0.2694   -1.7749    1.0591 H   0  0  0  1  0  0  0  0  0  0  0  0
    1.3791   -1.6694    1.6297 H   0  0  0  1  0  0  0  0  0  0  0  0
   -4.1453    7.8073    0.3911 B   0  0  0  1  0  0  0  0  0  0  0  0
   -5.3754    7.7973   -0.1846 O   0  0  0  1  0  0  0  0  0  0  0  0
   -3.4876    8.9542    0.7092 O   0  0  0  1  0  0  0  0  0  0  0  0
   -3.4235    6.4213    0.7163 C   0  0  0  1  0  0  0  0  0  0  0  0
   -2.5276    6.2897    1.7605 C   0  0  0  1  0  0  0  0  0  0  0  0
   -1.8552    5.0925    1.9503 C   0  0  0  1  0  0  0  0  0  0  0  0
   -2.0767    4.0321    1.0919 C   0  0  0  1  0  0  0  0  0  0  0  0
   -2.9751    4.1639    0.0446 C   0  0  0  1  0  0  0  0  0  0  0  0
   -3.6455    5.3577   -0.1445 C   0  0  0  1  0  0  0  0  0  0  0  0
   -1.4377    2.6894    1.3174 C   0  0  0  1  0  0  0  0  0  0  0  0
   -5.4065    7.1182   -0.8625 H   0  0  0  1  0  0  0  0  0  0  0  0
   -2.5427    8.7862    0.7312 H   0  0  0  1  0  0  0  0  0  0  0  0
   -2.3580    7.0890    2.4039 H   0  0  0  1  0  0  0  0  0  0  0  0
   -1.1841    4.9921    2.7384 H   0  0  0  1  0  0  0  0  0  0  0  0
   -3.1448    3.3647   -0.5989 H   0  0  0  1  0  0  0  0  0  0  0  0
   -4.3166    5.4580   -0.9326 H   0  0  0  1  0  0  0  0  0  0  0  0
   -1.2421    2.5886    2.3646 H   0  0  0  1  0  0  0  0  0  0  0  0
   -2.1335    1.9369    1.0100 H   0  0  0  1  0  0  0  0  0  0  0  0
  1  4  1  0  0  0  0
  2  4  1  0  0  0  0
  2  5  2  0  0  0  0
  2  6  1  0  0  0  0
  3  4  1  0  0  0  0
  3  7  1  0  0  0  0
  3  8  1  0  0  0  0
  4 28  1  0  0  0  0
  6  9  1  0  0  0  0
  6 12  1  0  0  0  0
  8 10  1  0  0  0  0
  8 11  2  0  0  0  0
  9 13  1  0  0  0  0
  9 14  1  0  0  0  0
  9 15  1  0  0  0  0
 10 16  1  0  0  0  0
 10 17  1  0  0  0  0
 10 18  1  0  0  0  0
 19 20  1  0  0  0  0
 19 21  1  0  0  0  0
 19 22  1  0  0  0  0
 20 29  1  0  0  0  0
 21 30  1  0  0  0  0
 22 23  4  0  0  0  0
 22 27  4  0  0  0  0
 23 24  4  0  0  0  0
 23 31  1  0  0  0  0
 24 25  4  0  0  0  0
 24 32  1  0  0  0  0
 25 26  4  0  0  0  0
 25 28  1  0  0  0  0
 26 27  4  0  0  0  0
 26 33  1  0  0  0  0
 27 34  1  0  0  0  0
 28 35  1  0  0  0  0
 28 36  1  0  0  0  0
M  END
> <BCLConfClusterSize>
1

> <ConfClashScore>
0 

> <ConfOneFourInteractionScore>
-0.960865 

> <ConfScore>
0.340569 

> <ConfScorePBest>
0.00222313 

> <ConfTolerance>
1.14034 

> <RosettaParamsInstructions>
M  ROOT 3
M  POLY_N_BB 3
M  POLY_CA_BB 4
M  POLY_C_BB 2
M  POLY_O_BB 5
M  POLY_IGNORE 9 10 11 12 13 14 15 16 17 18 
M  POLY_UPPER 6
M  POLY_LOWER 8
M  POLY_CHG 0
M  POLY_PROPERTIES ALPHA_AA L_AA PROTEIN AROMATIC POLYMER 
M  END

$$$$



 36 36  0  0  0  0  0  0  0  0999 V2000
    0.1138    3.6506    2.4651 H   0  0  0  1  0  0  0  0  0  0  0  0
   -1.2609    2.8102    3.8246 C   0  0  0  1  0  0  0  0  0  0  0  0
    0.4458    1.6127    2.4740 N   0  0  0  1  0  0  0  0  0  0  0  0
   -0.4596    2.7502    2.5387 C   0  0  0  1  0  0  0  0  0  0  0  0
   -1.4953    3.8731    4.3756 O   0  0  0  1  0  0  0  0  0  0  0  0
   -1.6868    1.6255    4.3046 N   0  0  0  1  0  0  0  0  0  0  0  0
    0.1547    0.7774    2.8958 H   0  0  0  1  0  0  0  0  0  0  0  0
    1.6419    1.6214    1.8837 C   0  0  0  1  0  0  0  0  0  0  0  0
   -2.3356    1.5547    5.6054 C   0  0  0  1  0  0  0  0  0  0  0  0
    2.3932    0.2962    1.8912 C   0  0  0  1  0  0  0  0  0  0  0  0
    2.1201    2.6177    1.3656 O   0  0  0  1  0  0  0  0  0  0  0  0
   -1.5594    0.8097    3.7767 H   0  0  0  1  0  0  0  0  0  0  0  0
   -2.2681    2.5061    6.0904 H   0  0  0  1  0  0  0  0  0  0  0  0
   -1.8507    0.8135    6.2057 H   0  0  0  1  0  0  0  0  0  0  0  0
   -3.3649    1.2926    5.4765 H   0  0  0  1  0  0  0  0  0  0  0  0
    3.3830    0.4489    2.2680 H   0  0  0  1  0  0  0  0  0  0  0  0
    2.4468   -0.0887    0.8943 H   0  0  0  1  0  0  0  0  0  0  0  0
    1.8776   -0.4023    2.5165 H   0  0  0  1  0  0  0  0  0  0  0  0
   -4.1178    7.8165    0.4333 B   0  0  0  1  0  0  0  0  0  0  0  0
   -4.8402    8.0863   -0.6848 O   0  0  0  1  0  0  0  0  0  0  0  0
   -3.9675    8.7835    1.3775 O   0  0  0  1  0  0  0  0  0  0  0  0
   -3.4283    6.4186    0.7076 C   0  0  0  1  0  0  0  0  0  0  0  0
   -2.5327    6.2875    1.7522 C   0  0  0  1  0  0  0  0  0  0  0  0
   -1.8604    5.0903    1.9427 C   0  0  0  1  0  0  0  0  0  0  0  0
   -2.0818    4.0295    1.0848 C   0  0  0  1  0  0  0  0  0  0  0  0
   -2.9800    4.1609    0.0372 C   0  0  0  1  0  0  0  0  0  0  0  0
   -3.6502    5.3546   -0.1526 C   0  0  0  1  0  0  0  0  0  0  0  0
   -1.4156    2.7067    1.3539 C   0  0  0  1  0  0  0  0  0  0  0  0
   -5.7627    8.2079   -0.4487 H   0  0  0  1  0  0  0  0  0  0  0  0
   -4.0402    9.6476    0.9657 H   0  0  0  1  0  0  0  0  0  0  0  0
   -2.3632    7.0871    2.3952 H   0  0  0  1  0  0  0  0  0  0  0  0
   -1.1896    4.9903    2.7311 H   0  0  0  1  0  0  0  0  0  0  0  0
   -3.1495    3.3613   -0.6059 H   0  0  0  1  0  0  0  0  0  0  0  0
   -4.3210    5.4545   -0.9410 H   0  0  0  1  0  0  0  0  0  0  0  0
   -2.1734    1.9782    1.5543 H   0  0  0  1  0  0  0  0  0  0  0  0
   -0.8652    2.4191    0.4826 H   0  0  0  1  0  0  0  0  0  0  0  0
  1  4  1  0  0  0  0
  2  4  1  0  0  0  0
  2  5  2  0  0  0  0
  2  6  1  0  0  0  0
  3  4  1  0  0  0  0
  3  7  1  0  0  0  0
  3  8  1  0  0  0  0
  4 28  1  0  0  0  0
  6  9  1  0  0  0  0
  6 12  1  0  0  0  0
  8 10  1  0  0  0  0
  8 11  2  0  0  0  0
  9 13  1  0  0  0  0
  9 14  1  0  0  0  0
  9 15  1  0  0  0  0
 10 16  1  0  0  0  0
 10 17  1  0  0  0  0
 10 18  1  0  0  0  0
 19 20  1  0  0  0  0
 19 21  1  0  0  0  0
 19 22  1  0  0  0  0
 20 29  1  0  0  0  0
 21 30  1  0  0  0  0
 22 23  4  0  0  0  0
 22 27  4  0  0  0  0
 23 24  4  0  0  0  0
 23 31  1  0  0  0  0
 24 25  4  0  0  0  0
 24 32  1  0  0  0  0
 25 26  4  0  0  0  0
 25 28  1  0  0  0  0
 26 27  4  0  0  0  0
 26 33  1  0  0  0  0
 27 34  1  0  0  0  0
 28 35  1  0  0  0  0
 28 36  1  0  0  0  0
M  END
> <BCLConfClusterSize>
1

> <ConfClashScore>
0 

> <ConfOneFourInteractionScore>
-0.951899 

> <ConfScore>
0.38913 

> <ConfScorePBest>
0.00219465 

> <ConfTolerance>
1.66007 

> <RosettaParamsInstructions>
M  ROOT 3
M  POLY_N_BB 3
M  POLY_CA_BB 4
M  POLY_C_BB 2
M  POLY_O_BB 5
M  POLY_IGNORE 9 10 11 12 13 14 15 16 17 18 
M  POLY_UPPER 6
M  POLY_LOWER 8
M  POLY_CHG 0
M  POLY_PROPERTIES ALPHA_AA L_AA PROTEIN AROMATIC POLYMER 
M  END

$$$$



 36 36  0  0  0  0  0  0  0  0999 V2000
   -1.6486    0.7753    2.0652 H   0  0  0  1  0  0  0  0  0  0  0  0
   -2.2095    1.9843    3.6554 C   0  0  0  1  0  0  0  0  0  0  0  0
   -3.5411    1.4237    1.6369 N   0  0  0  1  0  0  0  0  0  0  0  0
   -2.1900    1.6925    2.1676 C   0  0  0  1  0  0  0  0  0  0  0  0
   -3.1675    2.5479    4.1830 O   0  0  0  1  0  0  0  0  0  0  0  0
   -1.1251    1.5899    4.3414 N   0  0  0  1  0  0  0  0  0  0  0  0
   -3.7199    0.6283    1.0930 H   0  0  0  1  0  0  0  0  0  0  0  0
   -4.5175    2.2992    1.9206 C   0  0  0  1  0  0  0  0  0  0  0  0
   -0.8647    1.9008    5.7390 C   0  0  0  1  0  0  0  0  0  0  0  0
   -5.9071    1.7906    1.5900 C   0  0  0  1  0  0  0  0  0  0  0  0
   -4.3390    3.4076    2.3995 O   0  0  0  1  0  0  0  0  0  0  0  0
   -0.4586    1.0520    3.8650 H   0  0  0  1  0  0  0  0  0  0  0  0
   -1.1269    2.9198    5.9331 H   0  0  0  1  0  0  0  0  0  0  0  0
    0.1742    1.7539    5.9492 H   0  0  0  1  0  0  0  0  0  0  0  0
   -1.4497    1.2572    6.3623 H   0  0  0  1  0  0  0  0  0  0  0  0
   -6.6313    2.3328    2.1614 H   0  0  0  1  0  0  0  0  0  0  0  0
   -5.9718    0.7495    1.8286 H   0  0  0  1  0  0  0  0  0  0  0  0
   -6.0990    1.9305    0.5466 H   0  0  0  1  0  0  0  0  0  0  0  0
   -4.1009    7.8300    0.4636 B   0  0  0  1  0  0  0  0  0  0  0  0
   -3.4303    8.8981   -0.0403 O   0  0  0  1  0  0  0  0  0  0  0  0
   -5.4187    7.9624    0.7885 O   0  0  0  1  0  0  0  0  0  0  0  0
   -3.4321    6.4153    0.7007 C   0  0  0  1  0  0  0  0  0  0  0  0
   -2.5379    6.2923    1.7473 C   0  0  0  1  0  0  0  0  0  0  0  0
   -1.8616    5.0985    1.9446 C   0  0  0  1  0  0  0  0  0  0  0  0
   -2.0777    4.0328    1.0914 C   0  0  0  1  0  0  0  0  0  0  0  0
   -2.9745    4.1560    0.0416 C   0  0  0  1  0  0  0  0  0  0  0  0
   -3.6487    5.3464   -0.1549 C   0  0  0  1  0  0  0  0  0  0  0  0
   -1.4341    2.6931    1.3253 C   0  0  0  1  0  0  0  0  0  0  0  0
   -4.0444    9.6209   -0.1890 H   0  0  0  1  0  0  0  0  0  0  0  0
   -5.9362    7.3212    0.2960 H   0  0  0  1  0  0  0  0  0  0  0  0
   -2.3724    7.0955    2.3869 H   0  0  0  1  0  0  0  0  0  0  0  0
   -1.1917    5.0046    2.7346 H   0  0  0  1  0  0  0  0  0  0  0  0
   -3.1401    3.3528   -0.5979 H   0  0  0  1  0  0  0  0  0  0  0  0
   -4.3186    5.4402   -0.9449 H   0  0  0  1  0  0  0  0  0  0  0  0
   -1.2692    2.2455    0.3675 H   0  0  0  1  0  0  0  0  0  0  0  0
   -0.4935    2.8689    1.8041 H   0  0  0  1  0  0  0  0  0  0  0  0
  1  4  1  0  0  0  0
  2  4  1  0  0  0  0
  2  5  2  0  0  0  0
  2  6  1  0  0  0  0
  3  4  1  0  0  0  0
  3  7  1  0  0  0  0
  3  8  1  0  0  0  0
  4 28  1  0  0  0  0
  6  9  1  0  0  0  0
  6 12  1  0  0  0  0
  8 10  1  0  0  0  0
  8 11  2  0  0  0  0
  9 13  1  0  0  0  0
  9 14  1  0  0  0  0
  9 15  1  0  0  0  0
 10 16  1  0  0  0  0
 10 17  1  0  0  0  0
 10 18  1  0  0  0  0
 19 20  1  0  0  0  0
 19 21  1  0  0  0  0
 19 22  1  0  0  0  0
 20 29  1  0  0  0  0
 21 30  1  0  0  0  0
 22 23  4  0  0  0  0
 22 27  4  0  0  0  0
 23 24  4  0  0  0  0
 23 31  1  0  0  0  0
 24 25  4  0  0  0  0
 24 32  1  0  0  0  0
 25 26  4  0  0  0  0
 25 28  1  0  0  0  0
 26 27  4  0  0  0  0
 26 33  1  0  0  0  0
 27 34  1  0  0  0  0
 28 35  1  0  0  0  0
 28 36  1  0  0  0  0
M  END
> <BCLConfClusterSize>
1

> <ConfClashScore>
0 

> <ConfOneFourInteractionScore>
-0.982535 

> <ConfScore>
0.402627 

> <ConfScorePBest>
0.00216617 

> <ConfTolerance>
1.69179 

> <RosettaParamsInstructions>
M  ROOT 3
M  POLY_N_BB 3
M  POLY_CA_BB 4
M  POLY_C_BB 2
M  POLY_O_BB 5
M  POLY_IGNORE 9 10 11 12 13 14 15 16 17 18 
M  POLY_UPPER 6
M  POLY_LOWER 8
M  POLY_CHG 0
M  POLY_PROPERTIES ALPHA_AA L_AA PROTEIN AROMATIC POLYMER 
M  END

$$$$
