


 32 32  0  0  0  0  0  0  0  0999 V2000
   -0.6338    1.4154   -2.7322 H   0  0  0  1  0  0  0  0  0  0  0  0
    0.2025    3.2897   -3.1877 C   0  0  0  1  0  0  0  0  0  0  0  0
   -2.0921    2.5911   -3.6109 N   0  0  0  1  0  0  0  0  0  0  0  0
   -0.9512    2.4367   -2.6972 C   0  0  0  1  0  0  0  0  0  0  0  0
    0.3147    3.5858   -4.3659 O   0  0  0  1  0  0  0  0  0  0  0  0
    1.0746    3.6873   -2.2478 N   0  0  0  1  0  0  0  0  0  0  0  0
   -2.9453    2.8804   -3.2253 H   0  0  0  1  0  0  0  0  0  0  0  0
   -2.0532    2.3646   -4.9403 C   0  0  0  1  0  0  0  0  0  0  0  0
    2.2451    4.4922   -2.5640 C   0  0  0  1  0  0  0  0  0  0  0  0
   -3.3477    2.4799   -5.7213 C   0  0  0  1  0  0  0  0  0  0  0  0
   -0.9996    2.0729   -5.5047 O   0  0  0  1  0  0  0  0  0  0  0  0
    0.9175    3.4266   -1.3163 H   0  0  0  1  0  0  0  0  0  0  0  0
    2.5474    4.3021   -3.5727 H   0  0  0  1  0  0  0  0  0  0  0  0
    3.0433    4.2372   -1.8986 H   0  0  0  1  0  0  0  0  0  0  0  0
    2.0052    5.5290   -2.4533 H   0  0  0  1  0  0  0  0  0  0  0  0
   -3.7563    3.4604   -5.5928 H   0  0  0  1  0  0  0  0  0  0  0  0
   -4.0462    1.7529   -5.3627 H   0  0  0  1  0  0  0  0  0  0  0  0
   -3.1543    2.3076   -6.7595 H   0  0  0  1  0  0  0  0  0  0  0  0
   -2.8776    8.7935   -0.0347 I   0  0  0  1  0  0  0  0  0  0  0  0
   -2.3520    6.8084   -0.4236 C   0  0  0  1  0  0  0  0  0  0  0  0
   -1.1021    6.2979   -0.1094 C   0  0  0  1  0  0  0  0  0  0  0  0
   -0.8031    4.9786   -0.3925 C   0  0  0  1  0  0  0  0  0  0  0  0
   -1.7551    4.1643   -0.9858 C   0  0  0  1  0  0  0  0  0  0  0  0
   -3.0014    4.6730   -1.2992 C   0  0  0  1  0  0  0  0  0  0  0  0
   -3.3011    5.9963   -1.0152 C   0  0  0  1  0  0  0  0  0  0  0  0
   -1.3781    2.7292   -1.2681 C   0  0  0  1  0  0  0  0  0  0  0  0
   -0.3893    6.9078    0.3395 H   0  0  0  1  0  0  0  0  0  0  0  0
    0.1360    4.5969   -0.1603 H   0  0  0  1  0  0  0  0  0  0  0  0
   -3.7142    4.0631   -1.7481 H   0  0  0  1  0  0  0  0  0  0  0  0
   -4.2403    6.3781   -1.2473 H   0  0  0  1  0  0  0  0  0  0  0  0
   -0.5669    2.4676   -0.6212 H   0  0  0  1  0  0  0  0  0  0  0  0
   -2.2254    2.1152   -1.0445 H   0  0  0  1  0  0  0  0  0  0  0  0
  1  4  1  0  0  0  0
  2  4  1  0  0  0  0
  2  5  2  0  0  0  0
  2  6  1  0  0  0  0
  3  4  1  0  0  0  0
  3  7  1  0  0  0  0
  3  8  1  0  0  0  0
  4 26  1  0  0  0  0
  6  9  1  0  0  0  0
  6 12  1  0  0  0  0
  8 10  1  0  0  0  0
  8 11  2  0  0  0  0
  9 13  1  0  0  0  0
  9 14  1  0  0  0  0
  9 15  1  0  0  0  0
 10 16  1  0  0  0  0
 10 17  1  0  0  0  0
 10 18  1  0  0  0  0
 19 20  1  0  0  0  0
 20 21  4  0  0  0  0
 20 25  4  0  0  0  0
 21 22  4  0  0  0  0
 21 27  1  0  0  0  0
 22 23  4  0  0  0  0
 22 28  1  0  0  0  0
 23 24  4  0  0  0  0
 23 26  1  0  0  0  0
 24 25  4  0  0  0  0
 24 29  1  0  0  0  0
 25 30  1  0  0  0  0
 26 31  1  0  0  0  0
 26 32  1  0  0  0  0
M  END
> <BCLConfClusterSize>
1

> <ConfClashScore>
0 

> <ConfOneFourInteractionScore>
-0.955611 

> <ConfScore>
-0.143687 

> <ConfScorePBest>
0.00783383 

> <ConfTolerance>
0.202833 

> <RosettaParamsInstructions>
M  ROOT 3
M  POLY_N_BB 3
M  POLY_CA_BB 4
M  POLY_C_BB 2
M  POLY_O_BB 5
M  POLY_IGNORE 9 10 11 12 13 14 15 16 17 18 
M  POLY_UPPER 6
M  POLY_LOWER 8
M  POLY_CHG 0
M  POLY_PROPERTIES ALPHA_AA D_AA PROTEIN AROMATIC POLYMER 
M  END

$$$$



 32 32  0  0  0  0  0  0  0  0999 V2000
   -1.3061    0.8225   -0.3311 H   0  0  0  1  0  0  0  0  0  0  0  0
   -3.2379    1.6503    0.0051 C   0  0  0  1  0  0  0  0  0  0  0  0
   -1.1580    2.3221    1.1048 N   0  0  0  1  0  0  0  0  0  0  0  0
   -1.7261    1.7848   -0.1247 C   0  0  0  1  0  0  0  0  0  0  0  0
   -3.7868    1.6901    1.1054 O   0  0  0  1  0  0  0  0  0  0  0  0
   -3.9300    1.5776   -1.1429 N   0  0  0  1  0  0  0  0  0  0  0  0
   -0.5883    3.1179    1.0544 H   0  0  0  1  0  0  0  0  0  0  0  0
   -1.3868    1.7675    2.2986 C   0  0  0  1  0  0  0  0  0  0  0  0
   -5.3824    1.4911   -1.1162 C   0  0  0  1  0  0  0  0  0  0  0  0
   -0.6740    2.4116    3.4717 C   0  0  0  1  0  0  0  0  0  0  0  0
   -2.1240    0.7977    2.4553 O   0  0  0  1  0  0  0  0  0  0  0  0
   -3.4561    1.5828   -2.0007 H   0  0  0  1  0  0  0  0  0  0  0  0
   -5.6876    0.8554   -0.3114 H   0  0  0  1  0  0  0  0  0  0  0  0
   -5.7324    1.0861   -2.0427 H   0  0  0  1  0  0  0  0  0  0  0  0
   -5.7951    2.4681   -0.9749 H   0  0  0  1  0  0  0  0  0  0  0  0
   -0.8809    3.4614    3.4827 H   0  0  0  1  0  0  0  0  0  0  0  0
    0.3806    2.2572    3.3765 H   0  0  0  1  0  0  0  0  0  0  0  0
   -1.0185    1.9709    4.3838 H   0  0  0  1  0  0  0  0  0  0  0  0
   -2.8298    8.8015   -0.0145 I   0  0  0  1  0  0  0  0  0  0  0  0
   -2.3639    6.8066   -0.4285 C   0  0  0  1  0  0  0  0  0  0  0  0
   -1.1110    6.3063   -0.1102 C   0  0  0  1  0  0  0  0  0  0  0  0
   -0.8016    4.9885   -0.3890 C   0  0  0  1  0  0  0  0  0  0  0  0
   -1.7462    4.1655   -0.9822 C   0  0  0  1  0  0  0  0  0  0  0  0
   -2.9956    4.6641   -1.2997 C   0  0  0  1  0  0  0  0  0  0  0  0
   -3.3057    5.9859   -1.0199 C   0  0  0  1  0  0  0  0  0  0  0  0
   -1.4108    2.7236   -1.2819 C   0  0  0  1  0  0  0  0  0  0  0  0
   -0.4036    6.9227    0.3385 H   0  0  0  1  0  0  0  0  0  0  0  0
    0.1398    4.6143   -0.1538 H   0  0  0  1  0  0  0  0  0  0  0  0
   -3.7029    4.0477   -1.7484 H   0  0  0  1  0  0  0  0  0  0  0  0
   -4.2471    6.3601   -1.2551 H   0  0  0  1  0  0  0  0  0  0  0  0
   -1.9756    2.4130   -2.1360 H   0  0  0  1  0  0  0  0  0  0  0  0
   -0.3657    2.6554   -1.5007 H   0  0  0  1  0  0  0  0  0  0  0  0
  1  4  1  0  0  0  0
  2  4  1  0  0  0  0
  2  5  2  0  0  0  0
  2  6  1  0  0  0  0
  3  4  1  0  0  0  0
  3  7  1  0  0  0  0
  3  8  1  0  0  0  0
  4 26  1  0  0  0  0
  6  9  1  0  0  0  0
  6 12  1  0  0  0  0
  8 10  1  0  0  0  0
  8 11  2  0  0  0  0
  9 13  1  0  0  0  0
  9 14  1  0  0  0  0
  9 15  1  0  0  0  0
 10 16  1  0  0  0  0
 10 17  1  0  0  0  0
 10 18  1  0  0  0  0
 19 20  1  0  0  0  0
 20 21  4  0  0  0  0
 20 25  4  0  0  0  0
 21 22  4  0  0  0  0
 21 27  1  0  0  0  0
 22 23  4  0  0  0  0
 22 28  1  0  0  0  0
 23 24  4  0  0  0  0
 23 26  1  0  0  0  0
 24 25  4  0  0  0  0
 24 29  1  0  0  0  0
 25 30  1  0  0  0  0
 26 31  1  0  0  0  0
 26 32  1  0  0  0  0
M  END
> <BCLConfClusterSize>
1

> <ConfClashScore>
0 

> <ConfOneFourInteractionScore>
-0.95103 

> <ConfScore>
-0.143687 

> <ConfScorePBest>
0.00780535 

> <ConfTolerance>
0.19557 

> <RosettaParamsInstructions>
M  ROOT 3
M  POLY_N_BB 3
M  POLY_CA_BB 4
M  POLY_C_BB 2
M  POLY_O_BB 5
M  POLY_IGNORE 9 10 11 12 13 14 15 16 17 18 
M  POLY_UPPER 6
M  POLY_LOWER 8
M  POLY_CHG 0
M  POLY_PROPERTIES ALPHA_AA D_AA PROTEIN AROMATIC POLYMER 
M  END

$$$$



 32 32  0  0  0  0  0  0  0  0999 V2000
   -0.7583    1.4568   -2.8404 H   0  0  0  1  0  0  0  0  0  0  0  0
    0.4034    3.1985   -3.0316 C   0  0  0  1  0  0  0  0  0  0  0  0
   -1.9333    2.9442   -3.6697 N   0  0  0  1  0  0  0  0  0  0  0  0
   -0.9081    2.5083   -2.7110 C   0  0  0  1  0  0  0  0  0  0  0  0
    0.6383    3.6232   -4.1509 O   0  0  0  1  0  0  0  0  0  0  0  0
    1.2704    3.3057   -2.0123 N   0  0  0  1  0  0  0  0  0  0  0  0
   -2.7657    3.3325   -3.3281 H   0  0  0  1  0  0  0  0  0  0  0  0
   -1.7698    2.8297   -4.9908 C   0  0  0  1  0  0  0  0  0  0  0  0
    2.5965    3.8821   -2.1770 C   0  0  0  1  0  0  0  0  0  0  0  0
   -2.9323    3.3023   -5.8419 C   0  0  0  1  0  0  0  0  0  0  0  0
   -0.7485    2.3724   -5.5022 O   0  0  0  1  0  0  0  0  0  0  0  0
    1.0010    2.9846   -1.1264 H   0  0  0  1  0  0  0  0  0  0  0  0
    3.1102    3.3761   -2.9676 H   0  0  0  1  0  0  0  0  0  0  0  0
    3.1481    3.7732   -1.2666 H   0  0  0  1  0  0  0  0  0  0  0  0
    2.5063    4.9207   -2.4179 H   0  0  0  1  0  0  0  0  0  0  0  0
   -3.7848    2.6824   -5.6580 H   0  0  0  1  0  0  0  0  0  0  0  0
   -2.6644    3.2424   -6.8761 H   0  0  0  1  0  0  0  0  0  0  0  0
   -3.1680    4.3157   -5.5921 H   0  0  0  1  0  0  0  0  0  0  0  0
   -2.7308    8.8123    0.0254 I   0  0  0  1  0  0  0  0  0  0  0  0
   -2.3871    6.8035   -0.4380 C   0  0  0  1  0  0  0  0  0  0  0  0
   -1.1307    6.3149   -0.1150 C   0  0  0  1  0  0  0  0  0  0  0  0
   -0.8095    4.9988   -0.3889 C   0  0  0  1  0  0  0  0  0  0  0  0
   -1.7456    4.1660   -0.9818 C   0  0  0  1  0  0  0  0  0  0  0  0
   -2.9983    4.6530   -1.3040 C   0  0  0  1  0  0  0  0  0  0  0  0
   -3.3204    5.9730   -1.0292 C   0  0  0  1  0  0  0  0  0  0  0  0
   -1.3972    2.7260   -1.2761 C   0  0  0  1  0  0  0  0  0  0  0  0
   -0.4298    6.9386    0.3335 H   0  0  0  1  0  0  0  0  0  0  0  0
    0.1345    4.6334   -0.1502 H   0  0  0  1  0  0  0  0  0  0  0  0
   -3.6993    4.0291   -1.7525 H   0  0  0  1  0  0  0  0  0  0  0  0
   -4.2643    6.3384   -1.2679 H   0  0  0  1  0  0  0  0  0  0  0  0
   -0.6249    2.4180   -0.6026 H   0  0  0  1  0  0  0  0  0  0  0  0
   -2.2688    2.1257   -1.1186 H   0  0  0  1  0  0  0  0  0  0  0  0
  1  4  1  0  0  0  0
  2  4  1  0  0  0  0
  2  5  2  0  0  0  0
  2  6  1  0  0  0  0
  3  4  1  0  0  0  0
  3  7  1  0  0  0  0
  3  8  1  0  0  0  0
  4 26  1  0  0  0  0
  6  9  1  0  0  0  0
  6 12  1  0  0  0  0
  8 10  1  0  0  0  0
  8 11  2  0  0  0  0
  9 13  1  0  0  0  0
  9 14  1  0  0  0  0
  9 15  1  0  0  0  0
 10 16  1  0  0  0  0
 10 17  1  0  0  0  0
 10 18  1  0  0  0  0
 19 20  1  0  0  0  0
 20 21  4  0  0  0  0
 20 25  4  0  0  0  0
 21 22  4  0  0  0  0
 21 27  1  0  0  0  0
 22 23  4  0  0  0  0
 22 28  1  0  0  0  0
 23 24  4  0  0  0  0
 23 26  1  0  0  0  0
 24 25  4  0  0  0  0
 24 29  1  0  0  0  0
 25 30  1  0  0  0  0
 26 31  1  0  0  0  0
 26 32  1  0  0  0  0
M  END
> <BCLConfClusterSize>
1

> <ConfClashScore>
0 

> <ConfOneFourInteractionScore>
-0.949142 

> <ConfScore>
-0.123573 

> <ConfScorePBest>
0.00777687 

> <ConfTolerance>
0.219516 

> <RosettaParamsInstructions>
M  ROOT 3
M  POLY_N_BB 3
M  POLY_CA_BB 4
M  POLY_C_BB 2
M  POLY_O_BB 5
M  POLY_IGNORE 9 10 11 12 13 14 15 16 17 18 
M  POLY_UPPER 6
M  POLY_LOWER 8
M  POLY_CHG 0
M  POLY_PROPERTIES ALPHA_AA D_AA PROTEIN AROMATIC POLYMER 
M  END

$$$$



 32 32  0  0  0  0  0  0  0  0999 V2000
   -2.0029    0.7536   -0.7975 H   0  0  0  1  0  0  0  0  0  0  0  0
   -3.7293    1.7879   -1.4276 C   0  0  0  1  0  0  0  0  0  0  0  0
   -2.6252    2.0004    0.7270 N   0  0  0  1  0  0  0  0  0  0  0  0
   -2.4067    1.7384   -0.6877 C   0  0  0  1  0  0  0  0  0  0  0  0
   -4.7901    1.6126   -0.8340 O   0  0  0  1  0  0  0  0  0  0  0  0
   -3.7051    2.0285   -2.7481 N   0  0  0  1  0  0  0  0  0  0  0  0
   -2.1649    2.7584    1.1442 H   0  0  0  1  0  0  0  0  0  0  0  0
   -3.4314    1.2436    1.4768 C   0  0  0  1  0  0  0  0  0  0  0  0
   -4.9470    2.0419   -3.5129 C   0  0  0  1  0  0  0  0  0  0  0  0
   -3.3959    1.5187    2.9631 C   0  0  0  1  0  0  0  0  0  0  0  0
   -4.1630    0.3737    1.0059 O   0  0  0  1  0  0  0  0  0  0  0  0
   -2.8513    2.1954   -3.1991 H   0  0  0  1  0  0  0  0  0  0  0  0
   -5.7680    2.2451   -2.8574 H   0  0  0  1  0  0  0  0  0  0  0  0
   -5.0896    1.0888   -3.9779 H   0  0  0  1  0  0  0  0  0  0  0  0
   -4.8945    2.8017   -4.2645 H   0  0  0  1  0  0  0  0  0  0  0  0
   -3.1036    2.5342    3.1315 H   0  0  0  1  0  0  0  0  0  0  0  0
   -2.6912    0.8629    3.4302 H   0  0  0  1  0  0  0  0  0  0  0  0
   -4.3677    1.3538    3.3794 H   0  0  0  1  0  0  0  0  0  0  0  0
   -2.7800    8.8079    0.0058 I   0  0  0  1  0  0  0  0  0  0  0  0
   -2.3756    6.8050   -0.4333 C   0  0  0  1  0  0  0  0  0  0  0  0
   -1.1209    6.3106   -0.1126 C   0  0  0  1  0  0  0  0  0  0  0  0
   -0.8055    4.9936   -0.3890 C   0  0  0  1  0  0  0  0  0  0  0  0
   -1.7459    4.1657   -0.9820 C   0  0  0  1  0  0  0  0  0  0  0  0
   -2.9970    4.6584   -1.3019 C   0  0  0  1  0  0  0  0  0  0  0  0
   -3.3131    5.9793   -1.0246 C   0  0  0  1  0  0  0  0  0  0  0  0
   -1.4039    2.7247   -1.2790 C   0  0  0  1  0  0  0  0  0  0  0  0
   -0.4168    6.9307    0.3360 H   0  0  0  1  0  0  0  0  0  0  0  0
    0.1372    4.6239   -0.1520 H   0  0  0  1  0  0  0  0  0  0  0  0
   -3.7011    4.0382   -1.7505 H   0  0  0  1  0  0  0  0  0  0  0  0
   -4.2558    6.3491   -1.2616 H   0  0  0  1  0  0  0  0  0  0  0  0
   -1.3810    2.5919   -2.3405 H   0  0  0  1  0  0  0  0  0  0  0  0
   -0.4374    2.5131   -0.8716 H   0  0  0  1  0  0  0  0  0  0  0  0
  1  4  1  0  0  0  0
  2  4  1  0  0  0  0
  2  5  2  0  0  0  0
  2  6  1  0  0  0  0
  3  4  1  0  0  0  0
  3  7  1  0  0  0  0
  3  8  1  0  0  0  0
  4 26  1  0  0  0  0
  6  9  1  0  0  0  0
  6 12  1  0  0  0  0
  8 10  1  0  0  0  0
  8 11  2  0  0  0  0
  9 13  1  0  0  0  0
  9 14  1  0  0  0  0
  9 15  1  0  0  0  0
 10 16  1  0  0  0  0
 10 17  1  0  0  0  0
 10 18  1  0  0  0  0
 19 20  1  0  0  0  0
 20 21  4  0  0  0  0
 20 25  4  0  0  0  0
 21 22  4  0  0  0  0
 21 27  1  0  0  0  0
 22 23  4  0  0  0  0
 22 28  1  0  0  0  0
 23 24  4  0  0  0  0
 23 26  1  0  0  0  0
 24 25  4  0  0  0  0
 24 29  1  0  0  0  0
 25 30  1  0  0  0  0
 26 31  1  0  0  0  0
 26 32  1  0  0  0  0
M  END
> <BCLConfClusterSize>
1

> <ConfClashScore>
0 

> <ConfOneFourInteractionScore>
-0.95103 

> <ConfScore>
-0.0863426 

> <ConfScorePBest>
0.00774839 

> <ConfTolerance>
0.193326 

> <RosettaParamsInstructions>
M  ROOT 3
M  POLY_N_BB 3
M  POLY_CA_BB 4
M  POLY_C_BB 2
M  POLY_O_BB 5
M  POLY_IGNORE 9 10 11 12 13 14 15 16 17 18 
M  POLY_UPPER 6
M  POLY_LOWER 8
M  POLY_CHG 0
M  POLY_PROPERTIES ALPHA_AA D_AA PROTEIN AROMATIC POLYMER 
M  END

$$$$



 32 32  0  0  0  0  0  0  0  0999 V2000
   -1.1519    0.8887   -0.3310 H   0  0  0  1  0  0  0  0  0  0  0  0
   -3.1320    1.3879    0.0137 C   0  0  0  1  0  0  0  0  0  0  0  0
   -1.1032    2.2641    1.1828 N   0  0  0  1  0  0  0  0  0  0  0  0
   -1.6745    1.7941   -0.1027 C   0  0  0  1  0  0  0  0  0  0  0  0
   -3.5431    0.7606    0.9862 O   0  0  0  1  0  0  0  0  0  0  0  0
   -3.9236    1.7577   -1.0055 N   0  0  0  1  0  0  0  0  0  0  0  0
   -0.6335    3.1241    1.1889 H   0  0  0  1  0  0  0  0  0  0  0  0
   -1.1882    1.5896    2.3329 C   0  0  0  1  0  0  0  0  0  0  0  0
   -5.2922    1.2690   -1.0823 C   0  0  0  1  0  0  0  0  0  0  0  0
   -0.5214    2.2405    3.5291 C   0  0  0  1  0  0  0  0  0  0  0  0
   -1.7662    0.5082    2.4343 O   0  0  0  1  0  0  0  0  0  0  0  0
   -3.5792    2.3581   -1.6992 H   0  0  0  1  0  0  0  0  0  0  0  0
   -5.5624    1.1230   -2.1072 H   0  0  0  1  0  0  0  0  0  0  0  0
   -5.9518    1.9850   -0.6383 H   0  0  0  1  0  0  0  0  0  0  0  0
   -5.3687    0.3395   -0.5577 H   0  0  0  1  0  0  0  0  0  0  0  0
   -0.6533    3.3011    3.4782 H   0  0  0  1  0  0  0  0  0  0  0  0
    0.5236    2.0107    3.5235 H   0  0  0  1  0  0  0  0  0  0  0  0
   -0.9640    1.8691    4.4297 H   0  0  0  1  0  0  0  0  0  0  0  0
   -2.8245    8.8022   -0.0124 I   0  0  0  1  0  0  0  0  0  0  0  0
   -2.3645    6.8064   -0.4288 C   0  0  0  1  0  0  0  0  0  0  0  0
   -1.1127    6.3023   -0.1120 C   0  0  0  1  0  0  0  0  0  0  0  0
   -0.8072    4.9839   -0.3924 C   0  0  0  1  0  0  0  0  0  0  0  0
   -1.7547    4.1642   -0.9857 C   0  0  0  1  0  0  0  0  0  0  0  0
   -3.0029    4.6666   -1.3016 C   0  0  0  1  0  0  0  0  0  0  0  0
   -3.3091    5.9890   -1.0203 C   0  0  0  1  0  0  0  0  0  0  0  0
   -1.3707    2.7303   -1.2650 C   0  0  0  1  0  0  0  0  0  0  0  0
   -0.4033    6.9163    0.3368 H   0  0  0  1  0  0  0  0  0  0  0  0
    0.1333    4.6069   -0.1584 H   0  0  0  1  0  0  0  0  0  0  0  0
   -3.7123    4.0526   -1.7504 H   0  0  0  1  0  0  0  0  0  0  0  0
   -4.2497    6.3660   -1.2543 H   0  0  0  1  0  0  0  0  0  0  0  0
   -1.9126    2.3938   -2.1240 H   0  0  0  1  0  0  0  0  0  0  0  0
   -0.3207    2.6922   -1.4675 H   0  0  0  1  0  0  0  0  0  0  0  0
  1  4  1  0  0  0  0
  2  4  1  0  0  0  0
  2  5  2  0  0  0  0
  2  6  1  0  0  0  0
  3  4  1  0  0  0  0
  3  7  1  0  0  0  0
  3  8  1  0  0  0  0
  4 26  1  0  0  0  0
  6  9  1  0  0  0  0
  6 12  1  0  0  0  0
  8 10  1  0  0  0  0
  8 11  2  0  0  0  0
  9 13  1  0  0  0  0
  9 14  1  0  0  0  0
  9 15  1  0  0  0  0
 10 16  1  0  0  0  0
 10 17  1  0  0  0  0
 10 18  1  0  0  0  0
 19 20  1  0  0  0  0
 20 21  4  0  0  0  0
 20 25  4  0  0  0  0
 21 22  4  0  0  0  0
 21 27  1  0  0  0  0
 22 23  4  0  0  0  0
 22 28  1  0  0  0  0
 23 24  4  0  0  0  0
 23 26  1  0  0  0  0
 24 25  4  0  0  0  0
 24 29  1  0  0  0  0
 25 30  1  0  0  0  0
 26 31  1  0  0  0  0
 26 32  1  0  0  0  0
M  END
> <BCLConfClusterSize>
1

> <ConfClashScore>
0 

> <ConfOneFourInteractionScore>
-0.942828 

> <ConfScore>
-0.0760638 

> <ConfScorePBest>
0.00771991 

> <ConfTolerance>
0.27044 

> <RosettaParamsInstructions>
M  ROOT 3
M  POLY_N_BB 3
M  POLY_CA_BB 4
M  POLY_C_BB 2
M  POLY_O_BB 5
M  POLY_IGNORE 9 10 11 12 13 14 15 16 17 18 
M  POLY_UPPER 6
M  POLY_LOWER 8
M  POLY_CHG 0
M  POLY_PROPERTIES ALPHA_AA D_AA PROTEIN AROMATIC POLYMER 
M  END

$$$$



 32 32  0  0  0  0  0  0  0  0999 V2000
   -1.9175    2.9635   -3.3000 H   0  0  0  1  0  0  0  0  0  0  0  0
   -0.9844    1.0937   -3.2037 C   0  0  0  1  0  0  0  0  0  0  0  0
    0.1104    3.2975   -3.1296 N   0  0  0  1  0  0  0  0  0  0  0  0
   -1.0987    2.5385   -2.7579 C   0  0  0  1  0  0  0  0  0  0  0  0
   -0.3504    0.7849   -4.2119 O   0  0  0  1  0  0  0  0  0  0  0  0
   -1.6139    0.1936   -2.4319 N   0  0  0  1  0  0  0  0  0  0  0  0
    0.0420    4.1755   -3.5594 H   0  0  0  1  0  0  0  0  0  0  0  0
    1.3066    2.7515   -2.8624 C   0  0  0  1  0  0  0  0  0  0  0  0
   -1.6169   -1.2285   -2.7407 C   0  0  0  1  0  0  0  0  0  0  0  0
    2.5463    3.4809   -3.3421 C   0  0  0  1  0  0  0  0  0  0  0  0
    1.3973    1.6921   -2.2476 O   0  0  0  1  0  0  0  0  0  0  0  0
   -2.0879    0.5051   -1.6327 H   0  0  0  1  0  0  0  0  0  0  0  0
   -1.9564   -1.3753   -3.7447 H   0  0  0  1  0  0  0  0  0  0  0  0
   -2.2712   -1.7386   -2.0650 H   0  0  0  1  0  0  0  0  0  0  0  0
   -0.6252   -1.6173   -2.6395 H   0  0  0  1  0  0  0  0  0  0  0  0
    2.2583    4.3677   -3.8670 H   0  0  0  1  0  0  0  0  0  0  0  0
    3.1034    2.8441   -3.9972 H   0  0  0  1  0  0  0  0  0  0  0  0
    3.1521    3.7455   -2.5008 H   0  0  0  1  0  0  0  0  0  0  0  0
   -2.8298    8.8015   -0.0145 I   0  0  0  1  0  0  0  0  0  0  0  0
   -2.3639    6.8066   -0.4285 C   0  0  0  1  0  0  0  0  0  0  0  0
   -1.1110    6.3063   -0.1102 C   0  0  0  1  0  0  0  0  0  0  0  0
   -0.8016    4.9885   -0.3890 C   0  0  0  1  0  0  0  0  0  0  0  0
   -1.7462    4.1655   -0.9822 C   0  0  0  1  0  0  0  0  0  0  0  0
   -2.9956    4.6641   -1.2997 C   0  0  0  1  0  0  0  0  0  0  0  0
   -3.3057    5.9859   -1.0199 C   0  0  0  1  0  0  0  0  0  0  0  0
   -1.4108    2.7236   -1.2819 C   0  0  0  1  0  0  0  0  0  0  0  0
   -0.4036    6.9227    0.3385 H   0  0  0  1  0  0  0  0  0  0  0  0
    0.1398    4.6143   -0.1538 H   0  0  0  1  0  0  0  0  0  0  0  0
   -3.7029    4.0477   -1.7484 H   0  0  0  1  0  0  0  0  0  0  0  0
   -4.2471    6.3601   -1.2551 H   0  0  0  1  0  0  0  0  0  0  0  0
   -0.5580    2.4344   -0.7040 H   0  0  0  1  0  0  0  0  0  0  0  0
   -2.2455    2.1075   -1.0198 H   0  0  0  1  0  0  0  0  0  0  0  0
  1  4  1  0  0  0  0
  2  4  1  0  0  0  0
  2  5  2  0  0  0  0
  2  6  1  0  0  0  0
  3  4  1  0  0  0  0
  3  7  1  0  0  0  0
  3  8  1  0  0  0  0
  4 26  1  0  0  0  0
  6  9  1  0  0  0  0
  6 12  1  0  0  0  0
  8 10  1  0  0  0  0
  8 11  2  0  0  0  0
  9 13  1  0  0  0  0
  9 14  1  0  0  0  0
  9 15  1  0  0  0  0
 10 16  1  0  0  0  0
 10 17  1  0  0  0  0
 10 18  1  0  0  0  0
 19 20  1  0  0  0  0
 20 21  4  0  0  0  0
 20 25  4  0  0  0  0
 21 22  4  0  0  0  0
 21 27  1  0  0  0  0
 22 23  4  0  0  0  0
 22 28  1  0  0  0  0
 23 24  4  0  0  0  0
 23 26  1  0  0  0  0
 24 25  4  0  0  0  0
 24 29  1  0  0  0  0
 25 30  1  0  0  0  0
 26 31  1  0  0  0  0
 26 32  1  0  0  0  0
M  END
> <BCLConfClusterSize>
1

> <ConfClashScore>
0 

> <ConfOneFourInteractionScore>
-0.933935 

> <ConfScore>
-0.0419988 

> <ConfScorePBest>
0.00769143 

> <ConfTolerance>
0.218397 

> <RosettaParamsInstructions>
M  ROOT 3
M  POLY_N_BB 3
M  POLY_CA_BB 4
M  POLY_C_BB 2
M  POLY_O_BB 5
M  POLY_IGNORE 9 10 11 12 13 14 15 16 17 18 
M  POLY_UPPER 6
M  POLY_LOWER 8
M  POLY_CHG 0
M  POLY_PROPERTIES ALPHA_AA D_AA PROTEIN AROMATIC POLYMER 
M  END

$$$$



 32 32  0  0  0  0  0  0  0  0999 V2000
   -1.3620    3.1236   -3.3374 H   0  0  0  1  0  0  0  0  0  0  0  0
   -0.8503    1.1017   -3.1639 C   0  0  0  1  0  0  0  0  0  0  0  0
    0.5739    3.0774   -2.6416 N   0  0  0  1  0  0  0  0  0  0  0  0
   -0.7873    2.5297   -2.6579 C   0  0  0  1  0  0  0  0  0  0  0  0
    0.0698    0.6140   -3.7994 O   0  0  0  1  0  0  0  0  0  0  0  0
   -1.9719    0.4266   -2.8667 N   0  0  0  1  0  0  0  0  0  0  0  0
    0.7433    3.9365   -3.0816 H   0  0  0  1  0  0  0  0  0  0  0  0
    1.5904    2.4455   -2.0480 C   0  0  0  1  0  0  0  0  0  0  0  0
   -2.2374   -0.9068   -3.3857 C   0  0  0  1  0  0  0  0  0  0  0  0
    2.9310    3.1513   -2.1097 C   0  0  0  1  0  0  0  0  0  0  0  0
    1.4659    1.3599   -1.4826 O   0  0  0  1  0  0  0  0  0  0  0  0
   -2.6351    0.8463   -2.2797 H   0  0  0  1  0  0  0  0  0  0  0  0
   -1.7389   -1.0305   -4.3244 H   0  0  0  1  0  0  0  0  0  0  0  0
   -3.2911   -1.0329   -3.5223 H   0  0  0  1  0  0  0  0  0  0  0  0
   -1.8772   -1.6375   -2.6920 H   0  0  0  1  0  0  0  0  0  0  0  0
    2.8393    4.0415   -2.6962 H   0  0  0  1  0  0  0  0  0  0  0  0
    3.6550    2.5028   -2.5570 H   0  0  0  1  0  0  0  0  0  0  0  0
    3.2447    3.4077   -1.1193 H   0  0  0  1  0  0  0  0  0  0  0  0
   -2.8298    8.8015   -0.0145 I   0  0  0  1  0  0  0  0  0  0  0  0
   -2.3639    6.8066   -0.4285 C   0  0  0  1  0  0  0  0  0  0  0  0
   -1.1110    6.3063   -0.1102 C   0  0  0  1  0  0  0  0  0  0  0  0
   -0.8016    4.9885   -0.3890 C   0  0  0  1  0  0  0  0  0  0  0  0
   -1.7462    4.1655   -0.9822 C   0  0  0  1  0  0  0  0  0  0  0  0
   -2.9956    4.6641   -1.2997 C   0  0  0  1  0  0  0  0  0  0  0  0
   -3.3057    5.9859   -1.0199 C   0  0  0  1  0  0  0  0  0  0  0  0
   -1.4108    2.7236   -1.2819 C   0  0  0  1  0  0  0  0  0  0  0  0
   -0.4036    6.9227    0.3385 H   0  0  0  1  0  0  0  0  0  0  0  0
    0.1398    4.6143   -0.1538 H   0  0  0  1  0  0  0  0  0  0  0  0
   -3.7029    4.0477   -1.7484 H   0  0  0  1  0  0  0  0  0  0  0  0
   -4.2471    6.3601   -1.2551 H   0  0  0  1  0  0  0  0  0  0  0  0
   -0.7207    2.3738   -0.5428 H   0  0  0  1  0  0  0  0  0  0  0  0
   -2.3108    2.1470   -1.2315 H   0  0  0  1  0  0  0  0  0  0  0  0
  1  4  1  0  0  0  0
  2  4  1  0  0  0  0
  2  5  2  0  0  0  0
  2  6  1  0  0  0  0
  3  4  1  0  0  0  0
  3  7  1  0  0  0  0
  3  8  1  0  0  0  0
  4 26  1  0  0  0  0
  6  9  1  0  0  0  0
  6 12  1  0  0  0  0
  8 10  1  0  0  0  0
  8 11  2  0  0  0  0
  9 13  1  0  0  0  0
  9 14  1  0  0  0  0
  9 15  1  0  0  0  0
 10 16  1  0  0  0  0
 10 17  1  0  0  0  0
 10 18  1  0  0  0  0
 19 20  1  0  0  0  0
 20 21  4  0  0  0  0
 20 25  4  0  0  0  0
 21 22  4  0  0  0  0
 21 27  1  0  0  0  0
 22 23  4  0  0  0  0
 22 28  1  0  0  0  0
 23 24  4  0  0  0  0
 23 26  1  0  0  0  0
 24 25  4  0  0  0  0
 24 29  1  0  0  0  0
 25 30  1  0  0  0  0
 26 31  1  0  0  0  0
 26 32  1  0  0  0  0
M  END
> <BCLConfClusterSize>
1

> <ConfClashScore>
0 

> <ConfOneFourInteractionScore>
-0.957011 

> <ConfScore>
-0.019262 

> <ConfScorePBest>
0.00766295 

> <ConfTolerance>
0.19191 

> <RosettaParamsInstructions>
M  ROOT 3
M  POLY_N_BB 3
M  POLY_CA_BB 4
M  POLY_C_BB 2
M  POLY_O_BB 5
M  POLY_IGNORE 9 10 11 12 13 14 15 16 17 18 
M  POLY_UPPER 6
M  POLY_LOWER 8
M  POLY_CHG 0
M  POLY_PROPERTIES ALPHA_AA D_AA PROTEIN AROMATIC POLYMER 
M  END

$$$$



 32 32  0  0  0  0  0  0  0  0999 V2000
   -0.3330    1.3629   -2.4362 H   0  0  0  1  0  0  0  0  0  0  0  0
    0.9627    2.9301   -1.9058 C   0  0  0  1  0  0  0  0  0  0  0  0
   -0.7992    2.9737   -3.6292 N   0  0  0  1  0  0  0  0  0  0  0  0
   -0.3997    2.4266   -2.3412 C   0  0  0  1  0  0  0  0  0  0  0  0
    1.7495    3.4182   -2.7127 O   0  0  0  1  0  0  0  0  0  0  0  0
    1.2400    2.8055   -0.5982 N   0  0  0  1  0  0  0  0  0  0  0  0
   -1.6812    3.3927   -3.7120 H   0  0  0  1  0  0  0  0  0  0  0  0
   -0.0053    2.9245   -4.7027 C   0  0  0  1  0  0  0  0  0  0  0  0
    2.5305    3.1782   -0.0383 C   0  0  0  1  0  0  0  0  0  0  0  0
   -0.5669    3.5465   -5.9663 C   0  0  0  1  0  0  0  0  0  0  0  0
    1.1108    2.4123   -4.6860 O   0  0  0  1  0  0  0  0  0  0  0  0
    0.5494    2.4512    0.0000 H   0  0  0  1  0  0  0  0  0  0  0  0
    2.5874    4.2430    0.0500 H   0  0  0  1  0  0  0  0  0  0  0  0
    3.3118    2.8316   -0.6819 H   0  0  0  1  0  0  0  0  0  0  0  0
    2.6410    2.7340    0.9289 H   0  0  0  1  0  0  0  0  0  0  0  0
   -0.1152    3.0883   -6.8212 H   0  0  0  1  0  0  0  0  0  0  0  0
   -0.3563    4.5956   -5.9712 H   0  0  0  1  0  0  0  0  0  0  0  0
   -1.6256    3.3947   -5.9983 H   0  0  0  1  0  0  0  0  0  0  0  0
   -2.8353    8.8006   -0.0169 I   0  0  0  1  0  0  0  0  0  0  0  0
   -2.3632    6.8066   -0.4282 C   0  0  0  1  0  0  0  0  0  0  0  0
   -1.1090    6.3104   -0.1083 C   0  0  0  1  0  0  0  0  0  0  0  0
   -0.7955    4.9932   -0.3854 C   0  0  0  1  0  0  0  0  0  0  0  0
   -1.7371    4.1668   -0.9784 C   0  0  0  1  0  0  0  0  0  0  0  0
   -2.9877    4.6613   -1.2976 C   0  0  0  1  0  0  0  0  0  0  0  0
   -3.3020    5.9825   -1.0196 C   0  0  0  1  0  0  0  0  0  0  0  0
   -1.4543    2.7182   -1.2996 C   0  0  0  1  0  0  0  0  0  0  0  0
   -0.4039    6.9294    0.3404 H   0  0  0  1  0  0  0  0  0  0  0  0
    0.1469    4.6221   -0.1489 H   0  0  0  1  0  0  0  0  0  0  0  0
   -3.6928    4.0423   -1.7462 H   0  0  0  1  0  0  0  0  0  0  0  0
   -4.2443    6.3536   -1.2560 H   0  0  0  1  0  0  0  0  0  0  0  0
   -1.1474    2.2429   -0.3914 H   0  0  0  1  0  0  0  0  0  0  0  0
   -2.3698    2.2811   -1.6398 H   0  0  0  1  0  0  0  0  0  0  0  0
  1  4  1  0  0  0  0
  2  4  1  0  0  0  0
  2  5  2  0  0  0  0
  2  6  1  0  0  0  0
  3  4  1  0  0  0  0
  3  7  1  0  0  0  0
  3  8  1  0  0  0  0
  4 26  1  0  0  0  0
  6  9  1  0  0  0  0
  6 12  1  0  0  0  0
  8 10  1  0  0  0  0
  8 11  2  0  0  0  0
  9 13  1  0  0  0  0
  9 14  1  0  0  0  0
  9 15  1  0  0  0  0
 10 16  1  0  0  0  0
 10 17  1  0  0  0  0
 10 18  1  0  0  0  0
 19 20  1  0  0  0  0
 20 21  4  0  0  0  0
 20 25  4  0  0  0  0
 21 22  4  0  0  0  0
 21 27  1  0  0  0  0
 22 23  4  0  0  0  0
 22 28  1  0  0  0  0
 23 24  4  0  0  0  0
 23 26  1  0  0  0  0
 24 25  4  0  0  0  0
 24 29  1  0  0  0  0
 25 30  1  0  0  0  0
 26 31  1  0  0  0  0
 26 32  1  0  0  0  0
M  END
> <BCLConfClusterSize>
1

> <ConfClashScore>
0 

> <ConfOneFourInteractionScore>
-0.949142 

> <ConfScore>
-0.0179287 

> <ConfScorePBest>
0.00763447 

> <ConfTolerance>
0.312724 

> <RosettaParamsInstructions>
M  ROOT 3
M  POLY_N_BB 3
M  POLY_CA_BB 4
M  POLY_C_BB 2
M  POLY_O_BB 5
M  POLY_IGNORE 9 10 11 12 13 14 15 16 17 18 
M  POLY_UPPER 6
M  POLY_LOWER 8
M  POLY_CHG 0
M  POLY_PROPERTIES ALPHA_AA D_AA PROTEIN AROMATIC POLYMER 
M  END

$$$$



 32 32  0  0  0  0  0  0  0  0999 V2000
   -0.8903    1.4550   -2.8645 H   0  0  0  1  0  0  0  0  0  0  0  0
    0.5113    2.9935   -2.9142 C   0  0  0  1  0  0  0  0  0  0  0  0
   -1.8352    3.0597   -3.7163 N   0  0  0  1  0  0  0  0  0  0  0  0
   -0.9127    2.5138   -2.7113 C   0  0  0  1  0  0  0  0  0  0  0  0
    0.8839    3.4589   -3.9792 O   0  0  0  1  0  0  0  0  0  0  0  0
    1.2878    2.8531   -1.8282 N   0  0  0  1  0  0  0  0  0  0  0  0
   -2.4715    2.4795   -4.1843 H   0  0  0  1  0  0  0  0  0  0  0  0
   -1.7814    4.3824   -3.9766 C   0  0  0  1  0  0  0  0  0  0  0  0
    2.6652    3.3214   -1.7916 C   0  0  0  1  0  0  0  0  0  0  0  0
   -2.6430    4.9223   -5.0956 C   0  0  0  1  0  0  0  0  0  0  0  0
   -1.0539    5.1291   -3.3243 O   0  0  0  1  0  0  0  0  0  0  0  0
    0.9142    2.4202   -1.0324 H   0  0  0  1  0  0  0  0  0  0  0  0
    3.0746    3.3044   -2.7801 H   0  0  0  1  0  0  0  0  0  0  0  0
    3.2421    2.6827   -1.1559 H   0  0  0  1  0  0  0  0  0  0  0  0
    2.6917    4.3215   -1.4121 H   0  0  0  1  0  0  0  0  0  0  0  0
   -2.2817    4.5552   -6.0334 H   0  0  0  1  0  0  0  0  0  0  0  0
   -2.6030    5.9916   -5.0920 H   0  0  0  1  0  0  0  0  0  0  0  0
   -3.6540    4.6023   -4.9531 H   0  0  0  1  0  0  0  0  0  0  0  0
   -2.8353    8.8006   -0.0169 I   0  0  0  1  0  0  0  0  0  0  0  0
   -2.3632    6.8066   -0.4282 C   0  0  0  1  0  0  0  0  0  0  0  0
   -1.1090    6.3104   -0.1083 C   0  0  0  1  0  0  0  0  0  0  0  0
   -0.7955    4.9932   -0.3854 C   0  0  0  1  0  0  0  0  0  0  0  0
   -1.7371    4.1668   -0.9784 C   0  0  0  1  0  0  0  0  0  0  0  0
   -2.9877    4.6613   -1.2976 C   0  0  0  1  0  0  0  0  0  0  0  0
   -3.3020    5.9825   -1.0196 C   0  0  0  1  0  0  0  0  0  0  0  0
   -1.4543    2.7182   -1.2996 C   0  0  0  1  0  0  0  0  0  0  0  0
   -0.4039    6.9294    0.3404 H   0  0  0  1  0  0  0  0  0  0  0  0
    0.1469    4.6221   -0.1489 H   0  0  0  1  0  0  0  0  0  0  0  0
   -3.6928    4.0423   -1.7462 H   0  0  0  1  0  0  0  0  0  0  0  0
   -4.2443    6.3536   -1.2560 H   0  0  0  1  0  0  0  0  0  0  0  0
   -0.7326    2.3492   -0.6012 H   0  0  0  1  0  0  0  0  0  0  0  0
   -2.3638    2.1634   -1.2001 H   0  0  0  1  0  0  0  0  0  0  0  0
  1  4  1  0  0  0  0
  2  4  1  0  0  0  0
  2  5  2  0  0  0  0
  2  6  1  0  0  0  0
  3  4  1  0  0  0  0
  3  7  1  0  0  0  0
  3  8  1  0  0  0  0
  4 26  1  0  0  0  0
  6  9  1  0  0  0  0
  6 12  1  0  0  0  0
  8 10  1  0  0  0  0
  8 11  2  0  0  0  0
  9 13  1  0  0  0  0
  9 14  1  0  0  0  0
  9 15  1  0  0  0  0
 10 16  1  0  0  0  0
 10 17  1  0  0  0  0
 10 18  1  0  0  0  0
 19 20  1  0  0  0  0
 20 21  4  0  0  0  0
 20 25  4  0  0  0  0
 21 22  4  0  0  0  0
 21 27  1  0  0  0  0
 22 23  4  0  0  0  0
 22 28  1  0  0  0  0
 23 24  4  0  0  0  0
 23 26  1  0  0  0  0
 24 25  4  0  0  0  0
 24 29  1  0  0  0  0
 25 30  1  0  0  0  0
 26 31  1  0  0  0  0
 26 32  1  0  0  0  0
M  END
> <BCLConfClusterSize>
1

> <ConfClashScore>
0 

> <ConfOneFourInteractionScore>
-0.951173 

> <ConfScore>
-0.0126263 

> <ConfScorePBest>
0.00760599 

> <ConfTolerance>
0.246982 

> <RosettaParamsInstructions>
M  ROOT 3
M  POLY_N_BB 3
M  POLY_CA_BB 4
M  POLY_C_BB 2
M  POLY_O_BB 5
M  POLY_IGNORE 9 10 11 12 13 14 15 16 17 18 
M  POLY_UPPER 6
M  POLY_LOWER 8
M  POLY_CHG 0
M  POLY_PROPERTIES ALPHA_AA D_AA PROTEIN AROMATIC POLYMER 
M  END

$$$$



 32 32  0  0  0  0  0  0  0  0999 V2000
   -1.1226    1.8721    0.6235 H   0  0  0  1  0  0  0  0  0  0  0  0
   -1.6823    0.2738   -0.6217 C   0  0  0  1  0  0  0  0  0  0  0  0
   -3.1588    1.9890    0.2785 N   0  0  0  1  0  0  0  0  0  0  0  0
   -1.7934    1.7253   -0.1971 C   0  0  0  1  0  0  0  0  0  0  0  0
   -2.2738   -0.6084   -0.0215 O   0  0  0  1  0  0  0  0  0  0  0  0
   -0.9000    0.0359   -1.6863 N   0  0  0  1  0  0  0  0  0  0  0  0
   -3.2850    2.5795    1.0504 H   0  0  0  1  0  0  0  0  0  0  0  0
   -4.2340    1.4516   -0.3047 C   0  0  0  1  0  0  0  0  0  0  0  0
   -0.5850   -1.2848   -2.2102 C   0  0  0  1  0  0  0  0  0  0  0  0
   -5.5552    1.6933    0.3991 C   0  0  0  1  0  0  0  0  0  0  0  0
   -4.1756    0.8005   -1.3445 O   0  0  0  1  0  0  0  0  0  0  0  0
   -0.5119    0.8098   -2.1454 H   0  0  0  1  0  0  0  0  0  0  0  0
   -1.4897   -1.7839   -2.4883 H   0  0  0  1  0  0  0  0  0  0  0  0
   -0.0799   -1.8551   -1.4588 H   0  0  0  1  0  0  0  0  0  0  0  0
    0.0462   -1.1865   -3.0686 H   0  0  0  1  0  0  0  0  0  0  0  0
   -5.4033    2.3543    1.2267 H   0  0  0  1  0  0  0  0  0  0  0  0
   -5.9457    0.7623    0.7536 H   0  0  0  1  0  0  0  0  0  0  0  0
   -6.2488    2.1337   -0.2863 H   0  0  0  1  0  0  0  0  0  0  0  0
   -2.8298    8.8015   -0.0145 I   0  0  0  1  0  0  0  0  0  0  0  0
   -2.3639    6.8066   -0.4285 C   0  0  0  1  0  0  0  0  0  0  0  0
   -1.1110    6.3063   -0.1102 C   0  0  0  1  0  0  0  0  0  0  0  0
   -0.8016    4.9885   -0.3890 C   0  0  0  1  0  0  0  0  0  0  0  0
   -1.7462    4.1655   -0.9822 C   0  0  0  1  0  0  0  0  0  0  0  0
   -2.9956    4.6641   -1.2997 C   0  0  0  1  0  0  0  0  0  0  0  0
   -3.3057    5.9859   -1.0199 C   0  0  0  1  0  0  0  0  0  0  0  0
   -1.4108    2.7236   -1.2819 C   0  0  0  1  0  0  0  0  0  0  0  0
   -0.4036    6.9227    0.3385 H   0  0  0  1  0  0  0  0  0  0  0  0
    0.1398    4.6143   -0.1538 H   0  0  0  1  0  0  0  0  0  0  0  0
   -3.7029    4.0477   -1.7484 H   0  0  0  1  0  0  0  0  0  0  0  0
   -4.2471    6.3601   -1.2551 H   0  0  0  1  0  0  0  0  0  0  0  0
   -1.9208    2.4460   -2.1806 H   0  0  0  1  0  0  0  0  0  0  0  0
   -0.3541    2.6555   -1.4353 H   0  0  0  1  0  0  0  0  0  0  0  0
  1  4  1  0  0  0  0
  2  4  1  0  0  0  0
  2  5  2  0  0  0  0
  2  6  1  0  0  0  0
  3  4  1  0  0  0  0
  3  7  1  0  0  0  0
  3  8  1  0  0  0  0
  4 26  1  0  0  0  0
  6  9  1  0  0  0  0
  6 12  1  0  0  0  0
  8 10  1  0  0  0  0
  8 11  2  0  0  0  0
  9 13  1  0  0  0  0
  9 14  1  0  0  0  0
  9 15  1  0  0  0  0
 10 16  1  0  0  0  0
 10 17  1  0  0  0  0
 10 18  1  0  0  0  0
 19 20  1  0  0  0  0
 20 21  4  0  0  0  0
 20 25  4  0  0  0  0
 21 22  4  0  0  0  0
 21 27  1  0  0  0  0
 22 23  4  0  0  0  0
 22 28  1  0  0  0  0
 23 24  4  0  0  0  0
 23 26  1  0  0  0  0
 24 25  4  0  0  0  0
 24 29  1  0  0  0  0
 25 30  1  0  0  0  0
 26 31  1  0  0  0  0
 26 32  1  0  0  0  0
M  END
> <BCLConfClusterSize>
1

> <ConfClashScore>
0 

> <ConfOneFourInteractionScore>
-0.935823 

> <ConfScore>
-0.00482723 

> <ConfScorePBest>
0.00757751 

> <ConfTolerance>
0.251981 

> <RosettaParamsInstructions>
M  ROOT 3
M  POLY_N_BB 3
M  POLY_CA_BB 4
M  POLY_C_BB 2
M  POLY_O_BB 5
M  POLY_IGNORE 9 10 11 12 13 14 15 16 17 18 
M  POLY_UPPER 6
M  POLY_LOWER 8
M  POLY_CHG 0
M  POLY_PROPERTIES ALPHA_AA D_AA PROTEIN AROMATIC POLYMER 
M  END

$$$$



 32 32  0  0  0  0  0  0  0  0999 V2000
   -1.2178    2.8404   -3.3820 H   0  0  0  1  0  0  0  0  0  0  0  0
   -0.3733    1.0078   -2.7599 C   0  0  0  1  0  0  0  0  0  0  0  0
    0.6165    3.2461   -2.5173 N   0  0  0  1  0  0  0  0  0  0  0  0
   -0.6260    2.4898   -2.5624 C   0  0  0  1  0  0  0  0  0  0  0  0
    0.7221    0.5913   -3.1344 O   0  0  0  1  0  0  0  0  0  0  0  0
   -1.4132    0.1993   -2.5009 N   0  0  0  1  0  0  0  0  0  0  0  0
    0.6743    4.0907   -3.0109 H   0  0  0  1  0  0  0  0  0  0  0  0
    1.6812    2.8290   -1.8263 C   0  0  0  1  0  0  0  0  0  0  0  0
   -1.2928   -1.2542   -2.5170 C   0  0  0  1  0  0  0  0  0  0  0  0
    2.9045    3.7220   -1.8983 C   0  0  0  1  0  0  0  0  0  0  0  0
    1.6874    1.7914   -1.1691 O   0  0  0  1  0  0  0  0  0  0  0  0
   -2.2834    0.5996   -2.2938 H   0  0  0  1  0  0  0  0  0  0  0  0
   -2.1802   -1.6906   -2.1082 H   0  0  0  1  0  0  0  0  0  0  0  0
   -0.4479   -1.5484   -1.9301 H   0  0  0  1  0  0  0  0  0  0  0  0
   -1.1622   -1.5899   -3.5246 H   0  0  0  1  0  0  0  0  0  0  0  0
    2.6910    4.6589   -1.4275 H   0  0  0  1  0  0  0  0  0  0  0  0
    3.1641    3.8890   -2.9228 H   0  0  0  1  0  0  0  0  0  0  0  0
    3.7216    3.2485   -1.3954 H   0  0  0  1  0  0  0  0  0  0  0  0
   -2.8298    8.8015   -0.0145 I   0  0  0  1  0  0  0  0  0  0  0  0
   -2.3639    6.8066   -0.4285 C   0  0  0  1  0  0  0  0  0  0  0  0
   -1.1110    6.3063   -0.1102 C   0  0  0  1  0  0  0  0  0  0  0  0
   -0.8016    4.9885   -0.3890 C   0  0  0  1  0  0  0  0  0  0  0  0
   -1.7462    4.1655   -0.9822 C   0  0  0  1  0  0  0  0  0  0  0  0
   -2.9956    4.6641   -1.2997 C   0  0  0  1  0  0  0  0  0  0  0  0
   -3.3057    5.9859   -1.0199 C   0  0  0  1  0  0  0  0  0  0  0  0
   -1.4108    2.7236   -1.2819 C   0  0  0  1  0  0  0  0  0  0  0  0
   -0.4036    6.9227    0.3385 H   0  0  0  1  0  0  0  0  0  0  0  0
    0.1398    4.6143   -0.1538 H   0  0  0  1  0  0  0  0  0  0  0  0
   -3.7029    4.0477   -1.7484 H   0  0  0  1  0  0  0  0  0  0  0  0
   -4.2471    6.3601   -1.2551 H   0  0  0  1  0  0  0  0  0  0  0  0
   -0.8325    2.3428   -0.4661 H   0  0  0  1  0  0  0  0  0  0  0  0
   -2.3292    2.1791   -1.3535 H   0  0  0  1  0  0  0  0  0  0  0  0
  1  4  1  0  0  0  0
  2  4  1  0  0  0  0
  2  5  2  0  0  0  0
  2  6  1  0  0  0  0
  3  4  1  0  0  0  0
  3  7  1  0  0  0  0
  3  8  1  0  0  0  0
  4 26  1  0  0  0  0
  6  9  1  0  0  0  0
  6 12  1  0  0  0  0
  8 10  1  0  0  0  0
  8 11  2  0  0  0  0
  9 13  1  0  0  0  0
  9 14  1  0  0  0  0
  9 15  1  0  0  0  0
 10 16  1  0  0  0  0
 10 17  1  0  0  0  0
 10 18  1  0  0  0  0
 19 20  1  0  0  0  0
 20 21  4  0  0  0  0
 20 25  4  0  0  0  0
 21 22  4  0  0  0  0
 21 27  1  0  0  0  0
 22 23  4  0  0  0  0
 22 28  1  0  0  0  0
 23 24  4  0  0  0  0
 23 26  1  0  0  0  0
 24 25  4  0  0  0  0
 24 29  1  0  0  0  0
 25 30  1  0  0  0  0
 26 31  1  0  0  0  0
 26 32  1  0  0  0  0
M  END
> <BCLConfClusterSize>
1

> <ConfClashScore>
0 

> <ConfOneFourInteractionScore>
-0.960887 

> <ConfScore>
-0.00145481 

> <ConfScorePBest>
0.00754903 

> <ConfTolerance>
0.225526 

> <RosettaParamsInstructions>
M  ROOT 3
M  POLY_N_BB 3
M  POLY_CA_BB 4
M  POLY_C_BB 2
M  POLY_O_BB 5
M  POLY_IGNORE 9 10 11 12 13 14 15 16 17 18 
M  POLY_UPPER 6
M  POLY_LOWER 8
M  POLY_CHG 0
M  POLY_PROPERTIES ALPHA_AA D_AA PROTEIN AROMATIC POLYMER 
M  END

$$$$



 32 32  0  0  0  0  0  0  0  0999 V2000
   -1.1121    0.9099   -0.2558 H   0  0  0  1  0  0  0  0  0  0  0  0
   -2.7529    1.8125    0.6926 C   0  0  0  1  0  0  0  0  0  0  0  0
   -0.3696    2.4003    0.9620 N   0  0  0  1  0  0  0  0  0  0  0  0
   -1.3888    1.9071    0.0163 C   0  0  0  1  0  0  0  0  0  0  0  0
   -2.8276    1.4988    1.8697 O   0  0  0  1  0  0  0  0  0  0  0  0
   -3.8167    2.1703   -0.0405 N   0  0  0  1  0  0  0  0  0  0  0  0
    0.5770    2.2475    0.7593 H   0  0  0  1  0  0  0  0  0  0  0  0
   -0.6935    3.0509    2.0898 C   0  0  0  1  0  0  0  0  0  0  0  0
   -5.1518    2.2788    0.5283 C   0  0  0  1  0  0  0  0  0  0  0  0
    0.4564    3.1820    3.0694 C   0  0  0  1  0  0  0  0  0  0  0  0
   -1.8056    3.5095    2.3375 O   0  0  0  1  0  0  0  0  0  0  0  0
   -3.6909    2.3656   -0.9926 H   0  0  0  1  0  0  0  0  0  0  0  0
   -5.6177    3.1758    0.1774 H   0  0  0  1  0  0  0  0  0  0  0  0
   -5.0832    2.3069    1.5957 H   0  0  0  1  0  0  0  0  0  0  0  0
   -5.7360    1.4335    0.2300 H   0  0  0  1  0  0  0  0  0  0  0  0
    0.2853    4.0213    3.7108 H   0  0  0  1  0  0  0  0  0  0  0  0
    1.3694    3.3257    2.5302 H   0  0  0  1  0  0  0  0  0  0  0  0
    0.5260    2.2915    3.6586 H   0  0  0  1  0  0  0  0  0  0  0  0
   -2.8245    8.8022   -0.0124 I   0  0  0  1  0  0  0  0  0  0  0  0
   -2.3645    6.8064   -0.4288 C   0  0  0  1  0  0  0  0  0  0  0  0
   -1.1127    6.3023   -0.1120 C   0  0  0  1  0  0  0  0  0  0  0  0
   -0.8072    4.9839   -0.3924 C   0  0  0  1  0  0  0  0  0  0  0  0
   -1.7547    4.1642   -0.9857 C   0  0  0  1  0  0  0  0  0  0  0  0
   -3.0029    4.6666   -1.3016 C   0  0  0  1  0  0  0  0  0  0  0  0
   -3.3091    5.9890   -1.0203 C   0  0  0  1  0  0  0  0  0  0  0  0
   -1.3707    2.7303   -1.2650 C   0  0  0  1  0  0  0  0  0  0  0  0
   -0.4033    6.9163    0.3368 H   0  0  0  1  0  0  0  0  0  0  0  0
    0.1333    4.6069   -0.1584 H   0  0  0  1  0  0  0  0  0  0  0  0
   -3.7123    4.0526   -1.7504 H   0  0  0  1  0  0  0  0  0  0  0  0
   -4.2497    6.3660   -1.2543 H   0  0  0  1  0  0  0  0  0  0  0  0
   -2.0657    2.3104   -1.9617 H   0  0  0  1  0  0  0  0  0  0  0  0
   -0.3863    2.7060   -1.6837 H   0  0  0  1  0  0  0  0  0  0  0  0
  1  4  1  0  0  0  0
  2  4  1  0  0  0  0
  2  5  2  0  0  0  0
  2  6  1  0  0  0  0
  3  4  1  0  0  0  0
  3  7  1  0  0  0  0
  3  8  1  0  0  0  0
  4 26  1  0  0  0  0
  6  9  1  0  0  0  0
  6 12  1  0  0  0  0
  8 10  1  0  0  0  0
  8 11  2  0  0  0  0
  9 13  1  0  0  0  0
  9 14  1  0  0  0  0
  9 15  1  0  0  0  0
 10 16  1  0  0  0  0
 10 17  1  0  0  0  0
 10 18  1  0  0  0  0
 19 20  1  0  0  0  0
 20 21  4  0  0  0  0
 20 25  4  0  0  0  0
 21 22  4  0  0  0  0
 21 27  1  0  0  0  0
 22 23  4  0  0  0  0
 22 28  1  0  0  0  0
 23 24  4  0  0  0  0
 23 26  1  0  0  0  0
 24 25  4  0  0  0  0
 24 29  1  0  0  0  0
 25 30  1  0  0  0  0
 26 31  1  0  0  0  0
 26 32  1  0  0  0  0
M  END
> <BCLConfClusterSize>
1

> <ConfClashScore>
0.00074694 

> <ConfOneFourInteractionScore>
-0.917173 

> <ConfScore>
0.00463494 

> <ConfScorePBest>
0.00752055 

> <ConfTolerance>
0.204916 

> <RosettaParamsInstructions>
M  ROOT 3
M  POLY_N_BB 3
M  POLY_CA_BB 4
M  POLY_C_BB 2
M  POLY_O_BB 5
M  POLY_IGNORE 9 10 11 12 13 14 15 16 17 18 
M  POLY_UPPER 6
M  POLY_LOWER 8
M  POLY_CHG 0
M  POLY_PROPERTIES ALPHA_AA D_AA PROTEIN AROMATIC POLYMER 
M  END

$$$$



 32 32  0  0  0  0  0  0  0  0999 V2000
   -2.6912    1.8933    0.1707 H   0  0  0  1  0  0  0  0  0  0  0  0
   -0.7873    1.9269    1.0606 C   0  0  0  1  0  0  0  0  0  0  0  0
   -1.5613    0.3594   -0.6353 N   0  0  0  1  0  0  0  0  0  0  0  0
   -1.6816    1.7414   -0.1497 C   0  0  0  1  0  0  0  0  0  0  0  0
   -1.0828    1.4516    2.1453 O   0  0  0  1  0  0  0  0  0  0  0  0
    0.3321    2.6388    0.8550 N   0  0  0  1  0  0  0  0  0  0  0  0
   -1.3004    0.1885   -1.5643 H   0  0  0  1  0  0  0  0  0  0  0  0
   -1.8093   -0.6745    0.1953 C   0  0  0  1  0  0  0  0  0  0  0  0
    1.2274    2.9296    1.9649 C   0  0  0  1  0  0  0  0  0  0  0  0
   -1.7652   -2.0482   -0.4345 C   0  0  0  1  0  0  0  0  0  0  0  0
   -2.0573   -0.5282    1.3915 O   0  0  0  1  0  0  0  0  0  0  0  0
    0.5469    2.9634   -0.0444 H   0  0  0  1  0  0  0  0  0  0  0  0
    1.7372    3.8520    1.7803 H   0  0  0  1  0  0  0  0  0  0  0  0
    1.9430    2.1400    2.0618 H   0  0  0  1  0  0  0  0  0  0  0  0
    0.6601    3.0105    2.8686 H   0  0  0  1  0  0  0  0  0  0  0  0
   -2.1152   -1.9897   -1.4440 H   0  0  0  1  0  0  0  0  0  0  0  0
   -2.3903   -2.7154    0.1213 H   0  0  0  1  0  0  0  0  0  0  0  0
   -0.7589   -2.4118   -0.4267 H   0  0  0  1  0  0  0  0  0  0  0  0
   -2.8298    8.8015   -0.0145 I   0  0  0  1  0  0  0  0  0  0  0  0
   -2.3639    6.8066   -0.4285 C   0  0  0  1  0  0  0  0  0  0  0  0
   -1.1110    6.3063   -0.1102 C   0  0  0  1  0  0  0  0  0  0  0  0
   -0.8016    4.9885   -0.3890 C   0  0  0  1  0  0  0  0  0  0  0  0
   -1.7462    4.1655   -0.9822 C   0  0  0  1  0  0  0  0  0  0  0  0
   -2.9956    4.6641   -1.2997 C   0  0  0  1  0  0  0  0  0  0  0  0
   -3.3057    5.9859   -1.0199 C   0  0  0  1  0  0  0  0  0  0  0  0
   -1.4108    2.7236   -1.2819 C   0  0  0  1  0  0  0  0  0  0  0  0
   -0.4036    6.9227    0.3385 H   0  0  0  1  0  0  0  0  0  0  0  0
    0.1398    4.6143   -0.1538 H   0  0  0  1  0  0  0  0  0  0  0  0
   -3.7029    4.0477   -1.7484 H   0  0  0  1  0  0  0  0  0  0  0  0
   -4.2471    6.3601   -1.2551 H   0  0  0  1  0  0  0  0  0  0  0  0
   -1.9899    2.4191   -2.1286 H   0  0  0  1  0  0  0  0  0  0  0  0
   -0.3698    2.6702   -1.5233 H   0  0  0  1  0  0  0  0  0  0  0  0
  1  4  1  0  0  0  0
  2  4  1  0  0  0  0
  2  5  2  0  0  0  0
  2  6  1  0  0  0  0
  3  4  1  0  0  0  0
  3  7  1  0  0  0  0
  3  8  1  0  0  0  0
  4 26  1  0  0  0  0
  6  9  1  0  0  0  0
  6 12  1  0  0  0  0
  8 10  1  0  0  0  0
  8 11  2  0  0  0  0
  9 13  1  0  0  0  0
  9 14  1  0  0  0  0
  9 15  1  0  0  0  0
 10 16  1  0  0  0  0
 10 17  1  0  0  0  0
 10 18  1  0  0  0  0
 19 20  1  0  0  0  0
 20 21  4  0  0  0  0
 20 25  4  0  0  0  0
 21 22  4  0  0  0  0
 21 27  1  0  0  0  0
 22 23  4  0  0  0  0
 22 28  1  0  0  0  0
 23 24  4  0  0  0  0
 23 26  1  0  0  0  0
 24 25  4  0  0  0  0
 24 29  1  0  0  0  0
 25 30  1  0  0  0  0
 26 31  1  0  0  0  0
 26 32  1  0  0  0  0
M  END
> <BCLConfClusterSize>
1

> <ConfClashScore>
0 

> <ConfOneFourInteractionScore>
-0.952541 

> <ConfScore>
0.0378252 

> <ConfScorePBest>
0.00749207 

> <ConfTolerance>
0.285019 

> <RosettaParamsInstructions>
M  ROOT 3
M  POLY_N_BB 3
M  POLY_CA_BB 4
M  POLY_C_BB 2
M  POLY_O_BB 5
M  POLY_IGNORE 9 10 11 12 13 14 15 16 17 18 
M  POLY_UPPER 6
M  POLY_LOWER 8
M  POLY_CHG 0
M  POLY_PROPERTIES ALPHA_AA D_AA PROTEIN AROMATIC POLYMER 
M  END

$$$$



 32 32  0  0  0  0  0  0  0  0999 V2000
   -0.5407    1.6392   -2.8747 H   0  0  0  1  0  0  0  0  0  0  0  0
    0.7838    3.2164   -2.4230 C   0  0  0  1  0  0  0  0  0  0  0  0
   -1.4104    3.3722   -3.5851 N   0  0  0  1  0  0  0  0  0  0  0  0
   -0.6198    2.6668   -2.5875 C   0  0  0  1  0  0  0  0  0  0  0  0
    1.6888    2.5115   -1.9841 O   0  0  0  1  0  0  0  0  0  0  0  0
    1.0063    4.4937   -2.7709 N   0  0  0  1  0  0  0  0  0  0  0  0
   -1.0568    4.2018   -3.9687 H   0  0  0  1  0  0  0  0  0  0  0  0
   -2.6015    2.9281   -3.9963 C   0  0  0  1  0  0  0  0  0  0  0  0
    2.3526    5.0431   -2.7124 C   0  0  0  1  0  0  0  0  0  0  0  0
   -3.4012    3.8874   -4.8563 C   0  0  0  1  0  0  0  0  0  0  0  0
   -3.0374    1.8171   -3.7065 O   0  0  0  1  0  0  0  0  0  0  0  0
    0.2605    5.0574   -3.0650 H   0  0  0  1  0  0  0  0  0  0  0  0
    2.6732    5.0951   -1.6929 H   0  0  0  1  0  0  0  0  0  0  0  0
    2.3556    6.0250   -3.1375 H   0  0  0  1  0  0  0  0  0  0  0  0
    3.0189    4.4131   -3.2639 H   0  0  0  1  0  0  0  0  0  0  0  0
   -3.6366    4.7638   -4.2894 H   0  0  0  1  0  0  0  0  0  0  0  0
   -4.3069    3.4129   -5.1717 H   0  0  0  1  0  0  0  0  0  0  0  0
   -2.8243    4.1623   -5.7145 H   0  0  0  1  0  0  0  0  0  0  0  0
   -2.8828    8.7926   -0.0369 I   0  0  0  1  0  0  0  0  0  0  0  0
   -2.3514    6.8085   -0.4233 C   0  0  0  1  0  0  0  0  0  0  0  0
   -1.1003    6.3019   -0.1075 C   0  0  0  1  0  0  0  0  0  0  0  0
   -0.7974    4.9832   -0.3890 C   0  0  0  1  0  0  0  0  0  0  0  0
   -1.7466    4.1656   -0.9823 C   0  0  0  1  0  0  0  0  0  0  0  0
   -2.9941    4.6705   -1.2972 C   0  0  0  1  0  0  0  0  0  0  0  0
   -3.2978    5.9932   -1.0148 C   0  0  0  1  0  0  0  0  0  0  0  0
   -1.4183    2.7226   -1.2849 C   0  0  0  1  0  0  0  0  0  0  0  0
   -0.3895    6.9143    0.3413 H   0  0  0  1  0  0  0  0  0  0  0  0
    0.1426    4.6042   -0.1557 H   0  0  0  1  0  0  0  0  0  0  0  0
   -3.7049    4.0581   -1.7460 H   0  0  0  1  0  0  0  0  0  0  0  0
   -4.2378    6.3722   -1.2481 H   0  0  0  1  0  0  0  0  0  0  0  0
   -0.8360    2.3107   -0.4874 H   0  0  0  1  0  0  0  0  0  0  0  0
   -2.3234    2.1622   -1.3928 H   0  0  0  1  0  0  0  0  0  0  0  0
  1  4  1  0  0  0  0
  2  4  1  0  0  0  0
  2  5  2  0  0  0  0
  2  6  1  0  0  0  0
  3  4  1  0  0  0  0
  3  7  1  0  0  0  0
  3  8  1  0  0  0  0
  4 26  1  0  0  0  0
  6  9  1  0  0  0  0
  6 12  1  0  0  0  0
  8 10  1  0  0  0  0
  8 11  2  0  0  0  0
  9 13  1  0  0  0  0
  9 14  1  0  0  0  0
  9 15  1  0  0  0  0
 10 16  1  0  0  0  0
 10 17  1  0  0  0  0
 10 18  1  0  0  0  0
 19 20  1  0  0  0  0
 20 21  4  0  0  0  0
 20 25  4  0  0  0  0
 21 22  4  0  0  0  0
 21 27  1  0  0  0  0
 22 23  4  0  0  0  0
 22 28  1  0  0  0  0
 23 24  4  0  0  0  0
 23 26  1  0  0  0  0
 24 25  4  0  0  0  0
 24 29  1  0  0  0  0
 25 30  1  0  0  0  0
 26 31  1  0  0  0  0
 26 32  1  0  0  0  0
M  END
> <BCLConfClusterSize>
1

> <ConfClashScore>
0 

> <ConfOneFourInteractionScore>
-0.952634 

> <ConfScore>
0.0594262 

> <ConfScorePBest>
0.00746359 

> <ConfTolerance>
0.260672 

> <RosettaParamsInstructions>
M  ROOT 3
M  POLY_N_BB 3
M  POLY_CA_BB 4
M  POLY_C_BB 2
M  POLY_O_BB 5
M  POLY_IGNORE 9 10 11 12 13 14 15 16 17 18 
M  POLY_UPPER 6
M  POLY_LOWER 8
M  POLY_CHG 0
M  POLY_PROPERTIES ALPHA_AA D_AA PROTEIN AROMATIC POLYMER 
M  END

$$$$



 32 32  0  0  0  0  0  0  0  0999 V2000
   -0.7574    1.4715   -2.8607 H   0  0  0  1  0  0  0  0  0  0  0  0
   -0.0518    3.4372   -3.2105 C   0  0  0  1  0  0  0  0  0  0  0  0
   -2.3673    2.5964   -3.4993 N   0  0  0  1  0  0  0  0  0  0  0  0
   -1.1324    2.4681   -2.7555 C   0  0  0  1  0  0  0  0  0  0  0  0
   -0.1716    3.9486   -4.3230 O   0  0  0  1  0  0  0  0  0  0  0  0
    0.9474    3.6536   -2.3537 N   0  0  0  1  0  0  0  0  0  0  0  0
   -2.8882    1.7814   -3.6568 H   0  0  0  1  0  0  0  0  0  0  0  0
   -2.8689    3.7857   -4.0058 C   0  0  0  1  0  0  0  0  0  0  0  0
    2.0887    4.4929   -2.6865 C   0  0  0  1  0  0  0  0  0  0  0  0
   -4.1630    3.7661   -4.7699 C   0  0  0  1  0  0  0  0  0  0  0  0
   -2.2487    4.7987   -3.8161 O   0  0  0  1  0  0  0  0  0  0  0  0
    0.9117    3.2327   -1.4694 H   0  0  0  1  0  0  0  0  0  0  0  0
    2.9505    4.1525   -2.1514 H   0  0  0  1  0  0  0  0  0  0  0  0
    1.8775    5.5060   -2.4145 H   0  0  0  1  0  0  0  0  0  0  0  0
    2.2774    4.4374   -3.7383 H   0  0  0  1  0  0  0  0  0  0  0  0
   -4.9101    3.2611   -4.1940 H   0  0  0  1  0  0  0  0  0  0  0  0
   -4.0211    3.2530   -5.6980 H   0  0  0  1  0  0  0  0  0  0  0  0
   -4.4790    4.7702   -4.9615 H   0  0  0  1  0  0  0  0  0  0  0  0
   -2.7800    8.8079    0.0058 I   0  0  0  1  0  0  0  0  0  0  0  0
   -2.3756    6.8050   -0.4333 C   0  0  0  1  0  0  0  0  0  0  0  0
   -1.1209    6.3106   -0.1126 C   0  0  0  1  0  0  0  0  0  0  0  0
   -0.8055    4.9936   -0.3890 C   0  0  0  1  0  0  0  0  0  0  0  0
   -1.7459    4.1657   -0.9820 C   0  0  0  1  0  0  0  0  0  0  0  0
   -2.9970    4.6584   -1.3019 C   0  0  0  1  0  0  0  0  0  0  0  0
   -3.3131    5.9793   -1.0246 C   0  0  0  1  0  0  0  0  0  0  0  0
   -1.4039    2.7247   -1.2790 C   0  0  0  1  0  0  0  0  0  0  0  0
   -0.4168    6.9307    0.3360 H   0  0  0  1  0  0  0  0  0  0  0  0
    0.1372    4.6239   -0.1520 H   0  0  0  1  0  0  0  0  0  0  0  0
   -3.7011    4.0382   -1.7505 H   0  0  0  1  0  0  0  0  0  0  0  0
   -4.2558    6.3491   -1.2616 H   0  0  0  1  0  0  0  0  0  0  0  0
   -0.5301    2.4601   -0.7210 H   0  0  0  1  0  0  0  0  0  0  0  0
   -2.2238    2.1098   -0.9716 H   0  0  0  1  0  0  0  0  0  0  0  0
  1  4  1  0  0  0  0
  2  4  1  0  0  0  0
  2  5  2  0  0  0  0
  2  6  1  0  0  0  0
  3  4  1  0  0  0  0
  3  7  1  0  0  0  0
  3  8  1  0  0  0  0
  4 26  1  0  0  0  0
  6  9  1  0  0  0  0
  6 12  1  0  0  0  0
  8 10  1  0  0  0  0
  8 11  2  0  0  0  0
  9 13  1  0  0  0  0
  9 14  1  0  0  0  0
  9 15  1  0  0  0  0
 10 16  1  0  0  0  0
 10 17  1  0  0  0  0
 10 18  1  0  0  0  0
 19 20  1  0  0  0  0
 20 21  4  0  0  0  0
 20 25  4  0  0  0  0
 21 22  4  0  0  0  0
 21 27  1  0  0  0  0
 22 23  4  0  0  0  0
 22 28  1  0  0  0  0
 23 24  4  0  0  0  0
 23 26  1  0  0  0  0
 24 25  4  0  0  0  0
 24 29  1  0  0  0  0
 25 30  1  0  0  0  0
 26 31  1  0  0  0  0
 26 32  1  0  0  0  0
M  END
> <BCLConfClusterSize>
1

> <ConfClashScore>
0 

> <ConfOneFourInteractionScore>
-0.930691 

> <ConfScore>
0.0605174 

> <ConfScorePBest>
0.0074351 

> <ConfTolerance>
0.344471 

> <RosettaParamsInstructions>
M  ROOT 3
M  POLY_N_BB 3
M  POLY_CA_BB 4
M  POLY_C_BB 2
M  POLY_O_BB 5
M  POLY_IGNORE 9 10 11 12 13 14 15 16 17 18 
M  POLY_UPPER 6
M  POLY_LOWER 8
M  POLY_CHG 0
M  POLY_PROPERTIES ALPHA_AA D_AA PROTEIN AROMATIC POLYMER 
M  END

$$$$



 32 32  0  0  0  0  0  0  0  0999 V2000
   -1.7084    2.9827   -3.3506 H   0  0  0  1  0  0  0  0  0  0  0  0
   -0.9973    1.0226   -3.0838 C   0  0  0  1  0  0  0  0  0  0  0  0
    0.3093    3.1101   -2.9727 N   0  0  0  1  0  0  0  0  0  0  0  0
   -0.9866    2.4977   -2.7271 C   0  0  0  1  0  0  0  0  0  0  0  0
   -1.9979    0.3415   -2.9306 O   0  0  0  1  0  0  0  0  0  0  0  0
    0.1566    0.5306   -3.5724 N   0  0  0  1  0  0  0  0  0  0  0  0
    0.9850    3.1259   -2.2631 H   0  0  0  1  0  0  0  0  0  0  0  0
    0.5833    3.6565   -4.1755 C   0  0  0  1  0  0  0  0  0  0  0  0
    0.2491   -0.8699   -3.9570 C   0  0  0  1  0  0  0  0  0  0  0  0
    1.8650    4.4541   -4.2579 C   0  0  0  1  0  0  0  0  0  0  0  0
   -0.1509    3.5250   -5.1539 O   0  0  0  1  0  0  0  0  0  0  0  0
    0.9360    1.1168   -3.6692 H   0  0  0  1  0  0  0  0  0  0  0  0
   -0.4572   -1.0742   -4.7343 H   0  0  0  1  0  0  0  0  0  0  0  0
    0.0351   -1.4871   -3.1096 H   0  0  0  1  0  0  0  0  0  0  0  0
    1.2376   -1.0780   -4.3099 H   0  0  0  1  0  0  0  0  0  0  0  0
    1.8231    5.2699   -3.5667 H   0  0  0  1  0  0  0  0  0  0  0  0
    1.9851    4.8342   -5.2509 H   0  0  0  1  0  0  0  0  0  0  0  0
    2.6939    3.8229   -4.0143 H   0  0  0  1  0  0  0  0  0  0  0  0
   -2.8298    8.8015   -0.0145 I   0  0  0  1  0  0  0  0  0  0  0  0
   -2.3639    6.8066   -0.4285 C   0  0  0  1  0  0  0  0  0  0  0  0
   -1.1110    6.3063   -0.1102 C   0  0  0  1  0  0  0  0  0  0  0  0
   -0.8016    4.9885   -0.3890 C   0  0  0  1  0  0  0  0  0  0  0  0
   -1.7462    4.1655   -0.9822 C   0  0  0  1  0  0  0  0  0  0  0  0
   -2.9956    4.6641   -1.2997 C   0  0  0  1  0  0  0  0  0  0  0  0
   -3.3057    5.9859   -1.0199 C   0  0  0  1  0  0  0  0  0  0  0  0
   -1.4108    2.7236   -1.2819 C   0  0  0  1  0  0  0  0  0  0  0  0
   -0.4036    6.9227    0.3385 H   0  0  0  1  0  0  0  0  0  0  0  0
    0.1398    4.6143   -0.1538 H   0  0  0  1  0  0  0  0  0  0  0  0
   -3.7029    4.0477   -1.7484 H   0  0  0  1  0  0  0  0  0  0  0  0
   -4.2471    6.3601   -1.2551 H   0  0  0  1  0  0  0  0  0  0  0  0
   -0.6101    2.4198   -0.6404 H   0  0  0  1  0  0  0  0  0  0  0  0
   -2.2748    2.1245   -1.0830 H   0  0  0  1  0  0  0  0  0  0  0  0
  1  4  1  0  0  0  0
  2  4  1  0  0  0  0
  2  5  2  0  0  0  0
  2  6  1  0  0  0  0
  3  4  1  0  0  0  0
  3  7  1  0  0  0  0
  3  8  1  0  0  0  0
  4 26  1  0  0  0  0
  6  9  1  0  0  0  0
  6 12  1  0  0  0  0
  8 10  1  0  0  0  0
  8 11  2  0  0  0  0
  9 13  1  0  0  0  0
  9 14  1  0  0  0  0
  9 15  1  0  0  0  0
 10 16  1  0  0  0  0
 10 17  1  0  0  0  0
 10 18  1  0  0  0  0
 19 20  1  0  0  0  0
 20 21  4  0  0  0  0
 20 25  4  0  0  0  0
 21 22  4  0  0  0  0
 21 27  1  0  0  0  0
 22 23  4  0  0  0  0
 22 28  1  0  0  0  0
 23 24  4  0  0  0  0
 23 26  1  0  0  0  0
 24 25  4  0  0  0  0
 24 29  1  0  0  0  0
 25 30  1  0  0  0  0
 26 31  1  0  0  0  0
 26 32  1  0  0  0  0
M  END
> <BCLConfClusterSize>
1

> <ConfClashScore>
0 

> <ConfOneFourInteractionScore>
-0.960318 

> <ConfScore>
0.0612928 

> <ConfScorePBest>
0.00740662 

> <ConfTolerance>
0.19404 

> <RosettaParamsInstructions>
M  ROOT 3
M  POLY_N_BB 3
M  POLY_CA_BB 4
M  POLY_C_BB 2
M  POLY_O_BB 5
M  POLY_IGNORE 9 10 11 12 13 14 15 16 17 18 
M  POLY_UPPER 6
M  POLY_LOWER 8
M  POLY_CHG 0
M  POLY_PROPERTIES ALPHA_AA D_AA PROTEIN AROMATIC POLYMER 
M  END

$$$$



 32 32  0  0  0  0  0  0  0  0999 V2000
   -0.5646    1.4918   -2.7187 H   0  0  0  1  0  0  0  0  0  0  0  0
    0.7305    3.1062   -2.6667 C   0  0  0  1  0  0  0  0  0  0  0  0
   -1.5172    2.9791   -3.7517 N   0  0  0  1  0  0  0  0  0  0  0  0
   -0.6787    2.5497   -2.6062 C   0  0  0  1  0  0  0  0  0  0  0  0
    1.6813    2.4902   -2.1869 O   0  0  0  1  0  0  0  0  0  0  0  0
    0.8609    4.2921   -3.2680 N   0  0  0  1  0  0  0  0  0  0  0  0
   -1.2516    3.7732   -4.2608 H   0  0  0  1  0  0  0  0  0  0  0  0
   -2.6220    2.3208   -4.1138 C   0  0  0  1  0  0  0  0  0  0  0  0
    2.1201    5.0214   -3.2838 C   0  0  0  1  0  0  0  0  0  0  0  0
   -3.2225    2.6770   -5.4796 C   0  0  0  1  0  0  0  0  0  0  0  0
   -3.1175    1.4049   -3.4412 O   0  0  0  1  0  0  0  0  0  0  0  0
    0.0814    4.6845   -3.7140 H   0  0  0  1  0  0  0  0  0  0  0  0
    2.8822    4.4283   -2.8231 H   0  0  0  1  0  0  0  0  0  0  0  0
    2.0075    5.9386   -2.7444 H   0  0  0  1  0  0  0  0  0  0  0  0
    2.3964    5.2336   -4.2955 H   0  0  0  1  0  0  0  0  0  0  0  0
   -2.5210    2.4384   -6.2515 H   0  0  0  1  0  0  0  0  0  0  0  0
   -3.4434    3.7236   -5.5099 H   0  0  0  1  0  0  0  0  0  0  0  0
   -4.1221    2.1177   -5.6303 H   0  0  0  1  0  0  0  0  0  0  0  0
   -2.8245    8.8022   -0.0124 I   0  0  0  1  0  0  0  0  0  0  0  0
   -2.3645    6.8064   -0.4288 C   0  0  0  1  0  0  0  0  0  0  0  0
   -1.1127    6.3023   -0.1120 C   0  0  0  1  0  0  0  0  0  0  0  0
   -0.8072    4.9839   -0.3924 C   0  0  0  1  0  0  0  0  0  0  0  0
   -1.7547    4.1642   -0.9857 C   0  0  0  1  0  0  0  0  0  0  0  0
   -3.0029    4.6666   -1.3016 C   0  0  0  1  0  0  0  0  0  0  0  0
   -3.3091    5.9890   -1.0203 C   0  0  0  1  0  0  0  0  0  0  0  0
   -1.3707    2.7303   -1.2650 C   0  0  0  1  0  0  0  0  0  0  0  0
   -0.4033    6.9163    0.3368 H   0  0  0  1  0  0  0  0  0  0  0  0
    0.1333    4.6069   -0.1584 H   0  0  0  1  0  0  0  0  0  0  0  0
   -3.7123    4.0526   -1.7504 H   0  0  0  1  0  0  0  0  0  0  0  0
   -4.2497    6.3660   -1.2543 H   0  0  0  1  0  0  0  0  0  0  0  0
   -0.7085    2.3985   -0.4927 H   0  0  0  1  0  0  0  0  0  0  0  0
   -2.2579    2.1323   -1.2562 H   0  0  0  1  0  0  0  0  0  0  0  0
  1  4  1  0  0  0  0
  2  4  1  0  0  0  0
  2  5  2  0  0  0  0
  2  6  1  0  0  0  0
  3  4  1  0  0  0  0
  3  7  1  0  0  0  0
  3  8  1  0  0  0  0
  4 26  1  0  0  0  0
  6  9  1  0  0  0  0
  6 12  1  0  0  0  0
  8 10  1  0  0  0  0
  8 11  2  0  0  0  0
  9 13  1  0  0  0  0
  9 14  1  0  0  0  0
  9 15  1  0  0  0  0
 10 16  1  0  0  0  0
 10 17  1  0  0  0  0
 10 18  1  0  0  0  0
 19 20  1  0  0  0  0
 20 21  4  0  0  0  0
 20 25  4  0  0  0  0
 21 22  4  0  0  0  0
 21 27  1  0  0  0  0
 22 23  4  0  0  0  0
 22 28  1  0  0  0  0
 23 24  4  0  0  0  0
 23 26  1  0  0  0  0
 24 25  4  0  0  0  0
 24 29  1  0  0  0  0
 25 30  1  0  0  0  0
 26 31  1  0  0  0  0
 26 32  1  0  0  0  0
M  END
> <BCLConfClusterSize>
1

> <ConfClashScore>
0 

> <ConfOneFourInteractionScore>
-0.952634 

> <ConfScore>
0.0751912 

> <ConfScorePBest>
0.00737814 

> <ConfTolerance>
0.236278 

> <RosettaParamsInstructions>
M  ROOT 3
M  POLY_N_BB 3
M  POLY_CA_BB 4
M  POLY_C_BB 2
M  POLY_O_BB 5
M  POLY_IGNORE 9 10 11 12 13 14 15 16 17 18 
M  POLY_UPPER 6
M  POLY_LOWER 8
M  POLY_CHG 0
M  POLY_PROPERTIES ALPHA_AA D_AA PROTEIN AROMATIC POLYMER 
M  END

$$$$



 32 32  0  0  0  0  0  0  0  0999 V2000
   -0.9643    0.8714   -0.4318 H   0  0  0  1  0  0  0  0  0  0  0  0
   -2.0540    1.8629    1.0314 C   0  0  0  1  0  0  0  0  0  0  0  0
    0.3142    2.2295    0.4125 N   0  0  0  1  0  0  0  0  0  0  0  0
   -1.0268    1.8781   -0.0746 C   0  0  0  1  0  0  0  0  0  0  0  0
   -1.7197    1.3933    2.1178 O   0  0  0  1  0  0  0  0  0  0  0  0
   -3.2556    2.3678    0.7317 N   0  0  0  1  0  0  0  0  0  0  0  0
    1.0955    1.9446   -0.1060 H   0  0  0  1  0  0  0  0  0  0  0  0
    0.5061    2.9260    1.5417 C   0  0  0  1  0  0  0  0  0  0  0  0
   -4.3220    2.3529    1.7218 C   0  0  0  1  0  0  0  0  0  0  0  0
    1.9307    3.0639    2.0696 C   0  0  0  1  0  0  0  0  0  0  0  0
   -0.3988    3.4620    2.1795 O   0  0  0  1  0  0  0  0  0  0  0  0
   -3.4182    2.7485   -0.1565 H   0  0  0  1  0  0  0  0  0  0  0  0
   -4.2338    1.4761    2.3287 H   0  0  0  1  0  0  0  0  0  0  0  0
   -5.2696    2.3486    1.2249 H   0  0  0  1  0  0  0  0  0  0  0  0
   -4.2468    3.2232    2.3398 H   0  0  0  1  0  0  0  0  0  0  0  0
    2.5206    3.6137    1.3663 H   0  0  0  1  0  0  0  0  0  0  0  0
    2.3553    2.0916    2.2079 H   0  0  0  1  0  0  0  0  0  0  0  0
    1.9154    3.5833    3.0050 H   0  0  0  1  0  0  0  0  0  0  0  0
   -2.8298    8.8015   -0.0145 I   0  0  0  1  0  0  0  0  0  0  0  0
   -2.3639    6.8066   -0.4285 C   0  0  0  1  0  0  0  0  0  0  0  0
   -1.1110    6.3063   -0.1102 C   0  0  0  1  0  0  0  0  0  0  0  0
   -0.8016    4.9885   -0.3890 C   0  0  0  1  0  0  0  0  0  0  0  0
   -1.7462    4.1655   -0.9822 C   0  0  0  1  0  0  0  0  0  0  0  0
   -2.9956    4.6641   -1.2997 C   0  0  0  1  0  0  0  0  0  0  0  0
   -3.3057    5.9859   -1.0199 C   0  0  0  1  0  0  0  0  0  0  0  0
   -1.4108    2.7236   -1.2819 C   0  0  0  1  0  0  0  0  0  0  0  0
   -0.4036    6.9227    0.3385 H   0  0  0  1  0  0  0  0  0  0  0  0
    0.1398    4.6143   -0.1538 H   0  0  0  1  0  0  0  0  0  0  0  0
   -3.7029    4.0477   -1.7484 H   0  0  0  1  0  0  0  0  0  0  0  0
   -4.2471    6.3601   -1.2551 H   0  0  0  1  0  0  0  0  0  0  0  0
   -2.2666    2.2742   -1.7408 H   0  0  0  1  0  0  0  0  0  0  0  0
   -0.5899    2.7114   -1.9680 H   0  0  0  1  0  0  0  0  0  0  0  0
  1  4  1  0  0  0  0
  2  4  1  0  0  0  0
  2  5  2  0  0  0  0
  2  6  1  0  0  0  0
  3  4  1  0  0  0  0
  3  7  1  0  0  0  0
  3  8  1  0  0  0  0
  4 26  1  0  0  0  0
  6  9  1  0  0  0  0
  6 12  1  0  0  0  0
  8 10  1  0  0  0  0
  8 11  2  0  0  0  0
  9 13  1  0  0  0  0
  9 14  1  0  0  0  0
  9 15  1  0  0  0  0
 10 16  1  0  0  0  0
 10 17  1  0  0  0  0
 10 18  1  0  0  0  0
 19 20  1  0  0  0  0
 20 21  4  0  0  0  0
 20 25  4  0  0  0  0
 21 22  4  0  0  0  0
 21 27  1  0  0  0  0
 22 23  4  0  0  0  0
 22 28  1  0  0  0  0
 23 24  4  0  0  0  0
 23 26  1  0  0  0  0
 24 25  4  0  0  0  0
 24 29  1  0  0  0  0
 25 30  1  0  0  0  0
 26 31  1  0  0  0  0
 26 32  1  0  0  0  0
M  END
> <BCLConfClusterSize>
1

> <ConfClashScore>
0 

> <ConfOneFourInteractionScore>
-0.924377 

> <ConfScore>
0.0753453 

> <ConfScorePBest>
0.00734966 

> <ConfTolerance>
0.524883 

> <RosettaParamsInstructions>
M  ROOT 3
M  POLY_N_BB 3
M  POLY_CA_BB 4
M  POLY_C_BB 2
M  POLY_O_BB 5
M  POLY_IGNORE 9 10 11 12 13 14 15 16 17 18 
M  POLY_UPPER 6
M  POLY_LOWER 8
M  POLY_CHG 0
M  POLY_PROPERTIES ALPHA_AA D_AA PROTEIN AROMATIC POLYMER 
M  END

$$$$



 32 32  0  0  0  0  0  0  0  0999 V2000
   -1.5192    0.8125   -0.3352 H   0  0  0  1  0  0  0  0  0  0  0  0
   -3.2173    1.9546    0.2400 C   0  0  0  1  0  0  0  0  0  0  0  0
   -0.9354    2.2391    1.0620 N   0  0  0  1  0  0  0  0  0  0  0  0
   -1.7375    1.8286   -0.0809 C   0  0  0  1  0  0  0  0  0  0  0  0
   -4.0080    1.2741   -0.4121 O   0  0  0  1  0  0  0  0  0  0  0  0
   -3.5815    2.7928    1.2080 N   0  0  0  1  0  0  0  0  0  0  0  0
   -1.4063    2.4373    1.8982 H   0  0  0  1  0  0  0  0  0  0  0  0
    0.3925    2.3658    1.0569 C   0  0  0  1  0  0  0  0  0  0  0  0
   -4.9298    3.0557    1.6883 C   0  0  0  1  0  0  0  0  0  0  0  0
    1.0302    2.6709    2.3984 C   0  0  0  1  0  0  0  0  0  0  0  0
    1.0718    2.2464    0.0407 O   0  0  0  1  0  0  0  0  0  0  0  0
   -2.8595    3.2892    1.6471 H   0  0  0  1  0  0  0  0  0  0  0  0
   -5.4550    2.1305    1.8025 H   0  0  0  1  0  0  0  0  0  0  0  0
   -5.4453    3.6735    0.9830 H   0  0  0  1  0  0  0  0  0  0  0  0
   -4.8805    3.5565    2.6326 H   0  0  0  1  0  0  0  0  0  0  0  0
    1.8225    1.9761    2.5835 H   0  0  0  1  0  0  0  0  0  0  0  0
    0.2941    2.5863    3.1704 H   0  0  0  1  0  0  0  0  0  0  0  0
    1.4238    3.6658    2.3878 H   0  0  0  1  0  0  0  0  0  0  0  0
   -2.8298    8.8015   -0.0145 I   0  0  0  1  0  0  0  0  0  0  0  0
   -2.3639    6.8066   -0.4285 C   0  0  0  1  0  0  0  0  0  0  0  0
   -1.1109    6.3063   -0.1102 C   0  0  0  1  0  0  0  0  0  0  0  0
   -0.8016    4.9885   -0.3890 C   0  0  0  1  0  0  0  0  0  0  0  0
   -1.7462    4.1655   -0.9822 C   0  0  0  1  0  0  0  0  0  0  0  0
   -2.9956    4.6641   -1.2997 C   0  0  0  1  0  0  0  0  0  0  0  0
   -3.3057    5.9859   -1.0199 C   0  0  0  1  0  0  0  0  0  0  0  0
   -1.4108    2.7236   -1.2819 C   0  0  0  1  0  0  0  0  0  0  0  0
   -0.4036    6.9227    0.3385 H   0  0  0  1  0  0  0  0  0  0  0  0
    0.1398    4.6143   -0.1538 H   0  0  0  1  0  0  0  0  0  0  0  0
   -3.7029    4.0477   -1.7484 H   0  0  0  1  0  0  0  0  0  0  0  0
   -4.2471    6.3601   -1.2551 H   0  0  0  1  0  0  0  0  0  0  0  0
   -1.9815    2.3990   -2.1268 H   0  0  0  1  0  0  0  0  0  0  0  0
   -0.3672    2.6451   -1.5043 H   0  0  0  1  0  0  0  0  0  0  0  0
  1  4  1  0  0  0  0
  2  4  1  0  0  0  0
  2  5  2  0  0  0  0
  2  6  1  0  0  0  0
  3  4  1  0  0  0  0
  3  7  1  0  0  0  0
  3  8  1  0  0  0  0
  4 26  1  0  0  0  0
  6  9  1  0  0  0  0
  6 12  1  0  0  0  0
  8 10  1  0  0  0  0
  8 11  2  0  0  0  0
  9 13  1  0  0  0  0
  9 14  1  0  0  0  0
  9 15  1  0  0  0  0
 10 16  1  0  0  0  0
 10 17  1  0  0  0  0
 10 18  1  0  0  0  0
 19 20  1  0  0  0  0
 20 21  4  0  0  0  0
 20 25  4  0  0  0  0
 21 22  4  0  0  0  0
 21 27  1  0  0  0  0
 22 23  4  0  0  0  0
 22 28  1  0  0  0  0
 23 24  4  0  0  0  0
 23 26  1  0  0  0  0
 24 25  4  0  0  0  0
 24 29  1  0  0  0  0
 25 30  1  0  0  0  0
 26 31  1  0  0  0  0
 26 32  1  0  0  0  0
M  END
> <BCLConfClusterSize>
1

> <ConfClashScore>
0 

> <ConfOneFourInteractionScore>
-0.959103 

> <ConfScore>
0.0765435 

> <ConfScorePBest>
0.00732118 

> <ConfTolerance>
0.351973 

> <RosettaParamsInstructions>
M  ROOT 3
M  POLY_N_BB 3
M  POLY_CA_BB 4
M  POLY_C_BB 2
M  POLY_O_BB 5
M  POLY_IGNORE 9 10 11 12 13 14 15 16 17 18 
M  POLY_UPPER 6
M  POLY_LOWER 8
M  POLY_CHG 0
M  POLY_PROPERTIES ALPHA_AA D_AA PROTEIN AROMATIC POLYMER 
M  END

$$$$



 32 32  0  0  0  0  0  0  0  0999 V2000
   -1.0755    2.1212    0.7150 H   0  0  0  1  0  0  0  0  0  0  0  0
   -1.2693    0.3613   -0.4186 C   0  0  0  1  0  0  0  0  0  0  0  0
   -3.0768    1.8757    0.3029 N   0  0  0  1  0  0  0  0  0  0  0  0
   -1.6815    1.7867   -0.1009 C   0  0  0  1  0  0  0  0  0  0  0  0
   -1.7245   -0.5971    0.1786 O   0  0  0  1  0  0  0  0  0  0  0  0
   -0.3714    0.1436   -1.3916 N   0  0  0  1  0  0  0  0  0  0  0  0
   -3.6825    2.4489   -0.2118 H   0  0  0  1  0  0  0  0  0  0  0  0
   -3.5790    1.1776    1.3906 C   0  0  0  1  0  0  0  0  0  0  0  0
    0.0751   -1.2102   -1.6843 C   0  0  0  1  0  0  0  0  0  0  0  0
   -4.9807    1.4581    1.8545 C   0  0  0  1  0  0  0  0  0  0  0  0
   -2.8640    0.3569    1.9362 O   0  0  0  1  0  0  0  0  0  0  0  0
   -0.0154    0.8978   -1.9061 H   0  0  0  1  0  0  0  0  0  0  0  0
    1.1039   -1.1915   -1.9777 H   0  0  0  1  0  0  0  0  0  0  0  0
   -0.5149   -1.6160   -2.4793 H   0  0  0  1  0  0  0  0  0  0  0  0
   -0.0354   -1.8186   -0.8110 H   0  0  0  1  0  0  0  0  0  0  0  0
   -5.6746    1.1537    1.0990 H   0  0  0  1  0  0  0  0  0  0  0  0
   -5.0920    2.5061    2.0394 H   0  0  0  1  0  0  0  0  0  0  0  0
   -5.1735    0.9140    2.7555 H   0  0  0  1  0  0  0  0  0  0  0  0
   -2.8298    8.8015   -0.0145 I   0  0  0  1  0  0  0  0  0  0  0  0
   -2.3639    6.8066   -0.4285 C   0  0  0  1  0  0  0  0  0  0  0  0
   -1.1110    6.3063   -0.1102 C   0  0  0  1  0  0  0  0  0  0  0  0
   -0.8016    4.9885   -0.3890 C   0  0  0  1  0  0  0  0  0  0  0  0
   -1.7462    4.1655   -0.9822 C   0  0  0  1  0  0  0  0  0  0  0  0
   -2.9956    4.6641   -1.2997 C   0  0  0  1  0  0  0  0  0  0  0  0
   -3.3057    5.9859   -1.0199 C   0  0  0  1  0  0  0  0  0  0  0  0
   -1.4108    2.7236   -1.2819 C   0  0  0  1  0  0  0  0  0  0  0  0
   -0.4036    6.9227    0.3385 H   0  0  0  1  0  0  0  0  0  0  0  0
    0.1398    4.6143   -0.1538 H   0  0  0  1  0  0  0  0  0  0  0  0
   -3.7029    4.0477   -1.7484 H   0  0  0  1  0  0  0  0  0  0  0  0
   -4.2471    6.3601   -1.2551 H   0  0  0  1  0  0  0  0  0  0  0  0
   -2.0019    2.4023   -2.1139 H   0  0  0  1  0  0  0  0  0  0  0  0
   -0.3732    2.6609   -1.5355 H   0  0  0  1  0  0  0  0  0  0  0  0
  1  4  1  0  0  0  0
  2  4  1  0  0  0  0
  2  5  2  0  0  0  0
  2  6  1  0  0  0  0
  3  4  1  0  0  0  0
  3  7  1  0  0  0  0
  3  8  1  0  0  0  0
  4 26  1  0  0  0  0
  6  9  1  0  0  0  0
  6 12  1  0  0  0  0
  8 10  1  0  0  0  0
  8 11  2  0  0  0  0
  9 13  1  0  0  0  0
  9 14  1  0  0  0  0
  9 15  1  0  0  0  0
 10 16  1  0  0  0  0
 10 17  1  0  0  0  0
 10 18  1  0  0  0  0
 19 20  1  0  0  0  0
 20 21  4  0  0  0  0
 20 25  4  0  0  0  0
 21 22  4  0  0  0  0
 21 27  1  0  0  0  0
 22 23  4  0  0  0  0
 22 28  1  0  0  0  0
 23 24  4  0  0  0  0
 23 26  1  0  0  0  0
 24 25  4  0  0  0  0
 24 29  1  0  0  0  0
 25 30  1  0  0  0  0
 26 31  1  0  0  0  0
 26 32  1  0  0  0  0
M  END
> <BCLConfClusterSize>
1

> <ConfClashScore>
0 

> <ConfOneFourInteractionScore>
-0.958855 

> <ConfScore>
0.0873971 

> <ConfScorePBest>
0.0072927 

> <ConfTolerance>
0.264945 

> <RosettaParamsInstructions>
M  ROOT 3
M  POLY_N_BB 3
M  POLY_CA_BB 4
M  POLY_C_BB 2
M  POLY_O_BB 5
M  POLY_IGNORE 9 10 11 12 13 14 15 16 17 18 
M  POLY_UPPER 6
M  POLY_LOWER 8
M  POLY_CHG 0
M  POLY_PROPERTIES ALPHA_AA D_AA PROTEIN AROMATIC POLYMER 
M  END

$$$$



 32 32  0  0  0  0  0  0  0  0999 V2000
   -2.0626    2.5981   -3.3042 H   0  0  0  1  0  0  0  0  0  0  0  0
   -0.8930    0.8865   -2.9321 C   0  0  0  1  0  0  0  0  0  0  0  0
   -0.0847    3.2048   -3.2264 N   0  0  0  1  0  0  0  0  0  0  0  0
   -1.1829    2.3627   -2.7425 C   0  0  0  1  0  0  0  0  0  0  0  0
   -1.7559    0.0346   -2.7243 O   0  0  0  1  0  0  0  0  0  0  0  0
    0.3430    0.5855   -3.3333 N   0  0  0  1  0  0  0  0  0  0  0  0
    0.5852    3.5227   -2.5857 H   0  0  0  1  0  0  0  0  0  0  0  0
    0.0344    3.5539   -4.5105 C   0  0  0  1  0  0  0  0  0  0  0  0
    0.7374   -0.7703   -3.6859 C   0  0  0  1  0  0  0  0  0  0  0  0
    1.1782    4.4955   -4.8338 C   0  0  0  1  0  0  0  0  0  0  0  0
   -0.7244    3.1484   -5.3870 O   0  0  0  1  0  0  0  0  0  0  0  0
    1.0087    1.3022   -3.3927 H   0  0  0  1  0  0  0  0  0  0  0  0
    1.7416   -0.7655   -4.0553 H   0  0  0  1  0  0  0  0  0  0  0  0
    0.0811   -1.1470   -4.4425 H   0  0  0  1  0  0  0  0  0  0  0  0
    0.6793   -1.3951   -2.8193 H   0  0  0  1  0  0  0  0  0  0  0  0
    0.9866    5.4533   -4.3971 H   0  0  0  1  0  0  0  0  0  0  0  0
    1.2658    4.5987   -5.8952 H   0  0  0  1  0  0  0  0  0  0  0  0
    2.0893    4.0987   -4.4371 H   0  0  0  1  0  0  0  0  0  0  0  0
   -2.8353    8.8006   -0.0169 I   0  0  0  1  0  0  0  0  0  0  0  0
   -2.3632    6.8066   -0.4282 C   0  0  0  1  0  0  0  0  0  0  0  0
   -1.1090    6.3104   -0.1083 C   0  0  0  1  0  0  0  0  0  0  0  0
   -0.7955    4.9932   -0.3854 C   0  0  0  1  0  0  0  0  0  0  0  0
   -1.7371    4.1668   -0.9784 C   0  0  0  1  0  0  0  0  0  0  0  0
   -2.9877    4.6613   -1.2976 C   0  0  0  1  0  0  0  0  0  0  0  0
   -3.3020    5.9825   -1.0196 C   0  0  0  1  0  0  0  0  0  0  0  0
   -1.4543    2.7182   -1.2996 C   0  0  0  1  0  0  0  0  0  0  0  0
   -0.4039    6.9294    0.3404 H   0  0  0  1  0  0  0  0  0  0  0  0
    0.1469    4.6221   -0.1489 H   0  0  0  1  0  0  0  0  0  0  0  0
   -3.6928    4.0423   -1.7462 H   0  0  0  1  0  0  0  0  0  0  0  0
   -4.2443    6.3536   -1.2560 H   0  0  0  1  0  0  0  0  0  0  0  0
   -0.5964    2.4258   -0.7310 H   0  0  0  1  0  0  0  0  0  0  0  0
   -2.3032    2.1486   -0.9838 H   0  0  0  1  0  0  0  0  0  0  0  0
  1  4  1  0  0  0  0
  2  4  1  0  0  0  0
  2  5  2  0  0  0  0
  2  6  1  0  0  0  0
  3  4  1  0  0  0  0
  3  7  1  0  0  0  0
  3  8  1  0  0  0  0
  4 26  1  0  0  0  0
  6  9  1  0  0  0  0
  6 12  1  0  0  0  0
  8 10  1  0  0  0  0
  8 11  2  0  0  0  0
  9 13  1  0  0  0  0
  9 14  1  0  0  0  0
  9 15  1  0  0  0  0
 10 16  1  0  0  0  0
 10 17  1  0  0  0  0
 10 18  1  0  0  0  0
 19 20  1  0  0  0  0
 20 21  4  0  0  0  0
 20 25  4  0  0  0  0
 21 22  4  0  0  0  0
 21 27  1  0  0  0  0
 22 23  4  0  0  0  0
 22 28  1  0  0  0  0
 23 24  4  0  0  0  0
 23 26  1  0  0  0  0
 24 25  4  0  0  0  0
 24 29  1  0  0  0  0
 25 30  1  0  0  0  0
 26 31  1  0  0  0  0
 26 32  1  0  0  0  0
M  END
> <BCLConfClusterSize>
1

> <ConfClashScore>
0 

> <ConfOneFourInteractionScore>
-0.94165 

> <ConfScore>
0.087613 

> <ConfScorePBest>
0.00726422 

> <ConfTolerance>
0.213719 

> <RosettaParamsInstructions>
M  ROOT 3
M  POLY_N_BB 3
M  POLY_CA_BB 4
M  POLY_C_BB 2
M  POLY_O_BB 5
M  POLY_IGNORE 9 10 11 12 13 14 15 16 17 18 
M  POLY_UPPER 6
M  POLY_LOWER 8
M  POLY_CHG 0
M  POLY_PROPERTIES ALPHA_AA D_AA PROTEIN AROMATIC POLYMER 
M  END

$$$$



 32 32  0  0  0  0  0  0  0  0999 V2000
   -1.6697    2.1623    0.7894 H   0  0  0  1  0  0  0  0  0  0  0  0
   -1.3943    0.3709   -0.2878 C   0  0  0  1  0  0  0  0  0  0  0  0
   -3.4276    1.8033   -0.2331 N   0  0  0  1  0  0  0  0  0  0  0  0
   -1.9748    1.7654   -0.1563 C   0  0  0  1  0  0  0  0  0  0  0  0
   -0.1818    0.1896   -0.3616 O   0  0  0  1  0  0  0  0  0  0  0  0
   -2.2864   -0.6318   -0.3172 N   0  0  0  1  0  0  0  0  0  0  0  0
   -3.8506    2.0027   -1.0943 H   0  0  0  1  0  0  0  0  0  0  0  0
   -4.2080    1.5749    0.8342 C   0  0  0  1  0  0  0  0  0  0  0  0
   -1.8854   -2.0304   -0.2847 C   0  0  0  1  0  0  0  0  0  0  0  0
   -5.7023    1.6280    0.5244 C   0  0  0  1  0  0  0  0  0  0  0  0
   -3.7924    1.3417    1.9684 O   0  0  0  1  0  0  0  0  0  0  0  0
   -3.2409   -0.4145   -0.3620 H   0  0  0  1  0  0  0  0  0  0  0  0
   -0.9190   -2.1353   -0.7319 H   0  0  0  1  0  0  0  0  0  0  0  0
   -2.5954   -2.6175   -0.8287 H   0  0  0  1  0  0  0  0  0  0  0  0
   -1.8468   -2.3666    0.7304 H   0  0  0  1  0  0  0  0  0  0  0  0
   -6.1746    0.7401    0.8899 H   0  0  0  1  0  0  0  0  0  0  0  0
   -5.8447    1.6977   -0.5338 H   0  0  0  1  0  0  0  0  0  0  0  0
   -6.1347    2.4833    1.0001 H   0  0  0  1  0  0  0  0  0  0  0  0
   -2.8412    8.7945    0.0045 I   0  0  0  1  0  0  0  0  0  0  0  0
   -2.3646    6.8053   -0.4248 C   0  0  0  1  0  0  0  0  0  0  0  0
   -1.1086    6.3097   -0.1114 C   0  0  0  1  0  0  0  0  0  0  0  0
   -0.7922    4.9957   -0.4004 C   0  0  0  1  0  0  0  0  0  0  0  0
   -1.7328    4.1719   -0.9988 C   0  0  0  1  0  0  0  0  0  0  0  0
   -2.9852    4.6659   -1.3114 C   0  0  0  1  0  0  0  0  0  0  0  0
   -3.3024    5.9839   -1.0216 C   0  0  0  1  0  0  0  0  0  0  0  0
   -1.4628    2.7048   -1.2359 C   0  0  0  1  0  0  0  0  0  0  0  0
   -0.4043    6.9266    0.3413 H   0  0  0  1  0  0  0  0  0  0  0  0
    0.1515    4.6250   -0.1688 H   0  0  0  1  0  0  0  0  0  0  0  0
   -3.6895    4.0490   -1.7641 H   0  0  0  1  0  0  0  0  0  0  0  0
   -4.2461    6.3546   -1.2531 H   0  0  0  1  0  0  0  0  0  0  0  0
   -1.9261    2.4291   -2.1602 H   0  0  0  1  0  0  0  0  0  0  0  0
   -0.4039    2.5724   -1.3136 H   0  0  0  1  0  0  0  0  0  0  0  0
  1  4  1  0  0  0  0
  2  4  1  0  0  0  0
  2  5  2  0  0  0  0
  2  6  1  0  0  0  0
  3  4  1  0  0  0  0
  3  7  1  0  0  0  0
  3  8  1  0  0  0  0
  4 26  1  0  0  0  0
  6  9  1  0  0  0  0
  6 12  1  0  0  0  0
  8 10  1  0  0  0  0
  8 11  2  0  0  0  0
  9 13  1  0  0  0  0
  9 14  1  0  0  0  0
  9 15  1  0  0  0  0
 10 16  1  0  0  0  0
 10 17  1  0  0  0  0
 10 18  1  0  0  0  0
 19 20  1  0  0  0  0
 20 21  4  0  0  0  0
 20 25  4  0  0  0  0
 21 22  4  0  0  0  0
 21 27  1  0  0  0  0
 22 23  4  0  0  0  0
 22 28  1  0  0  0  0
 23 24  4  0  0  0  0
 23 26  1  0  0  0  0
 24 25  4  0  0  0  0
 24 29  1  0  0  0  0
 25 30  1  0  0  0  0
 26 31  1  0  0  0  0
 26 32  1  0  0  0  0
M  END
> <BCLConfClusterSize>
1

> <ConfClashScore>
0 

> <ConfOneFourInteractionScore>
-0.956443 

> <ConfScore>
0.0876317 

> <ConfScorePBest>
0.00723574 

> <ConfTolerance>
0.267047 

> <RosettaParamsInstructions>
M  ROOT 3
M  POLY_N_BB 3
M  POLY_CA_BB 4
M  POLY_C_BB 2
M  POLY_O_BB 5
M  POLY_IGNORE 9 10 11 12 13 14 15 16 17 18 
M  POLY_UPPER 6
M  POLY_LOWER 8
M  POLY_CHG 0
M  POLY_PROPERTIES ALPHA_AA D_AA PROTEIN AROMATIC POLYMER 
M  END

$$$$



 32 32  0  0  0  0  0  0  0  0999 V2000
   -2.2420    1.0469   -2.2876 H   0  0  0  1  0  0  0  0  0  0  0  0
   -2.8485    2.7158   -3.4041 C   0  0  0  1  0  0  0  0  0  0  0  0
   -3.8120    1.9215   -1.2872 N   0  0  0  1  0  0  0  0  0  0  0  0
   -2.5758    2.0393   -2.0672 C   0  0  0  1  0  0  0  0  0  0  0  0
   -3.9345    2.5900   -3.9638 O   0  0  0  1  0  0  0  0  0  0  0  0
   -1.8679    3.4520   -3.9505 N   0  0  0  1  0  0  0  0  0  0  0  0
   -3.8445    2.3147   -0.3901 H   0  0  0  1  0  0  0  0  0  0  0  0
   -4.8954    1.2966   -1.7569 C   0  0  0  1  0  0  0  0  0  0  0  0
   -2.0541    4.2025   -5.1834 C   0  0  0  1  0  0  0  0  0  0  0  0
   -6.0663    1.1978   -0.7985 C   0  0  0  1  0  0  0  0  0  0  0  0
   -4.9575    0.8260   -2.8897 O   0  0  0  1  0  0  0  0  0  0  0  0
   -0.9964    3.4853   -3.5036 H   0  0  0  1  0  0  0  0  0  0  0  0
   -3.1001    4.3110   -5.3810 H   0  0  0  1  0  0  0  0  0  0  0  0
   -1.5909    3.6783   -5.9931 H   0  0  0  1  0  0  0  0  0  0  0  0
   -1.6082    5.1699   -5.0826 H   0  0  0  1  0  0  0  0  0  0  0  0
   -5.7742    1.5688    0.1616 H   0  0  0  1  0  0  0  0  0  0  0  0
   -6.3681    0.1752   -0.7087 H   0  0  0  1  0  0  0  0  0  0  0  0
   -6.8828    1.7797   -1.1722 H   0  0  0  1  0  0  0  0  0  0  0  0
   -2.7856    8.8071    0.0035 I   0  0  0  1  0  0  0  0  0  0  0  0
   -2.3748    6.8050   -0.4330 C   0  0  0  1  0  0  0  0  0  0  0  0
   -1.1190    6.3146   -0.1107 C   0  0  0  1  0  0  0  0  0  0  0  0
   -0.7994    4.9983   -0.3853 C   0  0  0  1  0  0  0  0  0  0  0  0
   -1.7368    4.1669   -0.9783 C   0  0  0  1  0  0  0  0  0  0  0  0
   -2.9891    4.6556   -1.2997 C   0  0  0  1  0  0  0  0  0  0  0  0
   -3.3094    5.9759   -1.0243 C   0  0  0  1  0  0  0  0  0  0  0  0
   -1.4473    2.7191   -1.2968 C   0  0  0  1  0  0  0  0  0  0  0  0
   -0.4171    6.9374    0.3378 H   0  0  0  1  0  0  0  0  0  0  0  0
    0.1442    4.6317   -0.1471 H   0  0  0  1  0  0  0  0  0  0  0  0
   -3.6909    4.0329   -1.7483 H   0  0  0  1  0  0  0  0  0  0  0  0
   -4.2530    6.3426   -1.2625 H   0  0  0  1  0  0  0  0  0  0  0  0
   -0.5557    2.6718   -1.8864 H   0  0  0  1  0  0  0  0  0  0  0  0
   -1.2964    2.1919   -0.3780 H   0  0  0  1  0  0  0  0  0  0  0  0
  1  4  1  0  0  0  0
  2  4  1  0  0  0  0
  2  5  2  0  0  0  0
  2  6  1  0  0  0  0
  3  4  1  0  0  0  0
  3  7  1  0  0  0  0
  3  8  1  0  0  0  0
  4 26  1  0  0  0  0
  6  9  1  0  0  0  0
  6 12  1  0  0  0  0
  8 10  1  0  0  0  0
  8 11  2  0  0  0  0
  9 13  1  0  0  0  0
  9 14  1  0  0  0  0
  9 15  1  0  0  0  0
 10 16  1  0  0  0  0
 10 17  1  0  0  0  0
 10 18  1  0  0  0  0
 19 20  1  0  0  0  0
 20 21  4  0  0  0  0
 20 25  4  0  0  0  0
 21 22  4  0  0  0  0
 21 27  1  0  0  0  0
 22 23  4  0  0  0  0
 22 28  1  0  0  0  0
 23 24  4  0  0  0  0
 23 26  1  0  0  0  0
 24 25  4  0  0  0  0
 24 29  1  0  0  0  0
 25 30  1  0  0  0  0
 26 31  1  0  0  0  0
 26 32  1  0  0  0  0
M  END
> <BCLConfClusterSize>
1

> <ConfClashScore>
0 

> <ConfOneFourInteractionScore>
-0.94817 

> <ConfScore>
0.0896461 

> <ConfScorePBest>
0.00720726 

> <ConfTolerance>
0.372519 

> <RosettaParamsInstructions>
M  ROOT 3
M  POLY_N_BB 3
M  POLY_CA_BB 4
M  POLY_C_BB 2
M  POLY_O_BB 5
M  POLY_IGNORE 9 10 11 12 13 14 15 16 17 18 
M  POLY_UPPER 6
M  POLY_LOWER 8
M  POLY_CHG 0
M  POLY_PROPERTIES ALPHA_AA D_AA PROTEIN AROMATIC POLYMER 
M  END

$$$$



 32 32  0  0  0  0  0  0  0  0999 V2000
   -0.8240    1.4048   -2.7862 H   0  0  0  1  0  0  0  0  0  0  0  0
    0.6444    2.8800   -2.7821 C   0  0  0  1  0  0  0  0  0  0  0  0
   -1.6471    3.0303   -3.7203 N   0  0  0  1  0  0  0  0  0  0  0  0
   -0.8087    2.4664   -2.6535 C   0  0  0  1  0  0  0  0  0  0  0  0
    1.5427    2.1727   -2.3335 O   0  0  0  1  0  0  0  0  0  0  0  0
    0.9180    4.0394   -3.3994 N   0  0  0  1  0  0  0  0  0  0  0  0
   -1.3312    3.8466   -4.1612 H   0  0  0  1  0  0  0  0  0  0  0  0
   -2.8126    2.5119   -4.1364 C   0  0  0  1  0  0  0  0  0  0  0  0
    2.2711    4.4179   -3.7785 C   0  0  0  1  0  0  0  0  0  0  0  0
   -3.5354    3.2968   -5.2138 C   0  0  0  1  0  0  0  0  0  0  0  0
   -3.2772    1.4753   -3.6878 O   0  0  0  1  0  0  0  0  0  0  0  0
    0.1810    4.6527   -3.6021 H   0  0  0  1  0  0  0  0  0  0  0  0
    2.8539    3.5369   -3.9492 H   0  0  0  1  0  0  0  0  0  0  0  0
    2.7144    4.9916   -2.9916 H   0  0  0  1  0  0  0  0  0  0  0  0
    2.2399    5.0035   -4.6736 H   0  0  0  1  0  0  0  0  0  0  0  0
   -4.0173    2.6189   -5.8870 H   0  0  0  1  0  0  0  0  0  0  0  0
   -2.8304    3.8940   -5.7533 H   0  0  0  1  0  0  0  0  0  0  0  0
   -4.2686    3.9312   -4.7613 H   0  0  0  1  0  0  0  0  0  0  0  0
   -2.8828    8.7926   -0.0369 I   0  0  0  1  0  0  0  0  0  0  0  0
   -2.3514    6.8085   -0.4233 C   0  0  0  1  0  0  0  0  0  0  0  0
   -1.1003    6.3019   -0.1075 C   0  0  0  1  0  0  0  0  0  0  0  0
   -0.7974    4.9832   -0.3890 C   0  0  0  1  0  0  0  0  0  0  0  0
   -1.7466    4.1656   -0.9823 C   0  0  0  1  0  0  0  0  0  0  0  0
   -2.9941    4.6705   -1.2972 C   0  0  0  1  0  0  0  0  0  0  0  0
   -3.2978    5.9932   -1.0148 C   0  0  0  1  0  0  0  0  0  0  0  0
   -1.4183    2.7226   -1.2849 C   0  0  0  1  0  0  0  0  0  0  0  0
   -0.3895    6.9143    0.3413 H   0  0  0  1  0  0  0  0  0  0  0  0
    0.1426    4.6042   -0.1557 H   0  0  0  1  0  0  0  0  0  0  0  0
   -3.7049    4.0581   -1.7460 H   0  0  0  1  0  0  0  0  0  0  0  0
   -4.2378    6.3722   -1.2481 H   0  0  0  1  0  0  0  0  0  0  0  0
   -0.7252    2.3797   -0.5454 H   0  0  0  1  0  0  0  0  0  0  0  0
   -2.3237    2.1566   -1.2157 H   0  0  0  1  0  0  0  0  0  0  0  0
  1  4  1  0  0  0  0
  2  4  1  0  0  0  0
  2  5  2  0  0  0  0
  2  6  1  0  0  0  0
  3  4  1  0  0  0  0
  3  7  1  0  0  0  0
  3  8  1  0  0  0  0
  4 26  1  0  0  0  0
  6  9  1  0  0  0  0
  6 12  1  0  0  0  0
  8 10  1  0  0  0  0
  8 11  2  0  0  0  0
  9 13  1  0  0  0  0
  9 14  1  0  0  0  0
  9 15  1  0  0  0  0
 10 16  1  0  0  0  0
 10 17  1  0  0  0  0
 10 18  1  0  0  0  0
 19 20  1  0  0  0  0
 20 21  4  0  0  0  0
 20 25  4  0  0  0  0
 21 22  4  0  0  0  0
 21 27  1  0  0  0  0
 22 23  4  0  0  0  0
 22 28  1  0  0  0  0
 23 24  4  0  0  0  0
 23 26  1  0  0  0  0
 24 25  4  0  0  0  0
 24 29  1  0  0  0  0
 25 30  1  0  0  0  0
 26 31  1  0  0  0  0
 26 32  1  0  0  0  0
M  END
> <BCLConfClusterSize>
1

> <ConfClashScore>
0 

> <ConfOneFourInteractionScore>
-0.9553 

> <ConfScore>
0.100449 

> <ConfScorePBest>
0.00717878 

> <ConfTolerance>
0.3736 

> <RosettaParamsInstructions>
M  ROOT 3
M  POLY_N_BB 3
M  POLY_CA_BB 4
M  POLY_C_BB 2
M  POLY_O_BB 5
M  POLY_IGNORE 9 10 11 12 13 14 15 16 17 18 
M  POLY_UPPER 6
M  POLY_LOWER 8
M  POLY_CHG 0
M  POLY_PROPERTIES ALPHA_AA D_AA PROTEIN AROMATIC POLYMER 
M  END

$$$$



 32 32  0  0  0  0  0  0  0  0999 V2000
   -1.3264    0.7650   -0.4946 H   0  0  0  1  0  0  0  0  0  0  0  0
   -3.1525    1.6019    0.1246 C   0  0  0  1  0  0  0  0  0  0  0  0
   -0.9134    2.0533    1.0594 N   0  0  0  1  0  0  0  0  0  0  0  0
   -1.6645    1.7181   -0.1451 C   0  0  0  1  0  0  0  0  0  0  0  0
   -3.8575    0.8262   -0.5153 O   0  0  0  1  0  0  0  0  0  0  0  0
   -3.6295    2.3890    1.0893 N   0  0  0  1  0  0  0  0  0  0  0  0
   -0.2804    2.7996    1.0057 H   0  0  0  1  0  0  0  0  0  0  0  0
   -1.0231    1.4206    2.2286 C   0  0  0  1  0  0  0  0  0  0  0  0
   -5.0382    2.3309    1.4501 C   0  0  0  1  0  0  0  0  0  0  0  0
   -0.1098    1.9122    3.3548 C   0  0  0  1  0  0  0  0  0  0  0  0
   -1.7862    0.4876    2.4751 O   0  0  0  1  0  0  0  0  0  0  0  0
   -3.0302    3.0079    1.5564 H   0  0  0  1  0  0  0  0  0  0  0  0
   -5.3596    1.3105    1.4716 H   0  0  0  1  0  0  0  0  0  0  0  0
   -5.6137    2.8708    0.7275 H   0  0  0  1  0  0  0  0  0  0  0  0
   -5.1769    2.7687    2.4165 H   0  0  0  1  0  0  0  0  0  0  0  0
    0.9120    1.8278    3.0487 H   0  0  0  1  0  0  0  0  0  0  0  0
   -0.2702    1.3168    4.2293 H   0  0  0  1  0  0  0  0  0  0  0  0
   -0.3330    2.9355    3.5737 H   0  0  0  1  0  0  0  0  0  0  0  0
   -2.8296    8.7831    0.0608 I   0  0  0  1  0  0  0  0  0  0  0  0
   -2.3589    6.8139   -0.4577 C   0  0  0  1  0  0  0  0  0  0  0  0
   -1.1097    6.3095   -0.1313 C   0  0  0  1  0  0  0  0  0  0  0  0
   -0.8085    4.9863   -0.3930 C   0  0  0  1  0  0  0  0  0  0  0  0
   -1.7577    4.1621   -0.9772 C   0  0  0  1  0  0  0  0  0  0  0  0
   -3.0033    4.6647   -1.3028 C   0  0  0  1  0  0  0  0  0  0  0  0
   -3.3052    5.9919   -1.0401 C   0  0  0  1  0  0  0  0  0  0  0  0
   -1.3784    2.7231   -1.2361 C   0  0  0  1  0  0  0  0  0  0  0  0
   -0.3990    6.9269    0.3107 H   0  0  0  1  0  0  0  0  0  0  0  0
    0.1301    4.6090   -0.1518 H   0  0  0  1  0  0  0  0  0  0  0  0
   -3.7140    4.0473   -1.7447 H   0  0  0  1  0  0  0  0  0  0  0  0
   -4.2439    6.3692   -1.2814 H   0  0  0  1  0  0  0  0  0  0  0  0
   -1.9066    2.4052   -2.1107 H   0  0  0  1  0  0  0  0  0  0  0  0
   -0.3257    2.6987   -1.4259 H   0  0  0  1  0  0  0  0  0  0  0  0
  1  4  1  0  0  0  0
  2  4  1  0  0  0  0
  2  5  2  0  0  0  0
  2  6  1  0  0  0  0
  3  4  1  0  0  0  0
  3  7  1  0  0  0  0
  3  8  1  0  0  0  0
  4 26  1  0  0  0  0
  6  9  1  0  0  0  0
  6 12  1  0  0  0  0
  8 10  1  0  0  0  0
  8 11  2  0  0  0  0
  9 13  1  0  0  0  0
  9 14  1  0  0  0  0
  9 15  1  0  0  0  0
 10 16  1  0  0  0  0
 10 17  1  0  0  0  0
 10 18  1  0  0  0  0
 19 20  1  0  0  0  0
 20 21  4  0  0  0  0
 20 25  4  0  0  0  0
 21 22  4  0  0  0  0
 21 27  1  0  0  0  0
 22 23  4  0  0  0  0
 22 28  1  0  0  0  0
 23 24  4  0  0  0  0
 23 26  1  0  0  0  0
 24 25  4  0  0  0  0
 24 29  1  0  0  0  0
 25 30  1  0  0  0  0
 26 31  1  0  0  0  0
 26 32  1  0  0  0  0
M  END
> <BCLConfClusterSize>
1

> <ConfClashScore>
0 

> <ConfOneFourInteractionScore>
-0.950605 

> <ConfScore>
0.106241 

> <ConfScorePBest>
0.0071503 

> <ConfTolerance>
0.167415 

> <RosettaParamsInstructions>
M  ROOT 3
M  POLY_N_BB 3
M  POLY_CA_BB 4
M  POLY_C_BB 2
M  POLY_O_BB 5
M  POLY_IGNORE 9 10 11 12 13 14 15 16 17 18 
M  POLY_UPPER 6
M  POLY_LOWER 8
M  POLY_CHG 0
M  POLY_PROPERTIES ALPHA_AA D_AA PROTEIN AROMATIC POLYMER 
M  END

$$$$



 32 32  0  0  0  0  0  0  0  0999 V2000
   -0.9688    1.5003   -2.9350 H   0  0  0  1  0  0  0  0  0  0  0  0
   -0.5280    3.4409   -3.5815 C   0  0  0  1  0  0  0  0  0  0  0  0
   -2.7627    2.4389   -3.3303 N   0  0  0  1  0  0  0  0  0  0  0  0
   -1.3893    2.4738   -2.7928 C   0  0  0  1  0  0  0  0  0  0  0  0
   -0.7172    3.6312   -4.7822 O   0  0  0  1  0  0  0  0  0  0  0  0
    0.4376    4.0623   -2.8862 N   0  0  0  1  0  0  0  0  0  0  0  0
   -3.5081    2.6739   -2.7391 H   0  0  0  1  0  0  0  0  0  0  0  0
   -3.0269    2.0965   -4.6012 C   0  0  0  1  0  0  0  0  0  0  0  0
    1.3614    5.0428   -3.4368 C   0  0  0  1  0  0  0  0  0  0  0  0
   -4.4958    1.8862   -4.9374 C   0  0  0  1  0  0  0  0  0  0  0  0
   -2.1520    1.9572   -5.4519 O   0  0  0  1  0  0  0  0  0  0  0  0
    0.5273    3.8389   -1.9362 H   0  0  0  1  0  0  0  0  0  0  0  0
    1.8785    4.6170   -4.2712 H   0  0  0  1  0  0  0  0  0  0  0  0
    2.0690    5.3267   -2.6861 H   0  0  0  1  0  0  0  0  0  0  0  0
    0.8159    5.9054   -3.7580 H   0  0  0  1  0  0  0  0  0  0  0  0
   -4.9158    2.8040   -5.2925 H   0  0  0  1  0  0  0  0  0  0  0  0
   -5.0205    1.5699   -4.0602 H   0  0  0  1  0  0  0  0  0  0  0  0
   -4.5840    1.1367   -5.6960 H   0  0  0  1  0  0  0  0  0  0  0  0
   -2.8298    8.8015   -0.0145 I   0  0  0  1  0  0  0  0  0  0  0  0
   -2.3639    6.8066   -0.4285 C   0  0  0  1  0  0  0  0  0  0  0  0
   -1.1109    6.3063   -0.1102 C   0  0  0  1  0  0  0  0  0  0  0  0
   -0.8016    4.9885   -0.3890 C   0  0  0  1  0  0  0  0  0  0  0  0
   -1.7462    4.1655   -0.9822 C   0  0  0  1  0  0  0  0  0  0  0  0
   -2.9956    4.6641   -1.2997 C   0  0  0  1  0  0  0  0  0  0  0  0
   -3.3057    5.9859   -1.0199 C   0  0  0  1  0  0  0  0  0  0  0  0
   -1.4108    2.7236   -1.2819 C   0  0  0  1  0  0  0  0  0  0  0  0
   -0.4036    6.9227    0.3385 H   0  0  0  1  0  0  0  0  0  0  0  0
    0.1398    4.6143   -0.1538 H   0  0  0  1  0  0  0  0  0  0  0  0
   -3.7029    4.0477   -1.7484 H   0  0  0  1  0  0  0  0  0  0  0  0
   -4.2471    6.3601   -1.2551 H   0  0  0  1  0  0  0  0  0  0  0  0
   -0.4479    2.4955   -0.8749 H   0  0  0  1  0  0  0  0  0  0  0  0
   -2.1476    2.0913   -0.8322 H   0  0  0  1  0  0  0  0  0  0  0  0
  1  4  1  0  0  0  0
  2  4  1  0  0  0  0
  2  5  2  0  0  0  0
  2  6  1  0  0  0  0
  3  4  1  0  0  0  0
  3  7  1  0  0  0  0
  3  8  1  0  0  0  0
  4 26  1  0  0  0  0
  6  9  1  0  0  0  0
  6 12  1  0  0  0  0
  8 10  1  0  0  0  0
  8 11  2  0  0  0  0
  9 13  1  0  0  0  0
  9 14  1  0  0  0  0
  9 15  1  0  0  0  0
 10 16  1  0  0  0  0
 10 17  1  0  0  0  0
 10 18  1  0  0  0  0
 19 20  1  0  0  0  0
 20 21  4  0  0  0  0
 20 25  4  0  0  0  0
 21 22  4  0  0  0  0
 21 27  1  0  0  0  0
 22 23  4  0  0  0  0
 22 28  1  0  0  0  0
 23 24  4  0  0  0  0
 23 26  1  0  0  0  0
 24 25  4  0  0  0  0
 24 29  1  0  0  0  0
 25 30  1  0  0  0  0
 26 31  1  0  0  0  0
 26 32  1  0  0  0  0
M  END
> <BCLConfClusterSize>
1

> <ConfClashScore>
0 

> <ConfOneFourInteractionScore>
-0.955611 

> <ConfScore>
0.111366 

> <ConfScorePBest>
0.00712182 

> <ConfTolerance>
0.365877 

> <RosettaParamsInstructions>
M  ROOT 3
M  POLY_N_BB 3
M  POLY_CA_BB 4
M  POLY_C_BB 2
M  POLY_O_BB 5
M  POLY_IGNORE 9 10 11 12 13 14 15 16 17 18 
M  POLY_UPPER 6
M  POLY_LOWER 8
M  POLY_CHG 0
M  POLY_PROPERTIES ALPHA_AA D_AA PROTEIN AROMATIC POLYMER 
M  END

$$$$



 32 32  0  0  0  0  0  0  0  0999 V2000
   -1.1638    2.8682   -3.3749 H   0  0  0  1  0  0  0  0  0  0  0  0
   -0.1943    1.1025   -2.7762 C   0  0  0  1  0  0  0  0  0  0  0  0
    0.6094    3.4145   -2.4849 N   0  0  0  1  0  0  0  0  0  0  0  0
   -0.5634    2.5551   -2.5464 C   0  0  0  1  0  0  0  0  0  0  0  0
   -1.0502    0.2367   -2.8557 O   0  0  0  1  0  0  0  0  0  0  0  0
    1.1180    0.8444   -2.8836 N   0  0  0  1  0  0  0  0  0  0  0  0
    1.0471    3.5561   -1.6195 H   0  0  0  1  0  0  0  0  0  0  0  0
    1.1104    4.0169   -3.5671 C   0  0  0  1  0  0  0  0  0  0  0  0
    1.5821   -0.5244   -3.0530 C   0  0  0  1  0  0  0  0  0  0  0  0
    2.2853    4.9432   -3.3208 C   0  0  0  1  0  0  0  0  0  0  0  0
    0.6603    3.8436   -4.6989 O   0  0  0  1  0  0  0  0  0  0  0  0
    1.7653    1.5793   -2.8478 H   0  0  0  1  0  0  0  0  0  0  0  0
    0.7401   -1.1811   -3.1217 H   0  0  0  1  0  0  0  0  0  0  0  0
    2.1839   -0.8032   -2.2133 H   0  0  0  1  0  0  0  0  0  0  0  0
    2.1635   -0.5954   -3.9484 H   0  0  0  1  0  0  0  0  0  0  0  0
    3.1221    4.6218   -3.9050 H   0  0  0  1  0  0  0  0  0  0  0  0
    2.5454    4.9208   -2.2831 H   0  0  0  1  0  0  0  0  0  0  0  0
    2.0175    5.9407   -3.6004 H   0  0  0  1  0  0  0  0  0  0  0  0
   -2.8298    8.8015   -0.0145 I   0  0  0  1  0  0  0  0  0  0  0  0
   -2.3639    6.8066   -0.4285 C   0  0  0  1  0  0  0  0  0  0  0  0
   -1.1110    6.3063   -0.1102 C   0  0  0  1  0  0  0  0  0  0  0  0
   -0.8016    4.9885   -0.3890 C   0  0  0  1  0  0  0  0  0  0  0  0
   -1.7462    4.1655   -0.9822 C   0  0  0  1  0  0  0  0  0  0  0  0
   -2.9956    4.6641   -1.2997 C   0  0  0  1  0  0  0  0  0  0  0  0
   -3.3057    5.9859   -1.0199 C   0  0  0  1  0  0  0  0  0  0  0  0
   -1.4108    2.7236   -1.2819 C   0  0  0  1  0  0  0  0  0  0  0  0
   -0.4036    6.9227    0.3385 H   0  0  0  1  0  0  0  0  0  0  0  0
    0.1398    4.6143   -0.1538 H   0  0  0  1  0  0  0  0  0  0  0  0
   -3.7029    4.0477   -1.7484 H   0  0  0  1  0  0  0  0  0  0  0  0
   -4.2471    6.3601   -1.2551 H   0  0  0  1  0  0  0  0  0  0  0  0
   -0.8685    2.3206   -0.4522 H   0  0  0  1  0  0  0  0  0  0  0  0
   -2.3241    2.1809   -1.4091 H   0  0  0  1  0  0  0  0  0  0  0  0
  1  4  1  0  0  0  0
  2  4  1  0  0  0  0
  2  5  2  0  0  0  0
  2  6  1  0  0  0  0
  3  4  1  0  0  0  0
  3  7  1  0  0  0  0
  3  8  1  0  0  0  0
  4 26  1  0  0  0  0
  6  9  1  0  0  0  0
  6 12  1  0  0  0  0
  8 10  1  0  0  0  0
  8 11  2  0  0  0  0
  9 13  1  0  0  0  0
  9 14  1  0  0  0  0
  9 15  1  0  0  0  0
 10 16  1  0  0  0  0
 10 17  1  0  0  0  0
 10 18  1  0  0  0  0
 19 20  1  0  0  0  0
 20 21  4  0  0  0  0
 20 25  4  0  0  0  0
 21 22  4  0  0  0  0
 21 27  1  0  0  0  0
 22 23  4  0  0  0  0
 22 28  1  0  0  0  0
 23 24  4  0  0  0  0
 23 26  1  0  0  0  0
 24 25  4  0  0  0  0
 24 29  1  0  0  0  0
 25 30  1  0  0  0  0
 26 31  1  0  0  0  0
 26 32  1  0  0  0  0
M  END
> <BCLConfClusterSize>
1

> <ConfClashScore>
0 

> <ConfOneFourInteractionScore>
-0.94165 

> <ConfScore>
0.117434 

> <ConfScorePBest>
0.00709334 

> <ConfTolerance>
0.289828 

> <RosettaParamsInstructions>
M  ROOT 3
M  POLY_N_BB 3
M  POLY_CA_BB 4
M  POLY_C_BB 2
M  POLY_O_BB 5
M  POLY_IGNORE 9 10 11 12 13 14 15 16 17 18 
M  POLY_UPPER 6
M  POLY_LOWER 8
M  POLY_CHG 0
M  POLY_PROPERTIES ALPHA_AA D_AA PROTEIN AROMATIC POLYMER 
M  END

$$$$



 32 32  0  0  0  0  0  0  0  0999 V2000
   -1.2532    3.0926   -3.3380 H   0  0  0  1  0  0  0  0  0  0  0  0
   -0.6677    1.0903   -3.0259 C   0  0  0  1  0  0  0  0  0  0  0  0
    0.6747    3.0702   -2.5960 N   0  0  0  1  0  0  0  0  0  0  0  0
   -0.6840    2.5492   -2.6129 C   0  0  0  1  0  0  0  0  0  0  0  0
    0.2960    0.6148   -3.6249 O   0  0  0  1  0  0  0  0  0  0  0  0
   -1.7344    0.3354   -2.7185 N   0  0  0  1  0  0  0  0  0  0  0  0
    1.0701    3.3322   -1.7384 H   0  0  0  1  0  0  0  0  0  0  0  0
    1.4018    3.2036   -3.7088 C   0  0  0  1  0  0  0  0  0  0  0  0
   -1.8583   -1.0483   -3.1519 C   0  0  0  1  0  0  0  0  0  0  0  0
    2.8072    3.7974   -3.5493 C   0  0  0  1  0  0  0  0  0  0  0  0
    1.0259    2.8064   -4.8103 O   0  0  0  1  0  0  0  0  0  0  0  0
   -2.4546    0.7298   -2.1837 H   0  0  0  1  0  0  0  0  0  0  0  0
   -2.7700   -1.4609   -2.7730 H   0  0  0  1  0  0  0  0  0  0  0  0
   -1.0295   -1.6138   -2.7802 H   0  0  0  1  0  0  0  0  0  0  0  0
   -1.8667   -1.0875   -4.2211 H   0  0  0  1  0  0  0  0  0  0  0  0
    3.2846    3.3610   -2.6970 H   0  0  0  1  0  0  0  0  0  0  0  0
    2.7334    4.8562   -3.4133 H   0  0  0  1  0  0  0  0  0  0  0  0
    3.3837    3.5892   -4.4263 H   0  0  0  1  0  0  0  0  0  0  0  0
   -2.7254    8.8126    0.0275 I   0  0  0  1  0  0  0  0  0  0  0  0
   -2.3877    6.8033   -0.4383 C   0  0  0  1  0  0  0  0  0  0  0  0
   -1.1325    6.3109   -0.1168 C   0  0  0  1  0  0  0  0  0  0  0  0
   -0.8151    4.9943   -0.3923 C   0  0  0  1  0  0  0  0  0  0  0  0
   -1.7540    4.1647   -0.9853 C   0  0  0  1  0  0  0  0  0  0  0  0
   -3.0057    4.6554   -1.3060 C   0  0  0  1  0  0  0  0  0  0  0  0
   -3.3238    5.9760   -1.0296 C   0  0  0  1  0  0  0  0  0  0  0  0
   -1.3571    2.7332   -1.2591 C   0  0  0  1  0  0  0  0  0  0  0  0
   -0.4294    6.9323    0.3317 H   0  0  0  1  0  0  0  0  0  0  0  0
    0.1281    4.6260   -0.1548 H   0  0  0  1  0  0  0  0  0  0  0  0
   -3.7087    4.0340   -1.7545 H   0  0  0  1  0  0  0  0  0  0  0  0
   -4.2670    6.3443   -1.2671 H   0  0  0  1  0  0  0  0  0  0  0  0
   -0.6783    2.4160   -0.4953 H   0  0  0  1  0  0  0  0  0  0  0  0
   -2.2367    2.1245   -1.2305 H   0  0  0  1  0  0  0  0  0  0  0  0
  1  4  1  0  0  0  0
  2  4  1  0  0  0  0
  2  5  2  0  0  0  0
  2  6  1  0  0  0  0
  3  4  1  0  0  0  0
  3  7  1  0  0  0  0
  3  8  1  0  0  0  0
  4 26  1  0  0  0  0
  6  9  1  0  0  0  0
  6 12  1  0  0  0  0
  8 10  1  0  0  0  0
  8 11  2  0  0  0  0
  9 13  1  0  0  0  0
  9 14  1  0  0  0  0
  9 15  1  0  0  0  0
 10 16  1  0  0  0  0
 10 17  1  0  0  0  0
 10 18  1  0  0  0  0
 19 20  1  0  0  0  0
 20 21  4  0  0  0  0
 20 25  4  0  0  0  0
 21 22  4  0  0  0  0
 21 27  1  0  0  0  0
 22 23  4  0  0  0  0
 22 28  1  0  0  0  0
 23 24  4  0  0  0  0
 23 26  1  0  0  0  0
 24 25  4  0  0  0  0
 24 29  1  0  0  0  0
 25 30  1  0  0  0  0
 26 31  1  0  0  0  0
 26 32  1  0  0  0  0
M  END
> <BCLConfClusterSize>
1

> <ConfClashScore>
0 

> <ConfOneFourInteractionScore>
-0.95498 

> <ConfScore>
0.119374 

> <ConfScorePBest>
0.00706485 

> <ConfTolerance>
0.341289 

> <RosettaParamsInstructions>
M  ROOT 3
M  POLY_N_BB 3
M  POLY_CA_BB 4
M  POLY_C_BB 2
M  POLY_O_BB 5
M  POLY_IGNORE 9 10 11 12 13 14 15 16 17 18 
M  POLY_UPPER 6
M  POLY_LOWER 8
M  POLY_CHG 0
M  POLY_PROPERTIES ALPHA_AA D_AA PROTEIN AROMATIC POLYMER 
M  END

$$$$



 32 32  0  0  0  0  0  0  0  0999 V2000
   -1.5271    0.8108   -0.3382 H   0  0  0  1  0  0  0  0  0  0  0  0
   -3.2934    1.9081    0.1284 C   0  0  0  1  0  0  0  0  0  0  0  0
   -1.0669    2.2552    1.0908 N   0  0  0  1  0  0  0  0  0  0  0  0
   -1.7871    1.8213   -0.1011 C   0  0  0  1  0  0  0  0  0  0  0  0
   -4.0793    1.1496   -0.4097 O   0  0  0  1  0  0  0  0  0  0  0  0
   -3.7715    2.8468    0.9467 N   0  0  0  1  0  0  0  0  0  0  0  0
   -0.5244    3.0683    1.0215 H   0  0  0  1  0  0  0  0  0  0  0  0
   -1.0912    1.6275    2.2700 C   0  0  0  1  0  0  0  0  0  0  0  0
   -5.1635    2.9668    1.3537 C   0  0  0  1  0  0  0  0  0  0  0  0
   -0.0796    2.1073    3.2926 C   0  0  0  1  0  0  0  0  0  0  0  0
   -1.8702    0.7241    2.5258 O   0  0  0  1  0  0  0  0  0  0  0  0
   -3.1376    3.5051    1.3004 H   0  0  0  1  0  0  0  0  0  0  0  0
   -5.4749    2.0621    1.8328 H   0  0  0  1  0  0  0  0  0  0  0  0
   -5.7731    3.1418    0.4919 H   0  0  0  1  0  0  0  0  0  0  0  0
   -5.2661    3.7848    2.0359 H   0  0  0  1  0  0  0  0  0  0  0  0
    0.9095    1.9013    2.9404 H   0  0  0  1  0  0  0  0  0  0  0  0
   -0.2411    1.5982    4.2197 H   0  0  0  1  0  0  0  0  0  0  0  0
   -0.1935    3.1611    3.4393 H   0  0  0  1  0  0  0  0  0  0  0  0
   -2.8298    8.8015   -0.0145 I   0  0  0  1  0  0  0  0  0  0  0  0
   -2.3639    6.8066   -0.4285 C   0  0  0  1  0  0  0  0  0  0  0  0
   -1.1110    6.3063   -0.1102 C   0  0  0  1  0  0  0  0  0  0  0  0
   -0.8016    4.9885   -0.3890 C   0  0  0  1  0  0  0  0  0  0  0  0
   -1.7462    4.1655   -0.9822 C   0  0  0  1  0  0  0  0  0  0  0  0
   -2.9956    4.6641   -1.2997 C   0  0  0  1  0  0  0  0  0  0  0  0
   -3.3057    5.9859   -1.0199 C   0  0  0  1  0  0  0  0  0  0  0  0
   -1.4108    2.7236   -1.2819 C   0  0  0  1  0  0  0  0  0  0  0  0
   -0.4036    6.9227    0.3385 H   0  0  0  1  0  0  0  0  0  0  0  0
    0.1398    4.6143   -0.1538 H   0  0  0  1  0  0  0  0  0  0  0  0
   -3.7029    4.0477   -1.7484 H   0  0  0  1  0  0  0  0  0  0  0  0
   -4.2471    6.3601   -1.2551 H   0  0  0  1  0  0  0  0  0  0  0  0
   -1.9530    2.4103   -2.1495 H   0  0  0  1  0  0  0  0  0  0  0  0
   -0.3604    2.6390   -1.4673 H   0  0  0  1  0  0  0  0  0  0  0  0
  1  4  1  0  0  0  0
  2  4  1  0  0  0  0
  2  5  2  0  0  0  0
  2  6  1  0  0  0  0
  3  4  1  0  0  0  0
  3  7  1  0  0  0  0
  3  8  1  0  0  0  0
  4 26  1  0  0  0  0
  6  9  1  0  0  0  0
  6 12  1  0  0  0  0
  8 10  1  0  0  0  0
  8 11  2  0  0  0  0
  9 13  1  0  0  0  0
  9 14  1  0  0  0  0
  9 15  1  0  0  0  0
 10 16  1  0  0  0  0
 10 17  1  0  0  0  0
 10 18  1  0  0  0  0
 19 20  1  0  0  0  0
 20 21  4  0  0  0  0
 20 25  4  0  0  0  0
 21 22  4  0  0  0  0
 21 27  1  0  0  0  0
 22 23  4  0  0  0  0
 22 28  1  0  0  0  0
 23 24  4  0  0  0  0
 23 26  1  0  0  0  0
 24 25  4  0  0  0  0
 24 29  1  0  0  0  0
 25 30  1  0  0  0  0
 26 31  1  0  0  0  0
 26 32  1  0  0  0  0
M  END
> <BCLConfClusterSize>
1

> <ConfClashScore>
0 

> <ConfOneFourInteractionScore>
-0.950605 

> <ConfScore>
0.123799 

> <ConfScorePBest>
0.00703637 

> <ConfTolerance>
0.237374 

> <RosettaParamsInstructions>
M  ROOT 3
M  POLY_N_BB 3
M  POLY_CA_BB 4
M  POLY_C_BB 2
M  POLY_O_BB 5
M  POLY_IGNORE 9 10 11 12 13 14 15 16 17 18 
M  POLY_UPPER 6
M  POLY_LOWER 8
M  POLY_CHG 0
M  POLY_PROPERTIES ALPHA_AA D_AA PROTEIN AROMATIC POLYMER 
M  END

$$$$



 32 32  0  0  0  0  0  0  0  0999 V2000
   -0.5712    1.6069   -2.9095 H   0  0  0  1  0  0  0  0  0  0  0  0
    0.7367    3.2323   -2.6482 C   0  0  0  1  0  0  0  0  0  0  0  0
   -1.4450    3.2920   -3.7314 N   0  0  0  1  0  0  0  0  0  0  0  0
   -0.6625    2.6454   -2.6685 C   0  0  0  1  0  0  0  0  0  0  0  0
    1.6630    2.6365   -2.0998 O   0  0  0  1  0  0  0  0  0  0  0  0
    0.9322    4.4186   -3.2454 N   0  0  0  1  0  0  0  0  0  0  0  0
   -2.3166    3.6801   -3.5075 H   0  0  0  1  0  0  0  0  0  0  0  0
   -1.0095    3.3690   -4.9921 C   0  0  0  1  0  0  0  0  0  0  0  0
    2.2132    5.1026   -3.3401 C   0  0  0  1  0  0  0  0  0  0  0  0
   -1.9819    3.9679   -5.9895 C   0  0  0  1  0  0  0  0  0  0  0  0
    0.1059    2.9838   -5.3402 O   0  0  0  1  0  0  0  0  0  0  0  0
    0.1536    4.8569   -3.6481 H   0  0  0  1  0  0  0  0  0  0  0  0
    3.0032    4.4122   -3.1302 H   0  0  0  1  0  0  0  0  0  0  0  0
    2.2425    5.9039   -2.6315 H   0  0  0  1  0  0  0  0  0  0  0  0
    2.3357    5.4948   -4.3280 H   0  0  0  1  0  0  0  0  0  0  0  0
   -2.8888    4.2344   -5.4883 H   0  0  0  1  0  0  0  0  0  0  0  0
   -2.1949    3.2505   -6.7543 H   0  0  0  1  0  0  0  0  0  0  0  0
   -1.5481    4.8413   -6.4299 H   0  0  0  1  0  0  0  0  0  0  0  0
   -2.8231    8.8071   -0.0353 I   0  0  0  1  0  0  0  0  0  0  0  0
   -2.3624    6.8074   -0.4319 C   0  0  0  1  0  0  0  0  0  0  0  0
   -1.1115    6.3061   -0.1074 C   0  0  0  1  0  0  0  0  0  0  0  0
   -0.8056    4.9851   -0.3748 C   0  0  0  1  0  0  0  0  0  0  0  0
   -1.7517    4.1600   -0.9627 C   0  0  0  1  0  0  0  0  0  0  0  0
   -2.9991    4.6597   -1.2863 C   0  0  0  1  0  0  0  0  0  0  0  0
   -3.3057    5.9847   -1.0181 C   0  0  0  1  0  0  0  0  0  0  0  0
   -1.3973    2.7414   -1.3414 C   0  0  0  1  0  0  0  0  0  0  0  0
   -0.4031    6.9241    0.3373 H   0  0  0  1  0  0  0  0  0  0  0  0
    0.1343    4.6101   -0.1349 H   0  0  0  1  0  0  0  0  0  0  0  0
   -3.7075    4.0417   -1.7311 H   0  0  0  1  0  0  0  0  0  0  0  0
   -4.2456    6.3597   -1.2579 H   0  0  0  1  0  0  0  0  0  0  0  0
   -0.7728    2.3305   -0.5758 H   0  0  0  1  0  0  0  0  0  0  0  0
   -2.3002    2.1715   -1.4100 H   0  0  0  1  0  0  0  0  0  0  0  0
  1  4  1  0  0  0  0
  2  4  1  0  0  0  0
  2  5  2  0  0  0  0
  2  6  1  0  0  0  0
  3  4  1  0  0  0  0
  3  7  1  0  0  0  0
  3  8  1  0  0  0  0
  4 26  1  0  0  0  0
  6  9  1  0  0  0  0
  6 12  1  0  0  0  0
  8 10  1  0  0  0  0
  8 11  2  0  0  0  0
  9 13  1  0  0  0  0
  9 14  1  0  0  0  0
  9 15  1  0  0  0  0
 10 16  1  0  0  0  0
 10 17  1  0  0  0  0
 10 18  1  0  0  0  0
 19 20  1  0  0  0  0
 20 21  4  0  0  0  0
 20 25  4  0  0  0  0
 21 22  4  0  0  0  0
 21 27  1  0  0  0  0
 22 23  4  0  0  0  0
 22 28  1  0  0  0  0
 23 24  4  0  0  0  0
 23 26  1  0  0  0  0
 24 25  4  0  0  0  0
 24 29  1  0  0  0  0
 25 30  1  0  0  0  0
 26 31  1  0  0  0  0
 26 32  1  0  0  0  0
M  END
> <BCLConfClusterSize>
1

> <ConfClashScore>
0 

> <ConfOneFourInteractionScore>
-0.931937 

> <ConfScore>
0.129994 

> <ConfScorePBest>
0.00700789 

> <ConfTolerance>
0.20527 

> <RosettaParamsInstructions>
M  ROOT 3
M  POLY_N_BB 3
M  POLY_CA_BB 4
M  POLY_C_BB 2
M  POLY_O_BB 5
M  POLY_IGNORE 9 10 11 12 13 14 15 16 17 18 
M  POLY_UPPER 6
M  POLY_LOWER 8
M  POLY_CHG 0
M  POLY_PROPERTIES ALPHA_AA D_AA PROTEIN AROMATIC POLYMER 
M  END

$$$$



 32 32  0  0  0  0  0  0  0  0999 V2000
   -0.6021    1.4828   -2.7762 H   0  0  0  1  0  0  0  0  0  0  0  0
    0.5653    3.2332   -2.7349 C   0  0  0  1  0  0  0  0  0  0  0  0
   -1.7583    2.9539   -3.6380 N   0  0  0  1  0  0  0  0  0  0  0  0
   -0.7762    2.5312   -2.6525 C   0  0  0  1  0  0  0  0  0  0  0  0
    1.3545    3.1864   -1.8050 O   0  0  0  1  0  0  0  0  0  0  0  0
    0.8556    3.9019   -3.8520 N   0  0  0  1  0  0  0  0  0  0  0  0
   -2.5577    3.4437   -3.3528 H   0  0  0  1  0  0  0  0  0  0  0  0
   -1.5714    2.6736   -4.9426 C   0  0  0  1  0  0  0  0  0  0  0  0
    2.0384    4.7273   -4.0454 C   0  0  0  1  0  0  0  0  0  0  0  0
   -2.7545    3.0355   -5.8192 C   0  0  0  1  0  0  0  0  0  0  0  0
   -0.5525    2.1728   -5.4109 O   0  0  0  1  0  0  0  0  0  0  0  0
    0.2248    3.8320   -4.5988 H   0  0  0  1  0  0  0  0  0  0  0  0
    1.9946    5.1944   -5.0070 H   0  0  0  1  0  0  0  0  0  0  0  0
    2.9139    4.1149   -3.9862 H   0  0  0  1  0  0  0  0  0  0  0  0
    2.0765    5.4793   -3.2852 H   0  0  0  1  0  0  0  0  0  0  0  0
   -2.4047    3.3400   -6.7834 H   0  0  0  1  0  0  0  0  0  0  0  0
   -3.3001    3.8379   -5.3682 H   0  0  0  1  0  0  0  0  0  0  0  0
   -3.3937    2.1839   -5.9245 H   0  0  0  1  0  0  0  0  0  0  0  0
   -2.7254    8.8126    0.0275 I   0  0  0  1  0  0  0  0  0  0  0  0
   -2.3877    6.8033   -0.4383 C   0  0  0  1  0  0  0  0  0  0  0  0
   -1.1325    6.3109   -0.1168 C   0  0  0  1  0  0  0  0  0  0  0  0
   -0.8151    4.9943   -0.3923 C   0  0  0  1  0  0  0  0  0  0  0  0
   -1.7540    4.1647   -0.9853 C   0  0  0  1  0  0  0  0  0  0  0  0
   -3.0057    4.6554   -1.3060 C   0  0  0  1  0  0  0  0  0  0  0  0
   -3.3238    5.9760   -1.0296 C   0  0  0  1  0  0  0  0  0  0  0  0
   -1.3571    2.7332   -1.2591 C   0  0  0  1  0  0  0  0  0  0  0  0
   -0.4294    6.9323    0.3317 H   0  0  0  1  0  0  0  0  0  0  0  0
    0.1281    4.6260   -0.1548 H   0  0  0  1  0  0  0  0  0  0  0  0
   -3.7087    4.0340   -1.7545 H   0  0  0  1  0  0  0  0  0  0  0  0
   -4.2670    6.3443   -1.2671 H   0  0  0  1  0  0  0  0  0  0  0  0
   -0.6230    2.4395   -0.5382 H   0  0  0  1  0  0  0  0  0  0  0  0
   -2.2241    2.1143   -1.1586 H   0  0  0  1  0  0  0  0  0  0  0  0
  1  4  1  0  0  0  0
  2  4  1  0  0  0  0
  2  5  2  0  0  0  0
  2  6  1  0  0  0  0
  3  4  1  0  0  0  0
  3  7  1  0  0  0  0
  3  8  1  0  0  0  0
  4 26  1  0  0  0  0
  6  9  1  0  0  0  0
  6 12  1  0  0  0  0
  8 10  1  0  0  0  0
  8 11  2  0  0  0  0
  9 13  1  0  0  0  0
  9 14  1  0  0  0  0
  9 15  1  0  0  0  0
 10 16  1  0  0  0  0
 10 17  1  0  0  0  0
 10 18  1  0  0  0  0
 19 20  1  0  0  0  0
 20 21  4  0  0  0  0
 20 25  4  0  0  0  0
 21 22  4  0  0  0  0
 21 27  1  0  0  0  0
 22 23  4  0  0  0  0
 22 28  1  0  0  0  0
 23 24  4  0  0  0  0
 23 26  1  0  0  0  0
 24 25  4  0  0  0  0
 24 29  1  0  0  0  0
 25 30  1  0  0  0  0
 26 31  1  0  0  0  0
 26 32  1  0  0  0  0
M  END
> <BCLConfClusterSize>
1

> <ConfClashScore>
0.00328778 

> <ConfOneFourInteractionScore>
-0.950605 

> <ConfScore>
0.133459 

> <ConfScorePBest>
0.00697941 

> <ConfTolerance>
0.180505 

> <RosettaParamsInstructions>
M  ROOT 3
M  POLY_N_BB 3
M  POLY_CA_BB 4
M  POLY_C_BB 2
M  POLY_O_BB 5
M  POLY_IGNORE 9 10 11 12 13 14 15 16 17 18 
M  POLY_UPPER 6
M  POLY_LOWER 8
M  POLY_CHG 0
M  POLY_PROPERTIES ALPHA_AA D_AA PROTEIN AROMATIC POLYMER 
M  END

$$$$



 32 32  0  0  0  0  0  0  0  0999 V2000
   -0.4938    1.5244   -2.7859 H   0  0  0  1  0  0  0  0  0  0  0  0
    0.1477    3.5356   -3.0496 C   0  0  0  1  0  0  0  0  0  0  0  0
   -2.0539    2.6304   -3.6045 N   0  0  0  1  0  0  0  0  0  0  0  0
   -0.9169    2.5039   -2.7050 C   0  0  0  1  0  0  0  0  0  0  0  0
    1.3137    3.3733   -2.7294 O   0  0  0  1  0  0  0  0  0  0  0  0
   -0.2801    4.6097   -3.7148 N   0  0  0  1  0  0  0  0  0  0  0  0
   -2.8836    3.0265   -3.2653 H   0  0  0  1  0  0  0  0  0  0  0  0
   -2.0059    2.2253   -4.8768 C   0  0  0  1  0  0  0  0  0  0  0  0
    0.6280    5.6441   -4.1874 C   0  0  0  1  0  0  0  0  0  0  0  0
   -3.2714    2.4387   -5.6842 C   0  0  0  1  0  0  0  0  0  0  0  0
   -1.0094    1.7109   -5.3776 O   0  0  0  1  0  0  0  0  0  0  0  0
   -1.2393    4.7056   -3.8914 H   0  0  0  1  0  0  0  0  0  0  0  0
    1.1602    5.2877   -5.0445 H   0  0  0  1  0  0  0  0  0  0  0  0
    1.3237    5.8889   -3.4122 H   0  0  0  1  0  0  0  0  0  0  0  0
    0.0677    6.5161   -4.4529 H   0  0  0  1  0  0  0  0  0  0  0  0
   -3.6513    3.4218   -5.4997 H   0  0  0  1  0  0  0  0  0  0  0  0
   -4.0040    1.7137   -5.3969 H   0  0  0  1  0  0  0  0  0  0  0  0
   -3.0519    2.3312   -6.7260 H   0  0  0  1  0  0  0  0  0  0  0  0
   -2.8776    8.7935   -0.0347 I   0  0  0  1  0  0  0  0  0  0  0  0
   -2.3520    6.8084   -0.4236 C   0  0  0  1  0  0  0  0  0  0  0  0
   -1.1021    6.2979   -0.1094 C   0  0  0  1  0  0  0  0  0  0  0  0
   -0.8031    4.9786   -0.3925 C   0  0  0  1  0  0  0  0  0  0  0  0
   -1.7551    4.1643   -0.9858 C   0  0  0  1  0  0  0  0  0  0  0  0
   -3.0014    4.6730   -1.2992 C   0  0  0  1  0  0  0  0  0  0  0  0
   -3.3011    5.9963   -1.0152 C   0  0  0  1  0  0  0  0  0  0  0  0
   -1.3781    2.7292   -1.2681 C   0  0  0  1  0  0  0  0  0  0  0  0
   -0.3893    6.9078    0.3395 H   0  0  0  1  0  0  0  0  0  0  0  0
    0.1360    4.5969   -0.1603 H   0  0  0  1  0  0  0  0  0  0  0  0
   -3.7142    4.0631   -1.7481 H   0  0  0  1  0  0  0  0  0  0  0  0
   -4.2403    6.3781   -1.2473 H   0  0  0  1  0  0  0  0  0  0  0  0
   -0.5840    2.4494   -0.6077 H   0  0  0  1  0  0  0  0  0  0  0  0
   -2.2311    2.1103   -1.0832 H   0  0  0  1  0  0  0  0  0  0  0  0
  1  4  1  0  0  0  0
  2  4  1  0  0  0  0
  2  5  2  0  0  0  0
  2  6  1  0  0  0  0
  3  4  1  0  0  0  0
  3  7  1  0  0  0  0
  3  8  1  0  0  0  0
  4 26  1  0  0  0  0
  6  9  1  0  0  0  0
  6 12  1  0  0  0  0
  8 10  1  0  0  0  0
  8 11  2  0  0  0  0
  9 13  1  0  0  0  0
  9 14  1  0  0  0  0
  9 15  1  0  0  0  0
 10 16  1  0  0  0  0
 10 17  1  0  0  0  0
 10 18  1  0  0  0  0
 19 20  1  0  0  0  0
 20 21  4  0  0  0  0
 20 25  4  0  0  0  0
 21 22  4  0  0  0  0
 21 27  1  0  0  0  0
 22 23  4  0  0  0  0
 22 28  1  0  0  0  0
 23 24  4  0  0  0  0
 23 26  1  0  0  0  0
 24 25  4  0  0  0  0
 24 29  1  0  0  0  0
 25 30  1  0  0  0  0
 26 31  1  0  0  0  0
 26 32  1  0  0  0  0
M  END
> <BCLConfClusterSize>
1

> <ConfClashScore>
0 

> <ConfOneFourInteractionScore>
-0.957074 

> <ConfScore>
0.134413 

> <ConfScorePBest>
0.00695093 

> <ConfTolerance>
0.239759 

> <RosettaParamsInstructions>
M  ROOT 3
M  POLY_N_BB 3
M  POLY_CA_BB 4
M  POLY_C_BB 2
M  POLY_O_BB 5
M  POLY_IGNORE 9 10 11 12 13 14 15 16 17 18 
M  POLY_UPPER 6
M  POLY_LOWER 8
M  POLY_CHG 0
M  POLY_PROPERTIES ALPHA_AA D_AA PROTEIN AROMATIC POLYMER 
M  END

$$$$



 32 32  0  0  0  0  0  0  0  0999 V2000
   -2.6439    2.5390   -2.9666 H   0  0  0  1  0  0  0  0  0  0  0  0
   -1.5003    0.7745   -2.8602 C   0  0  0  1  0  0  0  0  0  0  0  0
   -0.7453    3.0014   -3.6132 N   0  0  0  1  0  0  0  0  0  0  0  0
   -1.6361    2.2826   -2.7145 C   0  0  0  1  0  0  0  0  0  0  0  0
   -2.1855    0.0636   -2.1262 O   0  0  0  1  0  0  0  0  0  0  0  0
   -0.6373    0.3440   -3.7847 N   0  0  0  1  0  0  0  0  0  0  0  0
    0.1708    3.1896   -3.3204 H   0  0  0  1  0  0  0  0  0  0  0  0
   -1.1368    3.4177   -4.8354 C   0  0  0  1  0  0  0  0  0  0  0  0
   -0.4412   -1.0703   -4.0664 C   0  0  0  1  0  0  0  0  0  0  0  0
   -0.1244    4.1448   -5.6989 C   0  0  0  1  0  0  0  0  0  0  0  0
   -2.2718    3.2163   -5.2364 O   0  0  0  1  0  0  0  0  0  0  0  0
   -0.1183    1.0034   -4.2908 H   0  0  0  1  0  0  0  0  0  0  0  0
   -1.3888   -1.5669   -4.0781 H   0  0  0  1  0  0  0  0  0  0  0  0
    0.1782   -1.5021   -3.3083 H   0  0  0  1  0  0  0  0  0  0  0  0
    0.0314   -1.1816   -5.0199 H   0  0  0  1  0  0  0  0  0  0  0  0
    0.5060    4.7478   -5.0793 H   0  0  0  1  0  0  0  0  0  0  0  0
   -0.6373    4.7692   -6.4003 H   0  0  0  1  0  0  0  0  0  0  0  0
    0.4724    3.4305   -6.2265 H   0  0  0  1  0  0  0  0  0  0  0  0
   -2.7800    8.8079    0.0058 I   0  0  0  1  0  0  0  0  0  0  0  0
   -2.3756    6.8050   -0.4333 C   0  0  0  1  0  0  0  0  0  0  0  0
   -1.1209    6.3106   -0.1126 C   0  0  0  1  0  0  0  0  0  0  0  0
   -0.8055    4.9936   -0.3890 C   0  0  0  1  0  0  0  0  0  0  0  0
   -1.7459    4.1657   -0.9820 C   0  0  0  1  0  0  0  0  0  0  0  0
   -2.9970    4.6584   -1.3019 C   0  0  0  1  0  0  0  0  0  0  0  0
   -3.3131    5.9793   -1.0246 C   0  0  0  1  0  0  0  0  0  0  0  0
   -1.4039    2.7247   -1.2790 C   0  0  0  1  0  0  0  0  0  0  0  0
   -0.4168    6.9307    0.3360 H   0  0  0  1  0  0  0  0  0  0  0  0
    0.1372    4.6239   -0.1520 H   0  0  0  1  0  0  0  0  0  0  0  0
   -3.7011    4.0382   -1.7505 H   0  0  0  1  0  0  0  0  0  0  0  0
   -4.2558    6.3491   -1.2616 H   0  0  0  1  0  0  0  0  0  0  0  0
   -0.3688    2.5775   -1.0516 H   0  0  0  1  0  0  0  0  0  0  0  0
   -2.0010    2.1058   -0.6423 H   0  0  0  1  0  0  0  0  0  0  0  0
  1  4  1  0  0  0  0
  2  4  1  0  0  0  0
  2  5  2  0  0  0  0
  2  6  1  0  0  0  0
  3  4  1  0  0  0  0
  3  7  1  0  0  0  0
  3  8  1  0  0  0  0
  4 26  1  0  0  0  0
  6  9  1  0  0  0  0
  6 12  1  0  0  0  0
  8 10  1  0  0  0  0
  8 11  2  0  0  0  0
  9 13  1  0  0  0  0
  9 14  1  0  0  0  0
  9 15  1  0  0  0  0
 10 16  1  0  0  0  0
 10 17  1  0  0  0  0
 10 18  1  0  0  0  0
 19 20  1  0  0  0  0
 20 21  4  0  0  0  0
 20 25  4  0  0  0  0
 21 22  4  0  0  0  0
 21 27  1  0  0  0  0
 22 23  4  0  0  0  0
 22 28  1  0  0  0  0
 23 24  4  0  0  0  0
 23 26  1  0  0  0  0
 24 25  4  0  0  0  0
 24 29  1  0  0  0  0
 25 30  1  0  0  0  0
 26 31  1  0  0  0  0
 26 32  1  0  0  0  0
M  END
> <BCLConfClusterSize>
1

> <ConfClashScore>
0 

> <ConfOneFourInteractionScore>
-0.960318 

> <ConfScore>
0.144413 

> <ConfScorePBest>
0.00692245 

> <ConfTolerance>
0.311072 

> <RosettaParamsInstructions>
M  ROOT 3
M  POLY_N_BB 3
M  POLY_CA_BB 4
M  POLY_C_BB 2
M  POLY_O_BB 5
M  POLY_IGNORE 9 10 11 12 13 14 15 16 17 18 
M  POLY_UPPER 6
M  POLY_LOWER 8
M  POLY_CHG 0
M  POLY_PROPERTIES ALPHA_AA D_AA PROTEIN AROMATIC POLYMER 
M  END

$$$$



 32 32  0  0  0  0  0  0  0  0999 V2000
   -1.4816    0.7670   -0.5445 H   0  0  0  1  0  0  0  0  0  0  0  0
   -3.1462    1.7259    0.2946 C   0  0  0  1  0  0  0  0  0  0  0  0
   -0.7509    1.9923    0.9386 N   0  0  0  1  0  0  0  0  0  0  0  0
   -1.6941    1.7414   -0.1570 C   0  0  0  1  0  0  0  0  0  0  0  0
   -4.0603    1.2760   -0.3701 O   0  0  0  1  0  0  0  0  0  0  0  0
   -3.3894    2.2498    1.5057 N   0  0  0  1  0  0  0  0  0  0  0  0
   -0.1027    2.7239    0.8678 H   0  0  0  1  0  0  0  0  0  0  0  0
   -0.7740    1.2223    2.0371 C   0  0  0  1  0  0  0  0  0  0  0  0
   -4.7582    2.4244    1.9642 C   0  0  0  1  0  0  0  0  0  0  0  0
    0.3587    1.4436    3.0206 C   0  0  0  1  0  0  0  0  0  0  0  0
   -1.6484    0.3864    2.2496 O   0  0  0  1  0  0  0  0  0  0  0  0
   -2.6429    2.5154    2.0824 H   0  0  0  1  0  0  0  0  0  0  0  0
   -5.2709    3.0982    1.3099 H   0  0  0  1  0  0  0  0  0  0  0  0
   -4.7534    2.8253    2.9562 H   0  0  0  1  0  0  0  0  0  0  0  0
   -5.2576    1.4780    1.9638 H   0  0  0  1  0  0  0  0  0  0  0  0
    1.0248    2.1877    2.6367 H   0  0  0  1  0  0  0  0  0  0  0  0
    0.8920    0.5268    3.1622 H   0  0  0  1  0  0  0  0  0  0  0  0
   -0.0414    1.7723    3.9570 H   0  0  0  1  0  0  0  0  0  0  0  0
   -2.8298    8.8015   -0.0145 I   0  0  0  1  0  0  0  0  0  0  0  0
   -2.3639    6.8066   -0.4285 C   0  0  0  1  0  0  0  0  0  0  0  0
   -1.1110    6.3063   -0.1102 C   0  0  0  1  0  0  0  0  0  0  0  0
   -0.8016    4.9885   -0.3890 C   0  0  0  1  0  0  0  0  0  0  0  0
   -1.7462    4.1655   -0.9822 C   0  0  0  1  0  0  0  0  0  0  0  0
   -2.9956    4.6641   -1.2997 C   0  0  0  1  0  0  0  0  0  0  0  0
   -3.3057    5.9859   -1.0199 C   0  0  0  1  0  0  0  0  0  0  0  0
   -1.4108    2.7236   -1.2819 C   0  0  0  1  0  0  0  0  0  0  0  0
   -0.4036    6.9227    0.3385 H   0  0  0  1  0  0  0  0  0  0  0  0
    0.1398    4.6143   -0.1538 H   0  0  0  1  0  0  0  0  0  0  0  0
   -3.7029    4.0477   -1.7484 H   0  0  0  1  0  0  0  0  0  0  0  0
   -4.2471    6.3601   -1.2551 H   0  0  0  1  0  0  0  0  0  0  0  0
   -1.9822    2.4223   -2.1349 H   0  0  0  1  0  0  0  0  0  0  0  0
   -0.3676    2.6686   -1.5132 H   0  0  0  1  0  0  0  0  0  0  0  0
  1  4  1  0  0  0  0
  2  4  1  0  0  0  0
  2  5  2  0  0  0  0
  2  6  1  0  0  0  0
  3  4  1  0  0  0  0
  3  7  1  0  0  0  0
  3  8  1  0  0  0  0
  4 26  1  0  0  0  0
  6  9  1  0  0  0  0
  6 12  1  0  0  0  0
  8 10  1  0  0  0  0
  8 11  2  0  0  0  0
  9 13  1  0  0  0  0
  9 14  1  0  0  0  0
  9 15  1  0  0  0  0
 10 16  1  0  0  0  0
 10 17  1  0  0  0  0
 10 18  1  0  0  0  0
 19 20  1  0  0  0  0
 20 21  4  0  0  0  0
 20 25  4  0  0  0  0
 21 22  4  0  0  0  0
 21 27  1  0  0  0  0
 22 23  4  0  0  0  0
 22 28  1  0  0  0  0
 23 24  4  0  0  0  0
 23 26  1  0  0  0  0
 24 25  4  0  0  0  0
 24 29  1  0  0  0  0
 25 30  1  0  0  0  0
 26 31  1  0  0  0  0
 26 32  1  0  0  0  0
M  END
> <BCLConfClusterSize>
1

> <ConfClashScore>
0 

> <ConfOneFourInteractionScore>
-0.950605 

> <ConfScore>
0.146411 

> <ConfScorePBest>
0.00689397 

> <ConfTolerance>
0.237445 

> <RosettaParamsInstructions>
M  ROOT 3
M  POLY_N_BB 3
M  POLY_CA_BB 4
M  POLY_C_BB 2
M  POLY_O_BB 5
M  POLY_IGNORE 9 10 11 12 13 14 15 16 17 18 
M  POLY_UPPER 6
M  POLY_LOWER 8
M  POLY_CHG 0
M  POLY_PROPERTIES ALPHA_AA D_AA PROTEIN AROMATIC POLYMER 
M  END

$$$$



 32 32  0  0  0  0  0  0  0  0999 V2000
   -2.8692    1.7123   -0.2447 H   0  0  0  1  0  0  0  0  0  0  0  0
   -1.2955    2.0441    1.1083 C   0  0  0  1  0  0  0  0  0  0  0  0
   -1.3437    0.3822   -0.6716 N   0  0  0  1  0  0  0  0  0  0  0  0
   -1.8000    1.7250   -0.2855 C   0  0  0  1  0  0  0  0  0  0  0  0
   -0.1039    1.9255    1.3905 O   0  0  0  1  0  0  0  0  0  0  0  0
   -2.1825    2.4571    2.0181 N   0  0  0  1  0  0  0  0  0  0  0  0
   -0.7962    0.2825   -1.4782 H   0  0  0  1  0  0  0  0  0  0  0  0
   -1.6494   -0.7071    0.0390 C   0  0  0  1  0  0  0  0  0  0  0  0
   -1.7830    2.9237    3.3374 C   0  0  0  1  0  0  0  0  0  0  0  0
   -1.0063   -2.0189   -0.4189 C   0  0  0  1  0  0  0  0  0  0  0  0
   -2.3889   -0.7444    1.0101 O   0  0  0  1  0  0  0  0  0  0  0  0
   -3.1353    2.4453    1.7891 H   0  0  0  1  0  0  0  0  0  0  0  0
   -0.7648    3.2512    3.3072 H   0  0  0  1  0  0  0  0  0  0  0  0
   -1.8797    2.1248    4.0425 H   0  0  0  1  0  0  0  0  0  0  0  0
   -2.4108    3.7384    3.6324 H   0  0  0  1  0  0  0  0  0  0  0  0
   -0.8255   -1.9793   -1.4728 H   0  0  0  1  0  0  0  0  0  0  0  0
   -1.6644   -2.8338   -0.2005 H   0  0  0  1  0  0  0  0  0  0  0  0
   -0.0794   -2.1604    0.0966 H   0  0  0  1  0  0  0  0  0  0  0  0
   -2.8231    8.8071   -0.0353 I   0  0  0  1  0  0  0  0  0  0  0  0
   -2.3624    6.8074   -0.4319 C   0  0  0  1  0  0  0  0  0  0  0  0
   -1.1115    6.3061   -0.1074 C   0  0  0  1  0  0  0  0  0  0  0  0
   -0.8056    4.9851   -0.3748 C   0  0  0  1  0  0  0  0  0  0  0  0
   -1.7517    4.1600   -0.9627 C   0  0  0  1  0  0  0  0  0  0  0  0
   -2.9991    4.6597   -1.2863 C   0  0  0  1  0  0  0  0  0  0  0  0
   -3.3057    5.9847   -1.0181 C   0  0  0  1  0  0  0  0  0  0  0  0
   -1.3973    2.7414   -1.3414 C   0  0  0  1  0  0  0  0  0  0  0  0
   -0.4031    6.9241    0.3373 H   0  0  0  1  0  0  0  0  0  0  0  0
    0.1343    4.6101   -0.1349 H   0  0  0  1  0  0  0  0  0  0  0  0
   -3.7075    4.0417   -1.7311 H   0  0  0  1  0  0  0  0  0  0  0  0
   -4.2456    6.3597   -1.2579 H   0  0  0  1  0  0  0  0  0  0  0  0
   -1.8963    2.4983   -2.2561 H   0  0  0  1  0  0  0  0  0  0  0  0
   -0.3387    2.6817   -1.4853 H   0  0  0  1  0  0  0  0  0  0  0  0
  1  4  1  0  0  0  0
  2  4  1  0  0  0  0
  2  5  2  0  0  0  0
  2  6  1  0  0  0  0
  3  4  1  0  0  0  0
  3  7  1  0  0  0  0
  3  8  1  0  0  0  0
  4 26  1  0  0  0  0
  6  9  1  0  0  0  0
  6 12  1  0  0  0  0
  8 10  1  0  0  0  0
  8 11  2  0  0  0  0
  9 13  1  0  0  0  0
  9 14  1  0  0  0  0
  9 15  1  0  0  0  0
 10 16  1  0  0  0  0
 10 17  1  0  0  0  0
 10 18  1  0  0  0  0
 19 20  1  0  0  0  0
 20 21  4  0  0  0  0
 20 25  4  0  0  0  0
 21 22  4  0  0  0  0
 21 27  1  0  0  0  0
 22 23  4  0  0  0  0
 22 28  1  0  0  0  0
 23 24  4  0  0  0  0
 23 26  1  0  0  0  0
 24 25  4  0  0  0  0
 24 29  1  0  0  0  0
 25 30  1  0  0  0  0
 26 31  1  0  0  0  0
 26 32  1  0  0  0  0
M  END
> <BCLConfClusterSize>
1

> <ConfClashScore>
0 

> <ConfOneFourInteractionScore>
-0.985807 

> <ConfScore>
0.164063 

> <ConfScorePBest>
0.00686549 

> <ConfTolerance>
0.253349 

> <RosettaParamsInstructions>
M  ROOT 3
M  POLY_N_BB 3
M  POLY_CA_BB 4
M  POLY_C_BB 2
M  POLY_O_BB 5
M  POLY_IGNORE 9 10 11 12 13 14 15 16 17 18 
M  POLY_UPPER 6
M  POLY_LOWER 8
M  POLY_CHG 0
M  POLY_PROPERTIES ALPHA_AA D_AA PROTEIN AROMATIC POLYMER 
M  END

$$$$



 32 32  0  0  0  0  0  0  0  0999 V2000
   -3.3877    2.1983   -1.7778 H   0  0  0  1  0  0  0  0  0  0  0  0
   -2.2313    0.5782   -2.4105 C   0  0  0  1  0  0  0  0  0  0  0  0
   -2.4452    2.7592   -3.5242 N   0  0  0  1  0  0  0  0  0  0  0  0
   -2.4234    2.0660   -2.2222 C   0  0  0  1  0  0  0  0  0  0  0  0
   -2.5309    0.0082   -3.4438 O   0  0  0  1  0  0  0  0  0  0  0  0
   -1.7148   -0.1416   -1.4105 N   0  0  0  1  0  0  0  0  0  0  0  0
   -3.1417    3.4337   -3.6668 H   0  0  0  1  0  0  0  0  0  0  0  0
   -1.5883    2.5371   -4.5221 C   0  0  0  1  0  0  0  0  0  0  0  0
   -1.6956   -1.5966   -1.4290 C   0  0  0  1  0  0  0  0  0  0  0  0
   -1.8377    3.3263   -5.7925 C   0  0  0  1  0  0  0  0  0  0  0  0
   -0.6498    1.7463   -4.4356 O   0  0  0  1  0  0  0  0  0  0  0  0
   -1.3356    0.3266   -0.6375 H   0  0  0  1  0  0  0  0  0  0  0  0
   -2.4499   -1.9553   -2.0978 H   0  0  0  1  0  0  0  0  0  0  0  0
   -1.8868   -1.9682   -0.4440 H   0  0  0  1  0  0  0  0  0  0  0  0
   -0.7361   -1.9363   -1.7589 H   0  0  0  1  0  0  0  0  0  0  0  0
   -2.8913    3.4231   -5.9519 H   0  0  0  1  0  0  0  0  0  0  0  0
   -1.3973    2.8143   -6.6225 H   0  0  0  1  0  0  0  0  0  0  0  0
   -1.4005    4.2985   -5.6998 H   0  0  0  1  0  0  0  0  0  0  0  0
   -2.8828    8.7926   -0.0369 I   0  0  0  1  0  0  0  0  0  0  0  0
   -2.3514    6.8085   -0.4233 C   0  0  0  1  0  0  0  0  0  0  0  0
   -1.1003    6.3019   -0.1075 C   0  0  0  1  0  0  0  0  0  0  0  0
   -0.7974    4.9832   -0.3890 C   0  0  0  1  0  0  0  0  0  0  0  0
   -1.7466    4.1656   -0.9823 C   0  0  0  1  0  0  0  0  0  0  0  0
   -2.9941    4.6705   -1.2972 C   0  0  0  1  0  0  0  0  0  0  0  0
   -3.2978    5.9932   -1.0148 C   0  0  0  1  0  0  0  0  0  0  0  0
   -1.4183    2.7227   -1.2849 C   0  0  0  1  0  0  0  0  0  0  0  0
   -0.3895    6.9143    0.3413 H   0  0  0  1  0  0  0  0  0  0  0  0
    0.1426    4.6042   -0.1557 H   0  0  0  1  0  0  0  0  0  0  0  0
   -3.7049    4.0581   -1.7460 H   0  0  0  1  0  0  0  0  0  0  0  0
   -4.2378    6.3722   -1.2481 H   0  0  0  1  0  0  0  0  0  0  0  0
   -0.4509    2.6818   -1.7403 H   0  0  0  1  0  0  0  0  0  0  0  0
   -1.4034    2.1766   -0.3649 H   0  0  0  1  0  0  0  0  0  0  0  0
  1  4  1  0  0  0  0
  2  4  1  0  0  0  0
  2  5  2  0  0  0  0
  2  6  1  0  0  0  0
  3  4  1  0  0  0  0
  3  7  1  0  0  0  0
  3  8  1  0  0  0  0
  4 26  1  0  0  0  0
  6  9  1  0  0  0  0
  6 12  1  0  0  0  0
  8 10  1  0  0  0  0
  8 11  2  0  0  0  0
  9 13  1  0  0  0  0
  9 14  1  0  0  0  0
  9 15  1  0  0  0  0
 10 16  1  0  0  0  0
 10 17  1  0  0  0  0
 10 18  1  0  0  0  0
 19 20  1  0  0  0  0
 20 21  4  0  0  0  0
 20 25  4  0  0  0  0
 21 22  4  0  0  0  0
 21 27  1  0  0  0  0
 22 23  4  0  0  0  0
 22 28  1  0  0  0  0
 23 24  4  0  0  0  0
 23 26  1  0  0  0  0
 24 25  4  0  0  0  0
 24 29  1  0  0  0  0
 25 30  1  0  0  0  0
 26 31  1  0  0  0  0
 26 32  1  0  0  0  0
M  END
> <BCLConfClusterSize>
1

> <ConfClashScore>
0 

> <ConfOneFourInteractionScore>
-0.922618 

> <ConfScore>
0.164731 

> <ConfScorePBest>
0.00683701 

> <ConfTolerance>
0.378827 

> <RosettaParamsInstructions>
M  ROOT 3
M  POLY_N_BB 3
M  POLY_CA_BB 4
M  POLY_C_BB 2
M  POLY_O_BB 5
M  POLY_IGNORE 9 10 11 12 13 14 15 16 17 18 
M  POLY_UPPER 6
M  POLY_LOWER 8
M  POLY_CHG 0
M  POLY_PROPERTIES ALPHA_AA D_AA PROTEIN AROMATIC POLYMER 
M  END

$$$$



 32 32  0  0  0  0  0  0  0  0999 V2000
   -0.2391    2.3213    0.4072 H   0  0  0  1  0  0  0  0  0  0  0  0
   -0.8341    0.4376   -0.2884 C   0  0  0  1  0  0  0  0  0  0  0  0
   -2.2122    2.0630    0.9495 N   0  0  0  1  0  0  0  0  0  0  0  0
   -1.1224    1.9073   -0.0326 C   0  0  0  1  0  0  0  0  0  0  0  0
   -1.0110   -0.4454    0.5347 O   0  0  0  1  0  0  0  0  0  0  0  0
   -0.3575    0.1366   -1.5060 N   0  0  0  1  0  0  0  0  0  0  0  0
   -2.2113    2.8477    1.5365 H   0  0  0  1  0  0  0  0  0  0  0  0
   -3.2002    1.1715    1.0664 C   0  0  0  1  0  0  0  0  0  0  0  0
   -0.0646   -1.2456   -1.8549 C   0  0  0  1  0  0  0  0  0  0  0  0
   -4.1813    1.4199    2.1955 C   0  0  0  1  0  0  0  0  0  0  0  0
   -3.3223    0.2064    0.3167 O   0  0  0  1  0  0  0  0  0  0  0  0
   -0.2064    0.8490   -2.1618 H   0  0  0  1  0  0  0  0  0  0  0  0
   -0.6746   -1.8993   -1.2672 H   0  0  0  1  0  0  0  0  0  0  0  0
    0.9675   -1.4510   -1.6611 H   0  0  0  1  0  0  0  0  0  0  0  0
   -0.2712   -1.4026   -2.8929 H   0  0  0  1  0  0  0  0  0  0  0  0
   -5.0270    0.7741    2.0824 H   0  0  0  1  0  0  0  0  0  0  0  0
   -4.5052    2.4393    2.1685 H   0  0  0  1  0  0  0  0  0  0  0  0
   -3.7042    1.2215    3.1324 H   0  0  0  1  0  0  0  0  0  0  0  0
   -2.8298    8.8015   -0.0145 I   0  0  0  1  0  0  0  0  0  0  0  0
   -2.3639    6.8066   -0.4285 C   0  0  0  1  0  0  0  0  0  0  0  0
   -1.1110    6.3063   -0.1102 C   0  0  0  1  0  0  0  0  0  0  0  0
   -0.8016    4.9885   -0.3890 C   0  0  0  1  0  0  0  0  0  0  0  0
   -1.7462    4.1655   -0.9822 C   0  0  0  1  0  0  0  0  0  0  0  0
   -2.9956    4.6641   -1.2997 C   0  0  0  1  0  0  0  0  0  0  0  0
   -3.3057    5.9859   -1.0199 C   0  0  0  1  0  0  0  0  0  0  0  0
   -1.4108    2.7236   -1.2819 C   0  0  0  1  0  0  0  0  0  0  0  0
   -0.4036    6.9227    0.3385 H   0  0  0  1  0  0  0  0  0  0  0  0
    0.1398    4.6143   -0.1538 H   0  0  0  1  0  0  0  0  0  0  0  0
   -3.7029    4.0477   -1.7484 H   0  0  0  1  0  0  0  0  0  0  0  0
   -4.2471    6.3601   -1.2551 H   0  0  0  1  0  0  0  0  0  0  0  0
   -2.2391    2.2807   -1.7944 H   0  0  0  1  0  0  0  0  0  0  0  0
   -0.5464    2.6989   -1.9120 H   0  0  0  1  0  0  0  0  0  0  0  0
  1  4  1  0  0  0  0
  2  4  1  0  0  0  0
  2  5  2  0  0  0  0
  2  6  1  0  0  0  0
  3  4  1  0  0  0  0
  3  7  1  0  0  0  0
  3  8  1  0  0  0  0
  4 26  1  0  0  0  0
  6  9  1  0  0  0  0
  6 12  1  0  0  0  0
  8 10  1  0  0  0  0
  8 11  2  0  0  0  0
  9 13  1  0  0  0  0
  9 14  1  0  0  0  0
  9 15  1  0  0  0  0
 10 16  1  0  0  0  0
 10 17  1  0  0  0  0
 10 18  1  0  0  0  0
 19 20  1  0  0  0  0
 20 21  4  0  0  0  0
 20 25  4  0  0  0  0
 21 22  4  0  0  0  0
 21 27  1  0  0  0  0
 22 23  4  0  0  0  0
 22 28  1  0  0  0  0
 23 24  4  0  0  0  0
 23 26  1  0  0  0  0
 24 25  4  0  0  0  0
 24 29  1  0  0  0  0
 25 30  1  0  0  0  0
 26 31  1  0  0  0  0
 26 32  1  0  0  0  0
M  END
> <BCLConfClusterSize>
1

> <ConfClashScore>
0 

> <ConfOneFourInteractionScore>
-0.933935 

> <ConfScore>
0.17171 

> <ConfScorePBest>
0.00680853 

> <ConfTolerance>
0.350926 

> <RosettaParamsInstructions>
M  ROOT 3
M  POLY_N_BB 3
M  POLY_CA_BB 4
M  POLY_C_BB 2
M  POLY_O_BB 5
M  POLY_IGNORE 9 10 11 12 13 14 15 16 17 18 
M  POLY_UPPER 6
M  POLY_LOWER 8
M  POLY_CHG 0
M  POLY_PROPERTIES ALPHA_AA D_AA PROTEIN AROMATIC POLYMER 
M  END

$$$$



 32 32  0  0  0  0  0  0  0  0999 V2000
   -0.0311    1.6547   -2.5593 H   0  0  0  1  0  0  0  0  0  0  0  0
    1.0690    3.2164   -1.6815 C   0  0  0  1  0  0  0  0  0  0  0  0
   -0.5122    3.3835   -3.5665 N   0  0  0  1  0  0  0  0  0  0  0  0
   -0.1971    2.6862   -2.3286 C   0  0  0  1  0  0  0  0  0  0  0  0
    1.5176    2.7510   -0.6498 O   0  0  0  1  0  0  0  0  0  0  0  0
    1.7187    4.2301   -2.2606 N   0  0  0  1  0  0  0  0  0  0  0  0
   -1.3349    3.9139   -3.6143 H   0  0  0  1  0  0  0  0  0  0  0  0
    0.2845    3.3256   -4.6445 C   0  0  0  1  0  0  0  0  0  0  0  0
    2.9154    4.8198   -1.6793 C   0  0  0  1  0  0  0  0  0  0  0  0
   -0.2061    3.9607   -5.9259 C   0  0  0  1  0  0  0  0  0  0  0  0
    1.3821    2.7727   -4.5944 O   0  0  0  1  0  0  0  0  0  0  0  0
    1.3775    4.5890   -3.1063 H   0  0  0  1  0  0  0  0  0  0  0  0
    2.7156    5.1111   -0.6693 H   0  0  0  1  0  0  0  0  0  0  0  0
    3.2016    5.6796   -2.2482 H   0  0  0  1  0  0  0  0  0  0  0  0
    3.7090    4.1022   -1.6928 H   0  0  0  1  0  0  0  0  0  0  0  0
   -1.1614    3.5532   -6.1835 H   0  0  0  1  0  0  0  0  0  0  0  0
    0.4908    3.7603   -6.7126 H   0  0  0  1  0  0  0  0  0  0  0  0
   -0.2951    5.0181   -5.7883 H   0  0  0  1  0  0  0  0  0  0  0  0
   -2.7803    8.8257   -0.0937 I   0  0  0  1  0  0  0  0  0  0  0  0
   -2.3766    6.7991   -0.4069 C   0  0  0  1  0  0  0  0  0  0  0  0
   -1.1219    6.3024   -0.0901 C   0  0  0  1  0  0  0  0  0  0  0  0
   -0.8073    4.9869   -0.3741 C   0  0  0  1  0  0  0  0  0  0  0  0
   -1.7486    4.1627   -0.9708 C   0  0  0  1  0  0  0  0  0  0  0  0
   -2.9997    4.6577   -1.2868 C   0  0  0  1  0  0  0  0  0  0  0  0
   -3.3151    5.9772   -1.0019 C   0  0  0  1  0  0  0  0  0  0  0  0
   -1.3849    2.7513   -1.3674 C   0  0  0  1  0  0  0  0  0  0  0  0
   -0.4170    6.9197    0.3613 H   0  0  0  1  0  0  0  0  0  0  0  0
    0.1355    4.6154   -0.1401 H   0  0  0  1  0  0  0  0  0  0  0  0
   -3.7045    4.0403   -1.7382 H   0  0  0  1  0  0  0  0  0  0  0  0
   -4.2578    6.3486   -1.2359 H   0  0  0  1  0  0  0  0  0  0  0  0
   -1.1379    2.2020   -0.4830 H   0  0  0  1  0  0  0  0  0  0  0  0
   -2.2321    2.3019   -1.8420 H   0  0  0  1  0  0  0  0  0  0  0  0
  1  4  1  0  0  0  0
  2  4  1  0  0  0  0
  2  5  2  0  0  0  0
  2  6  1  0  0  0  0
  3  4  1  0  0  0  0
  3  7  1  0  0  0  0
  3  8  1  0  0  0  0
  4 26  1  0  0  0  0
  6  9  1  0  0  0  0
  6 12  1  0  0  0  0
  8 10  1  0  0  0  0
  8 11  2  0  0  0  0
  9 13  1  0  0  0  0
  9 14  1  0  0  0  0
  9 15  1  0  0  0  0
 10 16  1  0  0  0  0
 10 17  1  0  0  0  0
 10 18  1  0  0  0  0
 19 20  1  0  0  0  0
 20 21  4  0  0  0  0
 20 25  4  0  0  0  0
 21 22  4  0  0  0  0
 21 27  1  0  0  0  0
 22 23  4  0  0  0  0
 22 28  1  0  0  0  0
 23 24  4  0  0  0  0
 23 26  1  0  0  0  0
 24 25  4  0  0  0  0
 24 29  1  0  0  0  0
 25 30  1  0  0  0  0
 26 31  1  0  0  0  0
 26 32  1  0  0  0  0
M  END
> <BCLConfClusterSize>
1

> <ConfClashScore>
0 

> <ConfOneFourInteractionScore>
-0.950605 

> <ConfScore>
0.174629 

> <ConfScorePBest>
0.00678005 

> <ConfTolerance>
0.223531 

> <RosettaParamsInstructions>
M  ROOT 3
M  POLY_N_BB 3
M  POLY_CA_BB 4
M  POLY_C_BB 2
M  POLY_O_BB 5
M  POLY_IGNORE 9 10 11 12 13 14 15 16 17 18 
M  POLY_UPPER 6
M  POLY_LOWER 8
M  POLY_CHG 0
M  POLY_PROPERTIES ALPHA_AA D_AA PROTEIN AROMATIC POLYMER 
M  END

$$$$



 32 32  0  0  0  0  0  0  0  0999 V2000
    0.6406    2.7692   -1.5707 H   0  0  0  1  0  0  0  0  0  0  0  0
   -0.1761    3.4343   -3.3842 C   0  0  0  1  0  0  0  0  0  0  0  0
   -0.0981    1.1348   -2.6005 N   0  0  0  1  0  0  0  0  0  0  0  0
   -0.2137    2.5356   -2.1710 C   0  0  0  1  0  0  0  0  0  0  0  0
    0.8549    3.6038   -4.0152 O   0  0  0  1  0  0  0  0  0  0  0  0
   -1.3326    4.0188   -3.7096 N   0  0  0  1  0  0  0  0  0  0  0  0
   -0.8714    0.5481   -2.4652 H   0  0  0  1  0  0  0  0  0  0  0  0
    0.9987    0.6080   -3.1660 C   0  0  0  1  0  0  0  0  0  0  0  0
   -1.4312    5.0096   -4.7710 C   0  0  0  1  0  0  0  0  0  0  0  0
    0.8800   -0.8358   -3.6140 C   0  0  0  1  0  0  0  0  0  0  0  0
    2.0409    1.2393   -3.3194 O   0  0  0  1  0  0  0  0  0  0  0  0
   -2.1426    3.7718   -3.2165 H   0  0  0  1  0  0  0  0  0  0  0  0
   -2.4593    5.2571   -4.9342 H   0  0  0  1  0  0  0  0  0  0  0  0
   -1.0135    4.6101   -5.6715 H   0  0  0  1  0  0  0  0  0  0  0  0
   -0.8933    5.8901   -4.4878 H   0  0  0  1  0  0  0  0  0  0  0  0
    0.1299   -0.9137   -4.3730 H   0  0  0  1  0  0  0  0  0  0  0  0
    0.6072   -1.4468   -2.7791 H   0  0  0  1  0  0  0  0  0  0  0  0
    1.8194   -1.1656   -4.0061 H   0  0  0  1  0  0  0  0  0  0  0  0
   -2.7856    8.8071    0.0035 I   0  0  0  1  0  0  0  0  0  0  0  0
   -2.3748    6.8050   -0.4330 C   0  0  0  1  0  0  0  0  0  0  0  0
   -1.1190    6.3146   -0.1107 C   0  0  0  1  0  0  0  0  0  0  0  0
   -0.7994    4.9983   -0.3853 C   0  0  0  1  0  0  0  0  0  0  0  0
   -1.7368    4.1669   -0.9783 C   0  0  0  1  0  0  0  0  0  0  0  0
   -2.9891    4.6556   -1.2997 C   0  0  0  1  0  0  0  0  0  0  0  0
   -3.3094    5.9759   -1.0243 C   0  0  0  1  0  0  0  0  0  0  0  0
   -1.4473    2.7191   -1.2968 C   0  0  0  1  0  0  0  0  0  0  0  0
   -0.4171    6.9374    0.3378 H   0  0  0  1  0  0  0  0  0  0  0  0
    0.1442    4.6317   -0.1471 H   0  0  0  1  0  0  0  0  0  0  0  0
   -3.6909    4.0329   -1.7483 H   0  0  0  1  0  0  0  0  0  0  0  0
   -4.2530    6.3426   -1.2625 H   0  0  0  1  0  0  0  0  0  0  0  0
   -1.2951    2.1921   -0.3781 H   0  0  0  1  0  0  0  0  0  0  0  0
   -2.2919    2.3076   -1.8089 H   0  0  0  1  0  0  0  0  0  0  0  0
  1  4  1  0  0  0  0
  2  4  1  0  0  0  0
  2  5  2  0  0  0  0
  2  6  1  0  0  0  0
  3  4  1  0  0  0  0
  3  7  1  0  0  0  0
  3  8  1  0  0  0  0
  4 26  1  0  0  0  0
  6  9  1  0  0  0  0
  6 12  1  0  0  0  0
  8 10  1  0  0  0  0
  8 11  2  0  0  0  0
  9 13  1  0  0  0  0
  9 14  1  0  0  0  0
  9 15  1  0  0  0  0
 10 16  1  0  0  0  0
 10 17  1  0  0  0  0
 10 18  1  0  0  0  0
 19 20  1  0  0  0  0
 20 21  4  0  0  0  0
 20 25  4  0  0  0  0
 21 22  4  0  0  0  0
 21 27  1  0  0  0  0
 22 23  4  0  0  0  0
 22 28  1  0  0  0  0
 23 24  4  0  0  0  0
 23 26  1  0  0  0  0
 24 25  4  0  0  0  0
 24 29  1  0  0  0  0
 25 30  1  0  0  0  0
 26 31  1  0  0  0  0
 26 32  1  0  0  0  0
M  END
> <BCLConfClusterSize>
1

> <ConfClashScore>
0 

> <ConfOneFourInteractionScore>
-0.952541 

> <ConfScore>
0.177031 

> <ConfScorePBest>
0.00675157 

> <ConfTolerance>
0.430115 

> <RosettaParamsInstructions>
M  ROOT 3
M  POLY_N_BB 3
M  POLY_CA_BB 4
M  POLY_C_BB 2
M  POLY_O_BB 5
M  POLY_IGNORE 9 10 11 12 13 14 15 16 17 18 
M  POLY_UPPER 6
M  POLY_LOWER 8
M  POLY_CHG 0
M  POLY_PROPERTIES ALPHA_AA D_AA PROTEIN AROMATIC POLYMER 
M  END

$$$$



 32 32  0  0  0  0  0  0  0  0999 V2000
   -2.3423    1.8226    0.3644 H   0  0  0  1  0  0  0  0  0  0  0  0
   -1.7428    0.2688   -0.9204 C   0  0  0  1  0  0  0  0  0  0  0  0
   -3.6580    1.7948   -1.2163 N   0  0  0  1  0  0  0  0  0  0  0  0
   -2.3080    1.6607   -0.6927 C   0  0  0  1  0  0  0  0  0  0  0  0
   -2.4881   -0.6924   -1.1055 O   0  0  0  1  0  0  0  0  0  0  0  0
   -0.4093    0.1206   -0.9134 N   0  0  0  1  0  0  0  0  0  0  0  0
   -4.3186    2.3336   -0.7329 H   0  0  0  1  0  0  0  0  0  0  0  0
   -4.0029    1.1791   -2.3662 C   0  0  0  1  0  0  0  0  0  0  0  0
    0.2310   -1.1669   -1.1379 C   0  0  0  1  0  0  0  0  0  0  0  0
   -5.4294    1.4011   -2.8300 C   0  0  0  1  0  0  0  0  0  0  0  0
   -3.2250    0.4798   -3.0097 O   0  0  0  1  0  0  0  0  0  0  0  0
    0.1531    0.9066   -0.7514 H   0  0  0  1  0  0  0  0  0  0  0  0
   -0.2817   -1.6895   -1.9183 H   0  0  0  1  0  0  0  0  0  0  0  0
    0.1945   -1.7448   -0.2382 H   0  0  0  1  0  0  0  0  0  0  0  0
    1.2509   -1.0129   -1.4224 H   0  0  0  1  0  0  0  0  0  0  0  0
   -6.0785    1.4444   -1.9805 H   0  0  0  1  0  0  0  0  0  0  0  0
   -5.7273    0.5935   -3.4655 H   0  0  0  1  0  0  0  0  0  0  0  0
   -5.4889    2.3222   -3.3713 H   0  0  0  1  0  0  0  0  0  0  0  0
   -2.8298    8.8015   -0.0145 I   0  0  0  1  0  0  0  0  0  0  0  0
   -2.3639    6.8066   -0.4285 C   0  0  0  1  0  0  0  0  0  0  0  0
   -1.1109    6.3063   -0.1102 C   0  0  0  1  0  0  0  0  0  0  0  0
   -0.8016    4.9885   -0.3890 C   0  0  0  1  0  0  0  0  0  0  0  0
   -1.7462    4.1655   -0.9822 C   0  0  0  1  0  0  0  0  0  0  0  0
   -2.9956    4.6641   -1.2997 C   0  0  0  1  0  0  0  0  0  0  0  0
   -3.3057    5.9859   -1.0199 C   0  0  0  1  0  0  0  0  0  0  0  0
   -1.4108    2.7236   -1.2819 C   0  0  0  1  0  0  0  0  0  0  0  0
   -0.4036    6.9227    0.3385 H   0  0  0  1  0  0  0  0  0  0  0  0
    0.1398    4.6143   -0.1538 H   0  0  0  1  0  0  0  0  0  0  0  0
   -3.7029    4.0477   -1.7484 H   0  0  0  1  0  0  0  0  0  0  0  0
   -4.2471    6.3601   -1.2551 H   0  0  0  1  0  0  0  0  0  0  0  0
   -1.4294    2.6049   -2.3451 H   0  0  0  1  0  0  0  0  0  0  0  0
   -0.4203    2.5433   -0.9196 H   0  0  0  1  0  0  0  0  0  0  0  0
  1  4  1  0  0  0  0
  2  4  1  0  0  0  0
  2  5  2  0  0  0  0
  2  6  1  0  0  0  0
  3  4  1  0  0  0  0
  3  7  1  0  0  0  0
  3  8  1  0  0  0  0
  4 26  1  0  0  0  0
  6  9  1  0  0  0  0
  6 12  1  0  0  0  0
  8 10  1  0  0  0  0
  8 11  2  0  0  0  0
  9 13  1  0  0  0  0
  9 14  1  0  0  0  0
  9 15  1  0  0  0  0
 10 16  1  0  0  0  0
 10 17  1  0  0  0  0
 10 18  1  0  0  0  0
 19 20  1  0  0  0  0
 20 21  4  0  0  0  0
 20 25  4  0  0  0  0
 21 22  4  0  0  0  0
 21 27  1  0  0  0  0
 22 23  4  0  0  0  0
 22 28  1  0  0  0  0
 23 24  4  0  0  0  0
 23 26  1  0  0  0  0
 24 25  4  0  0  0  0
 24 29  1  0  0  0  0
 25 30  1  0  0  0  0
 26 31  1  0  0  0  0
 26 32  1  0  0  0  0
M  END
> <BCLConfClusterSize>
1

> <ConfClashScore>
0 

> <ConfOneFourInteractionScore>
-0.930059 

> <ConfScore>
0.178531 

> <ConfScorePBest>
0.00672309 

> <ConfTolerance>
0.35183 

> <RosettaParamsInstructions>
M  ROOT 3
M  POLY_N_BB 3
M  POLY_CA_BB 4
M  POLY_C_BB 2
M  POLY_O_BB 5
M  POLY_IGNORE 9 10 11 12 13 14 15 16 17 18 
M  POLY_UPPER 6
M  POLY_LOWER 8
M  POLY_CHG 0
M  POLY_PROPERTIES ALPHA_AA D_AA PROTEIN AROMATIC POLYMER 
M  END

$$$$



 32 32  0  0  0  0  0  0  0  0999 V2000
   -0.3311    1.5493   -2.6845 H   0  0  0  1  0  0  0  0  0  0  0  0
    0.3813    3.5496   -2.8493 C   0  0  0  1  0  0  0  0  0  0  0  0
   -1.7360    2.7072   -3.7079 N   0  0  0  1  0  0  0  0  0  0  0  0
   -0.7426    2.5358   -2.6376 C   0  0  0  1  0  0  0  0  0  0  0  0
    1.5428    3.3049   -2.5679 O   0  0  0  1  0  0  0  0  0  0  0  0
    0.0867    4.7482   -3.3607 N   0  0  0  1  0  0  0  0  0  0  0  0
   -2.6876    2.7106   -3.4738 H   0  0  0  1  0  0  0  0  0  0  0  0
   -1.3870    2.8581   -4.9865 C   0  0  0  1  0  0  0  0  0  0  0  0
    1.1117    5.7315   -3.6775 C   0  0  0  1  0  0  0  0  0  0  0  0
   -2.5273    3.0166   -6.0001 C   0  0  0  1  0  0  0  0  0  0  0  0
   -0.2182    2.9510   -5.3592 O   0  0  0  1  0  0  0  0  0  0  0  0
   -0.8523    4.9732   -3.5283 H   0  0  0  1  0  0  0  0  0  0  0  0
    1.9486    5.5981   -3.0243 H   0  0  0  1  0  0  0  0  0  0  0  0
    0.7129    6.7161   -3.5494 H   0  0  0  1  0  0  0  0  0  0  0  0
    1.4273    5.6031   -4.6918 H   0  0  0  1  0  0  0  0  0  0  0  0
   -2.4809    2.2235   -6.7169 H   0  0  0  1  0  0  0  0  0  0  0  0
   -2.4300    3.9567   -6.5019 H   0  0  0  1  0  0  0  0  0  0  0  0
   -3.4665    2.9803   -5.4887 H   0  0  0  1  0  0  0  0  0  0  0  0
   -2.8298    8.8015   -0.0145 I   0  0  0  1  0  0  0  0  0  0  0  0
   -2.3639    6.8066   -0.4285 C   0  0  0  1  0  0  0  0  0  0  0  0
   -1.1110    6.3063   -0.1102 C   0  0  0  1  0  0  0  0  0  0  0  0
   -0.8016    4.9885   -0.3890 C   0  0  0  1  0  0  0  0  0  0  0  0
   -1.7462    4.1655   -0.9822 C   0  0  0  1  0  0  0  0  0  0  0  0
   -2.9956    4.6641   -1.2997 C   0  0  0  1  0  0  0  0  0  0  0  0
   -3.3057    5.9859   -1.0199 C   0  0  0  1  0  0  0  0  0  0  0  0
   -1.4108    2.7236   -1.2819 C   0  0  0  1  0  0  0  0  0  0  0  0
   -0.4036    6.9227    0.3385 H   0  0  0  1  0  0  0  0  0  0  0  0
    0.1398    4.6143   -0.1538 H   0  0  0  1  0  0  0  0  0  0  0  0
   -3.7029    4.0477   -1.7484 H   0  0  0  1  0  0  0  0  0  0  0  0
   -4.2471    6.3601   -1.2551 H   0  0  0  1  0  0  0  0  0  0  0  0
   -0.7484    2.3632   -0.5228 H   0  0  0  1  0  0  0  0  0  0  0  0
   -2.3159    2.1531   -1.2664 H   0  0  0  1  0  0  0  0  0  0  0  0
  1  4  1  0  0  0  0
  2  4  1  0  0  0  0
  2  5  2  0  0  0  0
  2  6  1  0  0  0  0
  3  4  1  0  0  0  0
  3  7  1  0  0  0  0
  3  8  1  0  0  0  0
  4 26  1  0  0  0  0
  6  9  1  0  0  0  0
  6 12  1  0  0  0  0
  8 10  1  0  0  0  0
  8 11  2  0  0  0  0
  9 13  1  0  0  0  0
  9 14  1  0  0  0  0
  9 15  1  0  0  0  0
 10 16  1  0  0  0  0
 10 17  1  0  0  0  0
 10 18  1  0  0  0  0
 19 20  1  0  0  0  0
 20 21  4  0  0  0  0
 20 25  4  0  0  0  0
 21 22  4  0  0  0  0
 21 27  1  0  0  0  0
 22 23  4  0  0  0  0
 22 28  1  0  0  0  0
 23 24  4  0  0  0  0
 23 26  1  0  0  0  0
 24 25  4  0  0  0  0
 24 29  1  0  0  0  0
 25 30  1  0  0  0  0
 26 31  1  0  0  0  0
 26 32  1  0  0  0  0
M  END
> <BCLConfClusterSize>
1

> <ConfClashScore>
0 

> <ConfOneFourInteractionScore>
-0.957074 

> <ConfScore>
0.184101 

> <ConfScorePBest>
0.0066946 

> <ConfTolerance>
0.297766 

> <RosettaParamsInstructions>
M  ROOT 3
M  POLY_N_BB 3
M  POLY_CA_BB 4
M  POLY_C_BB 2
M  POLY_O_BB 5
M  POLY_IGNORE 9 10 11 12 13 14 15 16 17 18 
M  POLY_UPPER 6
M  POLY_LOWER 8
M  POLY_CHG 0
M  POLY_PROPERTIES ALPHA_AA D_AA PROTEIN AROMATIC POLYMER 
M  END

$$$$



 32 32  0  0  0  0  0  0  0  0999 V2000
   -1.3421    2.8718   -3.3575 H   0  0  0  1  0  0  0  0  0  0  0  0
   -0.5065    1.0152   -2.8220 C   0  0  0  1  0  0  0  0  0  0  0  0
    0.5401    3.2727   -2.6530 N   0  0  0  1  0  0  0  0  0  0  0  0
   -0.6919    2.5128   -2.5873 C   0  0  0  1  0  0  0  0  0  0  0  0
   -1.3749    0.3459   -3.3569 O   0  0  0  1  0  0  0  0  0  0  0  0
    0.6605    0.4996   -2.4042 N   0  0  0  1  0  0  0  0  0  0  0  0
    0.8913    3.6397   -1.8150 H   0  0  0  1  0  0  0  0  0  0  0  0
    1.2594    3.5197   -3.8124 C   0  0  0  1  0  0  0  0  0  0  0  0
    0.9533   -0.9238   -2.4812 C   0  0  0  1  0  0  0  0  0  0  0  0
    2.5328    4.3135   -3.7267 C   0  0  0  1  0  0  0  0  0  0  0  0
    0.8335    3.0834   -4.8658 O   0  0  0  1  0  0  0  0  0  0  0  0
    1.3387    1.1027   -2.0346 H   0  0  0  1  0  0  0  0  0  0  0  0
    0.8612   -1.2532   -3.4951 H   0  0  0  1  0  0  0  0  0  0  0  0
    0.2630   -1.4634   -1.8670 H   0  0  0  1  0  0  0  0  0  0  0  0
    1.9511   -1.1015   -2.1380 H   0  0  0  1  0  0  0  0  0  0  0  0
    2.3095    5.3154   -3.4248 H   0  0  0  1  0  0  0  0  0  0  0  0
    3.0090    4.3277   -4.6848 H   0  0  0  1  0  0  0  0  0  0  0  0
    3.1864    3.8624   -3.0096 H   0  0  0  1  0  0  0  0  0  0  0  0
   -2.8698    8.7776    0.0433 I   0  0  0  1  0  0  0  0  0  0  0  0
   -2.3501    6.8152   -0.4536 C   0  0  0  1  0  0  0  0  0  0  0  0
   -1.1010    6.3104   -0.1275 C   0  0  0  1  0  0  0  0  0  0  0  0
   -0.8001    4.9872   -0.3896 C   0  0  0  1  0  0  0  0  0  0  0  0
   -1.7495    4.1634   -0.9739 C   0  0  0  1  0  0  0  0  0  0  0  0
   -2.9951    4.6664   -1.2992 C   0  0  0  1  0  0  0  0  0  0  0  0
   -3.2966    5.9936   -1.0362 C   0  0  0  1  0  0  0  0  0  0  0  0
   -1.4234    2.7156   -1.2553 C   0  0  0  1  0  0  0  0  0  0  0  0
   -0.3901    6.9276    0.3146 H   0  0  0  1  0  0  0  0  0  0  0  0
    0.1385    4.6097   -0.1485 H   0  0  0  1  0  0  0  0  0  0  0  0
   -3.7059    4.0492   -1.7412 H   0  0  0  1  0  0  0  0  0  0  0  0
   -4.2352    6.3711   -1.2773 H   0  0  0  1  0  0  0  0  0  0  0  0
   -0.8022    2.3468   -0.4661 H   0  0  0  1  0  0  0  0  0  0  0  0
   -2.3371    2.1594   -1.2804 H   0  0  0  1  0  0  0  0  0  0  0  0
  1  4  1  0  0  0  0
  2  4  1  0  0  0  0
  2  5  2  0  0  0  0
  2  6  1  0  0  0  0
  3  4  1  0  0  0  0
  3  7  1  0  0  0  0
  3  8  1  0  0  0  0
  4 26  1  0  0  0  0
  6  9  1  0  0  0  0
  6 12  1  0  0  0  0
  8 10  1  0  0  0  0
  8 11  2  0  0  0  0
  9 13  1  0  0  0  0
  9 14  1  0  0  0  0
  9 15  1  0  0  0  0
 10 16  1  0  0  0  0
 10 17  1  0  0  0  0
 10 18  1  0  0  0  0
 19 20  1  0  0  0  0
 20 21  4  0  0  0  0
 20 25  4  0  0  0  0
 21 22  4  0  0  0  0
 21 27  1  0  0  0  0
 22 23  4  0  0  0  0
 22 28  1  0  0  0  0
 23 24  4  0  0  0  0
 23 26  1  0  0  0  0
 24 25  4  0  0  0  0
 24 29  1  0  0  0  0
 25 30  1  0  0  0  0
 26 31  1  0  0  0  0
 26 32  1  0  0  0  0
M  END
> <BCLConfClusterSize>
1

> <ConfClashScore>
0 

> <ConfOneFourInteractionScore>
-0.960318 

> <ConfScore>
0.187194 

> <ConfScorePBest>
0.00666612 

> <ConfTolerance>
0.239796 

> <RosettaParamsInstructions>
M  ROOT 3
M  POLY_N_BB 3
M  POLY_CA_BB 4
M  POLY_C_BB 2
M  POLY_O_BB 5
M  POLY_IGNORE 9 10 11 12 13 14 15 16 17 18 
M  POLY_UPPER 6
M  POLY_LOWER 8
M  POLY_CHG 0
M  POLY_PROPERTIES ALPHA_AA D_AA PROTEIN AROMATIC POLYMER 
M  END

$$$$



 32 32  0  0  0  0  0  0  0  0999 V2000
   -1.8633    0.7470   -0.5571 H   0  0  0  1  0  0  0  0  0  0  0  0
   -3.6872    1.8013   -0.8299 C   0  0  0  1  0  0  0  0  0  0  0  0
   -2.1063    2.0988    1.0054 N   0  0  0  1  0  0  0  0  0  0  0  0
   -2.2336    1.7384   -0.3988 C   0  0  0  1  0  0  0  0  0  0  0  0
   -4.5925    1.7445   -0.0140 O   0  0  0  1  0  0  0  0  0  0  0  0
   -3.8994    1.9218   -2.1499 N   0  0  0  1  0  0  0  0  0  0  0  0
   -1.4284    1.6470    1.5501 H   0  0  0  1  0  0  0  0  0  0  0  0
   -2.8993    3.0453    1.5908 C   0  0  0  1  0  0  0  0  0  0  0  0
   -5.2572    1.9992   -2.6677 C   0  0  0  1  0  0  0  0  0  0  0  0
   -2.6163    3.2436    3.0672 C   0  0  0  1  0  0  0  0  0  0  0  0
   -3.7448    3.6567    0.9640 O   0  0  0  1  0  0  0  0  0  0  0  0
   -3.1383    1.9578   -2.7662 H   0  0  0  1  0  0  0  0  0  0  0  0
   -5.7599    1.0711   -2.4919 H   0  0  0  1  0  0  0  0  0  0  0  0
   -5.2271    2.1945   -3.7193 H   0  0  0  1  0  0  0  0  0  0  0  0
   -5.7830    2.7887   -2.1727 H   0  0  0  1  0  0  0  0  0  0  0  0
   -3.4889    2.9955    3.6346 H   0  0  0  1  0  0  0  0  0  0  0  0
   -2.3538    4.2654    3.2457 H   0  0  0  1  0  0  0  0  0  0  0  0
   -1.8066    2.6099    3.3632 H   0  0  0  1  0  0  0  0  0  0  0  0
   -2.8349    8.7825    0.0586 I   0  0  0  1  0  0  0  0  0  0  0  0
   -2.3583    6.8140   -0.4574 C   0  0  0  1  0  0  0  0  0  0  0  0
   -1.1079    6.3135   -0.1294 C   0  0  0  1  0  0  0  0  0  0  0  0
   -0.8029    4.9908   -0.3896 C   0  0  0  1  0  0  0  0  0  0  0  0
   -1.7492    4.1634   -0.9737 C   0  0  0  1  0  0  0  0  0  0  0  0
   -2.9960    4.6622   -1.3008 C   0  0  0  1  0  0  0  0  0  0  0  0
   -3.3018    5.9889   -1.0398 C   0  0  0  1  0  0  0  0  0  0  0  0
   -1.4186    2.7163   -1.2530 C   0  0  0  1  0  0  0  0  0  0  0  0
   -0.3993    6.9333    0.3125 H   0  0  0  1  0  0  0  0  0  0  0  0
    0.1366    4.6164   -0.1472 H   0  0  0  1  0  0  0  0  0  0  0  0
   -3.7046    4.0424   -1.7427 H   0  0  0  1  0  0  0  0  0  0  0  0
   -4.2413    6.3633   -1.2822 H   0  0  0  1  0  0  0  0  0  0  0  0
   -1.6173    2.5145   -2.2848 H   0  0  0  1  0  0  0  0  0  0  0  0
   -0.3794    2.5595   -1.0522 H   0  0  0  1  0  0  0  0  0  0  0  0
  1  4  1  0  0  0  0
  2  4  1  0  0  0  0
  2  5  2  0  0  0  0
  2  6  1  0  0  0  0
  3  4  1  0  0  0  0
  3  7  1  0  0  0  0
  3  8  1  0  0  0  0
  4 26  1  0  0  0  0
  6  9  1  0  0  0  0
  6 12  1  0  0  0  0
  8 10  1  0  0  0  0
  8 11  2  0  0  0  0
  9 13  1  0  0  0  0
  9 14  1  0  0  0  0
  9 15  1  0  0  0  0
 10 16  1  0  0  0  0
 10 17  1  0  0  0  0
 10 18  1  0  0  0  0
 19 20  1  0  0  0  0
 20 21  4  0  0  0  0
 20 25  4  0  0  0  0
 21 22  4  0  0  0  0
 21 27  1  0  0  0  0
 22 23  4  0  0  0  0
 22 28  1  0  0  0  0
 23 24  4  0  0  0  0
 23 26  1  0  0  0  0
 24 25  4  0  0  0  0
 24 29  1  0  0  0  0
 25 30  1  0  0  0  0
 26 31  1  0  0  0  0
 26 32  1  0  0  0  0
M  END
> <BCLConfClusterSize>
1

> <ConfClashScore>
0.000323787 

> <ConfOneFourInteractionScore>
-0.92611 

> <ConfScore>
0.188352 

> <ConfScorePBest>
0.00663764 

> <ConfTolerance>
0.297892 

> <RosettaParamsInstructions>
M  ROOT 3
M  POLY_N_BB 3
M  POLY_CA_BB 4
M  POLY_C_BB 2
M  POLY_O_BB 5
M  POLY_IGNORE 9 10 11 12 13 14 15 16 17 18 
M  POLY_UPPER 6
M  POLY_LOWER 8
M  POLY_CHG 0
M  POLY_PROPERTIES ALPHA_AA D_AA PROTEIN AROMATIC POLYMER 
M  END

$$$$



 32 32  0  0  0  0  0  0  0  0999 V2000
   -1.0884    1.9190    0.6175 H   0  0  0  1  0  0  0  0  0  0  0  0
   -1.5211    0.3018   -0.6311 C   0  0  0  1  0  0  0  0  0  0  0  0
   -3.1110    1.9453    0.3255 N   0  0  0  1  0  0  0  0  0  0  0  0
   -1.7675    1.7307   -0.1877 C   0  0  0  1  0  0  0  0  0  0  0  0
   -0.7532    0.0456   -1.5439 O   0  0  0  1  0  0  0  0  0  0  0  0
   -2.1974   -0.6425    0.0419 N   0  0  0  1  0  0  0  0  0  0  0  0
   -3.2228    2.4273    1.1714 H   0  0  0  1  0  0  0  0  0  0  0  0
   -4.2063    1.5048   -0.3208 C   0  0  0  1  0  0  0  0  0  0  0  0
   -2.0925   -2.0389   -0.3543 C   0  0  0  1  0  0  0  0  0  0  0  0
   -5.5471    1.6939    0.3771 C   0  0  0  1  0  0  0  0  0  0  0  0
   -4.1425    0.8984   -1.3888 O   0  0  0  1  0  0  0  0  0  0  0  0
   -2.7629   -0.3910    0.8018 H   0  0  0  1  0  0  0  0  0  0  0  0
   -1.7641   -2.0979   -1.3710 H   0  0  0  1  0  0  0  0  0  0  0  0
   -3.0493   -2.5087   -0.2610 H   0  0  0  1  0  0  0  0  0  0  0  0
   -1.3870   -2.5367    0.2776 H   0  0  0  1  0  0  0  0  0  0  0  0
   -5.7206    2.7370    0.5406 H   0  0  0  1  0  0  0  0  0  0  0  0
   -5.5348    1.1830    1.3171 H   0  0  0  1  0  0  0  0  0  0  0  0
   -6.3276    1.2946   -0.2363 H   0  0  0  1  0  0  0  0  0  0  0  0
   -2.8298    8.8015   -0.0145 I   0  0  0  1  0  0  0  0  0  0  0  0
   -2.3639    6.8066   -0.4285 C   0  0  0  1  0  0  0  0  0  0  0  0
   -1.1109    6.3063   -0.1102 C   0  0  0  1  0  0  0  0  0  0  0  0
   -0.8016    4.9885   -0.3890 C   0  0  0  1  0  0  0  0  0  0  0  0
   -1.7462    4.1655   -0.9822 C   0  0  0  1  0  0  0  0  0  0  0  0
   -2.9956    4.6641   -1.2997 C   0  0  0  1  0  0  0  0  0  0  0  0
   -3.3057    5.9859   -1.0199 C   0  0  0  1  0  0  0  0  0  0  0  0
   -1.4108    2.7236   -1.2819 C   0  0  0  1  0  0  0  0  0  0  0  0
   -0.4036    6.9227    0.3385 H   0  0  0  1  0  0  0  0  0  0  0  0
    0.1398    4.6143   -0.1538 H   0  0  0  1  0  0  0  0  0  0  0  0
   -3.7029    4.0477   -1.7484 H   0  0  0  1  0  0  0  0  0  0  0  0
   -4.2471    6.3601   -1.2551 H   0  0  0  1  0  0  0  0  0  0  0  0
   -1.9370    2.4399   -2.1693 H   0  0  0  1  0  0  0  0  0  0  0  0
   -0.3570    2.6590   -1.4555 H   0  0  0  1  0  0  0  0  0  0  0  0
  1  4  1  0  0  0  0
  2  4  1  0  0  0  0
  2  5  2  0  0  0  0
  2  6  1  0  0  0  0
  3  4  1  0  0  0  0
  3  7  1  0  0  0  0
  3  8  1  0  0  0  0
  4 26  1  0  0  0  0
  6  9  1  0  0  0  0
  6 12  1  0  0  0  0
  8 10  1  0  0  0  0
  8 11  2  0  0  0  0
  9 13  1  0  0  0  0
  9 14  1  0  0  0  0
  9 15  1  0  0  0  0
 10 16  1  0  0  0  0
 10 17  1  0  0  0  0
 10 18  1  0  0  0  0
 19 20  1  0  0  0  0
 20 21  4  0  0  0  0
 20 25  4  0  0  0  0
 21 22  4  0  0  0  0
 21 27  1  0  0  0  0
 22 23  4  0  0  0  0
 22 28  1  0  0  0  0
 23 24  4  0  0  0  0
 23 26  1  0  0  0  0
 24 25  4  0  0  0  0
 24 29  1  0  0  0  0
 25 30  1  0  0  0  0
 26 31  1  0  0  0  0
 26 32  1  0  0  0  0
M  END
> <BCLConfClusterSize>
1

> <ConfClashScore>
0 

> <ConfOneFourInteractionScore>
-0.938696 

> <ConfScore>
0.190381 

> <ConfScorePBest>
0.00660916 

> <ConfTolerance>
0.19465 

> <RosettaParamsInstructions>
M  ROOT 3
M  POLY_N_BB 3
M  POLY_CA_BB 4
M  POLY_C_BB 2
M  POLY_O_BB 5
M  POLY_IGNORE 9 10 11 12 13 14 15 16 17 18 
M  POLY_UPPER 6
M  POLY_LOWER 8
M  POLY_CHG 0
M  POLY_PROPERTIES ALPHA_AA D_AA PROTEIN AROMATIC POLYMER 
M  END

$$$$



 32 32  0  0  0  0  0  0  0  0999 V2000
   -1.0522    1.9200    0.6257 H   0  0  0  1  0  0  0  0  0  0  0  0
   -1.5741    0.3424   -0.6943 C   0  0  0  1  0  0  0  0  0  0  0  0
   -3.0905    2.0449    0.2990 N   0  0  0  1  0  0  0  0  0  0  0  0
   -1.7479    1.7661   -0.1726 C   0  0  0  1  0  0  0  0  0  0  0  0
   -0.4780   -0.2148   -0.6543 O   0  0  0  1  0  0  0  0  0  0  0  0
   -2.6462   -0.2785   -1.1943 N   0  0  0  1  0  0  0  0  0  0  0  0
   -3.5741    2.8103   -0.0759 H   0  0  0  1  0  0  0  0  0  0  0  0
   -3.6970    1.2871    1.2361 C   0  0  0  1  0  0  0  0  0  0  0  0
   -2.6013   -1.6586   -1.6540 C   0  0  0  1  0  0  0  0  0  0  0  0
   -5.0847    1.6933    1.6927 C   0  0  0  1  0  0  0  0  0  0  0  0
   -3.1427    0.2953    1.7079 O   0  0  0  1  0  0  0  0  0  0  0  0
   -3.4923    0.2124   -1.2536 H   0  0  0  1  0  0  0  0  0  0  0  0
   -1.8645   -2.1973   -1.0955 H   0  0  0  1  0  0  0  0  0  0  0  0
   -2.3469   -1.6801   -2.6931 H   0  0  0  1  0  0  0  0  0  0  0  0
   -3.5594   -2.1131   -1.5113 H   0  0  0  1  0  0  0  0  0  0  0  0
   -5.2096    2.7478    1.5612 H   0  0  0  1  0  0  0  0  0  0  0  0
   -5.2064    1.4462    2.7266 H   0  0  0  1  0  0  0  0  0  0  0  0
   -5.8175    1.1725    1.1124 H   0  0  0  1  0  0  0  0  0  0  0  0
   -2.7872    8.8209   -0.0728 I   0  0  0  1  0  0  0  0  0  0  0  0
   -2.3780    6.7981   -0.4034 C   0  0  0  1  0  0  0  0  0  0  0  0
   -1.1213    6.3026   -0.0929 C   0  0  0  1  0  0  0  0  0  0  0  0
   -0.8033    4.9904   -0.3883 C   0  0  0  1  0  0  0  0  0  0  0  0
   -1.7431    4.1683   -0.9903 C   0  0  0  1  0  0  0  0  0  0  0  0
   -2.9963    4.6622   -1.3001 C   0  0  0  1  0  0  0  0  0  0  0  0
   -3.3150    5.9784   -1.0037 C   0  0  0  1  0  0  0  0  0  0  0  0
   -1.3983    2.7325   -1.3081 C   0  0  0  1  0  0  0  0  0  0  0  0
   -0.4176    6.9182    0.3625 H   0  0  0  1  0  0  0  0  0  0  0  0
    0.1410    4.6198   -0.1589 H   0  0  0  1  0  0  0  0  0  0  0  0
   -3.7000    4.0466   -1.7554 H   0  0  0  1  0  0  0  0  0  0  0  0
   -4.2593    6.3490   -1.2331 H   0  0  0  1  0  0  0  0  0  0  0  0
   -1.9381    2.4385   -2.1839 H   0  0  0  1  0  0  0  0  0  0  0  0
   -0.3472    2.6687   -1.4982 H   0  0  0  1  0  0  0  0  0  0  0  0
  1  4  1  0  0  0  0
  2  4  1  0  0  0  0
  2  5  2  0  0  0  0
  2  6  1  0  0  0  0
  3  4  1  0  0  0  0
  3  7  1  0  0  0  0
  3  8  1  0  0  0  0
  4 26  1  0  0  0  0
  6  9  1  0  0  0  0
  6 12  1  0  0  0  0
  8 10  1  0  0  0  0
  8 11  2  0  0  0  0
  9 13  1  0  0  0  0
  9 14  1  0  0  0  0
  9 15  1  0  0  0  0
 10 16  1  0  0  0  0
 10 17  1  0  0  0  0
 10 18  1  0  0  0  0
 19 20  1  0  0  0  0
 20 21  4  0  0  0  0
 20 25  4  0  0  0  0
 21 22  4  0  0  0  0
 21 27  1  0  0  0  0
 22 23  4  0  0  0  0
 22 28  1  0  0  0  0
 23 24  4  0  0  0  0
 23 26  1  0  0  0  0
 24 25  4  0  0  0  0
 24 29  1  0  0  0  0
 25 30  1  0  0  0  0
 26 31  1  0  0  0  0
 26 32  1  0  0  0  0
M  END
> <BCLConfClusterSize>
1

> <ConfClashScore>
0 

> <ConfOneFourInteractionScore>
-0.9468 

> <ConfScore>
0.192445 

> <ConfScorePBest>
0.00658068 

> <ConfTolerance>
0.251785 

> <RosettaParamsInstructions>
M  ROOT 3
M  POLY_N_BB 3
M  POLY_CA_BB 4
M  POLY_C_BB 2
M  POLY_O_BB 5
M  POLY_IGNORE 9 10 11 12 13 14 15 16 17 18 
M  POLY_UPPER 6
M  POLY_LOWER 8
M  POLY_CHG 0
M  POLY_PROPERTIES ALPHA_AA D_AA PROTEIN AROMATIC POLYMER 
M  END

$$$$



 32 32  0  0  0  0  0  0  0  0999 V2000
   -1.1287    3.0268   -3.3534 H   0  0  0  1  0  0  0  0  0  0  0  0
   -0.2561    1.1711   -2.8935 C   0  0  0  1  0  0  0  0  0  0  0  0
    0.6573    3.4079   -2.4047 N   0  0  0  1  0  0  0  0  0  0  0  0
   -0.5558    2.6168   -2.5480 C   0  0  0  1  0  0  0  0  0  0  0  0
   -1.0568    0.2780   -2.6201 O   0  0  0  1  0  0  0  0  0  0  0  0
    0.9068    0.8965   -3.5053 N   0  0  0  1  0  0  0  0  0  0  0  0
    0.7115    4.2764   -2.8553 H   0  0  0  1  0  0  0  0  0  0  0  0
    1.7098    2.9871   -1.6730 C   0  0  0  1  0  0  0  0  0  0  0  0
    1.3049   -0.4848   -3.7319 C   0  0  0  1  0  0  0  0  0  0  0  0
    2.9527    3.8553   -1.6471 C   0  0  0  1  0  0  0  0  0  0  0  0
    1.6650    1.9305   -1.0443 O   0  0  0  1  0  0  0  0  0  0  0  0
    1.4889    1.6277   -3.8000 H   0  0  0  1  0  0  0  0  0  0  0  0
    0.4329   -1.1011   -3.8008 H   0  0  0  1  0  0  0  0  0  0  0  0
    1.9137   -0.8185   -2.9177 H   0  0  0  1  0  0  0  0  0  0  0  0
    1.8607   -0.5506   -4.6439 H   0  0  0  1  0  0  0  0  0  0  0  0
    2.6779    4.8658   -1.4275 H   0  0  0  1  0  0  0  0  0  0  0  0
    3.4346    3.8164   -2.6017 H   0  0  0  1  0  0  0  0  0  0  0  0
    3.6226    3.4964   -0.8939 H   0  0  0  1  0  0  0  0  0  0  0  0
   -2.8298    8.8015   -0.0145 I   0  0  0  1  0  0  0  0  0  0  0  0
   -2.3639    6.8066   -0.4285 C   0  0  0  1  0  0  0  0  0  0  0  0
   -1.1110    6.3063   -0.1102 C   0  0  0  1  0  0  0  0  0  0  0  0
   -0.8016    4.9885   -0.3890 C   0  0  0  1  0  0  0  0  0  0  0  0
   -1.7462    4.1655   -0.9822 C   0  0  0  1  0  0  0  0  0  0  0  0
   -2.9956    4.6641   -1.2997 C   0  0  0  1  0  0  0  0  0  0  0  0
   -3.3057    5.9859   -1.0199 C   0  0  0  1  0  0  0  0  0  0  0  0
   -1.4108    2.7236   -1.2819 C   0  0  0  1  0  0  0  0  0  0  0  0
   -0.4036    6.9227    0.3385 H   0  0  0  1  0  0  0  0  0  0  0  0
    0.1398    4.6143   -0.1538 H   0  0  0  1  0  0  0  0  0  0  0  0
   -3.7029    4.0477   -1.7484 H   0  0  0  1  0  0  0  0  0  0  0  0
   -4.2471    6.3601   -1.2551 H   0  0  0  1  0  0  0  0  0  0  0  0
   -0.8690    2.3106   -0.4568 H   0  0  0  1  0  0  0  0  0  0  0  0
   -2.3182    2.1746   -1.4240 H   0  0  0  1  0  0  0  0  0  0  0  0
  1  4  1  0  0  0  0
  2  4  1  0  0  0  0
  2  5  2  0  0  0  0
  2  6  1  0  0  0  0
  3  4  1  0  0  0  0
  3  7  1  0  0  0  0
  3  8  1  0  0  0  0
  4 26  1  0  0  0  0
  6  9  1  0  0  0  0
  6 12  1  0  0  0  0
  8 10  1  0  0  0  0
  8 11  2  0  0  0  0
  9 13  1  0  0  0  0
  9 14  1  0  0  0  0
  9 15  1  0  0  0  0
 10 16  1  0  0  0  0
 10 17  1  0  0  0  0
 10 18  1  0  0  0  0
 19 20  1  0  0  0  0
 20 21  4  0  0  0  0
 20 25  4  0  0  0  0
 21 22  4  0  0  0  0
 21 27  1  0  0  0  0
 22 23  4  0  0  0  0
 22 28  1  0  0  0  0
 23 24  4  0  0  0  0
 23 26  1  0  0  0  0
 24 25  4  0  0  0  0
 24 29  1  0  0  0  0
 25 30  1  0  0  0  0
 26 31  1  0  0  0  0
 26 32  1  0  0  0  0
M  END
> <BCLConfClusterSize>
1

> <ConfClashScore>
0 

> <ConfOneFourInteractionScore>
-0.957364 

> <ConfScore>
0.193633 

> <ConfScorePBest>
0.0065522 

> <ConfTolerance>
0.178278 

> <RosettaParamsInstructions>
M  ROOT 3
M  POLY_N_BB 3
M  POLY_CA_BB 4
M  POLY_C_BB 2
M  POLY_O_BB 5
M  POLY_IGNORE 9 10 11 12 13 14 15 16 17 18 
M  POLY_UPPER 6
M  POLY_LOWER 8
M  POLY_CHG 0
M  POLY_PROPERTIES ALPHA_AA D_AA PROTEIN AROMATIC POLYMER 
M  END

$$$$



 32 32  0  0  0  0  0  0  0  0999 V2000
   -0.5285    1.4901   -2.7480 H   0  0  0  1  0  0  0  0  0  0  0  0
    0.9651    2.8566   -2.2321 C   0  0  0  1  0  0  0  0  0  0  0  0
   -1.0334    3.2650   -3.6426 N   0  0  0  1  0  0  0  0  0  0  0  0
   -0.4857    2.5317   -2.5069 C   0  0  0  1  0  0  0  0  0  0  0  0
    1.6243    2.1802   -1.4470 O   0  0  0  1  0  0  0  0  0  0  0  0
    1.5092    3.9043   -2.8711 N   0  0  0  1  0  0  0  0  0  0  0  0
   -1.7463    3.9128   -3.4625 H   0  0  0  1  0  0  0  0  0  0  0  0
   -0.6272    3.1167   -4.9389 C   0  0  0  1  0  0  0  0  0  0  0  0
    2.9420    4.1592   -2.8664 C   0  0  0  1  0  0  0  0  0  0  0  0
   -1.4008    3.9729   -5.9159 C   0  0  0  1  0  0  0  0  0  0  0  0
    0.2741    2.3604   -5.2506 O   0  0  0  1  0  0  0  0  0  0  0  0
    0.9211    4.5190   -3.3576 H   0  0  0  1  0  0  0  0  0  0  0  0
    3.4680    3.2388   -2.7214 H   0  0  0  1  0  0  0  0  0  0  0  0
    3.1811    4.8353   -2.0723 H   0  0  0  1  0  0  0  0  0  0  0  0
    3.2303    4.5909   -3.8021 H   0  0  0  1  0  0  0  0  0  0  0  0
   -1.0473    3.7896   -6.9091 H   0  0  0  1  0  0  0  0  0  0  0  0
   -1.2613    5.0056   -5.6728 H   0  0  0  1  0  0  0  0  0  0  0  0
   -2.4410    3.7295   -5.8572 H   0  0  0  1  0  0  0  0  0  0  0  0
   -2.7872    8.8209   -0.0728 I   0  0  0  1  0  0  0  0  0  0  0  0
   -2.3780    6.7981   -0.4034 C   0  0  0  1  0  0  0  0  0  0  0  0
   -1.1213    6.3026   -0.0929 C   0  0  0  1  0  0  0  0  0  0  0  0
   -0.8033    4.9904   -0.3883 C   0  0  0  1  0  0  0  0  0  0  0  0
   -1.7431    4.1683   -0.9903 C   0  0  0  1  0  0  0  0  0  0  0  0
   -2.9963    4.6622   -1.3001 C   0  0  0  1  0  0  0  0  0  0  0  0
   -3.3150    5.9784   -1.0037 C   0  0  0  1  0  0  0  0  0  0  0  0
   -1.3983    2.7325   -1.3081 C   0  0  0  1  0  0  0  0  0  0  0  0
   -0.4176    6.9182    0.3625 H   0  0  0  1  0  0  0  0  0  0  0  0
    0.1410    4.6198   -0.1589 H   0  0  0  1  0  0  0  0  0  0  0  0
   -3.7000    4.0466   -1.7554 H   0  0  0  1  0  0  0  0  0  0  0  0
   -4.2593    6.3490   -1.2331 H   0  0  0  1  0  0  0  0  0  0  0  0
   -0.9150    2.3117   -0.4513 H   0  0  0  1  0  0  0  0  0  0  0  0
   -2.3115    2.2078   -1.4969 H   0  0  0  1  0  0  0  0  0  0  0  0
  1  4  1  0  0  0  0
  2  4  1  0  0  0  0
  2  5  2  0  0  0  0
  2  6  1  0  0  0  0
  3  4  1  0  0  0  0
  3  7  1  0  0  0  0
  3  8  1  0  0  0  0
  4 26  1  0  0  0  0
  6  9  1  0  0  0  0
  6 12  1  0  0  0  0
  8 10  1  0  0  0  0
  8 11  2  0  0  0  0
  9 13  1  0  0  0  0
  9 14  1  0  0  0  0
  9 15  1  0  0  0  0
 10 16  1  0  0  0  0
 10 17  1  0  0  0  0
 10 18  1  0  0  0  0
 19 20  1  0  0  0  0
 20 21  4  0  0  0  0
 20 25  4  0  0  0  0
 21 22  4  0  0  0  0
 21 27  1  0  0  0  0
 22 23  4  0  0  0  0
 22 28  1  0  0  0  0
 23 24  4  0  0  0  0
 23 26  1  0  0  0  0
 24 25  4  0  0  0  0
 24 29  1  0  0  0  0
 25 30  1  0  0  0  0
 26 31  1  0  0  0  0
 26 32  1  0  0  0  0
M  END
> <BCLConfClusterSize>
1

> <ConfClashScore>
0 

> <ConfOneFourInteractionScore>
-0.950605 

> <ConfScore>
0.194096 

> <ConfScorePBest>
0.00652372 

> <ConfTolerance>
0.274966 

> <RosettaParamsInstructions>
M  ROOT 3
M  POLY_N_BB 3
M  POLY_CA_BB 4
M  POLY_C_BB 2
M  POLY_O_BB 5
M  POLY_IGNORE 9 10 11 12 13 14 15 16 17 18 
M  POLY_UPPER 6
M  POLY_LOWER 8
M  POLY_CHG 0
M  POLY_PROPERTIES ALPHA_AA D_AA PROTEIN AROMATIC POLYMER 
M  END

$$$$



 32 32  0  0  0  0  0  0  0  0999 V2000
   -2.1140    2.8195   -3.2608 H   0  0  0  1  0  0  0  0  0  0  0  0
   -1.3533    0.8804   -2.9825 C   0  0  0  1  0  0  0  0  0  0  0  0
   -0.0610    2.9550   -3.3026 N   0  0  0  1  0  0  0  0  0  0  0  0
   -1.2802    2.3780   -2.7562 C   0  0  0  1  0  0  0  0  0  0  0  0
   -0.6559    0.3374   -3.8353 O   0  0  0  1  0  0  0  0  0  0  0  0
   -2.1975    0.1716   -2.2276 N   0  0  0  1  0  0  0  0  0  0  0  0
   -0.1202    3.8509   -3.6954 H   0  0  0  1  0  0  0  0  0  0  0  0
    1.1707    2.3363   -3.3093 C   0  0  0  1  0  0  0  0  0  0  0  0
   -2.3801   -1.2617   -2.4017 C   0  0  0  1  0  0  0  0  0  0  0  0
    2.3071    3.1430   -3.8667 C   0  0  0  1  0  0  0  0  0  0  0  0
    1.2873    1.2002   -2.8787 O   0  0  0  1  0  0  0  0  0  0  0  0
   -2.7117    0.6329   -1.5325 H   0  0  0  1  0  0  0  0  0  0  0  0
   -3.1192   -1.6138   -1.7128 H   0  0  0  1  0  0  0  0  0  0  0  0
   -1.4534   -1.7639   -2.2177 H   0  0  0  1  0  0  0  0  0  0  0  0
   -2.7019   -1.4610   -3.4025 H   0  0  0  1  0  0  0  0  0  0  0  0
    2.4660    4.0064   -3.2550 H   0  0  0  1  0  0  0  0  0  0  0  0
    2.0701    3.4511   -4.8636 H   0  0  0  1  0  0  0  0  0  0  0  0
    3.1953    2.5464   -3.8789 H   0  0  0  1  0  0  0  0  0  0  0  0
   -2.8298    8.8015   -0.0145 I   0  0  0  1  0  0  0  0  0  0  0  0
   -2.3639    6.8066   -0.4285 C   0  0  0  1  0  0  0  0  0  0  0  0
   -1.1110    6.3063   -0.1102 C   0  0  0  1  0  0  0  0  0  0  0  0
   -0.8016    4.9885   -0.3890 C   0  0  0  1  0  0  0  0  0  0  0  0
   -1.7462    4.1655   -0.9822 C   0  0  0  1  0  0  0  0  0  0  0  0
   -2.9956    4.6641   -1.2997 C   0  0  0  1  0  0  0  0  0  0  0  0
   -3.3057    5.9859   -1.0199 C   0  0  0  1  0  0  0  0  0  0  0  0
   -1.4108    2.7236   -1.2819 C   0  0  0  1  0  0  0  0  0  0  0  0
   -0.4036    6.9227    0.3385 H   0  0  0  1  0  0  0  0  0  0  0  0
    0.1398    4.6143   -0.1538 H   0  0  0  1  0  0  0  0  0  0  0  0
   -3.7029    4.0477   -1.7484 H   0  0  0  1  0  0  0  0  0  0  0  0
   -4.2471    6.3601   -1.2551 H   0  0  0  1  0  0  0  0  0  0  0  0
   -0.4803    2.4953   -0.8056 H   0  0  0  1  0  0  0  0  0  0  0  0
   -2.1842    2.1117   -0.8667 H   0  0  0  1  0  0  0  0  0  0  0  0
  1  4  1  0  0  0  0
  2  4  1  0  0  0  0
  2  5  2  0  0  0  0
  2  6  1  0  0  0  0
  3  4  1  0  0  0  0
  3  7  1  0  0  0  0
  3  8  1  0  0  0  0
  4 26  1  0  0  0  0
  6  9  1  0  0  0  0
  6 12  1  0  0  0  0
  8 10  1  0  0  0  0
  8 11  2  0  0  0  0
  9 13  1  0  0  0  0
  9 14  1  0  0  0  0
  9 15  1  0  0  0  0
 10 16  1  0  0  0  0
 10 17  1  0  0  0  0
 10 18  1  0  0  0  0
 19 20  1  0  0  0  0
 20 21  4  0  0  0  0
 20 25  4  0  0  0  0
 21 22  4  0  0  0  0
 21 27  1  0  0  0  0
 22 23  4  0  0  0  0
 22 28  1  0  0  0  0
 23 24  4  0  0  0  0
 23 26  1  0  0  0  0
 24 25  4  0  0  0  0
 24 29  1  0  0  0  0
 25 30  1  0  0  0  0
 26 31  1  0  0  0  0
 26 32  1  0  0  0  0
M  END
> <BCLConfClusterSize>
1

> <ConfClashScore>
0 

> <ConfOneFourInteractionScore>
-0.933935 

> <ConfScore>
0.198885 

> <ConfScorePBest>
0.00649524 

> <ConfTolerance>
0.407377 

> <RosettaParamsInstructions>
M  ROOT 3
M  POLY_N_BB 3
M  POLY_CA_BB 4
M  POLY_C_BB 2
M  POLY_O_BB 5
M  POLY_IGNORE 9 10 11 12 13 14 15 16 17 18 
M  POLY_UPPER 6
M  POLY_LOWER 8
M  POLY_CHG 0
M  POLY_PROPERTIES ALPHA_AA D_AA PROTEIN AROMATIC POLYMER 
M  END

$$$$



 32 32  0  0  0  0  0  0  0  0999 V2000
   -0.4049    1.4301   -2.5886 H   0  0  0  1  0  0  0  0  0  0  0  0
    0.9716    2.8932   -1.9460 C   0  0  0  1  0  0  0  0  0  0  0  0
   -0.8312    3.1610   -3.6179 N   0  0  0  1  0  0  0  0  0  0  0  0
   -0.4278    2.4823   -2.3954 C   0  0  0  1  0  0  0  0  0  0  0  0
    1.7442    2.0803   -1.4402 O   0  0  0  1  0  0  0  0  0  0  0  0
    1.2892    4.1744   -2.1386 N   0  0  0  1  0  0  0  0  0  0  0  0
   -1.6692    3.6688   -3.5989 H   0  0  0  1  0  0  0  0  0  0  0  0
   -0.1234    3.1434   -4.8006 C   0  0  0  1  0  0  0  0  0  0  0  0
    2.5782    4.6826   -1.6935 C   0  0  0  1  0  0  0  0  0  0  0  0
   -0.7787    3.8228   -5.9676 C   0  0  0  1  0  0  0  0  0  0  0  0
    0.9635    2.5995   -4.8530 O   0  0  0  1  0  0  0  0  0  0  0  0
    0.6532    4.7747   -2.5807 H   0  0  0  1  0  0  0  0  0  0  0  0
    2.4879    5.7203   -1.4489 H   0  0  0  1  0  0  0  0  0  0  0  0
    3.2982    4.5621   -2.4758 H   0  0  0  1  0  0  0  0  0  0  0  0
    2.8963    4.1389   -0.8285 H   0  0  0  1  0  0  0  0  0  0  0  0
   -1.8210    3.9548   -5.7648 H   0  0  0  1  0  0  0  0  0  0  0  0
   -0.6596    3.2201   -6.8436 H   0  0  0  1  0  0  0  0  0  0  0  0
   -0.3227    4.7776   -6.1262 H   0  0  0  1  0  0  0  0  0  0  0  0
   -2.8353    8.8006   -0.0169 I   0  0  0  1  0  0  0  0  0  0  0  0
   -2.3632    6.8066   -0.4282 C   0  0  0  1  0  0  0  0  0  0  0  0
   -1.1090    6.3104   -0.1083 C   0  0  0  1  0  0  0  0  0  0  0  0
   -0.7955    4.9932   -0.3854 C   0  0  0  1  0  0  0  0  0  0  0  0
   -1.7371    4.1668   -0.9784 C   0  0  0  1  0  0  0  0  0  0  0  0
   -2.9877    4.6613   -1.2976 C   0  0  0  1  0  0  0  0  0  0  0  0
   -3.3020    5.9825   -1.0196 C   0  0  0  1  0  0  0  0  0  0  0  0
   -1.4543    2.7182   -1.2996 C   0  0  0  1  0  0  0  0  0  0  0  0
   -0.4039    6.9294    0.3404 H   0  0  0  1  0  0  0  0  0  0  0  0
    0.1469    4.6221   -0.1489 H   0  0  0  1  0  0  0  0  0  0  0  0
   -3.6928    4.0423   -1.7462 H   0  0  0  1  0  0  0  0  0  0  0  0
   -4.2443    6.3536   -1.2560 H   0  0  0  1  0  0  0  0  0  0  0  0
   -1.0995    2.2455   -0.4077 H   0  0  0  1  0  0  0  0  0  0  0  0
   -2.3731    2.2622   -1.6043 H   0  0  0  1  0  0  0  0  0  0  0  0
  1  4  1  0  0  0  0
  2  4  1  0  0  0  0
  2  5  2  0  0  0  0
  2  6  1  0  0  0  0
  3  4  1  0  0  0  0
  3  7  1  0  0  0  0
  3  8  1  0  0  0  0
  4 26  1  0  0  0  0
  6  9  1  0  0  0  0
  6 12  1  0  0  0  0
  8 10  1  0  0  0  0
  8 11  2  0  0  0  0
  9 13  1  0  0  0  0
  9 14  1  0  0  0  0
  9 15  1  0  0  0  0
 10 16  1  0  0  0  0
 10 17  1  0  0  0  0
 10 18  1  0  0  0  0
 19 20  1  0  0  0  0
 20 21  4  0  0  0  0
 20 25  4  0  0  0  0
 21 22  4  0  0  0  0
 21 27  1  0  0  0  0
 22 23  4  0  0  0  0
 22 28  1  0  0  0  0
 23 24  4  0  0  0  0
 23 26  1  0  0  0  0
 24 25  4  0  0  0  0
 24 29  1  0  0  0  0
 25 30  1  0  0  0  0
 26 31  1  0  0  0  0
 26 32  1  0  0  0  0
M  END
> <BCLConfClusterSize>
1

> <ConfClashScore>
0 

> <ConfOneFourInteractionScore>
-0.950605 

> <ConfScore>
0.199062 

> <ConfScorePBest>
0.00646676 

> <ConfTolerance>
0.329291 

> <RosettaParamsInstructions>
M  ROOT 3
M  POLY_N_BB 3
M  POLY_CA_BB 4
M  POLY_C_BB 2
M  POLY_O_BB 5
M  POLY_IGNORE 9 10 11 12 13 14 15 16 17 18 
M  POLY_UPPER 6
M  POLY_LOWER 8
M  POLY_CHG 0
M  POLY_PROPERTIES ALPHA_AA D_AA PROTEIN AROMATIC POLYMER 
M  END

$$$$



 32 32  0  0  0  0  0  0  0  0999 V2000
   -2.0775    2.4354   -3.2599 H   0  0  0  1  0  0  0  0  0  0  0  0
   -0.5681    1.0087   -2.8794 C   0  0  0  1  0  0  0  0  0  0  0  0
   -0.2540    3.4099   -3.3082 N   0  0  0  1  0  0  0  0  0  0  0  0
   -1.1418    2.4055   -2.7417 C   0  0  0  1  0  0  0  0  0  0  0  0
   -1.1144    0.0395   -2.3542 O   0  0  0  1  0  0  0  0  0  0  0  0
    0.5583    0.9095   -3.6029 N   0  0  0  1  0  0  0  0  0  0  0  0
    0.4172    3.8283   -2.7295 H   0  0  0  1  0  0  0  0  0  0  0  0
   -0.3228    3.7851   -4.6023 C   0  0  0  1  0  0  0  0  0  0  0  0
    1.3324   -0.3207   -3.7853 C   0  0  0  1  0  0  0  0  0  0  0  0
    0.5172    4.9727   -5.0483 C   0  0  0  1  0  0  0  0  0  0  0  0
   -1.0415    3.1873   -5.3988 O   0  0  0  1  0  0  0  0  0  0  0  0
    0.8876    1.7214   -4.0422 H   0  0  0  1  0  0  0  0  0  0  0  0
    0.9298   -0.8777   -4.6055 H   0  0  0  1  0  0  0  0  0  0  0  0
    1.2797   -0.9104   -2.8941 H   0  0  0  1  0  0  0  0  0  0  0  0
    2.3530   -0.0727   -3.9897 H   0  0  0  1  0  0  0  0  0  0  0  0
    1.0022    5.4064   -4.1988 H   0  0  0  1  0  0  0  0  0  0  0  0
   -0.1145    5.7029   -5.5094 H   0  0  0  1  0  0  0  0  0  0  0  0
    1.2547    4.6440   -5.7504 H   0  0  0  1  0  0  0  0  0  0  0  0
   -2.7800    8.8079    0.0058 I   0  0  0  1  0  0  0  0  0  0  0  0
   -2.3756    6.8050   -0.4333 C   0  0  0  1  0  0  0  0  0  0  0  0
   -1.1209    6.3106   -0.1126 C   0  0  0  1  0  0  0  0  0  0  0  0
   -0.8055    4.9936   -0.3890 C   0  0  0  1  0  0  0  0  0  0  0  0
   -1.7459    4.1657   -0.9820 C   0  0  0  1  0  0  0  0  0  0  0  0
   -2.9970    4.6584   -1.3019 C   0  0  0  1  0  0  0  0  0  0  0  0
   -3.3131    5.9793   -1.0246 C   0  0  0  1  0  0  0  0  0  0  0  0
   -1.4039    2.7247   -1.2790 C   0  0  0  1  0  0  0  0  0  0  0  0
   -0.4168    6.9307    0.3360 H   0  0  0  1  0  0  0  0  0  0  0  0
    0.1372    4.6239   -0.1520 H   0  0  0  1  0  0  0  0  0  0  0  0
   -3.7011    4.0382   -1.7505 H   0  0  0  1  0  0  0  0  0  0  0  0
   -4.2558    6.3491   -1.2616 H   0  0  0  1  0  0  0  0  0  0  0  0
   -0.5248    2.4729   -0.7235 H   0  0  0  1  0  0  0  0  0  0  0  0
   -2.2208    2.1170   -0.9498 H   0  0  0  1  0  0  0  0  0  0  0  0
  1  4  1  0  0  0  0
  2  4  1  0  0  0  0
  2  5  2  0  0  0  0
  2  6  1  0  0  0  0
  3  4  1  0  0  0  0
  3  7  1  0  0  0  0
  3  8  1  0  0  0  0
  4 26  1  0  0  0  0
  6  9  1  0  0  0  0
  6 12  1  0  0  0  0
  8 10  1  0  0  0  0
  8 11  2  0  0  0  0
  9 13  1  0  0  0  0
  9 14  1  0  0  0  0
  9 15  1  0  0  0  0
 10 16  1  0  0  0  0
 10 17  1  0  0  0  0
 10 18  1  0  0  0  0
 19 20  1  0  0  0  0
 20 21  4  0  0  0  0
 20 25  4  0  0  0  0
 21 22  4  0  0  0  0
 21 27  1  0  0  0  0
 22 23  4  0  0  0  0
 22 28  1  0  0  0  0
 23 24  4  0  0  0  0
 23 26  1  0  0  0  0
 24 25  4  0  0  0  0
 24 29  1  0  0  0  0
 25 30  1  0  0  0  0
 26 31  1  0  0  0  0
 26 32  1  0  0  0  0
M  END
> <BCLConfClusterSize>
1

> <ConfClashScore>
0 

> <ConfOneFourInteractionScore>
-0.928132 

> <ConfScore>
0.203379 

> <ConfScorePBest>
0.00643828 

> <ConfTolerance>
0.372767 

> <RosettaParamsInstructions>
M  ROOT 3
M  POLY_N_BB 3
M  POLY_CA_BB 4
M  POLY_C_BB 2
M  POLY_O_BB 5
M  POLY_IGNORE 9 10 11 12 13 14 15 16 17 18 
M  POLY_UPPER 6
M  POLY_LOWER 8
M  POLY_CHG 0
M  POLY_PROPERTIES ALPHA_AA D_AA PROTEIN AROMATIC POLYMER 
M  END

$$$$



 32 32  0  0  0  0  0  0  0  0999 V2000
   -2.5810    1.7152    0.0480 H   0  0  0  1  0  0  0  0  0  0  0  0
   -0.7454    1.9968    1.0406 C   0  0  0  1  0  0  0  0  0  0  0  0
   -1.2076    0.3710   -0.7186 N   0  0  0  1  0  0  0  0  0  0  0  0
   -1.5455    1.7122   -0.2214 C   0  0  0  1  0  0  0  0  0  0  0  0
   -1.2386    2.5955    1.9956 O   0  0  0  1  0  0  0  0  0  0  0  0
    0.5089    1.5389    0.9958 N   0  0  0  1  0  0  0  0  0  0  0  0
   -0.9414    0.2490   -1.6538 H   0  0  0  1  0  0  0  0  0  0  0  0
   -1.2626   -0.6821    0.1018 C   0  0  0  1  0  0  0  0  0  0  0  0
    1.4586    1.7666    2.0748 C   0  0  0  1  0  0  0  0  0  0  0  0
   -0.7918   -2.0013   -0.5062 C   0  0  0  1  0  0  0  0  0  0  0  0
   -1.7231   -0.6384    1.2395 O   0  0  0  1  0  0  0  0  0  0  0  0
    0.7996    1.0321    0.2091 H   0  0  0  1  0  0  0  0  0  0  0  0
    0.9483    1.7257    3.0144 H   0  0  0  1  0  0  0  0  0  0  0  0
    1.9093    2.7298    1.9556 H   0  0  0  1  0  0  0  0  0  0  0  0
    2.2166    1.0118    2.0477 H   0  0  0  1  0  0  0  0  0  0  0  0
   -1.0321   -2.0200   -1.5487 H   0  0  0  1  0  0  0  0  0  0  0  0
   -1.2805   -2.8155   -0.0131 H   0  0  0  1  0  0  0  0  0  0  0  0
    0.2671   -2.0928   -0.3828 H   0  0  0  1  0  0  0  0  0  0  0  0
   -2.8180    8.8079   -0.0336 I   0  0  0  1  0  0  0  0  0  0  0  0
   -2.3630    6.8073   -0.4323 C   0  0  0  1  0  0  0  0  0  0  0  0
   -1.1132    6.3023   -0.1091 C   0  0  0  1  0  0  0  0  0  0  0  0
   -0.8110    4.9807   -0.3778 C   0  0  0  1  0  0  0  0  0  0  0  0
   -1.7598    4.1587   -0.9657 C   0  0  0  1  0  0  0  0  0  0  0  0
   -3.0060    4.6620   -1.2880 C   0  0  0  1  0  0  0  0  0  0  0  0
   -3.3089    5.9876   -1.0184 C   0  0  0  1  0  0  0  0  0  0  0  0
   -1.3590    2.7478   -1.3263 C   0  0  0  1  0  0  0  0  0  0  0  0
   -0.4028    6.9181    0.3356 H   0  0  0  1  0  0  0  0  0  0  0  0
    0.1281    4.6030   -0.1390 H   0  0  0  1  0  0  0  0  0  0  0  0
   -3.7165    4.0462   -1.7327 H   0  0  0  1  0  0  0  0  0  0  0  0
   -4.2480    6.3653   -1.2572 H   0  0  0  1  0  0  0  0  0  0  0  0
   -1.9461    2.4426   -2.1672 H   0  0  0  1  0  0  0  0  0  0  0  0
   -0.3242    2.7578   -1.5981 H   0  0  0  1  0  0  0  0  0  0  0  0
  1  4  1  0  0  0  0
  2  4  1  0  0  0  0
  2  5  2  0  0  0  0
  2  6  1  0  0  0  0
  3  4  1  0  0  0  0
  3  7  1  0  0  0  0
  3  8  1  0  0  0  0
  4 26  1  0  0  0  0
  6  9  1  0  0  0  0
  6 12  1  0  0  0  0
  8 10  1  0  0  0  0
  8 11  2  0  0  0  0
  9 13  1  0  0  0  0
  9 14  1  0  0  0  0
  9 15  1  0  0  0  0
 10 16  1  0  0  0  0
 10 17  1  0  0  0  0
 10 18  1  0  0  0  0
 19 20  1  0  0  0  0
 20 21  4  0  0  0  0
 20 25  4  0  0  0  0
 21 22  4  0  0  0  0
 21 27  1  0  0  0  0
 22 23  4  0  0  0  0
 22 28  1  0  0  0  0
 23 24  4  0  0  0  0
 23 26  1  0  0  0  0
 24 25  4  0  0  0  0
 24 29  1  0  0  0  0
 25 30  1  0  0  0  0
 26 31  1  0  0  0  0
 26 32  1  0  0  0  0
M  END
> <BCLConfClusterSize>
1

> <ConfClashScore>
0 

> <ConfOneFourInteractionScore>
-0.960318 

> <ConfScore>
0.204913 

> <ConfScorePBest>
0.0064098 

> <ConfTolerance>
0.229049 

> <RosettaParamsInstructions>
M  ROOT 3
M  POLY_N_BB 3
M  POLY_CA_BB 4
M  POLY_C_BB 2
M  POLY_O_BB 5
M  POLY_IGNORE 9 10 11 12 13 14 15 16 17 18 
M  POLY_UPPER 6
M  POLY_LOWER 8
M  POLY_CHG 0
M  POLY_PROPERTIES ALPHA_AA D_AA PROTEIN AROMATIC POLYMER 
M  END

$$$$



 32 32  0  0  0  0  0  0  0  0999 V2000
   -2.3549    2.0372    0.4967 H   0  0  0  1  0  0  0  0  0  0  0  0
   -0.2556    2.1479    0.8439 C   0  0  0  1  0  0  0  0  0  0  0  0
   -1.4284    0.4335   -0.4560 N   0  0  0  1  0  0  0  0  0  0  0  0
   -1.4553    1.8329   -0.0454 C   0  0  0  1  0  0  0  0  0  0  0  0
   -0.2644    2.9631    1.7482 O   0  0  0  1  0  0  0  0  0  0  0  0
    0.8391    1.4342    0.5397 N   0  0  0  1  0  0  0  0  0  0  0  0
   -1.5952    0.1953   -1.3918 H   0  0  0  1  0  0  0  0  0  0  0  0
   -1.1758   -0.5282    0.4449 C   0  0  0  1  0  0  0  0  0  0  0  0
    2.0549    1.5912    1.3239 C   0  0  0  1  0  0  0  0  0  0  0  0
   -1.0480   -1.9335   -0.1101 C   0  0  0  1  0  0  0  0  0  0  0  0
   -1.0528   -0.3036    1.6461 O   0  0  0  1  0  0  0  0  0  0  0  0
    0.8198    0.8058   -0.2120 H   0  0  0  1  0  0  0  0  0  0  0  0
    2.0078    2.5062    1.8766 H   0  0  0  1  0  0  0  0  0  0  0  0
    2.9009    1.6136    0.6691 H   0  0  0  1  0  0  0  0  0  0  0  0
    2.1501    0.7694    2.0024 H   0  0  0  1  0  0  0  0  0  0  0  0
   -0.6466   -1.8910   -1.1010 H   0  0  0  1  0  0  0  0  0  0  0  0
   -2.0128   -2.3956   -0.1358 H   0  0  0  1  0  0  0  0  0  0  0  0
   -0.3946   -2.5055    0.5150 H   0  0  0  1  0  0  0  0  0  0  0  0
   -2.7800    8.8079    0.0058 I   0  0  0  1  0  0  0  0  0  0  0  0
   -2.3756    6.8050   -0.4333 C   0  0  0  1  0  0  0  0  0  0  0  0
   -1.1209    6.3106   -0.1126 C   0  0  0  1  0  0  0  0  0  0  0  0
   -0.8055    4.9936   -0.3890 C   0  0  0  1  0  0  0  0  0  0  0  0
   -1.7459    4.1657   -0.9820 C   0  0  0  1  0  0  0  0  0  0  0  0
   -2.9970    4.6584   -1.3019 C   0  0  0  1  0  0  0  0  0  0  0  0
   -3.3131    5.9793   -1.0246 C   0  0  0  1  0  0  0  0  0  0  0  0
   -1.4039    2.7247   -1.2790 C   0  0  0  1  0  0  0  0  0  0  0  0
   -0.4168    6.9307    0.3360 H   0  0  0  1  0  0  0  0  0  0  0  0
    0.1372    4.6239   -0.1520 H   0  0  0  1  0  0  0  0  0  0  0  0
   -3.7011    4.0382   -1.7505 H   0  0  0  1  0  0  0  0  0  0  0  0
   -4.2558    6.3491   -1.2616 H   0  0  0  1  0  0  0  0  0  0  0  0
   -2.1014    2.3506   -1.9990 H   0  0  0  1  0  0  0  0  0  0  0  0
   -0.4151    2.6863   -1.6861 H   0  0  0  1  0  0  0  0  0  0  0  0
  1  4  1  0  0  0  0
  2  4  1  0  0  0  0
  2  5  2  0  0  0  0
  2  6  1  0  0  0  0
  3  4  1  0  0  0  0
  3  7  1  0  0  0  0
  3  8  1  0  0  0  0
  4 26  1  0  0  0  0
  6  9  1  0  0  0  0
  6 12  1  0  0  0  0
  8 10  1  0  0  0  0
  8 11  2  0  0  0  0
  9 13  1  0  0  0  0
  9 14  1  0  0  0  0
  9 15  1  0  0  0  0
 10 16  1  0  0  0  0
 10 17  1  0  0  0  0
 10 18  1  0  0  0  0
 19 20  1  0  0  0  0
 20 21  4  0  0  0  0
 20 25  4  0  0  0  0
 21 22  4  0  0  0  0
 21 27  1  0  0  0  0
 22 23  4  0  0  0  0
 22 28  1  0  0  0  0
 23 24  4  0  0  0  0
 23 26  1  0  0  0  0
 24 25  4  0  0  0  0
 24 29  1  0  0  0  0
 25 30  1  0  0  0  0
 26 31  1  0  0  0  0
 26 32  1  0  0  0  0
M  END
> <BCLConfClusterSize>
1

> <ConfClashScore>
0 

> <ConfOneFourInteractionScore>
-0.960318 

> <ConfScore>
0.205712 

> <ConfScorePBest>
0.00638132 

> <ConfTolerance>
0.277934 

> <RosettaParamsInstructions>
M  ROOT 3
M  POLY_N_BB 3
M  POLY_CA_BB 4
M  POLY_C_BB 2
M  POLY_O_BB 5
M  POLY_IGNORE 9 10 11 12 13 14 15 16 17 18 
M  POLY_UPPER 6
M  POLY_LOWER 8
M  POLY_CHG 0
M  POLY_PROPERTIES ALPHA_AA D_AA PROTEIN AROMATIC POLYMER 
M  END

$$$$



 32 32  0  0  0  0  0  0  0  0999 V2000
   -0.6857    2.0480    0.5768 H   0  0  0  1  0  0  0  0  0  0  0  0
   -1.4039    0.3516   -0.4433 C   0  0  0  1  0  0  0  0  0  0  0  0
   -2.7429    2.1042    0.6743 N   0  0  0  1  0  0  0  0  0  0  0  0
   -1.5149    1.8204   -0.0599 C   0  0  0  1  0  0  0  0  0  0  0  0
   -2.3584   -0.3809   -0.1889 O   0  0  0  1  0  0  0  0  0  0  0  0
   -0.2630   -0.0229   -1.0318 N   0  0  0  1  0  0  0  0  0  0  0  0
   -2.6797    2.6675    1.4737 H   0  0  0  1  0  0  0  0  0  0  0  0
   -3.9524    1.6435    0.3252 C   0  0  0  1  0  0  0  0  0  0  0  0
   -0.0886   -1.3424   -1.6204 C   0  0  0  1  0  0  0  0  0  0  0  0
   -5.0951    1.9983    1.2714 C   0  0  0  1  0  0  0  0  0  0  0  0
   -4.1476    0.9758   -0.6893 O   0  0  0  1  0  0  0  0  0  0  0  0
    0.4816    0.6132   -1.0680 H   0  0  0  1  0  0  0  0  0  0  0  0
   -0.7257   -2.0429   -1.1220 H   0  0  0  1  0  0  0  0  0  0  0  0
    0.9309   -1.6488   -1.5129 H   0  0  0  1  0  0  0  0  0  0  0  0
   -0.3429   -1.3058   -2.6591 H   0  0  0  1  0  0  0  0  0  0  0  0
   -4.9377    1.5213    2.2162 H   0  0  0  1  0  0  0  0  0  0  0  0
   -6.0213    1.6635    0.8530 H   0  0  0  1  0  0  0  0  0  0  0  0
   -5.1279    3.0589    1.4087 H   0  0  0  1  0  0  0  0  0  0  0  0
   -2.8298    8.8015   -0.0145 I   0  0  0  1  0  0  0  0  0  0  0  0
   -2.3639    6.8066   -0.4285 C   0  0  0  1  0  0  0  0  0  0  0  0
   -1.1110    6.3063   -0.1102 C   0  0  0  1  0  0  0  0  0  0  0  0
   -0.8016    4.9885   -0.3890 C   0  0  0  1  0  0  0  0  0  0  0  0
   -1.7462    4.1655   -0.9822 C   0  0  0  1  0  0  0  0  0  0  0  0
   -2.9956    4.6641   -1.2997 C   0  0  0  1  0  0  0  0  0  0  0  0
   -3.3057    5.9859   -1.0199 C   0  0  0  1  0  0  0  0  0  0  0  0
   -1.4108    2.7236   -1.2819 C   0  0  0  1  0  0  0  0  0  0  0  0
   -0.4036    6.9227    0.3385 H   0  0  0  1  0  0  0  0  0  0  0  0
    0.1398    4.6143   -0.1538 H   0  0  0  1  0  0  0  0  0  0  0  0
   -3.7029    4.0477   -1.7484 H   0  0  0  1  0  0  0  0  0  0  0  0
   -4.2471    6.3601   -1.2551 H   0  0  0  1  0  0  0  0  0  0  0  0
   -2.0874    2.3648   -2.0292 H   0  0  0  1  0  0  0  0  0  0  0  0
   -0.4091    2.6774   -1.6552 H   0  0  0  1  0  0  0  0  0  0  0  0
  1  4  1  0  0  0  0
  2  4  1  0  0  0  0
  2  5  2  0  0  0  0
  2  6  1  0  0  0  0
  3  4  1  0  0  0  0
  3  7  1  0  0  0  0
  3  8  1  0  0  0  0
  4 26  1  0  0  0  0
  6  9  1  0  0  0  0
  6 12  1  0  0  0  0
  8 10  1  0  0  0  0
  8 11  2  0  0  0  0
  9 13  1  0  0  0  0
  9 14  1  0  0  0  0
  9 15  1  0  0  0  0
 10 16  1  0  0  0  0
 10 17  1  0  0  0  0
 10 18  1  0  0  0  0
 19 20  1  0  0  0  0
 20 21  4  0  0  0  0
 20 25  4  0  0  0  0
 21 22  4  0  0  0  0
 21 27  1  0  0  0  0
 22 23  4  0  0  0  0
 22 28  1  0  0  0  0
 23 24  4  0  0  0  0
 23 26  1  0  0  0  0
 24 25  4  0  0  0  0
 24 29  1  0  0  0  0
 25 30  1  0  0  0  0
 26 31  1  0  0  0  0
 26 32  1  0  0  0  0
M  END
> <BCLConfClusterSize>
1

> <ConfClashScore>
0 

> <ConfOneFourInteractionScore>
-0.949257 

> <ConfScore>
0.20737 

> <ConfScorePBest>
0.00635284 

> <ConfTolerance>
0.414251 

> <RosettaParamsInstructions>
M  ROOT 3
M  POLY_N_BB 3
M  POLY_CA_BB 4
M  POLY_C_BB 2
M  POLY_O_BB 5
M  POLY_IGNORE 9 10 11 12 13 14 15 16 17 18 
M  POLY_UPPER 6
M  POLY_LOWER 8
M  POLY_CHG 0
M  POLY_PROPERTIES ALPHA_AA D_AA PROTEIN AROMATIC POLYMER 
M  END

$$$$



 32 32  0  0  0  0  0  0  0  0999 V2000
   -0.7704    1.3913   -2.7768 H   0  0  0  1  0  0  0  0  0  0  0  0
    0.2858    3.1840   -3.0713 C   0  0  0  1  0  0  0  0  0  0  0  0
   -2.0725    2.7362   -3.6316 N   0  0  0  1  0  0  0  0  0  0  0  0
   -0.9844    2.4377   -2.7125 C   0  0  0  1  0  0  0  0  0  0  0  0
    1.3661    2.8870   -2.5630 O   0  0  0  1  0  0  0  0  0  0  0  0
    0.1472    4.1739   -3.9674 N   0  0  0  1  0  0  0  0  0  0  0  0
   -2.6915    3.4633   -3.4114 H   0  0  0  1  0  0  0  0  0  0  0  0
   -2.2587    2.0467   -4.7762 C   0  0  0  1  0  0  0  0  0  0  0  0
    1.2639    5.0109   -4.3802 C   0  0  0  1  0  0  0  0  0  0  0  0
   -3.5518    2.2649   -5.5375 C   0  0  0  1  0  0  0  0  0  0  0  0
   -1.4061    1.2633   -5.1921 O   0  0  0  1  0  0  0  0  0  0  0  0
   -0.7367    4.3386   -4.3573 H   0  0  0  1  0  0  0  0  0  0  0  0
    1.6757    5.5043   -3.5247 H   0  0  0  1  0  0  0  0  0  0  0  0
    0.9210    5.7418   -5.0824 H   0  0  0  1  0  0  0  0  0  0  0  0
    2.0159    4.4021   -4.8369 H   0  0  0  1  0  0  0  0  0  0  0  0
   -4.1481    2.9924   -5.0276 H   0  0  0  1  0  0  0  0  0  0  0  0
   -4.0899    1.3420   -5.5980 H   0  0  0  1  0  0  0  0  0  0  0  0
   -3.3298    2.6143   -6.5242 H   0  0  0  1  0  0  0  0  0  0  0  0
   -2.8298    8.8015   -0.0145 I   0  0  0  1  0  0  0  0  0  0  0  0
   -2.3639    6.8066   -0.4285 C   0  0  0  1  0  0  0  0  0  0  0  0
   -1.1110    6.3063   -0.1102 C   0  0  0  1  0  0  0  0  0  0  0  0
   -0.8016    4.9885   -0.3890 C   0  0  0  1  0  0  0  0  0  0  0  0
   -1.7462    4.1655   -0.9822 C   0  0  0  1  0  0  0  0  0  0  0  0
   -2.9956    4.6641   -1.2997 C   0  0  0  1  0  0  0  0  0  0  0  0
   -3.3057    5.9859   -1.0199 C   0  0  0  1  0  0  0  0  0  0  0  0
   -1.4108    2.7236   -1.2819 C   0  0  0  1  0  0  0  0  0  0  0  0
   -0.4036    6.9227    0.3385 H   0  0  0  1  0  0  0  0  0  0  0  0
    0.1398    4.6143   -0.1538 H   0  0  0  1  0  0  0  0  0  0  0  0
   -3.7029    4.0477   -1.7484 H   0  0  0  1  0  0  0  0  0  0  0  0
   -4.2471    6.3601   -1.2551 H   0  0  0  1  0  0  0  0  0  0  0  0
   -0.6117    2.4291   -0.6341 H   0  0  0  1  0  0  0  0  0  0  0  0
   -2.2776    2.1325   -1.0714 H   0  0  0  1  0  0  0  0  0  0  0  0
  1  4  1  0  0  0  0
  2  4  1  0  0  0  0
  2  5  2  0  0  0  0
  2  6  1  0  0  0  0
  3  4  1  0  0  0  0
  3  7  1  0  0  0  0
  3  8  1  0  0  0  0
  4 26  1  0  0  0  0
  6  9  1  0  0  0  0
  6 12  1  0  0  0  0
  8 10  1  0  0  0  0
  8 11  2  0  0  0  0
  9 13  1  0  0  0  0
  9 14  1  0  0  0  0
  9 15  1  0  0  0  0
 10 16  1  0  0  0  0
 10 17  1  0  0  0  0
 10 18  1  0  0  0  0
 19 20  1  0  0  0  0
 20 21  4  0  0  0  0
 20 25  4  0  0  0  0
 21 22  4  0  0  0  0
 21 27  1  0  0  0  0
 22 23  4  0  0  0  0
 22 28  1  0  0  0  0
 23 24  4  0  0  0  0
 23 26  1  0  0  0  0
 24 25  4  0  0  0  0
 24 29  1  0  0  0  0
 25 30  1  0  0  0  0
 26 31  1  0  0  0  0
 26 32  1  0  0  0  0
M  END
> <BCLConfClusterSize>
1

> <ConfClashScore>
0 

> <ConfOneFourInteractionScore>
-0.950605 

> <ConfScore>
0.213252 

> <ConfScorePBest>
0.00632436 

> <ConfTolerance>
0.329435 

> <RosettaParamsInstructions>
M  ROOT 3
M  POLY_N_BB 3
M  POLY_CA_BB 4
M  POLY_C_BB 2
M  POLY_O_BB 5
M  POLY_IGNORE 9 10 11 12 13 14 15 16 17 18 
M  POLY_UPPER 6
M  POLY_LOWER 8
M  POLY_CHG 0
M  POLY_PROPERTIES ALPHA_AA D_AA PROTEIN AROMATIC POLYMER 
M  END

$$$$



 32 32  0  0  0  0  0  0  0  0999 V2000
   -1.6626    0.7699   -0.5366 H   0  0  0  1  0  0  0  0  0  0  0  0
   -3.4633    1.8173   -0.2381 C   0  0  0  1  0  0  0  0  0  0  0  0
   -1.3181    2.0474    1.0436 N   0  0  0  1  0  0  0  0  0  0  0  0
   -1.9482    1.7561   -0.2355 C   0  0  0  1  0  0  0  0  0  0  0  0
   -4.1290    0.9975   -0.8491 O   0  0  0  1  0  0  0  0  0  0  0  0
   -4.0077    2.8209    0.4679 N   0  0  0  1  0  0  0  0  0  0  0  0
   -0.3941    2.3737    1.0522 H   0  0  0  1  0  0  0  0  0  0  0  0
   -1.9543    1.8858    2.2041 C   0  0  0  1  0  0  0  0  0  0  0  0
   -5.4544    2.9463    0.5636 C   0  0  0  1  0  0  0  0  0  0  0  0
   -1.1828    2.3011    3.4417 C   0  0  0  1  0  0  0  0  0  0  0  0
   -3.0943    1.4304    2.2854 O   0  0  0  1  0  0  0  0  0  0  0  0
   -3.4296    3.4705    0.9199 H   0  0  0  1  0  0  0  0  0  0  0  0
   -5.9041    2.5927   -0.3406 H   0  0  0  1  0  0  0  0  0  0  0  0
   -5.7141    3.9735    0.7129 H   0  0  0  1  0  0  0  0  0  0  0  0
   -5.8087    2.3647    1.3890 H   0  0  0  1  0  0  0  0  0  0  0  0
   -1.7527    2.0617    4.3150 H   0  0  0  1  0  0  0  0  0  0  0  0
   -1.0022    3.3554    3.4119 H   0  0  0  1  0  0  0  0  0  0  0  0
   -0.2490    1.7795    3.4713 H   0  0  0  1  0  0  0  0  0  0  0  0
   -2.8298    8.8015   -0.0145 I   0  0  0  1  0  0  0  0  0  0  0  0
   -2.3639    6.8066   -0.4285 C   0  0  0  1  0  0  0  0  0  0  0  0
   -1.1110    6.3063   -0.1102 C   0  0  0  1  0  0  0  0  0  0  0  0
   -0.8016    4.9885   -0.3890 C   0  0  0  1  0  0  0  0  0  0  0  0
   -1.7462    4.1655   -0.9822 C   0  0  0  1  0  0  0  0  0  0  0  0
   -2.9956    4.6641   -1.2997 C   0  0  0  1  0  0  0  0  0  0  0  0
   -3.3057    5.9859   -1.0199 C   0  0  0  1  0  0  0  0  0  0  0  0
   -1.4108    2.7236   -1.2819 C   0  0  0  1  0  0  0  0  0  0  0  0
   -0.4036    6.9227    0.3385 H   0  0  0  1  0  0  0  0  0  0  0  0
    0.1398    4.6143   -0.1538 H   0  0  0  1  0  0  0  0  0  0  0  0
   -3.7029    4.0477   -1.7484 H   0  0  0  1  0  0  0  0  0  0  0  0
   -4.2471    6.3601   -1.2551 H   0  0  0  1  0  0  0  0  0  0  0  0
   -1.8315    2.4664   -2.2315 H   0  0  0  1  0  0  0  0  0  0  0  0
   -0.3464    2.6231   -1.3238 H   0  0  0  1  0  0  0  0  0  0  0  0
  1  4  1  0  0  0  0
  2  4  1  0  0  0  0
  2  5  2  0  0  0  0
  2  6  1  0  0  0  0
  3  4  1  0  0  0  0
  3  7  1  0  0  0  0
  3  8  1  0  0  0  0
  4 26  1  0  0  0  0
  6  9  1  0  0  0  0
  6 12  1  0  0  0  0
  8 10  1  0  0  0  0
  8 11  2  0  0  0  0
  9 13  1  0  0  0  0
  9 14  1  0  0  0  0
  9 15  1  0  0  0  0
 10 16  1  0  0  0  0
 10 17  1  0  0  0  0
 10 18  1  0  0  0  0
 19 20  1  0  0  0  0
 20 21  4  0  0  0  0
 20 25  4  0  0  0  0
 21 22  4  0  0  0  0
 21 27  1  0  0  0  0
 22 23  4  0  0  0  0
 22 28  1  0  0  0  0
 23 24  4  0  0  0  0
 23 26  1  0  0  0  0
 24 25  4  0  0  0  0
 24 29  1  0  0  0  0
 25 30  1  0  0  0  0
 26 31  1  0  0  0  0
 26 32  1  0  0  0  0
M  END
> <BCLConfClusterSize>
1

> <ConfClashScore>
0 

> <ConfOneFourInteractionScore>
-0.943556 

> <ConfScore>
0.214606 

> <ConfScorePBest>
0.00629587 

> <ConfTolerance>
0.285991 

> <RosettaParamsInstructions>
M  ROOT 3
M  POLY_N_BB 3
M  POLY_CA_BB 4
M  POLY_C_BB 2
M  POLY_O_BB 5
M  POLY_IGNORE 9 10 11 12 13 14 15 16 17 18 
M  POLY_UPPER 6
M  POLY_LOWER 8
M  POLY_CHG 0
M  POLY_PROPERTIES ALPHA_AA D_AA PROTEIN AROMATIC POLYMER 
M  END

$$$$



 32 32  0  0  0  0  0  0  0  0999 V2000
   -1.7347    2.9289   -3.4274 H   0  0  0  1  0  0  0  0  0  0  0  0
   -0.7669    1.0593   -3.1052 C   0  0  0  1  0  0  0  0  0  0  0  0
    0.2911    3.2514   -3.0349 N   0  0  0  1  0  0  0  0  0  0  0  0
   -0.9713    2.5400   -2.7864 C   0  0  0  1  0  0  0  0  0  0  0  0
   -1.5998    0.2239   -2.7942 O   0  0  0  1  0  0  0  0  0  0  0  0
    0.3750    0.7518   -3.7405 N   0  0  0  1  0  0  0  0  0  0  0  0
    0.3285    3.9590   -3.7119 H   0  0  0  1  0  0  0  0  0  0  0  0
    1.3982    2.9322   -2.3330 C   0  0  0  1  0  0  0  0  0  0  0  0
    0.8163   -0.6227   -3.9245 C   0  0  0  1  0  0  0  0  0  0  0  0
    2.6591    3.6833   -2.7139 C   0  0  0  1  0  0  0  0  0  0  0  0
    1.4035    2.0883   -1.4377 O   0  0  0  1  0  0  0  0  0  0  0  0
    0.9308    1.4781   -4.0925 H   0  0  0  1  0  0  0  0  0  0  0  0
    0.5739   -1.1953   -3.0537 H   0  0  0  1  0  0  0  0  0  0  0  0
    1.8750   -0.6395   -4.0788 H   0  0  0  1  0  0  0  0  0  0  0  0
    0.3245   -1.0439   -4.7764 H   0  0  0  1  0  0  0  0  0  0  0  0
    2.9923    3.3567   -3.6768 H   0  0  0  1  0  0  0  0  0  0  0  0
    3.4217    3.4904   -1.9885 H   0  0  0  1  0  0  0  0  0  0  0  0
    2.4531    4.7328   -2.7451 H   0  0  0  1  0  0  0  0  0  0  0  0
   -2.8231    8.8071   -0.0353 I   0  0  0  1  0  0  0  0  0  0  0  0
   -2.3624    6.8074   -0.4319 C   0  0  0  1  0  0  0  0  0  0  0  0
   -1.1115    6.3061   -0.1074 C   0  0  0  1  0  0  0  0  0  0  0  0
   -0.8056    4.9851   -0.3748 C   0  0  0  1  0  0  0  0  0  0  0  0
   -1.7517    4.1600   -0.9627 C   0  0  0  1  0  0  0  0  0  0  0  0
   -2.9991    4.6597   -1.2863 C   0  0  0  1  0  0  0  0  0  0  0  0
   -3.3057    5.9847   -1.0181 C   0  0  0  1  0  0  0  0  0  0  0  0
   -1.3973    2.7414   -1.3414 C   0  0  0  1  0  0  0  0  0  0  0  0
   -0.4031    6.9241    0.3373 H   0  0  0  1  0  0  0  0  0  0  0  0
    0.1343    4.6101   -0.1349 H   0  0  0  1  0  0  0  0  0  0  0  0
   -3.7075    4.0417   -1.7311 H   0  0  0  1  0  0  0  0  0  0  0  0
   -4.2456    6.3597   -1.2579 H   0  0  0  1  0  0  0  0  0  0  0  0
   -0.5921    2.4233   -0.7125 H   0  0  0  1  0  0  0  0  0  0  0  0
   -2.2550    2.1276   -1.1614 H   0  0  0  1  0  0  0  0  0  0  0  0
  1  4  1  0  0  0  0
  2  4  1  0  0  0  0
  2  5  2  0  0  0  0
  2  6  1  0  0  0  0
  3  4  1  0  0  0  0
  3  7  1  0  0  0  0
  3  8  1  0  0  0  0
  4 26  1  0  0  0  0
  6  9  1  0  0  0  0
  6 12  1  0  0  0  0
  8 10  1  0  0  0  0
  8 11  2  0  0  0  0
  9 13  1  0  0  0  0
  9 14  1  0  0  0  0
  9 15  1  0  0  0  0
 10 16  1  0  0  0  0
 10 17  1  0  0  0  0
 10 18  1  0  0  0  0
 19 20  1  0  0  0  0
 20 21  4  0  0  0  0
 20 25  4  0  0  0  0
 21 22  4  0  0  0  0
 21 27  1  0  0  0  0
 22 23  4  0  0  0  0
 22 28  1  0  0  0  0
 23 24  4  0  0  0  0
 23 26  1  0  0  0  0
 24 25  4  0  0  0  0
 24 29  1  0  0  0  0
 25 30  1  0  0  0  0
 26 31  1  0  0  0  0
 26 32  1  0  0  0  0
M  END
> <BCLConfClusterSize>
1

> <ConfClashScore>
0 

> <ConfOneFourInteractionScore>
-0.939055 

> <ConfScore>
0.216414 

> <ConfScorePBest>
0.00626739 

> <ConfTolerance>
0.243341 

> <RosettaParamsInstructions>
M  ROOT 3
M  POLY_N_BB 3
M  POLY_CA_BB 4
M  POLY_C_BB 2
M  POLY_O_BB 5
M  POLY_IGNORE 9 10 11 12 13 14 15 16 17 18 
M  POLY_UPPER 6
M  POLY_LOWER 8
M  POLY_CHG 0
M  POLY_PROPERTIES ALPHA_AA D_AA PROTEIN AROMATIC POLYMER 
M  END

$$$$



 32 32  0  0  0  0  0  0  0  0999 V2000
   -1.1665    2.9487   -3.3954 H   0  0  0  1  0  0  0  0  0  0  0  0
   -0.5745    0.9755   -2.8458 C   0  0  0  1  0  0  0  0  0  0  0  0
    0.6960    2.9683   -2.4642 N   0  0  0  1  0  0  0  0  0  0  0  0
   -0.6683    2.4742   -2.5759 C   0  0  0  1  0  0  0  0  0  0  0  0
   -1.5294    0.3200   -3.2212 O   0  0  0  1  0  0  0  0  0  0  0  0
    0.5999    0.3525   -2.6647 N   0  0  0  1  0  0  0  0  0  0  0  0
    0.9796    3.3886   -1.6255 H   0  0  0  1  0  0  0  0  0  0  0  0
    1.5752    2.8690   -3.4652 C   0  0  0  1  0  0  0  0  0  0  0  0
    0.7028   -1.0854   -2.8641 C   0  0  0  1  0  0  0  0  0  0  0  0
    2.9242    3.5181   -3.2240 C   0  0  0  1  0  0  0  0  0  0  0  0
    1.3244    2.2916   -4.5223 O   0  0  0  1  0  0  0  0  0  0  0  0
    1.3901    0.8668   -2.3974 H   0  0  0  1  0  0  0  0  0  0  0  0
   -0.2498   -1.5396   -2.6873 H   0  0  0  1  0  0  0  0  0  0  0  0
    1.4222   -1.4892   -2.1828 H   0  0  0  1  0  0  0  0  0  0  0  0
    1.0115   -1.2846   -3.8691 H   0  0  0  1  0  0  0  0  0  0  0  0
    2.8424    4.5754   -3.3666 H   0  0  0  1  0  0  0  0  0  0  0  0
    3.6396    3.1199   -3.9127 H   0  0  0  1  0  0  0  0  0  0  0  0
    3.2424    3.3172   -2.2223 H   0  0  0  1  0  0  0  0  0  0  0  0
   -2.8883    8.7914   -0.0392 I   0  0  0  1  0  0  0  0  0  0  0  0
   -2.3507    6.8086   -0.4230 C   0  0  0  1  0  0  0  0  0  0  0  0
   -1.0984    6.3060   -0.1056 C   0  0  0  1  0  0  0  0  0  0  0  0
   -0.7913    4.9879   -0.3854 C   0  0  0  1  0  0  0  0  0  0  0  0
   -1.7376    4.1668   -0.9786 C   0  0  0  1  0  0  0  0  0  0  0  0
   -2.9863    4.6677   -1.2952 C   0  0  0  1  0  0  0  0  0  0  0  0
   -3.2941    5.9898   -1.0145 C   0  0  0  1  0  0  0  0  0  0  0  0
   -1.4618    2.7175   -1.3026 C   0  0  0  1  0  0  0  0  0  0  0  0
   -0.3898    6.9210    0.3432 H   0  0  0  1  0  0  0  0  0  0  0  0
    0.1496    4.6120   -0.1508 H   0  0  0  1  0  0  0  0  0  0  0  0
   -3.6948    4.0527   -1.7439 H   0  0  0  1  0  0  0  0  0  0  0  0
   -4.2350    6.3657   -1.2490 H   0  0  0  1  0  0  0  0  0  0  0  0
   -0.9138    2.2953   -0.4864 H   0  0  0  1  0  0  0  0  0  0  0  0
   -2.4022    2.2161   -1.3989 H   0  0  0  1  0  0  0  0  0  0  0  0
  1  4  1  0  0  0  0
  2  4  1  0  0  0  0
  2  5  2  0  0  0  0
  2  6  1  0  0  0  0
  3  4  1  0  0  0  0
  3  7  1  0  0  0  0
  3  8  1  0  0  0  0
  4 26  1  0  0  0  0
  6  9  1  0  0  0  0
  6 12  1  0  0  0  0
  8 10  1  0  0  0  0
  8 11  2  0  0  0  0
  9 13  1  0  0  0  0
  9 14  1  0  0  0  0
  9 15  1  0  0  0  0
 10 16  1  0  0  0  0
 10 17  1  0  0  0  0
 10 18  1  0  0  0  0
 19 20  1  0  0  0  0
 20 21  4  0  0  0  0
 20 25  4  0  0  0  0
 21 22  4  0  0  0  0
 21 27  1  0  0  0  0
 22 23  4  0  0  0  0
 22 28  1  0  0  0  0
 23 24  4  0  0  0  0
 23 26  1  0  0  0  0
 24 25  4  0  0  0  0
 24 29  1  0  0  0  0
 25 30  1  0  0  0  0
 26 31  1  0  0  0  0
 26 32  1  0  0  0  0
M  END
> <BCLConfClusterSize>
1

> <ConfClashScore>
0 

> <ConfOneFourInteractionScore>
-0.937775 

> <ConfScore>
0.218722 

> <ConfScorePBest>
0.00623891 

> <ConfTolerance>
0.23169 

> <RosettaParamsInstructions>
M  ROOT 3
M  POLY_N_BB 3
M  POLY_CA_BB 4
M  POLY_C_BB 2
M  POLY_O_BB 5
M  POLY_IGNORE 9 10 11 12 13 14 15 16 17 18 
M  POLY_UPPER 6
M  POLY_LOWER 8
M  POLY_CHG 0
M  POLY_PROPERTIES ALPHA_AA D_AA PROTEIN AROMATIC POLYMER 
M  END

$$$$



 32 32  0  0  0  0  0  0  0  0999 V2000
   -1.5073    0.8215   -0.3790 H   0  0  0  1  0  0  0  0  0  0  0  0
   -3.3954    1.7443   -0.1801 C   0  0  0  1  0  0  0  0  0  0  0  0
   -1.3167    2.2595    1.0911 N   0  0  0  1  0  0  0  0  0  0  0  0
   -1.8772    1.8041   -0.1724 C   0  0  0  1  0  0  0  0  0  0  0  0
   -4.0659    2.6090    0.3595 O   0  0  0  1  0  0  0  0  0  0  0  0
   -3.9309    0.6966   -0.8086 N   0  0  0  1  0  0  0  0  0  0  0  0
   -0.7370    3.0497    1.0939 H   0  0  0  1  0  0  0  0  0  0  0  0
   -1.5671    1.6326    2.2571 C   0  0  0  1  0  0  0  0  0  0  0  0
   -5.3678    0.5454   -0.9822 C   0  0  0  1  0  0  0  0  0  0  0  0
   -0.8168    2.2239    3.4436 C   0  0  0  1  0  0  0  0  0  0  0  0
   -2.3178    0.6789    2.3858 O   0  0  0  1  0  0  0  0  0  0  0  0
   -3.3359    0.0046   -1.1657 H   0  0  0  1  0  0  0  0  0  0  0  0
   -5.7992    1.4926   -1.2306 H   0  0  0  1  0  0  0  0  0  0  0  0
   -5.8007    0.1841   -0.0728 H   0  0  0  1  0  0  0  0  0  0  0  0
   -5.5601   -0.1516   -1.7709 H   0  0  0  1  0  0  0  0  0  0  0  0
    0.0775    2.7000    3.0993 H   0  0  0  1  0  0  0  0  0  0  0  0
   -0.5634    1.4433    4.1300 H   0  0  0  1  0  0  0  0  0  0  0  0
   -1.4374    2.9439    3.9348 H   0  0  0  1  0  0  0  0  0  0  0  0
   -2.8193    8.8027   -0.0103 I   0  0  0  1  0  0  0  0  0  0  0  0
   -2.3651    6.8061   -0.4291 C   0  0  0  1  0  0  0  0  0  0  0  0
   -1.1145    6.2983   -0.1138 C   0  0  0  1  0  0  0  0  0  0  0  0
   -0.8128    4.9793   -0.3959 C   0  0  0  1  0  0  0  0  0  0  0  0
   -1.7629    4.1628   -0.9892 C   0  0  0  1  0  0  0  0  0  0  0  0
   -3.0100    4.6689   -1.3036 C   0  0  0  1  0  0  0  0  0  0  0  0
   -3.3124    5.9919   -1.0207 C   0  0  0  1  0  0  0  0  0  0  0  0
   -1.3315    2.7386   -1.2480 C   0  0  0  1  0  0  0  0  0  0  0  0
   -0.4030    6.9098    0.3350 H   0  0  0  1  0  0  0  0  0  0  0  0
    0.1269    4.5995   -0.1630 H   0  0  0  1  0  0  0  0  0  0  0  0
   -3.7215    4.0574   -1.7524 H   0  0  0  1  0  0  0  0  0  0  0  0
   -4.2521    6.3717   -1.2536 H   0  0  0  1  0  0  0  0  0  0  0  0
   -1.7012    2.4281   -2.2029 H   0  0  0  1  0  0  0  0  0  0  0  0
   -0.2626    2.6899   -1.2457 H   0  0  0  1  0  0  0  0  0  0  0  0
  1  4  1  0  0  0  0
  2  4  1  0  0  0  0
  2  5  2  0  0  0  0
  2  6  1  0  0  0  0
  3  4  1  0  0  0  0
  3  7  1  0  0  0  0
  3  8  1  0  0  0  0
  4 26  1  0  0  0  0
  6  9  1  0  0  0  0
  6 12  1  0  0  0  0
  8 10  1  0  0  0  0
  8 11  2  0  0  0  0
  9 13  1  0  0  0  0
  9 14  1  0  0  0  0
  9 15  1  0  0  0  0
 10 16  1  0  0  0  0
 10 17  1  0  0  0  0
 10 18  1  0  0  0  0
 19 20  1  0  0  0  0
 20 21  4  0  0  0  0
 20 25  4  0  0  0  0
 21 22  4  0  0  0  0
 21 27  1  0  0  0  0
 22 23  4  0  0  0  0
 22 28  1  0  0  0  0
 23 24  4  0  0  0  0
 23 26  1  0  0  0  0
 24 25  4  0  0  0  0
 24 29  1  0  0  0  0
 25 30  1  0  0  0  0
 26 31  1  0  0  0  0
 26 32  1  0  0  0  0
M  END
> <BCLConfClusterSize>
1

> <ConfClashScore>
0 

> <ConfOneFourInteractionScore>
-0.976093 

> <ConfScore>
0.221744 

> <ConfScorePBest>
0.00621043 

> <ConfTolerance>
0.300003 

> <RosettaParamsInstructions>
M  ROOT 3
M  POLY_N_BB 3
M  POLY_CA_BB 4
M  POLY_C_BB 2
M  POLY_O_BB 5
M  POLY_IGNORE 9 10 11 12 13 14 15 16 17 18 
M  POLY_UPPER 6
M  POLY_LOWER 8
M  POLY_CHG 0
M  POLY_PROPERTIES ALPHA_AA D_AA PROTEIN AROMATIC POLYMER 
M  END

$$$$



 32 32  0  0  0  0  0  0  0  0999 V2000
   -0.4999    1.5030   -2.6933 H   0  0  0  1  0  0  0  0  0  0  0  0
    0.4466    3.3286   -2.9306 C   0  0  0  1  0  0  0  0  0  0  0  0
   -1.8151    2.6563   -3.7542 N   0  0  0  1  0  0  0  0  0  0  0  0
   -0.8129    2.5259   -2.6687 C   0  0  0  1  0  0  0  0  0  0  0  0
    1.0643    3.8535   -2.0182 O   0  0  0  1  0  0  0  0  0  0  0  0
    0.8248    3.4174   -4.2156 N   0  0  0  1  0  0  0  0  0  0  0  0
   -2.4884    1.9465   -3.8113 H   0  0  0  1  0  0  0  0  0  0  0  0
   -1.9071    3.6623   -4.6920 C   0  0  0  1  0  0  0  0  0  0  0  0
    1.9600    4.1895   -4.6985 C   0  0  0  1  0  0  0  0  0  0  0  0
   -2.8303    3.4011   -5.8461 C   0  0  0  1  0  0  0  0  0  0  0  0
   -1.2620    4.6846   -4.5551 O   0  0  0  1  0  0  0  0  0  0  0  0
    0.2967    2.9253   -4.8784 H   0  0  0  1  0  0  0  0  0  0  0  0
    2.4884    4.6061   -3.8665 H   0  0  0  1  0  0  0  0  0  0  0  0
    1.6110    4.9791   -5.3306 H   0  0  0  1  0  0  0  0  0  0  0  0
    2.6152    3.5509   -5.2533 H   0  0  0  1  0  0  0  0  0  0  0  0
   -3.2740    4.3214   -6.1640 H   0  0  0  1  0  0  0  0  0  0  0  0
   -3.5986    2.7216   -5.5412 H   0  0  0  1  0  0  0  0  0  0  0  0
   -2.2765    2.9740   -6.6559 H   0  0  0  1  0  0  0  0  0  0  0  0
   -2.8298    8.8015   -0.0145 I   0  0  0  1  0  0  0  0  0  0  0  0
   -2.3639    6.8066   -0.4285 C   0  0  0  1  0  0  0  0  0  0  0  0
   -1.1110    6.3063   -0.1102 C   0  0  0  1  0  0  0  0  0  0  0  0
   -0.8016    4.9885   -0.3890 C   0  0  0  1  0  0  0  0  0  0  0  0
   -1.7462    4.1655   -0.9822 C   0  0  0  1  0  0  0  0  0  0  0  0
   -2.9956    4.6641   -1.2997 C   0  0  0  1  0  0  0  0  0  0  0  0
   -3.3057    5.9859   -1.0199 C   0  0  0  1  0  0  0  0  0  0  0  0
   -1.4108    2.7236   -1.2819 C   0  0  0  1  0  0  0  0  0  0  0  0
   -0.4036    6.9227    0.3385 H   0  0  0  1  0  0  0  0  0  0  0  0
    0.1398    4.6143   -0.1538 H   0  0  0  1  0  0  0  0  0  0  0  0
   -3.7029    4.0477   -1.7484 H   0  0  0  1  0  0  0  0  0  0  0  0
   -4.2471    6.3601   -1.2551 H   0  0  0  1  0  0  0  0  0  0  0  0
   -0.7052    2.3798   -0.5547 H   0  0  0  1  0  0  0  0  0  0  0  0
   -2.3073    2.1437   -1.2117 H   0  0  0  1  0  0  0  0  0  0  0  0
  1  4  1  0  0  0  0
  2  4  1  0  0  0  0
  2  5  2  0  0  0  0
  2  6  1  0  0  0  0
  3  4  1  0  0  0  0
  3  7  1  0  0  0  0
  3  8  1  0  0  0  0
  4 26  1  0  0  0  0
  6  9  1  0  0  0  0
  6 12  1  0  0  0  0
  8 10  1  0  0  0  0
  8 11  2  0  0  0  0
  9 13  1  0  0  0  0
  9 14  1  0  0  0  0
  9 15  1  0  0  0  0
 10 16  1  0  0  0  0
 10 17  1  0  0  0  0
 10 18  1  0  0  0  0
 19 20  1  0  0  0  0
 20 21  4  0  0  0  0
 20 25  4  0  0  0  0
 21 22  4  0  0  0  0
 21 27  1  0  0  0  0
 22 23  4  0  0  0  0
 22 28  1  0  0  0  0
 23 24  4  0  0  0  0
 23 26  1  0  0  0  0
 24 25  4  0  0  0  0
 24 29  1  0  0  0  0
 25 30  1  0  0  0  0
 26 31  1  0  0  0  0
 26 32  1  0  0  0  0
M  END
> <BCLConfClusterSize>
1

> <ConfClashScore>
0 

> <ConfOneFourInteractionScore>
-0.973295 

> <ConfScore>
0.222291 

> <ConfScorePBest>
0.00618195 

> <ConfTolerance>
0.264137 

> <RosettaParamsInstructions>
M  ROOT 3
M  POLY_N_BB 3
M  POLY_CA_BB 4
M  POLY_C_BB 2
M  POLY_O_BB 5
M  POLY_IGNORE 9 10 11 12 13 14 15 16 17 18 
M  POLY_UPPER 6
M  POLY_LOWER 8
M  POLY_CHG 0
M  POLY_PROPERTIES ALPHA_AA D_AA PROTEIN AROMATIC POLYMER 
M  END

$$$$



 32 32  0  0  0  0  0  0  0  0999 V2000
   -0.8983    1.4570   -2.9084 H   0  0  0  1  0  0  0  0  0  0  0  0
   -0.4557    3.4557   -3.4961 C   0  0  0  1  0  0  0  0  0  0  0  0
   -2.6735    2.4593   -3.3621 N   0  0  0  1  0  0  0  0  0  0  0  0
   -1.3265    2.4283   -2.7737 C   0  0  0  1  0  0  0  0  0  0  0  0
    0.7203    3.2107   -3.7617 O   0  0  0  1  0  0  0  0  0  0  0  0
   -1.0121    4.6306   -3.8310 N   0  0  0  1  0  0  0  0  0  0  0  0
   -2.9319    3.2281   -3.9121 H   0  0  0  1  0  0  0  0  0  0  0  0
   -3.5664    1.4660   -3.1711 C   0  0  0  1  0  0  0  0  0  0  0  0
   -0.2491    5.7032   -4.4516 C   0  0  0  1  0  0  0  0  0  0  0  0
   -4.8792    1.5325   -3.9270 C   0  0  0  1  0  0  0  0  0  0  0  0
   -3.3250    0.5326   -2.4068 O   0  0  0  1  0  0  0  0  0  0  0  0
   -1.9652    4.7709   -3.6512 H   0  0  0  1  0  0  0  0  0  0  0  0
    0.6484    5.3039   -4.8758 H   0  0  0  1  0  0  0  0  0  0  0  0
    0.0010    6.4361   -3.7132 H   0  0  0  1  0  0  0  0  0  0  0  0
   -0.8358    6.1583   -5.2221 H   0  0  0  1  0  0  0  0  0  0  0  0
   -5.4029    2.4251   -3.6553 H   0  0  0  1  0  0  0  0  0  0  0  0
   -5.4764    0.6797   -3.6799 H   0  0  0  1  0  0  0  0  0  0  0  0
   -4.6847    1.5396   -4.9791 H   0  0  0  1  0  0  0  0  0  0  0  0
   -2.8298    8.8015   -0.0145 I   0  0  0  1  0  0  0  0  0  0  0  0
   -2.3639    6.8066   -0.4285 C   0  0  0  1  0  0  0  0  0  0  0  0
   -1.1110    6.3063   -0.1102 C   0  0  0  1  0  0  0  0  0  0  0  0
   -0.8016    4.9885   -0.3890 C   0  0  0  1  0  0  0  0  0  0  0  0
   -1.7462    4.1655   -0.9822 C   0  0  0  1  0  0  0  0  0  0  0  0
   -2.9956    4.6641   -1.2997 C   0  0  0  1  0  0  0  0  0  0  0  0
   -3.3057    5.9859   -1.0199 C   0  0  0  1  0  0  0  0  0  0  0  0
   -1.4108    2.7236   -1.2819 C   0  0  0  1  0  0  0  0  0  0  0  0
   -0.4036    6.9227    0.3385 H   0  0  0  1  0  0  0  0  0  0  0  0
    0.1398    4.6143   -0.1538 H   0  0  0  1  0  0  0  0  0  0  0  0
   -3.7029    4.0477   -1.7484 H   0  0  0  1  0  0  0  0  0  0  0  0
   -4.2471    6.3601   -1.2551 H   0  0  0  1  0  0  0  0  0  0  0  0
   -0.4660    2.4938   -0.8353 H   0  0  0  1  0  0  0  0  0  0  0  0
   -2.1690    2.1015   -0.8539 H   0  0  0  1  0  0  0  0  0  0  0  0
  1  4  1  0  0  0  0
  2  4  1  0  0  0  0
  2  5  2  0  0  0  0
  2  6  1  0  0  0  0
  3  4  1  0  0  0  0
  3  7  1  0  0  0  0
  3  8  1  0  0  0  0
  4 26  1  0  0  0  0
  6  9  1  0  0  0  0
  6 12  1  0  0  0  0
  8 10  1  0  0  0  0
  8 11  2  0  0  0  0
  9 13  1  0  0  0  0
  9 14  1  0  0  0  0
  9 15  1  0  0  0  0
 10 16  1  0  0  0  0
 10 17  1  0  0  0  0
 10 18  1  0  0  0  0
 19 20  1  0  0  0  0
 20 21  4  0  0  0  0
 20 25  4  0  0  0  0
 21 22  4  0  0  0  0
 21 27  1  0  0  0  0
 22 23  4  0  0  0  0
 22 28  1  0  0  0  0
 23 24  4  0  0  0  0
 23 26  1  0  0  0  0
 24 25  4  0  0  0  0
 24 29  1  0  0  0  0
 25 30  1  0  0  0  0
 26 31  1  0  0  0  0
 26 32  1  0  0  0  0
M  END
> <BCLConfClusterSize>
1

> <ConfClashScore>
0 

> <ConfOneFourInteractionScore>
-0.96177 

> <ConfScore>
0.222874 

> <ConfScorePBest>
0.00615347 

> <ConfTolerance>
0.399209 

> <RosettaParamsInstructions>
M  ROOT 3
M  POLY_N_BB 3
M  POLY_CA_BB 4
M  POLY_C_BB 2
M  POLY_O_BB 5
M  POLY_IGNORE 9 10 11 12 13 14 15 16 17 18 
M  POLY_UPPER 6
M  POLY_LOWER 8
M  POLY_CHG 0
M  POLY_PROPERTIES ALPHA_AA D_AA PROTEIN AROMATIC POLYMER 
M  END

$$$$



 32 32  0  0  0  0  0  0  0  0999 V2000
    0.3728    3.0908   -2.3827 H   0  0  0  1  0  0  0  0  0  0  0  0
   -1.3073    3.1420   -3.6652 C   0  0  0  1  0  0  0  0  0  0  0  0
   -0.2337    1.1392   -2.6815 N   0  0  0  1  0  0  0  0  0  0  0  0
   -0.5382    2.5429   -2.5039 C   0  0  0  1  0  0  0  0  0  0  0  0
   -1.3577    4.3585   -3.8267 O   0  0  0  1  0  0  0  0  0  0  0  0
   -1.9298    2.3040   -4.5092 N   0  0  0  1  0  0  0  0  0  0  0  0
   -0.5561    0.4826   -2.0294 H   0  0  0  1  0  0  0  0  0  0  0  0
    0.4931    0.7328   -3.7430 C   0  0  0  1  0  0  0  0  0  0  0  0
   -2.8065    2.7331   -5.5887 C   0  0  0  1  0  0  0  0  0  0  0  0
    0.9182   -0.7216   -3.8012 C   0  0  0  1  0  0  0  0  0  0  0  0
    0.8026    1.5157   -4.6373 O   0  0  0  1  0  0  0  0  0  0  0  0
   -1.7846    1.3421   -4.3910 H   0  0  0  1  0  0  0  0  0  0  0  0
   -3.0587    1.8918   -6.1998 H   0  0  0  1  0  0  0  0  0  0  0  0
   -2.3060    3.4684   -6.1834 H   0  0  0  1  0  0  0  0  0  0  0  0
   -3.6994    3.1546   -5.1765 H   0  0  0  1  0  0  0  0  0  0  0  0
    0.0533   -1.3425   -3.9075 H   0  0  0  1  0  0  0  0  0  0  0  0
    1.4328   -0.9788   -2.8990 H   0  0  0  1  0  0  0  0  0  0  0  0
    1.5684   -0.8697   -4.6380 H   0  0  0  1  0  0  0  0  0  0  0  0
   -2.8296    8.7831    0.0608 I   0  0  0  1  0  0  0  0  0  0  0  0
   -2.3589    6.8139   -0.4577 C   0  0  0  1  0  0  0  0  0  0  0  0
   -1.1097    6.3095   -0.1313 C   0  0  0  1  0  0  0  0  0  0  0  0
   -0.8085    4.9863   -0.3930 C   0  0  0  1  0  0  0  0  0  0  0  0
   -1.7577    4.1621   -0.9772 C   0  0  0  1  0  0  0  0  0  0  0  0
   -3.0033    4.6647   -1.3028 C   0  0  0  1  0  0  0  0  0  0  0  0
   -3.3052    5.9919   -1.0401 C   0  0  0  1  0  0  0  0  0  0  0  0
   -1.3784    2.7231   -1.2361 C   0  0  0  1  0  0  0  0  0  0  0  0
   -0.3990    6.9269    0.3107 H   0  0  0  1  0  0  0  0  0  0  0  0
    0.1301    4.6090   -0.1518 H   0  0  0  1  0  0  0  0  0  0  0  0
   -3.7140    4.0473   -1.7447 H   0  0  0  1  0  0  0  0  0  0  0  0
   -4.2439    6.3692   -1.2814 H   0  0  0  1  0  0  0  0  0  0  0  0
   -0.8153    2.3637   -0.4003 H   0  0  0  1  0  0  0  0  0  0  0  0
   -2.2748    2.1475   -1.3369 H   0  0  0  1  0  0  0  0  0  0  0  0
  1  4  1  0  0  0  0
  2  4  1  0  0  0  0
  2  5  2  0  0  0  0
  2  6  1  0  0  0  0
  3  4  1  0  0  0  0
  3  7  1  0  0  0  0
  3  8  1  0  0  0  0
  4 26  1  0  0  0  0
  6  9  1  0  0  0  0
  6 12  1  0  0  0  0
  8 10  1  0  0  0  0
  8 11  2  0  0  0  0
  9 13  1  0  0  0  0
  9 14  1  0  0  0  0
  9 15  1  0  0  0  0
 10 16  1  0  0  0  0
 10 17  1  0  0  0  0
 10 18  1  0  0  0  0
 19 20  1  0  0  0  0
 20 21  4  0  0  0  0
 20 25  4  0  0  0  0
 21 22  4  0  0  0  0
 21 27  1  0  0  0  0
 22 23  4  0  0  0  0
 22 28  1  0  0  0  0
 23 24  4  0  0  0  0
 23 26  1  0  0  0  0
 24 25  4  0  0  0  0
 24 29  1  0  0  0  0
 25 30  1  0  0  0  0
 26 31  1  0  0  0  0
 26 32  1  0  0  0  0
M  END
> <BCLConfClusterSize>
1

> <ConfClashScore>
0 

> <ConfOneFourInteractionScore>
-0.960318 

> <ConfScore>
0.224727 

> <ConfScorePBest>
0.00612499 

> <ConfTolerance>
0.228 

> <RosettaParamsInstructions>
M  ROOT 3
M  POLY_N_BB 3
M  POLY_CA_BB 4
M  POLY_C_BB 2
M  POLY_O_BB 5
M  POLY_IGNORE 9 10 11 12 13 14 15 16 17 18 
M  POLY_UPPER 6
M  POLY_LOWER 8
M  POLY_CHG 0
M  POLY_PROPERTIES ALPHA_AA D_AA PROTEIN AROMATIC POLYMER 
M  END

$$$$



 32 32  0  0  0  0  0  0  0  0999 V2000
   -2.6908    2.4720   -2.9435 H   0  0  0  1  0  0  0  0  0  0  0  0
   -1.3104    0.8883   -3.0035 C   0  0  0  1  0  0  0  0  0  0  0  0
   -0.9073    3.2392   -3.6232 N   0  0  0  1  0  0  0  0  0  0  0  0
   -1.6467    2.3448   -2.7470 C   0  0  0  1  0  0  0  0  0  0  0  0
   -2.0938   -0.0082   -2.6944 O   0  0  0  1  0  0  0  0  0  0  0  0
   -0.1713    0.6499   -3.6555 N   0  0  0  1  0  0  0  0  0  0  0  0
   -0.4358    4.0119   -3.2480 H   0  0  0  1  0  0  0  0  0  0  0  0
   -0.8694    3.0086   -4.9445 C   0  0  0  1  0  0  0  0  0  0  0  0
    0.1875   -0.6767   -4.1342 C   0  0  0  1  0  0  0  0  0  0  0  0
   -0.1729    4.0964   -5.7640 C   0  0  0  1  0  0  0  0  0  0  0  0
   -1.2715    1.9919   -5.4793 O   0  0  0  1  0  0  0  0  0  0  0  0
    0.4453    1.3941   -3.8177 H   0  0  0  1  0  0  0  0  0  0  0  0
    0.1127   -1.3788   -3.3303 H   0  0  0  1  0  0  0  0  0  0  0  0
    1.1917   -0.6629   -4.5032 H   0  0  0  1  0  0  0  0  0  0  0  0
   -0.4783   -0.9637   -4.9212 H   0  0  0  1  0  0  0  0  0  0  0  0
    0.8684    4.1166   -5.5190 H   0  0  0  1  0  0  0  0  0  0  0  0
   -0.6104    5.0468   -5.5396 H   0  0  0  1  0  0  0  0  0  0  0  0
   -0.2897    3.8868   -6.8068 H   0  0  0  1  0  0  0  0  0  0  0  0
   -2.8298    8.8015   -0.0145 I   0  0  0  1  0  0  0  0  0  0  0  0
   -2.3639    6.8066   -0.4285 C   0  0  0  1  0  0  0  0  0  0  0  0
   -1.1110    6.3063   -0.1102 C   0  0  0  1  0  0  0  0  0  0  0  0
   -0.8016    4.9885   -0.3890 C   0  0  0  1  0  0  0  0  0  0  0  0
   -1.7462    4.1655   -0.9822 C   0  0  0  1  0  0  0  0  0  0  0  0
   -2.9956    4.6641   -1.2997 C   0  0  0  1  0  0  0  0  0  0  0  0
   -3.3057    5.9859   -1.0199 C   0  0  0  1  0  0  0  0  0  0  0  0
   -1.4108    2.7236   -1.2819 C   0  0  0  1  0  0  0  0  0  0  0  0
   -0.4036    6.9227    0.3385 H   0  0  0  1  0  0  0  0  0  0  0  0
    0.1398    4.6143   -0.1538 H   0  0  0  1  0  0  0  0  0  0  0  0
   -3.7029    4.0477   -1.7484 H   0  0  0  1  0  0  0  0  0  0  0  0
   -4.2471    6.3601   -1.2551 H   0  0  0  1  0  0  0  0  0  0  0  0
   -0.3796    2.5583   -1.0492 H   0  0  0  1  0  0  0  0  0  0  0  0
   -2.0209    2.0968   -0.6656 H   0  0  0  1  0  0  0  0  0  0  0  0
  1  4  1  0  0  0  0
  2  4  1  0  0  0  0
  2  5  2  0  0  0  0
  2  6  1  0  0  0  0
  3  4  1  0  0  0  0
  3  7  1  0  0  0  0
  3  8  1  0  0  0  0
  4 26  1  0  0  0  0
  6  9  1  0  0  0  0
  6 12  1  0  0  0  0
  8 10  1  0  0  0  0
  8 11  2  0  0  0  0
  9 13  1  0  0  0  0
  9 14  1  0  0  0  0
  9 15  1  0  0  0  0
 10 16  1  0  0  0  0
 10 17  1  0  0  0  0
 10 18  1  0  0  0  0
 19 20  1  0  0  0  0
 20 21  4  0  0  0  0
 20 25  4  0  0  0  0
 21 22  4  0  0  0  0
 21 27  1  0  0  0  0
 22 23  4  0  0  0  0
 22 28  1  0  0  0  0
 23 24  4  0  0  0  0
 23 26  1  0  0  0  0
 24 25  4  0  0  0  0
 24 29  1  0  0  0  0
 25 30  1  0  0  0  0
 26 31  1  0  0  0  0
 26 32  1  0  0  0  0
M  END
> <BCLConfClusterSize>
1

> <ConfClashScore>
0 

> <ConfOneFourInteractionScore>
-0.94165 

> <ConfScore>
0.225327 

> <ConfScorePBest>
0.00609651 

> <ConfTolerance>
0.301578 

> <RosettaParamsInstructions>
M  ROOT 3
M  POLY_N_BB 3
M  POLY_CA_BB 4
M  POLY_C_BB 2
M  POLY_O_BB 5
M  POLY_IGNORE 9 10 11 12 13 14 15 16 17 18 
M  POLY_UPPER 6
M  POLY_LOWER 8
M  POLY_CHG 0
M  POLY_PROPERTIES ALPHA_AA D_AA PROTEIN AROMATIC POLYMER 
M  END

$$$$



 32 32  0  0  0  0  0  0  0  0999 V2000
    0.2158    2.6743    0.0476 H   0  0  0  1  0  0  0  0  0  0  0  0
    1.0238    3.2880   -1.7719 C   0  0  0  1  0  0  0  0  0  0  0  0
    0.4027    1.0035   -1.1310 N   0  0  0  1  0  0  0  0  0  0  0  0
    0.0559    2.4291   -0.9816 C   0  0  0  1  0  0  0  0  0  0  0  0
    2.2292    3.2831   -1.5259 O   0  0  0  1  0  0  0  0  0  0  0  0
    0.4767    4.0426   -2.7448 N   0  0  0  1  0  0  0  0  0  0  0  0
   -0.2915    0.3758   -1.4216 H   0  0  0  1  0  0  0  0  0  0  0  0
    1.6305    0.5380   -0.8841 C   0  0  0  1  0  0  0  0  0  0  0  0
    1.3695    4.8026   -3.6069 C   0  0  0  1  0  0  0  0  0  0  0  0
    1.7836   -0.9811   -0.9982 C   0  0  0  1  0  0  0  0  0  0  0  0
    2.5672    1.2426   -0.5173 O   0  0  0  1  0  0  0  0  0  0  0  0
   -0.4948    4.0786   -2.8684 H   0  0  0  1  0  0  0  0  0  0  0  0
    2.3108    4.2990   -3.6789 H   0  0  0  1  0  0  0  0  0  0  0  0
    1.5181    5.7786   -3.1942 H   0  0  0  1  0  0  0  0  0  0  0  0
    0.9360    4.8890   -4.5813 H   0  0  0  1  0  0  0  0  0  0  0  0
    1.1944   -1.3390   -1.8165 H   0  0  0  1  0  0  0  0  0  0  0  0
    1.4514   -1.4419   -0.0914 H   0  0  0  1  0  0  0  0  0  0  0  0
    2.8120   -1.2240   -1.1663 H   0  0  0  1  0  0  0  0  0  0  0  0
   -2.8698    8.7776    0.0433 I   0  0  0  1  0  0  0  0  0  0  0  0
   -2.3501    6.8152   -0.4536 C   0  0  0  1  0  0  0  0  0  0  0  0
   -1.1010    6.3104   -0.1275 C   0  0  0  1  0  0  0  0  0  0  0  0
   -0.8001    4.9872   -0.3896 C   0  0  0  1  0  0  0  0  0  0  0  0
   -1.7495    4.1634   -0.9739 C   0  0  0  1  0  0  0  0  0  0  0  0
   -2.9951    4.6664   -1.2992 C   0  0  0  1  0  0  0  0  0  0  0  0
   -3.2966    5.9936   -1.0362 C   0  0  0  1  0  0  0  0  0  0  0  0
   -1.4234    2.7156   -1.2553 C   0  0  0  1  0  0  0  0  0  0  0  0
   -0.3901    6.9276    0.3146 H   0  0  0  1  0  0  0  0  0  0  0  0
    0.1385    4.6097   -0.1485 H   0  0  0  1  0  0  0  0  0  0  0  0
   -3.7059    4.0492   -1.7412 H   0  0  0  1  0  0  0  0  0  0  0  0
   -4.2352    6.3711   -1.2773 H   0  0  0  1  0  0  0  0  0  0  0  0
   -2.0238    2.0921   -0.6263 H   0  0  0  1  0  0  0  0  0  0  0  0
   -1.6384    2.5007   -2.2812 H   0  0  0  1  0  0  0  0  0  0  0  0
  1  4  1  0  0  0  0
  2  4  1  0  0  0  0
  2  5  2  0  0  0  0
  2  6  1  0  0  0  0
  3  4  1  0  0  0  0
  3  7  1  0  0  0  0
  3  8  1  0  0  0  0
  4 26  1  0  0  0  0
  6  9  1  0  0  0  0
  6 12  1  0  0  0  0
  8 10  1  0  0  0  0
  8 11  2  0  0  0  0
  9 13  1  0  0  0  0
  9 14  1  0  0  0  0
  9 15  1  0  0  0  0
 10 16  1  0  0  0  0
 10 17  1  0  0  0  0
 10 18  1  0  0  0  0
 19 20  1  0  0  0  0
 20 21  4  0  0  0  0
 20 25  4  0  0  0  0
 21 22  4  0  0  0  0
 21 27  1  0  0  0  0
 22 23  4  0  0  0  0
 22 28  1  0  0  0  0
 23 24  4  0  0  0  0
 23 26  1  0  0  0  0
 24 25  4  0  0  0  0
 24 29  1  0  0  0  0
 25 30  1  0  0  0  0
 26 31  1  0  0  0  0
 26 32  1  0  0  0  0
M  END
> <BCLConfClusterSize>
1

> <ConfClashScore>
0 

> <ConfOneFourInteractionScore>
-0.9451 

> <ConfScore>
0.225685 

> <ConfScorePBest>
0.00606803 

> <ConfTolerance>
0.580248 

> <RosettaParamsInstructions>
M  ROOT 3
M  POLY_N_BB 3
M  POLY_CA_BB 4
M  POLY_C_BB 2
M  POLY_O_BB 5
M  POLY_IGNORE 9 10 11 12 13 14 15 16 17 18 
M  POLY_UPPER 6
M  POLY_LOWER 8
M  POLY_CHG 0
M  POLY_PROPERTIES ALPHA_AA D_AA PROTEIN AROMATIC POLYMER 
M  END

$$$$



 32 32  0  0  0  0  0  0  0  0999 V2000
    0.2672    3.0006   -2.5265 H   0  0  0  1  0  0  0  0  0  0  0  0
   -1.4627    3.1072   -3.7205 C   0  0  0  1  0  0  0  0  0  0  0  0
   -0.4016    1.0588   -2.7260 N   0  0  0  1  0  0  0  0  0  0  0  0
   -0.6689    2.4860   -2.5878 C   0  0  0  1  0  0  0  0  0  0  0  0
   -2.6386    3.3924   -3.5098 O   0  0  0  1  0  0  0  0  0  0  0  0
   -0.8458    3.3112   -4.8825 N   0  0  0  1  0  0  0  0  0  0  0  0
   -0.7498    0.4631   -2.0301 H   0  0  0  1  0  0  0  0  0  0  0  0
    0.2823    0.5024   -3.7299 C   0  0  0  1  0  0  0  0  0  0  0  0
   -1.4604    3.9090   -6.0584 C   0  0  0  1  0  0  0  0  0  0  0  0
    0.5646   -0.9810   -3.5920 C   0  0  0  1  0  0  0  0  0  0  0  0
    0.6660    1.1358   -4.7096 O   0  0  0  1  0  0  0  0  0  0  0  0
    0.0929    3.0382   -4.9511 H   0  0  0  1  0  0  0  0  0  0  0  0
   -1.8596    3.1380   -6.6837 H   0  0  0  1  0  0  0  0  0  0  0  0
   -0.7244    4.4636   -6.6022 H   0  0  0  1  0  0  0  0  0  0  0  0
   -2.2489    4.5650   -5.7539 H   0  0  0  1  0  0  0  0  0  0  0  0
    0.1514   -1.3393   -2.6724 H   0  0  0  1  0  0  0  0  0  0  0  0
    1.6220   -1.1444   -3.5952 H   0  0  0  1  0  0  0  0  0  0  0  0
    0.1196   -1.5062   -4.4112 H   0  0  0  1  0  0  0  0  0  0  0  0
   -2.7800    8.8079    0.0058 I   0  0  0  1  0  0  0  0  0  0  0  0
   -2.3756    6.8050   -0.4333 C   0  0  0  1  0  0  0  0  0  0  0  0
   -1.1209    6.3106   -0.1126 C   0  0  0  1  0  0  0  0  0  0  0  0
   -0.8055    4.9936   -0.3890 C   0  0  0  1  0  0  0  0  0  0  0  0
   -1.7459    4.1657   -0.9820 C   0  0  0  1  0  0  0  0  0  0  0  0
   -2.9970    4.6584   -1.3019 C   0  0  0  1  0  0  0  0  0  0  0  0
   -3.3131    5.9793   -1.0246 C   0  0  0  1  0  0  0  0  0  0  0  0
   -1.4039    2.7247   -1.2790 C   0  0  0  1  0  0  0  0  0  0  0  0
   -0.4168    6.9307    0.3360 H   0  0  0  1  0  0  0  0  0  0  0  0
    0.1372    4.6239   -0.1520 H   0  0  0  1  0  0  0  0  0  0  0  0
   -3.7011    4.0382   -1.7505 H   0  0  0  1  0  0  0  0  0  0  0  0
   -4.2558    6.3491   -1.2616 H   0  0  0  1  0  0  0  0  0  0  0  0
   -0.7879    2.3609   -0.4833 H   0  0  0  1  0  0  0  0  0  0  0  0
   -2.3171    2.1678   -1.3069 H   0  0  0  1  0  0  0  0  0  0  0  0
  1  4  1  0  0  0  0
  2  4  1  0  0  0  0
  2  5  2  0  0  0  0
  2  6  1  0  0  0  0
  3  4  1  0  0  0  0
  3  7  1  0  0  0  0
  3  8  1  0  0  0  0
  4 26  1  0  0  0  0
  6  9  1  0  0  0  0
  6 12  1  0  0  0  0
  8 10  1  0  0  0  0
  8 11  2  0  0  0  0
  9 13  1  0  0  0  0
  9 14  1  0  0  0  0
  9 15  1  0  0  0  0
 10 16  1  0  0  0  0
 10 17  1  0  0  0  0
 10 18  1  0  0  0  0
 19 20  1  0  0  0  0
 20 21  4  0  0  0  0
 20 25  4  0  0  0  0
 21 22  4  0  0  0  0
 21 27  1  0  0  0  0
 22 23  4  0  0  0  0
 22 28  1  0  0  0  0
 23 24  4  0  0  0  0
 23 26  1  0  0  0  0
 24 25  4  0  0  0  0
 24 29  1  0  0  0  0
 25 30  1  0  0  0  0
 26 31  1  0  0  0  0
 26 32  1  0  0  0  0
M  END
> <BCLConfClusterSize>
1

> <ConfClashScore>
0 

> <ConfOneFourInteractionScore>
-0.979134 

> <ConfScore>
0.225931 

> <ConfScorePBest>
0.00603955 

> <ConfTolerance>
0.331911 

> <RosettaParamsInstructions>
M  ROOT 3
M  POLY_N_BB 3
M  POLY_CA_BB 4
M  POLY_C_BB 2
M  POLY_O_BB 5
M  POLY_IGNORE 9 10 11 12 13 14 15 16 17 18 
M  POLY_UPPER 6
M  POLY_LOWER 8
M  POLY_CHG 0
M  POLY_PROPERTIES ALPHA_AA D_AA PROTEIN AROMATIC POLYMER 
M  END

$$$$



 32 32  0  0  0  0  0  0  0  0999 V2000
    0.1785    3.3645   -2.5862 H   0  0  0  1  0  0  0  0  0  0  0  0
   -1.5114    2.9043   -3.7611 C   0  0  0  1  0  0  0  0  0  0  0  0
    0.0139    1.2987   -2.6099 N   0  0  0  1  0  0  0  0  0  0  0  0
   -0.5988    2.6292   -2.5819 C   0  0  0  1  0  0  0  0  0  0  0  0
   -2.3151    2.0632   -4.1548 O   0  0  0  1  0  0  0  0  0  0  0  0
   -1.3793    4.1062   -4.3293 N   0  0  0  1  0  0  0  0  0  0  0  0
   -0.1554    0.6843   -1.8654 H   0  0  0  1  0  0  0  0  0  0  0  0
    0.7970    0.8930   -3.6173 C   0  0  0  1  0  0  0  0  0  0  0  0
   -2.1521    4.4425   -5.5157 C   0  0  0  1  0  0  0  0  0  0  0  0
    1.2960   -0.5384   -3.4666 C   0  0  0  1  0  0  0  0  0  0  0  0
    1.1019    1.5788   -4.5797 O   0  0  0  1  0  0  0  0  0  0  0  0
   -0.7606    4.7627   -3.9464 H   0  0  0  1  0  0  0  0  0  0  0  0
   -2.9387    3.7286   -5.6439 H   0  0  0  1  0  0  0  0  0  0  0  0
   -1.5130    4.4265   -6.3738 H   0  0  0  1  0  0  0  0  0  0  0  0
   -2.5727    5.4198   -5.4019 H   0  0  0  1  0  0  0  0  0  0  0  0
    0.4601   -1.2021   -3.3919 H   0  0  0  1  0  0  0  0  0  0  0  0
    1.8932   -0.6164   -2.5822 H   0  0  0  1  0  0  0  0  0  0  0  0
    1.8853   -0.8021   -4.3199 H   0  0  0  1  0  0  0  0  0  0  0  0
   -2.8193    8.8027   -0.0103 I   0  0  0  1  0  0  0  0  0  0  0  0
   -2.3651    6.8061   -0.4291 C   0  0  0  1  0  0  0  0  0  0  0  0
   -1.1145    6.2983   -0.1138 C   0  0  0  1  0  0  0  0  0  0  0  0
   -0.8128    4.9793   -0.3959 C   0  0  0  1  0  0  0  0  0  0  0  0
   -1.7629    4.1628   -0.9892 C   0  0  0  1  0  0  0  0  0  0  0  0
   -3.0100    4.6689   -1.3036 C   0  0  0  1  0  0  0  0  0  0  0  0
   -3.3124    5.9919   -1.0207 C   0  0  0  1  0  0  0  0  0  0  0  0
   -1.3315    2.7386   -1.2480 C   0  0  0  1  0  0  0  0  0  0  0  0
   -0.4030    6.9098    0.3350 H   0  0  0  1  0  0  0  0  0  0  0  0
    0.1269    4.5995   -0.1630 H   0  0  0  1  0  0  0  0  0  0  0  0
   -3.7215    4.0574   -1.7524 H   0  0  0  1  0  0  0  0  0  0  0  0
   -4.2521    6.3717   -1.2536 H   0  0  0  1  0  0  0  0  0  0  0  0
   -0.6785    2.4215   -0.4620 H   0  0  0  1  0  0  0  0  0  0  0  0
   -2.1961    2.1086   -1.2700 H   0  0  0  1  0  0  0  0  0  0  0  0
  1  4  1  0  0  0  0
  2  4  1  0  0  0  0
  2  5  2  0  0  0  0
  2  6  1  0  0  0  0
  3  4  1  0  0  0  0
  3  7  1  0  0  0  0
  3  8  1  0  0  0  0
  4 26  1  0  0  0  0
  6  9  1  0  0  0  0
  6 12  1  0  0  0  0
  8 10  1  0  0  0  0
  8 11  2  0  0  0  0
  9 13  1  0  0  0  0
  9 14  1  0  0  0  0
  9 15  1  0  0  0  0
 10 16  1  0  0  0  0
 10 17  1  0  0  0  0
 10 18  1  0  0  0  0
 19 20  1  0  0  0  0
 20 21  4  0  0  0  0
 20 25  4  0  0  0  0
 21 22  4  0  0  0  0
 21 27  1  0  0  0  0
 22 23  4  0  0  0  0
 22 28  1  0  0  0  0
 23 24  4  0  0  0  0
 23 26  1  0  0  0  0
 24 25  4  0  0  0  0
 24 29  1  0  0  0  0
 25 30  1  0  0  0  0
 26 31  1  0  0  0  0
 26 32  1  0  0  0  0
M  END
> <BCLConfClusterSize>
1

> <ConfClashScore>
0 

> <ConfOneFourInteractionScore>
-0.978127 

> <ConfScore>
0.227304 

> <ConfScorePBest>
0.00601107 

> <ConfTolerance>
0.346949 

> <RosettaParamsInstructions>
M  ROOT 3
M  POLY_N_BB 3
M  POLY_CA_BB 4
M  POLY_C_BB 2
M  POLY_O_BB 5
M  POLY_IGNORE 9 10 11 12 13 14 15 16 17 18 
M  POLY_UPPER 6
M  POLY_LOWER 8
M  POLY_CHG 0
M  POLY_PROPERTIES ALPHA_AA D_AA PROTEIN AROMATIC POLYMER 
M  END

$$$$



 32 32  0  0  0  0  0  0  0  0999 V2000
   -1.3247    0.7876   -0.4808 H   0  0  0  1  0  0  0  0  0  0  0  0
   -3.1311    1.5740    0.2230 C   0  0  0  1  0  0  0  0  0  0  0  0
   -0.8702    2.1039    1.0406 N   0  0  0  1  0  0  0  0  0  0  0  0
   -1.6700    1.7432   -0.1454 C   0  0  0  1  0  0  0  0  0  0  0  0
   -3.4814    1.4323    1.3916 O   0  0  0  1  0  0  0  0  0  0  0  0
   -3.9927    1.5900   -0.7980 N   0  0  0  1  0  0  0  0  0  0  0  0
   -1.3271    2.4746    1.8243 H   0  0  0  1  0  0  0  0  0  0  0  0
    0.4617    1.9418    1.0837 C   0  0  0  1  0  0  0  0  0  0  0  0
   -5.4255    1.5544   -0.5455 C   0  0  0  1  0  0  0  0  0  0  0  0
    1.1654    2.1545    2.4158 C   0  0  0  1  0  0  0  0  0  0  0  0
    1.0959    1.6310    0.0789 O   0  0  0  1  0  0  0  0  0  0  0  0
   -3.6592    1.6259   -1.7188 H   0  0  0  1  0  0  0  0  0  0  0  0
   -5.7170    2.4376   -0.0164 H   0  0  0  1  0  0  0  0  0  0  0  0
   -5.6625    0.6922    0.0422 H   0  0  0  1  0  0  0  0  0  0  0  0
   -5.9504    1.5072   -1.4767 H   0  0  0  1  0  0  0  0  0  0  0  0
    0.9649    3.1435    2.7718 H   0  0  0  1  0  0  0  0  0  0  0  0
    2.2201    2.0296    2.2857 H   0  0  0  1  0  0  0  0  0  0  0  0
    0.8062    1.4402    3.1268 H   0  0  0  1  0  0  0  0  0  0  0  0
   -2.8298    8.8015   -0.0145 I   0  0  0  1  0  0  0  0  0  0  0  0
   -2.3639    6.8066   -0.4285 C   0  0  0  1  0  0  0  0  0  0  0  0
   -1.1110    6.3063   -0.1102 C   0  0  0  1  0  0  0  0  0  0  0  0
   -0.8016    4.9885   -0.3890 C   0  0  0  1  0  0  0  0  0  0  0  0
   -1.7462    4.1655   -0.9822 C   0  0  0  1  0  0  0  0  0  0  0  0
   -2.9956    4.6641   -1.2997 C   0  0  0  1  0  0  0  0  0  0  0  0
   -3.3057    5.9859   -1.0199 C   0  0  0  1  0  0  0  0  0  0  0  0
   -1.4108    2.7236   -1.2819 C   0  0  0  1  0  0  0  0  0  0  0  0
   -0.4036    6.9227    0.3385 H   0  0  0  1  0  0  0  0  0  0  0  0
    0.1398    4.6143   -0.1538 H   0  0  0  1  0  0  0  0  0  0  0  0
   -3.7029    4.0477   -1.7484 H   0  0  0  1  0  0  0  0  0  0  0  0
   -4.2471    6.3601   -1.2551 H   0  0  0  1  0  0  0  0  0  0  0  0
   -1.9967    2.4164   -2.1229 H   0  0  0  1  0  0  0  0  0  0  0  0
   -0.3718    2.6715   -1.5322 H   0  0  0  1  0  0  0  0  0  0  0  0
  1  4  1  0  0  0  0
  2  4  1  0  0  0  0
  2  5  2  0  0  0  0
  2  6  1  0  0  0  0
  3  4  1  0  0  0  0
  3  7  1  0  0  0  0
  3  8  1  0  0  0  0
  4 26  1  0  0  0  0
  6  9  1  0  0  0  0
  6 12  1  0  0  0  0
  8 10  1  0  0  0  0
  8 11  2  0  0  0  0
  9 13  1  0  0  0  0
  9 14  1  0  0  0  0
  9 15  1  0  0  0  0
 10 16  1  0  0  0  0
 10 17  1  0  0  0  0
 10 18  1  0  0  0  0
 19 20  1  0  0  0  0
 20 21  4  0  0  0  0
 20 25  4  0  0  0  0
 21 22  4  0  0  0  0
 21 27  1  0  0  0  0
 22 23  4  0  0  0  0
 22 28  1  0  0  0  0
 23 24  4  0  0  0  0
 23 26  1  0  0  0  0
 24 25  4  0  0  0  0
 24 29  1  0  0  0  0
 25 30  1  0  0  0  0
 26 31  1  0  0  0  0
 26 32  1  0  0  0  0
M  END
> <BCLConfClusterSize>
1

> <ConfClashScore>
0 

> <ConfOneFourInteractionScore>
-0.954417 

> <ConfScore>
0.229509 

> <ConfScorePBest>
0.00598259 

> <ConfTolerance>
0.332478 

> <RosettaParamsInstructions>
M  ROOT 3
M  POLY_N_BB 3
M  POLY_CA_BB 4
M  POLY_C_BB 2
M  POLY_O_BB 5
M  POLY_IGNORE 9 10 11 12 13 14 15 16 17 18 
M  POLY_UPPER 6
M  POLY_LOWER 8
M  POLY_CHG 0
M  POLY_PROPERTIES ALPHA_AA D_AA PROTEIN AROMATIC POLYMER 
M  END

$$$$



 32 32  0  0  0  0  0  0  0  0999 V2000
   -1.5138    0.7651   -0.5762 H   0  0  0  1  0  0  0  0  0  0  0  0
   -3.3079    1.6290    0.0358 C   0  0  0  1  0  0  0  0  0  0  0  0
   -1.1018    1.9287    1.0645 N   0  0  0  1  0  0  0  0  0  0  0  0
   -1.8148    1.7244   -0.2101 C   0  0  0  1  0  0  0  0  0  0  0  0
   -4.1130    2.1833   -0.7078 O   0  0  0  1  0  0  0  0  0  0  0  0
   -3.6777    0.9081    1.1053 N   0  0  0  1  0  0  0  0  0  0  0  0
   -0.3475    1.3427    1.2837 H   0  0  0  1  0  0  0  0  0  0  0  0
   -1.4518    2.8942    1.9394 C   0  0  0  1  0  0  0  0  0  0  0  0
   -5.0743    0.6988    1.4567 C   0  0  0  1  0  0  0  0  0  0  0  0
   -0.5283    3.1659    3.1052 C   0  0  0  1  0  0  0  0  0  0  0  0
   -2.4914    3.5361    1.7951 O   0  0  0  1  0  0  0  0  0  0  0  0
   -2.9830    0.5086    1.6695 H   0  0  0  1  0  0  0  0  0  0  0  0
   -5.6211    1.6056    1.3028 H   0  0  0  1  0  0  0  0  0  0  0  0
   -5.1439    0.4107    2.4848 H   0  0  0  1  0  0  0  0  0  0  0  0
   -5.4849   -0.0738    0.8407 H   0  0  0  1  0  0  0  0  0  0  0  0
   -0.9719    3.8957    3.7499 H   0  0  0  1  0  0  0  0  0  0  0  0
    0.4075    3.5347    2.7402 H   0  0  0  1  0  0  0  0  0  0  0  0
   -0.3667    2.2597    3.6507 H   0  0  0  1  0  0  0  0  0  0  0  0
   -2.8298    8.8015   -0.0145 I   0  0  0  1  0  0  0  0  0  0  0  0
   -2.3639    6.8066   -0.4285 C   0  0  0  1  0  0  0  0  0  0  0  0
   -1.1110    6.3063   -0.1102 C   0  0  0  1  0  0  0  0  0  0  0  0
   -0.8016    4.9885   -0.3890 C   0  0  0  1  0  0  0  0  0  0  0  0
   -1.7462    4.1655   -0.9822 C   0  0  0  1  0  0  0  0  0  0  0  0
   -2.9956    4.6641   -1.2997 C   0  0  0  1  0  0  0  0  0  0  0  0
   -3.3057    5.9859   -1.0199 C   0  0  0  1  0  0  0  0  0  0  0  0
   -1.4108    2.7236   -1.2819 C   0  0  0  1  0  0  0  0  0  0  0  0
   -0.4036    6.9227    0.3385 H   0  0  0  1  0  0  0  0  0  0  0  0
    0.1398    4.6143   -0.1538 H   0  0  0  1  0  0  0  0  0  0  0  0
   -3.7029    4.0477   -1.7484 H   0  0  0  1  0  0  0  0  0  0  0  0
   -4.2471    6.3601   -1.2551 H   0  0  0  1  0  0  0  0  0  0  0  0
   -1.9062    2.4515   -2.1904 H   0  0  0  1  0  0  0  0  0  0  0  0
   -0.3518    2.6523   -1.4173 H   0  0  0  1  0  0  0  0  0  0  0  0
  1  4  1  0  0  0  0
  2  4  1  0  0  0  0
  2  5  2  0  0  0  0
  2  6  1  0  0  0  0
  3  4  1  0  0  0  0
  3  7  1  0  0  0  0
  3  8  1  0  0  0  0
  4 26  1  0  0  0  0
  6  9  1  0  0  0  0
  6 12  1  0  0  0  0
  8 10  1  0  0  0  0
  8 11  2  0  0  0  0
  9 13  1  0  0  0  0
  9 14  1  0  0  0  0
  9 15  1  0  0  0  0
 10 16  1  0  0  0  0
 10 17  1  0  0  0  0
 10 18  1  0  0  0  0
 19 20  1  0  0  0  0
 20 21  4  0  0  0  0
 20 25  4  0  0  0  0
 21 22  4  0  0  0  0
 21 27  1  0  0  0  0
 22 23  4  0  0  0  0
 22 28  1  0  0  0  0
 23 24  4  0  0  0  0
 23 26  1  0  0  0  0
 24 25  4  0  0  0  0
 24 29  1  0  0  0  0
 25 30  1  0  0  0  0
 26 31  1  0  0  0  0
 26 32  1  0  0  0  0
M  END
> <BCLConfClusterSize>
1

> <ConfClashScore>
0 

> <ConfOneFourInteractionScore>
-0.966825 

> <ConfScore>
0.230321 

> <ConfScorePBest>
0.00595411 

> <ConfTolerance>
0.196271 

> <RosettaParamsInstructions>
M  ROOT 3
M  POLY_N_BB 3
M  POLY_CA_BB 4
M  POLY_C_BB 2
M  POLY_O_BB 5
M  POLY_IGNORE 9 10 11 12 13 14 15 16 17 18 
M  POLY_UPPER 6
M  POLY_LOWER 8
M  POLY_CHG 0
M  POLY_PROPERTIES ALPHA_AA D_AA PROTEIN AROMATIC POLYMER 
M  END

$$$$



 32 32  0  0  0  0  0  0  0  0999 V2000
    0.2477    3.0986   -2.6636 H   0  0  0  1  0  0  0  0  0  0  0  0
   -1.5794    3.2549   -3.7301 C   0  0  0  1  0  0  0  0  0  0  0  0
   -0.4618    1.1736   -2.9444 N   0  0  0  1  0  0  0  0  0  0  0  0
   -0.6913    2.5860   -2.6857 C   0  0  0  1  0  0  0  0  0  0  0  0
   -2.7496    2.9085   -3.8841 O   0  0  0  1  0  0  0  0  0  0  0  0
   -1.0412    4.2866   -4.3956 N   0  0  0  1  0  0  0  0  0  0  0  0
   -1.1713    0.5220   -2.7646 H   0  0  0  1  0  0  0  0  0  0  0  0
    0.7259    0.7584   -3.4315 C   0  0  0  1  0  0  0  0  0  0  0  0
   -1.8290    5.1455   -5.2671 C   0  0  0  1  0  0  0  0  0  0  0  0
    0.8578   -0.7570   -3.5139 C   0  0  0  1  0  0  0  0  0  0  0  0
    1.6375    1.5052   -3.7848 O   0  0  0  1  0  0  0  0  0  0  0  0
   -0.0839    4.4687   -4.2917 H   0  0  0  1  0  0  0  0  0  0  0  0
   -2.6857    4.6089   -5.6180 H   0  0  0  1  0  0  0  0  0  0  0  0
   -1.2325    5.4496   -6.1017 H   0  0  0  1  0  0  0  0  0  0  0  0
   -2.1481    6.0094   -4.7224 H   0  0  0  1  0  0  0  0  0  0  0  0
    0.5275   -1.1947   -2.5951 H   0  0  0  1  0  0  0  0  0  0  0  0
    1.8815   -1.0168   -3.6849 H   0  0  0  1  0  0  0  0  0  0  0  0
    0.2568   -1.1237   -4.3197 H   0  0  0  1  0  0  0  0  0  0  0  0
   -2.8180    8.8079   -0.0336 I   0  0  0  1  0  0  0  0  0  0  0  0
   -2.3630    6.8073   -0.4323 C   0  0  0  1  0  0  0  0  0  0  0  0
   -1.1132    6.3023   -0.1091 C   0  0  0  1  0  0  0  0  0  0  0  0
   -0.8110    4.9807   -0.3778 C   0  0  0  1  0  0  0  0  0  0  0  0
   -1.7598    4.1587   -0.9657 C   0  0  0  1  0  0  0  0  0  0  0  0
   -3.0060    4.6620   -1.2880 C   0  0  0  1  0  0  0  0  0  0  0  0
   -3.3089    5.9876   -1.0184 C   0  0  0  1  0  0  0  0  0  0  0  0
   -1.3590    2.7478   -1.3263 C   0  0  0  1  0  0  0  0  0  0  0  0
   -0.4028    6.9181    0.3356 H   0  0  0  1  0  0  0  0  0  0  0  0
    0.1281    4.6030   -0.1390 H   0  0  0  1  0  0  0  0  0  0  0  0
   -3.7165    4.0462   -1.7327 H   0  0  0  1  0  0  0  0  0  0  0  0
   -4.2480    6.3653   -1.2572 H   0  0  0  1  0  0  0  0  0  0  0  0
   -0.6772    2.3973   -0.5799 H   0  0  0  1  0  0  0  0  0  0  0  0
   -2.2408    2.1417   -1.3175 H   0  0  0  1  0  0  0  0  0  0  0  0
  1  4  1  0  0  0  0
  2  4  1  0  0  0  0
  2  5  2  0  0  0  0
  2  6  1  0  0  0  0
  3  4  1  0  0  0  0
  3  7  1  0  0  0  0
  3  8  1  0  0  0  0
  4 26  1  0  0  0  0
  6  9  1  0  0  0  0
  6 12  1  0  0  0  0
  8 10  1  0  0  0  0
  8 11  2  0  0  0  0
  9 13  1  0  0  0  0
  9 14  1  0  0  0  0
  9 15  1  0  0  0  0
 10 16  1  0  0  0  0
 10 17  1  0  0  0  0
 10 18  1  0  0  0  0
 19 20  1  0  0  0  0
 20 21  4  0  0  0  0
 20 25  4  0  0  0  0
 21 22  4  0  0  0  0
 21 27  1  0  0  0  0
 22 23  4  0  0  0  0
 22 28  1  0  0  0  0
 23 24  4  0  0  0  0
 23 26  1  0  0  0  0
 24 25  4  0  0  0  0
 24 29  1  0  0  0  0
 25 30  1  0  0  0  0
 26 31  1  0  0  0  0
 26 32  1  0  0  0  0
M  END
> <BCLConfClusterSize>
1

> <ConfClashScore>
0 

> <ConfOneFourInteractionScore>
-0.975259 

> <ConfScore>
0.233439 

> <ConfScorePBest>
0.00592562 

> <ConfTolerance>
0.301024 

> <RosettaParamsInstructions>
M  ROOT 3
M  POLY_N_BB 3
M  POLY_CA_BB 4
M  POLY_C_BB 2
M  POLY_O_BB 5
M  POLY_IGNORE 9 10 11 12 13 14 15 16 17 18 
M  POLY_UPPER 6
M  POLY_LOWER 8
M  POLY_CHG 0
M  POLY_PROPERTIES ALPHA_AA D_AA PROTEIN AROMATIC POLYMER 
M  END

$$$$



 32 32  0  0  0  0  0  0  0  0999 V2000
   -1.5434    0.7783   -0.4844 H   0  0  0  1  0  0  0  0  0  0  0  0
   -3.0471    1.9934    0.3726 C   0  0  0  1  0  0  0  0  0  0  0  0
   -0.6182    2.0259    0.8862 N   0  0  0  1  0  0  0  0  0  0  0  0
   -1.6318    1.7838   -0.1296 C   0  0  0  1  0  0  0  0  0  0  0  0
   -3.2667    2.3699    1.5209 O   0  0  0  1  0  0  0  0  0  0  0  0
   -4.0229    1.7420   -0.5128 N   0  0  0  1  0  0  0  0  0  0  0  0
    0.2050    2.4925    0.6311 H   0  0  0  1  0  0  0  0  0  0  0  0
   -0.7715    1.6325    2.1597 C   0  0  0  1  0  0  0  0  0  0  0  0
   -5.4474    1.7877   -0.2182 C   0  0  0  1  0  0  0  0  0  0  0  0
    0.3340    2.0421    3.1133 C   0  0  0  1  0  0  0  0  0  0  0  0
   -1.7395    0.9810    2.5472 O   0  0  0  1  0  0  0  0  0  0  0  0
   -3.7565    1.5101   -1.4270 H   0  0  0  1  0  0  0  0  0  0  0  0
   -5.9909    1.3132   -1.0083 H   0  0  0  1  0  0  0  0  0  0  0  0
   -5.7610    2.8071   -0.1320 H   0  0  0  1  0  0  0  0  0  0  0  0
   -5.6375    1.2765    0.7023 H   0  0  0  1  0  0  0  0  0  0  0  0
    1.2704    1.6660    2.7573 H   0  0  0  1  0  0  0  0  0  0  0  0
    0.1343    1.6397    4.0844 H   0  0  0  1  0  0  0  0  0  0  0  0
    0.3775    3.1096    3.1711 H   0  0  0  1  0  0  0  0  0  0  0  0
   -2.8222    8.8158   -0.0882 I   0  0  0  1  0  0  0  0  0  0  0  0
   -2.3699    6.7993   -0.3997 C   0  0  0  1  0  0  0  0  0  0  0  0
   -1.1143    6.2995   -0.0909 C   0  0  0  1  0  0  0  0  0  0  0  0
   -0.8005    4.9868   -0.3883 C   0  0  0  1  0  0  0  0  0  0  0  0
   -1.7433    4.1683   -0.9905 C   0  0  0  1  0  0  0  0  0  0  0  0
   -2.9953    4.6664   -1.2985 C   0  0  0  1  0  0  0  0  0  0  0  0
   -3.3098    5.9831   -1.0002 C   0  0  0  1  0  0  0  0  0  0  0  0
   -1.4031    2.7319   -1.3105 C   0  0  0  1  0  0  0  0  0  0  0  0
   -0.4083    6.9125    0.3645 H   0  0  0  1  0  0  0  0  0  0  0  0
    0.1429    4.6131   -0.1602 H   0  0  0  1  0  0  0  0  0  0  0  0
   -3.7012    4.0534   -1.7540 H   0  0  0  1  0  0  0  0  0  0  0  0
   -4.2532    6.3568   -1.2282 H   0  0  0  1  0  0  0  0  0  0  0  0
   -2.0143    2.4112   -2.1281 H   0  0  0  1  0  0  0  0  0  0  0  0
   -0.3725    2.6809   -1.5935 H   0  0  0  1  0  0  0  0  0  0  0  0
  1  4  1  0  0  0  0
  2  4  1  0  0  0  0
  2  5  2  0  0  0  0
  2  6  1  0  0  0  0
  3  4  1  0  0  0  0
  3  7  1  0  0  0  0
  3  8  1  0  0  0  0
  4 26  1  0  0  0  0
  6  9  1  0  0  0  0
  6 12  1  0  0  0  0
  8 10  1  0  0  0  0
  8 11  2  0  0  0  0
  9 13  1  0  0  0  0
  9 14  1  0  0  0  0
  9 15  1  0  0  0  0
 10 16  1  0  0  0  0
 10 17  1  0  0  0  0
 10 18  1  0  0  0  0
 19 20  1  0  0  0  0
 20 21  4  0  0  0  0
 20 25  4  0  0  0  0
 21 22  4  0  0  0  0
 21 27  1  0  0  0  0
 22 23  4  0  0  0  0
 22 28  1  0  0  0  0
 23 24  4  0  0  0  0
 23 26  1  0  0  0  0
 24 25  4  0  0  0  0
 24 29  1  0  0  0  0
 25 30  1  0  0  0  0
 26 31  1  0  0  0  0
 26 32  1  0  0  0  0
M  END
> <BCLConfClusterSize>
1

> <ConfClashScore>
0 

> <ConfOneFourInteractionScore>
-0.982563 

> <ConfScore>
0.233786 

> <ConfScorePBest>
0.00589714 

> <ConfTolerance>
0.352424 

> <RosettaParamsInstructions>
M  ROOT 3
M  POLY_N_BB 3
M  POLY_CA_BB 4
M  POLY_C_BB 2
M  POLY_O_BB 5
M  POLY_IGNORE 9 10 11 12 13 14 15 16 17 18 
M  POLY_UPPER 6
M  POLY_LOWER 8
M  POLY_CHG 0
M  POLY_PROPERTIES ALPHA_AA D_AA PROTEIN AROMATIC POLYMER 
M  END

$$$$



 32 32  0  0  0  0  0  0  0  0999 V2000
   -1.4151    0.8130   -0.5201 H   0  0  0  1  0  0  0  0  0  0  0  0
   -3.3022    1.6066   -0.0843 C   0  0  0  1  0  0  0  0  0  0  0  0
   -1.1340    2.1627    1.0081 N   0  0  0  1  0  0  0  0  0  0  0  0
   -1.8028    1.7694   -0.2374 C   0  0  0  1  0  0  0  0  0  0  0  0
   -4.0702    1.8803   -1.0028 O   0  0  0  1  0  0  0  0  0  0  0  0
   -3.7206    1.1499    1.1068 N   0  0  0  1  0  0  0  0  0  0  0  0
   -0.3561    1.6584    1.3257 H   0  0  0  1  0  0  0  0  0  0  0  0
   -1.5854    3.2113    1.7130 C   0  0  0  1  0  0  0  0  0  0  0  0
   -5.1216    0.8695    1.3833 C   0  0  0  1  0  0  0  0  0  0  0  0
   -0.7298    3.6292    2.8930 C   0  0  0  1  0  0  0  0  0  0  0  0
   -2.6161    3.8030    1.4372 O   0  0  0  1  0  0  0  0  0  0  0  0
   -3.0596    1.0001    1.8146 H   0  0  0  1  0  0  0  0  0  0  0  0
   -5.1926    0.1262    2.1498 H   0  0  0  1  0  0  0  0  0  0  0  0
   -5.5956    0.5105    0.4937 H   0  0  0  1  0  0  0  0  0  0  0  0
   -5.6067    1.7655    1.7098 H   0  0  0  1  0  0  0  0  0  0  0  0
   -0.6785    2.8269    3.5990 H   0  0  0  1  0  0  0  0  0  0  0  0
   -1.1630    4.4885    3.3608 H   0  0  0  1  0  0  0  0  0  0  0  0
    0.2561    3.8672    2.5518 H   0  0  0  1  0  0  0  0  0  0  0  0
   -2.8231    8.8071   -0.0353 I   0  0  0  1  0  0  0  0  0  0  0  0
   -2.3624    6.8074   -0.4319 C   0  0  0  1  0  0  0  0  0  0  0  0
   -1.1115    6.3061   -0.1074 C   0  0  0  1  0  0  0  0  0  0  0  0
   -0.8056    4.9851   -0.3748 C   0  0  0  1  0  0  0  0  0  0  0  0
   -1.7517    4.1600   -0.9627 C   0  0  0  1  0  0  0  0  0  0  0  0
   -2.9991    4.6597   -1.2863 C   0  0  0  1  0  0  0  0  0  0  0  0
   -3.3057    5.9847   -1.0181 C   0  0  0  1  0  0  0  0  0  0  0  0
   -1.3973    2.7414   -1.3414 C   0  0  0  1  0  0  0  0  0  0  0  0
   -0.4031    6.9241    0.3373 H   0  0  0  1  0  0  0  0  0  0  0  0
    0.1343    4.6101   -0.1349 H   0  0  0  1  0  0  0  0  0  0  0  0
   -3.7075    4.0417   -1.7311 H   0  0  0  1  0  0  0  0  0  0  0  0
   -4.2456    6.3597   -1.2579 H   0  0  0  1  0  0  0  0  0  0  0  0
   -1.9095    2.4808   -2.2439 H   0  0  0  1  0  0  0  0  0  0  0  0
   -0.3409    2.6736   -1.4979 H   0  0  0  1  0  0  0  0  0  0  0  0
  1  4  1  0  0  0  0
  2  4  1  0  0  0  0
  2  5  2  0  0  0  0
  2  6  1  0  0  0  0
  3  4  1  0  0  0  0
  3  7  1  0  0  0  0
  3  8  1  0  0  0  0
  4 26  1  0  0  0  0
  6  9  1  0  0  0  0
  6 12  1  0  0  0  0
  8 10  1  0  0  0  0
  8 11  2  0  0  0  0
  9 13  1  0  0  0  0
  9 14  1  0  0  0  0
  9 15  1  0  0  0  0
 10 16  1  0  0  0  0
 10 17  1  0  0  0  0
 10 18  1  0  0  0  0
 19 20  1  0  0  0  0
 20 21  4  0  0  0  0
 20 25  4  0  0  0  0
 21 22  4  0  0  0  0
 21 27  1  0  0  0  0
 22 23  4  0  0  0  0
 22 28  1  0  0  0  0
 23 24  4  0  0  0  0
 23 26  1  0  0  0  0
 24 25  4  0  0  0  0
 24 29  1  0  0  0  0
 25 30  1  0  0  0  0
 26 31  1  0  0  0  0
 26 32  1  0  0  0  0
M  END
> <BCLConfClusterSize>
1

> <ConfClashScore>
0 

> <ConfOneFourInteractionScore>
-0.947651 

> <ConfScore>
0.235716 

> <ConfScorePBest>
0.00586866 

> <ConfTolerance>
0.188241 

> <RosettaParamsInstructions>
M  ROOT 3
M  POLY_N_BB 3
M  POLY_CA_BB 4
M  POLY_C_BB 2
M  POLY_O_BB 5
M  POLY_IGNORE 9 10 11 12 13 14 15 16 17 18 
M  POLY_UPPER 6
M  POLY_LOWER 8
M  POLY_CHG 0
M  POLY_PROPERTIES ALPHA_AA D_AA PROTEIN AROMATIC POLYMER 
M  END

$$$$



 32 32  0  0  0  0  0  0  0  0999 V2000
   -0.8811    2.2430    0.6990 H   0  0  0  1  0  0  0  0  0  0  0  0
   -0.8172    0.4461   -0.3862 C   0  0  0  1  0  0  0  0  0  0  0  0
   -2.8353    1.6530    0.3572 N   0  0  0  1  0  0  0  0  0  0  0  0
   -1.4445    1.7849   -0.0869 C   0  0  0  1  0  0  0  0  0  0  0  0
    0.1117    0.3494   -1.1870 O   0  0  0  1  0  0  0  0  0  0  0  0
   -1.3025   -0.6338    0.2466 N   0  0  0  1  0  0  0  0  0  0  0  0
   -3.1607    2.1878    1.1112 H   0  0  0  1  0  0  0  0  0  0  0  0
   -3.6638    0.8017   -0.2666 C   0  0  0  1  0  0  0  0  0  0  0  0
   -0.7917   -1.9586   -0.0723 C   0  0  0  1  0  0  0  0  0  0  0  0
   -5.0450    0.6601    0.3690 C   0  0  0  1  0  0  0  0  0  0  0  0
   -3.3386    0.1165   -1.2342 O   0  0  0  1  0  0  0  0  0  0  0  0
   -2.0024   -0.5298    0.9247 H   0  0  0  1  0  0  0  0  0  0  0  0
   -0.5221   -1.9979   -1.1071 H   0  0  0  1  0  0  0  0  0  0  0  0
   -1.5472   -2.6895    0.1272 H   0  0  0  1  0  0  0  0  0  0  0  0
    0.0700   -2.1625    0.5284 H   0  0  0  1  0  0  0  0  0  0  0  0
   -5.5563    1.5990    0.3252 H   0  0  0  1  0  0  0  0  0  0  0  0
   -4.9382    0.3598    1.3904 H   0  0  0  1  0  0  0  0  0  0  0  0
   -5.6083   -0.0777   -0.1632 H   0  0  0  1  0  0  0  0  0  0  0  0
   -2.8298    8.8015   -0.0145 I   0  0  0  1  0  0  0  0  0  0  0  0
   -2.3639    6.8066   -0.4285 C   0  0  0  1  0  0  0  0  0  0  0  0
   -1.1110    6.3063   -0.1102 C   0  0  0  1  0  0  0  0  0  0  0  0
   -0.8016    4.9885   -0.3890 C   0  0  0  1  0  0  0  0  0  0  0  0
   -1.7462    4.1655   -0.9822 C   0  0  0  1  0  0  0  0  0  0  0  0
   -2.9956    4.6641   -1.2997 C   0  0  0  1  0  0  0  0  0  0  0  0
   -3.3057    5.9859   -1.0199 C   0  0  0  1  0  0  0  0  0  0  0  0
   -1.4108    2.7236   -1.2819 C   0  0  0  1  0  0  0  0  0  0  0  0
   -0.4036    6.9227    0.3385 H   0  0  0  1  0  0  0  0  0  0  0  0
    0.1398    4.6143   -0.1538 H   0  0  0  1  0  0  0  0  0  0  0  0
   -3.7029    4.0477   -1.7484 H   0  0  0  1  0  0  0  0  0  0  0  0
   -4.2471    6.3601   -1.2551 H   0  0  0  1  0  0  0  0  0  0  0  0
   -2.1142    2.3643   -2.0038 H   0  0  0  1  0  0  0  0  0  0  0  0
   -0.4254    2.6935   -1.6976 H   0  0  0  1  0  0  0  0  0  0  0  0
  1  4  1  0  0  0  0
  2  4  1  0  0  0  0
  2  5  2  0  0  0  0
  2  6  1  0  0  0  0
  3  4  1  0  0  0  0
  3  7  1  0  0  0  0
  3  8  1  0  0  0  0
  4 26  1  0  0  0  0
  6  9  1  0  0  0  0
  6 12  1  0  0  0  0
  8 10  1  0  0  0  0
  8 11  2  0  0  0  0
  9 13  1  0  0  0  0
  9 14  1  0  0  0  0
  9 15  1  0  0  0  0
 10 16  1  0  0  0  0
 10 17  1  0  0  0  0
 10 18  1  0  0  0  0
 19 20  1  0  0  0  0
 20 21  4  0  0  0  0
 20 25  4  0  0  0  0
 21 22  4  0  0  0  0
 21 27  1  0  0  0  0
 22 23  4  0  0  0  0
 22 28  1  0  0  0  0
 23 24  4  0  0  0  0
 23 26  1  0  0  0  0
 24 25  4  0  0  0  0
 24 29  1  0  0  0  0
 25 30  1  0  0  0  0
 26 31  1  0  0  0  0
 26 32  1  0  0  0  0
M  END
> <BCLConfClusterSize>
1

> <ConfClashScore>
0 

> <ConfOneFourInteractionScore>
-0.957364 

> <ConfScore>
0.235807 

> <ConfScorePBest>
0.00584018 

> <ConfTolerance>
0.229006 

> <RosettaParamsInstructions>
M  ROOT 3
M  POLY_N_BB 3
M  POLY_CA_BB 4
M  POLY_C_BB 2
M  POLY_O_BB 5
M  POLY_IGNORE 9 10 11 12 13 14 15 16 17 18 
M  POLY_UPPER 6
M  POLY_LOWER 8
M  POLY_CHG 0
M  POLY_PROPERTIES ALPHA_AA D_AA PROTEIN AROMATIC POLYMER 
M  END

$$$$



 32 32  0  0  0  0  0  0  0  0999 V2000
   -0.5036    1.4097   -2.6315 H   0  0  0  1  0  0  0  0  0  0  0  0
    0.4887    3.2549   -2.8468 C   0  0  0  1  0  0  0  0  0  0  0  0
   -1.7899    2.6920   -3.6250 N   0  0  0  1  0  0  0  0  0  0  0  0
   -0.7698    2.4456   -2.6013 C   0  0  0  1  0  0  0  0  0  0  0  0
    1.2095    3.6098   -1.9180 O   0  0  0  1  0  0  0  0  0  0  0  0
    0.7518    3.5492   -4.1299 N   0  0  0  1  0  0  0  0  0  0  0  0
   -2.2708    1.9492   -4.0462 H   0  0  0  1  0  0  0  0  0  0  0  0
   -2.0478    3.9704   -3.9707 C   0  0  0  1  0  0  0  0  0  0  0  0
    1.9091    4.3009   -4.5919 C   0  0  0  1  0  0  0  0  0  0  0  0
   -3.0707    4.2209   -5.0555 C   0  0  0  1  0  0  0  0  0  0  0  0
   -1.4692    4.9062   -3.4210 O   0  0  0  1  0  0  0  0  0  0  0  0
    0.1166    3.2342   -4.8065 H   0  0  0  1  0  0  0  0  0  0  0  0
    2.6929    4.2313   -3.8667 H   0  0  0  1  0  0  0  0  0  0  0  0
    1.6374    5.3271   -4.7257 H   0  0  0  1  0  0  0  0  0  0  0  0
    2.2481    3.8968   -5.5229 H   0  0  0  1  0  0  0  0  0  0  0  0
   -4.0489    4.2538   -4.6233 H   0  0  0  1  0  0  0  0  0  0  0  0
   -3.0259    3.4317   -5.7766 H   0  0  0  1  0  0  0  0  0  0  0  0
   -2.8610    5.1545   -5.5343 H   0  0  0  1  0  0  0  0  0  0  0  0
   -2.8646    8.7783    0.0455 I   0  0  0  1  0  0  0  0  0  0  0  0
   -2.3508    6.8150   -0.4539 C   0  0  0  1  0  0  0  0  0  0  0  0
   -1.1027    6.3065   -0.1293 C   0  0  0  1  0  0  0  0  0  0  0  0
   -0.8058    4.9827   -0.3931 C   0  0  0  1  0  0  0  0  0  0  0  0
   -1.7579    4.1621   -0.9774 C   0  0  0  1  0  0  0  0  0  0  0  0
   -3.0024    4.6689   -1.3012 C   0  0  0  1  0  0  0  0  0  0  0  0
   -3.3000    5.9966   -1.0366 C   0  0  0  1  0  0  0  0  0  0  0  0
   -1.3832    2.7223   -1.2385 C   0  0  0  1  0  0  0  0  0  0  0  0
   -0.3898    6.9211    0.3128 H   0  0  0  1  0  0  0  0  0  0  0  0
    0.1320    4.6023   -0.1531 H   0  0  0  1  0  0  0  0  0  0  0  0
   -3.7153    4.0542   -1.7433 H   0  0  0  1  0  0  0  0  0  0  0  0
   -4.2378    6.3771   -1.2765 H   0  0  0  1  0  0  0  0  0  0  0  0
   -0.6768    2.4245   -0.4920 H   0  0  0  1  0  0  0  0  0  0  0  0
   -2.2692    2.1292   -1.1487 H   0  0  0  1  0  0  0  0  0  0  0  0
  1  4  1  0  0  0  0
  2  4  1  0  0  0  0
  2  5  2  0  0  0  0
  2  6  1  0  0  0  0
  3  4  1  0  0  0  0
  3  7  1  0  0  0  0
  3  8  1  0  0  0  0
  4 26  1  0  0  0  0
  6  9  1  0  0  0  0
  6 12  1  0  0  0  0
  8 10  1  0  0  0  0
  8 11  2  0  0  0  0
  9 13  1  0  0  0  0
  9 14  1  0  0  0  0
  9 15  1  0  0  0  0
 10 16  1  0  0  0  0
 10 17  1  0  0  0  0
 10 18  1  0  0  0  0
 19 20  1  0  0  0  0
 20 21  4  0  0  0  0
 20 25  4  0  0  0  0
 21 22  4  0  0  0  0
 21 27  1  0  0  0  0
 22 23  4  0  0  0  0
 22 28  1  0  0  0  0
 23 24  4  0  0  0  0
 23 26  1  0  0  0  0
 24 25  4  0  0  0  0
 24 29  1  0  0  0  0
 25 30  1  0  0  0  0
 26 31  1  0  0  0  0
 26 32  1  0  0  0  0
M  END
> <BCLConfClusterSize>
1

> <ConfClashScore>
0 

> <ConfOneFourInteractionScore>
-0.947651 

> <ConfScore>
0.236924 

> <ConfScorePBest>
0.0058117 

> <ConfTolerance>
0.249187 

> <RosettaParamsInstructions>
M  ROOT 3
M  POLY_N_BB 3
M  POLY_CA_BB 4
M  POLY_C_BB 2
M  POLY_O_BB 5
M  POLY_IGNORE 9 10 11 12 13 14 15 16 17 18 
M  POLY_UPPER 6
M  POLY_LOWER 8
M  POLY_CHG 0
M  POLY_PROPERTIES ALPHA_AA D_AA PROTEIN AROMATIC POLYMER 
M  END

$$$$



 32 32  0  0  0  0  0  0  0  0999 V2000
   -2.1731    0.7906   -0.7743 H   0  0  0  1  0  0  0  0  0  0  0  0
   -3.9035    1.9626   -0.8880 C   0  0  0  1  0  0  0  0  0  0  0  0
   -2.2925    1.8640    0.9726 N   0  0  0  1  0  0  0  0  0  0  0  0
   -2.4367    1.7889   -0.4932 C   0  0  0  1  0  0  0  0  0  0  0  0
   -4.3358    1.4407   -1.9122 O   0  0  0  1  0  0  0  0  0  0  0  0
   -4.6511    2.7732   -0.1224 N   0  0  0  1  0  0  0  0  0  0  0  0
   -2.9958    2.3029    1.4951 H   0  0  0  1  0  0  0  0  0  0  0  0
   -1.2364    1.3544    1.6129 C   0  0  0  1  0  0  0  0  0  0  0  0
   -6.0039    3.1621   -0.4921 C   0  0  0  1  0  0  0  0  0  0  0  0
   -1.1225    1.7099    3.0825 C   0  0  0  1  0  0  0  0  0  0  0  0
   -0.4009    0.6416    1.0630 O   0  0  0  1  0  0  0  0  0  0  0  0
   -4.2728    3.1149    0.7146 H   0  0  0  1  0  0  0  0  0  0  0  0
   -6.7069    2.5314    0.0107 H   0  0  0  1  0  0  0  0  0  0  0  0
   -6.1273    3.0607   -1.5501 H   0  0  0  1  0  0  0  0  0  0  0  0
   -6.1721    4.1801   -0.2088 H   0  0  0  1  0  0  0  0  0  0  0  0
   -0.1506    2.1121    3.2784 H   0  0  0  1  0  0  0  0  0  0  0  0
   -1.2704    0.8309    3.6744 H   0  0  0  1  0  0  0  0  0  0  0  0
   -1.8663    2.4376    3.3318 H   0  0  0  1  0  0  0  0  0  0  0  0
   -2.8412    8.7945    0.0045 I   0  0  0  1  0  0  0  0  0  0  0  0
   -2.3646    6.8053   -0.4248 C   0  0  0  1  0  0  0  0  0  0  0  0
   -1.1086    6.3097   -0.1114 C   0  0  0  1  0  0  0  0  0  0  0  0
   -0.7922    4.9957   -0.4004 C   0  0  0  1  0  0  0  0  0  0  0  0
   -1.7328    4.1719   -0.9988 C   0  0  0  1  0  0  0  0  0  0  0  0
   -2.9852    4.6659   -1.3114 C   0  0  0  1  0  0  0  0  0  0  0  0
   -3.3024    5.9839   -1.0216 C   0  0  0  1  0  0  0  0  0  0  0  0
   -1.4628    2.7048   -1.2359 C   0  0  0  1  0  0  0  0  0  0  0  0
   -0.4043    6.9266    0.3413 H   0  0  0  1  0  0  0  0  0  0  0  0
    0.1515    4.6250   -0.1688 H   0  0  0  1  0  0  0  0  0  0  0  0
   -3.6895    4.0490   -1.7641 H   0  0  0  1  0  0  0  0  0  0  0  0
   -4.2461    6.3546   -1.2531 H   0  0  0  1  0  0  0  0  0  0  0  0
   -1.5435    2.5088   -2.2847 H   0  0  0  1  0  0  0  0  0  0  0  0
   -0.4690    2.4839   -0.9066 H   0  0  0  1  0  0  0  0  0  0  0  0
  1  4  1  0  0  0  0
  2  4  1  0  0  0  0
  2  5  2  0  0  0  0
  2  6  1  0  0  0  0
  3  4  1  0  0  0  0
  3  7  1  0  0  0  0
  3  8  1  0  0  0  0
  4 26  1  0  0  0  0
  6  9  1  0  0  0  0
  6 12  1  0  0  0  0
  8 10  1  0  0  0  0
  8 11  2  0  0  0  0
  9 13  1  0  0  0  0
  9 14  1  0  0  0  0
  9 15  1  0  0  0  0
 10 16  1  0  0  0  0
 10 17  1  0  0  0  0
 10 18  1  0  0  0  0
 19 20  1  0  0  0  0
 20 21  4  0  0  0  0
 20 25  4  0  0  0  0
 21 22  4  0  0  0  0
 21 27  1  0  0  0  0
 22 23  4  0  0  0  0
 22 28  1  0  0  0  0
 23 24  4  0  0  0  0
 23 26  1  0  0  0  0
 24 25  4  0  0  0  0
 24 29  1  0  0  0  0
 25 30  1  0  0  0  0
 26 31  1  0  0  0  0
 26 32  1  0  0  0  0
M  END
> <BCLConfClusterSize>
1

> <ConfClashScore>
0 

> <ConfOneFourInteractionScore>
-0.9553 

> <ConfScore>
0.238023 

> <ConfScorePBest>
0.00578322 

> <ConfTolerance>
0.499574 

> <RosettaParamsInstructions>
M  ROOT 3
M  POLY_N_BB 3
M  POLY_CA_BB 4
M  POLY_C_BB 2
M  POLY_O_BB 5
M  POLY_IGNORE 9 10 11 12 13 14 15 16 17 18 
M  POLY_UPPER 6
M  POLY_LOWER 8
M  POLY_CHG 0
M  POLY_PROPERTIES ALPHA_AA D_AA PROTEIN AROMATIC POLYMER 
M  END

$$$$



 32 32  0  0  0  0  0  0  0  0999 V2000
   -1.6632    2.1239    0.7182 H   0  0  0  1  0  0  0  0  0  0  0  0
   -1.4573    0.3266   -0.3679 C   0  0  0  1  0  0  0  0  0  0  0  0
   -3.4561    1.7341   -0.2471 N   0  0  0  1  0  0  0  0  0  0  0  0
   -1.9816    1.7535   -0.2337 C   0  0  0  1  0  0  0  0  0  0  0  0
   -1.5480   -0.4766    0.5460 O   0  0  0  1  0  0  0  0  0  0  0  0
   -0.9074    0.0661   -1.5573 N   0  0  0  1  0  0  0  0  0  0  0  0
   -3.9043    2.5153    0.1393 H   0  0  0  1  0  0  0  0  0  0  0  0
   -4.2582    0.7631   -0.7309 C   0  0  0  1  0  0  0  0  0  0  0  0
   -0.1517   -1.1507   -1.8148 C   0  0  0  1  0  0  0  0  0  0  0  0
   -5.7571    0.9351   -0.5789 C   0  0  0  1  0  0  0  0  0  0  0  0
   -3.7899   -0.2335   -1.2797 O   0  0  0  1  0  0  0  0  0  0  0  0
   -1.0167    0.7172   -2.2816 H   0  0  0  1  0  0  0  0  0  0  0  0
    0.8625   -1.0140   -1.5025 H   0  0  0  1  0  0  0  0  0  0  0  0
   -0.1758   -1.3704   -2.8617 H   0  0  0  1  0  0  0  0  0  0  0  0
   -0.5863   -1.9622   -1.2694 H   0  0  0  1  0  0  0  0  0  0  0  0
   -6.0203    0.8747    0.4564 H   0  0  0  1  0  0  0  0  0  0  0  0
   -6.2613    0.1622   -1.1205 H   0  0  0  1  0  0  0  0  0  0  0  0
   -6.0473    1.8897   -0.9654 H   0  0  0  1  0  0  0  0  0  0  0  0
   -2.8353    8.8006   -0.0169 I   0  0  0  1  0  0  0  0  0  0  0  0
   -2.3632    6.8066   -0.4282 C   0  0  0  1  0  0  0  0  0  0  0  0
   -1.1090    6.3104   -0.1083 C   0  0  0  1  0  0  0  0  0  0  0  0
   -0.7955    4.9932   -0.3854 C   0  0  0  1  0  0  0  0  0  0  0  0
   -1.7371    4.1668   -0.9784 C   0  0  0  1  0  0  0  0  0  0  0  0
   -2.9877    4.6613   -1.2976 C   0  0  0  1  0  0  0  0  0  0  0  0
   -3.3020    5.9825   -1.0196 C   0  0  0  1  0  0  0  0  0  0  0  0
   -1.4543    2.7182   -1.2996 C   0  0  0  1  0  0  0  0  0  0  0  0
   -0.4039    6.9294    0.3404 H   0  0  0  1  0  0  0  0  0  0  0  0
    0.1469    4.6221   -0.1489 H   0  0  0  1  0  0  0  0  0  0  0  0
   -3.6928    4.0423   -1.7462 H   0  0  0  1  0  0  0  0  0  0  0  0
   -4.2443    6.3536   -1.2560 H   0  0  0  1  0  0  0  0  0  0  0  0
   -1.9179    2.4798   -2.2340 H   0  0  0  1  0  0  0  0  0  0  0  0
   -0.3955    2.5883   -1.3827 H   0  0  0  1  0  0  0  0  0  0  0  0
  1  4  1  0  0  0  0
  2  4  1  0  0  0  0
  2  5  2  0  0  0  0
  2  6  1  0  0  0  0
  3  4  1  0  0  0  0
  3  7  1  0  0  0  0
  3  8  1  0  0  0  0
  4 26  1  0  0  0  0
  6  9  1  0  0  0  0
  6 12  1  0  0  0  0
  8 10  1  0  0  0  0
  8 11  2  0  0  0  0
  9 13  1  0  0  0  0
  9 14  1  0  0  0  0
  9 15  1  0  0  0  0
 10 16  1  0  0  0  0
 10 17  1  0  0  0  0
 10 18  1  0  0  0  0
 19 20  1  0  0  0  0
 20 21  4  0  0  0  0
 20 25  4  0  0  0  0
 21 22  4  0  0  0  0
 21 27  1  0  0  0  0
 22 23  4  0  0  0  0
 22 28  1  0  0  0  0
 23 24  4  0  0  0  0
 23 26  1  0  0  0  0
 24 25  4  0  0  0  0
 24 29  1  0  0  0  0
 25 30  1  0  0  0  0
 26 31  1  0  0  0  0
 26 32  1  0  0  0  0
M  END
> <BCLConfClusterSize>
1

> <ConfClashScore>
0.000114596 

> <ConfOneFourInteractionScore>
-0.927621 

> <ConfScore>
0.241637 

> <ConfScorePBest>
0.00575474 

> <ConfTolerance>
0.393498 

> <RosettaParamsInstructions>
M  ROOT 3
M  POLY_N_BB 3
M  POLY_CA_BB 4
M  POLY_C_BB 2
M  POLY_O_BB 5
M  POLY_IGNORE 9 10 11 12 13 14 15 16 17 18 
M  POLY_UPPER 6
M  POLY_LOWER 8
M  POLY_CHG 0
M  POLY_PROPERTIES ALPHA_AA D_AA PROTEIN AROMATIC POLYMER 
M  END

$$$$



 32 32  0  0  0  0  0  0  0  0999 V2000
    0.0589    3.2098   -2.7021 H   0  0  0  1  0  0  0  0  0  0  0  0
   -1.7216    2.8887   -3.7721 C   0  0  0  1  0  0  0  0  0  0  0  0
   -0.2538    1.1767   -2.7767 N   0  0  0  1  0  0  0  0  0  0  0  0
   -0.7676    2.5322   -2.6488 C   0  0  0  1  0  0  0  0  0  0  0  0
   -2.6714    2.1740   -4.0468 O   0  0  0  1  0  0  0  0  0  0  0  0
   -1.4492    4.0269   -4.4296 N   0  0  0  1  0  0  0  0  0  0  0  0
   -0.8755    0.4246   -2.6853 H   0  0  0  1  0  0  0  0  0  0  0  0
    1.0847    0.9121   -3.0236 C   0  0  0  1  0  0  0  0  0  0  0  0
   -2.2313    4.4700   -5.5740 C   0  0  0  1  0  0  0  0  0  0  0  0
    1.5454   -0.5165   -3.0974 C   0  0  0  1  0  0  0  0  0  0  0  0
    1.8458    1.8507   -3.1731 O   0  0  0  1  0  0  0  0  0  0  0  0
   -0.6974    4.5788   -4.1283 H   0  0  0  1  0  0  0  0  0  0  0  0
   -3.2370    4.1177   -5.4773 H   0  0  0  1  0  0  0  0  0  0  0  0
   -1.8015    4.0788   -6.4724 H   0  0  0  1  0  0  0  0  0  0  0  0
   -2.2305    5.5392   -5.6139 H   0  0  0  1  0  0  0  0  0  0  0  0
    1.3960   -0.9894   -2.1492 H   0  0  0  1  0  0  0  0  0  0  0  0
    2.5851   -0.5432   -3.3490 H   0  0  0  1  0  0  0  0  0  0  0  0
    0.9833   -1.0341   -3.8464 H   0  0  0  1  0  0  0  0  0  0  0  0
   -2.8828    8.7926   -0.0369 I   0  0  0  1  0  0  0  0  0  0  0  0
   -2.3514    6.8085   -0.4233 C   0  0  0  1  0  0  0  0  0  0  0  0
   -1.1003    6.3019   -0.1075 C   0  0  0  1  0  0  0  0  0  0  0  0
   -0.7974    4.9832   -0.3890 C   0  0  0  1  0  0  0  0  0  0  0  0
   -1.7466    4.1656   -0.9823 C   0  0  0  1  0  0  0  0  0  0  0  0
   -2.9941    4.6705   -1.2972 C   0  0  0  1  0  0  0  0  0  0  0  0
   -3.2978    5.9932   -1.0148 C   0  0  0  1  0  0  0  0  0  0  0  0
   -1.4183    2.7226   -1.2849 C   0  0  0  1  0  0  0  0  0  0  0  0
   -0.3895    6.9143    0.3413 H   0  0  0  1  0  0  0  0  0  0  0  0
    0.1426    4.6042   -0.1557 H   0  0  0  1  0  0  0  0  0  0  0  0
   -3.7049    4.0581   -1.7460 H   0  0  0  1  0  0  0  0  0  0  0  0
   -4.2378    6.3722   -1.2481 H   0  0  0  1  0  0  0  0  0  0  0  0
   -0.7472    2.3613   -0.5340 H   0  0  0  1  0  0  0  0  0  0  0  0
   -2.3244    2.1542   -1.2576 H   0  0  0  1  0  0  0  0  0  0  0  0
  1  4  1  0  0  0  0
  2  4  1  0  0  0  0
  2  5  2  0  0  0  0
  2  6  1  0  0  0  0
  3  4  1  0  0  0  0
  3  7  1  0  0  0  0
  3  8  1  0  0  0  0
  4 26  1  0  0  0  0
  6  9  1  0  0  0  0
  6 12  1  0  0  0  0
  8 10  1  0  0  0  0
  8 11  2  0  0  0  0
  9 13  1  0  0  0  0
  9 14  1  0  0  0  0
  9 15  1  0  0  0  0
 10 16  1  0  0  0  0
 10 17  1  0  0  0  0
 10 18  1  0  0  0  0
 19 20  1  0  0  0  0
 20 21  4  0  0  0  0
 20 25  4  0  0  0  0
 21 22  4  0  0  0  0
 21 27  1  0  0  0  0
 22 23  4  0  0  0  0
 22 28  1  0  0  0  0
 23 24  4  0  0  0  0
 23 26  1  0  0  0  0
 24 25  4  0  0  0  0
 24 29  1  0  0  0  0
 25 30  1  0  0  0  0
 26 31  1  0  0  0  0
 26 32  1  0  0  0  0
M  END
> <BCLConfClusterSize>
1

> <ConfClashScore>
0 

> <ConfOneFourInteractionScore>
-0.978127 

> <ConfScore>
0.243026 

> <ConfScorePBest>
0.00572626 

> <ConfTolerance>
0.397325 

> <RosettaParamsInstructions>
M  ROOT 3
M  POLY_N_BB 3
M  POLY_CA_BB 4
M  POLY_C_BB 2
M  POLY_O_BB 5
M  POLY_IGNORE 9 10 11 12 13 14 15 16 17 18 
M  POLY_UPPER 6
M  POLY_LOWER 8
M  POLY_CHG 0
M  POLY_PROPERTIES ALPHA_AA D_AA PROTEIN AROMATIC POLYMER 
M  END

$$$$



 32 32  0  0  0  0  0  0  0  0999 V2000
   -0.2463    2.9645   -3.0411 H   0  0  0  1  0  0  0  0  0  0  0  0
   -2.2741    3.2202   -3.6390 C   0  0  0  1  0  0  0  0  0  0  0  0
   -1.1871    1.1056   -3.1292 N   0  0  0  1  0  0  0  0  0  0  0  0
   -1.1960    2.5343   -2.8006 C   0  0  0  1  0  0  0  0  0  0  0  0
   -3.4618    2.9162   -3.5360 O   0  0  0  1  0  0  0  0  0  0  0  0
   -1.7973    4.1540   -4.4670 N   0  0  0  1  0  0  0  0  0  0  0  0
   -1.2643    0.4858   -2.3741 H   0  0  0  1  0  0  0  0  0  0  0  0
   -1.0857    0.5526   -4.3412 C   0  0  0  1  0  0  0  0  0  0  0  0
   -2.6688    5.0097   -5.2583 C   0  0  0  1  0  0  0  0  0  0  0  0
   -1.1878   -0.9552   -4.3858 C   0  0  0  1  0  0  0  0  0  0  0  0
   -0.9196    1.2119   -5.3666 O   0  0  0  1  0  0  0  0  0  0  0  0
   -0.8268    4.2667   -4.5442 H   0  0  0  1  0  0  0  0  0  0  0  0
   -2.4861    4.8409   -6.2989 H   0  0  0  1  0  0  0  0  0  0  0  0
   -2.4710    6.0347   -5.0233 H   0  0  0  1  0  0  0  0  0  0  0  0
   -3.6902    4.7826   -5.0343 H   0  0  0  1  0  0  0  0  0  0  0  0
   -0.7305   -1.3702   -3.5120 H   0  0  0  1  0  0  0  0  0  0  0  0
   -0.6871   -1.3208   -5.2579 H   0  0  0  1  0  0  0  0  0  0  0  0
   -2.2182   -1.2418   -4.4191 H   0  0  0  1  0  0  0  0  0  0  0  0
   -2.8353    8.8006   -0.0169 I   0  0  0  1  0  0  0  0  0  0  0  0
   -2.3632    6.8066   -0.4282 C   0  0  0  1  0  0  0  0  0  0  0  0
   -1.1090    6.3104   -0.1083 C   0  0  0  1  0  0  0  0  0  0  0  0
   -0.7955    4.9932   -0.3854 C   0  0  0  1  0  0  0  0  0  0  0  0
   -1.7371    4.1668   -0.9784 C   0  0  0  1  0  0  0  0  0  0  0  0
   -2.9877    4.6613   -1.2976 C   0  0  0  1  0  0  0  0  0  0  0  0
   -3.3020    5.9825   -1.0196 C   0  0  0  1  0  0  0  0  0  0  0  0
   -1.4543    2.7182   -1.2996 C   0  0  0  1  0  0  0  0  0  0  0  0
   -0.4039    6.9294    0.3404 H   0  0  0  1  0  0  0  0  0  0  0  0
    0.1469    4.6221   -0.1489 H   0  0  0  1  0  0  0  0  0  0  0  0
   -3.6928    4.0423   -1.7462 H   0  0  0  1  0  0  0  0  0  0  0  0
   -4.2443    6.3536   -1.2560 H   0  0  0  1  0  0  0  0  0  0  0  0
   -0.5910    2.3999   -0.7535 H   0  0  0  1  0  0  0  0  0  0  0  0
   -2.2971    2.1244   -1.0133 H   0  0  0  1  0  0  0  0  0  0  0  0
  1  4  1  0  0  0  0
  2  4  1  0  0  0  0
  2  5  2  0  0  0  0
  2  6  1  0  0  0  0
  3  4  1  0  0  0  0
  3  7  1  0  0  0  0
  3  8  1  0  0  0  0
  4 26  1  0  0  0  0
  6  9  1  0  0  0  0
  6 12  1  0  0  0  0
  8 10  1  0  0  0  0
  8 11  2  0  0  0  0
  9 13  1  0  0  0  0
  9 14  1  0  0  0  0
  9 15  1  0  0  0  0
 10 16  1  0  0  0  0
 10 17  1  0  0  0  0
 10 18  1  0  0  0  0
 19 20  1  0  0  0  0
 20 21  4  0  0  0  0
 20 25  4  0  0  0  0
 21 22  4  0  0  0  0
 21 27  1  0  0  0  0
 22 23  4  0  0  0  0
 22 28  1  0  0  0  0
 23 24  4  0  0  0  0
 23 26  1  0  0  0  0
 24 25  4  0  0  0  0
 24 29  1  0  0  0  0
 25 30  1  0  0  0  0
 26 31  1  0  0  0  0
 26 32  1  0  0  0  0
M  END
> <BCLConfClusterSize>
1

> <ConfClashScore>
0 

> <ConfOneFourInteractionScore>
-0.981931 

> <ConfScore>
0.243215 

> <ConfScorePBest>
0.00569778 

> <ConfTolerance>
0.354471 

> <RosettaParamsInstructions>
M  ROOT 3
M  POLY_N_BB 3
M  POLY_CA_BB 4
M  POLY_C_BB 2
M  POLY_O_BB 5
M  POLY_IGNORE 9 10 11 12 13 14 15 16 17 18 
M  POLY_UPPER 6
M  POLY_LOWER 8
M  POLY_CHG 0
M  POLY_PROPERTIES ALPHA_AA D_AA PROTEIN AROMATIC POLYMER 
M  END

$$$$



 32 32  0  0  0  0  0  0  0  0999 V2000
   -1.7438    0.7517   -0.7654 H   0  0  0  1  0  0  0  0  0  0  0  0
   -3.6558    1.4882   -1.3169 C   0  0  0  1  0  0  0  0  0  0  0  0
   -2.3296    2.0036    0.8067 N   0  0  0  1  0  0  0  0  0  0  0  0
   -2.2607    1.6836   -0.6687 C   0  0  0  1  0  0  0  0  0  0  0  0
   -4.5751    0.9772   -0.6988 O   0  0  0  1  0  0  0  0  0  0  0  0
   -3.7778    1.9250   -2.6144 N   0  0  0  1  0  0  0  0  0  0  0  0
   -1.5334    1.8596    1.3596 H   0  0  0  1  0  0  0  0  0  0  0  0
   -3.4476    2.4801    1.3884 C   0  0  0  1  0  0  0  0  0  0  0  0
   -5.0103    1.7731   -3.3731 C   0  0  0  1  0  0  0  0  0  0  0  0
   -3.2992    2.7360    2.8755 C   0  0  0  1  0  0  0  0  0  0  0  0
   -4.4963    2.6965    0.8038 O   0  0  0  1  0  0  0  0  0  0  0  0
   -3.0081    2.3537   -3.0435 H   0  0  0  1  0  0  0  0  0  0  0  0
   -5.2054    2.6712   -3.9211 H   0  0  0  1  0  0  0  0  0  0  0  0
   -5.8211    1.5821   -2.7015 H   0  0  0  1  0  0  0  0  0  0  0  0
   -4.9106    0.9543   -4.0547 H   0  0  0  1  0  0  0  0  0  0  0  0
   -3.7064    3.6960    3.1152 H   0  0  0  1  0  0  0  0  0  0  0  0
   -2.2625    2.7126    3.1395 H   0  0  0  1  0  0  0  0  0  0  0  0
   -3.8239    1.9799    3.4214 H   0  0  0  1  0  0  0  0  0  0  0  0
   -2.8152    8.8206   -0.1091 I   0  0  0  1  0  0  0  0  0  0  0  0
   -2.3684    6.8003   -0.4031 C   0  0  0  1  0  0  0  0  0  0  0  0
   -1.1149    6.2994   -0.0882 C   0  0  0  1  0  0  0  0  0  0  0  0
   -0.8045    4.9833   -0.3741 C   0  0  0  1  0  0  0  0  0  0  0  0
   -1.7488    4.1626   -0.9710 C   0  0  0  1  0  0  0  0  0  0  0  0
   -2.9988    4.6618   -1.2852 C   0  0  0  1  0  0  0  0  0  0  0  0
   -3.3099    5.9819   -0.9983 C   0  0  0  1  0  0  0  0  0  0  0  0
   -1.3897    2.7507   -1.3697 C   0  0  0  1  0  0  0  0  0  0  0  0
   -0.4078    6.9140    0.3634 H   0  0  0  1  0  0  0  0  0  0  0  0
    0.1374    4.6087   -0.1414 H   0  0  0  1  0  0  0  0  0  0  0  0
   -3.7058    4.0472   -1.7367 H   0  0  0  1  0  0  0  0  0  0  0  0
   -4.2518    6.3565   -1.2310 H   0  0  0  1  0  0  0  0  0  0  0  0
   -1.5169    2.6528   -2.4276 H   0  0  0  1  0  0  0  0  0  0  0  0
   -0.3654    2.5750   -1.1153 H   0  0  0  1  0  0  0  0  0  0  0  0
  1  4  1  0  0  0  0
  2  4  1  0  0  0  0
  2  5  2  0  0  0  0
  2  6  1  0  0  0  0
  3  4  1  0  0  0  0
  3  7  1  0  0  0  0
  3  8  1  0  0  0  0
  4 26  1  0  0  0  0
  6  9  1  0  0  0  0
  6 12  1  0  0  0  0
  8 10  1  0  0  0  0
  8 11  2  0  0  0  0
  9 13  1  0  0  0  0
  9 14  1  0  0  0  0
  9 15  1  0  0  0  0
 10 16  1  0  0  0  0
 10 17  1  0  0  0  0
 10 18  1  0  0  0  0
 19 20  1  0  0  0  0
 20 21  4  0  0  0  0
 20 25  4  0  0  0  0
 21 22  4  0  0  0  0
 21 27  1  0  0  0  0
 22 23  4  0  0  0  0
 22 28  1  0  0  0  0
 23 24  4  0  0  0  0
 23 26  1  0  0  0  0
 24 25  4  0  0  0  0
 24 29  1  0  0  0  0
 25 30  1  0  0  0  0
 26 31  1  0  0  0  0
 26 32  1  0  0  0  0
M  END
> <BCLConfClusterSize>
1

> <ConfClashScore>
0.00232516 

> <ConfOneFourInteractionScore>
-0.917907 

> <ConfScore>
0.243759 

> <ConfScorePBest>
0.0056693 

> <ConfTolerance>
0.275898 

> <RosettaParamsInstructions>
M  ROOT 3
M  POLY_N_BB 3
M  POLY_CA_BB 4
M  POLY_C_BB 2
M  POLY_O_BB 5
M  POLY_IGNORE 9 10 11 12 13 14 15 16 17 18 
M  POLY_UPPER 6
M  POLY_LOWER 8
M  POLY_CHG 0
M  POLY_PROPERTIES ALPHA_AA D_AA PROTEIN AROMATIC POLYMER 
M  END

$$$$



 32 32  0  0  0  0  0  0  0  0999 V2000
   -2.7134    1.6033   -0.0828 H   0  0  0  1  0  0  0  0  0  0  0  0
   -1.1082    2.1863    1.1427 C   0  0  0  1  0  0  0  0  0  0  0  0
   -1.1065    0.4156   -0.5735 N   0  0  0  1  0  0  0  0  0  0  0  0
   -1.6540    1.7083   -0.1901 C   0  0  0  1  0  0  0  0  0  0  0  0
   -1.8471    2.7718    1.9332 O   0  0  0  1  0  0  0  0  0  0  0  0
    0.1577    1.8622    1.4267 N   0  0  0  1  0  0  0  0  0  0  0  0
   -0.7495    0.3030   -1.4792 H   0  0  0  1  0  0  0  0  0  0  0  0
   -1.0737   -0.6230    0.2662 C   0  0  0  1  0  0  0  0  0  0  0  0
    0.8302    2.3338    2.6281 C   0  0  0  1  0  0  0  0  0  0  0  0
   -0.3100   -1.8349   -0.2175 C   0  0  0  1  0  0  0  0  0  0  0  0
   -1.6237   -0.6124    1.3667 O   0  0  0  1  0  0  0  0  0  0  0  0
    0.6497    1.2870    0.8042 H   0  0  0  1  0  0  0  0  0  0  0  0
    0.1800    2.9912    3.1666 H   0  0  0  1  0  0  0  0  0  0  0  0
    1.7214    2.8591    2.3547 H   0  0  0  1  0  0  0  0  0  0  0  0
    1.0836    1.4980    3.2461 H   0  0  0  1  0  0  0  0  0  0  0  0
   -0.9746   -2.6704   -0.2901 H   0  0  0  1  0  0  0  0  0  0  0  0
    0.4737   -2.0621    0.4747 H   0  0  0  1  0  0  0  0  0  0  0  0
    0.1114   -1.6301   -1.1795 H   0  0  0  1  0  0  0  0  0  0  0  0
   -2.8298    8.8015   -0.0145 I   0  0  0  1  0  0  0  0  0  0  0  0
   -2.3639    6.8066   -0.4285 C   0  0  0  1  0  0  0  0  0  0  0  0
   -1.1110    6.3063   -0.1102 C   0  0  0  1  0  0  0  0  0  0  0  0
   -0.8016    4.9885   -0.3890 C   0  0  0  1  0  0  0  0  0  0  0  0
   -1.7462    4.1655   -0.9822 C   0  0  0  1  0  0  0  0  0  0  0  0
   -2.9956    4.6641   -1.2997 C   0  0  0  1  0  0  0  0  0  0  0  0
   -3.3057    5.9859   -1.0199 C   0  0  0  1  0  0  0  0  0  0  0  0
   -1.4108    2.7236   -1.2819 C   0  0  0  1  0  0  0  0  0  0  0  0
   -0.4036    6.9227    0.3385 H   0  0  0  1  0  0  0  0  0  0  0  0
    0.1398    4.6143   -0.1538 H   0  0  0  1  0  0  0  0  0  0  0  0
   -3.7029    4.0477   -1.7484 H   0  0  0  1  0  0  0  0  0  0  0  0
   -4.2471    6.3601   -1.2551 H   0  0  0  1  0  0  0  0  0  0  0  0
   -1.9941    2.4286   -2.1290 H   0  0  0  1  0  0  0  0  0  0  0  0
   -0.3713    2.6820   -1.5320 H   0  0  0  1  0  0  0  0  0  0  0  0
  1  4  1  0  0  0  0
  2  4  1  0  0  0  0
  2  5  2  0  0  0  0
  2  6  1  0  0  0  0
  3  4  1  0  0  0  0
  3  7  1  0  0  0  0
  3  8  1  0  0  0  0
  4 26  1  0  0  0  0
  6  9  1  0  0  0  0
  6 12  1  0  0  0  0
  8 10  1  0  0  0  0
  8 11  2  0  0  0  0
  9 13  1  0  0  0  0
  9 14  1  0  0  0  0
  9 15  1  0  0  0  0
 10 16  1  0  0  0  0
 10 17  1  0  0  0  0
 10 18  1  0  0  0  0
 19 20  1  0  0  0  0
 20 21  4  0  0  0  0
 20 25  4  0  0  0  0
 21 22  4  0  0  0  0
 21 27  1  0  0  0  0
 22 23  4  0  0  0  0
 22 28  1  0  0  0  0
 23 24  4  0  0  0  0
 23 26  1  0  0  0  0
 24 25  4  0  0  0  0
 24 29  1  0  0  0  0
 25 30  1  0  0  0  0
 26 31  1  0  0  0  0
 26 32  1  0  0  0  0
M  END
> <BCLConfClusterSize>
1

> <ConfClashScore>
0 

> <ConfOneFourInteractionScore>
-0.956443 

> <ConfScore>
0.252983 

> <ConfScorePBest>
0.00564082 

> <ConfTolerance>
0.259343 

> <RosettaParamsInstructions>
M  ROOT 3
M  POLY_N_BB 3
M  POLY_CA_BB 4
M  POLY_C_BB 2
M  POLY_O_BB 5
M  POLY_IGNORE 9 10 11 12 13 14 15 16 17 18 
M  POLY_UPPER 6
M  POLY_LOWER 8
M  POLY_CHG 0
M  POLY_PROPERTIES ALPHA_AA D_AA PROTEIN AROMATIC POLYMER 
M  END

$$$$



 32 32  0  0  0  0  0  0  0  0999 V2000
   -2.5736    1.9804    0.2855 H   0  0  0  1  0  0  0  0  0  0  0  0
   -2.0330    0.2797   -0.8032 C   0  0  0  1  0  0  0  0  0  0  0  0
   -3.7752    1.9195   -1.3783 N   0  0  0  1  0  0  0  0  0  0  0  0
   -2.4516    1.7463   -0.7515 C   0  0  0  1  0  0  0  0  0  0  0  0
   -0.9866   -0.1044   -0.2825 O   0  0  0  1  0  0  0  0  0  0  0  0
   -2.8748   -0.5447   -1.4467 N   0  0  0  1  0  0  0  0  0  0  0  0
   -3.8436    2.2983   -2.2795 H   0  0  0  1  0  0  0  0  0  0  0  0
   -4.8921    1.5575   -0.7137 C   0  0  0  1  0  0  0  0  0  0  0  0
   -2.5033   -1.9029   -1.8145 C   0  0  0  1  0  0  0  0  0  0  0  0
   -6.2078    1.6028   -1.4573 C   0  0  0  1  0  0  0  0  0  0  0  0
   -4.8441    1.2006    0.4627 O   0  0  0  1  0  0  0  0  0  0  0  0
   -3.7706   -0.2206   -1.6767 H   0  0  0  1  0  0  0  0  0  0  0  0
   -1.7962   -2.2837   -1.1074 H   0  0  0  1  0  0  0  0  0  0  0  0
   -2.0652   -1.9006   -2.7907 H   0  0  0  1  0  0  0  0  0  0  0  0
   -3.3753   -2.5229   -1.8157 H   0  0  0  1  0  0  0  0  0  0  0  0
   -6.4463    0.6253   -1.8213 H   0  0  0  1  0  0  0  0  0  0  0  0
   -6.1283    2.2805   -2.2815 H   0  0  0  1  0  0  0  0  0  0  0  0
   -6.9801    1.9347   -0.7952 H   0  0  0  1  0  0  0  0  0  0  0  0
   -2.8298    8.8015   -0.0145 I   0  0  0  1  0  0  0  0  0  0  0  0
   -2.3639    6.8066   -0.4285 C   0  0  0  1  0  0  0  0  0  0  0  0
   -1.1109    6.3063   -0.1102 C   0  0  0  1  0  0  0  0  0  0  0  0
   -0.8016    4.9885   -0.3890 C   0  0  0  1  0  0  0  0  0  0  0  0
   -1.7462    4.1655   -0.9822 C   0  0  0  1  0  0  0  0  0  0  0  0
   -2.9956    4.6641   -1.2997 C   0  0  0  1  0  0  0  0  0  0  0  0
   -3.3057    5.9859   -1.0199 C   0  0  0  1  0  0  0  0  0  0  0  0
   -1.4108    2.7236   -1.2819 C   0  0  0  1  0  0  0  0  0  0  0  0
   -0.4036    6.9227    0.3385 H   0  0  0  1  0  0  0  0  0  0  0  0
    0.1398    4.6143   -0.1538 H   0  0  0  1  0  0  0  0  0  0  0  0
   -3.7029    4.0477   -1.7484 H   0  0  0  1  0  0  0  0  0  0  0  0
   -4.2471    6.3601   -1.2551 H   0  0  0  1  0  0  0  0  0  0  0  0
   -1.3405    2.6037   -2.3428 H   0  0  0  1  0  0  0  0  0  0  0  0
   -0.4673    2.4930   -0.8331 H   0  0  0  1  0  0  0  0  0  0  0  0
  1  4  1  0  0  0  0
  2  4  1  0  0  0  0
  2  5  2  0  0  0  0
  2  6  1  0  0  0  0
  3  4  1  0  0  0  0
  3  7  1  0  0  0  0
  3  8  1  0  0  0  0
  4 26  1  0  0  0  0
  6  9  1  0  0  0  0
  6 12  1  0  0  0  0
  8 10  1  0  0  0  0
  8 11  2  0  0  0  0
  9 13  1  0  0  0  0
  9 14  1  0  0  0  0
  9 15  1  0  0  0  0
 10 16  1  0  0  0  0
 10 17  1  0  0  0  0
 10 18  1  0  0  0  0
 19 20  1  0  0  0  0
 20 21  4  0  0  0  0
 20 25  4  0  0  0  0
 21 22  4  0  0  0  0
 21 27  1  0  0  0  0
 22 23  4  0  0  0  0
 22 28  1  0  0  0  0
 23 24  4  0  0  0  0
 23 26  1  0  0  0  0
 24 25  4  0  0  0  0
 24 29  1  0  0  0  0
 25 30  1  0  0  0  0
 26 31  1  0  0  0  0
 26 32  1  0  0  0  0
M  END
> <BCLConfClusterSize>
1

> <ConfClashScore>
0 

> <ConfOneFourInteractionScore>
-0.937775 

> <ConfScore>
0.2533 

> <ConfScorePBest>
0.00561234 

> <ConfTolerance>
0.32404 

> <RosettaParamsInstructions>
M  ROOT 3
M  POLY_N_BB 3
M  POLY_CA_BB 4
M  POLY_C_BB 2
M  POLY_O_BB 5
M  POLY_IGNORE 9 10 11 12 13 14 15 16 17 18 
M  POLY_UPPER 6
M  POLY_LOWER 8
M  POLY_CHG 0
M  POLY_PROPERTIES ALPHA_AA D_AA PROTEIN AROMATIC POLYMER 
M  END

$$$$



 32 32  0  0  0  0  0  0  0  0999 V2000
   -0.8512    2.9454   -3.2962 H   0  0  0  1  0  0  0  0  0  0  0  0
   -2.9169    2.5597   -3.2813 C   0  0  0  1  0  0  0  0  0  0  0  0
   -1.0968    0.9379   -2.9163 N   0  0  0  1  0  0  0  0  0  0  0  0
   -1.5198    2.3195   -2.7431 C   0  0  0  1  0  0  0  0  0  0  0  0
   -3.8607    1.8635   -2.9167 O   0  0  0  1  0  0  0  0  0  0  0  0
   -3.0899    3.5537   -4.1657 N   0  0  0  1  0  0  0  0  0  0  0  0
   -0.8518    0.3998   -2.1348 H   0  0  0  1  0  0  0  0  0  0  0  0
   -1.0402    0.3844   -4.1774 C   0  0  0  1  0  0  0  0  0  0  0  0
   -4.3977    3.8960   -4.7045 C   0  0  0  1  0  0  0  0  0  0  0  0
   -0.4454   -0.9909   -4.2643 C   0  0  0  1  0  0  0  0  0  0  0  0
   -1.4578    1.0064   -5.1359 O   0  0  0  1  0  0  0  0  0  0  0  0
   -2.3084    4.0671   -4.4591 H   0  0  0  1  0  0  0  0  0  0  0  0
   -5.1481    3.7133   -3.9640 H   0  0  0  1  0  0  0  0  0  0  0  0
   -4.5956    3.2960   -5.5681 H   0  0  0  1  0  0  0  0  0  0  0  0
   -4.4110    4.9305   -4.9777 H   0  0  0  1  0  0  0  0  0  0  0  0
    0.5865   -0.9521   -3.9838 H   0  0  0  1  0  0  0  0  0  0  0  0
   -0.5285   -1.3524   -5.2679 H   0  0  0  1  0  0  0  0  0  0  0  0
   -0.9701   -1.6485   -3.6032 H   0  0  0  1  0  0  0  0  0  0  0  0
   -2.8298    8.8015   -0.0145 I   0  0  0  1  0  0  0  0  0  0  0  0
   -2.3639    6.8066   -0.4285 C   0  0  0  1  0  0  0  0  0  0  0  0
   -1.1110    6.3063   -0.1102 C   0  0  0  1  0  0  0  0  0  0  0  0
   -0.8016    4.9885   -0.3890 C   0  0  0  1  0  0  0  0  0  0  0  0
   -1.7462    4.1655   -0.9822 C   0  0  0  1  0  0  0  0  0  0  0  0
   -2.9956    4.6641   -1.2997 C   0  0  0  1  0  0  0  0  0  0  0  0
   -3.3057    5.9859   -1.0199 C   0  0  0  1  0  0  0  0  0  0  0  0
   -1.4108    2.7236   -1.2819 C   0  0  0  1  0  0  0  0  0  0  0  0
   -0.4036    6.9227    0.3385 H   0  0  0  1  0  0  0  0  0  0  0  0
    0.1398    4.6143   -0.1538 H   0  0  0  1  0  0  0  0  0  0  0  0
   -3.7029    4.0477   -1.7484 H   0  0  0  1  0  0  0  0  0  0  0  0
   -4.2471    6.3601   -1.2551 H   0  0  0  1  0  0  0  0  0  0  0  0
   -0.4046    2.5459   -0.9645 H   0  0  0  1  0  0  0  0  0  0  0  0
   -2.0777    2.1055   -0.7178 H   0  0  0  1  0  0  0  0  0  0  0  0
  1  4  1  0  0  0  0
  2  4  1  0  0  0  0
  2  5  2  0  0  0  0
  2  6  1  0  0  0  0
  3  4  1  0  0  0  0
  3  7  1  0  0  0  0
  3  8  1  0  0  0  0
  4 26  1  0  0  0  0
  6  9  1  0  0  0  0
  6 12  1  0  0  0  0
  8 10  1  0  0  0  0
  8 11  2  0  0  0  0
  9 13  1  0  0  0  0
  9 14  1  0  0  0  0
  9 15  1  0  0  0  0
 10 16  1  0  0  0  0
 10 17  1  0  0  0  0
 10 18  1  0  0  0  0
 19 20  1  0  0  0  0
 20 21  4  0  0  0  0
 20 25  4  0  0  0  0
 21 22  4  0  0  0  0
 21 27  1  0  0  0  0
 22 23  4  0  0  0  0
 22 28  1  0  0  0  0
 23 24  4  0  0  0  0
 23 26  1  0  0  0  0
 24 25  4  0  0  0  0
 24 29  1  0  0  0  0
 25 30  1  0  0  0  0
 26 31  1  0  0  0  0
 26 32  1  0  0  0  0
M  END
> <BCLConfClusterSize>
1

> <ConfClashScore>
0 

> <ConfOneFourInteractionScore>
-0.981931 

> <ConfScore>
0.253712 

> <ConfScorePBest>
0.00558386 

> <ConfTolerance>
0.568482 

> <RosettaParamsInstructions>
M  ROOT 3
M  POLY_N_BB 3
M  POLY_CA_BB 4
M  POLY_C_BB 2
M  POLY_O_BB 5
M  POLY_IGNORE 9 10 11 12 13 14 15 16 17 18 
M  POLY_UPPER 6
M  POLY_LOWER 8
M  POLY_CHG 0
M  POLY_PROPERTIES ALPHA_AA D_AA PROTEIN AROMATIC POLYMER 
M  END

$$$$



 32 32  0  0  0  0  0  0  0  0999 V2000
   -3.3295    2.0088   -0.9533 H   0  0  0  1  0  0  0  0  0  0  0  0
   -2.3112    0.3770   -1.7181 C   0  0  0  1  0  0  0  0  0  0  0  0
   -3.2213    2.3396   -2.9693 N   0  0  0  1  0  0  0  0  0  0  0  0
   -2.5895    1.8675   -1.7132 C   0  0  0  1  0  0  0  0  0  0  0  0
   -1.9471   -0.2080   -0.6986 O   0  0  0  1  0  0  0  0  0  0  0  0
   -2.4880   -0.2454   -2.8943 N   0  0  0  1  0  0  0  0  0  0  0  0
   -2.6751    2.8699   -3.5864 H   0  0  0  1  0  0  0  0  0  0  0  0
   -4.4850    2.0883   -3.3124 C   0  0  0  1  0  0  0  0  0  0  0  0
   -2.4047   -1.6842   -3.0964 C   0  0  0  1  0  0  0  0  0  0  0  0
   -4.9488    2.7536   -4.6062 C   0  0  0  1  0  0  0  0  0  0  0  0
   -5.2646    1.4361   -2.6207 O   0  0  0  1  0  0  0  0  0  0  0  0
   -2.6882    0.3110   -3.6758 H   0  0  0  1  0  0  0  0  0  0  0  0
   -1.6504   -2.0917   -2.4561 H   0  0  0  1  0  0  0  0  0  0  0  0
   -2.1537   -1.8869   -4.1166 H   0  0  0  1  0  0  0  0  0  0  0  0
   -3.3486   -2.1319   -2.8650 H   0  0  0  1  0  0  0  0  0  0  0  0
   -5.6350    3.5418   -4.3765 H   0  0  0  1  0  0  0  0  0  0  0  0
   -5.4335    2.0284   -5.2260 H   0  0  0  1  0  0  0  0  0  0  0  0
   -4.1029    3.1567   -5.1228 H   0  0  0  1  0  0  0  0  0  0  0  0
   -2.8828    8.7926   -0.0369 I   0  0  0  1  0  0  0  0  0  0  0  0
   -2.3514    6.8085   -0.4233 C   0  0  0  1  0  0  0  0  0  0  0  0
   -1.1003    6.3019   -0.1075 C   0  0  0  1  0  0  0  0  0  0  0  0
   -0.7974    4.9832   -0.3890 C   0  0  0  1  0  0  0  0  0  0  0  0
   -1.7466    4.1656   -0.9823 C   0  0  0  1  0  0  0  0  0  0  0  0
   -2.9941    4.6705   -1.2972 C   0  0  0  1  0  0  0  0  0  0  0  0
   -3.2978    5.9932   -1.0148 C   0  0  0  1  0  0  0  0  0  0  0  0
   -1.4183    2.7226   -1.2849 C   0  0  0  1  0  0  0  0  0  0  0  0
   -0.3895    6.9143    0.3413 H   0  0  0  1  0  0  0  0  0  0  0  0
    0.1426    4.6042   -0.1557 H   0  0  0  1  0  0  0  0  0  0  0  0
   -3.7049    4.0581   -1.7460 H   0  0  0  1  0  0  0  0  0  0  0  0
   -4.2378    6.3722   -1.2481 H   0  0  0  1  0  0  0  0  0  0  0  0
   -0.6932    2.7071   -2.0716 H   0  0  0  1  0  0  0  0  0  0  0  0
   -0.9974    2.2878   -0.4025 H   0  0  0  1  0  0  0  0  0  0  0  0
  1  4  1  0  0  0  0
  2  4  1  0  0  0  0
  2  5  2  0  0  0  0
  2  6  1  0  0  0  0
  3  4  1  0  0  0  0
  3  7  1  0  0  0  0
  3  8  1  0  0  0  0
  4 26  1  0  0  0  0
  6  9  1  0  0  0  0
  6 12  1  0  0  0  0
  8 10  1  0  0  0  0
  8 11  2  0  0  0  0
  9 13  1  0  0  0  0
  9 14  1  0  0  0  0
  9 15  1  0  0  0  0
 10 16  1  0  0  0  0
 10 17  1  0  0  0  0
 10 18  1  0  0  0  0
 19 20  1  0  0  0  0
 20 21  4  0  0  0  0
 20 25  4  0  0  0  0
 21 22  4  0  0  0  0
 21 27  1  0  0  0  0
 22 23  4  0  0  0  0
 22 28  1  0  0  0  0
 23 24  4  0  0  0  0
 23 26  1  0  0  0  0
 24 25  4  0  0  0  0
 24 29  1  0  0  0  0
 25 30  1  0  0  0  0
 26 31  1  0  0  0  0
 26 32  1  0  0  0  0
M  END
> <BCLConfClusterSize>
1

> <ConfClashScore>
0 

> <ConfOneFourInteractionScore>
-0.930333 

> <ConfScore>
0.257242 

> <ConfScorePBest>
0.00555537 

> <ConfTolerance>
0.37146 

> <RosettaParamsInstructions>
M  ROOT 3
M  POLY_N_BB 3
M  POLY_CA_BB 4
M  POLY_C_BB 2
M  POLY_O_BB 5
M  POLY_IGNORE 9 10 11 12 13 14 15 16 17 18 
M  POLY_UPPER 6
M  POLY_LOWER 8
M  POLY_CHG 0
M  POLY_PROPERTIES ALPHA_AA D_AA PROTEIN AROMATIC POLYMER 
M  END

$$$$



 32 32  0  0  0  0  0  0  0  0999 V2000
   -1.3471    2.2014    0.7945 H   0  0  0  1  0  0  0  0  0  0  0  0
   -1.2908    0.3993   -0.2986 C   0  0  0  1  0  0  0  0  0  0  0  0
   -3.2234    1.9424   -0.0282 N   0  0  0  1  0  0  0  0  0  0  0  0
   -1.7753    1.8237   -0.1104 C   0  0  0  1  0  0  0  0  0  0  0  0
   -1.8452   -0.5369    0.2758 O   0  0  0  1  0  0  0  0  0  0  0  0
   -0.2459    0.1926   -1.1052 N   0  0  0  1  0  0  0  0  0  0  0  0
   -3.6298    2.1894    0.8287 H   0  0  0  1  0  0  0  0  0  0  0  0
   -4.0181    1.7262   -1.0802 C   0  0  0  1  0  0  0  0  0  0  0  0
    0.3470   -1.1238   -1.2875 C   0  0  0  1  0  0  0  0  0  0  0  0
   -5.5259    1.8237   -0.8460 C   0  0  0  1  0  0  0  0  0  0  0  0
   -3.5812    1.3802   -2.1767 O   0  0  0  1  0  0  0  0  0  0  0  0
    0.1343    0.9540   -1.5911 H   0  0  0  1  0  0  0  0  0  0  0  0
    1.3948   -1.0203   -1.4783 H   0  0  0  1  0  0  0  0  0  0  0  0
   -0.1196   -1.6133   -2.1166 H   0  0  0  1  0  0  0  0  0  0  0  0
    0.2020   -1.7058   -0.4014 H   0  0  0  1  0  0  0  0  0  0  0  0
   -5.9621    2.4598   -1.5876 H   0  0  0  1  0  0  0  0  0  0  0  0
   -5.7100    2.2311    0.1261 H   0  0  0  1  0  0  0  0  0  0  0  0
   -5.9607    0.8483   -0.9127 H   0  0  0  1  0  0  0  0  0  0  0  0
   -2.8193    8.8027   -0.0103 I   0  0  0  1  0  0  0  0  0  0  0  0
   -2.3651    6.8061   -0.4291 C   0  0  0  1  0  0  0  0  0  0  0  0
   -1.1145    6.2983   -0.1138 C   0  0  0  1  0  0  0  0  0  0  0  0
   -0.8128    4.9793   -0.3959 C   0  0  0  1  0  0  0  0  0  0  0  0
   -1.7629    4.1628   -0.9892 C   0  0  0  1  0  0  0  0  0  0  0  0
   -3.0100    4.6689   -1.3036 C   0  0  0  1  0  0  0  0  0  0  0  0
   -3.3124    5.9919   -1.0207 C   0  0  0  1  0  0  0  0  0  0  0  0
   -1.3315    2.7386   -1.2480 C   0  0  0  1  0  0  0  0  0  0  0  0
   -0.4030    6.9098    0.3350 H   0  0  0  1  0  0  0  0  0  0  0  0
    0.1269    4.5995   -0.1630 H   0  0  0  1  0  0  0  0  0  0  0  0
   -3.7215    4.0574   -1.7524 H   0  0  0  1  0  0  0  0  0  0  0  0
   -4.2521    6.3717   -1.2536 H   0  0  0  1  0  0  0  0  0  0  0  0
   -1.7712    2.3996   -2.1627 H   0  0  0  1  0  0  0  0  0  0  0  0
   -0.2652    2.7044   -1.3300 H   0  0  0  1  0  0  0  0  0  0  0  0
  1  4  1  0  0  0  0
  2  4  1  0  0  0  0
  2  5  2  0  0  0  0
  2  6  1  0  0  0  0
  3  4  1  0  0  0  0
  3  7  1  0  0  0  0
  3  8  1  0  0  0  0
  4 26  1  0  0  0  0
  6  9  1  0  0  0  0
  6 12  1  0  0  0  0
  8 10  1  0  0  0  0
  8 11  2  0  0  0  0
  9 13  1  0  0  0  0
  9 14  1  0  0  0  0
  9 15  1  0  0  0  0
 10 16  1  0  0  0  0
 10 17  1  0  0  0  0
 10 18  1  0  0  0  0
 19 20  1  0  0  0  0
 20 21  4  0  0  0  0
 20 25  4  0  0  0  0
 21 22  4  0  0  0  0
 21 27  1  0  0  0  0
 22 23  4  0  0  0  0
 22 28  1  0  0  0  0
 23 24  4  0  0  0  0
 23 26  1  0  0  0  0
 24 25  4  0  0  0  0
 24 29  1  0  0  0  0
 25 30  1  0  0  0  0
 26 31  1  0  0  0  0
 26 32  1  0  0  0  0
M  END
> <BCLConfClusterSize>
1

> <ConfClashScore>
0 

> <ConfOneFourInteractionScore>
-0.923353 

> <ConfScore>
0.259111 

> <ConfScorePBest>
0.00552689 

> <ConfTolerance>
0.542293 

> <RosettaParamsInstructions>
M  ROOT 3
M  POLY_N_BB 3
M  POLY_CA_BB 4
M  POLY_C_BB 2
M  POLY_O_BB 5
M  POLY_IGNORE 9 10 11 12 13 14 15 16 17 18 
M  POLY_UPPER 6
M  POLY_LOWER 8
M  POLY_CHG 0
M  POLY_PROPERTIES ALPHA_AA D_AA PROTEIN AROMATIC POLYMER 
M  END

$$$$



 32 32  0  0  0  0  0  0  0  0999 V2000
    0.6676    2.6922   -1.2274 H   0  0  0  1  0  0  0  0  0  0  0  0
   -0.0056    0.7136   -0.8973 C   0  0  0  1  0  0  0  0  0  0  0  0
   -0.0657    2.5858    0.7037 N   0  0  0  1  0  0  0  0  0  0  0  0
   -0.1349    2.2176   -0.7025 C   0  0  0  1  0  0  0  0  0  0  0  0
    0.6528    0.0234   -0.1203 O   0  0  0  1  0  0  0  0  0  0  0  0
   -0.6477    0.2079   -1.9543 N   0  0  0  1  0  0  0  0  0  0  0  0
   -0.7957    3.1301    1.0660 H   0  0  0  1  0  0  0  0  0  0  0  0
    0.9164    2.2381    1.5367 C   0  0  0  1  0  0  0  0  0  0  0  0
   -0.5318   -1.1911   -2.3381 C   0  0  0  1  0  0  0  0  0  0  0  0
    0.8262    2.8117    2.9374 C   0  0  0  1  0  0  0  0  0  0  0  0
    1.8427    1.5017    1.2080 O   0  0  0  1  0  0  0  0  0  0  0  0
   -1.2165    0.7996   -2.4897 H   0  0  0  1  0  0  0  0  0  0  0  0
    0.4793   -1.4021   -2.6177 H   0  0  0  1  0  0  0  0  0  0  0  0
   -1.1794   -1.3882   -3.1667 H   0  0  0  1  0  0  0  0  0  0  0  0
   -0.8099   -1.8115   -1.5119 H   0  0  0  1  0  0  0  0  0  0  0  0
    0.2117    2.1792    3.5435 H   0  0  0  1  0  0  0  0  0  0  0  0
    0.3967    3.7908    2.8946 H   0  0  0  1  0  0  0  0  0  0  0  0
    1.8063    2.8699    3.3626 H   0  0  0  1  0  0  0  0  0  0  0  0
   -2.8353    8.8006   -0.0169 I   0  0  0  1  0  0  0  0  0  0  0  0
   -2.3632    6.8066   -0.4282 C   0  0  0  1  0  0  0  0  0  0  0  0
   -1.1090    6.3104   -0.1083 C   0  0  0  1  0  0  0  0  0  0  0  0
   -0.7955    4.9932   -0.3854 C   0  0  0  1  0  0  0  0  0  0  0  0
   -1.7371    4.1668   -0.9784 C   0  0  0  1  0  0  0  0  0  0  0  0
   -2.9877    4.6613   -1.2976 C   0  0  0  1  0  0  0  0  0  0  0  0
   -3.3020    5.9825   -1.0196 C   0  0  0  1  0  0  0  0  0  0  0  0
   -1.4543    2.7182   -1.2996 C   0  0  0  1  0  0  0  0  0  0  0  0
   -0.4039    6.9294    0.3404 H   0  0  0  1  0  0  0  0  0  0  0  0
    0.1469    4.6221   -0.1489 H   0  0  0  1  0  0  0  0  0  0  0  0
   -3.6928    4.0423   -1.7462 H   0  0  0  1  0  0  0  0  0  0  0  0
   -4.2443    6.3536   -1.2560 H   0  0  0  1  0  0  0  0  0  0  0  0
   -2.2524    2.1210   -0.9107 H   0  0  0  1  0  0  0  0  0  0  0  0
   -1.4107    2.6074   -2.3630 H   0  0  0  1  0  0  0  0  0  0  0  0
  1  4  1  0  0  0  0
  2  4  1  0  0  0  0
  2  5  2  0  0  0  0
  2  6  1  0  0  0  0
  3  4  1  0  0  0  0
  3  7  1  0  0  0  0
  3  8  1  0  0  0  0
  4 26  1  0  0  0  0
  6  9  1  0  0  0  0
  6 12  1  0  0  0  0
  8 10  1  0  0  0  0
  8 11  2  0  0  0  0
  9 13  1  0  0  0  0
  9 14  1  0  0  0  0
  9 15  1  0  0  0  0
 10 16  1  0  0  0  0
 10 17  1  0  0  0  0
 10 18  1  0  0  0  0
 19 20  1  0  0  0  0
 20 21  4  0  0  0  0
 20 25  4  0  0  0  0
 21 22  4  0  0  0  0
 21 27  1  0  0  0  0
 22 23  4  0  0  0  0
 22 28  1  0  0  0  0
 23 24  4  0  0  0  0
 23 26  1  0  0  0  0
 24 25  4  0  0  0  0
 24 29  1  0  0  0  0
 25 30  1  0  0  0  0
 26 31  1  0  0  0  0
 26 32  1  0  0  0  0
M  END
> <BCLConfClusterSize>
1

> <ConfClashScore>
0 

> <ConfOneFourInteractionScore>
-0.951414 

> <ConfScore>
0.261647 

> <ConfScorePBest>
0.00549841 

> <ConfTolerance>
0.598302 

> <RosettaParamsInstructions>
M  ROOT 3
M  POLY_N_BB 3
M  POLY_CA_BB 4
M  POLY_C_BB 2
M  POLY_O_BB 5
M  POLY_IGNORE 9 10 11 12 13 14 15 16 17 18 
M  POLY_UPPER 6
M  POLY_LOWER 8
M  POLY_CHG 0
M  POLY_PROPERTIES ALPHA_AA D_AA PROTEIN AROMATIC POLYMER 
M  END

$$$$



 32 32  0  0  0  0  0  0  0  0999 V2000
   -2.1248    2.8058   -3.2345 H   0  0  0  1  0  0  0  0  0  0  0  0
   -1.4230    0.8564   -2.9294 C   0  0  0  1  0  0  0  0  0  0  0  0
   -0.0704    2.8764   -3.2837 N   0  0  0  1  0  0  0  0  0  0  0  0
   -1.3038    2.3454   -2.7258 C   0  0  0  1  0  0  0  0  0  0  0  0
   -2.4759    0.2461   -2.9442 O   0  0  0  1  0  0  0  0  0  0  0  0
   -0.2470    0.2448   -3.0968 N   0  0  0  1  0  0  0  0  0  0  0  0
    0.6303    3.2141   -2.6877 H   0  0  0  1  0  0  0  0  0  0  0  0
    0.1109    2.9052   -4.6184 C   0  0  0  1  0  0  0  0  0  0  0  0
   -0.1391   -1.1969   -3.2902 C   0  0  0  1  0  0  0  0  0  0  0  0
    1.4301    3.4841   -5.0916 C   0  0  0  1  0  0  0  0  0  0  0  0
   -0.7286    2.4927   -5.4176 O   0  0  0  1  0  0  0  0  0  0  0  0
    0.5716    0.7836   -3.0893 H   0  0  0  1  0  0  0  0  0  0  0  0
   -0.4866   -1.7019   -2.4132 H   0  0  0  1  0  0  0  0  0  0  0  0
    0.8832   -1.4569   -3.4697 H   0  0  0  1  0  0  0  0  0  0  0  0
   -0.7348   -1.4894   -4.1295 H   0  0  0  1  0  0  0  0  0  0  0  0
    2.2345    2.8686   -4.7467 H   0  0  0  1  0  0  0  0  0  0  0  0
    1.5456    4.4735   -4.7012 H   0  0  0  1  0  0  0  0  0  0  0  0
    1.4410    3.5186   -6.1610 H   0  0  0  1  0  0  0  0  0  0  0  0
   -2.8349    8.7825    0.0586 I   0  0  0  1  0  0  0  0  0  0  0  0
   -2.3583    6.8140   -0.4574 C   0  0  0  1  0  0  0  0  0  0  0  0
   -1.1079    6.3135   -0.1294 C   0  0  0  1  0  0  0  0  0  0  0  0
   -0.8029    4.9908   -0.3896 C   0  0  0  1  0  0  0  0  0  0  0  0
   -1.7492    4.1634   -0.9737 C   0  0  0  1  0  0  0  0  0  0  0  0
   -2.9960    4.6622   -1.3008 C   0  0  0  1  0  0  0  0  0  0  0  0
   -3.3018    5.9889   -1.0398 C   0  0  0  1  0  0  0  0  0  0  0  0
   -1.4186    2.7163   -1.2530 C   0  0  0  1  0  0  0  0  0  0  0  0
   -0.3993    6.9333    0.3125 H   0  0  0  1  0  0  0  0  0  0  0  0
    0.1366    4.6164   -0.1472 H   0  0  0  1  0  0  0  0  0  0  0  0
   -3.7046    4.0424   -1.7427 H   0  0  0  1  0  0  0  0  0  0  0  0
   -4.2413    6.3633   -1.2822 H   0  0  0  1  0  0  0  0  0  0  0  0
   -0.4832    2.4948   -0.7829 H   0  0  0  1  0  0  0  0  0  0  0  0
   -2.1881    2.1123   -0.8195 H   0  0  0  1  0  0  0  0  0  0  0  0
  1  4  1  0  0  0  0
  2  4  1  0  0  0  0
  2  5  2  0  0  0  0
  2  6  1  0  0  0  0
  3  4  1  0  0  0  0
  3  7  1  0  0  0  0
  3  8  1  0  0  0  0
  4 26  1  0  0  0  0
  6  9  1  0  0  0  0
  6 12  1  0  0  0  0
  8 10  1  0  0  0  0
  8 11  2  0  0  0  0
  9 13  1  0  0  0  0
  9 14  1  0  0  0  0
  9 15  1  0  0  0  0
 10 16  1  0  0  0  0
 10 17  1  0  0  0  0
 10 18  1  0  0  0  0
 19 20  1  0  0  0  0
 20 21  4  0  0  0  0
 20 25  4  0  0  0  0
 21 22  4  0  0  0  0
 21 27  1  0  0  0  0
 22 23  4  0  0  0  0
 22 28  1  0  0  0  0
 23 24  4  0  0  0  0
 23 26  1  0  0  0  0
 24 25  4  0  0  0  0
 24 29  1  0  0  0  0
 25 30  1  0  0  0  0
 26 31  1  0  0  0  0
 26 32  1  0  0  0  0
M  END
> <BCLConfClusterSize>
1

> <ConfClashScore>
0 

> <ConfOneFourInteractionScore>
-0.960318 

> <ConfScore>
0.2625 

> <ConfScorePBest>
0.00546993 

> <ConfTolerance>
0.37023 

> <RosettaParamsInstructions>
M  ROOT 3
M  POLY_N_BB 3
M  POLY_CA_BB 4
M  POLY_C_BB 2
M  POLY_O_BB 5
M  POLY_IGNORE 9 10 11 12 13 14 15 16 17 18 
M  POLY_UPPER 6
M  POLY_LOWER 8
M  POLY_CHG 0
M  POLY_PROPERTIES ALPHA_AA D_AA PROTEIN AROMATIC POLYMER 
M  END

$$$$



 32 32  0  0  0  0  0  0  0  0999 V2000
   -1.5502    2.5745   -3.3262 H   0  0  0  1  0  0  0  0  0  0  0  0
   -0.2860    1.0114   -2.7107 C   0  0  0  1  0  0  0  0  0  0  0  0
    0.2820    3.4044   -2.8907 N   0  0  0  1  0  0  0  0  0  0  0  0
   -0.7731    2.4446   -2.6022 C   0  0  0  1  0  0  0  0  0  0  0  0
   -1.0520    0.0642   -2.5541 O   0  0  0  1  0  0  0  0  0  0  0  0
    1.0192    0.8582   -2.9853 N   0  0  0  1  0  0  0  0  0  0  0  0
    0.2562    3.8950   -3.7386 H   0  0  0  1  0  0  0  0  0  0  0  0
    1.2932    3.6420   -2.0326 C   0  0  0  1  0  0  0  0  0  0  0  0
    1.6363   -0.4526   -3.1218 C   0  0  0  1  0  0  0  0  0  0  0  0
    2.3309    4.6100   -2.5666 C   0  0  0  1  0  0  0  0  0  0  0  0
    1.3956    3.1393   -0.9167 O   0  0  0  1  0  0  0  0  0  0  0  0
    1.5757    1.6570   -3.0976 H   0  0  0  1  0  0  0  0  0  0  0  0
    2.4676   -0.3879   -3.7923 H   0  0  0  1  0  0  0  0  0  0  0  0
    0.9190   -1.1456   -3.5094 H   0  0  0  1  0  0  0  0  0  0  0  0
    1.9759   -0.7882   -2.1643 H   0  0  0  1  0  0  0  0  0  0  0  0
    2.5469    4.3746   -3.5878 H   0  0  0  1  0  0  0  0  0  0  0  0
    3.2257    4.5296   -1.9854 H   0  0  0  1  0  0  0  0  0  0  0  0
    1.9525    5.6088   -2.5034 H   0  0  0  1  0  0  0  0  0  0  0  0
   -2.8296    8.7831    0.0608 I   0  0  0  1  0  0  0  0  0  0  0  0
   -2.3589    6.8139   -0.4577 C   0  0  0  1  0  0  0  0  0  0  0  0
   -1.1097    6.3095   -0.1313 C   0  0  0  1  0  0  0  0  0  0  0  0
   -0.8085    4.9863   -0.3930 C   0  0  0  1  0  0  0  0  0  0  0  0
   -1.7577    4.1621   -0.9772 C   0  0  0  1  0  0  0  0  0  0  0  0
   -3.0033    4.6647   -1.3028 C   0  0  0  1  0  0  0  0  0  0  0  0
   -3.3052    5.9919   -1.0401 C   0  0  0  1  0  0  0  0  0  0  0  0
   -1.3784    2.7231   -1.2361 C   0  0  0  1  0  0  0  0  0  0  0  0
   -0.3990    6.9269    0.3107 H   0  0  0  1  0  0  0  0  0  0  0  0
    0.1301    4.6090   -0.1518 H   0  0  0  1  0  0  0  0  0  0  0  0
   -3.7140    4.0473   -1.7447 H   0  0  0  1  0  0  0  0  0  0  0  0
   -4.2439    6.3692   -1.2814 H   0  0  0  1  0  0  0  0  0  0  0  0
   -0.6657    2.4309   -0.4935 H   0  0  0  1  0  0  0  0  0  0  0  0
   -2.2612    2.1264   -1.1383 H   0  0  0  1  0  0  0  0  0  0  0  0
  1  4  1  0  0  0  0
  2  4  1  0  0  0  0
  2  5  2  0  0  0  0
  2  6  1  0  0  0  0
  3  4  1  0  0  0  0
  3  7  1  0  0  0  0
  3  8  1  0  0  0  0
  4 26  1  0  0  0  0
  6  9  1  0  0  0  0
  6 12  1  0  0  0  0
  8 10  1  0  0  0  0
  8 11  2  0  0  0  0
  9 13  1  0  0  0  0
  9 14  1  0  0  0  0
  9 15  1  0  0  0  0
 10 16  1  0  0  0  0
 10 17  1  0  0  0  0
 10 18  1  0  0  0  0
 19 20  1  0  0  0  0
 20 21  4  0  0  0  0
 20 25  4  0  0  0  0
 21 22  4  0  0  0  0
 21 27  1  0  0  0  0
 22 23  4  0  0  0  0
 22 28  1  0  0  0  0
 23 24  4  0  0  0  0
 23 26  1  0  0  0  0
 24 25  4  0  0  0  0
 24 29  1  0  0  0  0
 25 30  1  0  0  0  0
 26 31  1  0  0  0  0
 26 32  1  0  0  0  0
M  END
> <BCLConfClusterSize>
1

> <ConfClashScore>
0 

> <ConfOneFourInteractionScore>
-0.940043 

> <ConfScore>
0.263856 

> <ConfScorePBest>
0.00544145 

> <ConfTolerance>
0.319847 

> <RosettaParamsInstructions>
M  ROOT 3
M  POLY_N_BB 3
M  POLY_CA_BB 4
M  POLY_C_BB 2
M  POLY_O_BB 5
M  POLY_IGNORE 9 10 11 12 13 14 15 16 17 18 
M  POLY_UPPER 6
M  POLY_LOWER 8
M  POLY_CHG 0
M  POLY_PROPERTIES ALPHA_AA D_AA PROTEIN AROMATIC POLYMER 
M  END

$$$$



 32 32  0  0  0  0  0  0  0  0999 V2000
   -1.1430    0.8225   -0.4252 H   0  0  0  1  0  0  0  0  0  0  0  0
   -2.9639    1.5682    0.3152 C   0  0  0  1  0  0  0  0  0  0  0  0
   -0.6919    2.2370    0.9986 N   0  0  0  1  0  0  0  0  0  0  0  0
   -1.5192    1.7708   -0.1026 C   0  0  0  1  0  0  0  0  0  0  0  0
   -3.8800    1.6479   -0.4990 O   0  0  0  1  0  0  0  0  0  0  0  0
   -3.1619    1.3019    1.6094 N   0  0  0  1  0  0  0  0  0  0  0  0
   -1.1084    2.5006    1.8456 H   0  0  0  1  0  0  0  0  0  0  0  0
    0.6461    2.3072    0.8569 C   0  0  0  1  0  0  0  0  0  0  0  0
   -4.5146    1.1682    2.1292 C   0  0  0  1  0  0  0  0  0  0  0  0
    1.4517    2.8916    1.9952 C   0  0  0  1  0  0  0  0  0  0  0  0
    1.1976    1.9090   -0.1656 O   0  0  0  1  0  0  0  0  0  0  0  0
   -2.3947    1.1963    2.2098 H   0  0  0  1  0  0  0  0  0  0  0  0
   -5.0355    2.0956    2.0122 H   0  0  0  1  0  0  0  0  0  0  0  0
   -4.4738    0.9109    3.1670 H   0  0  0  1  0  0  0  0  0  0  0  0
   -5.0291    0.4000    1.5907 H   0  0  0  1  0  0  0  0  0  0  0  0
    1.3704    2.2571    2.8529 H   0  0  0  1  0  0  0  0  0  0  0  0
    1.0763    3.8646    2.2347 H   0  0  0  1  0  0  0  0  0  0  0  0
    2.4784    2.9667    1.7034 H   0  0  0  1  0  0  0  0  0  0  0  0
   -2.8298    8.8015   -0.0145 I   0  0  0  1  0  0  0  0  0  0  0  0
   -2.3639    6.8066   -0.4285 C   0  0  0  1  0  0  0  0  0  0  0  0
   -1.1110    6.3063   -0.1102 C   0  0  0  1  0  0  0  0  0  0  0  0
   -0.8016    4.9885   -0.3890 C   0  0  0  1  0  0  0  0  0  0  0  0
   -1.7462    4.1655   -0.9822 C   0  0  0  1  0  0  0  0  0  0  0  0
   -2.9956    4.6641   -1.2997 C   0  0  0  1  0  0  0  0  0  0  0  0
   -3.3057    5.9859   -1.0199 C   0  0  0  1  0  0  0  0  0  0  0  0
   -1.4108    2.7236   -1.2819 C   0  0  0  1  0  0  0  0  0  0  0  0
   -0.4036    6.9227    0.3385 H   0  0  0  1  0  0  0  0  0  0  0  0
    0.1398    4.6143   -0.1538 H   0  0  0  1  0  0  0  0  0  0  0  0
   -3.7029    4.0477   -1.7484 H   0  0  0  1  0  0  0  0  0  0  0  0
   -4.2471    6.3601   -1.2551 H   0  0  0  1  0  0  0  0  0  0  0  0
   -2.0780    2.3813   -2.0452 H   0  0  0  1  0  0  0  0  0  0  0  0
   -0.4047    2.6872   -1.6443 H   0  0  0  1  0  0  0  0  0  0  0  0
  1  4  1  0  0  0  0
  2  4  1  0  0  0  0
  2  5  2  0  0  0  0
  2  6  1  0  0  0  0
  3  4  1  0  0  0  0
  3  7  1  0  0  0  0
  3  8  1  0  0  0  0
  4 26  1  0  0  0  0
  6  9  1  0  0  0  0
  6 12  1  0  0  0  0
  8 10  1  0  0  0  0
  8 11  2  0  0  0  0
  9 13  1  0  0  0  0
  9 14  1  0  0  0  0
  9 15  1  0  0  0  0
 10 16  1  0  0  0  0
 10 17  1  0  0  0  0
 10 18  1  0  0  0  0
 19 20  1  0  0  0  0
 20 21  4  0  0  0  0
 20 25  4  0  0  0  0
 21 22  4  0  0  0  0
 21 27  1  0  0  0  0
 22 23  4  0  0  0  0
 22 28  1  0  0  0  0
 23 24  4  0  0  0  0
 23 26  1  0  0  0  0
 24 25  4  0  0  0  0
 24 29  1  0  0  0  0
 25 30  1  0  0  0  0
 26 31  1  0  0  0  0
 26 32  1  0  0  0  0
M  END
> <BCLConfClusterSize>
1

> <ConfClashScore>
0 

> <ConfOneFourInteractionScore>
-0.950895 

> <ConfScore>
0.267103 

> <ConfScorePBest>
0.00541297 

> <ConfTolerance>
0.366483 

> <RosettaParamsInstructions>
M  ROOT 3
M  POLY_N_BB 3
M  POLY_CA_BB 4
M  POLY_C_BB 2
M  POLY_O_BB 5
M  POLY_IGNORE 9 10 11 12 13 14 15 16 17 18 
M  POLY_UPPER 6
M  POLY_LOWER 8
M  POLY_CHG 0
M  POLY_PROPERTIES ALPHA_AA D_AA PROTEIN AROMATIC POLYMER 
M  END

$$$$



 32 32  0  0  0  0  0  0  0  0999 V2000
   -1.9393    0.7887   -0.5971 H   0  0  0  1  0  0  0  0  0  0  0  0
   -3.7010    1.8333   -1.1321 C   0  0  0  1  0  0  0  0  0  0  0  0
   -2.3147    2.1657    0.9039 N   0  0  0  1  0  0  0  0  0  0  0  0
   -2.3199    1.7840   -0.5005 C   0  0  0  1  0  0  0  0  0  0  0  0
   -4.6199    2.4386   -0.6109 O   0  0  0  1  0  0  0  0  0  0  0  0
   -3.7891    1.1620   -2.2815 N   0  0  0  1  0  0  0  0  0  0  0  0
   -1.6435    2.8075    1.2171 H   0  0  0  1  0  0  0  0  0  0  0  0
   -3.1930    1.6715    1.7810 C   0  0  0  1  0  0  0  0  0  0  0  0
   -5.0192    0.9477   -3.0289 C   0  0  0  1  0  0  0  0  0  0  0  0
   -3.0321    2.1434    3.2084 C   0  0  0  1  0  0  0  0  0  0  0  0
   -4.0809    0.8834    1.4665 O   0  0  0  1  0  0  0  0  0  0  0  0
   -2.9632    0.7848   -2.6503 H   0  0  0  1  0  0  0  0  0  0  0  0
   -5.6699    0.3081   -2.4700 H   0  0  0  1  0  0  0  0  0  0  0  0
   -4.7902    0.4898   -3.9685 H   0  0  0  1  0  0  0  0  0  0  0  0
   -5.5020    1.8875   -3.1978 H   0  0  0  1  0  0  0  0  0  0  0  0
   -1.9921    2.2615    3.4305 H   0  0  0  1  0  0  0  0  0  0  0  0
   -3.4586    1.4212    3.8728 H   0  0  0  1  0  0  0  0  0  0  0  0
   -3.5317    3.0815    3.3321 H   0  0  0  1  0  0  0  0  0  0  0  0
   -2.8298    8.8015   -0.0145 I   0  0  0  1  0  0  0  0  0  0  0  0
   -2.3639    6.8066   -0.4285 C   0  0  0  1  0  0  0  0  0  0  0  0
   -1.1109    6.3063   -0.1102 C   0  0  0  1  0  0  0  0  0  0  0  0
   -0.8016    4.9885   -0.3890 C   0  0  0  1  0  0  0  0  0  0  0  0
   -1.7462    4.1655   -0.9822 C   0  0  0  1  0  0  0  0  0  0  0  0
   -2.9956    4.6641   -1.2997 C   0  0  0  1  0  0  0  0  0  0  0  0
   -3.3057    5.9859   -1.0199 C   0  0  0  1  0  0  0  0  0  0  0  0
   -1.4108    2.7236   -1.2819 C   0  0  0  1  0  0  0  0  0  0  0  0
   -0.4036    6.9227    0.3385 H   0  0  0  1  0  0  0  0  0  0  0  0
    0.1398    4.6143   -0.1538 H   0  0  0  1  0  0  0  0  0  0  0  0
   -3.7029    4.0477   -1.7484 H   0  0  0  1  0  0  0  0  0  0  0  0
   -4.2471    6.3601   -1.2551 H   0  0  0  1  0  0  0  0  0  0  0  0
   -1.5378    2.5442   -2.3291 H   0  0  0  1  0  0  0  0  0  0  0  0
   -0.3936    2.5358   -1.0081 H   0  0  0  1  0  0  0  0  0  0  0  0
  1  4  1  0  0  0  0
  2  4  1  0  0  0  0
  2  5  2  0  0  0  0
  2  6  1  0  0  0  0
  3  4  1  0  0  0  0
  3  7  1  0  0  0  0
  3  8  1  0  0  0  0
  4 26  1  0  0  0  0
  6  9  1  0  0  0  0
  6 12  1  0  0  0  0
  8 10  1  0  0  0  0
  8 11  2  0  0  0  0
  9 13  1  0  0  0  0
  9 14  1  0  0  0  0
  9 15  1  0  0  0  0
 10 16  1  0  0  0  0
 10 17  1  0  0  0  0
 10 18  1  0  0  0  0
 19 20  1  0  0  0  0
 20 21  4  0  0  0  0
 20 25  4  0  0  0  0
 21 22  4  0  0  0  0
 21 27  1  0  0  0  0
 22 23  4  0  0  0  0
 22 28  1  0  0  0  0
 23 24  4  0  0  0  0
 23 26  1  0  0  0  0
 24 25  4  0  0  0  0
 24 29  1  0  0  0  0
 25 30  1  0  0  0  0
 26 31  1  0  0  0  0
 26 32  1  0  0  0  0
M  END
> <BCLConfClusterSize>
1

> <ConfClashScore>
0 

> <ConfOneFourInteractionScore>
-0.976093 

> <ConfScore>
0.273303 

> <ConfScorePBest>
0.00538449 

> <ConfTolerance>
0.426208 

> <RosettaParamsInstructions>
M  ROOT 3
M  POLY_N_BB 3
M  POLY_CA_BB 4
M  POLY_C_BB 2
M  POLY_O_BB 5
M  POLY_IGNORE 9 10 11 12 13 14 15 16 17 18 
M  POLY_UPPER 6
M  POLY_LOWER 8
M  POLY_CHG 0
M  POLY_PROPERTIES ALPHA_AA D_AA PROTEIN AROMATIC POLYMER 
M  END

$$$$



 32 32  0  0  0  0  0  0  0  0999 V2000
   -1.2281    2.1191    0.7049 H   0  0  0  1  0  0  0  0  0  0  0  0
   -1.1286    0.3439   -0.3754 C   0  0  0  1  0  0  0  0  0  0  0  0
   -3.1589    1.7215    0.1559 N   0  0  0  1  0  0  0  0  0  0  0  0
   -1.7126    1.7431   -0.1719 C   0  0  0  1  0  0  0  0  0  0  0  0
   -1.1346   -0.4766    0.5414 O   0  0  0  1  0  0  0  0  0  0  0  0
   -0.7141    0.0869   -1.6192 N   0  0  0  1  0  0  0  0  0  0  0  0
   -3.7503    2.3038   -0.3652 H   0  0  0  1  0  0  0  0  0  0  0  0
   -3.7153    0.9690    1.1064 C   0  0  0  1  0  0  0  0  0  0  0  0
   -0.0343   -1.1304   -2.0361 C   0  0  0  1  0  0  0  0  0  0  0  0
   -5.2065    1.1574    1.3070 C   0  0  0  1  0  0  0  0  0  0  0  0
   -3.0768    0.1695    1.7858 O   0  0  0  1  0  0  0  0  0  0  0  0
   -0.8804    0.7696   -2.3024 H   0  0  0  1  0  0  0  0  0  0  0  0
    0.8877   -1.2256   -1.5015 H   0  0  0  1  0  0  0  0  0  0  0  0
    0.1657   -1.0853   -3.0862 H   0  0  0  1  0  0  0  0  0  0  0  0
   -0.6564   -1.9755   -1.8269 H   0  0  0  1  0  0  0  0  0  0  0  0
   -5.5839    1.8321    0.5673 H   0  0  0  1  0  0  0  0  0  0  0  0
   -5.3869    1.5599    2.2818 H   0  0  0  1  0  0  0  0  0  0  0  0
   -5.7008    0.2130    1.2134 H   0  0  0  1  0  0  0  0  0  0  0  0
   -2.8245    8.8022   -0.0124 I   0  0  0  1  0  0  0  0  0  0  0  0
   -2.3645    6.8064   -0.4288 C   0  0  0  1  0  0  0  0  0  0  0  0
   -1.1127    6.3023   -0.1120 C   0  0  0  1  0  0  0  0  0  0  0  0
   -0.8072    4.9839   -0.3924 C   0  0  0  1  0  0  0  0  0  0  0  0
   -1.7547    4.1642   -0.9857 C   0  0  0  1  0  0  0  0  0  0  0  0
   -3.0029    4.6666   -1.3016 C   0  0  0  1  0  0  0  0  0  0  0  0
   -3.3091    5.9890   -1.0203 C   0  0  0  1  0  0  0  0  0  0  0  0
   -1.3707    2.7303   -1.2650 C   0  0  0  1  0  0  0  0  0  0  0  0
   -0.4033    6.9163    0.3368 H   0  0  0  1  0  0  0  0  0  0  0  0
    0.1333    4.6069   -0.1584 H   0  0  0  1  0  0  0  0  0  0  0  0
   -3.7123    4.0526   -1.7504 H   0  0  0  1  0  0  0  0  0  0  0  0
   -4.2497    6.3660   -1.2543 H   0  0  0  1  0  0  0  0  0  0  0  0
   -1.8737    2.4218   -2.1576 H   0  0  0  1  0  0  0  0  0  0  0  0
   -0.3127    2.6964   -1.4213 H   0  0  0  1  0  0  0  0  0  0  0  0
  1  4  1  0  0  0  0
  2  4  1  0  0  0  0
  2  5  2  0  0  0  0
  2  6  1  0  0  0  0
  3  4  1  0  0  0  0
  3  7  1  0  0  0  0
  3  8  1  0  0  0  0
  4 26  1  0  0  0  0
  6  9  1  0  0  0  0
  6 12  1  0  0  0  0
  8 10  1  0  0  0  0
  8 11  2  0  0  0  0
  9 13  1  0  0  0  0
  9 14  1  0  0  0  0
  9 15  1  0  0  0  0
 10 16  1  0  0  0  0
 10 17  1  0  0  0  0
 10 18  1  0  0  0  0
 19 20  1  0  0  0  0
 20 21  4  0  0  0  0
 20 25  4  0  0  0  0
 21 22  4  0  0  0  0
 21 27  1  0  0  0  0
 22 23  4  0  0  0  0
 22 28  1  0  0  0  0
 23 24  4  0  0  0  0
 23 26  1  0  0  0  0
 24 25  4  0  0  0  0
 24 29  1  0  0  0  0
 25 30  1  0  0  0  0
 26 31  1  0  0  0  0
 26 32  1  0  0  0  0
M  END
> <BCLConfClusterSize>
1

> <ConfClashScore>
0 

> <ConfOneFourInteractionScore>
-0.952541 

> <ConfScore>
0.275353 

> <ConfScorePBest>
0.00535601 

> <ConfTolerance>
0.5123 

> <RosettaParamsInstructions>
M  ROOT 3
M  POLY_N_BB 3
M  POLY_CA_BB 4
M  POLY_C_BB 2
M  POLY_O_BB 5
M  POLY_IGNORE 9 10 11 12 13 14 15 16 17 18 
M  POLY_UPPER 6
M  POLY_LOWER 8
M  POLY_CHG 0
M  POLY_PROPERTIES ALPHA_AA D_AA PROTEIN AROMATIC POLYMER 
M  END

$$$$



 32 32  0  0  0  0  0  0  0  0999 V2000
    0.4217    2.9739   -2.2952 H   0  0  0  1  0  0  0  0  0  0  0  0
   -1.0930    3.2961   -3.7230 C   0  0  0  1  0  0  0  0  0  0  0  0
   -0.3747    1.1256   -2.7809 N   0  0  0  1  0  0  0  0  0  0  0  0
   -0.5386    2.5588   -2.5196 C   0  0  0  1  0  0  0  0  0  0  0  0
   -1.6480    2.6947   -4.6388 O   0  0  0  1  0  0  0  0  0  0  0  0
   -0.9361    4.6228   -3.7137 N   0  0  0  1  0  0  0  0  0  0  0  0
   -0.9509    0.5218   -2.2673 H   0  0  0  1  0  0  0  0  0  0  0  0
    0.4710    0.5491   -3.6397 C   0  0  0  1  0  0  0  0  0  0  0  0
   -1.3702    5.4647   -4.8185 C   0  0  0  1  0  0  0  0  0  0  0  0
    0.4768   -0.9672   -3.6409 C   0  0  0  1  0  0  0  0  0  0  0  0
    1.2053    1.1907   -4.3890 O   0  0  0  1  0  0  0  0  0  0  0  0
   -0.5141    5.0437   -2.9358 H   0  0  0  1  0  0  0  0  0  0  0  0
   -1.3037    6.4933   -4.5313 H   0  0  0  1  0  0  0  0  0  0  0  0
   -2.3835    5.2295   -5.0691 H   0  0  0  1  0  0  0  0  0  0  0  0
   -0.7427    5.2904   -5.6674 H   0  0  0  1  0  0  0  0  0  0  0  0
    1.3499   -1.3214   -3.1338 H   0  0  0  1  0  0  0  0  0  0  0  0
    0.4819   -1.3228   -4.6501 H   0  0  0  1  0  0  0  0  0  0  0  0
   -0.3973   -1.3274   -3.1398 H   0  0  0  1  0  0  0  0  0  0  0  0
   -2.8298    8.8015   -0.0145 I   0  0  0  1  0  0  0  0  0  0  0  0
   -2.3639    6.8066   -0.4285 C   0  0  0  1  0  0  0  0  0  0  0  0
   -1.1110    6.3063   -0.1102 C   0  0  0  1  0  0  0  0  0  0  0  0
   -0.8016    4.9885   -0.3890 C   0  0  0  1  0  0  0  0  0  0  0  0
   -1.7462    4.1655   -0.9822 C   0  0  0  1  0  0  0  0  0  0  0  0
   -2.9956    4.6641   -1.2997 C   0  0  0  1  0  0  0  0  0  0  0  0
   -3.3057    5.9859   -1.0199 C   0  0  0  1  0  0  0  0  0  0  0  0
   -1.4108    2.7236   -1.2819 C   0  0  0  1  0  0  0  0  0  0  0  0
   -0.4036    6.9227    0.3385 H   0  0  0  1  0  0  0  0  0  0  0  0
    0.1398    4.6143   -0.1538 H   0  0  0  1  0  0  0  0  0  0  0  0
   -3.7029    4.0477   -1.7484 H   0  0  0  1  0  0  0  0  0  0  0  0
   -4.2471    6.3601   -1.2551 H   0  0  0  1  0  0  0  0  0  0  0  0
   -0.8908    2.3132   -0.4416 H   0  0  0  1  0  0  0  0  0  0  0  0
   -2.3235    2.1863   -1.4344 H   0  0  0  1  0  0  0  0  0  0  0  0
  1  4  1  0  0  0  0
  2  4  1  0  0  0  0
  2  5  2  0  0  0  0
  2  6  1  0  0  0  0
  3  4  1  0  0  0  0
  3  7  1  0  0  0  0
  3  8  1  0  0  0  0
  4 26  1  0  0  0  0
  6  9  1  0  0  0  0
  6 12  1  0  0  0  0
  8 10  1  0  0  0  0
  8 11  2  0  0  0  0
  9 13  1  0  0  0  0
  9 14  1  0  0  0  0
  9 15  1  0  0  0  0
 10 16  1  0  0  0  0
 10 17  1  0  0  0  0
 10 18  1  0  0  0  0
 19 20  1  0  0  0  0
 20 21  4  0  0  0  0
 20 25  4  0  0  0  0
 21 22  4  0  0  0  0
 21 27  1  0  0  0  0
 22 23  4  0  0  0  0
 22 28  1  0  0  0  0
 23 24  4  0  0  0  0
 23 26  1  0  0  0  0
 24 25  4  0  0  0  0
 24 29  1  0  0  0  0
 25 30  1  0  0  0  0
 26 31  1  0  0  0  0
 26 32  1  0  0  0  0
M  END
> <BCLConfClusterSize>
1

> <ConfClashScore>
0 

> <ConfOneFourInteractionScore>
-0.985807 

> <ConfScore>
0.277173 

> <ConfScorePBest>
0.00532753 

> <ConfTolerance>
0.501345 

> <RosettaParamsInstructions>
M  ROOT 3
M  POLY_N_BB 3
M  POLY_CA_BB 4
M  POLY_C_BB 2
M  POLY_O_BB 5
M  POLY_IGNORE 9 10 11 12 13 14 15 16 17 18 
M  POLY_UPPER 6
M  POLY_LOWER 8
M  POLY_CHG 0
M  POLY_PROPERTIES ALPHA_AA D_AA PROTEIN AROMATIC POLYMER 
M  END

$$$$



 32 32  0  0  0  0  0  0  0  0999 V2000
   -2.5306    2.3604   -2.9789 H   0  0  0  1  0  0  0  0  0  0  0  0
   -1.0741    0.8478   -2.8962 C   0  0  0  1  0  0  0  0  0  0  0  0
   -0.7472    3.1936   -3.5792 N   0  0  0  1  0  0  0  0  0  0  0  0
   -1.4958    2.2930   -2.7153 C   0  0  0  1  0  0  0  0  0  0  0  0
   -1.8994   -0.0573   -2.9852 O   0  0  0  1  0  0  0  0  0  0  0  0
    0.2564    0.6762   -2.9462 N   0  0  0  1  0  0  0  0  0  0  0  0
   -0.1673    3.8690   -3.1694 H   0  0  0  1  0  0  0  0  0  0  0  0
   -0.8231    3.1318   -4.9117 C   0  0  0  1  0  0  0  0  0  0  0  0
    0.8666   -0.6396   -3.0648 C   0  0  0  1  0  0  0  0  0  0  0  0
    0.0333    4.0942   -5.7270 C   0  0  0  1  0  0  0  0  0  0  0  0
   -1.5435    2.3437   -5.5219 O   0  0  0  1  0  0  0  0  0  0  0  0
    0.8369    1.4645   -2.9013 H   0  0  0  1  0  0  0  0  0  0  0  0
    1.2294   -0.9526   -2.1081 H   0  0  0  1  0  0  0  0  0  0  0  0
    1.6811   -0.5937   -3.7572 H   0  0  0  1  0  0  0  0  0  0  0  0
    0.1381   -1.3400   -3.4164 H   0  0  0  1  0  0  0  0  0  0  0  0
    0.9344    4.3111   -5.1923 H   0  0  0  1  0  0  0  0  0  0  0  0
   -0.5096    5.0012   -5.8931 H   0  0  0  1  0  0  0  0  0  0  0  0
    0.2761    3.6459   -6.6677 H   0  0  0  1  0  0  0  0  0  0  0  0
   -2.8245    8.8022   -0.0124 I   0  0  0  1  0  0  0  0  0  0  0  0
   -2.3645    6.8064   -0.4288 C   0  0  0  1  0  0  0  0  0  0  0  0
   -1.1127    6.3023   -0.1120 C   0  0  0  1  0  0  0  0  0  0  0  0
   -0.8072    4.9839   -0.3924 C   0  0  0  1  0  0  0  0  0  0  0  0
   -1.7547    4.1642   -0.9857 C   0  0  0  1  0  0  0  0  0  0  0  0
   -3.0029    4.6666   -1.3016 C   0  0  0  1  0  0  0  0  0  0  0  0
   -3.3091    5.9890   -1.0203 C   0  0  0  1  0  0  0  0  0  0  0  0
   -1.3707    2.7303   -1.2650 C   0  0  0  1  0  0  0  0  0  0  0  0
   -0.4033    6.9163    0.3368 H   0  0  0  1  0  0  0  0  0  0  0  0
    0.1333    4.6069   -0.1584 H   0  0  0  1  0  0  0  0  0  0  0  0
   -3.7123    4.0526   -1.7504 H   0  0  0  1  0  0  0  0  0  0  0  0
   -4.2497    6.3660   -1.2543 H   0  0  0  1  0  0  0  0  0  0  0  0
   -0.3516    2.5975   -0.9669 H   0  0  0  1  0  0  0  0  0  0  0  0
   -2.0008    2.0988   -0.6742 H   0  0  0  1  0  0  0  0  0  0  0  0
  1  4  1  0  0  0  0
  2  4  1  0  0  0  0
  2  5  2  0  0  0  0
  2  6  1  0  0  0  0
  3  4  1  0  0  0  0
  3  7  1  0  0  0  0
  3  8  1  0  0  0  0
  4 26  1  0  0  0  0
  6  9  1  0  0  0  0
  6 12  1  0  0  0  0
  8 10  1  0  0  0  0
  8 11  2  0  0  0  0
  9 13  1  0  0  0  0
  9 14  1  0  0  0  0
  9 15  1  0  0  0  0
 10 16  1  0  0  0  0
 10 17  1  0  0  0  0
 10 18  1  0  0  0  0
 19 20  1  0  0  0  0
 20 21  4  0  0  0  0
 20 25  4  0  0  0  0
 21 22  4  0  0  0  0
 21 27  1  0  0  0  0
 22 23  4  0  0  0  0
 22 28  1  0  0  0  0
 23 24  4  0  0  0  0
 23 26  1  0  0  0  0
 24 25  4  0  0  0  0
 24 29  1  0  0  0  0
 25 30  1  0  0  0  0
 26 31  1  0  0  0  0
 26 32  1  0  0  0  0
M  END
> <BCLConfClusterSize>
1

> <ConfClashScore>
0 

> <ConfOneFourInteractionScore>
-0.960318 

> <ConfScore>
0.278559 

> <ConfScorePBest>
0.00529905 

> <ConfTolerance>
0.508893 

> <RosettaParamsInstructions>
M  ROOT 3
M  POLY_N_BB 3
M  POLY_CA_BB 4
M  POLY_C_BB 2
M  POLY_O_BB 5
M  POLY_IGNORE 9 10 11 12 13 14 15 16 17 18 
M  POLY_UPPER 6
M  POLY_LOWER 8
M  POLY_CHG 0
M  POLY_PROPERTIES ALPHA_AA D_AA PROTEIN AROMATIC POLYMER 
M  END

$$$$



 32 32  0  0  0  0  0  0  0  0999 V2000
   -1.6999    2.8992   -3.3199 H   0  0  0  1  0  0  0  0  0  0  0  0
   -0.7781    1.0416   -3.0978 C   0  0  0  1  0  0  0  0  0  0  0  0
    0.3052    3.2447   -3.0463 N   0  0  0  1  0  0  0  0  0  0  0  0
   -0.9216    2.5021   -2.7023 C   0  0  0  1  0  0  0  0  0  0  0  0
    0.1086    0.3406   -2.6120 O   0  0  0  1  0  0  0  0  0  0  0  0
   -1.6422    0.5438   -3.9869 N   0  0  0  1  0  0  0  0  0  0  0  0
    0.8958    3.5431   -2.3234 H   0  0  0  1  0  0  0  0  0  0  0  0
    0.6394    3.5249   -4.3092 C   0  0  0  1  0  0  0  0  0  0  0  0
   -1.6299   -0.8565   -4.3830 C   0  0  0  1  0  0  0  0  0  0  0  0
    1.9293    4.3141   -4.4928 C   0  0  0  1  0  0  0  0  0  0  0  0
   -0.0387    3.1761   -5.2747 O   0  0  0  1  0  0  0  0  0  0  0  0
   -2.3073    1.1425   -4.3863 H   0  0  0  1  0  0  0  0  0  0  0  0
   -2.5552   -1.1003   -4.8618 H   0  0  0  1  0  0  0  0  0  0  0  0
   -1.5045   -1.4710   -3.5161 H   0  0  0  1  0  0  0  0  0  0  0  0
   -0.8211   -1.0277   -5.0622 H   0  0  0  1  0  0  0  0  0  0  0  0
    1.9449    5.1371   -3.8092 H   0  0  0  1  0  0  0  0  0  0  0  0
    1.9818    4.6829   -5.4959 H   0  0  0  1  0  0  0  0  0  0  0  0
    2.7673    3.6766   -4.3023 H   0  0  0  1  0  0  0  0  0  0  0  0
   -2.8245    8.8022   -0.0124 I   0  0  0  1  0  0  0  0  0  0  0  0
   -2.3645    6.8064   -0.4288 C   0  0  0  1  0  0  0  0  0  0  0  0
   -1.1127    6.3023   -0.1120 C   0  0  0  1  0  0  0  0  0  0  0  0
   -0.8072    4.9839   -0.3924 C   0  0  0  1  0  0  0  0  0  0  0  0
   -1.7547    4.1642   -0.9857 C   0  0  0  1  0  0  0  0  0  0  0  0
   -3.0029    4.6666   -1.3016 C   0  0  0  1  0  0  0  0  0  0  0  0
   -3.3091    5.9890   -1.0203 C   0  0  0  1  0  0  0  0  0  0  0  0
   -1.3707    2.7303   -1.2650 C   0  0  0  1  0  0  0  0  0  0  0  0
   -0.4033    6.9163    0.3368 H   0  0  0  1  0  0  0  0  0  0  0  0
    0.1333    4.6069   -0.1584 H   0  0  0  1  0  0  0  0  0  0  0  0
   -3.7123    4.0526   -1.7504 H   0  0  0  1  0  0  0  0  0  0  0  0
   -4.2497    6.3660   -1.2543 H   0  0  0  1  0  0  0  0  0  0  0  0
   -0.5689    2.4588   -0.6105 H   0  0  0  1  0  0  0  0  0  0  0  0
   -2.2179    2.1067   -1.0698 H   0  0  0  1  0  0  0  0  0  0  0  0
  1  4  1  0  0  0  0
  2  4  1  0  0  0  0
  2  5  2  0  0  0  0
  2  6  1  0  0  0  0
  3  4  1  0  0  0  0
  3  7  1  0  0  0  0
  3  8  1  0  0  0  0
  4 26  1  0  0  0  0
  6  9  1  0  0  0  0
  6 12  1  0  0  0  0
  8 10  1  0  0  0  0
  8 11  2  0  0  0  0
  9 13  1  0  0  0  0
  9 14  1  0  0  0  0
  9 15  1  0  0  0  0
 10 16  1  0  0  0  0
 10 17  1  0  0  0  0
 10 18  1  0  0  0  0
 19 20  1  0  0  0  0
 20 21  4  0  0  0  0
 20 25  4  0  0  0  0
 21 22  4  0  0  0  0
 21 27  1  0  0  0  0
 22 23  4  0  0  0  0
 22 28  1  0  0  0  0
 23 24  4  0  0  0  0
 23 26  1  0  0  0  0
 24 25  4  0  0  0  0
 24 29  1  0  0  0  0
 25 30  1  0  0  0  0
 26 31  1  0  0  0  0
 26 32  1  0  0  0  0
M  END
> <BCLConfClusterSize>
1

> <ConfClashScore>
0 

> <ConfOneFourInteractionScore>
-0.985807 

> <ConfScore>
0.279599 

> <ConfScorePBest>
0.00527057 

> <ConfTolerance>
0.234203 

> <RosettaParamsInstructions>
M  ROOT 3
M  POLY_N_BB 3
M  POLY_CA_BB 4
M  POLY_C_BB 2
M  POLY_O_BB 5
M  POLY_IGNORE 9 10 11 12 13 14 15 16 17 18 
M  POLY_UPPER 6
M  POLY_LOWER 8
M  POLY_CHG 0
M  POLY_PROPERTIES ALPHA_AA D_AA PROTEIN AROMATIC POLYMER 
M  END

$$$$



 32 32  0  0  0  0  0  0  0  0999 V2000
   -1.3683    0.7894   -0.4714 H   0  0  0  1  0  0  0  0  0  0  0  0
   -3.3319    1.4593   -0.1383 C   0  0  0  1  0  0  0  0  0  0  0  0
   -1.2997    2.1196    1.1041 N   0  0  0  1  0  0  0  0  0  0  0  0
   -1.8281    1.7207   -0.2142 C   0  0  0  1  0  0  0  0  0  0  0  0
   -3.8423    0.9763    0.8716 O   0  0  0  1  0  0  0  0  0  0  0  0
   -4.0609    1.8661   -1.1895 N   0  0  0  1  0  0  0  0  0  0  0  0
   -1.3263    3.0658    1.3578 H   0  0  0  1  0  0  0  0  0  0  0  0
   -0.7861    1.2356    1.9643 C   0  0  0  1  0  0  0  0  0  0  0  0
   -5.4924    1.6213   -1.2844 C   0  0  0  1  0  0  0  0  0  0  0  0
   -0.3541    1.7960    3.3054 C   0  0  0  1  0  0  0  0  0  0  0  0
   -0.6638    0.0418    1.7031 O   0  0  0  1  0  0  0  0  0  0  0  0
   -3.6137    2.3446   -1.9185 H   0  0  0  1  0  0  0  0  0  0  0  0
   -5.7495    0.7708   -0.6882 H   0  0  0  1  0  0  0  0  0  0  0  0
   -5.7551    1.4340   -2.3046 H   0  0  0  1  0  0  0  0  0  0  0  0
   -6.0249    2.4791   -0.9301 H   0  0  0  1  0  0  0  0  0  0  0  0
   -0.4306    2.8631    3.2880 H   0  0  0  1  0  0  0  0  0  0  0  0
    0.6598    1.5145    3.4994 H   0  0  0  1  0  0  0  0  0  0  0  0
   -0.9866    1.4059    4.0752 H   0  0  0  1  0  0  0  0  0  0  0  0
   -2.8298    8.8015   -0.0145 I   0  0  0  1  0  0  0  0  0  0  0  0
   -2.3639    6.8066   -0.4285 C   0  0  0  1  0  0  0  0  0  0  0  0
   -1.1110    6.3063   -0.1102 C   0  0  0  1  0  0  0  0  0  0  0  0
   -0.8016    4.9885   -0.3890 C   0  0  0  1  0  0  0  0  0  0  0  0
   -1.7462    4.1655   -0.9822 C   0  0  0  1  0  0  0  0  0  0  0  0
   -2.9956    4.6641   -1.2997 C   0  0  0  1  0  0  0  0  0  0  0  0
   -3.3057    5.9859   -1.0199 C   0  0  0  1  0  0  0  0  0  0  0  0
   -1.4108    2.7236   -1.2819 C   0  0  0  1  0  0  0  0  0  0  0  0
   -0.4036    6.9227    0.3385 H   0  0  0  1  0  0  0  0  0  0  0  0
    0.1398    4.6143   -0.1538 H   0  0  0  1  0  0  0  0  0  0  0  0
   -3.7029    4.0477   -1.7484 H   0  0  0  1  0  0  0  0  0  0  0  0
   -4.2471    6.3601   -1.2551 H   0  0  0  1  0  0  0  0  0  0  0  0
   -1.8978    2.4545   -2.1958 H   0  0  0  1  0  0  0  0  0  0  0  0
   -0.3507    2.6504   -1.4071 H   0  0  0  1  0  0  0  0  0  0  0  0
  1  4  1  0  0  0  0
  2  4  1  0  0  0  0
  2  5  2  0  0  0  0
  2  6  1  0  0  0  0
  3  4  1  0  0  0  0
  3  7  1  0  0  0  0
  3  8  1  0  0  0  0
  4 26  1  0  0  0  0
  6  9  1  0  0  0  0
  6 12  1  0  0  0  0
  8 10  1  0  0  0  0
  8 11  2  0  0  0  0
  9 13  1  0  0  0  0
  9 14  1  0  0  0  0
  9 15  1  0  0  0  0
 10 16  1  0  0  0  0
 10 17  1  0  0  0  0
 10 18  1  0  0  0  0
 19 20  1  0  0  0  0
 20 21  4  0  0  0  0
 20 25  4  0  0  0  0
 21 22  4  0  0  0  0
 21 27  1  0  0  0  0
 22 23  4  0  0  0  0
 22 28  1  0  0  0  0
 23 24  4  0  0  0  0
 23 26  1  0  0  0  0
 24 25  4  0  0  0  0
 24 29  1  0  0  0  0
 25 30  1  0  0  0  0
 26 31  1  0  0  0  0
 26 32  1  0  0  0  0
M  END
> <BCLConfClusterSize>
1

> <ConfClashScore>
0 

> <ConfOneFourInteractionScore>
-0.949142 

> <ConfScore>
0.28013 

> <ConfScorePBest>
0.00524209 

> <ConfTolerance>
0.455346 

> <RosettaParamsInstructions>
M  ROOT 3
M  POLY_N_BB 3
M  POLY_CA_BB 4
M  POLY_C_BB 2
M  POLY_O_BB 5
M  POLY_IGNORE 9 10 11 12 13 14 15 16 17 18 
M  POLY_UPPER 6
M  POLY_LOWER 8
M  POLY_CHG 0
M  POLY_PROPERTIES ALPHA_AA D_AA PROTEIN AROMATIC POLYMER 
M  END

$$$$



 32 32  0  0  0  0  0  0  0  0999 V2000
   -1.2883    1.3761   -2.8024 H   0  0  0  1  0  0  0  0  0  0  0  0
    0.2817    2.6968   -3.1322 C   0  0  0  1  0  0  0  0  0  0  0  0
   -2.1576    3.0531   -3.5900 N   0  0  0  1  0  0  0  0  0  0  0  0
   -1.1550    2.4319   -2.6908 C   0  0  0  1  0  0  0  0  0  0  0  0
    0.6757    2.3074   -4.2307 O   0  0  0  1  0  0  0  0  0  0  0  0
    1.0976    3.2813   -2.2406 N   0  0  0  1  0  0  0  0  0  0  0  0
   -3.0834    2.7331   -3.5590 H   0  0  0  1  0  0  0  0  0  0  0  0
   -1.8425    4.0337   -4.4410 C   0  0  0  1  0  0  0  0  0  0  0  0
    2.5044    3.4780   -2.5567 C   0  0  0  1  0  0  0  0  0  0  0  0
   -3.0055    4.6553   -5.1895 C   0  0  0  1  0  0  0  0  0  0  0  0
   -0.6905    4.4204   -4.6187 O   0  0  0  1  0  0  0  0  0  0  0  0
    0.7450    3.5761   -1.3751 H   0  0  0  1  0  0  0  0  0  0  0  0
    2.7153    3.0635   -3.5204 H   0  0  0  1  0  0  0  0  0  0  0  0
    3.1070    2.9903   -1.8193 H   0  0  0  1  0  0  0  0  0  0  0  0
    2.7253    4.5249   -2.5630 H   0  0  0  1  0  0  0  0  0  0  0  0
   -3.1289    5.6714   -4.8777 H   0  0  0  1  0  0  0  0  0  0  0  0
   -3.8995    4.1066   -4.9782 H   0  0  0  1  0  0  0  0  0  0  0  0
   -2.8089    4.6265   -6.2409 H   0  0  0  1  0  0  0  0  0  0  0  0
   -2.8362    8.7954    0.0062 I   0  0  0  1  0  0  0  0  0  0  0  0
   -2.3653    6.8053   -0.4251 C   0  0  0  1  0  0  0  0  0  0  0  0
   -1.1103    6.3060   -0.1131 C   0  0  0  1  0  0  0  0  0  0  0  0
   -0.7976    4.9915   -0.4034 C   0  0  0  1  0  0  0  0  0  0  0  0
   -1.7409    4.1707   -1.0018 C   0  0  0  1  0  0  0  0  0  0  0  0
   -2.9922    4.6683   -1.3131 C   0  0  0  1  0  0  0  0  0  0  0  0
   -3.3057    5.9869   -1.0218 C   0  0  0  1  0  0  0  0  0  0  0  0
   -1.4244    2.7102   -1.2211 C   0  0  0  1  0  0  0  0  0  0  0  0
   -0.4040    6.9207    0.3396 H   0  0  0  1  0  0  0  0  0  0  0  0
    0.1453    4.6181   -0.1728 H   0  0  0  1  0  0  0  0  0  0  0  0
   -3.6985    4.0536   -1.7658 H   0  0  0  1  0  0  0  0  0  0  0  0
   -4.2486    6.3603   -1.2524 H   0  0  0  1  0  0  0  0  0  0  0  0
   -0.5578    2.4495   -0.6501 H   0  0  0  1  0  0  0  0  0  0  0  0
   -2.2558    2.1188   -0.8987 H   0  0  0  1  0  0  0  0  0  0  0  0
  1  4  1  0  0  0  0
  2  4  1  0  0  0  0
  2  5  2  0  0  0  0
  2  6  1  0  0  0  0
  3  4  1  0  0  0  0
  3  7  1  0  0  0  0
  3  8  1  0  0  0  0
  4 26  1  0  0  0  0
  6  9  1  0  0  0  0
  6 12  1  0  0  0  0
  8 10  1  0  0  0  0
  8 11  2  0  0  0  0
  9 13  1  0  0  0  0
  9 14  1  0  0  0  0
  9 15  1  0  0  0  0
 10 16  1  0  0  0  0
 10 17  1  0  0  0  0
 10 18  1  0  0  0  0
 19 20  1  0  0  0  0
 20 21  4  0  0  0  0
 20 25  4  0  0  0  0
 21 22  4  0  0  0  0
 21 27  1  0  0  0  0
 22 23  4  0  0  0  0
 22 28  1  0  0  0  0
 23 24  4  0  0  0  0
 23 26  1  0  0  0  0
 24 25  4  0  0  0  0
 24 29  1  0  0  0  0
 25 30  1  0  0  0  0
 26 31  1  0  0  0  0
 26 32  1  0  0  0  0
M  END
> <BCLConfClusterSize>
1

> <ConfClashScore>
0.00296788 

> <ConfOneFourInteractionScore>
-0.908174 

> <ConfScore>
0.280273 

> <ConfScorePBest>
0.00521361 

> <ConfTolerance>
0.309551 

> <RosettaParamsInstructions>
M  ROOT 3
M  POLY_N_BB 3
M  POLY_CA_BB 4
M  POLY_C_BB 2
M  POLY_O_BB 5
M  POLY_IGNORE 9 10 11 12 13 14 15 16 17 18 
M  POLY_UPPER 6
M  POLY_LOWER 8
M  POLY_CHG 0
M  POLY_PROPERTIES ALPHA_AA D_AA PROTEIN AROMATIC POLYMER 
M  END

$$$$



 32 32  0  0  0  0  0  0  0  0999 V2000
   -0.3128    1.5171   -2.5820 H   0  0  0  1  0  0  0  0  0  0  0  0
    1.0328    2.9827   -1.9682 C   0  0  0  1  0  0  0  0  0  0  0  0
   -0.8001    3.2106   -3.6250 N   0  0  0  1  0  0  0  0  0  0  0  0
   -0.3671    2.5660   -2.3776 C   0  0  0  1  0  0  0  0  0  0  0  0
    1.3583    3.0477   -0.7857 O   0  0  0  1  0  0  0  0  0  0  0  0
    1.8736    3.2697   -2.9746 N   0  0  0  1  0  0  0  0  0  0  0  0
   -1.1405    2.6504   -4.3535 H   0  0  0  1  0  0  0  0  0  0  0  0
   -0.7454    4.5470   -3.8023 C   0  0  0  1  0  0  0  0  0  0  0  0
    3.3018    3.4555   -2.7654 C   0  0  0  1  0  0  0  0  0  0  0  0
   -1.1849    5.1055   -5.1368 C   0  0  0  1  0  0  0  0  0  0  0  0
   -0.3498    5.2913   -2.9061 O   0  0  0  1  0  0  0  0  0  0  0  0
    1.5131    3.3572   -3.8817 H   0  0  0  1  0  0  0  0  0  0  0  0
    3.4785    3.7554   -1.7536 H   0  0  0  1  0  0  0  0  0  0  0  0
    3.6639    4.2120   -3.4298 H   0  0  0  1  0  0  0  0  0  0  0  0
    3.8129    2.5356   -2.9590 H   0  0  0  1  0  0  0  0  0  0  0  0
   -0.9942    4.3860   -5.9054 H   0  0  0  1  0  0  0  0  0  0  0  0
   -0.6396    6.0023   -5.3449 H   0  0  0  1  0  0  0  0  0  0  0  0
   -2.2319    5.3235   -5.1045 H   0  0  0  1  0  0  0  0  0  0  0  0
   -2.8828    8.7926   -0.0369 I   0  0  0  1  0  0  0  0  0  0  0  0
   -2.3514    6.8085   -0.4233 C   0  0  0  1  0  0  0  0  0  0  0  0
   -1.1003    6.3019   -0.1075 C   0  0  0  1  0  0  0  0  0  0  0  0
   -0.7974    4.9832   -0.3890 C   0  0  0  1  0  0  0  0  0  0  0  0
   -1.7466    4.1656   -0.9823 C   0  0  0  1  0  0  0  0  0  0  0  0
   -2.9941    4.6705   -1.2972 C   0  0  0  1  0  0  0  0  0  0  0  0
   -3.2978    5.9932   -1.0148 C   0  0  0  1  0  0  0  0  0  0  0  0
   -1.4183    2.7226   -1.2849 C   0  0  0  1  0  0  0  0  0  0  0  0
   -0.3895    6.9143    0.3413 H   0  0  0  1  0  0  0  0  0  0  0  0
    0.1426    4.6042   -0.1557 H   0  0  0  1  0  0  0  0  0  0  0  0
   -3.7049    4.0581   -1.7460 H   0  0  0  1  0  0  0  0  0  0  0  0
   -4.2378    6.3722   -1.2481 H   0  0  0  1  0  0  0  0  0  0  0  0
   -1.0519    2.2621   -0.3913 H   0  0  0  1  0  0  0  0  0  0  0  0
   -2.3135    2.2286   -1.6002 H   0  0  0  1  0  0  0  0  0  0  0  0
  1  4  1  0  0  0  0
  2  4  1  0  0  0  0
  2  5  2  0  0  0  0
  2  6  1  0  0  0  0
  3  4  1  0  0  0  0
  3  7  1  0  0  0  0
  3  8  1  0  0  0  0
  4 26  1  0  0  0  0
  6  9  1  0  0  0  0
  6 12  1  0  0  0  0
  8 10  1  0  0  0  0
  8 11  2  0  0  0  0
  9 13  1  0  0  0  0
  9 14  1  0  0  0  0
  9 15  1  0  0  0  0
 10 16  1  0  0  0  0
 10 17  1  0  0  0  0
 10 18  1  0  0  0  0
 19 20  1  0  0  0  0
 20 21  4  0  0  0  0
 20 25  4  0  0  0  0
 21 22  4  0  0  0  0
 21 27  1  0  0  0  0
 22 23  4  0  0  0  0
 22 28  1  0  0  0  0
 23 24  4  0  0  0  0
 23 26  1  0  0  0  0
 24 25  4  0  0  0  0
 24 29  1  0  0  0  0
 25 30  1  0  0  0  0
 26 31  1  0  0  0  0
 26 32  1  0  0  0  0
M  END
> <BCLConfClusterSize>
1

> <ConfClashScore>
0 

> <ConfOneFourInteractionScore>
-0.947651 

> <ConfScore>
0.281738 

> <ConfScorePBest>
0.00518512 

> <ConfTolerance>
0.259613 

> <RosettaParamsInstructions>
M  ROOT 3
M  POLY_N_BB 3
M  POLY_CA_BB 4
M  POLY_C_BB 2
M  POLY_O_BB 5
M  POLY_IGNORE 9 10 11 12 13 14 15 16 17 18 
M  POLY_UPPER 6
M  POLY_LOWER 8
M  POLY_CHG 0
M  POLY_PROPERTIES ALPHA_AA D_AA PROTEIN AROMATIC POLYMER 
M  END

$$$$



 32 32  0  0  0  0  0  0  0  0999 V2000
   -0.5484    2.8687   -3.2233 H   0  0  0  1  0  0  0  0  0  0  0  0
   -2.6706    2.8032   -3.4222 C   0  0  0  1  0  0  0  0  0  0  0  0
   -1.1960    0.9194   -2.8986 N   0  0  0  1  0  0  0  0  0  0  0  0
   -1.3664    2.3569   -2.7609 C   0  0  0  1  0  0  0  0  0  0  0  0
   -2.7320    3.8819   -4.0063 O   0  0  0  1  0  0  0  0  0  0  0  0
   -3.7411    2.0155   -3.2540 N   0  0  0  1  0  0  0  0  0  0  0  0
   -1.2071    0.3472   -2.1030 H   0  0  0  1  0  0  0  0  0  0  0  0
   -1.0228    0.3716   -4.1194 C   0  0  0  1  0  0  0  0  0  0  0  0
   -5.1082    2.3848   -3.5894 C   0  0  0  1  0  0  0  0  0  0  0  0
   -0.6778   -1.1004   -4.1359 C   0  0  0  1  0  0  0  0  0  0  0  0
   -1.1342    1.0130   -5.1633 O   0  0  0  1  0  0  0  0  0  0  0  0
   -3.5924    1.1233   -2.8767 H   0  0  0  1  0  0  0  0  0  0  0  0
   -5.1709    2.6124   -4.6330 H   0  0  0  1  0  0  0  0  0  0  0  0
   -5.3955    3.2435   -3.0194 H   0  0  0  1  0  0  0  0  0  0  0  0
   -5.7635    1.5699   -3.3624 H   0  0  0  1  0  0  0  0  0  0  0  0
   -0.8040   -1.5078   -3.1545 H   0  0  0  1  0  0  0  0  0  0  0  0
    0.3388   -1.2247   -4.4454 H   0  0  0  1  0  0  0  0  0  0  0  0
   -1.3243   -1.6103   -4.8193 H   0  0  0  1  0  0  0  0  0  0  0  0
   -2.8298    8.8015   -0.0145 I   0  0  0  1  0  0  0  0  0  0  0  0
   -2.3639    6.8066   -0.4285 C   0  0  0  1  0  0  0  0  0  0  0  0
   -1.1110    6.3063   -0.1102 C   0  0  0  1  0  0  0  0  0  0  0  0
   -0.8016    4.9885   -0.3890 C   0  0  0  1  0  0  0  0  0  0  0  0
   -1.7462    4.1655   -0.9822 C   0  0  0  1  0  0  0  0  0  0  0  0
   -2.9956    4.6641   -1.2997 C   0  0  0  1  0  0  0  0  0  0  0  0
   -3.3057    5.9859   -1.0199 C   0  0  0  1  0  0  0  0  0  0  0  0
   -1.4108    2.7236   -1.2819 C   0  0  0  1  0  0  0  0  0  0  0  0
   -0.4036    6.9227    0.3385 H   0  0  0  1  0  0  0  0  0  0  0  0
    0.1398    4.6143   -0.1538 H   0  0  0  1  0  0  0  0  0  0  0  0
   -3.7029    4.0477   -1.7484 H   0  0  0  1  0  0  0  0  0  0  0  0
   -4.2471    6.3601   -1.2551 H   0  0  0  1  0  0  0  0  0  0  0  0
   -0.4498    2.5138   -0.8608 H   0  0  0  1  0  0  0  0  0  0  0  0
   -2.1490    2.1083   -0.8113 H   0  0  0  1  0  0  0  0  0  0  0  0
  1  4  1  0  0  0  0
  2  4  1  0  0  0  0
  2  5  2  0  0  0  0
  2  6  1  0  0  0  0
  3  4  1  0  0  0  0
  3  7  1  0  0  0  0
  3  8  1  0  0  0  0
  4 26  1  0  0  0  0
  6  9  1  0  0  0  0
  6 12  1  0  0  0  0
  8 10  1  0  0  0  0
  8 11  2  0  0  0  0
  9 13  1  0  0  0  0
  9 14  1  0  0  0  0
  9 15  1  0  0  0  0
 10 16  1  0  0  0  0
 10 17  1  0  0  0  0
 10 18  1  0  0  0  0
 19 20  1  0  0  0  0
 20 21  4  0  0  0  0
 20 25  4  0  0  0  0
 21 22  4  0  0  0  0
 21 27  1  0  0  0  0
 22 23  4  0  0  0  0
 22 28  1  0  0  0  0
 23 24  4  0  0  0  0
 23 26  1  0  0  0  0
 24 25  4  0  0  0  0
 24 29  1  0  0  0  0
 25 30  1  0  0  0  0
 26 31  1  0  0  0  0
 26 32  1  0  0  0  0
M  END
> <BCLConfClusterSize>
1

> <ConfClashScore>
0 

> <ConfOneFourInteractionScore>
-0.956443 

> <ConfScore>
0.283884 

> <ConfScorePBest>
0.00515664 

> <ConfTolerance>
0.433176 

> <RosettaParamsInstructions>
M  ROOT 3
M  POLY_N_BB 3
M  POLY_CA_BB 4
M  POLY_C_BB 2
M  POLY_O_BB 5
M  POLY_IGNORE 9 10 11 12 13 14 15 16 17 18 
M  POLY_UPPER 6
M  POLY_LOWER 8
M  POLY_CHG 0
M  POLY_PROPERTIES ALPHA_AA D_AA PROTEIN AROMATIC POLYMER 
M  END

$$$$



 32 32  0  0  0  0  0  0  0  0999 V2000
   -1.2551    2.9737   -3.3320 H   0  0  0  1  0  0  0  0  0  0  0  0
   -0.6025    1.0138   -2.8727 C   0  0  0  1  0  0  0  0  0  0  0  0
    0.6150    3.1180   -2.4541 N   0  0  0  1  0  0  0  0  0  0  0  0
   -0.7017    2.4978   -2.5496 C   0  0  0  1  0  0  0  0  0  0  0  0
    0.0652    0.2533   -2.1768 O   0  0  0  1  0  0  0  0  0  0  0  0
   -1.2856    0.6054   -3.9537 N   0  0  0  1  0  0  0  0  0  0  0  0
    0.8534    3.5468   -1.6057 H   0  0  0  1  0  0  0  0  0  0  0  0
    1.5294    3.1459   -3.4457 C   0  0  0  1  0  0  0  0  0  0  0  0
   -1.2818   -0.7805   -4.3979 C   0  0  0  1  0  0  0  0  0  0  0  0
    2.8093    3.9158   -3.2109 C   0  0  0  1  0  0  0  0  0  0  0  0
    1.3300    2.5629   -4.5106 O   0  0  0  1  0  0  0  0  0  0  0  0
   -1.8049    1.2633   -4.4615 H   0  0  0  1  0  0  0  0  0  0  0  0
   -1.0031   -1.4159   -3.5833 H   0  0  0  1  0  0  0  0  0  0  0  0
   -0.5798   -0.8968   -5.1969 H   0  0  0  1  0  0  0  0  0  0  0  0
   -2.2598   -1.0478   -4.7399 H   0  0  0  1  0  0  0  0  0  0  0  0
    2.7496    4.4311   -2.2751 H   0  0  0  1  0  0  0  0  0  0  0  0
    2.9485    4.6250   -4.0000 H   0  0  0  1  0  0  0  0  0  0  0  0
    3.6355    3.2362   -3.1916 H   0  0  0  1  0  0  0  0  0  0  0  0
   -2.8412    8.7945    0.0045 I   0  0  0  1  0  0  0  0  0  0  0  0
   -2.3646    6.8053   -0.4248 C   0  0  0  1  0  0  0  0  0  0  0  0
   -1.1086    6.3097   -0.1114 C   0  0  0  1  0  0  0  0  0  0  0  0
   -0.7922    4.9957   -0.4004 C   0  0  0  1  0  0  0  0  0  0  0  0
   -1.7328    4.1719   -0.9988 C   0  0  0  1  0  0  0  0  0  0  0  0
   -2.9852    4.6659   -1.3114 C   0  0  0  1  0  0  0  0  0  0  0  0
   -3.3024    5.9839   -1.0216 C   0  0  0  1  0  0  0  0  0  0  0  0
   -1.4628    2.7048   -1.2359 C   0  0  0  1  0  0  0  0  0  0  0  0
   -0.4043    6.9266    0.3413 H   0  0  0  1  0  0  0  0  0  0  0  0
    0.1515    4.6250   -0.1688 H   0  0  0  1  0  0  0  0  0  0  0  0
   -3.6895    4.0490   -1.7641 H   0  0  0  1  0  0  0  0  0  0  0  0
   -4.2461    6.3546   -1.2531 H   0  0  0  1  0  0  0  0  0  0  0  0
   -0.8773    2.3207   -0.4269 H   0  0  0  1  0  0  0  0  0  0  0  0
   -2.3940    2.1800   -1.2835 H   0  0  0  1  0  0  0  0  0  0  0  0
  1  4  1  0  0  0  0
  2  4  1  0  0  0  0
  2  5  2  0  0  0  0
  2  6  1  0  0  0  0
  3  4  1  0  0  0  0
  3  7  1  0  0  0  0
  3  8  1  0  0  0  0
  4 26  1  0  0  0  0
  6  9  1  0  0  0  0
  6 12  1  0  0  0  0
  8 10  1  0  0  0  0
  8 11  2  0  0  0  0
  9 13  1  0  0  0  0
  9 14  1  0  0  0  0
  9 15  1  0  0  0  0
 10 16  1  0  0  0  0
 10 17  1  0  0  0  0
 10 18  1  0  0  0  0
 19 20  1  0  0  0  0
 20 21  4  0  0  0  0
 20 25  4  0  0  0  0
 21 22  4  0  0  0  0
 21 27  1  0  0  0  0
 22 23  4  0  0  0  0
 22 28  1  0  0  0  0
 23 24  4  0  0  0  0
 23 26  1  0  0  0  0
 24 25  4  0  0  0  0
 24 29  1  0  0  0  0
 25 30  1  0  0  0  0
 26 31  1  0  0  0  0
 26 32  1  0  0  0  0
M  END
> <BCLConfClusterSize>
1

> <ConfClashScore>
0 

> <ConfOneFourInteractionScore>
-0.974251 

> <ConfScore>
0.285551 

> <ConfScorePBest>
0.00512816 

> <ConfTolerance>
0.352766 

> <RosettaParamsInstructions>
M  ROOT 3
M  POLY_N_BB 3
M  POLY_CA_BB 4
M  POLY_C_BB 2
M  POLY_O_BB 5
M  POLY_IGNORE 9 10 11 12 13 14 15 16 17 18 
M  POLY_UPPER 6
M  POLY_LOWER 8
M  POLY_CHG 0
M  POLY_PROPERTIES ALPHA_AA D_AA PROTEIN AROMATIC POLYMER 
M  END

$$$$



 32 32  0  0  0  0  0  0  0  0999 V2000
   -1.8822    2.1655    0.6757 H   0  0  0  1  0  0  0  0  0  0  0  0
   -1.4361    0.3603   -0.3074 C   0  0  0  1  0  0  0  0  0  0  0  0
   -3.5227    1.7294   -0.4887 N   0  0  0  1  0  0  0  0  0  0  0  0
   -2.0685    1.7532   -0.2940 C   0  0  0  1  0  0  0  0  0  0  0  0
   -0.2530    0.2173   -0.5748 O   0  0  0  1  0  0  0  0  0  0  0  0
   -2.2535   -0.6301    0.0758 N   0  0  0  1  0  0  0  0  0  0  0  0
   -4.0909    2.2349    0.1293 H   0  0  0  1  0  0  0  0  0  0  0  0
   -4.0989    1.0427   -1.4793 C   0  0  0  1  0  0  0  0  0  0  0  0
   -1.8483   -2.0275    0.0470 C   0  0  0  1  0  0  0  0  0  0  0  0
   -5.6126    1.1126   -1.5357 C   0  0  0  1  0  0  0  0  0  0  0  0
   -3.4589    0.3896   -2.3024 O   0  0  0  1  0  0  0  0  0  0  0  0
   -3.1555   -0.4055    0.3863 H   0  0  0  1  0  0  0  0  0  0  0  0
   -2.0488   -2.4376   -0.9208 H   0  0  0  1  0  0  0  0  0  0  0  0
   -2.3972   -2.5731    0.7859 H   0  0  0  1  0  0  0  0  0  0  0  0
   -0.8011   -2.0994    0.2546 H   0  0  0  1  0  0  0  0  0  0  0  0
   -5.9233    2.1365   -1.5306 H   0  0  0  1  0  0  0  0  0  0  0  0
   -6.0245    0.6109   -0.6851 H   0  0  0  1  0  0  0  0  0  0  0  0
   -5.9581    0.6398   -2.4312 H   0  0  0  1  0  0  0  0  0  0  0  0
   -2.8353    8.8006   -0.0169 I   0  0  0  1  0  0  0  0  0  0  0  0
   -2.3632    6.8066   -0.4282 C   0  0  0  1  0  0  0  0  0  0  0  0
   -1.1090    6.3104   -0.1083 C   0  0  0  1  0  0  0  0  0  0  0  0
   -0.7955    4.9932   -0.3854 C   0  0  0  1  0  0  0  0  0  0  0  0
   -1.7371    4.1668   -0.9784 C   0  0  0  1  0  0  0  0  0  0  0  0
   -2.9877    4.6613   -1.2976 C   0  0  0  1  0  0  0  0  0  0  0  0
   -3.3020    5.9825   -1.0196 C   0  0  0  1  0  0  0  0  0  0  0  0
   -1.4543    2.7182   -1.2996 C   0  0  0  1  0  0  0  0  0  0  0  0
   -0.4039    6.9294    0.3404 H   0  0  0  1  0  0  0  0  0  0  0  0
    0.1469    4.6221   -0.1489 H   0  0  0  1  0  0  0  0  0  0  0  0
   -3.6928    4.0423   -1.7462 H   0  0  0  1  0  0  0  0  0  0  0  0
   -4.2443    6.3536   -1.2560 H   0  0  0  1  0  0  0  0  0  0  0  0
   -1.8530    2.5000   -2.2683 H   0  0  0  1  0  0  0  0  0  0  0  0
   -0.3944    2.5720   -1.3084 H   0  0  0  1  0  0  0  0  0  0  0  0
  1  4  1  0  0  0  0
  2  4  1  0  0  0  0
  2  5  2  0  0  0  0
  2  6  1  0  0  0  0
  3  4  1  0  0  0  0
  3  7  1  0  0  0  0
  3  8  1  0  0  0  0
  4 26  1  0  0  0  0
  6  9  1  0  0  0  0
  6 12  1  0  0  0  0
  8 10  1  0  0  0  0
  8 11  2  0  0  0  0
  9 13  1  0  0  0  0
  9 14  1  0  0  0  0
  9 15  1  0  0  0  0
 10 16  1  0  0  0  0
 10 17  1  0  0  0  0
 10 18  1  0  0  0  0
 19 20  1  0  0  0  0
 20 21  4  0  0  0  0
 20 25  4  0  0  0  0
 21 22  4  0  0  0  0
 21 27  1  0  0  0  0
 22 23  4  0  0  0  0
 22 28  1  0  0  0  0
 23 24  4  0  0  0  0
 23 26  1  0  0  0  0
 24 25  4  0  0  0  0
 24 29  1  0  0  0  0
 25 30  1  0  0  0  0
 26 31  1  0  0  0  0
 26 32  1  0  0  0  0
M  END
> <BCLConfClusterSize>
1

> <ConfClashScore>
0 

> <ConfOneFourInteractionScore>
-0.953847 

> <ConfScore>
0.286414 

> <ConfScorePBest>
0.00509968 

> <ConfTolerance>
0.248263 

> <RosettaParamsInstructions>
M  ROOT 3
M  POLY_N_BB 3
M  POLY_CA_BB 4
M  POLY_C_BB 2
M  POLY_O_BB 5
M  POLY_IGNORE 9 10 11 12 13 14 15 16 17 18 
M  POLY_UPPER 6
M  POLY_LOWER 8
M  POLY_CHG 0
M  POLY_PROPERTIES ALPHA_AA D_AA PROTEIN AROMATIC POLYMER 
M  END

$$$$



 32 32  0  0  0  0  0  0  0  0999 V2000
   -1.4407    0.7658   -0.5063 H   0  0  0  1  0  0  0  0  0  0  0  0
   -3.0606    1.7846    0.3635 C   0  0  0  1  0  0  0  0  0  0  0  0
   -0.6734    2.0149    0.9375 N   0  0  0  1  0  0  0  0  0  0  0  0
   -1.6261    1.7503   -0.1303 C   0  0  0  1  0  0  0  0  0  0  0  0
   -3.5476    2.7725    0.8824 O   0  0  0  1  0  0  0  0  0  0  0  0
   -3.8240    0.6899    0.2258 N   0  0  0  1  0  0  0  0  0  0  0  0
    0.0132    2.7005    0.7996 H   0  0  0  1  0  0  0  0  0  0  0  0
   -0.7023    1.3558    2.0992 C   0  0  0  1  0  0  0  0  0  0  0  0
   -5.2342    0.7328    0.5828 C   0  0  0  1  0  0  0  0  0  0  0  0
    0.1893    1.9100    3.1933 C   0  0  0  1  0  0  0  0  0  0  0  0
   -1.4000    0.3628    2.2874 O   0  0  0  1  0  0  0  0  0  0  0  0
   -3.4312   -0.1404   -0.1159 H   0  0  0  1  0  0  0  0  0  0  0  0
   -5.3312    0.8347    1.6435 H   0  0  0  1  0  0  0  0  0  0  0  0
   -5.7096   -0.1722    0.2667 H   0  0  0  1  0  0  0  0  0  0  0  0
   -5.6987    1.5675    0.1006 H   0  0  0  1  0  0  0  0  0  0  0  0
    1.2123    1.8486    2.8858 H   0  0  0  1  0  0  0  0  0  0  0  0
    0.0513    1.3402    4.0883 H   0  0  0  1  0  0  0  0  0  0  0  0
   -0.0666    2.9325    3.3778 H   0  0  0  1  0  0  0  0  0  0  0  0
   -2.8298    8.8015   -0.0145 I   0  0  0  1  0  0  0  0  0  0  0  0
   -2.3639    6.8066   -0.4285 C   0  0  0  1  0  0  0  0  0  0  0  0
   -1.1110    6.3063   -0.1102 C   0  0  0  1  0  0  0  0  0  0  0  0
   -0.8016    4.9885   -0.3890 C   0  0  0  1  0  0  0  0  0  0  0  0
   -1.7462    4.1655   -0.9822 C   0  0  0  1  0  0  0  0  0  0  0  0
   -2.9956    4.6641   -1.2997 C   0  0  0  1  0  0  0  0  0  0  0  0
   -3.3057    5.9859   -1.0199 C   0  0  0  1  0  0  0  0  0  0  0  0
   -1.4108    2.7236   -1.2819 C   0  0  0  1  0  0  0  0  0  0  0  0
   -0.4036    6.9227    0.3385 H   0  0  0  1  0  0  0  0  0  0  0  0
    0.1398    4.6143   -0.1538 H   0  0  0  1  0  0  0  0  0  0  0  0
   -3.7029    4.0477   -1.7484 H   0  0  0  1  0  0  0  0  0  0  0  0
   -4.2471    6.3601   -1.2551 H   0  0  0  1  0  0  0  0  0  0  0  0
   -2.0216    2.4060   -2.1010 H   0  0  0  1  0  0  0  0  0  0  0  0
   -0.3802    2.6765   -1.5656 H   0  0  0  1  0  0  0  0  0  0  0  0
  1  4  1  0  0  0  0
  2  4  1  0  0  0  0
  2  5  2  0  0  0  0
  2  6  1  0  0  0  0
  3  4  1  0  0  0  0
  3  7  1  0  0  0  0
  3  8  1  0  0  0  0
  4 26  1  0  0  0  0
  6  9  1  0  0  0  0
  6 12  1  0  0  0  0
  8 10  1  0  0  0  0
  8 11  2  0  0  0  0
  9 13  1  0  0  0  0
  9 14  1  0  0  0  0
  9 15  1  0  0  0  0
 10 16  1  0  0  0  0
 10 17  1  0  0  0  0
 10 18  1  0  0  0  0
 19 20  1  0  0  0  0
 20 21  4  0  0  0  0
 20 25  4  0  0  0  0
 21 22  4  0  0  0  0
 21 27  1  0  0  0  0
 22 23  4  0  0  0  0
 22 28  1  0  0  0  0
 23 24  4  0  0  0  0
 23 26  1  0  0  0  0
 24 25  4  0  0  0  0
 24 29  1  0  0  0  0
 25 30  1  0  0  0  0
 26 31  1  0  0  0  0
 26 32  1  0  0  0  0
M  END
> <BCLConfClusterSize>
1

> <ConfClashScore>
0 

> <ConfOneFourInteractionScore>
-0.982563 

> <ConfScore>
0.286975 

> <ConfScorePBest>
0.0050712 

> <ConfTolerance>
0.400424 

> <RosettaParamsInstructions>
M  ROOT 3
M  POLY_N_BB 3
M  POLY_CA_BB 4
M  POLY_C_BB 2
M  POLY_O_BB 5
M  POLY_IGNORE 9 10 11 12 13 14 15 16 17 18 
M  POLY_UPPER 6
M  POLY_LOWER 8
M  POLY_CHG 0
M  POLY_PROPERTIES ALPHA_AA D_AA PROTEIN AROMATIC POLYMER 
M  END

$$$$



 32 32  0  0  0  0  0  0  0  0999 V2000
   -1.2208    1.3992   -2.9165 H   0  0  0  1  0  0  0  0  0  0  0  0
   -0.9253    3.2996   -3.7508 C   0  0  0  1  0  0  0  0  0  0  0  0
   -3.0788    2.2787   -3.0135 N   0  0  0  1  0  0  0  0  0  0  0  0
   -1.6345    2.3755   -2.7731 C   0  0  0  1  0  0  0  0  0  0  0  0
    0.2293    3.1179   -4.1006 O   0  0  0  1  0  0  0  0  0  0  0  0
   -1.5846    4.3477   -4.2467 N   0  0  0  1  0  0  0  0  0  0  0  0
   -3.6938    2.4275   -2.2651 H   0  0  0  1  0  0  0  0  0  0  0  0
   -3.5845    1.9948   -4.2171 C   0  0  0  1  0  0  0  0  0  0  0  0
   -1.1004    5.2057   -5.3179 C   0  0  0  1  0  0  0  0  0  0  0  0
   -5.0972    2.0191   -4.3183 C   0  0  0  1  0  0  0  0  0  0  0  0
   -2.8835    1.7285   -5.1924 O   0  0  0  1  0  0  0  0  0  0  0  0
   -2.4610    4.5557   -3.8607 H   0  0  0  1  0  0  0  0  0  0  0  0
   -1.9268    5.5369   -5.9114 H   0  0  0  1  0  0  0  0  0  0  0  0
   -0.4172    4.6576   -5.9324 H   0  0  0  1  0  0  0  0  0  0  0  0
   -0.6013    6.0536   -4.8973 H   0  0  0  1  0  0  0  0  0  0  0  0
   -5.4438    3.0289   -4.2476 H   0  0  0  1  0  0  0  0  0  0  0  0
   -5.5171    1.4415   -3.5214 H   0  0  0  1  0  0  0  0  0  0  0  0
   -5.3983    1.6038   -5.2574 H   0  0  0  1  0  0  0  0  0  0  0  0
   -2.8222    8.8158   -0.0882 I   0  0  0  1  0  0  0  0  0  0  0  0
   -2.3699    6.7993   -0.3997 C   0  0  0  1  0  0  0  0  0  0  0  0
   -1.1143    6.2995   -0.0909 C   0  0  0  1  0  0  0  0  0  0  0  0
   -0.8005    4.9868   -0.3883 C   0  0  0  1  0  0  0  0  0  0  0  0
   -1.7433    4.1683   -0.9905 C   0  0  0  1  0  0  0  0  0  0  0  0
   -2.9953    4.6664   -1.2985 C   0  0  0  1  0  0  0  0  0  0  0  0
   -3.3098    5.9831   -1.0002 C   0  0  0  1  0  0  0  0  0  0  0  0
   -1.4031    2.7319   -1.3105 C   0  0  0  1  0  0  0  0  0  0  0  0
   -0.4083    6.9125    0.3645 H   0  0  0  1  0  0  0  0  0  0  0  0
    0.1429    4.6131   -0.1602 H   0  0  0  1  0  0  0  0  0  0  0  0
   -3.7012    4.0534   -1.7540 H   0  0  0  1  0  0  0  0  0  0  0  0
   -4.2532    6.3568   -1.2282 H   0  0  0  1  0  0  0  0  0  0  0  0
   -0.3717    2.5664   -1.0787 H   0  0  0  1  0  0  0  0  0  0  0  0
   -2.0122    2.0945   -0.7042 H   0  0  0  1  0  0  0  0  0  0  0  0
  1  4  1  0  0  0  0
  2  4  1  0  0  0  0
  2  5  2  0  0  0  0
  2  6  1  0  0  0  0
  3  4  1  0  0  0  0
  3  7  1  0  0  0  0
  3  8  1  0  0  0  0
  4 26  1  0  0  0  0
  6  9  1  0  0  0  0
  6 12  1  0  0  0  0
  8 10  1  0  0  0  0
  8 11  2  0  0  0  0
  9 13  1  0  0  0  0
  9 14  1  0  0  0  0
  9 15  1  0  0  0  0
 10 16  1  0  0  0  0
 10 17  1  0  0  0  0
 10 18  1  0  0  0  0
 19 20  1  0  0  0  0
 20 21  4  0  0  0  0
 20 25  4  0  0  0  0
 21 22  4  0  0  0  0
 21 27  1  0  0  0  0
 22 23  4  0  0  0  0
 22 28  1  0  0  0  0
 23 24  4  0  0  0  0
 23 26  1  0  0  0  0
 24 25  4  0  0  0  0
 24 29  1  0  0  0  0
 25 30  1  0  0  0  0
 26 31  1  0  0  0  0
 26 32  1  0  0  0  0
M  END
> <BCLConfClusterSize>
1

> <ConfClashScore>
0 

> <ConfOneFourInteractionScore>
-0.957074 

> <ConfScore>
0.290269 

> <ConfScorePBest>
0.00504272 

> <ConfTolerance>
0.254152 

> <RosettaParamsInstructions>
M  ROOT 3
M  POLY_N_BB 3
M  POLY_CA_BB 4
M  POLY_C_BB 2
M  POLY_O_BB 5
M  POLY_IGNORE 9 10 11 12 13 14 15 16 17 18 
M  POLY_UPPER 6
M  POLY_LOWER 8
M  POLY_CHG 0
M  POLY_PROPERTIES ALPHA_AA D_AA PROTEIN AROMATIC POLYMER 
M  END

$$$$



 32 32  0  0  0  0  0  0  0  0999 V2000
   -0.0205    1.5622   -2.3694 H   0  0  0  1  0  0  0  0  0  0  0  0
    1.0156    3.2670   -1.8201 C   0  0  0  1  0  0  0  0  0  0  0  0
   -0.6148    3.0862   -3.6064 N   0  0  0  1  0  0  0  0  0  0  0  0
   -0.2391    2.6059   -2.2814 C   0  0  0  1  0  0  0  0  0  0  0  0
    1.4683    2.9383   -0.7429 O   0  0  0  1  0  0  0  0  0  0  0  0
    1.5637    4.1669   -2.5998 N   0  0  0  1  0  0  0  0  0  0  0  0
   -1.3288    3.7531   -3.6829 H   0  0  0  1  0  0  0  0  0  0  0  0
   -0.0194    2.6485   -4.7195 C   0  0  0  1  0  0  0  0  0  0  0  0
    2.7421    4.9239   -2.2046 C   0  0  0  1  0  0  0  0  0  0  0  0
   -0.6532    3.0920   -6.0236 C   0  0  0  1  0  0  0  0  0  0  0  0
    0.9781    1.9321   -4.7069 O   0  0  0  1  0  0  0  0  0  0  0  0
    1.1661    4.3358   -3.4795 H   0  0  0  1  0  0  0  0  0  0  0  0
    2.7680    5.8498   -2.7402 H   0  0  0  1  0  0  0  0  0  0  0  0
    3.6215    4.3574   -2.4294 H   0  0  0  1  0  0  0  0  0  0  0  0
    2.7032    5.1211   -1.1537 H   0  0  0  1  0  0  0  0  0  0  0  0
   -1.3880    2.3753   -6.3256 H   0  0  0  1  0  0  0  0  0  0  0  0
    0.1012    3.1687   -6.7786 H   0  0  0  1  0  0  0  0  0  0  0  0
   -1.1200    4.0451   -5.8870 H   0  0  0  1  0  0  0  0  0  0  0  0
   -2.7748    8.8084    0.0079 I   0  0  0  1  0  0  0  0  0  0  0  0
   -2.3762    6.8048   -0.4336 C   0  0  0  1  0  0  0  0  0  0  0  0
   -1.1227    6.3066   -0.1144 C   0  0  0  1  0  0  0  0  0  0  0  0
   -0.8112    4.9891   -0.3924 C   0  0  0  1  0  0  0  0  0  0  0  0
   -1.7543    4.1643   -0.9855 C   0  0  0  1  0  0  0  0  0  0  0  0
   -3.0043    4.6609   -1.3038 C   0  0  0  1  0  0  0  0  0  0  0  0
   -3.3165    5.9824   -1.0250 C   0  0  0  1  0  0  0  0  0  0  0  0
   -1.3638    2.7317   -1.2620 C   0  0  0  1  0  0  0  0  0  0  0  0
   -0.4164    6.9243    0.3342 H   0  0  0  1  0  0  0  0  0  0  0  0
    0.1307    4.6164   -0.1566 H   0  0  0  1  0  0  0  0  0  0  0  0
   -3.7105    4.0432   -1.7525 H   0  0  0  1  0  0  0  0  0  0  0  0
   -4.2584    6.3550   -1.2608 H   0  0  0  1  0  0  0  0  0  0  0  0
   -1.0440    2.2828   -0.3449 H   0  0  0  1  0  0  0  0  0  0  0  0
   -2.2210    2.2109   -1.6347 H   0  0  0  1  0  0  0  0  0  0  0  0
  1  4  1  0  0  0  0
  2  4  1  0  0  0  0
  2  5  2  0  0  0  0
  2  6  1  0  0  0  0
  3  4  1  0  0  0  0
  3  7  1  0  0  0  0
  3  8  1  0  0  0  0
  4 26  1  0  0  0  0
  6  9  1  0  0  0  0
  6 12  1  0  0  0  0
  8 10  1  0  0  0  0
  8 11  2  0  0  0  0
  9 13  1  0  0  0  0
  9 14  1  0  0  0  0
  9 15  1  0  0  0  0
 10 16  1  0  0  0  0
 10 17  1  0  0  0  0
 10 18  1  0  0  0  0
 19 20  1  0  0  0  0
 20 21  4  0  0  0  0
 20 25  4  0  0  0  0
 21 22  4  0  0  0  0
 21 27  1  0  0  0  0
 22 23  4  0  0  0  0
 22 28  1  0  0  0  0
 23 24  4  0  0  0  0
 23 26  1  0  0  0  0
 24 25  4  0  0  0  0
 24 29  1  0  0  0  0
 25 30  1  0  0  0  0
 26 31  1  0  0  0  0
 26 32  1  0  0  0  0
M  END
> <BCLConfClusterSize>
1

> <ConfClashScore>
0 

> <ConfOneFourInteractionScore>
-0.938406 

> <ConfScore>
0.291399 

> <ConfScorePBest>
0.00501424 

> <ConfTolerance>
0.315672 

> <RosettaParamsInstructions>
M  ROOT 3
M  POLY_N_BB 3
M  POLY_CA_BB 4
M  POLY_C_BB 2
M  POLY_O_BB 5
M  POLY_IGNORE 9 10 11 12 13 14 15 16 17 18 
M  POLY_UPPER 6
M  POLY_LOWER 8
M  POLY_CHG 0
M  POLY_PROPERTIES ALPHA_AA D_AA PROTEIN AROMATIC POLYMER 
M  END

$$$$



 32 32  0  0  0  0  0  0  0  0999 V2000
   -0.9083    2.1721    0.6812 H   0  0  0  1  0  0  0  0  0  0  0  0
   -1.1384    0.3641   -0.3467 C   0  0  0  1  0  0  0  0  0  0  0  0
   -2.9311    1.8726    0.4090 N   0  0  0  1  0  0  0  0  0  0  0  0
   -1.5462    1.8025   -0.0943 C   0  0  0  1  0  0  0  0  0  0  0  0
   -1.7524   -0.3380   -1.1458 O   0  0  0  1  0  0  0  0  0  0  0  0
   -0.0297   -0.0587    0.2789 N   0  0  0  1  0  0  0  0  0  0  0  0
   -3.6686    1.8888   -0.2362 H   0  0  0  1  0  0  0  0  0  0  0  0
   -3.2162    1.9150    1.7194 C   0  0  0  1  0  0  0  0  0  0  0  0
    0.5278   -1.3852    0.0614 C   0  0  0  1  0  0  0  0  0  0  0  0
   -4.6882    2.0108    2.0706 C   0  0  0  1  0  0  0  0  0  0  0  0
   -2.3527    1.8795    2.5938 O   0  0  0  1  0  0  0  0  0  0  0  0
    0.4206    0.5469    0.9042 H   0  0  0  1  0  0  0  0  0  0  0  0
   -0.1799   -1.9876   -0.4688 H   0  0  0  1  0  0  0  0  0  0  0  0
    0.7460   -1.8393    1.0053 H   0  0  0  1  0  0  0  0  0  0  0  0
    1.4274   -1.3041   -0.5124 H   0  0  0  1  0  0  0  0  0  0  0  0
   -5.2126    2.5051    1.2797 H   0  0  0  1  0  0  0  0  0  0  0  0
   -4.8028    2.5679    2.9769 H   0  0  0  1  0  0  0  0  0  0  0  0
   -5.0878    1.0271    2.2030 H   0  0  0  1  0  0  0  0  0  0  0  0
   -2.8169    8.8166   -0.0860 I   0  0  0  1  0  0  0  0  0  0  0  0
   -2.3705    6.7991   -0.4000 C   0  0  0  1  0  0  0  0  0  0  0  0
   -1.1161    6.2956   -0.0928 C   0  0  0  1  0  0  0  0  0  0  0  0
   -0.8062    4.9823   -0.3917 C   0  0  0  1  0  0  0  0  0  0  0  0
   -1.7518    4.1670   -0.9940 C   0  0  0  1  0  0  0  0  0  0  0  0
   -3.0026    4.6689   -1.3005 C   0  0  0  1  0  0  0  0  0  0  0  0
   -3.3132    5.9861   -1.0005 C   0  0  0  1  0  0  0  0  0  0  0  0
   -1.3629    2.7386   -1.2936 C   0  0  0  1  0  0  0  0  0  0  0  0
   -0.4080    6.9061    0.3628 H   0  0  0  1  0  0  0  0  0  0  0  0
    0.1363    4.6057   -0.1648 H   0  0  0  1  0  0  0  0  0  0  0  0
   -3.7106    4.0583   -1.7560 H   0  0  0  1  0  0  0  0  0  0  0  0
   -4.2557    6.3627   -1.2274 H   0  0  0  1  0  0  0  0  0  0  0  0
   -1.9698    2.3823   -2.0996 H   0  0  0  1  0  0  0  0  0  0  0  0
   -0.3338    2.7199   -1.5860 H   0  0  0  1  0  0  0  0  0  0  0  0
  1  4  1  0  0  0  0
  2  4  1  0  0  0  0
  2  5  2  0  0  0  0
  2  6  1  0  0  0  0
  3  4  1  0  0  0  0
  3  7  1  0  0  0  0
  3  8  1  0  0  0  0
  4 26  1  0  0  0  0
  6  9  1  0  0  0  0
  6 12  1  0  0  0  0
  8 10  1  0  0  0  0
  8 11  2  0  0  0  0
  9 13  1  0  0  0  0
  9 14  1  0  0  0  0
  9 15  1  0  0  0  0
 10 16  1  0  0  0  0
 10 17  1  0  0  0  0
 10 18  1  0  0  0  0
 19 20  1  0  0  0  0
 20 21  4  0  0  0  0
 20 25  4  0  0  0  0
 21 22  4  0  0  0  0
 21 27  1  0  0  0  0
 22 23  4  0  0  0  0
 22 28  1  0  0  0  0
 23 24  4  0  0  0  0
 23 26  1  0  0  0  0
 24 25  4  0  0  0  0
 24 29  1  0  0  0  0
 25 30  1  0  0  0  0
 26 31  1  0  0  0  0
 26 32  1  0  0  0  0
M  END
> <BCLConfClusterSize>
1

> <ConfClashScore>
0 

> <ConfOneFourInteractionScore>
-0.985807 

> <ConfScore>
0.294908 

> <ConfScorePBest>
0.00498576 

> <ConfTolerance>
0.407254 

> <RosettaParamsInstructions>
M  ROOT 3
M  POLY_N_BB 3
M  POLY_CA_BB 4
M  POLY_C_BB 2
M  POLY_O_BB 5
M  POLY_IGNORE 9 10 11 12 13 14 15 16 17 18 
M  POLY_UPPER 6
M  POLY_LOWER 8
M  POLY_CHG 0
M  POLY_PROPERTIES ALPHA_AA D_AA PROTEIN AROMATIC POLYMER 
M  END

$$$$



 32 32  0  0  0  0  0  0  0  0999 V2000
   -2.8275    2.0830    0.1255 H   0  0  0  1  0  0  0  0  0  0  0  0
   -0.9849    2.0684    1.1166 C   0  0  0  1  0  0  0  0  0  0  0  0
   -1.8133    0.3987   -0.4770 N   0  0  0  1  0  0  0  0  0  0  0  0
   -1.8204    1.8221   -0.1246 C   0  0  0  1  0  0  0  0  0  0  0  0
   -0.2485    3.0499    1.2061 O   0  0  0  1  0  0  0  0  0  0  0  0
   -1.1057    1.1543    2.0913 N   0  0  0  1  0  0  0  0  0  0  0  0
   -2.6473   -0.0445   -0.7384 H   0  0  0  1  0  0  0  0  0  0  0  0
   -0.6721   -0.2952   -0.4424 C   0  0  0  1  0  0  0  0  0  0  0  0
   -0.3132    1.1280    3.3117 C   0  0  0  1  0  0  0  0  0  0  0  0
   -0.7342   -1.7520   -0.9187 C   0  0  0  1  0  0  0  0  0  0  0  0
    0.4086    0.2009   -0.1269 O   0  0  0  1  0  0  0  0  0  0  0  0
   -1.7782    0.4515    1.9726 H   0  0  0  1  0  0  0  0  0  0  0  0
    0.7076    1.3492    3.0795 H   0  0  0  1  0  0  0  0  0  0  0  0
   -0.3753    0.1567    3.7561 H   0  0  0  1  0  0  0  0  0  0  0  0
   -0.6893    1.8589    3.9967 H   0  0  0  1  0  0  0  0  0  0  0  0
   -1.3975   -2.3061   -0.2878 H   0  0  0  1  0  0  0  0  0  0  0  0
    0.2438   -2.1837   -0.8741 H   0  0  0  1  0  0  0  0  0  0  0  0
   -1.0924   -1.7825   -1.9265 H   0  0  0  1  0  0  0  0  0  0  0  0
   -2.8298    8.8015   -0.0145 I   0  0  0  1  0  0  0  0  0  0  0  0
   -2.3639    6.8066   -0.4285 C   0  0  0  1  0  0  0  0  0  0  0  0
   -1.1110    6.3063   -0.1102 C   0  0  0  1  0  0  0  0  0  0  0  0
   -0.8016    4.9885   -0.3890 C   0  0  0  1  0  0  0  0  0  0  0  0
   -1.7462    4.1655   -0.9822 C   0  0  0  1  0  0  0  0  0  0  0  0
   -2.9956    4.6641   -1.2997 C   0  0  0  1  0  0  0  0  0  0  0  0
   -3.3057    5.9859   -1.0199 C   0  0  0  1  0  0  0  0  0  0  0  0
   -1.4108    2.7236   -1.2819 C   0  0  0  1  0  0  0  0  0  0  0  0
   -0.4036    6.9227    0.3385 H   0  0  0  1  0  0  0  0  0  0  0  0
    0.1398    4.6143   -0.1538 H   0  0  0  1  0  0  0  0  0  0  0  0
   -3.7029    4.0477   -1.7484 H   0  0  0  1  0  0  0  0  0  0  0  0
   -4.2471    6.3601   -1.2551 H   0  0  0  1  0  0  0  0  0  0  0  0
   -1.9316    2.4186   -2.1654 H   0  0  0  1  0  0  0  0  0  0  0  0
   -0.3564    2.6342   -1.4400 H   0  0  0  1  0  0  0  0  0  0  0  0
  1  4  1  0  0  0  0
  2  4  1  0  0  0  0
  2  5  2  0  0  0  0
  2  6  1  0  0  0  0
  3  4  1  0  0  0  0
  3  7  1  0  0  0  0
  3  8  1  0  0  0  0
  4 26  1  0  0  0  0
  6  9  1  0  0  0  0
  6 12  1  0  0  0  0
  8 10  1  0  0  0  0
  8 11  2  0  0  0  0
  9 13  1  0  0  0  0
  9 14  1  0  0  0  0
  9 15  1  0  0  0  0
 10 16  1  0  0  0  0
 10 17  1  0  0  0  0
 10 18  1  0  0  0  0
 19 20  1  0  0  0  0
 20 21  4  0  0  0  0
 20 25  4  0  0  0  0
 21 22  4  0  0  0  0
 21 27  1  0  0  0  0
 22 23  4  0  0  0  0
 22 28  1  0  0  0  0
 23 24  4  0  0  0  0
 23 26  1  0  0  0  0
 24 25  4  0  0  0  0
 24 29  1  0  0  0  0
 25 30  1  0  0  0  0
 26 31  1  0  0  0  0
 26 32  1  0  0  0  0
M  END
> <BCLConfClusterSize>
1

> <ConfClashScore>
0 

> <ConfOneFourInteractionScore>
-0.957364 

> <ConfScore>
0.296197 

> <ConfScorePBest>
0.00495728 

> <ConfTolerance>
0.240279 

> <RosettaParamsInstructions>
M  ROOT 3
M  POLY_N_BB 3
M  POLY_CA_BB 4
M  POLY_C_BB 2
M  POLY_O_BB 5
M  POLY_IGNORE 9 10 11 12 13 14 15 16 17 18 
M  POLY_UPPER 6
M  POLY_LOWER 8
M  POLY_CHG 0
M  POLY_PROPERTIES ALPHA_AA D_AA PROTEIN AROMATIC POLYMER 
M  END

$$$$



 32 32  0  0  0  0  0  0  0  0999 V2000
   -2.5925    1.9369    0.2579 H   0  0  0  1  0  0  0  0  0  0  0  0
   -0.7097    2.1583    1.1198 C   0  0  0  1  0  0  0  0  0  0  0  0
   -1.4538    0.3903   -0.4537 N   0  0  0  1  0  0  0  0  0  0  0  0
   -1.5824    1.8024   -0.0686 C   0  0  0  1  0  0  0  0  0  0  0  0
   -0.8773    3.2118    1.7328 O   0  0  0  1  0  0  0  0  0  0  0  0
    0.2535    1.2863    1.4832 N   0  0  0  1  0  0  0  0  0  0  0  0
   -1.0812    0.1373   -1.3241 H   0  0  0  1  0  0  0  0  0  0  0  0
   -1.8624   -0.5458    0.4228 C   0  0  0  1  0  0  0  0  0  0  0  0
    1.0866    1.5601    2.6431 C   0  0  0  1  0  0  0  0  0  0  0  0
   -1.7676   -1.9956   -0.0423 C   0  0  0  1  0  0  0  0  0  0  0  0
   -2.2172   -0.2681    1.5673 O   0  0  0  1  0  0  0  0  0  0  0  0
    0.3920    0.4665    0.9643 H   0  0  0  1  0  0  0  0  0  0  0  0
    0.5309    1.3640    3.5363 H   0  0  0  1  0  0  0  0  0  0  0  0
    1.3896    2.5863    2.6300 H   0  0  0  1  0  0  0  0  0  0  0  0
    1.9522    0.9317    2.6166 H   0  0  0  1  0  0  0  0  0  0  0  0
   -2.6569   -2.2584   -0.5759 H   0  0  0  1  0  0  0  0  0  0  0  0
   -1.6596   -2.6362    0.8079 H   0  0  0  1  0  0  0  0  0  0  0  0
   -0.9196   -2.1090   -0.6849 H   0  0  0  1  0  0  0  0  0  0  0  0
   -2.8298    8.8015   -0.0145 I   0  0  0  1  0  0  0  0  0  0  0  0
   -2.3639    6.8066   -0.4285 C   0  0  0  1  0  0  0  0  0  0  0  0
   -1.1110    6.3063   -0.1102 C   0  0  0  1  0  0  0  0  0  0  0  0
   -0.8016    4.9885   -0.3890 C   0  0  0  1  0  0  0  0  0  0  0  0
   -1.7462    4.1655   -0.9822 C   0  0  0  1  0  0  0  0  0  0  0  0
   -2.9956    4.6641   -1.2997 C   0  0  0  1  0  0  0  0  0  0  0  0
   -3.3057    5.9859   -1.0199 C   0  0  0  1  0  0  0  0  0  0  0  0
   -1.4108    2.7236   -1.2819 C   0  0  0  1  0  0  0  0  0  0  0  0
   -0.4036    6.9227    0.3385 H   0  0  0  1  0  0  0  0  0  0  0  0
    0.1398    4.6143   -0.1538 H   0  0  0  1  0  0  0  0  0  0  0  0
   -3.7029    4.0477   -1.7484 H   0  0  0  1  0  0  0  0  0  0  0  0
   -4.2471    6.3601   -1.2551 H   0  0  0  1  0  0  0  0  0  0  0  0
   -2.0546    2.3797   -2.0643 H   0  0  0  1  0  0  0  0  0  0  0  0
   -0.3931    2.6713   -1.6079 H   0  0  0  1  0  0  0  0  0  0  0  0
  1  4  1  0  0  0  0
  2  4  1  0  0  0  0
  2  5  2  0  0  0  0
  2  6  1  0  0  0  0
  3  4  1  0  0  0  0
  3  7  1  0  0  0  0
  3  8  1  0  0  0  0
  4 26  1  0  0  0  0
  6  9  1  0  0  0  0
  6 12  1  0  0  0  0
  8 10  1  0  0  0  0
  8 11  2  0  0  0  0
  9 13  1  0  0  0  0
  9 14  1  0  0  0  0
  9 15  1  0  0  0  0
 10 16  1  0  0  0  0
 10 17  1  0  0  0  0
 10 18  1  0  0  0  0
 19 20  1  0  0  0  0
 20 21  4  0  0  0  0
 20 25  4  0  0  0  0
 21 22  4  0  0  0  0
 21 27  1  0  0  0  0
 22 23  4  0  0  0  0
 22 28  1  0  0  0  0
 23 24  4  0  0  0  0
 23 26  1  0  0  0  0
 24 25  4  0  0  0  0
 24 29  1  0  0  0  0
 25 30  1  0  0  0  0
 26 31  1  0  0  0  0
 26 32  1  0  0  0  0
M  END
> <BCLConfClusterSize>
1

> <ConfClashScore>
0 

> <ConfOneFourInteractionScore>
-0.960318 

> <ConfScore>
0.296734 

> <ConfScorePBest>
0.0049288 

> <ConfTolerance>
0.264321 

> <RosettaParamsInstructions>
M  ROOT 3
M  POLY_N_BB 3
M  POLY_CA_BB 4
M  POLY_C_BB 2
M  POLY_O_BB 5
M  POLY_IGNORE 9 10 11 12 13 14 15 16 17 18 
M  POLY_UPPER 6
M  POLY_LOWER 8
M  POLY_CHG 0
M  POLY_PROPERTIES ALPHA_AA D_AA PROTEIN AROMATIC POLYMER 
M  END

$$$$



 32 32  0  0  0  0  0  0  0  0999 V2000
   -1.6939    2.7351   -3.3512 H   0  0  0  1  0  0  0  0  0  0  0  0
   -0.6629    0.9763   -2.9159 C   0  0  0  1  0  0  0  0  0  0  0  0
    0.2493    3.2757   -3.0208 N   0  0  0  1  0  0  0  0  0  0  0  0
   -0.9032    2.4516   -2.6885 C   0  0  0  1  0  0  0  0  0  0  0  0
   -1.0320    0.1356   -2.0970 O   0  0  0  1  0  0  0  0  0  0  0  0
   -0.0304    0.6582   -4.0533 N   0  0  0  1  0  0  0  0  0  0  0  0
    0.2059    3.8527   -3.8118 H   0  0  0  1  0  0  0  0  0  0  0  0
    1.3646    3.2731   -2.2851 C   0  0  0  1  0  0  0  0  0  0  0  0
    0.2165   -0.7212   -4.4459 C   0  0  0  1  0  0  0  0  0  0  0  0
    2.3816    4.3446   -2.6268 C   0  0  0  1  0  0  0  0  0  0  0  0
    1.5704    2.4626   -1.3856 O   0  0  0  1  0  0  0  0  0  0  0  0
    0.2768    1.3795   -4.6413 H   0  0  0  1  0  0  0  0  0  0  0  0
    0.4597   -1.3010   -3.5800 H   0  0  0  1  0  0  0  0  0  0  0  0
    1.0322   -0.7544   -5.1376 H   0  0  0  1  0  0  0  0  0  0  0  0
   -0.6608   -1.1225   -4.9086 H   0  0  0  1  0  0  0  0  0  0  0  0
    1.9184    5.3075   -2.5709 H   0  0  0  1  0  0  0  0  0  0  0  0
    2.7499    4.1832   -3.6183 H   0  0  0  1  0  0  0  0  0  0  0  0
    3.1942    4.2992   -1.9321 H   0  0  0  1  0  0  0  0  0  0  0  0
   -2.8298    8.8015   -0.0145 I   0  0  0  1  0  0  0  0  0  0  0  0
   -2.3639    6.8066   -0.4285 C   0  0  0  1  0  0  0  0  0  0  0  0
   -1.1110    6.3063   -0.1102 C   0  0  0  1  0  0  0  0  0  0  0  0
   -0.8016    4.9885   -0.3890 C   0  0  0  1  0  0  0  0  0  0  0  0
   -1.7462    4.1655   -0.9822 C   0  0  0  1  0  0  0  0  0  0  0  0
   -2.9956    4.6641   -1.2997 C   0  0  0  1  0  0  0  0  0  0  0  0
   -3.3057    5.9859   -1.0199 C   0  0  0  1  0  0  0  0  0  0  0  0
   -1.4108    2.7236   -1.2819 C   0  0  0  1  0  0  0  0  0  0  0  0
   -0.4036    6.9227    0.3385 H   0  0  0  1  0  0  0  0  0  0  0  0
    0.1398    4.6143   -0.1538 H   0  0  0  1  0  0  0  0  0  0  0  0
   -3.7029    4.0477   -1.7484 H   0  0  0  1  0  0  0  0  0  0  0  0
   -4.2471    6.3601   -1.2551 H   0  0  0  1  0  0  0  0  0  0  0  0
   -0.6554    2.4101   -0.5920 H   0  0  0  1  0  0  0  0  0  0  0  0
   -2.2956    2.1409   -1.1319 H   0  0  0  1  0  0  0  0  0  0  0  0
  1  4  1  0  0  0  0
  2  4  1  0  0  0  0
  2  5  2  0  0  0  0
  2  6  1  0  0  0  0
  3  4  1  0  0  0  0
  3  7  1  0  0  0  0
  3  8  1  0  0  0  0
  4 26  1  0  0  0  0
  6  9  1  0  0  0  0
  6 12  1  0  0  0  0
  8 10  1  0  0  0  0
  8 11  2  0  0  0  0
  9 13  1  0  0  0  0
  9 14  1  0  0  0  0
  9 15  1  0  0  0  0
 10 16  1  0  0  0  0
 10 17  1  0  0  0  0
 10 18  1  0  0  0  0
 19 20  1  0  0  0  0
 20 21  4  0  0  0  0
 20 25  4  0  0  0  0
 21 22  4  0  0  0  0
 21 27  1  0  0  0  0
 22 23  4  0  0  0  0
 22 28  1  0  0  0  0
 23 24  4  0  0  0  0
 23 26  1  0  0  0  0
 24 25  4  0  0  0  0
 24 29  1  0  0  0  0
 25 30  1  0  0  0  0
 26 31  1  0  0  0  0
 26 32  1  0  0  0  0
M  END
> <BCLConfClusterSize>
1

> <ConfClashScore>
0 

> <ConfOneFourInteractionScore>
-0.976146 

> <ConfScore>
0.300915 

> <ConfScorePBest>
0.00490032 

> <ConfTolerance>
0.229452 

> <RosettaParamsInstructions>
M  ROOT 3
M  POLY_N_BB 3
M  POLY_CA_BB 4
M  POLY_C_BB 2
M  POLY_O_BB 5
M  POLY_IGNORE 9 10 11 12 13 14 15 16 17 18 
M  POLY_UPPER 6
M  POLY_LOWER 8
M  POLY_CHG 0
M  POLY_PROPERTIES ALPHA_AA D_AA PROTEIN AROMATIC POLYMER 
M  END

$$$$



 32 32  0  0  0  0  0  0  0  0999 V2000
   -1.9162    0.7386   -0.9565 H   0  0  0  1  0  0  0  0  0  0  0  0
   -3.4097    1.8966   -0.0462 C   0  0  0  1  0  0  0  0  0  0  0  0
   -1.1387    1.4815    0.7970 N   0  0  0  1  0  0  0  0  0  0  0  0
   -1.9505    1.6586   -0.4114 C   0  0  0  1  0  0  0  0  0  0  0  0
   -4.2889    1.8511   -0.9026 O   0  0  0  1  0  0  0  0  0  0  0  0
   -3.7034    2.1556    1.2312 N   0  0  0  1  0  0  0  0  0  0  0  0
   -0.3687    2.0706    0.9400 H   0  0  0  1  0  0  0  0  0  0  0  0
   -1.4148    0.5372    1.7174 C   0  0  0  1  0  0  0  0  0  0  0  0
   -5.0658    2.3972    1.6821 C   0  0  0  1  0  0  0  0  0  0  0  0
   -0.4615    0.5432    2.9056 C   0  0  0  1  0  0  0  0  0  0  0  0
   -2.3403   -0.2690    1.6375 O   0  0  0  1  0  0  0  0  0  0  0  0
   -2.9760    2.1839    1.8873 H   0  0  0  1  0  0  0  0  0  0  0  0
   -5.6354    2.8258    0.8842 H   0  0  0  1  0  0  0  0  0  0  0  0
   -5.0520    3.0718    2.5126 H   0  0  0  1  0  0  0  0  0  0  0  0
   -5.5117    1.4717    1.9812 H   0  0  0  1  0  0  0  0  0  0  0  0
    0.5208    0.8076    2.5741 H   0  0  0  1  0  0  0  0  0  0  0  0
   -0.4381   -0.4305    3.3487 H   0  0  0  1  0  0  0  0  0  0  0  0
   -0.7978    1.2567    3.6287 H   0  0  0  1  0  0  0  0  0  0  0  0
   -2.8761    8.7981   -0.0577 I   0  0  0  1  0  0  0  0  0  0  0  0
   -2.3499    6.8094   -0.4267 C   0  0  0  1  0  0  0  0  0  0  0  0
   -1.1009    6.3017   -0.1048 C   0  0  0  1  0  0  0  0  0  0  0  0
   -0.8014    4.9797   -0.3748 C   0  0  0  1  0  0  0  0  0  0  0  0
   -1.7522    4.1601   -0.9628 C   0  0  0  1  0  0  0  0  0  0  0  0
   -2.9976    4.6660   -1.2839 C   0  0  0  1  0  0  0  0  0  0  0  0
   -3.2978    5.9920   -1.0130 C   0  0  0  1  0  0  0  0  0  0  0  0
   -1.4047    2.7405   -1.3444 C   0  0  0  1  0  0  0  0  0  0  0  0
   -0.3890    6.9156    0.3401 H   0  0  0  1  0  0  0  0  0  0  0  0
    0.1371    4.6000   -0.1369 H   0  0  0  1  0  0  0  0  0  0  0  0
   -3.7095    4.0521   -1.7288 H   0  0  0  1  0  0  0  0  0  0  0  0
   -4.2363    6.3717   -1.2509 H   0  0  0  1  0  0  0  0  0  0  0  0
   -1.7931    2.5578   -2.3245 H   0  0  0  1  0  0  0  0  0  0  0  0
   -0.3383    2.6548   -1.3611 H   0  0  0  1  0  0  0  0  0  0  0  0
  1  4  1  0  0  0  0
  2  4  1  0  0  0  0
  2  5  2  0  0  0  0
  2  6  1  0  0  0  0
  3  4  1  0  0  0  0
  3  7  1  0  0  0  0
  3  8  1  0  0  0  0
  4 26  1  0  0  0  0
  6  9  1  0  0  0  0
  6 12  1  0  0  0  0
  8 10  1  0  0  0  0
  8 11  2  0  0  0  0
  9 13  1  0  0  0  0
  9 14  1  0  0  0  0
  9 15  1  0  0  0  0
 10 16  1  0  0  0  0
 10 17  1  0  0  0  0
 10 18  1  0  0  0  0
 19 20  1  0  0  0  0
 20 21  4  0  0  0  0
 20 25  4  0  0  0  0
 21 22  4  0  0  0  0
 21 27  1  0  0  0  0
 22 23  4  0  0  0  0
 22 28  1  0  0  0  0
 23 24  4  0  0  0  0
 23 26  1  0  0  0  0
 24 25  4  0  0  0  0
 24 29  1  0  0  0  0
 25 30  1  0  0  0  0
 26 31  1  0  0  0  0
 26 32  1  0  0  0  0
M  END
> <BCLConfClusterSize>
1

> <ConfClashScore>
0 

> <ConfOneFourInteractionScore>
-0.957074 

> <ConfScore>
0.30366 

> <ConfScorePBest>
0.00487184 

> <ConfTolerance>
0.421038 

> <RosettaParamsInstructions>
M  ROOT 3
M  POLY_N_BB 3
M  POLY_CA_BB 4
M  POLY_C_BB 2
M  POLY_O_BB 5
M  POLY_IGNORE 9 10 11 12 13 14 15 16 17 18 
M  POLY_UPPER 6
M  POLY_LOWER 8
M  POLY_CHG 0
M  POLY_PROPERTIES ALPHA_AA D_AA PROTEIN AROMATIC POLYMER 
M  END

$$$$



 32 32  0  0  0  0  0  0  0  0999 V2000
   -3.2089    2.4331   -2.2051 H   0  0  0  1  0  0  0  0  0  0  0  0
   -2.1032    0.7482   -2.6834 C   0  0  0  1  0  0  0  0  0  0  0  0
   -1.8897    3.0055   -3.6621 N   0  0  0  1  0  0  0  0  0  0  0  0
   -2.1871    2.2305   -2.4496 C   0  0  0  1  0  0  0  0  0  0  0  0
   -2.1717   -0.0612   -1.7732 O   0  0  0  1  0  0  0  0  0  0  0  0
   -1.9480    0.2953   -3.9307 N   0  0  0  1  0  0  0  0  0  0  0  0
   -1.0344    3.4801   -3.7221 H   0  0  0  1  0  0  0  0  0  0  0  0
   -2.7448    3.0856   -4.6855 C   0  0  0  1  0  0  0  0  0  0  0  0
   -1.9023   -1.1256   -4.2418 C   0  0  0  1  0  0  0  0  0  0  0  0
   -2.3837    4.0786   -5.7669 C   0  0  0  1  0  0  0  0  0  0  0  0
   -3.7657    2.4032   -4.7604 O   0  0  0  1  0  0  0  0  0  0  0  0
   -1.8619    0.9425   -4.6616 H   0  0  0  1  0  0  0  0  0  0  0  0
   -1.2608   -1.6233   -3.5449 H   0  0  0  1  0  0  0  0  0  0  0  0
   -1.5245   -1.2613   -5.2337 H   0  0  0  1  0  0  0  0  0  0  0  0
   -2.8879   -1.5368   -4.1756 H   0  0  0  1  0  0  0  0  0  0  0  0
   -2.6858    3.6953   -6.7191 H   0  0  0  1  0  0  0  0  0  0  0  0
   -1.3255    4.2375   -5.7660 H   0  0  0  1  0  0  0  0  0  0  0  0
   -2.8842    5.0059   -5.5809 H   0  0  0  1  0  0  0  0  0  0  0  0
   -2.8245    8.8022   -0.0124 I   0  0  0  1  0  0  0  0  0  0  0  0
   -2.3645    6.8064   -0.4288 C   0  0  0  1  0  0  0  0  0  0  0  0
   -1.1127    6.3023   -0.1120 C   0  0  0  1  0  0  0  0  0  0  0  0
   -0.8072    4.9839   -0.3924 C   0  0  0  1  0  0  0  0  0  0  0  0
   -1.7547    4.1642   -0.9857 C   0  0  0  1  0  0  0  0  0  0  0  0
   -3.0029    4.6666   -1.3016 C   0  0  0  1  0  0  0  0  0  0  0  0
   -3.3091    5.9890   -1.0203 C   0  0  0  1  0  0  0  0  0  0  0  0
   -1.3707    2.7303   -1.2650 C   0  0  0  1  0  0  0  0  0  0  0  0
   -0.4033    6.9163    0.3368 H   0  0  0  1  0  0  0  0  0  0  0  0
    0.1333    4.6069   -0.1584 H   0  0  0  1  0  0  0  0  0  0  0  0
   -3.7123    4.0526   -1.7504 H   0  0  0  1  0  0  0  0  0  0  0  0
   -4.2497    6.3660   -1.2543 H   0  0  0  1  0  0  0  0  0  0  0  0
   -0.3276    2.6753   -1.4973 H   0  0  0  1  0  0  0  0  0  0  0  0
   -1.5773    2.1280   -0.4051 H   0  0  0  1  0  0  0  0  0  0  0  0
  1  4  1  0  0  0  0
  2  4  1  0  0  0  0
  2  5  2  0  0  0  0
  2  6  1  0  0  0  0
  3  4  1  0  0  0  0
  3  7  1  0  0  0  0
  3  8  1  0  0  0  0
  4 26  1  0  0  0  0
  6  9  1  0  0  0  0
  6 12  1  0  0  0  0
  8 10  1  0  0  0  0
  8 11  2  0  0  0  0
  9 13  1  0  0  0  0
  9 14  1  0  0  0  0
  9 15  1  0  0  0  0
 10 16  1  0  0  0  0
 10 17  1  0  0  0  0
 10 18  1  0  0  0  0
 19 20  1  0  0  0  0
 20 21  4  0  0  0  0
 20 25  4  0  0  0  0
 21 22  4  0  0  0  0
 21 27  1  0  0  0  0
 22 23  4  0  0  0  0
 22 28  1  0  0  0  0
 23 24  4  0  0  0  0
 23 26  1  0  0  0  0
 24 25  4  0  0  0  0
 24 29  1  0  0  0  0
 25 30  1  0  0  0  0
 26 31  1  0  0  0  0
 26 32  1  0  0  0  0
M  END
> <BCLConfClusterSize>
1

> <ConfClashScore>
0 

> <ConfOneFourInteractionScore>
-0.952877 

> <ConfScore>
0.30431 

> <ConfScorePBest>
0.00484336 

> <ConfTolerance>
0.468691 

> <RosettaParamsInstructions>
M  ROOT 3
M  POLY_N_BB 3
M  POLY_CA_BB 4
M  POLY_C_BB 2
M  POLY_O_BB 5
M  POLY_IGNORE 9 10 11 12 13 14 15 16 17 18 
M  POLY_UPPER 6
M  POLY_LOWER 8
M  POLY_CHG 0
M  POLY_PROPERTIES ALPHA_AA D_AA PROTEIN AROMATIC POLYMER 
M  END

$$$$



 32 32  0  0  0  0  0  0  0  0999 V2000
   -1.0200    1.4763   -2.9187 H   0  0  0  1  0  0  0  0  0  0  0  0
    0.0900    3.2119   -3.2955 C   0  0  0  1  0  0  0  0  0  0  0  0
   -2.3445    2.9258   -3.5501 N   0  0  0  1  0  0  0  0  0  0  0  0
   -1.1592    2.5265   -2.7678 C   0  0  0  1  0  0  0  0  0  0  0  0
    1.2099    2.7446   -3.2091 O   0  0  0  1  0  0  0  0  0  0  0  0
   -0.0976    4.3954   -3.8815 N   0  0  0  1  0  0  0  0  0  0  0  0
   -3.1928    3.1076   -3.0942 H   0  0  0  1  0  0  0  0  0  0  0  0
   -2.2637    3.0406   -4.8845 C   0  0  0  1  0  0  0  0  0  0  0  0
    0.8854    5.0833   -4.6985 C   0  0  0  1  0  0  0  0  0  0  0  0
   -3.5237    3.3850   -5.6459 C   0  0  0  1  0  0  0  0  0  0  0  0
   -1.1970    2.8710   -5.4735 O   0  0  0  1  0  0  0  0  0  0  0  0
   -0.9644    4.8335   -3.7506 H   0  0  0  1  0  0  0  0  0  0  0  0
    1.6567    4.3980   -4.9821 H   0  0  0  1  0  0  0  0  0  0  0  0
    1.3127    5.8891   -4.1391 H   0  0  0  1  0  0  0  0  0  0  0  0
    0.4115    5.4697   -5.5765 H   0  0  0  1  0  0  0  0  0  0  0  0
   -3.2684    3.9275   -6.5321 H   0  0  0  1  0  0  0  0  0  0  0  0
   -4.1589    3.9869   -5.0301 H   0  0  0  1  0  0  0  0  0  0  0  0
   -4.0354    2.4845   -5.9142 H   0  0  0  1  0  0  0  0  0  0  0  0
   -2.8298    8.8015   -0.0145 I   0  0  0  1  0  0  0  0  0  0  0  0
   -2.3639    6.8066   -0.4285 C   0  0  0  1  0  0  0  0  0  0  0  0
   -1.1110    6.3063   -0.1102 C   0  0  0  1  0  0  0  0  0  0  0  0
   -0.8016    4.9885   -0.3890 C   0  0  0  1  0  0  0  0  0  0  0  0
   -1.7462    4.1655   -0.9822 C   0  0  0  1  0  0  0  0  0  0  0  0
   -2.9956    4.6641   -1.2997 C   0  0  0  1  0  0  0  0  0  0  0  0
   -3.3057    5.9859   -1.0199 C   0  0  0  1  0  0  0  0  0  0  0  0
   -1.4108    2.7236   -1.2819 C   0  0  0  1  0  0  0  0  0  0  0  0
   -0.4036    6.9227    0.3385 H   0  0  0  1  0  0  0  0  0  0  0  0
    0.1398    4.6143   -0.1538 H   0  0  0  1  0  0  0  0  0  0  0  0
   -3.7029    4.0477   -1.7484 H   0  0  0  1  0  0  0  0  0  0  0  0
   -4.2471    6.3601   -1.2551 H   0  0  0  1  0  0  0  0  0  0  0  0
   -0.5320    2.4474   -0.7376 H   0  0  0  1  0  0  0  0  0  0  0  0
   -2.2282    2.1031   -0.9791 H   0  0  0  1  0  0  0  0  0  0  0  0
  1  4  1  0  0  0  0
  2  4  1  0  0  0  0
  2  5  2  0  0  0  0
  2  6  1  0  0  0  0
  3  4  1  0  0  0  0
  3  7  1  0  0  0  0
  3  8  1  0  0  0  0
  4 26  1  0  0  0  0
  6  9  1  0  0  0  0
  6 12  1  0  0  0  0
  8 10  1  0  0  0  0
  8 11  2  0  0  0  0
  9 13  1  0  0  0  0
  9 14  1  0  0  0  0
  9 15  1  0  0  0  0
 10 16  1  0  0  0  0
 10 17  1  0  0  0  0
 10 18  1  0  0  0  0
 19 20  1  0  0  0  0
 20 21  4  0  0  0  0
 20 25  4  0  0  0  0
 21 22  4  0  0  0  0
 21 27  1  0  0  0  0
 22 23  4  0  0  0  0
 22 28  1  0  0  0  0
 23 24  4  0  0  0  0
 23 26  1  0  0  0  0
 24 25  4  0  0  0  0
 24 29  1  0  0  0  0
 25 30  1  0  0  0  0
 26 31  1  0  0  0  0
 26 32  1  0  0  0  0
M  END
> <BCLConfClusterSize>
1

> <ConfClashScore>
0.000541758 

> <ConfOneFourInteractionScore>
-0.950605 

> <ConfScore>
0.305322 

> <ConfScorePBest>
0.00481488 

> <ConfTolerance>
0.366123 

> <RosettaParamsInstructions>
M  ROOT 3
M  POLY_N_BB 3
M  POLY_CA_BB 4
M  POLY_C_BB 2
M  POLY_O_BB 5
M  POLY_IGNORE 9 10 11 12 13 14 15 16 17 18 
M  POLY_UPPER 6
M  POLY_LOWER 8
M  POLY_CHG 0
M  POLY_PROPERTIES ALPHA_AA D_AA PROTEIN AROMATIC POLYMER 
M  END

$$$$



 32 32  0  0  0  0  0  0  0  0999 V2000
   -1.5867    2.8653   -3.3621 H   0  0  0  1  0  0  0  0  0  0  0  0
   -0.4379    1.1463   -2.9859 C   0  0  0  1  0  0  0  0  0  0  0  0
    0.3121    3.4918   -2.8756 N   0  0  0  1  0  0  0  0  0  0  0  0
   -0.8093    2.5847   -2.6825 C   0  0  0  1  0  0  0  0  0  0  0  0
    0.6151    0.6589   -2.5768 O   0  0  0  1  0  0  0  0  0  0  0  0
   -1.3258    0.4570   -3.7198 N   0  0  0  1  0  0  0  0  0  0  0  0
    0.1444    4.3206   -3.3710 H   0  0  0  1  0  0  0  0  0  0  0  0
    1.5512    3.2802   -2.4292 C   0  0  0  1  0  0  0  0  0  0  0  0
   -0.9781   -0.8550   -4.2448 C   0  0  0  1  0  0  0  0  0  0  0  0
    2.6107    4.2314   -2.9505 C   0  0  0  1  0  0  0  0  0  0  0  0
    1.8347    2.3778   -1.6459 O   0  0  0  1  0  0  0  0  0  0  0  0
   -2.2100    0.8382   -3.9024 H   0  0  0  1  0  0  0  0  0  0  0  0
   -1.8707   -1.3792   -4.5159 H   0  0  0  1  0  0  0  0  0  0  0  0
   -0.4520   -1.4103   -3.4966 H   0  0  0  1  0  0  0  0  0  0  0  0
   -0.3561   -0.7402   -5.1078 H   0  0  0  1  0  0  0  0  0  0  0  0
    2.1494    5.1477   -3.2549 H   0  0  0  1  0  0  0  0  0  0  0  0
    3.1076    3.7873   -3.7876 H   0  0  0  1  0  0  0  0  0  0  0  0
    3.3226    4.4306   -2.1770 H   0  0  0  1  0  0  0  0  0  0  0  0
   -2.8245    8.8022   -0.0124 I   0  0  0  1  0  0  0  0  0  0  0  0
   -2.3645    6.8064   -0.4288 C   0  0  0  1  0  0  0  0  0  0  0  0
   -1.1127    6.3023   -0.1120 C   0  0  0  1  0  0  0  0  0  0  0  0
   -0.8072    4.9839   -0.3924 C   0  0  0  1  0  0  0  0  0  0  0  0
   -1.7547    4.1642   -0.9857 C   0  0  0  1  0  0  0  0  0  0  0  0
   -3.0029    4.6666   -1.3016 C   0  0  0  1  0  0  0  0  0  0  0  0
   -3.3091    5.9890   -1.0203 C   0  0  0  1  0  0  0  0  0  0  0  0
   -1.3707    2.7303   -1.2650 C   0  0  0  1  0  0  0  0  0  0  0  0
   -0.4033    6.9163    0.3368 H   0  0  0  1  0  0  0  0  0  0  0  0
    0.1333    4.6069   -0.1584 H   0  0  0  1  0  0  0  0  0  0  0  0
   -3.7123    4.0526   -1.7504 H   0  0  0  1  0  0  0  0  0  0  0  0
   -4.2497    6.3660   -1.2543 H   0  0  0  1  0  0  0  0  0  0  0  0
   -0.6270    2.4226   -0.5599 H   0  0  0  1  0  0  0  0  0  0  0  0
   -2.2364    2.1095   -1.1650 H   0  0  0  1  0  0  0  0  0  0  0  0
  1  4  1  0  0  0  0
  2  4  1  0  0  0  0
  2  5  2  0  0  0  0
  2  6  1  0  0  0  0
  3  4  1  0  0  0  0
  3  7  1  0  0  0  0
  3  8  1  0  0  0  0
  4 26  1  0  0  0  0
  6  9  1  0  0  0  0
  6 12  1  0  0  0  0
  8 10  1  0  0  0  0
  8 11  2  0  0  0  0
  9 13  1  0  0  0  0
  9 14  1  0  0  0  0
  9 15  1  0  0  0  0
 10 16  1  0  0  0  0
 10 17  1  0  0  0  0
 10 18  1  0  0  0  0
 19 20  1  0  0  0  0
 20 21  4  0  0  0  0
 20 25  4  0  0  0  0
 21 22  4  0  0  0  0
 21 27  1  0  0  0  0
 22 23  4  0  0  0  0
 22 28  1  0  0  0  0
 23 24  4  0  0  0  0
 23 26  1  0  0  0  0
 24 25  4  0  0  0  0
 24 29  1  0  0  0  0
 25 30  1  0  0  0  0
 26 31  1  0  0  0  0
 26 32  1  0  0  0  0
M  END
> <BCLConfClusterSize>
1

> <ConfClashScore>
0 

> <ConfOneFourInteractionScore>
-0.987258 

> <ConfScore>
0.306772 

> <ConfScorePBest>
0.00478639 

> <ConfTolerance>
0.422249 

> <RosettaParamsInstructions>
M  ROOT 3
M  POLY_N_BB 3
M  POLY_CA_BB 4
M  POLY_C_BB 2
M  POLY_O_BB 5
M  POLY_IGNORE 9 10 11 12 13 14 15 16 17 18 
M  POLY_UPPER 6
M  POLY_LOWER 8
M  POLY_CHG 0
M  POLY_PROPERTIES ALPHA_AA D_AA PROTEIN AROMATIC POLYMER 
M  END

$$$$



 32 32  0  0  0  0  0  0  0  0999 V2000
   -0.9192    1.9737    0.6008 H   0  0  0  1  0  0  0  0  0  0  0  0
   -1.4304    0.3119   -0.5948 C   0  0  0  1  0  0  0  0  0  0  0  0
   -2.9761    1.8823    0.4329 N   0  0  0  1  0  0  0  0  0  0  0  0
   -1.6488    1.7455   -0.1480 C   0  0  0  1  0  0  0  0  0  0  0  0
   -0.3296   -0.2245   -0.5004 O   0  0  0  1  0  0  0  0  0  0  0  0
   -2.5036   -0.3118   -1.0891 N   0  0  0  1  0  0  0  0  0  0  0  0
   -3.6268    1.1615    0.3005 H   0  0  0  1  0  0  0  0  0  0  0  0
   -3.3384    2.9562    1.1403 C   0  0  0  1  0  0  0  0  0  0  0  0
   -2.4216   -1.6246   -1.7118 C   0  0  0  1  0  0  0  0  0  0  0  0
   -4.7783    2.9823    1.6686 C   0  0  0  1  0  0  0  0  0  0  0  0
   -2.5602    3.8579    1.4399 O   0  0  0  1  0  0  0  0  0  0  0  0
   -3.3763    0.1301   -1.0304 H   0  0  0  1  0  0  0  0  0  0  0  0
   -2.4691   -2.3816   -0.9570 H   0  0  0  1  0  0  0  0  0  0  0  0
   -1.4973   -1.7096   -2.2440 H   0  0  0  1  0  0  0  0  0  0  0  0
   -3.2382   -1.7480   -2.3921 H   0  0  0  1  0  0  0  0  0  0  0  0
   -4.9116    2.1953    2.3811 H   0  0  0  1  0  0  0  0  0  0  0  0
   -5.4592    2.8454    0.8547 H   0  0  0  1  0  0  0  0  0  0  0  0
   -4.9684    3.9246    2.1387 H   0  0  0  1  0  0  0  0  0  0  0  0
   -2.8353    8.8006   -0.0169 I   0  0  0  1  0  0  0  0  0  0  0  0
   -2.3632    6.8066   -0.4282 C   0  0  0  1  0  0  0  0  0  0  0  0
   -1.1090    6.3104   -0.1083 C   0  0  0  1  0  0  0  0  0  0  0  0
   -0.7955    4.9932   -0.3854 C   0  0  0  1  0  0  0  0  0  0  0  0
   -1.7371    4.1668   -0.9784 C   0  0  0  1  0  0  0  0  0  0  0  0
   -2.9877    4.6613   -1.2976 C   0  0  0  1  0  0  0  0  0  0  0  0
   -3.3020    5.9825   -1.0196 C   0  0  0  1  0  0  0  0  0  0  0  0
   -1.4543    2.7182   -1.2996 C   0  0  0  1  0  0  0  0  0  0  0  0
   -0.4039    6.9294    0.3404 H   0  0  0  1  0  0  0  0  0  0  0  0
    0.1469    4.6221   -0.1489 H   0  0  0  1  0  0  0  0  0  0  0  0
   -3.6928    4.0423   -1.7462 H   0  0  0  1  0  0  0  0  0  0  0  0
   -4.2443    6.3536   -1.2560 H   0  0  0  1  0  0  0  0  0  0  0  0
   -2.1066    2.4230   -2.0948 H   0  0  0  1  0  0  0  0  0  0  0  0
   -0.4378    2.6448   -1.6256 H   0  0  0  1  0  0  0  0  0  0  0  0
  1  4  1  0  0  0  0
  2  4  1  0  0  0  0
  2  5  2  0  0  0  0
  2  6  1  0  0  0  0
  3  4  1  0  0  0  0
  3  7  1  0  0  0  0
  3  8  1  0  0  0  0
  4 26  1  0  0  0  0
  6  9  1  0  0  0  0
  6 12  1  0  0  0  0
  8 10  1  0  0  0  0
  8 11  2  0  0  0  0
  9 13  1  0  0  0  0
  9 14  1  0  0  0  0
  9 15  1  0  0  0  0
 10 16  1  0  0  0  0
 10 17  1  0  0  0  0
 10 18  1  0  0  0  0
 19 20  1  0  0  0  0
 20 21  4  0  0  0  0
 20 25  4  0  0  0  0
 21 22  4  0  0  0  0
 21 27  1  0  0  0  0
 22 23  4  0  0  0  0
 22 28  1  0  0  0  0
 23 24  4  0  0  0  0
 23 26  1  0  0  0  0
 24 25  4  0  0  0  0
 24 29  1  0  0  0  0
 25 30  1  0  0  0  0
 26 31  1  0  0  0  0
 26 32  1  0  0  0  0
M  END
> <BCLConfClusterSize>
1

> <ConfClashScore>
0 

> <ConfOneFourInteractionScore>
-0.943679 

> <ConfScore>
0.307382 

> <ConfScorePBest>
0.00475791 

> <ConfTolerance>
0.472138 

> <RosettaParamsInstructions>
M  ROOT 3
M  POLY_N_BB 3
M  POLY_CA_BB 4
M  POLY_C_BB 2
M  POLY_O_BB 5
M  POLY_IGNORE 9 10 11 12 13 14 15 16 17 18 
M  POLY_UPPER 6
M  POLY_LOWER 8
M  POLY_CHG 0
M  POLY_PROPERTIES ALPHA_AA D_AA PROTEIN AROMATIC POLYMER 
M  END

$$$$



 32 32  0  0  0  0  0  0  0  0999 V2000
   -0.5776    1.4157   -2.6923 H   0  0  0  1  0  0  0  0  0  0  0  0
    0.6368    3.1339   -2.5641 C   0  0  0  1  0  0  0  0  0  0  0  0
   -1.5469    2.8799   -3.7631 N   0  0  0  1  0  0  0  0  0  0  0  0
   -0.7407    2.4707   -2.6186 C   0  0  0  1  0  0  0  0  0  0  0  0
    1.1181    3.4903   -1.4895 O   0  0  0  1  0  0  0  0  0  0  0  0
    1.2719    3.1999   -3.7377 N   0  0  0  1  0  0  0  0  0  0  0  0
   -2.1361    3.6598   -3.6923 H   0  0  0  1  0  0  0  0  0  0  0  0
   -1.4840    2.1952   -4.9055 C   0  0  0  1  0  0  0  0  0  0  0  0
    2.5970    3.7862   -3.8725 C   0  0  0  1  0  0  0  0  0  0  0  0
   -2.3466    2.7203   -6.0366 C   0  0  0  1  0  0  0  0  0  0  0  0
   -0.7784    1.2005   -5.0509 O   0  0  0  1  0  0  0  0  0  0  0  0
    0.8301    2.8411   -4.5354 H   0  0  0  1  0  0  0  0  0  0  0  0
    3.2854    3.2618   -3.2432 H   0  0  0  1  0  0  0  0  0  0  0  0
    2.5625    4.8157   -3.5827 H   0  0  0  1  0  0  0  0  0  0  0  0
    2.9176    3.7123   -4.8907 H   0  0  0  1  0  0  0  0  0  0  0  0
   -2.2746    3.7872   -6.0750 H   0  0  0  1  0  0  0  0  0  0  0  0
   -3.3649    2.4376   -5.8691 H   0  0  0  1  0  0  0  0  0  0  0  0
   -2.0090    2.3067   -6.9638 H   0  0  0  1  0  0  0  0  0  0  0  0
   -2.8353    8.8006   -0.0169 I   0  0  0  1  0  0  0  0  0  0  0  0
   -2.3632    6.8066   -0.4282 C   0  0  0  1  0  0  0  0  0  0  0  0
   -1.1090    6.3104   -0.1083 C   0  0  0  1  0  0  0  0  0  0  0  0
   -0.7955    4.9932   -0.3854 C   0  0  0  1  0  0  0  0  0  0  0  0
   -1.7371    4.1668   -0.9784 C   0  0  0  1  0  0  0  0  0  0  0  0
   -2.9877    4.6613   -1.2976 C   0  0  0  1  0  0  0  0  0  0  0  0
   -3.3020    5.9825   -1.0196 C   0  0  0  1  0  0  0  0  0  0  0  0
   -1.4543    2.7182   -1.2996 C   0  0  0  1  0  0  0  0  0  0  0  0
   -0.4039    6.9294    0.3404 H   0  0  0  1  0  0  0  0  0  0  0  0
    0.1469    4.6221   -0.1489 H   0  0  0  1  0  0  0  0  0  0  0  0
   -3.6928    4.0423   -1.7462 H   0  0  0  1  0  0  0  0  0  0  0  0
   -4.2443    6.3536   -1.2560 H   0  0  0  1  0  0  0  0  0  0  0  0
   -0.8460    2.3189   -0.5152 H   0  0  0  1  0  0  0  0  0  0  0  0
   -2.3887    2.1977   -1.3271 H   0  0  0  1  0  0  0  0  0  0  0  0
  1  4  1  0  0  0  0
  2  4  1  0  0  0  0
  2  5  2  0  0  0  0
  2  6  1  0  0  0  0
  3  4  1  0  0  0  0
  3  7  1  0  0  0  0
  3  8  1  0  0  0  0
  4 26  1  0  0  0  0
  6  9  1  0  0  0  0
  6 12  1  0  0  0  0
  8 10  1  0  0  0  0
  8 11  2  0  0  0  0
  9 13  1  0  0  0  0
  9 14  1  0  0  0  0
  9 15  1  0  0  0  0
 10 16  1  0  0  0  0
 10 17  1  0  0  0  0
 10 18  1  0  0  0  0
 19 20  1  0  0  0  0
 20 21  4  0  0  0  0
 20 25  4  0  0  0  0
 21 22  4  0  0  0  0
 21 27  1  0  0  0  0
 22 23  4  0  0  0  0
 22 28  1  0  0  0  0
 23 24  4  0  0  0  0
 23 26  1  0  0  0  0
 24 25  4  0  0  0  0
 24 29  1  0  0  0  0
 25 30  1  0  0  0  0
 26 31  1  0  0  0  0
 26 32  1  0  0  0  0
M  END
> <BCLConfClusterSize>
1

> <ConfClashScore>
0 

> <ConfOneFourInteractionScore>
-0.97589 

> <ConfScore>
0.312014 

> <ConfScorePBest>
0.00472943 

> <ConfTolerance>
0.367151 

> <RosettaParamsInstructions>
M  ROOT 3
M  POLY_N_BB 3
M  POLY_CA_BB 4
M  POLY_C_BB 2
M  POLY_O_BB 5
M  POLY_IGNORE 9 10 11 12 13 14 15 16 17 18 
M  POLY_UPPER 6
M  POLY_LOWER 8
M  POLY_CHG 0
M  POLY_PROPERTIES ALPHA_AA D_AA PROTEIN AROMATIC POLYMER 
M  END

$$$$



 32 32  0  0  0  0  0  0  0  0999 V2000
    0.0343    3.2365   -2.7091 H   0  0  0  1  0  0  0  0  0  0  0  0
   -1.7002    2.8314   -3.8127 C   0  0  0  1  0  0  0  0  0  0  0  0
   -0.1798    1.1898   -2.7121 N   0  0  0  1  0  0  0  0  0  0  0  0
   -0.7691    2.5322   -2.6498 C   0  0  0  1  0  0  0  0  0  0  0  0
   -2.2498    3.9152   -3.9210 O   0  0  0  1  0  0  0  0  0  0  0  0
   -1.8701    1.8348   -4.6947 N   0  0  0  1  0  0  0  0  0  0  0  0
   -0.6789    0.4203   -2.3670 H   0  0  0  1  0  0  0  0  0  0  0  0
    1.0476    1.0128   -3.2435 C   0  0  0  1  0  0  0  0  0  0  0  0
   -2.8680    2.0068   -5.7399 C   0  0  0  1  0  0  0  0  0  0  0  0
    1.6239   -0.4030   -3.2095 C   0  0  0  1  0  0  0  0  0  0  0  0
    1.7240    1.9475   -3.6644 O   0  0  0  1  0  0  0  0  0  0  0  0
   -1.3373    1.0143   -4.6368 H   0  0  0  1  0  0  0  0  0  0  0  0
   -2.7308    2.9573   -6.2118 H   0  0  0  1  0  0  0  0  0  0  0  0
   -3.8465    1.9606   -5.3095 H   0  0  0  1  0  0  0  0  0  0  0  0
   -2.7605    1.2291   -6.4669 H   0  0  0  1  0  0  0  0  0  0  0  0
    2.4155   -0.4493   -2.4911 H   0  0  0  1  0  0  0  0  0  0  0  0
    2.0051   -0.6559   -4.1768 H   0  0  0  1  0  0  0  0  0  0  0  0
    0.8543   -1.0946   -2.9369 H   0  0  0  1  0  0  0  0  0  0  0  0
   -2.8298    8.8015   -0.0145 I   0  0  0  1  0  0  0  0  0  0  0  0
   -2.3639    6.8066   -0.4285 C   0  0  0  1  0  0  0  0  0  0  0  0
   -1.1109    6.3063   -0.1102 C   0  0  0  1  0  0  0  0  0  0  0  0
   -0.8016    4.9885   -0.3890 C   0  0  0  1  0  0  0  0  0  0  0  0
   -1.7462    4.1655   -0.9822 C   0  0  0  1  0  0  0  0  0  0  0  0
   -2.9956    4.6641   -1.2997 C   0  0  0  1  0  0  0  0  0  0  0  0
   -3.3057    5.9859   -1.0199 C   0  0  0  1  0  0  0  0  0  0  0  0
   -1.4108    2.7236   -1.2819 C   0  0  0  1  0  0  0  0  0  0  0  0
   -0.4036    6.9227    0.3385 H   0  0  0  1  0  0  0  0  0  0  0  0
    0.1398    4.6143   -0.1538 H   0  0  0  1  0  0  0  0  0  0  0  0
   -3.7029    4.0477   -1.7484 H   0  0  0  1  0  0  0  0  0  0  0  0
   -4.2471    6.3601   -1.2551 H   0  0  0  1  0  0  0  0  0  0  0  0
   -0.7318    2.3695   -0.5346 H   0  0  0  1  0  0  0  0  0  0  0  0
   -2.3130    2.1495   -1.2456 H   0  0  0  1  0  0  0  0  0  0  0  0
  1  4  1  0  0  0  0
  2  4  1  0  0  0  0
  2  5  2  0  0  0  0
  2  6  1  0  0  0  0
  3  4  1  0  0  0  0
  3  7  1  0  0  0  0
  3  8  1  0  0  0  0
  4 26  1  0  0  0  0
  6  9  1  0  0  0  0
  6 12  1  0  0  0  0
  8 10  1  0  0  0  0
  8 11  2  0  0  0  0
  9 13  1  0  0  0  0
  9 14  1  0  0  0  0
  9 15  1  0  0  0  0
 10 16  1  0  0  0  0
 10 17  1  0  0  0  0
 10 18  1  0  0  0  0
 19 20  1  0  0  0  0
 20 21  4  0  0  0  0
 20 25  4  0  0  0  0
 21 22  4  0  0  0  0
 21 27  1  0  0  0  0
 22 23  4  0  0  0  0
 22 28  1  0  0  0  0
 23 24  4  0  0  0  0
 23 26  1  0  0  0  0
 24 25  4  0  0  0  0
 24 29  1  0  0  0  0
 25 30  1  0  0  0  0
 26 31  1  0  0  0  0
 26 32  1  0  0  0  0
M  END
> <BCLConfClusterSize>
1

> <ConfClashScore>
0 

> <ConfOneFourInteractionScore>
-0.960318 

> <ConfScore>
0.312107 

> <ConfScorePBest>
0.00470095 

> <ConfTolerance>
0.361933 

> <RosettaParamsInstructions>
M  ROOT 3
M  POLY_N_BB 3
M  POLY_CA_BB 4
M  POLY_C_BB 2
M  POLY_O_BB 5
M  POLY_IGNORE 9 10 11 12 13 14 15 16 17 18 
M  POLY_UPPER 6
M  POLY_LOWER 8
M  POLY_CHG 0
M  POLY_PROPERTIES ALPHA_AA D_AA PROTEIN AROMATIC POLYMER 
M  END

$$$$



 32 32  0  0  0  0  0  0  0  0999 V2000
   -0.5921    2.2385    0.6257 H   0  0  0  1  0  0  0  0  0  0  0  0
   -1.0106    0.4056   -0.2918 C   0  0  0  1  0  0  0  0  0  0  0  0
   -2.6388    1.9867    0.6622 N   0  0  0  1  0  0  0  0  0  0  0  0
   -1.3448    1.8622   -0.0352 C   0  0  0  1  0  0  0  0  0  0  0  0
   -0.5510    0.0457   -1.3723 O   0  0  0  1  0  0  0  0  0  0  0  0
   -1.2321   -0.4762    0.6959 N   0  0  0  1  0  0  0  0  0  0  0  0
   -2.7962    2.7690    1.2311 H   0  0  0  1  0  0  0  0  0  0  0  0
   -3.6022    1.0715    0.5452 C   0  0  0  1  0  0  0  0  0  0  0  0
   -1.0581   -1.9010    0.4561 C   0  0  0  1  0  0  0  0  0  0  0  0
   -4.7599    1.2061    1.5151 C   0  0  0  1  0  0  0  0  0  0  0  0
   -3.5707    0.1702   -0.2885 O   0  0  0  1  0  0  0  0  0  0  0  0
   -1.5116   -0.1597    1.5803 H   0  0  0  1  0  0  0  0  0  0  0  0
   -1.2308   -2.4397    1.3643 H   0  0  0  1  0  0  0  0  0  0  0  0
   -0.0606   -2.0859    0.1161 H   0  0  0  1  0  0  0  0  0  0  0  0
   -1.7551   -2.2248   -0.2884 H   0  0  0  1  0  0  0  0  0  0  0  0
   -4.5407    0.6630    2.4106 H   0  0  0  1  0  0  0  0  0  0  0  0
   -5.6479    0.8114    1.0672 H   0  0  0  1  0  0  0  0  0  0  0  0
   -4.9081    2.2390    1.7520 H   0  0  0  1  0  0  0  0  0  0  0  0
   -2.7767    8.8219   -0.0686 I   0  0  0  1  0  0  0  0  0  0  0  0
   -2.3793    6.7977   -0.4040 C   0  0  0  1  0  0  0  0  0  0  0  0
   -1.1248    6.2945   -0.0966 C   0  0  0  1  0  0  0  0  0  0  0  0
   -0.8145    4.9812   -0.3952 C   0  0  0  1  0  0  0  0  0  0  0  0
   -1.7598    4.1656   -0.9973 C   0  0  0  1  0  0  0  0  0  0  0  0
   -3.0107    4.6671   -1.3040 C   0  0  0  1  0  0  0  0  0  0  0  0
   -3.3217    5.9843   -1.0045 C   0  0  0  1  0  0  0  0  0  0  0  0
   -1.3190    2.7477   -1.2742 C   0  0  0  1  0  0  0  0  0  0  0  0
   -0.4169    6.9053    0.3589 H   0  0  0  1  0  0  0  0  0  0  0  0
    0.1281    4.6050   -0.1681 H   0  0  0  1  0  0  0  0  0  0  0  0
   -3.7186    4.0562   -1.7595 H   0  0  0  1  0  0  0  0  0  0  0  0
   -4.2643    6.3606   -1.2316 H   0  0  0  1  0  0  0  0  0  0  0  0
   -1.9726    2.3251   -2.0084 H   0  0  0  1  0  0  0  0  0  0  0  0
   -0.3198    2.7701   -1.6561 H   0  0  0  1  0  0  0  0  0  0  0  0
  1  4  1  0  0  0  0
  2  4  1  0  0  0  0
  2  5  2  0  0  0  0
  2  6  1  0  0  0  0
  3  4  1  0  0  0  0
  3  7  1  0  0  0  0
  3  8  1  0  0  0  0
  4 26  1  0  0  0  0
  6  9  1  0  0  0  0
  6 12  1  0  0  0  0
  8 10  1  0  0  0  0
  8 11  2  0  0  0  0
  9 13  1  0  0  0  0
  9 14  1  0  0  0  0
  9 15  1  0  0  0  0
 10 16  1  0  0  0  0
 10 17  1  0  0  0  0
 10 18  1  0  0  0  0
 19 20  1  0  0  0  0
 20 21  4  0  0  0  0
 20 25  4  0  0  0  0
 21 22  4  0  0  0  0
 21 27  1  0  0  0  0
 22 23  4  0  0  0  0
 22 28  1  0  0  0  0
 23 24  4  0  0  0  0
 23 26  1  0  0  0  0
 24 25  4  0  0  0  0
 24 29  1  0  0  0  0
 25 30  1  0  0  0  0
 26 31  1  0  0  0  0
 26 32  1  0  0  0  0
M  END
> <BCLConfClusterSize>
1

> <ConfClashScore>
0 

> <ConfOneFourInteractionScore>
-0.976539 

> <ConfScore>
0.314273 

> <ConfScorePBest>
0.00467247 

> <ConfTolerance>
0.289301 

> <RosettaParamsInstructions>
M  ROOT 3
M  POLY_N_BB 3
M  POLY_CA_BB 4
M  POLY_C_BB 2
M  POLY_O_BB 5
M  POLY_IGNORE 9 10 11 12 13 14 15 16 17 18 
M  POLY_UPPER 6
M  POLY_LOWER 8
M  POLY_CHG 0
M  POLY_PROPERTIES ALPHA_AA D_AA PROTEIN AROMATIC POLYMER 
M  END

$$$$



 32 32  0  0  0  0  0  0  0  0999 V2000
   -0.8222    1.4556   -2.8181 H   0  0  0  1  0  0  0  0  0  0  0  0
    0.5634    3.0067   -2.9005 C   0  0  0  1  0  0  0  0  0  0  0  0
   -1.8028    2.9958   -3.7421 N   0  0  0  1  0  0  0  0  0  0  0  0
   -0.8720    2.5169   -2.6914 C   0  0  0  1  0  0  0  0  0  0  0  0
    1.2489    3.2131   -1.9026 O   0  0  0  1  0  0  0  0  0  0  0  0
    0.9535    3.1699   -4.1631 N   0  0  0  1  0  0  0  0  0  0  0  0
   -1.8086    3.9489   -3.9702 H   0  0  0  1  0  0  0  0  0  0  0  0
   -2.6600    2.1471   -4.4089 C   0  0  0  1  0  0  0  0  0  0  0  0
    2.2723    3.6268   -4.5752 C   0  0  0  1  0  0  0  0  0  0  0  0
   -3.5594    2.7883   -5.4251 C   0  0  0  1  0  0  0  0  0  0  0  0
   -2.6563    0.9565   -4.1592 O   0  0  0  1  0  0  0  0  0  0  0  0
    0.3035    2.9670   -4.8680 H   0  0  0  1  0  0  0  0  0  0  0  0
    2.9429    3.5795   -3.7428 H   0  0  0  1  0  0  0  0  0  0  0  0
    2.2070    4.6365   -4.9234 H   0  0  0  1  0  0  0  0  0  0  0  0
    2.6366    3.0004   -5.3624 H   0  0  0  1  0  0  0  0  0  0  0  0
   -3.8259    3.7711   -5.0967 H   0  0  0  1  0  0  0  0  0  0  0  0
   -4.4448    2.1985   -5.5400 H   0  0  0  1  0  0  0  0  0  0  0  0
   -3.0487    2.8522   -6.3632 H   0  0  0  1  0  0  0  0  0  0  0  0
   -2.8298    8.8015   -0.0145 I   0  0  0  1  0  0  0  0  0  0  0  0
   -2.3639    6.8066   -0.4285 C   0  0  0  1  0  0  0  0  0  0  0  0
   -1.1110    6.3063   -0.1102 C   0  0  0  1  0  0  0  0  0  0  0  0
   -0.8016    4.9885   -0.3890 C   0  0  0  1  0  0  0  0  0  0  0  0
   -1.7462    4.1655   -0.9822 C   0  0  0  1  0  0  0  0  0  0  0  0
   -2.9956    4.6641   -1.2997 C   0  0  0  1  0  0  0  0  0  0  0  0
   -3.3057    5.9859   -1.0199 C   0  0  0  1  0  0  0  0  0  0  0  0
   -1.4108    2.7236   -1.2819 C   0  0  0  1  0  0  0  0  0  0  0  0
   -0.4036    6.9227    0.3385 H   0  0  0  1  0  0  0  0  0  0  0  0
    0.1398    4.6143   -0.1538 H   0  0  0  1  0  0  0  0  0  0  0  0
   -3.7029    4.0477   -1.7484 H   0  0  0  1  0  0  0  0  0  0  0  0
   -4.2471    6.3601   -1.2551 H   0  0  0  1  0  0  0  0  0  0  0  0
   -0.6711    2.3936   -0.5827 H   0  0  0  1  0  0  0  0  0  0  0  0
   -2.2980    2.1366   -1.1669 H   0  0  0  1  0  0  0  0  0  0  0  0
  1  4  1  0  0  0  0
  2  4  1  0  0  0  0
  2  5  2  0  0  0  0
  2  6  1  0  0  0  0
  3  4  1  0  0  0  0
  3  7  1  0  0  0  0
  3  8  1  0  0  0  0
  4 26  1  0  0  0  0
  6  9  1  0  0  0  0
  6 12  1  0  0  0  0
  8 10  1  0  0  0  0
  8 11  2  0  0  0  0
  9 13  1  0  0  0  0
  9 14  1  0  0  0  0
  9 15  1  0  0  0  0
 10 16  1  0  0  0  0
 10 17  1  0  0  0  0
 10 18  1  0  0  0  0
 19 20  1  0  0  0  0
 20 21  4  0  0  0  0
 20 25  4  0  0  0  0
 21 22  4  0  0  0  0
 21 27  1  0  0  0  0
 22 23  4  0  0  0  0
 22 28  1  0  0  0  0
 23 24  4  0  0  0  0
 23 26  1  0  0  0  0
 24 25  4  0  0  0  0
 24 29  1  0  0  0  0
 25 30  1  0  0  0  0
 26 31  1  0  0  0  0
 26 32  1  0  0  0  0
M  END
> <BCLConfClusterSize>
1

> <ConfClashScore>
0 

> <ConfOneFourInteractionScore>
-0.950895 

> <ConfScore>
0.318025 

> <ConfScorePBest>
0.00464399 

> <ConfTolerance>
0.509457 

> <RosettaParamsInstructions>
M  ROOT 3
M  POLY_N_BB 3
M  POLY_CA_BB 4
M  POLY_C_BB 2
M  POLY_O_BB 5
M  POLY_IGNORE 9 10 11 12 13 14 15 16 17 18 
M  POLY_UPPER 6
M  POLY_LOWER 8
M  POLY_CHG 0
M  POLY_PROPERTIES ALPHA_AA D_AA PROTEIN AROMATIC POLYMER 
M  END

$$$$



 32 32  0  0  0  0  0  0  0  0999 V2000
   -2.3746    2.7716   -3.1405 H   0  0  0  1  0  0  0  0  0  0  0  0
   -1.4099    0.9160   -3.0761 C   0  0  0  1  0  0  0  0  0  0  0  0
   -0.3800    3.1473   -3.4352 N   0  0  0  1  0  0  0  0  0  0  0  0
   -1.4419    2.4007   -2.7700 C   0  0  0  1  0  0  0  0  0  0  0  0
   -2.1375    0.1249   -2.4775 O   0  0  0  1  0  0  0  0  0  0  0  0
   -0.5496    0.5375   -4.0258 N   0  0  0  1  0  0  0  0  0  0  0  0
   -0.6458    3.8489   -4.0656 H   0  0  0  1  0  0  0  0  0  0  0  0
    0.9258    2.9470   -3.2502 C   0  0  0  1  0  0  0  0  0  0  0  0
   -0.4654   -0.8374   -4.4953 C   0  0  0  1  0  0  0  0  0  0  0  0
    1.8358    3.7995   -4.1363 C   0  0  0  1  0  0  0  0  0  0  0  0
    1.4030    2.2073   -2.3906 O   0  0  0  1  0  0  0  0  0  0  0  0
    0.0453    1.2092   -4.4199 H   0  0  0  1  0  0  0  0  0  0  0  0
   -0.5222   -1.5040   -3.6603 H   0  0  0  1  0  0  0  0  0  0  0  0
    0.4637   -0.9835   -5.0054 H   0  0  0  1  0  0  0  0  0  0  0  0
   -1.2758   -1.0355   -5.1653 H   0  0  0  1  0  0  0  0  0  0  0  0
    1.3645    4.7400   -4.3320 H   0  0  0  1  0  0  0  0  0  0  0  0
    2.0121    3.2901   -5.0606 H   0  0  0  1  0  0  0  0  0  0  0  0
    2.7671    3.9648   -3.6361 H   0  0  0  1  0  0  0  0  0  0  0  0
   -2.8298    8.8015   -0.0145 I   0  0  0  1  0  0  0  0  0  0  0  0
   -2.3639    6.8066   -0.4285 C   0  0  0  1  0  0  0  0  0  0  0  0
   -1.1110    6.3063   -0.1102 C   0  0  0  1  0  0  0  0  0  0  0  0
   -0.8016    4.9885   -0.3890 C   0  0  0  1  0  0  0  0  0  0  0  0
   -1.7462    4.1655   -0.9822 C   0  0  0  1  0  0  0  0  0  0  0  0
   -2.9956    4.6641   -1.2997 C   0  0  0  1  0  0  0  0  0  0  0  0
   -3.3057    5.9859   -1.0199 C   0  0  0  1  0  0  0  0  0  0  0  0
   -1.4108    2.7236   -1.2819 C   0  0  0  1  0  0  0  0  0  0  0  0
   -0.4036    6.9227    0.3385 H   0  0  0  1  0  0  0  0  0  0  0  0
    0.1398    4.6143   -0.1538 H   0  0  0  1  0  0  0  0  0  0  0  0
   -3.7029    4.0477   -1.7484 H   0  0  0  1  0  0  0  0  0  0  0  0
   -4.2471    6.3601   -1.2551 H   0  0  0  1  0  0  0  0  0  0  0  0
   -0.4292    2.5177   -0.9091 H   0  0  0  1  0  0  0  0  0  0  0  0
   -2.1210    2.0979   -0.7828 H   0  0  0  1  0  0  0  0  0  0  0  0
  1  4  1  0  0  0  0
  2  4  1  0  0  0  0
  2  5  2  0  0  0  0
  2  6  1  0  0  0  0
  3  4  1  0  0  0  0
  3  7  1  0  0  0  0
  3  8  1  0  0  0  0
  4 26  1  0  0  0  0
  6  9  1  0  0  0  0
  6 12  1  0  0  0  0
  8 10  1  0  0  0  0
  8 11  2  0  0  0  0
  9 13  1  0  0  0  0
  9 14  1  0  0  0  0
  9 15  1  0  0  0  0
 10 16  1  0  0  0  0
 10 17  1  0  0  0  0
 10 18  1  0  0  0  0
 19 20  1  0  0  0  0
 20 21  4  0  0  0  0
 20 25  4  0  0  0  0
 21 22  4  0  0  0  0
 21 27  1  0  0  0  0
 22 23  4  0  0  0  0
 22 28  1  0  0  0  0
 23 24  4  0  0  0  0
 23 26  1  0  0  0  0
 24 25  4  0  0  0  0
 24 29  1  0  0  0  0
 25 30  1  0  0  0  0
 26 31  1  0  0  0  0
 26 32  1  0  0  0  0
M  END
> <BCLConfClusterSize>
1

> <ConfClashScore>
0 

> <ConfOneFourInteractionScore>
-0.95733 

> <ConfScore>
0.323082 

> <ConfScorePBest>
0.00461551 

> <ConfTolerance>
0.402347 

> <RosettaParamsInstructions>
M  ROOT 3
M  POLY_N_BB 3
M  POLY_CA_BB 4
M  POLY_C_BB 2
M  POLY_O_BB 5
M  POLY_IGNORE 9 10 11 12 13 14 15 16 17 18 
M  POLY_UPPER 6
M  POLY_LOWER 8
M  POLY_CHG 0
M  POLY_PROPERTIES ALPHA_AA D_AA PROTEIN AROMATIC POLYMER 
M  END

$$$$



 32 32  0  0  0  0  0  0  0  0999 V2000
   -2.9253    2.0486    0.0248 H   0  0  0  1  0  0  0  0  0  0  0  0
   -1.1863    2.0133    1.1986 C   0  0  0  1  0  0  0  0  0  0  0  0
   -1.7923    0.4080   -0.5249 N   0  0  0  1  0  0  0  0  0  0  0  0
   -1.8910    1.8188   -0.1248 C   0  0  0  1  0  0  0  0  0  0  0  0
   -1.6037    2.8262    2.0221 O   0  0  0  1  0  0  0  0  0  0  0  0
   -0.0955    1.2745    1.4464 N   0  0  0  1  0  0  0  0  0  0  0  0
   -1.1475   -0.1820   -0.0815 H   0  0  0  1  0  0  0  0  0  0  0  0
   -2.5796   -0.0718   -1.4918 C   0  0  0  1  0  0  0  0  0  0  0  0
    0.6790    1.4179    2.6701 C   0  0  0  1  0  0  0  0  0  0  0  0
   -2.2730   -1.4840   -1.9508 C   0  0  0  1  0  0  0  0  0  0  0  0
   -3.4993    0.5760   -1.9899 O   0  0  0  1  0  0  0  0  0  0  0  0
    0.1902    0.6150    0.7803 H   0  0  0  1  0  0  0  0  0  0  0  0
    0.0480    1.7885    3.4508 H   0  0  0  1  0  0  0  0  0  0  0  0
    1.4825    2.1049    2.5049 H   0  0  0  1  0  0  0  0  0  0  0  0
    1.0758    0.4657    2.9543 H   0  0  0  1  0  0  0  0  0  0  0  0
   -1.2716   -1.5285   -2.3249 H   0  0  0  1  0  0  0  0  0  0  0  0
   -2.9558   -1.7629   -2.7260 H   0  0  0  1  0  0  0  0  0  0  0  0
   -2.3754   -2.1572   -1.1255 H   0  0  0  1  0  0  0  0  0  0  0  0
   -2.8647    8.7786    0.0456 I   0  0  0  1  0  0  0  0  0  0  0  0
   -2.3508    6.8153   -0.4539 C   0  0  0  1  0  0  0  0  0  0  0  0
   -1.1028    6.3068   -0.1292 C   0  0  0  1  0  0  0  0  0  0  0  0
   -0.8059    4.9830   -0.3930 C   0  0  0  1  0  0  0  0  0  0  0  0
   -1.7580    4.1624   -0.9774 C   0  0  0  1  0  0  0  0  0  0  0  0
   -3.0024    4.6692   -1.3011 C   0  0  0  1  0  0  0  0  0  0  0  0
   -3.3001    5.9970   -1.0365 C   0  0  0  1  0  0  0  0  0  0  0  0
   -1.3823    2.7187   -1.2391 C   0  0  0  1  0  0  0  0  0  0  0  0
   -0.3899    6.9215    0.3128 H   0  0  0  1  0  0  0  0  0  0  0  0
    0.1319    4.6026   -0.1531 H   0  0  0  1  0  0  0  0  0  0  0  0
   -3.7154    4.0545   -1.7432 H   0  0  0  1  0  0  0  0  0  0  0  0
   -4.2379    6.3774   -1.2764 H   0  0  0  1  0  0  0  0  0  0  0  0
   -1.8142    2.4065   -2.1670 H   0  0  0  1  0  0  0  0  0  0  0  0
   -0.3168    2.6383   -1.2962 H   0  0  0  1  0  0  0  0  0  0  0  0
  1  4  1  0  0  0  0
  2  4  1  0  0  0  0
  2  5  2  0  0  0  0
  2  6  1  0  0  0  0
  3  4  1  0  0  0  0
  3  7  1  0  0  0  0
  3  8  1  0  0  0  0
  4 26  1  0  0  0  0
  6  9  1  0  0  0  0
  6 12  1  0  0  0  0
  8 10  1  0  0  0  0
  8 11  2  0  0  0  0
  9 13  1  0  0  0  0
  9 14  1  0  0  0  0
  9 15  1  0  0  0  0
 10 16  1  0  0  0  0
 10 17  1  0  0  0  0
 10 18  1  0  0  0  0
 19 20  1  0  0  0  0
 20 21  4  0  0  0  0
 20 25  4  0  0  0  0
 21 22  4  0  0  0  0
 21 27  1  0  0  0  0
 22 23  4  0  0  0  0
 22 28  1  0  0  0  0
 23 24  4  0  0  0  0
 23 26  1  0  0  0  0
 24 25  4  0  0  0  0
 24 29  1  0  0  0  0
 25 30  1  0  0  0  0
 26 31  1  0  0  0  0
 26 32  1  0  0  0  0
M  END
> <BCLConfClusterSize>
1

> <ConfClashScore>
0 

> <ConfOneFourInteractionScore>
-0.962347 

> <ConfScore>
0.324569 

> <ConfScorePBest>
0.00458703 

> <ConfTolerance>
0.450758 

> <RosettaParamsInstructions>
M  ROOT 3
M  POLY_N_BB 3
M  POLY_CA_BB 4
M  POLY_C_BB 2
M  POLY_O_BB 5
M  POLY_IGNORE 9 10 11 12 13 14 15 16 17 18 
M  POLY_UPPER 6
M  POLY_LOWER 8
M  POLY_CHG 0
M  POLY_PROPERTIES ALPHA_AA D_AA PROTEIN AROMATIC POLYMER 
M  END

$$$$



 32 32  0  0  0  0  0  0  0  0999 V2000
   -1.2605    2.8559   -3.3673 H   0  0  0  1  0  0  0  0  0  0  0  0
   -0.2138    1.1103   -2.8570 C   0  0  0  1  0  0  0  0  0  0  0  0
    0.5234    3.4758   -2.5493 N   0  0  0  1  0  0  0  0  0  0  0  0
   -0.6158    2.5512   -2.5695 C   0  0  0  1  0  0  0  0  0  0  0  0
   -0.7790    0.1624   -2.3133 O   0  0  0  1  0  0  0  0  0  0  0  0
    0.7913    0.9964   -3.7396 N   0  0  0  1  0  0  0  0  0  0  0  0
    0.3965    4.3899   -2.8790 H   0  0  0  1  0  0  0  0  0  0  0  0
    1.7360    3.1123   -2.0940 C   0  0  0  1  0  0  0  0  0  0  0  0
    1.4068   -0.2838   -4.0559 C   0  0  0  1  0  0  0  0  0  0  0  0
    2.7361    4.2375   -1.9131 C   0  0  0  1  0  0  0  0  0  0  0  0
    2.0322    1.9487   -1.8360 O   0  0  0  1  0  0  0  0  0  0  0  0
    1.1221    1.8034   -4.1864 H   0  0  0  1  0  0  0  0  0  0  0  0
    2.2199   -0.4648   -3.3843 H   0  0  0  1  0  0  0  0  0  0  0  0
    1.7724   -0.2648   -5.0613 H   0  0  0  1  0  0  0  0  0  0  0  0
    0.6806   -1.0631   -3.9545 H   0  0  0  1  0  0  0  0  0  0  0  0
    3.7246    3.8691   -2.0925 H   0  0  0  1  0  0  0  0  0  0  0  0
    2.6721    4.6141   -0.9136 H   0  0  0  1  0  0  0  0  0  0  0  0
    2.5176    5.0234   -2.6055 H   0  0  0  1  0  0  0  0  0  0  0  0
   -2.8298    8.8015   -0.0145 I   0  0  0  1  0  0  0  0  0  0  0  0
   -2.3639    6.8066   -0.4285 C   0  0  0  1  0  0  0  0  0  0  0  0
   -1.1110    6.3063   -0.1102 C   0  0  0  1  0  0  0  0  0  0  0  0
   -0.8016    4.9885   -0.3890 C   0  0  0  1  0  0  0  0  0  0  0  0
   -1.7462    4.1655   -0.9822 C   0  0  0  1  0  0  0  0  0  0  0  0
   -2.9956    4.6641   -1.2997 C   0  0  0  1  0  0  0  0  0  0  0  0
   -3.3057    5.9859   -1.0199 C   0  0  0  1  0  0  0  0  0  0  0  0
   -1.4108    2.7236   -1.2819 C   0  0  0  1  0  0  0  0  0  0  0  0
   -0.4036    6.9227    0.3385 H   0  0  0  1  0  0  0  0  0  0  0  0
    0.1398    4.6143   -0.1538 H   0  0  0  1  0  0  0  0  0  0  0  0
   -3.7029    4.0477   -1.7484 H   0  0  0  1  0  0  0  0  0  0  0  0
   -4.2471    6.3601   -1.2551 H   0  0  0  1  0  0  0  0  0  0  0  0
   -0.8336    2.3324   -0.4703 H   0  0  0  1  0  0  0  0  0  0  0  0
   -2.3239    2.1726   -1.3690 H   0  0  0  1  0  0  0  0  0  0  0  0
  1  4  1  0  0  0  0
  2  4  1  0  0  0  0
  2  5  2  0  0  0  0
  2  6  1  0  0  0  0
  3  4  1  0  0  0  0
  3  7  1  0  0  0  0
  3  8  1  0  0  0  0
  4 26  1  0  0  0  0
  6  9  1  0  0  0  0
  6 12  1  0  0  0  0
  8 10  1  0  0  0  0
  8 11  2  0  0  0  0
  9 13  1  0  0  0  0
  9 14  1  0  0  0  0
  9 15  1  0  0  0  0
 10 16  1  0  0  0  0
 10 17  1  0  0  0  0
 10 18  1  0  0  0  0
 19 20  1  0  0  0  0
 20 21  4  0  0  0  0
 20 25  4  0  0  0  0
 21 22  4  0  0  0  0
 21 27  1  0  0  0  0
 22 23  4  0  0  0  0
 22 28  1  0  0  0  0
 23 24  4  0  0  0  0
 23 26  1  0  0  0  0
 24 25  4  0  0  0  0
 24 29  1  0  0  0  0
 25 30  1  0  0  0  0
 26 31  1  0  0  0  0
 26 32  1  0  0  0  0
M  END
> <BCLConfClusterSize>
1

> <ConfClashScore>
0 

> <ConfOneFourInteractionScore>
-0.957364 

> <ConfScore>
0.326182 

> <ConfScorePBest>
0.00455855 

> <ConfTolerance>
0.40339 

> <RosettaParamsInstructions>
M  ROOT 3
M  POLY_N_BB 3
M  POLY_CA_BB 4
M  POLY_C_BB 2
M  POLY_O_BB 5
M  POLY_IGNORE 9 10 11 12 13 14 15 16 17 18 
M  POLY_UPPER 6
M  POLY_LOWER 8
M  POLY_CHG 0
M  POLY_PROPERTIES ALPHA_AA D_AA PROTEIN AROMATIC POLYMER 
M  END

$$$$



 32 32  0  0  0  0  0  0  0  0999 V2000
   -1.9178    0.9898   -2.3514 H   0  0  0  1  0  0  0  0  0  0  0  0
   -2.7188    2.6657   -3.3649 C   0  0  0  1  0  0  0  0  0  0  0  0
   -3.5549    1.6575   -1.2777 N   0  0  0  1  0  0  0  0  0  0  0  0
   -2.3721    1.9208   -2.0836 C   0  0  0  1  0  0  0  0  0  0  0  0
   -1.8537    3.2708   -3.9967 O   0  0  0  1  0  0  0  0  0  0  0  0
   -3.9942    2.6423   -3.7831 N   0  0  0  1  0  0  0  0  0  0  0  0
   -3.6677    2.1394   -0.4319 H   0  0  0  1  0  0  0  0  0  0  0  0
   -4.4922    0.7816   -1.6508 C   0  0  0  1  0  0  0  0  0  0  0  0
   -4.3671    3.2973   -5.0280 C   0  0  0  1  0  0  0  0  0  0  0  0
   -5.5206    0.3704   -0.5968 C   0  0  0  1  0  0  0  0  0  0  0  0
   -4.4962    0.2538   -2.7598 O   0  0  0  1  0  0  0  0  0  0  0  0
   -4.6756    2.1831   -3.2490 H   0  0  0  1  0  0  0  0  0  0  0  0
   -3.6416    4.0460   -5.2689 H   0  0  0  1  0  0  0  0  0  0  0  0
   -5.3278    3.7548   -4.9162 H   0  0  0  1  0  0  0  0  0  0  0  0
   -4.4059    2.5726   -5.8143 H   0  0  0  1  0  0  0  0  0  0  0  0
   -6.1481   -0.4010   -0.9918 H   0  0  0  1  0  0  0  0  0  0  0  0
   -6.1196    1.2172   -0.3338 H   0  0  0  1  0  0  0  0  0  0  0  0
   -5.0140    0.0074    0.2729 H   0  0  0  1  0  0  0  0  0  0  0  0
   -2.8248    8.8034   -0.0121 I   0  0  0  1  0  0  0  0  0  0  0  0
   -2.3649    6.8076   -0.4285 C   0  0  0  1  0  0  0  0  0  0  0  0
   -1.1130    6.3035   -0.1118 C   0  0  0  1  0  0  0  0  0  0  0  0
   -0.8076    4.9851   -0.3922 C   0  0  0  1  0  0  0  0  0  0  0  0
   -1.7550    4.1654   -0.9855 C   0  0  0  1  0  0  0  0  0  0  0  0
   -3.0032    4.6678   -1.3014 C   0  0  0  1  0  0  0  0  0  0  0  0
   -3.3094    5.9902   -1.0201 C   0  0  0  1  0  0  0  0  0  0  0  0
   -1.3672    2.7173   -1.2675 C   0  0  0  1  0  0  0  0  0  0  0  0
   -0.4036    6.9175    0.3370 H   0  0  0  1  0  0  0  0  0  0  0  0
    0.1330    4.6081   -0.1582 H   0  0  0  1  0  0  0  0  0  0  0  0
   -3.7126    4.0538   -1.7502 H   0  0  0  1  0  0  0  0  0  0  0  0
   -4.2500    6.3672   -1.2541 H   0  0  0  1  0  0  0  0  0  0  0  0
   -0.4391    2.7218   -1.8000 H   0  0  0  1  0  0  0  0  0  0  0  0
   -1.2376    2.2213   -0.3283 H   0  0  0  1  0  0  0  0  0  0  0  0
  1  4  1  0  0  0  0
  2  4  1  0  0  0  0
  2  5  2  0  0  0  0
  2  6  1  0  0  0  0
  3  4  1  0  0  0  0
  3  7  1  0  0  0  0
  3  8  1  0  0  0  0
  4 26  1  0  0  0  0
  6  9  1  0  0  0  0
  6 12  1  0  0  0  0
  8 10  1  0  0  0  0
  8 11  2  0  0  0  0
  9 13  1  0  0  0  0
  9 14  1  0  0  0  0
  9 15  1  0  0  0  0
 10 16  1  0  0  0  0
 10 17  1  0  0  0  0
 10 18  1  0  0  0  0
 19 20  1  0  0  0  0
 20 21  4  0  0  0  0
 20 25  4  0  0  0  0
 21 22  4  0  0  0  0
 21 27  1  0  0  0  0
 22 23  4  0  0  0  0
 22 28  1  0  0  0  0
 23 24  4  0  0  0  0
 23 26  1  0  0  0  0
 24 25  4  0  0  0  0
 24 29  1  0  0  0  0
 25 30  1  0  0  0  0
 26 31  1  0  0  0  0
 26 32  1  0  0  0  0
M  END
> <BCLConfClusterSize>
1

> <ConfClashScore>
0.00431119 

> <ConfOneFourInteractionScore>
-0.949633 

> <ConfScore>
0.32621 

> <ConfScorePBest>
0.00453007 

> <ConfTolerance>
0.37798 

> <RosettaParamsInstructions>
M  ROOT 3
M  POLY_N_BB 3
M  POLY_CA_BB 4
M  POLY_C_BB 2
M  POLY_O_BB 5
M  POLY_IGNORE 9 10 11 12 13 14 15 16 17 18 
M  POLY_UPPER 6
M  POLY_LOWER 8
M  POLY_CHG 0
M  POLY_PROPERTIES ALPHA_AA D_AA PROTEIN AROMATIC POLYMER 
M  END

$$$$



 32 32  0  0  0  0  0  0  0  0999 V2000
   -3.1600    1.7372   -0.7265 H   0  0  0  1  0  0  0  0  0  0  0  0
   -2.0025    1.9878    1.0771 C   0  0  0  1  0  0  0  0  0  0  0  0
   -1.6201    0.3549   -0.7854 N   0  0  0  1  0  0  0  0  0  0  0  0
   -2.1259    1.6830   -0.4571 C   0  0  0  1  0  0  0  0  0  0  0  0
   -2.2881    3.0325    1.5364 O   0  0  0  1  0  0  0  0  0  0  0  0
   -1.5444    1.0011    1.9204 N   0  0  0  1  0  0  0  0  0  0  0  0
   -0.7338    0.2972   -1.1996 H   0  0  0  1  0  0  0  0  0  0  0  0
   -2.2730   -0.7871   -0.5642 C   0  0  0  1  0  0  0  0  0  0  0  0
   -1.3194    1.1642    3.3489 C   0  0  0  1  0  0  0  0  0  0  0  0
   -1.5797   -2.0463   -1.0466 C   0  0  0  1  0  0  0  0  0  0  0  0
   -3.3664   -0.8351   -0.0070 O   0  0  0  1  0  0  0  0  0  0  0  0
   -1.3555    0.1225    1.5294 H   0  0  0  1  0  0  0  0  0  0  0  0
   -0.4769    1.8046    3.5069 H   0  0  0  1  0  0  0  0  0  0  0  0
   -1.1287    0.2087    3.7910 H   0  0  0  1  0  0  0  0  0  0  0  0
   -2.1871    1.5993    3.7990 H   0  0  0  1  0  0  0  0  0  0  0  0
   -0.6151   -2.1205   -0.5894 H   0  0  0  1  0  0  0  0  0  0  0  0
   -1.4680   -2.0065   -2.1100 H   0  0  0  1  0  0  0  0  0  0  0  0
   -2.1667   -2.9005   -0.7809 H   0  0  0  1  0  0  0  0  0  0  0  0
   -2.8245    8.8022   -0.0124 I   0  0  0  1  0  0  0  0  0  0  0  0
   -2.3645    6.8064   -0.4288 C   0  0  0  1  0  0  0  0  0  0  0  0
   -1.1127    6.3023   -0.1120 C   0  0  0  1  0  0  0  0  0  0  0  0
   -0.8072    4.9839   -0.3924 C   0  0  0  1  0  0  0  0  0  0  0  0
   -1.7547    4.1642   -0.9857 C   0  0  0  1  0  0  0  0  0  0  0  0
   -3.0029    4.6666   -1.3016 C   0  0  0  1  0  0  0  0  0  0  0  0
   -3.3091    5.9890   -1.0203 C   0  0  0  1  0  0  0  0  0  0  0  0
   -1.3707    2.7303   -1.2650 C   0  0  0  1  0  0  0  0  0  0  0  0
   -0.4033    6.9163    0.3368 H   0  0  0  1  0  0  0  0  0  0  0  0
    0.1333    4.6069   -0.1584 H   0  0  0  1  0  0  0  0  0  0  0  0
   -3.7123    4.0526   -1.7504 H   0  0  0  1  0  0  0  0  0  0  0  0
   -4.2497    6.3660   -1.2543 H   0  0  0  1  0  0  0  0  0  0  0  0
   -1.5473    2.5374   -2.3025 H   0  0  0  1  0  0  0  0  0  0  0  0
   -0.3274    2.6209   -1.0539 H   0  0  0  1  0  0  0  0  0  0  0  0
  1  4  1  0  0  0  0
  2  4  1  0  0  0  0
  2  5  2  0  0  0  0
  2  6  1  0  0  0  0
  3  4  1  0  0  0  0
  3  7  1  0  0  0  0
  3  8  1  0  0  0  0
  4 26  1  0  0  0  0
  6  9  1  0  0  0  0
  6 12  1  0  0  0  0
  8 10  1  0  0  0  0
  8 11  2  0  0  0  0
  9 13  1  0  0  0  0
  9 14  1  0  0  0  0
  9 15  1  0  0  0  0
 10 16  1  0  0  0  0
 10 17  1  0  0  0  0
 10 18  1  0  0  0  0
 19 20  1  0  0  0  0
 20 21  4  0  0  0  0
 20 25  4  0  0  0  0
 21 22  4  0  0  0  0
 21 27  1  0  0  0  0
 22 23  4  0  0  0  0
 22 28  1  0  0  0  0
 23 24  4  0  0  0  0
 23 26  1  0  0  0  0
 24 25  4  0  0  0  0
 24 29  1  0  0  0  0
 25 30  1  0  0  0  0
 26 31  1  0  0  0  0
 26 32  1  0  0  0  0
M  END
> <BCLConfClusterSize>
1

> <ConfClashScore>
0 

> <ConfOneFourInteractionScore>
-0.960318 

> <ConfScore>
0.335778 

> <ConfScorePBest>
0.00450159 

> <ConfTolerance>
0.274525 

> <RosettaParamsInstructions>
M  ROOT 3
M  POLY_N_BB 3
M  POLY_CA_BB 4
M  POLY_C_BB 2
M  POLY_O_BB 5
M  POLY_IGNORE 9 10 11 12 13 14 15 16 17 18 
M  POLY_UPPER 6
M  POLY_LOWER 8
M  POLY_CHG 0
M  POLY_PROPERTIES ALPHA_AA D_AA PROTEIN AROMATIC POLYMER 
M  END

$$$$



 32 32  0  0  0  0  0  0  0  0999 V2000
   -3.3295    1.9120   -1.5310 H   0  0  0  1  0  0  0  0  0  0  0  0
   -2.9563    2.0701    0.5274 C   0  0  0  1  0  0  0  0  0  0  0  0
   -2.0080    0.4070   -1.0741 N   0  0  0  1  0  0  0  0  0  0  0  0
   -2.4904    1.7666   -0.8832 C   0  0  0  1  0  0  0  0  0  0  0  0
   -3.9376    2.7909    0.7375 O   0  0  0  1  0  0  0  0  0  0  0  0
   -2.2376    1.5085    1.5125 N   0  0  0  1  0  0  0  0  0  0  0  0
   -1.1283    0.2704   -1.4840 H   0  0  0  1  0  0  0  0  0  0  0  0
   -2.7226   -0.6616   -0.7100 C   0  0  0  1  0  0  0  0  0  0  0  0
   -2.5441    1.7244    2.9186 C   0  0  0  1  0  0  0  0  0  0  0  0
   -2.0507   -2.0051   -0.9167 C   0  0  0  1  0  0  0  0  0  0  0  0
   -3.8529   -0.5804   -0.2365 O   0  0  0  1  0  0  0  0  0  0  0  0
   -1.4802    0.9332    1.2764 H   0  0  0  1  0  0  0  0  0  0  0  0
   -2.4362    2.7630    3.1524 H   0  0  0  1  0  0  0  0  0  0  0  0
   -1.8714    1.1515    3.5221 H   0  0  0  1  0  0  0  0  0  0  0  0
   -3.5501    1.4174    3.1153 H   0  0  0  1  0  0  0  0  0  0  0  0
   -1.6165   -2.0407   -1.8940 H   0  0  0  1  0  0  0  0  0  0  0  0
   -2.7766   -2.7852   -0.8206 H   0  0  0  1  0  0  0  0  0  0  0  0
   -1.2847   -2.1373   -0.1814 H   0  0  0  1  0  0  0  0  0  0  0  0
   -2.8231    8.8071   -0.0353 I   0  0  0  1  0  0  0  0  0  0  0  0
   -2.3624    6.8074   -0.4319 C   0  0  0  1  0  0  0  0  0  0  0  0
   -1.1115    6.3061   -0.1074 C   0  0  0  1  0  0  0  0  0  0  0  0
   -0.8056    4.9851   -0.3748 C   0  0  0  1  0  0  0  0  0  0  0  0
   -1.7517    4.1600   -0.9627 C   0  0  0  1  0  0  0  0  0  0  0  0
   -2.9991    4.6597   -1.2863 C   0  0  0  1  0  0  0  0  0  0  0  0
   -3.3057    5.9847   -1.0181 C   0  0  0  1  0  0  0  0  0  0  0  0
   -1.3973    2.7414   -1.3414 C   0  0  0  1  0  0  0  0  0  0  0  0
   -0.4031    6.9241    0.3373 H   0  0  0  1  0  0  0  0  0  0  0  0
    0.1343    4.6101   -0.1349 H   0  0  0  1  0  0  0  0  0  0  0  0
   -3.7075    4.0417   -1.7311 H   0  0  0  1  0  0  0  0  0  0  0  0
   -4.2456    6.3597   -1.2579 H   0  0  0  1  0  0  0  0  0  0  0  0
   -1.2934    2.6776   -2.4044 H   0  0  0  1  0  0  0  0  0  0  0  0
   -0.4717    2.4748   -0.8754 H   0  0  0  1  0  0  0  0  0  0  0  0
  1  4  1  0  0  0  0
  2  4  1  0  0  0  0
  2  5  2  0  0  0  0
  2  6  1  0  0  0  0
  3  4  1  0  0  0  0
  3  7  1  0  0  0  0
  3  8  1  0  0  0  0
  4 26  1  0  0  0  0
  6  9  1  0  0  0  0
  6 12  1  0  0  0  0
  8 10  1  0  0  0  0
  8 11  2  0  0  0  0
  9 13  1  0  0  0  0
  9 14  1  0  0  0  0
  9 15  1  0  0  0  0
 10 16  1  0  0  0  0
 10 17  1  0  0  0  0
 10 18  1  0  0  0  0
 19 20  1  0  0  0  0
 20 21  4  0  0  0  0
 20 25  4  0  0  0  0
 21 22  4  0  0  0  0
 21 27  1  0  0  0  0
 22 23  4  0  0  0  0
 22 28  1  0  0  0  0
 23 24  4  0  0  0  0
 23 26  1  0  0  0  0
 24 25  4  0  0  0  0
 24 29  1  0  0  0  0
 25 30  1  0  0  0  0
 26 31  1  0  0  0  0
 26 32  1  0  0  0  0
M  END
> <BCLConfClusterSize>
1

> <ConfClashScore>
0 

> <ConfOneFourInteractionScore>
-0.953269 

> <ConfScore>
0.340977 

> <ConfScorePBest>
0.00447311 

> <ConfTolerance>
0.468786 

> <RosettaParamsInstructions>
M  ROOT 3
M  POLY_N_BB 3
M  POLY_CA_BB 4
M  POLY_C_BB 2
M  POLY_O_BB 5
M  POLY_IGNORE 9 10 11 12 13 14 15 16 17 18 
M  POLY_UPPER 6
M  POLY_LOWER 8
M  POLY_CHG 0
M  POLY_PROPERTIES ALPHA_AA D_AA PROTEIN AROMATIC POLYMER 
M  END

$$$$



 32 32  0  0  0  0  0  0  0  0999 V2000
    0.1355    3.2805   -2.5947 H   0  0  0  1  0  0  0  0  0  0  0  0
   -1.5287    2.9934   -3.8308 C   0  0  0  1  0  0  0  0  0  0  0  0
   -0.1362    1.2456   -2.7970 N   0  0  0  1  0  0  0  0  0  0  0  0
   -0.6912    2.6020   -2.6283 C   0  0  0  1  0  0  0  0  0  0  0  0
   -2.6001    3.5624   -3.6260 O   0  0  0  1  0  0  0  0  0  0  0  0
   -1.0624    2.7019   -5.0432 N   0  0  0  1  0  0  0  0  0  0  0  0
   -0.7525    0.4853   -2.8473 H   0  0  0  1  0  0  0  0  0  0  0  0
    1.1774    1.0176   -2.8835 C   0  0  0  1  0  0  0  0  0  0  0  0
   -1.7875    3.0438   -6.2578 C   0  0  0  1  0  0  0  0  0  0  0  0
    1.5803   -0.4190   -3.1534 C   0  0  0  1  0  0  0  0  0  0  0  0
    2.0206    1.9036   -2.7553 O   0  0  0  1  0  0  0  0  0  0  0  0
   -0.2010    2.2411   -5.1205 H   0  0  0  1  0  0  0  0  0  0  0  0
   -2.8400    2.9856   -6.0739 H   0  0  0  1  0  0  0  0  0  0  0  0
   -1.5231    2.3583   -7.0356 H   0  0  0  1  0  0  0  0  0  0  0  0
   -1.5325    4.0390   -6.5569 H   0  0  0  1  0  0  0  0  0  0  0  0
    2.2114   -0.4569   -4.0166 H   0  0  0  1  0  0  0  0  0  0  0  0
    0.7041   -1.0084   -3.3264 H   0  0  0  1  0  0  0  0  0  0  0  0
    2.1096   -0.8056   -2.3077 H   0  0  0  1  0  0  0  0  0  0  0  0
   -2.8298    8.8015   -0.0145 I   0  0  0  1  0  0  0  0  0  0  0  0
   -2.3639    6.8066   -0.4285 C   0  0  0  1  0  0  0  0  0  0  0  0
   -1.1110    6.3063   -0.1102 C   0  0  0  1  0  0  0  0  0  0  0  0
   -0.8016    4.9885   -0.3890 C   0  0  0  1  0  0  0  0  0  0  0  0
   -1.7462    4.1655   -0.9822 C   0  0  0  1  0  0  0  0  0  0  0  0
   -2.9956    4.6641   -1.2997 C   0  0  0  1  0  0  0  0  0  0  0  0
   -3.3057    5.9859   -1.0199 C   0  0  0  1  0  0  0  0  0  0  0  0
   -1.4108    2.7236   -1.2819 C   0  0  0  1  0  0  0  0  0  0  0  0
   -0.4036    6.9227    0.3385 H   0  0  0  1  0  0  0  0  0  0  0  0
    0.1398    4.6143   -0.1538 H   0  0  0  1  0  0  0  0  0  0  0  0
   -3.7029    4.0477   -1.7484 H   0  0  0  1  0  0  0  0  0  0  0  0
   -4.2471    6.3601   -1.2551 H   0  0  0  1  0  0  0  0  0  0  0  0
   -0.7759    2.3432   -0.5092 H   0  0  0  1  0  0  0  0  0  0  0  0
   -2.3151    2.1526   -1.3146 H   0  0  0  1  0  0  0  0  0  0  0  0
  1  4  1  0  0  0  0
  2  4  1  0  0  0  0
  2  5  2  0  0  0  0
  2  6  1  0  0  0  0
  3  4  1  0  0  0  0
  3  7  1  0  0  0  0
  3  8  1  0  0  0  0
  4 26  1  0  0  0  0
  6  9  1  0  0  0  0
  6 12  1  0  0  0  0
  8 10  1  0  0  0  0
  8 11  2  0  0  0  0
  9 13  1  0  0  0  0
  9 14  1  0  0  0  0
  9 15  1  0  0  0  0
 10 16  1  0  0  0  0
 10 17  1  0  0  0  0
 10 18  1  0  0  0  0
 19 20  1  0  0  0  0
 20 21  4  0  0  0  0
 20 25  4  0  0  0  0
 21 22  4  0  0  0  0
 21 27  1  0  0  0  0
 22 23  4  0  0  0  0
 22 28  1  0  0  0  0
 23 24  4  0  0  0  0
 23 26  1  0  0  0  0
 24 25  4  0  0  0  0
 24 29  1  0  0  0  0
 25 30  1  0  0  0  0
 26 31  1  0  0  0  0
 26 32  1  0  0  0  0
M  END
> <BCLConfClusterSize>
1

> <ConfClashScore>
0 

> <ConfOneFourInteractionScore>
-0.979783 

> <ConfScore>
0.341137 

> <ConfScorePBest>
0.00444463 

> <ConfTolerance>
0.467991 

> <RosettaParamsInstructions>
M  ROOT 3
M  POLY_N_BB 3
M  POLY_CA_BB 4
M  POLY_C_BB 2
M  POLY_O_BB 5
M  POLY_IGNORE 9 10 11 12 13 14 15 16 17 18 
M  POLY_UPPER 6
M  POLY_LOWER 8
M  POLY_CHG 0
M  POLY_PROPERTIES ALPHA_AA D_AA PROTEIN AROMATIC POLYMER 
M  END

$$$$



 32 32  0  0  0  0  0  0  0  0999 V2000
   -3.3310    2.1121   -0.5587 H   0  0  0  1  0  0  0  0  0  0  0  0
   -1.9889    1.8407    1.0360 C   0  0  0  1  0  0  0  0  0  0  0  0
   -2.2104    0.4122   -0.9243 N   0  0  0  1  0  0  0  0  0  0  0  0
   -2.3147    1.7975   -0.4443 C   0  0  0  1  0  0  0  0  0  0  0  0
   -2.3922    2.6939    1.8047 O   0  0  0  1  0  0  0  0  0  0  0  0
   -1.2019    0.8389    1.4387 N   0  0  0  1  0  0  0  0  0  0  0  0
   -1.5274    0.1933   -1.5922 H   0  0  0  1  0  0  0  0  0  0  0  0
   -3.0142   -0.5589   -0.4818 C   0  0  0  1  0  0  0  0  0  0  0  0
   -0.7985    0.6773    2.8276 C   0  0  0  1  0  0  0  0  0  0  0  0
   -2.9468   -1.8681   -1.2438 C   0  0  0  1  0  0  0  0  0  0  0  0
   -3.7676   -0.4184    0.4806 O   0  0  0  1  0  0  0  0  0  0  0  0
   -0.8852    0.1904    0.7757 H   0  0  0  1  0  0  0  0  0  0  0  0
   -0.8582    1.6207    3.3289 H   0  0  0  1  0  0  0  0  0  0  0  0
    0.2079    0.3160    2.8667 H   0  0  0  1  0  0  0  0  0  0  0  0
   -1.4486   -0.0235    3.3083 H   0  0  0  1  0  0  0  0  0  0  0  0
   -3.6874   -1.8704   -2.0161 H   0  0  0  1  0  0  0  0  0  0  0  0
   -3.1295   -2.6810   -0.5725 H   0  0  0  1  0  0  0  0  0  0  0  0
   -1.9761   -1.9768   -1.6805 H   0  0  0  1  0  0  0  0  0  0  0  0
   -2.8353    8.8006   -0.0169 I   0  0  0  1  0  0  0  0  0  0  0  0
   -2.3632    6.8066   -0.4282 C   0  0  0  1  0  0  0  0  0  0  0  0
   -1.1090    6.3104   -0.1083 C   0  0  0  1  0  0  0  0  0  0  0  0
   -0.7955    4.9932   -0.3854 C   0  0  0  1  0  0  0  0  0  0  0  0
   -1.7371    4.1668   -0.9784 C   0  0  0  1  0  0  0  0  0  0  0  0
   -2.9877    4.6613   -1.2976 C   0  0  0  1  0  0  0  0  0  0  0  0
   -3.3020    5.9825   -1.0196 C   0  0  0  1  0  0  0  0  0  0  0  0
   -1.4543    2.7182   -1.2996 C   0  0  0  1  0  0  0  0  0  0  0  0
   -0.4039    6.9294    0.3404 H   0  0  0  1  0  0  0  0  0  0  0  0
    0.1469    4.6221   -0.1489 H   0  0  0  1  0  0  0  0  0  0  0  0
   -3.6928    4.0423   -1.7462 H   0  0  0  1  0  0  0  0  0  0  0  0
   -4.2443    6.3536   -1.2560 H   0  0  0  1  0  0  0  0  0  0  0  0
   -1.6689    2.5395   -2.3325 H   0  0  0  1  0  0  0  0  0  0  0  0
   -0.4220    2.5116   -1.1083 H   0  0  0  1  0  0  0  0  0  0  0  0
  1  4  1  0  0  0  0
  2  4  1  0  0  0  0
  2  5  2  0  0  0  0
  2  6  1  0  0  0  0
  3  4  1  0  0  0  0
  3  7  1  0  0  0  0
  3  8  1  0  0  0  0
  4 26  1  0  0  0  0
  6  9  1  0  0  0  0
  6 12  1  0  0  0  0
  8 10  1  0  0  0  0
  8 11  2  0  0  0  0
  9 13  1  0  0  0  0
  9 14  1  0  0  0  0
  9 15  1  0  0  0  0
 10 16  1  0  0  0  0
 10 17  1  0  0  0  0
 10 18  1  0  0  0  0
 19 20  1  0  0  0  0
 20 21  4  0  0  0  0
 20 25  4  0  0  0  0
 21 22  4  0  0  0  0
 21 27  1  0  0  0  0
 22 23  4  0  0  0  0
 22 28  1  0  0  0  0
 23 24  4  0  0  0  0
 23 26  1  0  0  0  0
 24 25  4  0  0  0  0
 24 29  1  0  0  0  0
 25 30  1  0  0  0  0
 26 31  1  0  0  0  0
 26 32  1  0  0  0  0
M  END
> <BCLConfClusterSize>
1

> <ConfClashScore>
0 

> <ConfOneFourInteractionScore>
-0.94165 

> <ConfScore>
0.341523 

> <ConfScorePBest>
0.00441614 

> <ConfTolerance>
0.498612 

> <RosettaParamsInstructions>
M  ROOT 3
M  POLY_N_BB 3
M  POLY_CA_BB 4
M  POLY_C_BB 2
M  POLY_O_BB 5
M  POLY_IGNORE 9 10 11 12 13 14 15 16 17 18 
M  POLY_UPPER 6
M  POLY_LOWER 8
M  POLY_CHG 0
M  POLY_PROPERTIES ALPHA_AA D_AA PROTEIN AROMATIC POLYMER 
M  END

$$$$



 32 32  0  0  0  0  0  0  0  0999 V2000
   -1.5766    3.0982   -3.3740 H   0  0  0  1  0  0  0  0  0  0  0  0
   -0.8881    1.1238   -3.1645 C   0  0  0  1  0  0  0  0  0  0  0  0
    0.4042    3.1951   -2.8242 N   0  0  0  1  0  0  0  0  0  0  0  0
   -0.9082    2.5743   -2.7231 C   0  0  0  1  0  0  0  0  0  0  0  0
   -1.9088    0.4371   -3.1476 O   0  0  0  1  0  0  0  0  0  0  0  0
    0.3022    0.6534   -3.5671 N   0  0  0  1  0  0  0  0  0  0  0  0
    1.1232    2.8792   -2.2381 H   0  0  0  1  0  0  0  0  0  0  0  0
    0.6623    4.1793   -3.6868 C   0  0  0  1  0  0  0  0  0  0  0  0
    0.5647   -0.7232   -3.9594 C   0  0  0  1  0  0  0  0  0  0  0  0
    2.0663    4.7495   -3.6347 C   0  0  0  1  0  0  0  0  0  0  0  0
   -0.1726    4.6099   -4.4813 O   0  0  0  1  0  0  0  0  0  0  0  0
    1.0513    1.2845   -3.5995 H   0  0  0  1  0  0  0  0  0  0  0  0
    1.3262   -1.1348   -3.3304 H   0  0  0  1  0  0  0  0  0  0  0  0
    0.8921   -0.7474   -4.9778 H   0  0  0  1  0  0  0  0  0  0  0  0
   -0.3311   -1.2996   -3.8583 H   0  0  0  1  0  0  0  0  0  0  0  0
    2.5291    4.4754   -2.7097 H   0  0  0  1  0  0  0  0  0  0  0  0
    2.0209    5.8160   -3.7082 H   0  0  0  1  0  0  0  0  0  0  0  0
    2.6399    4.3595   -4.4495 H   0  0  0  1  0  0  0  0  0  0  0  0
   -2.8353    8.8006   -0.0169 I   0  0  0  1  0  0  0  0  0  0  0  0
   -2.3632    6.8066   -0.4282 C   0  0  0  1  0  0  0  0  0  0  0  0
   -1.1090    6.3104   -0.1083 C   0  0  0  1  0  0  0  0  0  0  0  0
   -0.7955    4.9932   -0.3854 C   0  0  0  1  0  0  0  0  0  0  0  0
   -1.7371    4.1668   -0.9784 C   0  0  0  1  0  0  0  0  0  0  0  0
   -2.9877    4.6613   -1.2976 C   0  0  0  1  0  0  0  0  0  0  0  0
   -3.3020    5.9825   -1.0196 C   0  0  0  1  0  0  0  0  0  0  0  0
   -1.4543    2.7182   -1.2996 C   0  0  0  1  0  0  0  0  0  0  0  0
   -0.4039    6.9294    0.3404 H   0  0  0  1  0  0  0  0  0  0  0  0
    0.1469    4.6221   -0.1489 H   0  0  0  1  0  0  0  0  0  0  0  0
   -3.6928    4.0423   -1.7462 H   0  0  0  1  0  0  0  0  0  0  0  0
   -4.2443    6.3536   -1.2560 H   0  0  0  1  0  0  0  0  0  0  0  0
   -0.7320    2.3398   -0.6068 H   0  0  0  1  0  0  0  0  0  0  0  0
   -2.3607    2.1563   -1.2131 H   0  0  0  1  0  0  0  0  0  0  0  0
  1  4  1  0  0  0  0
  2  4  1  0  0  0  0
  2  5  2  0  0  0  0
  2  6  1  0  0  0  0
  3  4  1  0  0  0  0
  3  7  1  0  0  0  0
  3  8  1  0  0  0  0
  4 26  1  0  0  0  0
  6  9  1  0  0  0  0
  6 12  1  0  0  0  0
  8 10  1  0  0  0  0
  8 11  2  0  0  0  0
  9 13  1  0  0  0  0
  9 14  1  0  0  0  0
  9 15  1  0  0  0  0
 10 16  1  0  0  0  0
 10 17  1  0  0  0  0
 10 18  1  0  0  0  0
 19 20  1  0  0  0  0
 20 21  4  0  0  0  0
 20 25  4  0  0  0  0
 21 22  4  0  0  0  0
 21 27  1  0  0  0  0
 22 23  4  0  0  0  0
 22 28  1  0  0  0  0
 23 24  4  0  0  0  0
 23 26  1  0  0  0  0
 24 25  4  0  0  0  0
 24 29  1  0  0  0  0
 25 30  1  0  0  0  0
 26 31  1  0  0  0  0
 26 32  1  0  0  0  0
M  END
> <BCLConfClusterSize>
1

> <ConfClashScore>
0 

> <ConfOneFourInteractionScore>
-0.956443 

> <ConfScore>
0.343292 

> <ConfScorePBest>
0.00438766 

> <ConfTolerance>
0.503624 

> <RosettaParamsInstructions>
M  ROOT 3
M  POLY_N_BB 3
M  POLY_CA_BB 4
M  POLY_C_BB 2
M  POLY_O_BB 5
M  POLY_IGNORE 9 10 11 12 13 14 15 16 17 18 
M  POLY_UPPER 6
M  POLY_LOWER 8
M  POLY_CHG 0
M  POLY_PROPERTIES ALPHA_AA D_AA PROTEIN AROMATIC POLYMER 
M  END

$$$$



 32 32  0  0  0  0  0  0  0  0999 V2000
   -1.4422    0.7779   -0.4748 H   0  0  0  1  0  0  0  0  0  0  0  0
   -3.4181    1.4982   -0.3461 C   0  0  0  1  0  0  0  0  0  0  0  0
   -1.4982    2.1573    1.0679 N   0  0  0  1  0  0  0  0  0  0  0  0
   -1.9180    1.7130   -0.2646 C   0  0  0  1  0  0  0  0  0  0  0  0
   -4.0596    2.0029   -1.2638 O   0  0  0  1  0  0  0  0  0  0  0  0
   -3.9621    0.6773    0.5663 N   0  0  0  1  0  0  0  0  0  0  0  0
   -0.5393    2.1418    1.2694 H   0  0  0  1  0  0  0  0  0  0  0  0
   -2.3252    2.5820    2.0291 C   0  0  0  1  0  0  0  0  0  0  0  0
   -5.3841    0.3685    0.5843 C   0  0  0  1  0  0  0  0  0  0  0  0
   -1.7292    2.6670    3.4208 C   0  0  0  1  0  0  0  0  0  0  0  0
   -3.4972    2.8885    1.8169 O   0  0  0  1  0  0  0  0  0  0  0  0
   -3.3815    0.2720    1.2437 H   0  0  0  1  0  0  0  0  0  0  0  0
   -5.6535   -0.0181    1.5450 H   0  0  0  1  0  0  0  0  0  0  0  0
   -5.5997   -0.3622   -0.1671 H   0  0  0  1  0  0  0  0  0  0  0  0
   -5.9447    1.2585    0.3883 H   0  0  0  1  0  0  0  0  0  0  0  0
   -0.9028    1.9917    3.4972 H   0  0  0  1  0  0  0  0  0  0  0  0
   -2.4728    2.4035    4.1437 H   0  0  0  1  0  0  0  0  0  0  0  0
   -1.3915    3.6657    3.6035 H   0  0  0  1  0  0  0  0  0  0  0  0
   -2.8828    8.7926   -0.0369 I   0  0  0  1  0  0  0  0  0  0  0  0
   -2.3514    6.8085   -0.4233 C   0  0  0  1  0  0  0  0  0  0  0  0
   -1.1003    6.3019   -0.1075 C   0  0  0  1  0  0  0  0  0  0  0  0
   -0.7974    4.9832   -0.3890 C   0  0  0  1  0  0  0  0  0  0  0  0
   -1.7466    4.1656   -0.9823 C   0  0  0  1  0  0  0  0  0  0  0  0
   -2.9941    4.6705   -1.2972 C   0  0  0  1  0  0  0  0  0  0  0  0
   -3.2978    5.9932   -1.0148 C   0  0  0  1  0  0  0  0  0  0  0  0
   -1.4183    2.7226   -1.2849 C   0  0  0  1  0  0  0  0  0  0  0  0
   -0.3895    6.9143    0.3413 H   0  0  0  1  0  0  0  0  0  0  0  0
    0.1426    4.6042   -0.1557 H   0  0  0  1  0  0  0  0  0  0  0  0
   -3.7049    4.0581   -1.7460 H   0  0  0  1  0  0  0  0  0  0  0  0
   -4.2378    6.3722   -1.2481 H   0  0  0  1  0  0  0  0  0  0  0  0
   -1.8518    2.4771   -2.2319 H   0  0  0  1  0  0  0  0  0  0  0  0
   -0.3539    2.6320   -1.3451 H   0  0  0  1  0  0  0  0  0  0  0  0
  1  4  1  0  0  0  0
  2  4  1  0  0  0  0
  2  5  2  0  0  0  0
  2  6  1  0  0  0  0
  3  4  1  0  0  0  0
  3  7  1  0  0  0  0
  3  8  1  0  0  0  0
  4 26  1  0  0  0  0
  6  9  1  0  0  0  0
  6 12  1  0  0  0  0
  8 10  1  0  0  0  0
  8 11  2  0  0  0  0
  9 13  1  0  0  0  0
  9 14  1  0  0  0  0
  9 15  1  0  0  0  0
 10 16  1  0  0  0  0
 10 17  1  0  0  0  0
 10 18  1  0  0  0  0
 19 20  1  0  0  0  0
 20 21  4  0  0  0  0
 20 25  4  0  0  0  0
 21 22  4  0  0  0  0
 21 27  1  0  0  0  0
 22 23  4  0  0  0  0
 22 28  1  0  0  0  0
 23 24  4  0  0  0  0
 23 26  1  0  0  0  0
 24 25  4  0  0  0  0
 24 29  1  0  0  0  0
 25 30  1  0  0  0  0
 26 31  1  0  0  0  0
 26 32  1  0  0  0  0
M  END
> <BCLConfClusterSize>
1

> <ConfClashScore>
0 

> <ConfOneFourInteractionScore>
-0.966825 

> <ConfScore>
0.345319 

> <ConfScorePBest>
0.00435918 

> <ConfTolerance>
0.275683 

> <RosettaParamsInstructions>
M  ROOT 3
M  POLY_N_BB 3
M  POLY_CA_BB 4
M  POLY_C_BB 2
M  POLY_O_BB 5
M  POLY_IGNORE 9 10 11 12 13 14 15 16 17 18 
M  POLY_UPPER 6
M  POLY_LOWER 8
M  POLY_CHG 0
M  POLY_PROPERTIES ALPHA_AA D_AA PROTEIN AROMATIC POLYMER 
M  END

$$$$



 32 32  0  0  0  0  0  0  0  0999 V2000
   -2.0168    0.7502   -1.3633 H   0  0  0  1  0  0  0  0  0  0  0  0
   -3.2740    1.8339   -2.6379 C   0  0  0  1  0  0  0  0  0  0  0  0
   -3.3805    1.7470   -0.1895 N   0  0  0  1  0  0  0  0  0  0  0  0
   -2.4839    1.7128   -1.3494 C   0  0  0  1  0  0  0  0  0  0  0  0
   -2.7396    1.6309   -3.7273 O   0  0  0  1  0  0  0  0  0  0  0  0
   -4.5713    2.1687   -2.5536 N   0  0  0  1  0  0  0  0  0  0  0  0
   -3.4750    2.5845    0.3106 H   0  0  0  1  0  0  0  0  0  0  0  0
   -4.0729    0.6762    0.2092 C   0  0  0  1  0  0  0  0  0  0  0  0
   -5.3953    2.3899   -3.7326 C   0  0  0  1  0  0  0  0  0  0  0  0
   -4.9635    0.8808    1.4193 C   0  0  0  1  0  0  0  0  0  0  0  0
   -4.0052   -0.4141   -0.3567 O   0  0  0  1  0  0  0  0  0  0  0  0
   -4.9776    2.2675   -1.6673 H   0  0  0  1  0  0  0  0  0  0  0  0
   -4.8176    2.1996   -4.6129 H   0  0  0  1  0  0  0  0  0  0  0  0
   -5.7376    3.4036   -3.7431 H   0  0  0  1  0  0  0  0  0  0  0  0
   -6.2365    1.7291   -3.7086 H   0  0  0  1  0  0  0  0  0  0  0  0
   -5.3831    1.8646    1.3917 H   0  0  0  1  0  0  0  0  0  0  0  0
   -4.3844    0.7652    2.3116 H   0  0  0  1  0  0  0  0  0  0  0  0
   -5.7513    0.1568    1.4085 H   0  0  0  1  0  0  0  0  0  0  0  0
   -2.8245    8.8022   -0.0124 I   0  0  0  1  0  0  0  0  0  0  0  0
   -2.3645    6.8064   -0.4288 C   0  0  0  1  0  0  0  0  0  0  0  0
   -1.1127    6.3023   -0.1120 C   0  0  0  1  0  0  0  0  0  0  0  0
   -0.8072    4.9839   -0.3924 C   0  0  0  1  0  0  0  0  0  0  0  0
   -1.7547    4.1642   -0.9857 C   0  0  0  1  0  0  0  0  0  0  0  0
   -3.0029    4.6666   -1.3016 C   0  0  0  1  0  0  0  0  0  0  0  0
   -3.3091    5.9890   -1.0203 C   0  0  0  1  0  0  0  0  0  0  0  0
   -1.3707    2.7303   -1.2650 C   0  0  0  1  0  0  0  0  0  0  0  0
   -0.4033    6.9163    0.3368 H   0  0  0  1  0  0  0  0  0  0  0  0
    0.1333    4.6069   -0.1584 H   0  0  0  1  0  0  0  0  0  0  0  0
   -3.7123    4.0526   -1.7504 H   0  0  0  1  0  0  0  0  0  0  0  0
   -4.2497    6.3660   -1.2543 H   0  0  0  1  0  0  0  0  0  0  0  0
   -0.8508    2.7144   -2.2001 H   0  0  0  1  0  0  0  0  0  0  0  0
   -0.7099    2.4179   -0.4836 H   0  0  0  1  0  0  0  0  0  0  0  0
  1  4  1  0  0  0  0
  2  4  1  0  0  0  0
  2  5  2  0  0  0  0
  2  6  1  0  0  0  0
  3  4  1  0  0  0  0
  3  7  1  0  0  0  0
  3  8  1  0  0  0  0
  4 26  1  0  0  0  0
  6  9  1  0  0  0  0
  6 12  1  0  0  0  0
  8 10  1  0  0  0  0
  8 11  2  0  0  0  0
  9 13  1  0  0  0  0
  9 14  1  0  0  0  0
  9 15  1  0  0  0  0
 10 16  1  0  0  0  0
 10 17  1  0  0  0  0
 10 18  1  0  0  0  0
 19 20  1  0  0  0  0
 20 21  4  0  0  0  0
 20 25  4  0  0  0  0
 21 22  4  0  0  0  0
 21 27  1  0  0  0  0
 22 23  4  0  0  0  0
 22 28  1  0  0  0  0
 23 24  4  0  0  0  0
 23 26  1  0  0  0  0
 24 25  4  0  0  0  0
 24 29  1  0  0  0  0
 25 30  1  0  0  0  0
 26 31  1  0  0  0  0
 26 32  1  0  0  0  0
M  END
> <BCLConfClusterSize>
1

> <ConfClashScore>
0 

> <ConfOneFourInteractionScore>
-0.924495 

> <ConfScore>
0.347521 

> <ConfScorePBest>
0.0043307 

> <ConfTolerance>
0.542219 

> <RosettaParamsInstructions>
M  ROOT 3
M  POLY_N_BB 3
M  POLY_CA_BB 4
M  POLY_C_BB 2
M  POLY_O_BB 5
M  POLY_IGNORE 9 10 11 12 13 14 15 16 17 18 
M  POLY_UPPER 6
M  POLY_LOWER 8
M  POLY_CHG 0
M  POLY_PROPERTIES ALPHA_AA D_AA PROTEIN AROMATIC POLYMER 
M  END

$$$$



 32 32  0  0  0  0  0  0  0  0999 V2000
   -2.0543    0.7747   -0.8168 H   0  0  0  1  0  0  0  0  0  0  0  0
   -3.7089    1.7088   -1.7158 C   0  0  0  1  0  0  0  0  0  0  0  0
   -2.9018    2.0716    0.5537 N   0  0  0  1  0  0  0  0  0  0  0  0
   -2.4860    1.7538   -0.8197 C   0  0  0  1  0  0  0  0  0  0  0  0
   -3.6147    1.9055   -2.9294 O   0  0  0  1  0  0  0  0  0  0  0  0
   -4.8723    1.5253   -1.0794 N   0  0  0  1  0  0  0  0  0  0  0  0
   -3.7692    2.4979    0.7157 H   0  0  0  1  0  0  0  0  0  0  0  0
   -2.0929    1.7782    1.5904 C   0  0  0  1  0  0  0  0  0  0  0  0
   -6.1242    1.5603   -1.8206 C   0  0  0  1  0  0  0  0  0  0  0  0
   -2.5597    2.2650    2.9485 C   0  0  0  1  0  0  0  0  0  0  0  0
   -1.0392    1.1560    1.4628 O   0  0  0  1  0  0  0  0  0  0  0  0
   -4.8809    1.3672   -0.1123 H   0  0  0  1  0  0  0  0  0  0  0  0
   -5.9993    2.1495   -2.7050 H   0  0  0  1  0  0  0  0  0  0  0  0
   -6.8885    1.9927   -1.2092 H   0  0  0  1  0  0  0  0  0  0  0  0
   -6.4052    0.5643   -2.0927 H   0  0  0  1  0  0  0  0  0  0  0  0
   -2.6415    3.3318    2.9367 H   0  0  0  1  0  0  0  0  0  0  0  0
   -1.8525    1.9700    3.6953 H   0  0  0  1  0  0  0  0  0  0  0  0
   -3.5145    1.8368    3.1718 H   0  0  0  1  0  0  0  0  0  0  0  0
   -2.8298    8.8015   -0.0145 I   0  0  0  1  0  0  0  0  0  0  0  0
   -2.3639    6.8066   -0.4285 C   0  0  0  1  0  0  0  0  0  0  0  0
   -1.1110    6.3063   -0.1102 C   0  0  0  1  0  0  0  0  0  0  0  0
   -0.8016    4.9885   -0.3890 C   0  0  0  1  0  0  0  0  0  0  0  0
   -1.7462    4.1655   -0.9822 C   0  0  0  1  0  0  0  0  0  0  0  0
   -2.9956    4.6641   -1.2997 C   0  0  0  1  0  0  0  0  0  0  0  0
   -3.3057    5.9859   -1.0199 C   0  0  0  1  0  0  0  0  0  0  0  0
   -1.4108    2.7236   -1.2819 C   0  0  0  1  0  0  0  0  0  0  0  0
   -0.4036    6.9227    0.3385 H   0  0  0  1  0  0  0  0  0  0  0  0
    0.1398    4.6143   -0.1538 H   0  0  0  1  0  0  0  0  0  0  0  0
   -3.7029    4.0477   -1.7484 H   0  0  0  1  0  0  0  0  0  0  0  0
   -4.2471    6.3601   -1.2551 H   0  0  0  1  0  0  0  0  0  0  0  0
   -1.2864    2.6155   -2.3391 H   0  0  0  1  0  0  0  0  0  0  0  0
   -0.4945    2.4772   -0.7873 H   0  0  0  1  0  0  0  0  0  0  0  0
  1  4  1  0  0  0  0
  2  4  1  0  0  0  0
  2  5  2  0  0  0  0
  2  6  1  0  0  0  0
  3  4  1  0  0  0  0
  3  7  1  0  0  0  0
  3  8  1  0  0  0  0
  4 26  1  0  0  0  0
  6  9  1  0  0  0  0
  6 12  1  0  0  0  0
  8 10  1  0  0  0  0
  8 11  2  0  0  0  0
  9 13  1  0  0  0  0
  9 14  1  0  0  0  0
  9 15  1  0  0  0  0
 10 16  1  0  0  0  0
 10 17  1  0  0  0  0
 10 18  1  0  0  0  0
 19 20  1  0  0  0  0
 20 21  4  0  0  0  0
 20 25  4  0  0  0  0
 21 22  4  0  0  0  0
 21 27  1  0  0  0  0
 22 23  4  0  0  0  0
 22 28  1  0  0  0  0
 23 24  4  0  0  0  0
 23 26  1  0  0  0  0
 24 25  4  0  0  0  0
 24 29  1  0  0  0  0
 25 30  1  0  0  0  0
 26 31  1  0  0  0  0
 26 32  1  0  0  0  0
M  END
> <BCLConfClusterSize>
1

> <ConfClashScore>
0 

> <ConfOneFourInteractionScore>
-0.932585 

> <ConfScore>
0.34787 

> <ConfScorePBest>
0.00430222 

> <ConfTolerance>
0.552187 

> <RosettaParamsInstructions>
M  ROOT 3
M  POLY_N_BB 3
M  POLY_CA_BB 4
M  POLY_C_BB 2
M  POLY_O_BB 5
M  POLY_IGNORE 9 10 11 12 13 14 15 16 17 18 
M  POLY_UPPER 6
M  POLY_LOWER 8
M  POLY_CHG 0
M  POLY_PROPERTIES ALPHA_AA D_AA PROTEIN AROMATIC POLYMER 
M  END

$$$$



 32 32  0  0  0  0  0  0  0  0999 V2000
   -0.4148    1.4041   -2.5377 H   0  0  0  1  0  0  0  0  0  0  0  0
    0.5165    3.2424   -2.8755 C   0  0  0  1  0  0  0  0  0  0  0  0
   -1.6532    2.5020   -3.7407 N   0  0  0  1  0  0  0  0  0  0  0  0
   -0.7374    2.4224   -2.6001 C   0  0  0  1  0  0  0  0  0  0  0  0
    1.0232    3.8428   -1.9414 O   0  0  0  1  0  0  0  0  0  0  0  0
    0.9974    3.2621   -4.1252 N   0  0  0  1  0  0  0  0  0  0  0  0
   -1.8735    1.6545   -4.1807 H   0  0  0  1  0  0  0  0  0  0  0  0
   -2.2213    3.5969   -4.2484 C   0  0  0  1  0  0  0  0  0  0  0  0
    2.2507    3.9188   -4.4657 C   0  0  0  1  0  0  0  0  0  0  0  0
   -3.1519    3.4362   -5.4347 C   0  0  0  1  0  0  0  0  0  0  0  0
   -2.0360    4.7300   -3.8123 O   0  0  0  1  0  0  0  0  0  0  0  0
    0.4875    2.8189   -4.8352 H   0  0  0  1  0  0  0  0  0  0  0  0
    2.3880    4.7739   -3.8374 H   0  0  0  1  0  0  0  0  0  0  0  0
    2.2238    4.2292   -5.4893 H   0  0  0  1  0  0  0  0  0  0  0  0
    3.0616    3.2360   -4.3206 H   0  0  0  1  0  0  0  0  0  0  0  0
   -2.6440    3.7301   -6.3295 H   0  0  0  1  0  0  0  0  0  0  0  0
   -4.0155    4.0525   -5.2963 H   0  0  0  1  0  0  0  0  0  0  0  0
   -3.4528    2.4126   -5.5156 H   0  0  0  1  0  0  0  0  0  0  0  0
   -2.8298    8.8015   -0.0145 I   0  0  0  1  0  0  0  0  0  0  0  0
   -2.3639    6.8066   -0.4285 C   0  0  0  1  0  0  0  0  0  0  0  0
   -1.1109    6.3063   -0.1102 C   0  0  0  1  0  0  0  0  0  0  0  0
   -0.8016    4.9885   -0.3890 C   0  0  0  1  0  0  0  0  0  0  0  0
   -1.7462    4.1655   -0.9822 C   0  0  0  1  0  0  0  0  0  0  0  0
   -2.9956    4.6641   -1.2997 C   0  0  0  1  0  0  0  0  0  0  0  0
   -3.3057    5.9859   -1.0199 C   0  0  0  1  0  0  0  0  0  0  0  0
   -1.4108    2.7236   -1.2819 C   0  0  0  1  0  0  0  0  0  0  0  0
   -0.4036    6.9227    0.3385 H   0  0  0  1  0  0  0  0  0  0  0  0
    0.1398    4.6143   -0.1538 H   0  0  0  1  0  0  0  0  0  0  0  0
   -3.7029    4.0477   -1.7484 H   0  0  0  1  0  0  0  0  0  0  0  0
   -4.2471    6.3601   -1.2551 H   0  0  0  1  0  0  0  0  0  0  0  0
   -0.7621    2.3776   -0.5045 H   0  0  0  1  0  0  0  0  0  0  0  0
   -2.3261    2.1700   -1.2561 H   0  0  0  1  0  0  0  0  0  0  0  0
  1  4  1  0  0  0  0
  2  4  1  0  0  0  0
  2  5  2  0  0  0  0
  2  6  1  0  0  0  0
  3  4  1  0  0  0  0
  3  7  1  0  0  0  0
  3  8  1  0  0  0  0
  4 26  1  0  0  0  0
  6  9  1  0  0  0  0
  6 12  1  0  0  0  0
  8 10  1  0  0  0  0
  8 11  2  0  0  0  0
  9 13  1  0  0  0  0
  9 14  1  0  0  0  0
  9 15  1  0  0  0  0
 10 16  1  0  0  0  0
 10 17  1  0  0  0  0
 10 18  1  0  0  0  0
 19 20  1  0  0  0  0
 20 21  4  0  0  0  0
 20 25  4  0  0  0  0
 21 22  4  0  0  0  0
 21 27  1  0  0  0  0
 22 23  4  0  0  0  0
 22 28  1  0  0  0  0
 23 24  4  0  0  0  0
 23 26  1  0  0  0  0
 24 25  4  0  0  0  0
 24 29  1  0  0  0  0
 25 30  1  0  0  0  0
 26 31  1  0  0  0  0
 26 32  1  0  0  0  0
M  END
> <BCLConfClusterSize>
1

> <ConfClashScore>
0 

> <ConfOneFourInteractionScore>
-0.95412 

> <ConfScore>
0.349684 

> <ConfScorePBest>
0.00427374 

> <ConfTolerance>
0.46547 

> <RosettaParamsInstructions>
M  ROOT 3
M  POLY_N_BB 3
M  POLY_CA_BB 4
M  POLY_C_BB 2
M  POLY_O_BB 5
M  POLY_IGNORE 9 10 11 12 13 14 15 16 17 18 
M  POLY_UPPER 6
M  POLY_LOWER 8
M  POLY_CHG 0
M  POLY_PROPERTIES ALPHA_AA D_AA PROTEIN AROMATIC POLYMER 
M  END

$$$$



 32 32  0  0  0  0  0  0  0  0999 V2000
   -0.1128    1.5468   -2.4511 H   0  0  0  1  0  0  0  0  0  0  0  0
    1.1305    2.9244   -1.4643 C   0  0  0  1  0  0  0  0  0  0  0  0
   -0.3106    3.3882   -3.3723 N   0  0  0  1  0  0  0  0  0  0  0  0
   -0.1722    2.5738   -2.1566 C   0  0  0  1  0  0  0  0  0  0  0  0
    2.0949    3.3717   -2.0984 O   0  0  0  1  0  0  0  0  0  0  0  0
    1.1601    2.7180   -0.1382 N   0  0  0  1  0  0  0  0  0  0  0  0
    0.3425    4.0987   -3.5425 H   0  0  0  1  0  0  0  0  0  0  0  0
   -1.3331    3.1861   -4.2867 C   0  0  0  1  0  0  0  0  0  0  0  0
    2.3441    3.0697    0.6293 C   0  0  0  1  0  0  0  0  0  0  0  0
   -1.4405    4.0989   -5.4759 C   0  0  0  1  0  0  0  0  0  0  0  0
   -2.1135    2.2715   -4.0947 O   0  0  0  1  0  0  0  0  0  0  0  0
    0.3821    2.3294    0.3137 H   0  0  0  1  0  0  0  0  0  0  0  0
    3.1871    2.5283    0.2536 H   0  0  0  1  0  0  0  0  0  0  0  0
    2.1894    2.8193    1.6580 H   0  0  0  1  0  0  0  0  0  0  0  0
    2.5270    4.1202    0.5409 H   0  0  0  1  0  0  0  0  0  0  0  0
   -0.6716    4.8414   -5.4268 H   0  0  0  1  0  0  0  0  0  0  0  0
   -2.3980    4.5765   -5.4732 H   0  0  0  1  0  0  0  0  0  0  0  0
   -1.3284    3.5285   -6.3742 H   0  0  0  1  0  0  0  0  0  0  0  0
   -2.7800    8.8079    0.0058 I   0  0  0  1  0  0  0  0  0  0  0  0
   -2.3756    6.8050   -0.4333 C   0  0  0  1  0  0  0  0  0  0  0  0
   -1.1209    6.3106   -0.1126 C   0  0  0  1  0  0  0  0  0  0  0  0
   -0.8055    4.9936   -0.3890 C   0  0  0  1  0  0  0  0  0  0  0  0
   -1.7459    4.1657   -0.9820 C   0  0  0  1  0  0  0  0  0  0  0  0
   -2.9970    4.6584   -1.3019 C   0  0  0  1  0  0  0  0  0  0  0  0
   -3.3131    5.9793   -1.0246 C   0  0  0  1  0  0  0  0  0  0  0  0
   -1.4039    2.7247   -1.2790 C   0  0  0  1  0  0  0  0  0  0  0  0
   -0.4168    6.9307    0.3360 H   0  0  0  1  0  0  0  0  0  0  0  0
    0.1372    4.6239   -0.1520 H   0  0  0  1  0  0  0  0  0  0  0  0
   -3.7011    4.0382   -1.7505 H   0  0  0  1  0  0  0  0  0  0  0  0
   -4.2558    6.3491   -1.2616 H   0  0  0  1  0  0  0  0  0  0  0  0
   -1.2263    2.2190   -0.3529 H   0  0  0  1  0  0  0  0  0  0  0  0
   -2.2355    2.2734   -1.7787 H   0  0  0  1  0  0  0  0  0  0  0  0
  1  4  1  0  0  0  0
  2  4  1  0  0  0  0
  2  5  2  0  0  0  0
  2  6  1  0  0  0  0
  3  4  1  0  0  0  0
  3  7  1  0  0  0  0
  3  8  1  0  0  0  0
  4 26  1  0  0  0  0
  6  9  1  0  0  0  0
  6 12  1  0  0  0  0
  8 10  1  0  0  0  0
  8 11  2  0  0  0  0
  9 13  1  0  0  0  0
  9 14  1  0  0  0  0
  9 15  1  0  0  0  0
 10 16  1  0  0  0  0
 10 17  1  0  0  0  0
 10 18  1  0  0  0  0
 19 20  1  0  0  0  0
 20 21  4  0  0  0  0
 20 25  4  0  0  0  0
 21 22  4  0  0  0  0
 21 27  1  0  0  0  0
 22 23  4  0  0  0  0
 22 28  1  0  0  0  0
 23 24  4  0  0  0  0
 23 26  1  0  0  0  0
 24 25  4  0  0  0  0
 24 29  1  0  0  0  0
 25 30  1  0  0  0  0
 26 31  1  0  0  0  0
 26 32  1  0  0  0  0
M  END
> <BCLConfClusterSize>
1

> <ConfClashScore>
0 

> <ConfOneFourInteractionScore>
-0.929354 

> <ConfScore>
0.352907 

> <ConfScorePBest>
0.00424526 

> <ConfTolerance>
0.44111 

> <RosettaParamsInstructions>
M  ROOT 3
M  POLY_N_BB 3
M  POLY_CA_BB 4
M  POLY_C_BB 2
M  POLY_O_BB 5
M  POLY_IGNORE 9 10 11 12 13 14 15 16 17 18 
M  POLY_UPPER 6
M  POLY_LOWER 8
M  POLY_CHG 0
M  POLY_PROPERTIES ALPHA_AA D_AA PROTEIN AROMATIC POLYMER 
M  END

$$$$



 32 32  0  0  0  0  0  0  0  0999 V2000
   -1.4061    2.9767   -3.3725 H   0  0  0  1  0  0  0  0  0  0  0  0
   -0.4445    1.1497   -2.9833 C   0  0  0  1  0  0  0  0  0  0  0  0
    0.4769    3.4134   -2.6703 N   0  0  0  1  0  0  0  0  0  0  0  0
   -0.7271    2.5986   -2.6371 C   0  0  0  1  0  0  0  0  0  0  0  0
    0.6977    0.7597   -3.2104 O   0  0  0  1  0  0  0  0  0  0  0  0
   -1.5146    0.3401   -3.0224 N   0  0  0  1  0  0  0  0  0  0  0  0
    1.0563    3.4082   -1.8799 H   0  0  0  1  0  0  0  0  0  0  0  0
    0.8451    4.1719   -3.7140 C   0  0  0  1  0  0  0  0  0  0  0  0
   -1.4731   -1.0493   -3.4535 C   0  0  0  1  0  0  0  0  0  0  0  0
    2.1302    4.9682   -3.5984 C   0  0  0  1  0  0  0  0  0  0  0  0
    0.1630    4.2214   -4.7342 O   0  0  0  1  0  0  0  0  0  0  0  0
   -2.3788    0.7081   -2.7429 H   0  0  0  1  0  0  0  0  0  0  0  0
   -2.3856   -1.2949   -3.9554 H   0  0  0  1  0  0  0  0  0  0  0  0
   -1.3537   -1.6838   -2.6003 H   0  0  0  1  0  0  0  0  0  0  0  0
   -0.6495   -1.1906   -4.1218 H   0  0  0  1  0  0  0  0  0  0  0  0
    2.0345    5.6887   -2.8130 H   0  0  0  1  0  0  0  0  0  0  0  0
    2.3218    5.4720   -4.5227 H   0  0  0  1  0  0  0  0  0  0  0  0
    2.9412    4.3061   -3.3777 H   0  0  0  1  0  0  0  0  0  0  0  0
   -2.8298    8.8015   -0.0145 I   0  0  0  1  0  0  0  0  0  0  0  0
   -2.3639    6.8066   -0.4285 C   0  0  0  1  0  0  0  0  0  0  0  0
   -1.1109    6.3063   -0.1102 C   0  0  0  1  0  0  0  0  0  0  0  0
   -0.8016    4.9885   -0.3890 C   0  0  0  1  0  0  0  0  0  0  0  0
   -1.7462    4.1655   -0.9822 C   0  0  0  1  0  0  0  0  0  0  0  0
   -2.9956    4.6641   -1.2997 C   0  0  0  1  0  0  0  0  0  0  0  0
   -3.3057    5.9859   -1.0199 C   0  0  0  1  0  0  0  0  0  0  0  0
   -1.4108    2.7236   -1.2819 C   0  0  0  1  0  0  0  0  0  0  0  0
   -0.4036    6.9227    0.3385 H   0  0  0  1  0  0  0  0  0  0  0  0
    0.1398    4.6143   -0.1538 H   0  0  0  1  0  0  0  0  0  0  0  0
   -3.7029    4.0477   -1.7484 H   0  0  0  1  0  0  0  0  0  0  0  0
   -4.2471    6.3601   -1.2551 H   0  0  0  1  0  0  0  0  0  0  0  0
   -0.7556    2.3507   -0.5226 H   0  0  0  1  0  0  0  0  0  0  0  0
   -2.3127    2.1479   -1.2896 H   0  0  0  1  0  0  0  0  0  0  0  0
  1  4  1  0  0  0  0
  2  4  1  0  0  0  0
  2  5  2  0  0  0  0
  2  6  1  0  0  0  0
  3  4  1  0  0  0  0
  3  7  1  0  0  0  0
  3  8  1  0  0  0  0
  4 26  1  0  0  0  0
  6  9  1  0  0  0  0
  6 12  1  0  0  0  0
  8 10  1  0  0  0  0
  8 11  2  0  0  0  0
  9 13  1  0  0  0  0
  9 14  1  0  0  0  0
  9 15  1  0  0  0  0
 10 16  1  0  0  0  0
 10 17  1  0  0  0  0
 10 18  1  0  0  0  0
 19 20  1  0  0  0  0
 20 21  4  0  0  0  0
 20 25  4  0  0  0  0
 21 22  4  0  0  0  0
 21 27  1  0  0  0  0
 22 23  4  0  0  0  0
 22 28  1  0  0  0  0
 23 24  4  0  0  0  0
 23 26  1  0  0  0  0
 24 25  4  0  0  0  0
 24 29  1  0  0  0  0
 25 30  1  0  0  0  0
 26 31  1  0  0  0  0
 26 32  1  0  0  0  0
M  END
> <BCLConfClusterSize>
1

> <ConfClashScore>
0 

> <ConfOneFourInteractionScore>
-0.985807 

> <ConfScore>
0.354138 

> <ConfScorePBest>
0.00421678 

> <ConfTolerance>
0.556413 

> <RosettaParamsInstructions>
M  ROOT 3
M  POLY_N_BB 3
M  POLY_CA_BB 4
M  POLY_C_BB 2
M  POLY_O_BB 5
M  POLY_IGNORE 9 10 11 12 13 14 15 16 17 18 
M  POLY_UPPER 6
M  POLY_LOWER 8
M  POLY_CHG 0
M  POLY_PROPERTIES ALPHA_AA D_AA PROTEIN AROMATIC POLYMER 
M  END

$$$$



 32 32  0  0  0  0  0  0  0  0999 V2000
   -1.2438    0.8519   -0.2876 H   0  0  0  1  0  0  0  0  0  0  0  0
   -3.1776    1.6065    0.1023 C   0  0  0  1  0  0  0  0  0  0  0  0
   -0.9896    2.3520    1.1070 N   0  0  0  1  0  0  0  0  0  0  0  0
   -1.6733    1.8050   -0.0595 C   0  0  0  1  0  0  0  0  0  0  0  0
   -3.9095    1.3757   -0.8425 O   0  0  0  1  0  0  0  0  0  0  0  0
   -3.7181    1.6882    1.3276 N   0  0  0  1  0  0  0  0  0  0  0  0
   -0.1074    1.9869    1.3277 H   0  0  0  1  0  0  0  0  0  0  0  0
   -1.4939    3.3498    1.9272 C   0  0  0  1  0  0  0  0  0  0  0  0
   -5.1618    1.6162    1.4957 C   0  0  0  1  0  0  0  0  0  0  0  0
   -0.6891    3.7944    3.1161 C   0  0  0  1  0  0  0  0  0  0  0  0
   -2.5771    3.8348    1.6554 O   0  0  0  1  0  0  0  0  0  0  0  0
   -3.1394    1.7966    2.1110 H   0  0  0  1  0  0  0  0  0  0  0  0
   -5.5403    0.7634    0.9719 H   0  0  0  1  0  0  0  0  0  0  0  0
   -5.6111    2.5042    1.1026 H   0  0  0  1  0  0  0  0  0  0  0  0
   -5.3956    1.5281    2.5361 H   0  0  0  1  0  0  0  0  0  0  0  0
   -0.9053    4.8202    3.3304 H   0  0  0  1  0  0  0  0  0  0  0  0
    0.3536    3.6873    2.9008 H   0  0  0  1  0  0  0  0  0  0  0  0
   -0.9425    3.1922    3.9634 H   0  0  0  1  0  0  0  0  0  0  0  0
   -2.8349    8.7825    0.0586 I   0  0  0  1  0  0  0  0  0  0  0  0
   -2.3583    6.8140   -0.4574 C   0  0  0  1  0  0  0  0  0  0  0  0
   -1.1079    6.3135   -0.1294 C   0  0  0  1  0  0  0  0  0  0  0  0
   -0.8029    4.9908   -0.3896 C   0  0  0  1  0  0  0  0  0  0  0  0
   -1.7492    4.1634   -0.9737 C   0  0  0  1  0  0  0  0  0  0  0  0
   -2.9960    4.6622   -1.3008 C   0  0  0  1  0  0  0  0  0  0  0  0
   -3.3018    5.9889   -1.0398 C   0  0  0  1  0  0  0  0  0  0  0  0
   -1.4186    2.7163   -1.2530 C   0  0  0  1  0  0  0  0  0  0  0  0
   -0.3993    6.9333    0.3125 H   0  0  0  1  0  0  0  0  0  0  0  0
    0.1366    4.6164   -0.1472 H   0  0  0  1  0  0  0  0  0  0  0  0
   -3.7046    4.0424   -1.7427 H   0  0  0  1  0  0  0  0  0  0  0  0
   -4.2413    6.3633   -1.2822 H   0  0  0  1  0  0  0  0  0  0  0  0
   -2.0205    2.3813   -2.0718 H   0  0  0  1  0  0  0  0  0  0  0  0
   -0.3843    2.6484   -1.5187 H   0  0  0  1  0  0  0  0  0  0  0  0
  1  4  1  0  0  0  0
  2  4  1  0  0  0  0
  2  5  2  0  0  0  0
  2  6  1  0  0  0  0
  3  4  1  0  0  0  0
  3  7  1  0  0  0  0
  3  8  1  0  0  0  0
  4 26  1  0  0  0  0
  6  9  1  0  0  0  0
  6 12  1  0  0  0  0
  8 10  1  0  0  0  0
  8 11  2  0  0  0  0
  9 13  1  0  0  0  0
  9 14  1  0  0  0  0
  9 15  1  0  0  0  0
 10 16  1  0  0  0  0
 10 17  1  0  0  0  0
 10 18  1  0  0  0  0
 19 20  1  0  0  0  0
 20 21  4  0  0  0  0
 20 25  4  0  0  0  0
 21 22  4  0  0  0  0
 21 27  1  0  0  0  0
 22 23  4  0  0  0  0
 22 28  1  0  0  0  0
 23 24  4  0  0  0  0
 23 26  1  0  0  0  0
 24 25  4  0  0  0  0
 24 29  1  0  0  0  0
 25 30  1  0  0  0  0
 26 31  1  0  0  0  0
 26 32  1  0  0  0  0
M  END
> <BCLConfClusterSize>
1

> <ConfClashScore>
0.000218256 

> <ConfOneFourInteractionScore>
-0.948009 

> <ConfScore>
0.356502 

> <ConfScorePBest>
0.0041883 

> <ConfTolerance>
0.438529 

> <RosettaParamsInstructions>
M  ROOT 3
M  POLY_N_BB 3
M  POLY_CA_BB 4
M  POLY_C_BB 2
M  POLY_O_BB 5
M  POLY_IGNORE 9 10 11 12 13 14 15 16 17 18 
M  POLY_UPPER 6
M  POLY_LOWER 8
M  POLY_CHG 0
M  POLY_PROPERTIES ALPHA_AA D_AA PROTEIN AROMATIC POLYMER 
M  END

$$$$



 32 32  0  0  0  0  0  0  0  0999 V2000
   -1.2758    0.7699   -0.5282 H   0  0  0  1  0  0  0  0  0  0  0  0
   -3.1644    1.5025    0.0483 C   0  0  0  1  0  0  0  0  0  0  0  0
   -0.9725    2.1184    1.0130 N   0  0  0  1  0  0  0  0  0  0  0  0
   -1.6823    1.7040   -0.2009 C   0  0  0  1  0  0  0  0  0  0  0  0
   -3.7185    1.9937    1.0281 O   0  0  0  1  0  0  0  0  0  0  0  0
   -3.8137    0.7618   -0.8638 N   0  0  0  1  0  0  0  0  0  0  0  0
   -1.4927    2.4413    1.7782 H   0  0  0  1  0  0  0  0  0  0  0  0
    0.3569    2.0713    1.1123 C   0  0  0  1  0  0  0  0  0  0  0  0
   -5.2369    0.4753   -0.7621 C   0  0  0  1  0  0  0  0  0  0  0  0
    0.9365    2.7319    2.3610 C   0  0  0  1  0  0  0  0  0  0  0  0
    1.0906    1.6056    0.2444 O   0  0  0  1  0  0  0  0  0  0  0  0
   -3.3119    0.4015   -1.6245 H   0  0  0  1  0  0  0  0  0  0  0  0
   -5.7948    1.3727   -0.9304 H   0  0  0  1  0  0  0  0  0  0  0  0
   -5.4555    0.0976    0.2149 H   0  0  0  1  0  0  0  0  0  0  0  0
   -5.5067   -0.2551   -1.4960 H   0  0  0  1  0  0  0  0  0  0  0  0
    0.2127    2.7037    3.1486 H   0  0  0  1  0  0  0  0  0  0  0  0
    1.1862    3.7492    2.1428 H   0  0  0  1  0  0  0  0  0  0  0  0
    1.8166    2.2057    2.6667 H   0  0  0  1  0  0  0  0  0  0  0  0
   -2.8298    8.8015   -0.0145 I   0  0  0  1  0  0  0  0  0  0  0  0
   -2.3639    6.8066   -0.4285 C   0  0  0  1  0  0  0  0  0  0  0  0
   -1.1110    6.3063   -0.1102 C   0  0  0  1  0  0  0  0  0  0  0  0
   -0.8016    4.9885   -0.3890 C   0  0  0  1  0  0  0  0  0  0  0  0
   -1.7462    4.1655   -0.9822 C   0  0  0  1  0  0  0  0  0  0  0  0
   -2.9956    4.6641   -1.2997 C   0  0  0  1  0  0  0  0  0  0  0  0
   -3.3057    5.9859   -1.0199 C   0  0  0  1  0  0  0  0  0  0  0  0
   -1.4108    2.7236   -1.2819 C   0  0  0  1  0  0  0  0  0  0  0  0
   -0.4036    6.9227    0.3385 H   0  0  0  1  0  0  0  0  0  0  0  0
    0.1398    4.6143   -0.1538 H   0  0  0  1  0  0  0  0  0  0  0  0
   -3.7029    4.0477   -1.7484 H   0  0  0  1  0  0  0  0  0  0  0  0
   -4.2471    6.3601   -1.2551 H   0  0  0  1  0  0  0  0  0  0  0  0
   -1.9768    2.4356   -2.1431 H   0  0  0  1  0  0  0  0  0  0  0  0
   -0.3663    2.6785   -1.5095 H   0  0  0  1  0  0  0  0  0  0  0  0
  1  4  1  0  0  0  0
  2  4  1  0  0  0  0
  2  5  2  0  0  0  0
  2  6  1  0  0  0  0
  3  4  1  0  0  0  0
  3  7  1  0  0  0  0
  3  8  1  0  0  0  0
  4 26  1  0  0  0  0
  6  9  1  0  0  0  0
  6 12  1  0  0  0  0
  8 10  1  0  0  0  0
  8 11  2  0  0  0  0
  9 13  1  0  0  0  0
  9 14  1  0  0  0  0
  9 15  1  0  0  0  0
 10 16  1  0  0  0  0
 10 17  1  0  0  0  0
 10 18  1  0  0  0  0
 19 20  1  0  0  0  0
 20 21  4  0  0  0  0
 20 25  4  0  0  0  0
 21 22  4  0  0  0  0
 21 27  1  0  0  0  0
 22 23  4  0  0  0  0
 22 28  1  0  0  0  0
 23 24  4  0  0  0  0
 23 26  1  0  0  0  0
 24 25  4  0  0  0  0
 24 29  1  0  0  0  0
 25 30  1  0  0  0  0
 26 31  1  0  0  0  0
 26 32  1  0  0  0  0
M  END
> <BCLConfClusterSize>
1

> <ConfClashScore>
0 

> <ConfOneFourInteractionScore>
-0.978122 

> <ConfScore>
0.358547 

> <ConfScorePBest>
0.00415982 

> <ConfTolerance>
0.425647 

> <RosettaParamsInstructions>
M  ROOT 3
M  POLY_N_BB 3
M  POLY_CA_BB 4
M  POLY_C_BB 2
M  POLY_O_BB 5
M  POLY_IGNORE 9 10 11 12 13 14 15 16 17 18 
M  POLY_UPPER 6
M  POLY_LOWER 8
M  POLY_CHG 0
M  POLY_PROPERTIES ALPHA_AA D_AA PROTEIN AROMATIC POLYMER 
M  END

$$$$



 32 32  0  0  0  0  0  0  0  0999 V2000
   -2.9510    1.7800   -0.2265 H   0  0  0  1  0  0  0  0  0  0  0  0
   -1.4485    2.0786    1.1657 C   0  0  0  1  0  0  0  0  0  0  0  0
   -1.5676    0.3218   -0.6077 N   0  0  0  1  0  0  0  0  0  0  0  0
   -1.8825    1.7246   -0.2434 C   0  0  0  1  0  0  0  0  0  0  0  0
   -2.1550    1.8266    2.1279 O   0  0  0  1  0  0  0  0  0  0  0  0
   -0.2524    2.6783    1.2742 N   0  0  0  1  0  0  0  0  0  0  0  0
   -2.0051   -0.0731   -1.3907 H   0  0  0  1  0  0  0  0  0  0  0  0
   -0.7082   -0.4222    0.0944 C   0  0  0  1  0  0  0  0  0  0  0  0
    0.3675    2.8413    2.5807 C   0  0  0  1  0  0  0  0  0  0  0  0
   -0.6482   -1.9096   -0.2634 C   0  0  0  1  0  0  0  0  0  0  0  0
    0.0281   -0.0189    0.9908 O   0  0  0  1  0  0  0  0  0  0  0  0
    0.2043    3.0070    0.4719 H   0  0  0  1  0  0  0  0  0  0  0  0
    0.0712    3.7791    3.0022 H   0  0  0  1  0  0  0  0  0  0  0  0
    1.4320    2.8182    2.4755 H   0  0  0  1  0  0  0  0  0  0  0  0
    0.0550    2.0463    3.2252 H   0  0  0  1  0  0  0  0  0  0  0  0
    0.3736   -2.2206   -0.3279 H   0  0  0  1  0  0  0  0  0  0  0  0
   -1.1295   -2.0693   -1.2056 H   0  0  0  1  0  0  0  0  0  0  0  0
   -1.1468   -2.4786    0.4933 H   0  0  0  1  0  0  0  0  0  0  0  0
   -2.8353    8.8006   -0.0169 I   0  0  0  1  0  0  0  0  0  0  0  0
   -2.3632    6.8066   -0.4282 C   0  0  0  1  0  0  0  0  0  0  0  0
   -1.1090    6.3104   -0.1083 C   0  0  0  1  0  0  0  0  0  0  0  0
   -0.7955    4.9932   -0.3854 C   0  0  0  1  0  0  0  0  0  0  0  0
   -1.7371    4.1668   -0.9784 C   0  0  0  1  0  0  0  0  0  0  0  0
   -2.9877    4.6613   -1.2976 C   0  0  0  1  0  0  0  0  0  0  0  0
   -3.3020    5.9825   -1.0196 C   0  0  0  1  0  0  0  0  0  0  0  0
   -1.4543    2.7182   -1.2996 C   0  0  0  1  0  0  0  0  0  0  0  0
   -0.4039    6.9294    0.3404 H   0  0  0  1  0  0  0  0  0  0  0  0
    0.1469    4.6221   -0.1489 H   0  0  0  1  0  0  0  0  0  0  0  0
   -3.6928    4.0423   -1.7462 H   0  0  0  1  0  0  0  0  0  0  0  0
   -4.2443    6.3536   -1.2560 H   0  0  0  1  0  0  0  0  0  0  0  0
   -1.9656    2.4756   -2.2077 H   0  0  0  1  0  0  0  0  0  0  0  0
   -0.3995    2.6121   -1.4443 H   0  0  0  1  0  0  0  0  0  0  0  0
  1  4  1  0  0  0  0
  2  4  1  0  0  0  0
  2  5  2  0  0  0  0
  2  6  1  0  0  0  0
  3  4  1  0  0  0  0
  3  7  1  0  0  0  0
  3  8  1  0  0  0  0
  4 26  1  0  0  0  0
  6  9  1  0  0  0  0
  6 12  1  0  0  0  0
  8 10  1  0  0  0  0
  8 11  2  0  0  0  0
  9 13  1  0  0  0  0
  9 14  1  0  0  0  0
  9 15  1  0  0  0  0
 10 16  1  0  0  0  0
 10 17  1  0  0  0  0
 10 18  1  0  0  0  0
 19 20  1  0  0  0  0
 20 21  4  0  0  0  0
 20 25  4  0  0  0  0
 21 22  4  0  0  0  0
 21 27  1  0  0  0  0
 22 23  4  0  0  0  0
 22 28  1  0  0  0  0
 23 24  4  0  0  0  0
 23 26  1  0  0  0  0
 24 25  4  0  0  0  0
 24 29  1  0  0  0  0
 25 30  1  0  0  0  0
 26 31  1  0  0  0  0
 26 32  1  0  0  0  0
M  END
> <BCLConfClusterSize>
1

> <ConfClashScore>
0 

> <ConfOneFourInteractionScore>
-0.920572 

> <ConfScore>
0.359893 

> <ConfScorePBest>
0.00413134 

> <ConfTolerance>
0.396747 

> <RosettaParamsInstructions>
M  ROOT 3
M  POLY_N_BB 3
M  POLY_CA_BB 4
M  POLY_C_BB 2
M  POLY_O_BB 5
M  POLY_IGNORE 9 10 11 12 13 14 15 16 17 18 
M  POLY_UPPER 6
M  POLY_LOWER 8
M  POLY_CHG 0
M  POLY_PROPERTIES ALPHA_AA D_AA PROTEIN AROMATIC POLYMER 
M  END

$$$$



 32 32  0  0  0  0  0  0  0  0999 V2000
   -0.1040    3.1312   -2.8824 H   0  0  0  1  0  0  0  0  0  0  0  0
   -1.9730    2.6833   -3.7430 C   0  0  0  1  0  0  0  0  0  0  0  0
   -0.3822    1.0908   -2.7341 N   0  0  0  1  0  0  0  0  0  0  0  0
   -0.9071    2.4509   -2.6898 C   0  0  0  1  0  0  0  0  0  0  0  0
   -2.7919    3.5948   -3.6324 O   0  0  0  1  0  0  0  0  0  0  0  0
   -1.9575    1.8412   -4.7802 N   0  0  0  1  0  0  0  0  0  0  0  0
    0.5693    0.9395   -2.9139 H   0  0  0  1  0  0  0  0  0  0  0  0
   -1.2025    0.0420   -2.5284 C   0  0  0  1  0  0  0  0  0  0  0  0
   -2.8693    1.8977   -5.9130 C   0  0  0  1  0  0  0  0  0  0  0  0
   -0.4712   -1.2869   -2.3741 C   0  0  0  1  0  0  0  0  0  0  0  0
   -2.4269    0.1141   -2.4657 O   0  0  0  1  0  0  0  0  0  0  0  0
   -1.2811    1.1320   -4.7779 H   0  0  0  1  0  0  0  0  0  0  0  0
   -3.8147    2.2823   -5.5917 H   0  0  0  1  0  0  0  0  0  0  0  0
   -3.0021    0.9142   -6.3130 H   0  0  0  1  0  0  0  0  0  0  0  0
   -2.4616    2.5380   -6.6671 H   0  0  0  1  0  0  0  0  0  0  0  0
    0.0983   -1.4859   -3.2578 H   0  0  0  1  0  0  0  0  0  0  0  0
   -1.1841   -2.0708   -2.2254 H   0  0  0  1  0  0  0  0  0  0  0  0
    0.1854   -1.2365   -1.5308 H   0  0  0  1  0  0  0  0  0  0  0  0
   -2.8298    8.8015   -0.0145 I   0  0  0  1  0  0  0  0  0  0  0  0
   -2.3639    6.8066   -0.4285 C   0  0  0  1  0  0  0  0  0  0  0  0
   -1.1110    6.3063   -0.1102 C   0  0  0  1  0  0  0  0  0  0  0  0
   -0.8016    4.9885   -0.3890 C   0  0  0  1  0  0  0  0  0  0  0  0
   -1.7462    4.1655   -0.9822 C   0  0  0  1  0  0  0  0  0  0  0  0
   -2.9956    4.6641   -1.2997 C   0  0  0  1  0  0  0  0  0  0  0  0
   -3.3057    5.9859   -1.0199 C   0  0  0  1  0  0  0  0  0  0  0  0
   -1.4108    2.7236   -1.2819 C   0  0  0  1  0  0  0  0  0  0  0  0
   -0.4036    6.9227    0.3385 H   0  0  0  1  0  0  0  0  0  0  0  0
    0.1398    4.6143   -0.1538 H   0  0  0  1  0  0  0  0  0  0  0  0
   -3.7029    4.0477   -1.7484 H   0  0  0  1  0  0  0  0  0  0  0  0
   -4.2471    6.3601   -1.2551 H   0  0  0  1  0  0  0  0  0  0  0  0
   -0.6532    2.4111   -0.5940 H   0  0  0  1  0  0  0  0  0  0  0  0
   -2.2948    2.1404   -1.1289 H   0  0  0  1  0  0  0  0  0  0  0  0
  1  4  1  0  0  0  0
  2  4  1  0  0  0  0
  2  5  2  0  0  0  0
  2  6  1  0  0  0  0
  3  4  1  0  0  0  0
  3  7  1  0  0  0  0
  3  8  1  0  0  0  0
  4 26  1  0  0  0  0
  6  9  1  0  0  0  0
  6 12  1  0  0  0  0
  8 10  1  0  0  0  0
  8 11  2  0  0  0  0
  9 13  1  0  0  0  0
  9 14  1  0  0  0  0
  9 15  1  0  0  0  0
 10 16  1  0  0  0  0
 10 17  1  0  0  0  0
 10 18  1  0  0  0  0
 19 20  1  0  0  0  0
 20 21  4  0  0  0  0
 20 25  4  0  0  0  0
 21 22  4  0  0  0  0
 21 27  1  0  0  0  0
 22 23  4  0  0  0  0
 22 28  1  0  0  0  0
 23 24  4  0  0  0  0
 23 26  1  0  0  0  0
 24 25  4  0  0  0  0
 24 29  1  0  0  0  0
 25 30  1  0  0  0  0
 26 31  1  0  0  0  0
 26 32  1  0  0  0  0
M  END
> <BCLConfClusterSize>
1

> <ConfClashScore>
0 

> <ConfOneFourInteractionScore>
-0.95733 

> <ConfScore>
0.364444 

> <ConfScorePBest>
0.00410286 

> <ConfTolerance>
0.304832 

> <RosettaParamsInstructions>
M  ROOT 3
M  POLY_N_BB 3
M  POLY_CA_BB 4
M  POLY_C_BB 2
M  POLY_O_BB 5
M  POLY_IGNORE 9 10 11 12 13 14 15 16 17 18 
M  POLY_UPPER 6
M  POLY_LOWER 8
M  POLY_CHG 0
M  POLY_PROPERTIES ALPHA_AA D_AA PROTEIN AROMATIC POLYMER 
M  END

$$$$



 32 32  0  0  0  0  0  0  0  0999 V2000
   -0.9676    1.8540    0.5640 H   0  0  0  1  0  0  0  0  0  0  0  0
   -1.4824    0.3214   -0.7992 C   0  0  0  1  0  0  0  0  0  0  0  0
   -3.0267    1.8958    0.3414 N   0  0  0  1  0  0  0  0  0  0  0  0
   -1.6930    1.7016   -0.2076 C   0  0  0  1  0  0  0  0  0  0  0  0
   -2.4007   -0.4918   -0.8624 O   0  0  0  1  0  0  0  0  0  0  0  0
   -0.2420    0.0590   -1.2403 N   0  0  0  1  0  0  0  0  0  0  0  0
   -3.4993    2.7328    0.1508 H   0  0  0  1  0  0  0  0  0  0  0  0
   -3.6350    0.9636    1.1038 C   0  0  0  1  0  0  0  0  0  0  0  0
    0.0693   -1.2412   -1.8152 C   0  0  0  1  0  0  0  0  0  0  0  0
   -4.9782    1.3094    1.7164 C   0  0  0  1  0  0  0  0  0  0  0  0
   -3.1181   -0.1336    1.2974 O   0  0  0  1  0  0  0  0  0  0  0  0
    0.4554    0.7445   -1.1751 H   0  0  0  1  0  0  0  0  0  0  0  0
   -0.6644   -1.4905   -2.5530 H   0  0  0  1  0  0  0  0  0  0  0  0
    0.0649   -1.9824   -1.0435 H   0  0  0  1  0  0  0  0  0  0  0  0
    1.0364   -1.2067   -2.2717 H   0  0  0  1  0  0  0  0  0  0  0  0
   -5.4867    2.0116    1.0893 H   0  0  0  1  0  0  0  0  0  0  0  0
   -4.8282    1.7396    2.6846 H   0  0  0  1  0  0  0  0  0  0  0  0
   -5.5676    0.4211    1.8077 H   0  0  0  1  0  0  0  0  0  0  0  0
   -2.7856    8.8071    0.0035 I   0  0  0  1  0  0  0  0  0  0  0  0
   -2.3748    6.8050   -0.4330 C   0  0  0  1  0  0  0  0  0  0  0  0
   -1.1190    6.3146   -0.1107 C   0  0  0  1  0  0  0  0  0  0  0  0
   -0.7994    4.9983   -0.3853 C   0  0  0  1  0  0  0  0  0  0  0  0
   -1.7368    4.1669   -0.9783 C   0  0  0  1  0  0  0  0  0  0  0  0
   -2.9891    4.6556   -1.2997 C   0  0  0  1  0  0  0  0  0  0  0  0
   -3.3094    5.9759   -1.0243 C   0  0  0  1  0  0  0  0  0  0  0  0
   -1.4473    2.7191   -1.2968 C   0  0  0  1  0  0  0  0  0  0  0  0
   -0.4171    6.9374    0.3378 H   0  0  0  1  0  0  0  0  0  0  0  0
    0.1442    4.6317   -0.1471 H   0  0  0  1  0  0  0  0  0  0  0  0
   -3.6909    4.0329   -1.7483 H   0  0  0  1  0  0  0  0  0  0  0  0
   -4.2530    6.3426   -1.2625 H   0  0  0  1  0  0  0  0  0  0  0  0
   -2.0574    2.4470   -2.1326 H   0  0  0  1  0  0  0  0  0  0  0  0
   -0.4153    2.6518   -1.5710 H   0  0  0  1  0  0  0  0  0  0  0  0
  1  4  1  0  0  0  0
  2  4  1  0  0  0  0
  2  5  2  0  0  0  0
  2  6  1  0  0  0  0
  3  4  1  0  0  0  0
  3  7  1  0  0  0  0
  3  8  1  0  0  0  0
  4 26  1  0  0  0  0
  6  9  1  0  0  0  0
  6 12  1  0  0  0  0
  8 10  1  0  0  0  0
  8 11  2  0  0  0  0
  9 13  1  0  0  0  0
  9 14  1  0  0  0  0
  9 15  1  0  0  0  0
 10 16  1  0  0  0  0
 10 17  1  0  0  0  0
 10 18  1  0  0  0  0
 19 20  1  0  0  0  0
 20 21  4  0  0  0  0
 20 25  4  0  0  0  0
 21 22  4  0  0  0  0
 21 27  1  0  0  0  0
 22 23  4  0  0  0  0
 22 28  1  0  0  0  0
 23 24  4  0  0  0  0
 23 26  1  0  0  0  0
 24 25  4  0  0  0  0
 24 29  1  0  0  0  0
 25 30  1  0  0  0  0
 26 31  1  0  0  0  0
 26 32  1  0  0  0  0
M  END
> <BCLConfClusterSize>
1

> <ConfClashScore>
0 

> <ConfOneFourInteractionScore>
-0.985807 

> <ConfScore>
0.368469 

> <ConfScorePBest>
0.00407438 

> <ConfTolerance>
0.707777 

> <RosettaParamsInstructions>
M  ROOT 3
M  POLY_N_BB 3
M  POLY_CA_BB 4
M  POLY_C_BB 2
M  POLY_O_BB 5
M  POLY_IGNORE 9 10 11 12 13 14 15 16 17 18 
M  POLY_UPPER 6
M  POLY_LOWER 8
M  POLY_CHG 0
M  POLY_PROPERTIES ALPHA_AA D_AA PROTEIN AROMATIC POLYMER 
M  END

$$$$



 32 32  0  0  0  0  0  0  0  0999 V2000
   -3.0932    2.1539   -0.2445 H   0  0  0  1  0  0  0  0  0  0  0  0
   -1.4598    1.3845    0.8400 C   0  0  0  1  0  0  0  0  0  0  0  0
   -2.3583    0.5317   -1.3001 N   0  0  0  1  0  0  0  0  0  0  0  0
   -2.1412    1.7217   -0.4720 C   0  0  0  1  0  0  0  0  0  0  0  0
   -1.6963    0.3332    1.4292 O   0  0  0  1  0  0  0  0  0  0  0  0
   -0.5956    2.3024    1.3011 N   0  0  0  1  0  0  0  0  0  0  0  0
   -2.0116    0.5236   -2.2167 H   0  0  0  1  0  0  0  0  0  0  0  0
   -3.0114   -0.5406   -0.8493 C   0  0  0  1  0  0  0  0  0  0  0  0
   -0.0033    2.2154    2.6275 C   0  0  0  1  0  0  0  0  0  0  0  0
   -3.1063   -1.7129   -1.8173 C   0  0  0  1  0  0  0  0  0  0  0  0
   -3.5116   -0.5973    0.2732 O   0  0  0  1  0  0  0  0  0  0  0  0
   -0.3551    3.0574    0.7243 H   0  0  0  1  0  0  0  0  0  0  0  0
   -0.6925    2.5962    3.3521 H   0  0  0  1  0  0  0  0  0  0  0  0
    0.8972    2.7926    2.6544 H   0  0  0  1  0  0  0  0  0  0  0  0
    0.2207    1.1934    2.8515 H   0  0  0  1  0  0  0  0  0  0  0  0
   -2.1229   -2.0656   -2.0487 H   0  0  0  1  0  0  0  0  0  0  0  0
   -3.5914   -1.3946   -2.7162 H   0  0  0  1  0  0  0  0  0  0  0  0
   -3.6711   -2.5022   -1.3668 H   0  0  0  1  0  0  0  0  0  0  0  0
   -2.7820    8.8215   -0.0707 I   0  0  0  1  0  0  0  0  0  0  0  0
   -2.3787    6.7980   -0.4037 C   0  0  0  1  0  0  0  0  0  0  0  0
   -1.1231    6.2986   -0.0947 C   0  0  0  1  0  0  0  0  0  0  0  0
   -0.8090    4.9858   -0.3917 C   0  0  0  1  0  0  0  0  0  0  0  0
   -1.7515    4.1670   -0.9938 C   0  0  0  1  0  0  0  0  0  0  0  0
   -3.0036    4.6647   -1.3021 C   0  0  0  1  0  0  0  0  0  0  0  0
   -3.3184    5.9814   -1.0041 C   0  0  0  1  0  0  0  0  0  0  0  0
   -1.3581    2.7393   -1.2912 C   0  0  0  1  0  0  0  0  0  0  0  0
   -0.4172    6.9118    0.3607 H   0  0  0  1  0  0  0  0  0  0  0  0
    0.1345    4.6124   -0.1635 H   0  0  0  1  0  0  0  0  0  0  0  0
   -3.7094    4.0515   -1.7575 H   0  0  0  1  0  0  0  0  0  0  0  0
   -4.2618    6.3549   -1.2323 H   0  0  0  1  0  0  0  0  0  0  0  0
   -1.5322    2.5473   -2.3293 H   0  0  0  1  0  0  0  0  0  0  0  0
   -0.3167    2.6211   -1.0758 H   0  0  0  1  0  0  0  0  0  0  0  0
  1  4  1  0  0  0  0
  2  4  1  0  0  0  0
  2  5  2  0  0  0  0
  2  6  1  0  0  0  0
  3  4  1  0  0  0  0
  3  7  1  0  0  0  0
  3  8  1  0  0  0  0
  4 26  1  0  0  0  0
  6  9  1  0  0  0  0
  6 12  1  0  0  0  0
  8 10  1  0  0  0  0
  8 11  2  0  0  0  0
  9 13  1  0  0  0  0
  9 14  1  0  0  0  0
  9 15  1  0  0  0  0
 10 16  1  0  0  0  0
 10 17  1  0  0  0  0
 10 18  1  0  0  0  0
 19 20  1  0  0  0  0
 20 21  4  0  0  0  0
 20 25  4  0  0  0  0
 21 22  4  0  0  0  0
 21 27  1  0  0  0  0
 22 23  4  0  0  0  0
 22 28  1  0  0  0  0
 23 24  4  0  0  0  0
 23 26  1  0  0  0  0
 24 25  4  0  0  0  0
 24 29  1  0  0  0  0
 25 30  1  0  0  0  0
 26 31  1  0  0  0  0
 26 32  1  0  0  0  0
M  END
> <BCLConfClusterSize>
1

> <ConfClashScore>
0 

> <ConfOneFourInteractionScore>
-0.947371 

> <ConfScore>
0.368956 

> <ConfScorePBest>
0.00404589 

> <ConfTolerance>
0.340579 

> <RosettaParamsInstructions>
M  ROOT 3
M  POLY_N_BB 3
M  POLY_CA_BB 4
M  POLY_C_BB 2
M  POLY_O_BB 5
M  POLY_IGNORE 9 10 11 12 13 14 15 16 17 18 
M  POLY_UPPER 6
M  POLY_LOWER 8
M  POLY_CHG 0
M  POLY_PROPERTIES ALPHA_AA D_AA PROTEIN AROMATIC POLYMER 
M  END

$$$$



 32 32  0  0  0  0  0  0  0  0999 V2000
   -1.5049    0.7796   -0.4317 H   0  0  0  1  0  0  0  0  0  0  0  0
   -3.2838    1.7917    0.0895 C   0  0  0  1  0  0  0  0  0  0  0  0
   -1.0458    2.1386    1.0683 N   0  0  0  1  0  0  0  0  0  0  0  0
   -1.7854    1.7705   -0.1415 C   0  0  0  1  0  0  0  0  0  0  0  0
   -3.7607    2.1183    1.1639 O   0  0  0  1  0  0  0  0  0  0  0  0
   -4.0005    1.4234   -0.9842 N   0  0  0  1  0  0  0  0  0  0  0  0
   -0.2164    1.6446    1.2375 H   0  0  0  1  0  0  0  0  0  0  0  0
   -1.3738    3.0723    1.9683 C   0  0  0  1  0  0  0  0  0  0  0  0
   -5.4547    1.3683   -0.9667 C   0  0  0  1  0  0  0  0  0  0  0  0
   -0.5456    3.1097    3.2588 C   0  0  0  1  0  0  0  0  0  0  0  0
   -2.2371    3.9254    1.7693 O   0  0  0  1  0  0  0  0  0  0  0  0
   -3.5280    1.1833   -1.8085 H   0  0  0  1  0  0  0  0  0  0  0  0
   -5.8334    2.1358   -0.3244 H   0  0  0  1  0  0  0  0  0  0  0  0
   -5.7708    0.4124   -0.6045 H   0  0  0  1  0  0  0  0  0  0  0  0
   -5.8289    1.5163   -1.9581 H   0  0  0  1  0  0  0  0  0  0  0  0
    0.4633    2.8251    3.0441 H   0  0  0  1  0  0  0  0  0  0  0  0
   -0.9640    2.4292    3.9707 H   0  0  0  1  0  0  0  0  0  0  0  0
   -0.5582    4.1008    3.6619 H   0  0  0  1  0  0  0  0  0  0  0  0
   -2.8298    8.8015   -0.0145 I   0  0  0  1  0  0  0  0  0  0  0  0
   -2.3639    6.8066   -0.4285 C   0  0  0  1  0  0  0  0  0  0  0  0
   -1.1109    6.3063   -0.1102 C   0  0  0  1  0  0  0  0  0  0  0  0
   -0.8016    4.9885   -0.3890 C   0  0  0  1  0  0  0  0  0  0  0  0
   -1.7462    4.1655   -0.9822 C   0  0  0  1  0  0  0  0  0  0  0  0
   -2.9956    4.6641   -1.2997 C   0  0  0  1  0  0  0  0  0  0  0  0
   -3.3057    5.9859   -1.0199 C   0  0  0  1  0  0  0  0  0  0  0  0
   -1.4108    2.7236   -1.2819 C   0  0  0  1  0  0  0  0  0  0  0  0
   -0.4036    6.9227    0.3385 H   0  0  0  1  0  0  0  0  0  0  0  0
    0.1398    4.6143   -0.1538 H   0  0  0  1  0  0  0  0  0  0  0  0
   -3.7029    4.0477   -1.7484 H   0  0  0  1  0  0  0  0  0  0  0  0
   -4.2471    6.3601   -1.2551 H   0  0  0  1  0  0  0  0  0  0  0  0
   -1.9414    2.4264   -2.1622 H   0  0  0  1  0  0  0  0  0  0  0  0
   -0.3579    2.6481   -1.4569 H   0  0  0  1  0  0  0  0  0  0  0  0
  1  4  1  0  0  0  0
  2  4  1  0  0  0  0
  2  5  2  0  0  0  0
  2  6  1  0  0  0  0
  3  4  1  0  0  0  0
  3  7  1  0  0  0  0
  3  8  1  0  0  0  0
  4 26  1  0  0  0  0
  6  9  1  0  0  0  0
  6 12  1  0  0  0  0
  8 10  1  0  0  0  0
  8 11  2  0  0  0  0
  9 13  1  0  0  0  0
  9 14  1  0  0  0  0
  9 15  1  0  0  0  0
 10 16  1  0  0  0  0
 10 17  1  0  0  0  0
 10 18  1  0  0  0  0
 19 20  1  0  0  0  0
 20 21  4  0  0  0  0
 20 25  4  0  0  0  0
 21 22  4  0  0  0  0
 21 27  1  0  0  0  0
 22 23  4  0  0  0  0
 22 28  1  0  0  0  0
 23 24  4  0  0  0  0
 23 26  1  0  0  0  0
 24 25  4  0  0  0  0
 24 29  1  0  0  0  0
 25 30  1  0  0  0  0
 26 31  1  0  0  0  0
 26 32  1  0  0  0  0
M  END
> <BCLConfClusterSize>
1

> <ConfClashScore>
0 

> <ConfOneFourInteractionScore>
-0.951173 

> <ConfScore>
0.371917 

> <ConfScorePBest>
0.00401741 

> <ConfTolerance>
0.513706 

> <RosettaParamsInstructions>
M  ROOT 3
M  POLY_N_BB 3
M  POLY_CA_BB 4
M  POLY_C_BB 2
M  POLY_O_BB 5
M  POLY_IGNORE 9 10 11 12 13 14 15 16 17 18 
M  POLY_UPPER 6
M  POLY_LOWER 8
M  POLY_CHG 0
M  POLY_PROPERTIES ALPHA_AA D_AA PROTEIN AROMATIC POLYMER 
M  END

$$$$



 32 32  0  0  0  0  0  0  0  0999 V2000
   -0.2095    3.3291   -2.8911 H   0  0  0  1  0  0  0  0  0  0  0  0
   -1.6478    1.8659   -3.6345 C   0  0  0  1  0  0  0  0  0  0  0  0
    0.4703    1.3985   -2.2791 N   0  0  0  1  0  0  0  0  0  0  0  0
   -0.6438    2.4223   -2.5251 C   0  0  0  1  0  0  0  0  0  0  0  0
   -1.2487    0.9668   -4.3734 O   0  0  0  1  0  0  0  0  0  0  0  0
   -2.8648    2.4006   -3.7058 N   0  0  0  1  0  0  0  0  0  0  0  0
    1.3911    1.7316   -2.2395 H   0  0  0  1  0  0  0  0  0  0  0  0
    0.2808    0.0883   -2.1149 C   0  0  0  1  0  0  0  0  0  0  0  0
   -3.9118    1.9699   -4.6203 C   0  0  0  1  0  0  0  0  0  0  0  0
    1.5507   -0.7087   -1.8112 C   0  0  0  1  0  0  0  0  0  0  0  0
   -0.8172   -0.4621   -2.1173 O   0  0  0  1  0  0  0  0  0  0  0  0
   -3.0713    3.1399   -3.0965 H   0  0  0  1  0  0  0  0  0  0  0  0
   -3.8052    0.9237   -4.8180 H   0  0  0  1  0  0  0  0  0  0  0  0
   -3.8311    2.5159   -5.5370 H   0  0  0  1  0  0  0  0  0  0  0  0
   -4.8688    2.1534   -4.1783 H   0  0  0  1  0  0  0  0  0  0  0  0
    1.3077   -1.5440   -1.1882 H   0  0  0  1  0  0  0  0  0  0  0  0
    2.2538   -0.0799   -1.3061 H   0  0  0  1  0  0  0  0  0  0  0  0
    1.9787   -1.0596   -2.7269 H   0  0  0  1  0  0  0  0  0  0  0  0
   -2.8288    8.8104   -0.0673 I   0  0  0  1  0  0  0  0  0  0  0  0
   -2.3712    6.7978   -0.3964 C   0  0  0  1  0  0  0  0  0  0  0  0
   -1.1137    6.2992   -0.0938 C   0  0  0  1  0  0  0  0  0  0  0  0
   -0.7966    4.9899   -0.4026 C   0  0  0  1  0  0  0  0  0  0  0  0
   -1.7380    4.1737   -1.0101 C   0  0  0  1  0  0  0  0  0  0  0  0
   -2.9919    4.6707   -1.3119 C   0  0  0  1  0  0  0  0  0  0  0  0
   -3.3098    5.9840   -1.0021 C   0  0  0  1  0  0  0  0  0  0  0  0
   -1.4164    2.7175   -1.2499 C   0  0  0  1  0  0  0  0  0  0  0  0
   -0.4087    6.9104    0.3656 H   0  0  0  1  0  0  0  0  0  0  0  0
    0.1482    4.6171   -0.1792 H   0  0  0  1  0  0  0  0  0  0  0  0
   -3.6969    4.0595   -1.7713 H   0  0  0  1  0  0  0  0  0  0  0  0
   -4.2546    6.3568   -1.2255 H   0  0  0  1  0  0  0  0  0  0  0  0
   -0.8346    2.3675   -0.4229 H   0  0  0  1  0  0  0  0  0  0  0  0
   -2.3396    2.1780   -1.2908 H   0  0  0  1  0  0  0  0  0  0  0  0
  1  4  1  0  0  0  0
  2  4  1  0  0  0  0
  2  5  2  0  0  0  0
  2  6  1  0  0  0  0
  3  4  1  0  0  0  0
  3  7  1  0  0  0  0
  3  8  1  0  0  0  0
  4 26  1  0  0  0  0
  6  9  1  0  0  0  0
  6 12  1  0  0  0  0
  8 10  1  0  0  0  0
  8 11  2  0  0  0  0
  9 13  1  0  0  0  0
  9 14  1  0  0  0  0
  9 15  1  0  0  0  0
 10 16  1  0  0  0  0
 10 17  1  0  0  0  0
 10 18  1  0  0  0  0
 19 20  1  0  0  0  0
 20 21  4  0  0  0  0
 20 25  4  0  0  0  0
 21 22  4  0  0  0  0
 21 27  1  0  0  0  0
 22 23  4  0  0  0  0
 22 28  1  0  0  0  0
 23 24  4  0  0  0  0
 23 26  1  0  0  0  0
 24 25  4  0  0  0  0
 24 29  1  0  0  0  0
 25 30  1  0  0  0  0
 26 31  1  0  0  0  0
 26 32  1  0  0  0  0
M  END
> <BCLConfClusterSize>
1

> <ConfClashScore>
0 

> <ConfOneFourInteractionScore>
-0.926255 

> <ConfScore>
0.372078 

> <ConfScorePBest>
0.00398893 

> <ConfTolerance>
0.391344 

> <RosettaParamsInstructions>
M  ROOT 3
M  POLY_N_BB 3
M  POLY_CA_BB 4
M  POLY_C_BB 2
M  POLY_O_BB 5
M  POLY_IGNORE 9 10 11 12 13 14 15 16 17 18 
M  POLY_UPPER 6
M  POLY_LOWER 8
M  POLY_CHG 0
M  POLY_PROPERTIES ALPHA_AA D_AA PROTEIN AROMATIC POLYMER 
M  END

$$$$



 32 32  0  0  0  0  0  0  0  0999 V2000
   -2.9277    2.1974    0.1075 H   0  0  0  1  0  0  0  0  0  0  0  0
   -1.7677    0.4696   -0.2560 C   0  0  0  1  0  0  0  0  0  0  0  0
   -3.4495    1.4625   -1.7568 N   0  0  0  1  0  0  0  0  0  0  0  0
   -2.4486    1.7392   -0.7324 C   0  0  0  1  0  0  0  0  0  0  0  0
   -2.2652   -0.6349   -0.4583 O   0  0  0  1  0  0  0  0  0  0  0  0
   -0.6091    0.6388    0.3875 N   0  0  0  1  0  0  0  0  0  0  0  0
   -4.2635    2.0081   -1.7540 H   0  0  0  1  0  0  0  0  0  0  0  0
   -3.3400    0.5211   -2.6985 C   0  0  0  1  0  0  0  0  0  0  0  0
    0.2034   -0.4831    0.8337 C   0  0  0  1  0  0  0  0  0  0  0  0
   -4.4740    0.4680   -3.7174 C   0  0  0  1  0  0  0  0  0  0  0  0
   -2.3928   -0.2615   -2.7563 O   0  0  0  1  0  0  0  0  0  0  0  0
   -0.2954    1.5501    0.5652 H   0  0  0  1  0  0  0  0  0  0  0  0
    0.7718   -0.1932    1.6926 H   0  0  0  1  0  0  0  0  0  0  0  0
    0.8685   -0.7761    0.0484 H   0  0  0  1  0  0  0  0  0  0  0  0
   -0.4328   -1.3050    1.0881 H   0  0  0  1  0  0  0  0  0  0  0  0
   -5.3822    0.1864   -3.2266 H   0  0  0  1  0  0  0  0  0  0  0  0
   -4.2399   -0.2514   -4.4741 H   0  0  0  1  0  0  0  0  0  0  0  0
   -4.5954    1.4317   -4.1662 H   0  0  0  1  0  0  0  0  0  0  0  0
   -2.8298    8.8015   -0.0145 I   0  0  0  1  0  0  0  0  0  0  0  0
   -2.3639    6.8066   -0.4285 C   0  0  0  1  0  0  0  0  0  0  0  0
   -1.1110    6.3063   -0.1102 C   0  0  0  1  0  0  0  0  0  0  0  0
   -0.8016    4.9885   -0.3890 C   0  0  0  1  0  0  0  0  0  0  0  0
   -1.7462    4.1655   -0.9822 C   0  0  0  1  0  0  0  0  0  0  0  0
   -2.9956    4.6641   -1.2997 C   0  0  0  1  0  0  0  0  0  0  0  0
   -3.3057    5.9859   -1.0199 C   0  0  0  1  0  0  0  0  0  0  0  0
   -1.4108    2.7236   -1.2819 C   0  0  0  1  0  0  0  0  0  0  0  0
   -0.4036    6.9227    0.3385 H   0  0  0  1  0  0  0  0  0  0  0  0
    0.1398    4.6143   -0.1538 H   0  0  0  1  0  0  0  0  0  0  0  0
   -3.7029    4.0477   -1.7484 H   0  0  0  1  0  0  0  0  0  0  0  0
   -4.2471    6.3601   -1.2551 H   0  0  0  1  0  0  0  0  0  0  0  0
   -1.3534    2.6008   -2.3433 H   0  0  0  1  0  0  0  0  0  0  0  0
   -0.4611    2.4968   -0.8442 H   0  0  0  1  0  0  0  0  0  0  0  0
  1  4  1  0  0  0  0
  2  4  1  0  0  0  0
  2  5  2  0  0  0  0
  2  6  1  0  0  0  0
  3  4  1  0  0  0  0
  3  7  1  0  0  0  0
  3  8  1  0  0  0  0
  4 26  1  0  0  0  0
  6  9  1  0  0  0  0
  6 12  1  0  0  0  0
  8 10  1  0  0  0  0
  8 11  2  0  0  0  0
  9 13  1  0  0  0  0
  9 14  1  0  0  0  0
  9 15  1  0  0  0  0
 10 16  1  0  0  0  0
 10 17  1  0  0  0  0
 10 18  1  0  0  0  0
 19 20  1  0  0  0  0
 20 21  4  0  0  0  0
 20 25  4  0  0  0  0
 21 22  4  0  0  0  0
 21 27  1  0  0  0  0
 22 23  4  0  0  0  0
 22 28  1  0  0  0  0
 23 24  4  0  0  0  0
 23 26  1  0  0  0  0
 24 25  4  0  0  0  0
 24 29  1  0  0  0  0
 25 30  1  0  0  0  0
 26 31  1  0  0  0  0
 26 32  1  0  0  0  0
M  END
> <BCLConfClusterSize>
1

> <ConfClashScore>
0 

> <ConfOneFourInteractionScore>
-0.926255 

> <ConfScore>
0.376312 

> <ConfScorePBest>
0.00396045 

> <ConfTolerance>
0.75318 

> <RosettaParamsInstructions>
M  ROOT 3
M  POLY_N_BB 3
M  POLY_CA_BB 4
M  POLY_C_BB 2
M  POLY_O_BB 5
M  POLY_IGNORE 9 10 11 12 13 14 15 16 17 18 
M  POLY_UPPER 6
M  POLY_LOWER 8
M  POLY_CHG 0
M  POLY_PROPERTIES ALPHA_AA D_AA PROTEIN AROMATIC POLYMER 
M  END

$$$$



 32 32  0  0  0  0  0  0  0  0999 V2000
    0.6589    2.8791   -0.9226 H   0  0  0  1  0  0  0  0  0  0  0  0
    0.3803    3.1461   -2.9852 C   0  0  0  1  0  0  0  0  0  0  0  0
    0.2909    1.0155   -1.7361 N   0  0  0  1  0  0  0  0  0  0  0  0
    0.0344    2.4593   -1.6833 C   0  0  0  1  0  0  0  0  0  0  0  0
   -0.2588    2.9251   -4.0130 O   0  0  0  1  0  0  0  0  0  0  0  0
    1.4114    3.9943   -2.9379 N   0  0  0  1  0  0  0  0  0  0  0  0
   -0.4232    0.4171   -1.4321 H   0  0  0  1  0  0  0  0  0  0  0  0
    1.4244    0.4553   -2.1676 C   0  0  0  1  0  0  0  0  0  0  0  0
    1.8383    4.7644   -4.0966 C   0  0  0  1  0  0  0  0  0  0  0  0
    1.5902   -1.0611   -2.0060 C   0  0  0  1  0  0  0  0  0  0  0  0
    2.3453    1.0830   -2.6877 O   0  0  0  1  0  0  0  0  0  0  0  0
    1.8972    4.1017   -2.0935 H   0  0  0  1  0  0  0  0  0  0  0  0
    1.8253    4.1397   -4.9652 H   0  0  0  1  0  0  0  0  0  0  0  0
    2.8309    5.1301   -3.9354 H   0  0  0  1  0  0  0  0  0  0  0  0
    1.1727    5.5896   -4.2410 H   0  0  0  1  0  0  0  0  0  0  0  0
    2.5089   -1.2679   -1.4980 H   0  0  0  1  0  0  0  0  0  0  0  0
    1.6048   -1.5229   -2.9711 H   0  0  0  1  0  0  0  0  0  0  0  0
    0.7724   -1.4503   -1.4362 H   0  0  0  1  0  0  0  0  0  0  0  0
   -2.8298    8.8015   -0.0145 I   0  0  0  1  0  0  0  0  0  0  0  0
   -2.3639    6.8066   -0.4285 C   0  0  0  1  0  0  0  0  0  0  0  0
   -1.1110    6.3063   -0.1102 C   0  0  0  1  0  0  0  0  0  0  0  0
   -0.8016    4.9885   -0.3890 C   0  0  0  1  0  0  0  0  0  0  0  0
   -1.7462    4.1655   -0.9822 C   0  0  0  1  0  0  0  0  0  0  0  0
   -2.9956    4.6641   -1.2997 C   0  0  0  1  0  0  0  0  0  0  0  0
   -3.3057    5.9859   -1.0199 C   0  0  0  1  0  0  0  0  0  0  0  0
   -1.4108    2.7236   -1.2819 C   0  0  0  1  0  0  0  0  0  0  0  0
   -0.4036    6.9227    0.3385 H   0  0  0  1  0  0  0  0  0  0  0  0
    0.1398    4.6143   -0.1538 H   0  0  0  1  0  0  0  0  0  0  0  0
   -3.7029    4.0477   -1.7484 H   0  0  0  1  0  0  0  0  0  0  0  0
   -4.2471    6.3601   -1.2551 H   0  0  0  1  0  0  0  0  0  0  0  0
   -1.6207    2.1468   -0.4054 H   0  0  0  1  0  0  0  0  0  0  0  0
   -2.0408    2.3979   -2.0831 H   0  0  0  1  0  0  0  0  0  0  0  0
  1  4  1  0  0  0  0
  2  4  1  0  0  0  0
  2  5  2  0  0  0  0
  2  6  1  0  0  0  0
  3  4  1  0  0  0  0
  3  7  1  0  0  0  0
  3  8  1  0  0  0  0
  4 26  1  0  0  0  0
  6  9  1  0  0  0  0
  6 12  1  0  0  0  0
  8 10  1  0  0  0  0
  8 11  2  0  0  0  0
  9 13  1  0  0  0  0
  9 14  1  0  0  0  0
  9 15  1  0  0  0  0
 10 16  1  0  0  0  0
 10 17  1  0  0  0  0
 10 18  1  0  0  0  0
 19 20  1  0  0  0  0
 20 21  4  0  0  0  0
 20 25  4  0  0  0  0
 21 22  4  0  0  0  0
 21 27  1  0  0  0  0
 22 23  4  0  0  0  0
 22 28  1  0  0  0  0
 23 24  4  0  0  0  0
 23 26  1  0  0  0  0
 24 25  4  0  0  0  0
 24 29  1  0  0  0  0
 25 30  1  0  0  0  0
 26 31  1  0  0  0  0
 26 32  1  0  0  0  0
M  END
> <BCLConfClusterSize>
1

> <ConfClashScore>
0 

> <ConfOneFourInteractionScore>
-0.971454 

> <ConfScore>
0.384312 

> <ConfScorePBest>
0.00393197 

> <ConfTolerance>
0.600538 

> <RosettaParamsInstructions>
M  ROOT 3
M  POLY_N_BB 3
M  POLY_CA_BB 4
M  POLY_C_BB 2
M  POLY_O_BB 5
M  POLY_IGNORE 9 10 11 12 13 14 15 16 17 18 
M  POLY_UPPER 6
M  POLY_LOWER 8
M  POLY_CHG 0
M  POLY_PROPERTIES ALPHA_AA D_AA PROTEIN AROMATIC POLYMER 
M  END

$$$$



 32 32  0  0  0  0  0  0  0  0999 V2000
   -0.9641    3.0800   -3.2981 H   0  0  0  1  0  0  0  0  0  0  0  0
   -0.3154    1.1231   -2.9344 C   0  0  0  1  0  0  0  0  0  0  0  0
    0.7751    3.2440   -2.2115 N   0  0  0  1  0  0  0  0  0  0  0  0
   -0.4946    2.5624   -2.4879 C   0  0  0  1  0  0  0  0  0  0  0  0
   -1.1548    0.2655   -2.6731 O   0  0  0  1  0  0  0  0  0  0  0  0
    0.8069    0.8615   -3.6229 N   0  0  0  1  0  0  0  0  0  0  0  0
    1.1262    3.8763   -2.8729 H   0  0  0  1  0  0  0  0  0  0  0  0
    1.4912    3.0259   -1.0542 C   0  0  0  1  0  0  0  0  0  0  0  0
    1.1165   -0.5025   -4.0248 C   0  0  0  1  0  0  0  0  0  0  0  0
    2.7543    3.8227   -0.9041 C   0  0  0  1  0  0  0  0  0  0  0  0
    1.0891    2.2271   -0.2294 O   0  0  0  1  0  0  0  0  0  0  0  0
    1.4191    1.5906   -3.8554 H   0  0  0  1  0  0  0  0  0  0  0  0
    1.6351   -0.9995   -3.2318 H   0  0  0  1  0  0  0  0  0  0  0  0
    1.7339   -0.4852   -4.8986 H   0  0  0  1  0  0  0  0  0  0  0  0
    0.2082   -1.0256   -4.2396 H   0  0  0  1  0  0  0  0  0  0  0  0
    3.1441    4.0599   -1.8719 H   0  0  0  1  0  0  0  0  0  0  0  0
    3.4752    3.2488   -0.3603 H   0  0  0  1  0  0  0  0  0  0  0  0
    2.5439    4.7275   -0.3730 H   0  0  0  1  0  0  0  0  0  0  0  0
   -2.8298    8.8015   -0.0145 I   0  0  0  1  0  0  0  0  0  0  0  0
   -2.3639    6.8066   -0.4285 C   0  0  0  1  0  0  0  0  0  0  0  0
   -1.1110    6.3063   -0.1102 C   0  0  0  1  0  0  0  0  0  0  0  0
   -0.8016    4.9885   -0.3890 C   0  0  0  1  0  0  0  0  0  0  0  0
   -1.7462    4.1655   -0.9822 C   0  0  0  1  0  0  0  0  0  0  0  0
   -2.9956    4.6641   -1.2997 C   0  0  0  1  0  0  0  0  0  0  0  0
   -3.3057    5.9859   -1.0199 C   0  0  0  1  0  0  0  0  0  0  0  0
   -1.4108    2.7236   -1.2819 C   0  0  0  1  0  0  0  0  0  0  0  0
   -0.4036    6.9227    0.3385 H   0  0  0  1  0  0  0  0  0  0  0  0
    0.1398    4.6143   -0.1538 H   0  0  0  1  0  0  0  0  0  0  0  0
   -3.7029    4.0477   -1.7484 H   0  0  0  1  0  0  0  0  0  0  0  0
   -4.2471    6.3601   -1.2551 H   0  0  0  1  0  0  0  0  0  0  0  0
   -0.9254    2.3020   -0.4266 H   0  0  0  1  0  0  0  0  0  0  0  0
   -2.3212    2.1948   -1.4727 H   0  0  0  1  0  0  0  0  0  0  0  0
  1  4  1  0  0  0  0
  2  4  1  0  0  0  0
  2  5  2  0  0  0  0
  2  6  1  0  0  0  0
  3  4  1  0  0  0  0
  3  7  1  0  0  0  0
  3  8  1  0  0  0  0
  4 26  1  0  0  0  0
  6  9  1  0  0  0  0
  6 12  1  0  0  0  0
  8 10  1  0  0  0  0
  8 11  2  0  0  0  0
  9 13  1  0  0  0  0
  9 14  1  0  0  0  0
  9 15  1  0  0  0  0
 10 16  1  0  0  0  0
 10 17  1  0  0  0  0
 10 18  1  0  0  0  0
 19 20  1  0  0  0  0
 20 21  4  0  0  0  0
 20 25  4  0  0  0  0
 21 22  4  0  0  0  0
 21 27  1  0  0  0  0
 22 23  4  0  0  0  0
 22 28  1  0  0  0  0
 23 24  4  0  0  0  0
 23 26  1  0  0  0  0
 24 25  4  0  0  0  0
 24 29  1  0  0  0  0
 25 30  1  0  0  0  0
 26 31  1  0  0  0  0
 26 32  1  0  0  0  0
M  END
> <BCLConfClusterSize>
1

> <ConfClashScore>
0 

> <ConfOneFourInteractionScore>
-0.953096 

> <ConfScore>
0.389416 

> <ConfScorePBest>
0.00390349 

> <ConfTolerance>
0.474102 

> <RosettaParamsInstructions>
M  ROOT 3
M  POLY_N_BB 3
M  POLY_CA_BB 4
M  POLY_C_BB 2
M  POLY_O_BB 5
M  POLY_IGNORE 9 10 11 12 13 14 15 16 17 18 
M  POLY_UPPER 6
M  POLY_LOWER 8
M  POLY_CHG 0
M  POLY_PROPERTIES ALPHA_AA D_AA PROTEIN AROMATIC POLYMER 
M  END

$$$$



 32 32  0  0  0  0  0  0  0  0999 V2000
   -0.0692    2.9549   -2.8869 H   0  0  0  1  0  0  0  0  0  0  0  0
   -1.9982    3.1590   -3.6948 C   0  0  0  1  0  0  0  0  0  0  0  0
   -0.8603    1.0603   -2.9521 N   0  0  0  1  0  0  0  0  0  0  0  0
   -1.0218    2.4908   -2.7388 C   0  0  0  1  0  0  0  0  0  0  0  0
   -3.1321    2.7092   -3.8551 O   0  0  0  1  0  0  0  0  0  0  0  0
   -1.5877    4.2464   -4.3535 N   0  0  0  1  0  0  0  0  0  0  0  0
    0.0451    0.6918   -3.0222 H   0  0  0  1  0  0  0  0  0  0  0  0
   -1.9034    0.2319   -3.0556 C   0  0  0  1  0  0  0  0  0  0  0  0
   -2.4625    4.9904   -5.2474 C   0  0  0  1  0  0  0  0  0  0  0  0
   -1.5691   -1.2087   -3.3476 C   0  0  0  1  0  0  0  0  0  0  0  0
   -3.0671    0.6023   -2.9244 O   0  0  0  1  0  0  0  0  0  0  0  0
   -0.6653    4.5538   -4.2304 H   0  0  0  1  0  0  0  0  0  0  0  0
   -3.4172    5.1242   -4.7832 H   0  0  0  1  0  0  0  0  0  0  0  0
   -2.5836    4.4472   -6.1613 H   0  0  0  1  0  0  0  0  0  0  0  0
   -2.0300    5.9468   -5.4550 H   0  0  0  1  0  0  0  0  0  0  0  0
   -2.4682   -1.7474   -3.5633 H   0  0  0  1  0  0  0  0  0  0  0  0
   -1.0892   -1.6430   -2.4955 H   0  0  0  1  0  0  0  0  0  0  0  0
   -0.9128   -1.2584   -4.1912 H   0  0  0  1  0  0  0  0  0  0  0  0
   -2.8298    8.8015   -0.0145 I   0  0  0  1  0  0  0  0  0  0  0  0
   -2.3639    6.8066   -0.4285 C   0  0  0  1  0  0  0  0  0  0  0  0
   -1.1110    6.3063   -0.1102 C   0  0  0  1  0  0  0  0  0  0  0  0
   -0.8016    4.9885   -0.3890 C   0  0  0  1  0  0  0  0  0  0  0  0
   -1.7462    4.1655   -0.9822 C   0  0  0  1  0  0  0  0  0  0  0  0
   -2.9956    4.6641   -1.2997 C   0  0  0  1  0  0  0  0  0  0  0  0
   -3.3057    5.9859   -1.0199 C   0  0  0  1  0  0  0  0  0  0  0  0
   -1.4108    2.7236   -1.2819 C   0  0  0  1  0  0  0  0  0  0  0  0
   -0.4036    6.9227    0.3385 H   0  0  0  1  0  0  0  0  0  0  0  0
    0.1398    4.6143   -0.1538 H   0  0  0  1  0  0  0  0  0  0  0  0
   -3.7029    4.0477   -1.7484 H   0  0  0  1  0  0  0  0  0  0  0  0
   -4.2471    6.3601   -1.2551 H   0  0  0  1  0  0  0  0  0  0  0  0
   -0.5923    2.4278   -0.6594 H   0  0  0  1  0  0  0  0  0  0  0  0
   -2.2662    2.1212   -1.0573 H   0  0  0  1  0  0  0  0  0  0  0  0
  1  4  1  0  0  0  0
  2  4  1  0  0  0  0
  2  5  2  0  0  0  0
  2  6  1  0  0  0  0
  3  4  1  0  0  0  0
  3  7  1  0  0  0  0
  3  8  1  0  0  0  0
  4 26  1  0  0  0  0
  6  9  1  0  0  0  0
  6 12  1  0  0  0  0
  8 10  1  0  0  0  0
  8 11  2  0  0  0  0
  9 13  1  0  0  0  0
  9 14  1  0  0  0  0
  9 15  1  0  0  0  0
 10 16  1  0  0  0  0
 10 17  1  0  0  0  0
 10 18  1  0  0  0  0
 19 20  1  0  0  0  0
 20 21  4  0  0  0  0
 20 25  4  0  0  0  0
 21 22  4  0  0  0  0
 21 27  1  0  0  0  0
 22 23  4  0  0  0  0
 22 28  1  0  0  0  0
 23 24  4  0  0  0  0
 23 26  1  0  0  0  0
 24 25  4  0  0  0  0
 24 29  1  0  0  0  0
 25 30  1  0  0  0  0
 26 31  1  0  0  0  0
 26 32  1  0  0  0  0
M  END
> <BCLConfClusterSize>
1

> <ConfClashScore>
0 

> <ConfOneFourInteractionScore>
-0.983383 

> <ConfScore>
0.391378 

> <ConfScorePBest>
0.00387501 

> <ConfTolerance>
0.403454 

> <RosettaParamsInstructions>
M  ROOT 3
M  POLY_N_BB 3
M  POLY_CA_BB 4
M  POLY_C_BB 2
M  POLY_O_BB 5
M  POLY_IGNORE 9 10 11 12 13 14 15 16 17 18 
M  POLY_UPPER 6
M  POLY_LOWER 8
M  POLY_CHG 0
M  POLY_PROPERTIES ALPHA_AA D_AA PROTEIN AROMATIC POLYMER 
M  END

$$$$



 32 32  0  0  0  0  0  0  0  0999 V2000
   -3.1284    1.7909   -0.5098 H   0  0  0  1  0  0  0  0  0  0  0  0
   -1.8603    2.1456    1.1289 C   0  0  0  1  0  0  0  0  0  0  0  0
   -1.6223    0.4000   -0.6458 N   0  0  0  1  0  0  0  0  0  0  0  0
   -2.0758    1.7447   -0.3231 C   0  0  0  1  0  0  0  0  0  0  0  0
   -1.5637    3.2894    1.4326 O   0  0  0  1  0  0  0  0  0  0  0  0
   -2.0175    1.1670    2.0333 N   0  0  0  1  0  0  0  0  0  0  0  0
   -2.1678   -0.1523   -1.2439 H   0  0  0  1  0  0  0  0  0  0  0  0
   -0.4769   -0.1126   -0.1502 C   0  0  0  1  0  0  0  0  0  0  0  0
   -1.6808    1.3451    3.4378 C   0  0  0  1  0  0  0  0  0  0  0  0
   -0.1086   -1.5334   -0.5306 C   0  0  0  1  0  0  0  0  0  0  0  0
    0.2478    0.5501    0.5874 O   0  0  0  1  0  0  0  0  0  0  0  0
   -2.3713    0.3022    1.7377 H   0  0  0  1  0  0  0  0  0  0  0  0
   -1.8419    2.3654    3.7172 H   0  0  0  1  0  0  0  0  0  0  0  0
   -0.6530    1.0912    3.5929 H   0  0  0  1  0  0  0  0  0  0  0  0
   -2.2999    0.7097    4.0361 H   0  0  0  1  0  0  0  0  0  0  0  0
   -0.7903   -2.2154   -0.0669 H   0  0  0  1  0  0  0  0  0  0  0  0
    0.8869   -1.7443   -0.1996 H   0  0  0  1  0  0  0  0  0  0  0  0
   -0.1623   -1.6432   -1.5935 H   0  0  0  1  0  0  0  0  0  0  0  0
   -2.8298    8.8015   -0.0145 I   0  0  0  1  0  0  0  0  0  0  0  0
   -2.3639    6.8066   -0.4285 C   0  0  0  1  0  0  0  0  0  0  0  0
   -1.1109    6.3063   -0.1102 C   0  0  0  1  0  0  0  0  0  0  0  0
   -0.8016    4.9885   -0.3890 C   0  0  0  1  0  0  0  0  0  0  0  0
   -1.7462    4.1655   -0.9822 C   0  0  0  1  0  0  0  0  0  0  0  0
   -2.9956    4.6641   -1.2997 C   0  0  0  1  0  0  0  0  0  0  0  0
   -3.3057    5.9859   -1.0199 C   0  0  0  1  0  0  0  0  0  0  0  0
   -1.4108    2.7236   -1.2819 C   0  0  0  1  0  0  0  0  0  0  0  0
   -0.4036    6.9227    0.3385 H   0  0  0  1  0  0  0  0  0  0  0  0
    0.1398    4.6143   -0.1538 H   0  0  0  1  0  0  0  0  0  0  0  0
   -3.7029    4.0477   -1.7484 H   0  0  0  1  0  0  0  0  0  0  0  0
   -4.2471    6.3601   -1.2551 H   0  0  0  1  0  0  0  0  0  0  0  0
   -1.7339    2.4985   -2.2768 H   0  0  0  1  0  0  0  0  0  0  0  0
   -0.3502    2.5994   -1.2140 H   0  0  0  1  0  0  0  0  0  0  0  0
  1  4  1  0  0  0  0
  2  4  1  0  0  0  0
  2  5  2  0  0  0  0
  2  6  1  0  0  0  0
  3  4  1  0  0  0  0
  3  7  1  0  0  0  0
  3  8  1  0  0  0  0
  4 26  1  0  0  0  0
  6  9  1  0  0  0  0
  6 12  1  0  0  0  0
  8 10  1  0  0  0  0
  8 11  2  0  0  0  0
  9 13  1  0  0  0  0
  9 14  1  0  0  0  0
  9 15  1  0  0  0  0
 10 16  1  0  0  0  0
 10 17  1  0  0  0  0
 10 18  1  0  0  0  0
 19 20  1  0  0  0  0
 20 21  4  0  0  0  0
 20 25  4  0  0  0  0
 21 22  4  0  0  0  0
 21 27  1  0  0  0  0
 22 23  4  0  0  0  0
 22 28  1  0  0  0  0
 23 24  4  0  0  0  0
 23 26  1  0  0  0  0
 24 25  4  0  0  0  0
 24 29  1  0  0  0  0
 25 30  1  0  0  0  0
 26 31  1  0  0  0  0
 26 32  1  0  0  0  0
M  END
> <BCLConfClusterSize>
1

> <ConfClashScore>
0 

> <ConfOneFourInteractionScore>
-0.957364 

> <ConfScore>
0.393153 

> <ConfScorePBest>
0.00384653 

> <ConfTolerance>
0.277821 

> <RosettaParamsInstructions>
M  ROOT 3
M  POLY_N_BB 3
M  POLY_CA_BB 4
M  POLY_C_BB 2
M  POLY_O_BB 5
M  POLY_IGNORE 9 10 11 12 13 14 15 16 17 18 
M  POLY_UPPER 6
M  POLY_LOWER 8
M  POLY_CHG 0
M  POLY_PROPERTIES ALPHA_AA D_AA PROTEIN AROMATIC POLYMER 
M  END

$$$$



 32 32  0  0  0  0  0  0  0  0999 V2000
    0.0138    2.9750   -2.8191 H   0  0  0  1  0  0  0  0  0  0  0  0
   -1.8782    3.1653   -3.7157 C   0  0  0  1  0  0  0  0  0  0  0  0
   -0.7775    1.0827   -2.9859 N   0  0  0  1  0  0  0  0  0  0  0  0
   -0.9420    2.5042   -2.7210 C   0  0  0  1  0  0  0  0  0  0  0  0
   -1.6497    4.2599   -4.1974 O   0  0  0  1  0  0  0  0  0  0  0  0
   -2.9946    2.5277   -4.0793 N   0  0  0  1  0  0  0  0  0  0  0  0
   -1.4945    0.4560   -2.7543 H   0  0  0  1  0  0  0  0  0  0  0  0
    0.3489    0.6303   -3.5441 C   0  0  0  1  0  0  0  0  0  0  0  0
   -3.9470    3.1017   -5.0180 C   0  0  0  1  0  0  0  0  0  0  0  0
    0.4249   -0.8856   -3.7110 C   0  0  0  1  0  0  0  0  0  0  0  0
    1.3000    1.3481   -3.8415 O   0  0  0  1  0  0  0  0  0  0  0  0
   -3.1785    1.6427   -3.7007 H   0  0  0  1  0  0  0  0  0  0  0  0
   -3.6440    4.0963   -5.2710 H   0  0  0  1  0  0  0  0  0  0  0  0
   -4.9180    3.1282   -4.5692 H   0  0  0  1  0  0  0  0  0  0  0  0
   -3.9793    2.5028   -5.9040 H   0  0  0  1  0  0  0  0  0  0  0  0
   -0.4461   -1.2324   -4.2267 H   0  0  0  1  0  0  0  0  0  0  0  0
    0.4764   -1.3481   -2.7474 H   0  0  0  1  0  0  0  0  0  0  0  0
    1.2979   -1.1387   -4.2756 H   0  0  0  1  0  0  0  0  0  0  0  0
   -2.8298    8.8015   -0.0145 I   0  0  0  1  0  0  0  0  0  0  0  0
   -2.3639    6.8066   -0.4285 C   0  0  0  1  0  0  0  0  0  0  0  0
   -1.1110    6.3063   -0.1102 C   0  0  0  1  0  0  0  0  0  0  0  0
   -0.8016    4.9885   -0.3890 C   0  0  0  1  0  0  0  0  0  0  0  0
   -1.7462    4.1655   -0.9822 C   0  0  0  1  0  0  0  0  0  0  0  0
   -2.9956    4.6641   -1.2997 C   0  0  0  1  0  0  0  0  0  0  0  0
   -3.3057    5.9859   -1.0199 C   0  0  0  1  0  0  0  0  0  0  0  0
   -1.4108    2.7236   -1.2819 C   0  0  0  1  0  0  0  0  0  0  0  0
   -0.4036    6.9227    0.3385 H   0  0  0  1  0  0  0  0  0  0  0  0
    0.1398    4.6143   -0.1538 H   0  0  0  1  0  0  0  0  0  0  0  0
   -3.7029    4.0477   -1.7484 H   0  0  0  1  0  0  0  0  0  0  0  0
   -4.2471    6.3601   -1.2551 H   0  0  0  1  0  0  0  0  0  0  0  0
   -0.6320    2.4101   -0.6185 H   0  0  0  1  0  0  0  0  0  0  0  0
   -2.2842    2.1288   -1.1138 H   0  0  0  1  0  0  0  0  0  0  0  0
  1  4  1  0  0  0  0
  2  4  1  0  0  0  0
  2  5  2  0  0  0  0
  2  6  1  0  0  0  0
  3  4  1  0  0  0  0
  3  7  1  0  0  0  0
  3  8  1  0  0  0  0
  4 26  1  0  0  0  0
  6  9  1  0  0  0  0
  6 12  1  0  0  0  0
  8 10  1  0  0  0  0
  8 11  2  0  0  0  0
  9 13  1  0  0  0  0
  9 14  1  0  0  0  0
  9 15  1  0  0  0  0
 10 16  1  0  0  0  0
 10 17  1  0  0  0  0
 10 18  1  0  0  0  0
 19 20  1  0  0  0  0
 20 21  4  0  0  0  0
 20 25  4  0  0  0  0
 21 22  4  0  0  0  0
 21 27  1  0  0  0  0
 22 23  4  0  0  0  0
 22 28  1  0  0  0  0
 23 24  4  0  0  0  0
 23 26  1  0  0  0  0
 24 25  4  0  0  0  0
 24 29  1  0  0  0  0
 25 30  1  0  0  0  0
 26 31  1  0  0  0  0
 26 32  1  0  0  0  0
M  END
> <BCLConfClusterSize>
1

> <ConfClashScore>
0 

> <ConfOneFourInteractionScore>
-0.956443 

> <ConfScore>
0.39405 

> <ConfScorePBest>
0.00381805 

> <ConfTolerance>
0.629542 

> <RosettaParamsInstructions>
M  ROOT 3
M  POLY_N_BB 3
M  POLY_CA_BB 4
M  POLY_C_BB 2
M  POLY_O_BB 5
M  POLY_IGNORE 9 10 11 12 13 14 15 16 17 18 
M  POLY_UPPER 6
M  POLY_LOWER 8
M  POLY_CHG 0
M  POLY_PROPERTIES ALPHA_AA D_AA PROTEIN AROMATIC POLYMER 
M  END

$$$$



 32 32  0  0  0  0  0  0  0  0999 V2000
   -1.2184    1.2155   -2.6629 H   0  0  0  1  0  0  0  0  0  0  0  0
   -0.2282    2.8077   -3.5400 C   0  0  0  1  0  0  0  0  0  0  0  0
   -2.6947    2.4467   -3.3628 N   0  0  0  1  0  0  0  0  0  0  0  0
   -1.3763    2.2729   -2.7062 C   0  0  0  1  0  0  0  0  0  0  0  0
    0.4606    2.0646   -4.2196 O   0  0  0  1  0  0  0  0  0  0  0  0
   -0.0295    4.1338   -3.4765 N   0  0  0  1  0  0  0  0  0  0  0  0
   -3.4965    2.5136   -2.8033 H   0  0  0  1  0  0  0  0  0  0  0  0
   -2.8274    2.5152   -4.6905 C   0  0  0  1  0  0  0  0  0  0  0  0
    0.9765    4.8086   -4.2830 C   0  0  0  1  0  0  0  0  0  0  0  0
   -4.2320    2.7738   -5.1997 C   0  0  0  1  0  0  0  0  0  0  0  0
   -1.8836    2.3798   -5.4647 O   0  0  0  1  0  0  0  0  0  0  0  0
   -0.5810    4.6660   -2.8658 H   0  0  0  1  0  0  0  0  0  0  0  0
    0.6669    5.8154   -4.4713 H   0  0  0  1  0  0  0  0  0  0  0  0
    1.0934    4.2919   -5.2127 H   0  0  0  1  0  0  0  0  0  0  0  0
    1.9089    4.8147   -3.7581 H   0  0  0  1  0  0  0  0  0  0  0  0
   -4.4102    3.8283   -5.2361 H   0  0  0  1  0  0  0  0  0  0  0  0
   -4.9399    2.3152   -4.5413 H   0  0  0  1  0  0  0  0  0  0  0  0
   -4.3371    2.3605   -6.1810 H   0  0  0  1  0  0  0  0  0  0  0  0
   -2.8245    8.8022   -0.0124 I   0  0  0  1  0  0  0  0  0  0  0  0
   -2.3645    6.8064   -0.4288 C   0  0  0  1  0  0  0  0  0  0  0  0
   -1.1127    6.3023   -0.1120 C   0  0  0  1  0  0  0  0  0  0  0  0
   -0.8072    4.9839   -0.3924 C   0  0  0  1  0  0  0  0  0  0  0  0
   -1.7547    4.1642   -0.9857 C   0  0  0  1  0  0  0  0  0  0  0  0
   -3.0029    4.6666   -1.3016 C   0  0  0  1  0  0  0  0  0  0  0  0
   -3.3091    5.9890   -1.0203 C   0  0  0  1  0  0  0  0  0  0  0  0
   -1.3707    2.7303   -1.2650 C   0  0  0  1  0  0  0  0  0  0  0  0
   -0.4033    6.9163    0.3368 H   0  0  0  1  0  0  0  0  0  0  0  0
    0.1333    4.6069   -0.1584 H   0  0  0  1  0  0  0  0  0  0  0  0
   -3.7123    4.0526   -1.7504 H   0  0  0  1  0  0  0  0  0  0  0  0
   -4.2497    6.3660   -1.2543 H   0  0  0  1  0  0  0  0  0  0  0  0
   -0.3804    2.5846   -0.8867 H   0  0  0  1  0  0  0  0  0  0  0  0
   -2.0537    2.1056   -0.7282 H   0  0  0  1  0  0  0  0  0  0  0  0
  1  4  1  0  0  0  0
  2  4  1  0  0  0  0
  2  5  2  0  0  0  0
  2  6  1  0  0  0  0
  3  4  1  0  0  0  0
  3  7  1  0  0  0  0
  3  8  1  0  0  0  0
  4 26  1  0  0  0  0
  6  9  1  0  0  0  0
  6 12  1  0  0  0  0
  8 10  1  0  0  0  0
  8 11  2  0  0  0  0
  9 13  1  0  0  0  0
  9 14  1  0  0  0  0
  9 15  1  0  0  0  0
 10 16  1  0  0  0  0
 10 17  1  0  0  0  0
 10 18  1  0  0  0  0
 19 20  1  0  0  0  0
 20 21  4  0  0  0  0
 20 25  4  0  0  0  0
 21 22  4  0  0  0  0
 21 27  1  0  0  0  0
 22 23  4  0  0  0  0
 22 28  1  0  0  0  0
 23 24  4  0  0  0  0
 23 26  1  0  0  0  0
 24 25  4  0  0  0  0
 24 29  1  0  0  0  0
 25 30  1  0  0  0  0
 26 31  1  0  0  0  0
 26 32  1  0  0  0  0
M  END
> <BCLConfClusterSize>
1

> <ConfClashScore>
0 

> <ConfOneFourInteractionScore>
-0.944279 

> <ConfScore>
0.396212 

> <ConfScorePBest>
0.00378957 

> <ConfTolerance>
0.586299 

> <RosettaParamsInstructions>
M  ROOT 3
M  POLY_N_BB 3
M  POLY_CA_BB 4
M  POLY_C_BB 2
M  POLY_O_BB 5
M  POLY_IGNORE 9 10 11 12 13 14 15 16 17 18 
M  POLY_UPPER 6
M  POLY_LOWER 8
M  POLY_CHG 0
M  POLY_PROPERTIES ALPHA_AA D_AA PROTEIN AROMATIC POLYMER 
M  END

$$$$



 32 32  0  0  0  0  0  0  0  0999 V2000
   -0.8193    1.3910   -2.8091 H   0  0  0  1  0  0  0  0  0  0  0  0
    0.3739    3.1087   -3.0418 C   0  0  0  1  0  0  0  0  0  0  0  0
   -1.9618    2.8685   -3.6987 N   0  0  0  1  0  0  0  0  0  0  0  0
   -0.9547    2.4481   -2.7143 C   0  0  0  1  0  0  0  0  0  0  0  0
    0.7385    4.1092   -2.4257 O   0  0  0  1  0  0  0  0  0  0  0  0
    1.0666    2.6088   -4.0764 N   0  0  0  1  0  0  0  0  0  0  0  0
   -2.7289    3.3971   -3.3943 H   0  0  0  1  0  0  0  0  0  0  0  0
   -1.8673    2.5525   -5.0049 C   0  0  0  1  0  0  0  0  0  0  0  0
    2.2558    3.2298   -4.6403 C   0  0  0  1  0  0  0  0  0  0  0  0
   -2.9951    3.1220   -5.8558 C   0  0  0  1  0  0  0  0  0  0  0  0
   -0.9706    1.8721   -5.4964 O   0  0  0  1  0  0  0  0  0  0  0  0
    0.7517    1.7721   -4.4780 H   0  0  0  1  0  0  0  0  0  0  0  0
    2.7560    3.7966   -3.8830 H   0  0  0  1  0  0  0  0  0  0  0  0
    1.9727    3.8787   -5.4426 H   0  0  0  1  0  0  0  0  0  0  0  0
    2.9132    2.4707   -5.0099 H   0  0  0  1  0  0  0  0  0  0  0  0
   -3.7728    3.4888   -5.2190 H   0  0  0  1  0  0  0  0  0  0  0  0
   -3.3862    2.3539   -6.4898 H   0  0  0  1  0  0  0  0  0  0  0  0
   -2.6186    3.9236   -6.4564 H   0  0  0  1  0  0  0  0  0  0  0  0
   -2.8353    8.8006   -0.0169 I   0  0  0  1  0  0  0  0  0  0  0  0
   -2.3632    6.8066   -0.4282 C   0  0  0  1  0  0  0  0  0  0  0  0
   -1.1090    6.3104   -0.1083 C   0  0  0  1  0  0  0  0  0  0  0  0
   -0.7955    4.9932   -0.3854 C   0  0  0  1  0  0  0  0  0  0  0  0
   -1.7371    4.1668   -0.9784 C   0  0  0  1  0  0  0  0  0  0  0  0
   -2.9877    4.6613   -1.2976 C   0  0  0  1  0  0  0  0  0  0  0  0
   -3.3020    5.9825   -1.0196 C   0  0  0  1  0  0  0  0  0  0  0  0
   -1.4543    2.7182   -1.2996 C   0  0  0  1  0  0  0  0  0  0  0  0
   -0.4039    6.9294    0.3404 H   0  0  0  1  0  0  0  0  0  0  0  0
    0.1469    4.6221   -0.1489 H   0  0  0  1  0  0  0  0  0  0  0  0
   -3.6928    4.0423   -1.7462 H   0  0  0  1  0  0  0  0  0  0  0  0
   -4.2443    6.3536   -1.2560 H   0  0  0  1  0  0  0  0  0  0  0  0
   -0.7112    2.3672   -0.6144 H   0  0  0  1  0  0  0  0  0  0  0  0
   -2.3598    2.1659   -1.1583 H   0  0  0  1  0  0  0  0  0  0  0  0
  1  4  1  0  0  0  0
  2  4  1  0  0  0  0
  2  5  2  0  0  0  0
  2  6  1  0  0  0  0
  3  4  1  0  0  0  0
  3  7  1  0  0  0  0
  3  8  1  0  0  0  0
  4 26  1  0  0  0  0
  6  9  1  0  0  0  0
  6 12  1  0  0  0  0
  8 10  1  0  0  0  0
  8 11  2  0  0  0  0
  9 13  1  0  0  0  0
  9 14  1  0  0  0  0
  9 15  1  0  0  0  0
 10 16  1  0  0  0  0
 10 17  1  0  0  0  0
 10 18  1  0  0  0  0
 19 20  1  0  0  0  0
 20 21  4  0  0  0  0
 20 25  4  0  0  0  0
 21 22  4  0  0  0  0
 21 27  1  0  0  0  0
 22 23  4  0  0  0  0
 22 28  1  0  0  0  0
 23 24  4  0  0  0  0
 23 26  1  0  0  0  0
 24 25  4  0  0  0  0
 24 29  1  0  0  0  0
 25 30  1  0  0  0  0
 26 31  1  0  0  0  0
 26 32  1  0  0  0  0
M  END
> <BCLConfClusterSize>
1

> <ConfClashScore>
0 

> <ConfOneFourInteractionScore>
-0.969421 

> <ConfScore>
0.396344 

> <ConfScorePBest>
0.00376109 

> <ConfTolerance>
0.495827 

> <RosettaParamsInstructions>
M  ROOT 3
M  POLY_N_BB 3
M  POLY_CA_BB 4
M  POLY_C_BB 2
M  POLY_O_BB 5
M  POLY_IGNORE 9 10 11 12 13 14 15 16 17 18 
M  POLY_UPPER 6
M  POLY_LOWER 8
M  POLY_CHG 0
M  POLY_PROPERTIES ALPHA_AA D_AA PROTEIN AROMATIC POLYMER 
M  END

$$$$



 32 32  0  0  0  0  0  0  0  0999 V2000
   -2.9347    2.4383   -2.6622 H   0  0  0  1  0  0  0  0  0  0  0  0
   -3.6483    1.7230   -0.8088 C   0  0  0  1  0  0  0  0  0  0  0  0
   -1.9586    0.6557   -2.2949 N   0  0  0  1  0  0  0  0  0  0  0  0
   -2.5333    1.9072   -1.8245 C   0  0  0  1  0  0  0  0  0  0  0  0
   -4.4866    2.5900   -0.6246 O   0  0  0  1  0  0  0  0  0  0  0  0
   -3.6431    0.5653   -0.1461 N   0  0  0  1  0  0  0  0  0  0  0  0
   -0.9835    0.5730   -2.3469 H   0  0  0  1  0  0  0  0  0  0  0  0
   -2.7216   -0.3948   -2.6619 C   0  0  0  1  0  0  0  0  0  0  0  0
   -4.7170    0.1824    0.7583 C   0  0  0  1  0  0  0  0  0  0  0  0
   -2.0247   -1.6356   -3.1722 C   0  0  0  1  0  0  0  0  0  0  0  0
   -3.9388   -0.3473   -2.5851 O   0  0  0  1  0  0  0  0  0  0  0  0
   -2.8898   -0.0487   -0.2727 H   0  0  0  1  0  0  0  0  0  0  0  0
   -5.6117    0.0094    0.1974 H   0  0  0  1  0  0  0  0  0  0  0  0
   -4.8855    0.9684    1.4645 H   0  0  0  1  0  0  0  0  0  0  0  0
   -4.4435   -0.7121    1.2778 H   0  0  0  1  0  0  0  0  0  0  0  0
   -1.8781   -1.5539   -4.2290 H   0  0  0  1  0  0  0  0  0  0  0  0
   -2.6266   -2.4948   -2.9613 H   0  0  0  1  0  0  0  0  0  0  0  0
   -1.0760   -1.7364   -2.6876 H   0  0  0  1  0  0  0  0  0  0  0  0
   -2.8776    8.7935   -0.0347 I   0  0  0  1  0  0  0  0  0  0  0  0
   -2.3520    6.8084   -0.4236 C   0  0  0  1  0  0  0  0  0  0  0  0
   -1.1021    6.2979   -0.1094 C   0  0  0  1  0  0  0  0  0  0  0  0
   -0.8031    4.9786   -0.3925 C   0  0  0  1  0  0  0  0  0  0  0  0
   -1.7551    4.1643   -0.9858 C   0  0  0  1  0  0  0  0  0  0  0  0
   -3.0014    4.6730   -1.2992 C   0  0  0  1  0  0  0  0  0  0  0  0
   -3.3011    5.9963   -1.0152 C   0  0  0  1  0  0  0  0  0  0  0  0
   -1.3781    2.7292   -1.2681 C   0  0  0  1  0  0  0  0  0  0  0  0
   -0.3893    6.9078    0.3395 H   0  0  0  1  0  0  0  0  0  0  0  0
    0.1360    4.5969   -0.1603 H   0  0  0  1  0  0  0  0  0  0  0  0
   -3.7142    4.0631   -1.7481 H   0  0  0  1  0  0  0  0  0  0  0  0
   -4.2403    6.3781   -1.2473 H   0  0  0  1  0  0  0  0  0  0  0  0
   -0.5798    2.7205   -1.9805 H   0  0  0  1  0  0  0  0  0  0  0  0
   -1.0475    2.2781   -0.3558 H   0  0  0  1  0  0  0  0  0  0  0  0
  1  4  1  0  0  0  0
  2  4  1  0  0  0  0
  2  5  2  0  0  0  0
  2  6  1  0  0  0  0
  3  4  1  0  0  0  0
  3  7  1  0  0  0  0
  3  8  1  0  0  0  0
  4 26  1  0  0  0  0
  6  9  1  0  0  0  0
  6 12  1  0  0  0  0
  8 10  1  0  0  0  0
  8 11  2  0  0  0  0
  9 13  1  0  0  0  0
  9 14  1  0  0  0  0
  9 15  1  0  0  0  0
 10 16  1  0  0  0  0
 10 17  1  0  0  0  0
 10 18  1  0  0  0  0
 19 20  1  0  0  0  0
 20 21  4  0  0  0  0
 20 25  4  0  0  0  0
 21 22  4  0  0  0  0
 21 27  1  0  0  0  0
 22 23  4  0  0  0  0
 22 28  1  0  0  0  0
 23 24  4  0  0  0  0
 23 26  1  0  0  0  0
 24 25  4  0  0  0  0
 24 29  1  0  0  0  0
 25 30  1  0  0  0  0
 26 31  1  0  0  0  0
 26 32  1  0  0  0  0
M  END
> <BCLConfClusterSize>
1

> <ConfClashScore>
0 

> <ConfOneFourInteractionScore>
-0.949001 

> <ConfScore>
0.397292 

> <ConfScorePBest>
0.00373261 

> <ConfTolerance>
0.602375 

> <RosettaParamsInstructions>
M  ROOT 3
M  POLY_N_BB 3
M  POLY_CA_BB 4
M  POLY_C_BB 2
M  POLY_O_BB 5
M  POLY_IGNORE 9 10 11 12 13 14 15 16 17 18 
M  POLY_UPPER 6
M  POLY_LOWER 8
M  POLY_CHG 0
M  POLY_PROPERTIES ALPHA_AA D_AA PROTEIN AROMATIC POLYMER 
M  END

$$$$



 32 32  0  0  0  0  0  0  0  0999 V2000
    0.6243    2.9849   -1.7948 H   0  0  0  1  0  0  0  0  0  0  0  0
    0.3472    0.9107   -1.6823 C   0  0  0  1  0  0  0  0  0  0  0  0
    0.4920    2.4919    0.2039 N   0  0  0  1  0  0  0  0  0  0  0  0
    0.0450    2.3179   -1.1912 C   0  0  0  1  0  0  0  0  0  0  0  0
   -0.3472    0.3722   -2.5403 O   0  0  0  1  0  0  0  0  0  0  0  0
    1.4038    0.3149   -1.1222 N   0  0  0  1  0  0  0  0  0  0  0  0
    1.0438    3.2696    0.4302 H   0  0  0  1  0  0  0  0  0  0  0  0
    0.1709    1.6262    1.1695 C   0  0  0  1  0  0  0  0  0  0  0  0
    1.7855   -1.0560   -1.4420 C   0  0  0  1  0  0  0  0  0  0  0  0
    0.7753    1.8945    2.5504 C   0  0  0  1  0  0  0  0  0  0  0  0
   -0.5599    0.6444    1.0444 O   0  0  0  1  0  0  0  0  0  0  0  0
    1.9410    0.8165   -0.4740 H   0  0  0  1  0  0  0  0  0  0  0  0
    0.9278   -1.5941   -1.7881 H   0  0  0  1  0  0  0  0  0  0  0  0
    2.1747   -1.5312   -0.5659 H   0  0  0  1  0  0  0  0  0  0  0  0
    2.5339   -1.0485   -2.2066 H   0  0  0  1  0  0  0  0  0  0  0  0
    1.2965    2.8289    2.5367 H   0  0  0  1  0  0  0  0  0  0  0  0
    1.4581    1.1092    2.7993 H   0  0  0  1  0  0  0  0  0  0  0  0
   -0.0062    1.9330    3.2802 H   0  0  0  1  0  0  0  0  0  0  0  0
   -2.8231    8.8071   -0.0353 I   0  0  0  1  0  0  0  0  0  0  0  0
   -2.3624    6.8074   -0.4319 C   0  0  0  1  0  0  0  0  0  0  0  0
   -1.1115    6.3061   -0.1074 C   0  0  0  1  0  0  0  0  0  0  0  0
   -0.8056    4.9851   -0.3748 C   0  0  0  1  0  0  0  0  0  0  0  0
   -1.7517    4.1600   -0.9627 C   0  0  0  1  0  0  0  0  0  0  0  0
   -2.9991    4.6597   -1.2863 C   0  0  0  1  0  0  0  0  0  0  0  0
   -3.3057    5.9847   -1.0181 C   0  0  0  1  0  0  0  0  0  0  0  0
   -1.3973    2.7414   -1.3414 C   0  0  0  1  0  0  0  0  0  0  0  0
   -0.4031    6.9241    0.3373 H   0  0  0  1  0  0  0  0  0  0  0  0
    0.1343    4.6101   -0.1349 H   0  0  0  1  0  0  0  0  0  0  0  0
   -3.7075    4.0417   -1.7311 H   0  0  0  1  0  0  0  0  0  0  0  0
   -4.2456    6.3597   -1.2579 H   0  0  0  1  0  0  0  0  0  0  0  0
   -1.9874    2.0902   -0.7311 H   0  0  0  1  0  0  0  0  0  0  0  0
   -1.6648    2.6080   -2.3688 H   0  0  0  1  0  0  0  0  0  0  0  0
  1  4  1  0  0  0  0
  2  4  1  0  0  0  0
  2  5  2  0  0  0  0
  2  6  1  0  0  0  0
  3  4  1  0  0  0  0
  3  7  1  0  0  0  0
  3  8  1  0  0  0  0
  4 26  1  0  0  0  0
  6  9  1  0  0  0  0
  6 12  1  0  0  0  0
  8 10  1  0  0  0  0
  8 11  2  0  0  0  0
  9 13  1  0  0  0  0
  9 14  1  0  0  0  0
  9 15  1  0  0  0  0
 10 16  1  0  0  0  0
 10 17  1  0  0  0  0
 10 18  1  0  0  0  0
 19 20  1  0  0  0  0
 20 21  4  0  0  0  0
 20 25  4  0  0  0  0
 21 22  4  0  0  0  0
 21 27  1  0  0  0  0
 22 23  4  0  0  0  0
 22 28  1  0  0  0  0
 23 24  4  0  0  0  0
 23 26  1  0  0  0  0
 24 25  4  0  0  0  0
 24 29  1  0  0  0  0
 25 30  1  0  0  0  0
 26 31  1  0  0  0  0
 26 32  1  0  0  0  0
M  END
> <BCLConfClusterSize>
1

> <ConfClashScore>
0 

> <ConfOneFourInteractionScore>
-0.946047 

> <ConfScore>
0.398107 

> <ConfScorePBest>
0.00370413 

> <ConfTolerance>
0.387133 

> <RosettaParamsInstructions>
M  ROOT 3
M  POLY_N_BB 3
M  POLY_CA_BB 4
M  POLY_C_BB 2
M  POLY_O_BB 5
M  POLY_IGNORE 9 10 11 12 13 14 15 16 17 18 
M  POLY_UPPER 6
M  POLY_LOWER 8
M  POLY_CHG 0
M  POLY_PROPERTIES ALPHA_AA D_AA PROTEIN AROMATIC POLYMER 
M  END

$$$$



 32 32  0  0  0  0  0  0  0  0999 V2000
   -1.6046    2.8523   -3.3708 H   0  0  0  1  0  0  0  0  0  0  0  0
   -0.5458    1.0771   -3.0464 C   0  0  0  1  0  0  0  0  0  0  0  0
    0.3361    3.3710   -2.9021 N   0  0  0  1  0  0  0  0  0  0  0  0
   -0.8495    2.5192   -2.6898 C   0  0  0  1  0  0  0  0  0  0  0  0
   -0.3375    0.2416   -2.1821 O   0  0  0  1  0  0  0  0  0  0  0  0
   -0.5235    0.7930   -4.3582 N   0  0  0  1  0  0  0  0  0  0  0  0
    0.2227    4.2374   -3.3459 H   0  0  0  1  0  0  0  0  0  0  0  0
    1.5591    3.0024   -2.5104 C   0  0  0  1  0  0  0  0  0  0  0  0
   -0.2927   -0.5294   -4.9204 C   0  0  0  1  0  0  0  0  0  0  0  0
    2.6813    3.9594   -2.9062 C   0  0  0  1  0  0  0  0  0  0  0  0
    1.8036    1.9407   -1.9388 O   0  0  0  1  0  0  0  0  0  0  0  0
   -0.6739    1.5316   -4.9844 H   0  0  0  1  0  0  0  0  0  0  0  0
   -0.5099   -1.2738   -4.1832 H   0  0  0  1  0  0  0  0  0  0  0  0
    0.7302   -0.6146   -5.2226 H   0  0  0  1  0  0  0  0  0  0  0  0
   -0.9288   -0.6718   -5.7690 H   0  0  0  1  0  0  0  0  0  0  0  0
    2.2971    4.9564   -2.9628 H   0  0  0  1  0  0  0  0  0  0  0  0
    3.0734    3.6738   -3.8599 H   0  0  0  1  0  0  0  0  0  0  0  0
    3.4597    3.9184   -2.1732 H   0  0  0  1  0  0  0  0  0  0  0  0
   -2.8298    8.8015   -0.0145 I   0  0  0  1  0  0  0  0  0  0  0  0
   -2.3639    6.8066   -0.4285 C   0  0  0  1  0  0  0  0  0  0  0  0
   -1.1110    6.3063   -0.1102 C   0  0  0  1  0  0  0  0  0  0  0  0
   -0.8016    4.9885   -0.3890 C   0  0  0  1  0  0  0  0  0  0  0  0
   -1.7462    4.1655   -0.9822 C   0  0  0  1  0  0  0  0  0  0  0  0
   -2.9956    4.6641   -1.2997 C   0  0  0  1  0  0  0  0  0  0  0  0
   -3.3057    5.9859   -1.0199 C   0  0  0  1  0  0  0  0  0  0  0  0
   -1.4108    2.7236   -1.2819 C   0  0  0  1  0  0  0  0  0  0  0  0
   -0.4036    6.9227    0.3385 H   0  0  0  1  0  0  0  0  0  0  0  0
    0.1398    4.6143   -0.1538 H   0  0  0  1  0  0  0  0  0  0  0  0
   -3.7029    4.0477   -1.7484 H   0  0  0  1  0  0  0  0  0  0  0  0
   -4.2471    6.3601   -1.2551 H   0  0  0  1  0  0  0  0  0  0  0  0
   -0.6826    2.3889   -0.5730 H   0  0  0  1  0  0  0  0  0  0  0  0
   -2.3014    2.1390   -1.1821 H   0  0  0  1  0  0  0  0  0  0  0  0
  1  4  1  0  0  0  0
  2  4  1  0  0  0  0
  2  5  2  0  0  0  0
  2  6  1  0  0  0  0
  3  4  1  0  0  0  0
  3  7  1  0  0  0  0
  3  8  1  0  0  0  0
  4 26  1  0  0  0  0
  6  9  1  0  0  0  0
  6 12  1  0  0  0  0
  8 10  1  0  0  0  0
  8 11  2  0  0  0  0
  9 13  1  0  0  0  0
  9 14  1  0  0  0  0
  9 15  1  0  0  0  0
 10 16  1  0  0  0  0
 10 17  1  0  0  0  0
 10 18  1  0  0  0  0
 19 20  1  0  0  0  0
 20 21  4  0  0  0  0
 20 25  4  0  0  0  0
 21 22  4  0  0  0  0
 21 27  1  0  0  0  0
 22 23  4  0  0  0  0
 22 28  1  0  0  0  0
 23 24  4  0  0  0  0
 23 26  1  0  0  0  0
 24 25  4  0  0  0  0
 24 29  1  0  0  0  0
 25 30  1  0  0  0  0
 26 31  1  0  0  0  0
 26 32  1  0  0  0  0
M  END
> <BCLConfClusterSize>
1

> <ConfClashScore>
0 

> <ConfOneFourInteractionScore>
-0.976539 

> <ConfScore>
0.400838 

> <ConfScorePBest>
0.00367564 

> <ConfTolerance>
0.61397 

> <RosettaParamsInstructions>
M  ROOT 3
M  POLY_N_BB 3
M  POLY_CA_BB 4
M  POLY_C_BB 2
M  POLY_O_BB 5
M  POLY_IGNORE 9 10 11 12 13 14 15 16 17 18 
M  POLY_UPPER 6
M  POLY_LOWER 8
M  POLY_CHG 0
M  POLY_PROPERTIES ALPHA_AA D_AA PROTEIN AROMATIC POLYMER 
M  END

$$$$



 32 32  0  0  0  0  0  0  0  0999 V2000
   -1.3793    2.9966   -3.3534 H   0  0  0  1  0  0  0  0  0  0  0  0
   -0.6179    1.0707   -2.9888 C   0  0  0  1  0  0  0  0  0  0  0  0
    0.5807    3.2358   -2.6897 N   0  0  0  1  0  0  0  0  0  0  0  0
   -0.7343    2.5398   -2.6321 C   0  0  0  1  0  0  0  0  0  0  0  0
   -0.7317    0.1948   -2.1324 O   0  0  0  1  0  0  0  0  0  0  0  0
   -0.3859    0.8015   -4.2834 N   0  0  0  1  0  0  0  0  0  0  0  0
    1.0189    3.4892   -1.8506 H   0  0  0  1  0  0  0  0  0  0  0  0
    1.1744    3.5221   -3.8271 C   0  0  0  1  0  0  0  0  0  0  0  0
   -0.1066   -0.5450   -4.7595 C   0  0  0  1  0  0  0  0  0  0  0  0
    2.5640    4.1179   -3.7130 C   0  0  0  1  0  0  0  0  0  0  0  0
    0.6517    3.3261   -4.9234 O   0  0  0  1  0  0  0  0  0  0  0  0
   -0.4054    1.5374   -4.9303 H   0  0  0  1  0  0  0  0  0  0  0  0
   -0.7343   -1.2429   -4.2459 H   0  0  0  1  0  0  0  0  0  0  0  0
    0.9195   -0.7836   -4.5720 H   0  0  0  1  0  0  0  0  0  0  0  0
   -0.2995   -0.5986   -5.8106 H   0  0  0  1  0  0  0  0  0  0  0  0
    2.6393    4.6773   -2.8040 H   0  0  0  1  0  0  0  0  0  0  0  0
    2.7436    4.7653   -4.5458 H   0  0  0  1  0  0  0  0  0  0  0  0
    3.2897    3.3317   -3.7088 H   0  0  0  1  0  0  0  0  0  0  0  0
   -2.8245    8.8022   -0.0124 I   0  0  0  1  0  0  0  0  0  0  0  0
   -2.3645    6.8064   -0.4288 C   0  0  0  1  0  0  0  0  0  0  0  0
   -1.1127    6.3023   -0.1120 C   0  0  0  1  0  0  0  0  0  0  0  0
   -0.8072    4.9839   -0.3924 C   0  0  0  1  0  0  0  0  0  0  0  0
   -1.7547    4.1642   -0.9857 C   0  0  0  1  0  0  0  0  0  0  0  0
   -3.0029    4.6666   -1.3016 C   0  0  0  1  0  0  0  0  0  0  0  0
   -3.3091    5.9890   -1.0203 C   0  0  0  1  0  0  0  0  0  0  0  0
   -1.3707    2.7303   -1.2650 C   0  0  0  1  0  0  0  0  0  0  0  0
   -0.4033    6.9163    0.3368 H   0  0  0  1  0  0  0  0  0  0  0  0
    0.1333    4.6069   -0.1584 H   0  0  0  1  0  0  0  0  0  0  0  0
   -3.7123    4.0526   -1.7504 H   0  0  0  1  0  0  0  0  0  0  0  0
   -4.2497    6.3660   -1.2543 H   0  0  0  1  0  0  0  0  0  0  0  0
   -0.6739    2.4126   -0.5177 H   0  0  0  1  0  0  0  0  0  0  0  0
   -2.2516    2.1254   -1.2121 H   0  0  0  1  0  0  0  0  0  0  0  0
  1  4  1  0  0  0  0
  2  4  1  0  0  0  0
  2  5  2  0  0  0  0
  2  6  1  0  0  0  0
  3  4  1  0  0  0  0
  3  7  1  0  0  0  0
  3  8  1  0  0  0  0
  4 26  1  0  0  0  0
  6  9  1  0  0  0  0
  6 12  1  0  0  0  0
  8 10  1  0  0  0  0
  8 11  2  0  0  0  0
  9 13  1  0  0  0  0
  9 14  1  0  0  0  0
  9 15  1  0  0  0  0
 10 16  1  0  0  0  0
 10 17  1  0  0  0  0
 10 18  1  0  0  0  0
 19 20  1  0  0  0  0
 20 21  4  0  0  0  0
 20 25  4  0  0  0  0
 21 22  4  0  0  0  0
 21 27  1  0  0  0  0
 22 23  4  0  0  0  0
 22 28  1  0  0  0  0
 23 24  4  0  0  0  0
 23 26  1  0  0  0  0
 24 25  4  0  0  0  0
 24 29  1  0  0  0  0
 25 30  1  0  0  0  0
 26 31  1  0  0  0  0
 26 32  1  0  0  0  0
M  END
> <BCLConfClusterSize>
1

> <ConfClashScore>
0 

> <ConfOneFourInteractionScore>
-0.979134 

> <ConfScore>
0.403915 

> <ConfScorePBest>
0.00364716 

> <ConfTolerance>
0.376855 

> <RosettaParamsInstructions>
M  ROOT 3
M  POLY_N_BB 3
M  POLY_CA_BB 4
M  POLY_C_BB 2
M  POLY_O_BB 5
M  POLY_IGNORE 9 10 11 12 13 14 15 16 17 18 
M  POLY_UPPER 6
M  POLY_LOWER 8
M  POLY_CHG 0
M  POLY_PROPERTIES ALPHA_AA D_AA PROTEIN AROMATIC POLYMER 
M  END

$$$$



 32 32  0  0  0  0  0  0  0  0999 V2000
    0.3357    2.7189   -0.0505 H   0  0  0  1  0  0  0  0  0  0  0  0
    1.0431    3.3210   -1.9194 C   0  0  0  1  0  0  0  0  0  0  0  0
    0.4753    1.0359   -1.2187 N   0  0  0  1  0  0  0  0  0  0  0  0
    0.1235    2.4600   -1.0668 C   0  0  0  1  0  0  0  0  0  0  0  0
    0.6454    4.3665   -2.4316 O   0  0  0  1  0  0  0  0  0  0  0  0
    2.2907    2.8667   -2.0681 N   0  0  0  1  0  0  0  0  0  0  0  0
    0.6622    0.5067   -0.4154 H   0  0  0  1  0  0  0  0  0  0  0  0
    0.5480    0.4423   -2.4134 C   0  0  0  1  0  0  0  0  0  0  0  0
    3.3565    3.5714   -2.7647 C   0  0  0  1  0  0  0  0  0  0  0  0
    0.9436   -1.0216   -2.4141 C   0  0  0  1  0  0  0  0  0  0  0  0
    0.2373    1.0114   -3.4474 O   0  0  0  1  0  0  0  0  0  0  0  0
    2.5041    1.9930   -1.6788 H   0  0  0  1  0  0  0  0  0  0  0  0
    3.1333    4.6175   -2.7941 H   0  0  0  1  0  0  0  0  0  0  0  0
    3.4385    3.1963   -3.7634 H   0  0  0  1  0  0  0  0  0  0  0  0
    4.2814    3.4187   -2.2487 H   0  0  0  1  0  0  0  0  0  0  0  0
    1.9657   -1.1155   -2.1118 H   0  0  0  1  0  0  0  0  0  0  0  0
    0.8250   -1.4223   -3.3991 H   0  0  0  1  0  0  0  0  0  0  0  0
    0.3192   -1.5598   -1.7319 H   0  0  0  1  0  0  0  0  0  0  0  0
   -2.8245    8.8022   -0.0124 I   0  0  0  1  0  0  0  0  0  0  0  0
   -2.3645    6.8064   -0.4288 C   0  0  0  1  0  0  0  0  0  0  0  0
   -1.1127    6.3023   -0.1120 C   0  0  0  1  0  0  0  0  0  0  0  0
   -0.8072    4.9839   -0.3924 C   0  0  0  1  0  0  0  0  0  0  0  0
   -1.7547    4.1642   -0.9857 C   0  0  0  1  0  0  0  0  0  0  0  0
   -3.0029    4.6666   -1.3016 C   0  0  0  1  0  0  0  0  0  0  0  0
   -3.3091    5.9890   -1.0203 C   0  0  0  1  0  0  0  0  0  0  0  0
   -1.3707    2.7303   -1.2650 C   0  0  0  1  0  0  0  0  0  0  0  0
   -0.4033    6.9163    0.3368 H   0  0  0  1  0  0  0  0  0  0  0  0
    0.1333    4.6069   -0.1584 H   0  0  0  1  0  0  0  0  0  0  0  0
   -3.7123    4.0526   -1.7504 H   0  0  0  1  0  0  0  0  0  0  0  0
   -4.2497    6.3660   -1.2543 H   0  0  0  1  0  0  0  0  0  0  0  0
   -1.9223    2.0951   -0.6039 H   0  0  0  1  0  0  0  0  0  0  0  0
   -1.6270    2.5003   -2.2780 H   0  0  0  1  0  0  0  0  0  0  0  0
  1  4  1  0  0  0  0
  2  4  1  0  0  0  0
  2  5  2  0  0  0  0
  2  6  1  0  0  0  0
  3  4  1  0  0  0  0
  3  7  1  0  0  0  0
  3  8  1  0  0  0  0
  4 26  1  0  0  0  0
  6  9  1  0  0  0  0
  6 12  1  0  0  0  0
  8 10  1  0  0  0  0
  8 11  2  0  0  0  0
  9 13  1  0  0  0  0
  9 14  1  0  0  0  0
  9 15  1  0  0  0  0
 10 16  1  0  0  0  0
 10 17  1  0  0  0  0
 10 18  1  0  0  0  0
 19 20  1  0  0  0  0
 20 21  4  0  0  0  0
 20 25  4  0  0  0  0
 21 22  4  0  0  0  0
 21 27  1  0  0  0  0
 22 23  4  0  0  0  0
 22 28  1  0  0  0  0
 23 24  4  0  0  0  0
 23 26  1  0  0  0  0
 24 25  4  0  0  0  0
 24 29  1  0  0  0  0
 25 30  1  0  0  0  0
 26 31  1  0  0  0  0
 26 32  1  0  0  0  0
M  END
> <BCLConfClusterSize>
1

> <ConfClashScore>
0 

> <ConfOneFourInteractionScore>
-0.949923 

> <ConfScore>
0.405099 

> <ConfScorePBest>
0.00361868 

> <ConfTolerance>
0.589584 

> <RosettaParamsInstructions>
M  ROOT 3
M  POLY_N_BB 3
M  POLY_CA_BB 4
M  POLY_C_BB 2
M  POLY_O_BB 5
M  POLY_IGNORE 9 10 11 12 13 14 15 16 17 18 
M  POLY_UPPER 6
M  POLY_LOWER 8
M  POLY_CHG 0
M  POLY_PROPERTIES ALPHA_AA D_AA PROTEIN AROMATIC POLYMER 
M  END

$$$$



 32 32  0  0  0  0  0  0  0  0999 V2000
   -2.6532    2.0143    0.2728 H   0  0  0  1  0  0  0  0  0  0  0  0
   -1.9150    0.3156   -0.7514 C   0  0  0  1  0  0  0  0  0  0  0  0
   -3.6816    1.8160   -1.5091 N   0  0  0  1  0  0  0  0  0  0  0  0
   -2.4461    1.7456   -0.7420 C   0  0  0  1  0  0  0  0  0  0  0  0
   -1.3881   -0.1761    0.2454 O   0  0  0  1  0  0  0  0  0  0  0  0
   -2.0622   -0.3536   -1.9057 N   0  0  0  1  0  0  0  0  0  0  0  0
   -3.7108    2.4239   -2.2773 H   0  0  0  1  0  0  0  0  0  0  0  0
   -4.8129    1.0820   -1.2238 C   0  0  0  1  0  0  0  0  0  0  0  0
   -1.5731   -1.7013   -2.1557 C   0  0  0  1  0  0  0  0  0  0  0  0
   -6.0685    1.5128   -1.9243 C   0  0  0  1  0  0  0  0  0  0  0  0
   -4.7545    0.1489   -0.4454 O   0  0  0  1  0  0  0  0  0  0  0  0
   -2.5347    0.0995   -2.6350 H   0  0  0  1  0  0  0  0  0  0  0  0
   -2.3877   -2.3271   -2.4552 H   0  0  0  1  0  0  0  0  0  0  0  0
   -1.1331   -2.0922   -1.2621 H   0  0  0  1  0  0  0  0  0  0  0  0
   -0.8388   -1.6753   -2.9336 H   0  0  0  1  0  0  0  0  0  0  0  0
   -5.8177    1.9652   -2.8610 H   0  0  0  1  0  0  0  0  0  0  0  0
   -6.5915    2.2204   -1.3155 H   0  0  0  1  0  0  0  0  0  0  0  0
   -6.6914    0.6599   -2.0959 H   0  0  0  1  0  0  0  0  0  0  0  0
   -2.8298    8.8015   -0.0145 I   0  0  0  1  0  0  0  0  0  0  0  0
   -2.3639    6.8066   -0.4285 C   0  0  0  1  0  0  0  0  0  0  0  0
   -1.1110    6.3063   -0.1102 C   0  0  0  1  0  0  0  0  0  0  0  0
   -0.8016    4.9885   -0.3890 C   0  0  0  1  0  0  0  0  0  0  0  0
   -1.7462    4.1655   -0.9822 C   0  0  0  1  0  0  0  0  0  0  0  0
   -2.9956    4.6641   -1.2997 C   0  0  0  1  0  0  0  0  0  0  0  0
   -3.3057    5.9859   -1.0199 C   0  0  0  1  0  0  0  0  0  0  0  0
   -1.4108    2.7236   -1.2819 C   0  0  0  1  0  0  0  0  0  0  0  0
   -0.4036    6.9227    0.3385 H   0  0  0  1  0  0  0  0  0  0  0  0
    0.1398    4.6143   -0.1538 H   0  0  0  1  0  0  0  0  0  0  0  0
   -3.7029    4.0477   -1.7484 H   0  0  0  1  0  0  0  0  0  0  0  0
   -4.2471    6.3601   -1.2551 H   0  0  0  1  0  0  0  0  0  0  0  0
   -1.3483    2.6020   -2.3431 H   0  0  0  1  0  0  0  0  0  0  0  0
   -0.4636    2.4953   -0.8398 H   0  0  0  1  0  0  0  0  0  0  0  0
  1  4  1  0  0  0  0
  2  4  1  0  0  0  0
  2  5  2  0  0  0  0
  2  6  1  0  0  0  0
  3  4  1  0  0  0  0
  3  7  1  0  0  0  0
  3  8  1  0  0  0  0
  4 26  1  0  0  0  0
  6  9  1  0  0  0  0
  6 12  1  0  0  0  0
  8 10  1  0  0  0  0
  8 11  2  0  0  0  0
  9 13  1  0  0  0  0
  9 14  1  0  0  0  0
  9 15  1  0  0  0  0
 10 16  1  0  0  0  0
 10 17  1  0  0  0  0
 10 18  1  0  0  0  0
 19 20  1  0  0  0  0
 20 21  4  0  0  0  0
 20 25  4  0  0  0  0
 21 22  4  0  0  0  0
 21 27  1  0  0  0  0
 22 23  4  0  0  0  0
 22 28  1  0  0  0  0
 23 24  4  0  0  0  0
 23 26  1  0  0  0  0
 24 25  4  0  0  0  0
 24 29  1  0  0  0  0
 25 30  1  0  0  0  0
 26 31  1  0  0  0  0
 26 32  1  0  0  0  0
M  END
> <BCLConfClusterSize>
1

> <ConfClashScore>
0 

> <ConfOneFourInteractionScore>
-0.956443 

> <ConfScore>
0.407112 

> <ConfScorePBest>
0.0035902 

> <ConfTolerance>
0.461473 

> <RosettaParamsInstructions>
M  ROOT 3
M  POLY_N_BB 3
M  POLY_CA_BB 4
M  POLY_C_BB 2
M  POLY_O_BB 5
M  POLY_IGNORE 9 10 11 12 13 14 15 16 17 18 
M  POLY_UPPER 6
M  POLY_LOWER 8
M  POLY_CHG 0
M  POLY_PROPERTIES ALPHA_AA D_AA PROTEIN AROMATIC POLYMER 
M  END

$$$$



 32 32  0  0  0  0  0  0  0  0999 V2000
   -1.2436    3.3526   -3.2863 H   0  0  0  1  0  0  0  0  0  0  0  0
   -2.6668    1.7959   -3.2612 C   0  0  0  1  0  0  0  0  0  0  0  0
   -0.2093    1.5863   -3.0806 N   0  0  0  1  0  0  0  0  0  0  0  0
   -1.3608    2.4201   -2.7749 C   0  0  0  1  0  0  0  0  0  0  0  0
   -3.7506    2.3091   -2.9959 O   0  0  0  1  0  0  0  0  0  0  0  0
   -2.5323    0.6293   -3.9116 N   0  0  0  1  0  0  0  0  0  0  0  0
    0.1288    0.9552   -2.4114 H   0  0  0  1  0  0  0  0  0  0  0  0
    0.4076    1.6817   -4.3095 C   0  0  0  1  0  0  0  0  0  0  0  0
   -3.6753   -0.1110   -4.4247 C   0  0  0  1  0  0  0  0  0  0  0  0
    1.6264    0.8161   -4.5040 C   0  0  0  1  0  0  0  0  0  0  0  0
   -0.0367    2.4312   -5.1584 O   0  0  0  1  0  0  0  0  0  0  0  0
   -1.6330    0.2634   -4.0456 H   0  0  0  1  0  0  0  0  0  0  0  0
   -4.5494    0.1485   -3.8648 H   0  0  0  1  0  0  0  0  0  0  0  0
   -3.4910   -1.1609   -4.3315 H   0  0  0  1  0  0  0  0  0  0  0  0
   -3.8260    0.1351   -5.4551 H   0  0  0  1  0  0  0  0  0  0  0  0
    1.3588   -0.2118   -4.3752 H   0  0  0  1  0  0  0  0  0  0  0  0
    2.3718    1.0832   -3.7844 H   0  0  0  1  0  0  0  0  0  0  0  0
    2.0138    0.9626   -5.4906 H   0  0  0  1  0  0  0  0  0  0  0  0
   -2.8298    8.8015   -0.0145 I   0  0  0  1  0  0  0  0  0  0  0  0
   -2.3639    6.8066   -0.4285 C   0  0  0  1  0  0  0  0  0  0  0  0
   -1.1110    6.3063   -0.1102 C   0  0  0  1  0  0  0  0  0  0  0  0
   -0.8016    4.9885   -0.3890 C   0  0  0  1  0  0  0  0  0  0  0  0
   -1.7462    4.1655   -0.9822 C   0  0  0  1  0  0  0  0  0  0  0  0
   -2.9956    4.6641   -1.2997 C   0  0  0  1  0  0  0  0  0  0  0  0
   -3.3057    5.9859   -1.0199 C   0  0  0  1  0  0  0  0  0  0  0  0
   -1.4108    2.7236   -1.2819 C   0  0  0  1  0  0  0  0  0  0  0  0
   -0.4036    6.9227    0.3385 H   0  0  0  1  0  0  0  0  0  0  0  0
    0.1398    4.6143   -0.1538 H   0  0  0  1  0  0  0  0  0  0  0  0
   -3.7029    4.0477   -1.7484 H   0  0  0  1  0  0  0  0  0  0  0  0
   -4.2471    6.3601   -1.2551 H   0  0  0  1  0  0  0  0  0  0  0  0
   -0.4545    2.5009   -0.8568 H   0  0  0  1  0  0  0  0  0  0  0  0
   -2.1553    2.1002   -0.8324 H   0  0  0  1  0  0  0  0  0  0  0  0
  1  4  1  0  0  0  0
  2  4  1  0  0  0  0
  2  5  2  0  0  0  0
  2  6  1  0  0  0  0
  3  4  1  0  0  0  0
  3  7  1  0  0  0  0
  3  8  1  0  0  0  0
  4 26  1  0  0  0  0
  6  9  1  0  0  0  0
  6 12  1  0  0  0  0
  8 10  1  0  0  0  0
  8 11  2  0  0  0  0
  9 13  1  0  0  0  0
  9 14  1  0  0  0  0
  9 15  1  0  0  0  0
 10 16  1  0  0  0  0
 10 17  1  0  0  0  0
 10 18  1  0  0  0  0
 19 20  1  0  0  0  0
 20 21  4  0  0  0  0
 20 25  4  0  0  0  0
 21 22  4  0  0  0  0
 21 27  1  0  0  0  0
 22 23  4  0  0  0  0
 22 28  1  0  0  0  0
 23 24  4  0  0  0  0
 23 26  1  0  0  0  0
 24 25  4  0  0  0  0
 24 29  1  0  0  0  0
 25 30  1  0  0  0  0
 26 31  1  0  0  0  0
 26 32  1  0  0  0  0
M  END
> <BCLConfClusterSize>
1

> <ConfClashScore>
0 

> <ConfOneFourInteractionScore>
-0.948834 

> <ConfScore>
0.409205 

> <ConfScorePBest>
0.00356172 

> <ConfTolerance>
0.678535 

> <RosettaParamsInstructions>
M  ROOT 3
M  POLY_N_BB 3
M  POLY_CA_BB 4
M  POLY_C_BB 2
M  POLY_O_BB 5
M  POLY_IGNORE 9 10 11 12 13 14 15 16 17 18 
M  POLY_UPPER 6
M  POLY_LOWER 8
M  POLY_CHG 0
M  POLY_PROPERTIES ALPHA_AA D_AA PROTEIN AROMATIC POLYMER 
M  END

$$$$



 32 32  0  0  0  0  0  0  0  0999 V2000
   -1.4701    2.0934   -3.2173 H   0  0  0  1  0  0  0  0  0  0  0  0
    0.3424    1.3195   -2.5432 C   0  0  0  1  0  0  0  0  0  0  0  0
   -0.1108    3.6316   -3.2245 N   0  0  0  1  0  0  0  0  0  0  0  0
   -0.6831    2.4359   -2.5784 C   0  0  0  1  0  0  0  0  0  0  0  0
    1.0900    1.1089   -3.4976 O   0  0  0  1  0  0  0  0  0  0  0  0
    0.3738    0.5917   -1.4156 N   0  0  0  1  0  0  0  0  0  0  0  0
   -0.7254    4.2255   -3.7040 H   0  0  0  1  0  0  0  0  0  0  0  0
    1.1804    3.9657   -3.2053 C   0  0  0  1  0  0  0  0  0  0  0  0
    1.2439   -0.5741   -1.3760 C   0  0  0  1  0  0  0  0  0  0  0  0
    1.5102    5.3438   -3.7327 C   0  0  0  1  0  0  0  0  0  0  0  0
    2.0593    3.2153   -2.7895 O   0  0  0  1  0  0  0  0  0  0  0  0
   -0.1737    0.8385   -0.6412 H   0  0  0  1  0  0  0  0  0  0  0  0
    0.8531   -1.2881   -0.6815 H   0  0  0  1  0  0  0  0  0  0  0  0
    2.2244   -0.2767   -1.0675 H   0  0  0  1  0  0  0  0  0  0  0  0
    1.2941   -1.0146   -2.3498 H   0  0  0  1  0  0  0  0  0  0  0  0
    1.0475    5.4809   -4.6877 H   0  0  0  1  0  0  0  0  0  0  0  0
    2.5709    5.4425   -3.8332 H   0  0  0  1  0  0  0  0  0  0  0  0
    1.1456    6.0831   -3.0506 H   0  0  0  1  0  0  0  0  0  0  0  0
   -2.8193    8.8027   -0.0103 I   0  0  0  1  0  0  0  0  0  0  0  0
   -2.3651    6.8061   -0.4291 C   0  0  0  1  0  0  0  0  0  0  0  0
   -1.1145    6.2983   -0.1138 C   0  0  0  1  0  0  0  0  0  0  0  0
   -0.8128    4.9793   -0.3959 C   0  0  0  1  0  0  0  0  0  0  0  0
   -1.7629    4.1628   -0.9892 C   0  0  0  1  0  0  0  0  0  0  0  0
   -3.0100    4.6689   -1.3036 C   0  0  0  1  0  0  0  0  0  0  0  0
   -3.3124    5.9919   -1.0207 C   0  0  0  1  0  0  0  0  0  0  0  0
   -1.3315    2.7386   -1.2480 C   0  0  0  1  0  0  0  0  0  0  0  0
   -0.4030    6.9098    0.3350 H   0  0  0  1  0  0  0  0  0  0  0  0
    0.1269    4.5995   -0.1630 H   0  0  0  1  0  0  0  0  0  0  0  0
   -3.7215    4.0574   -1.7524 H   0  0  0  1  0  0  0  0  0  0  0  0
   -4.2521    6.3717   -1.2536 H   0  0  0  1  0  0  0  0  0  0  0  0
   -0.6325    2.4718   -0.4831 H   0  0  0  1  0  0  0  0  0  0  0  0
   -2.2016    2.1210   -1.1680 H   0  0  0  1  0  0  0  0  0  0  0  0
  1  4  1  0  0  0  0
  2  4  1  0  0  0  0
  2  5  2  0  0  0  0
  2  6  1  0  0  0  0
  3  4  1  0  0  0  0
  3  7  1  0  0  0  0
  3  8  1  0  0  0  0
  4 26  1  0  0  0  0
  6  9  1  0  0  0  0
  6 12  1  0  0  0  0
  8 10  1  0  0  0  0
  8 11  2  0  0  0  0
  9 13  1  0  0  0  0
  9 14  1  0  0  0  0
  9 15  1  0  0  0  0
 10 16  1  0  0  0  0
 10 17  1  0  0  0  0
 10 18  1  0  0  0  0
 19 20  1  0  0  0  0
 20 21  4  0  0  0  0
 20 25  4  0  0  0  0
 21 22  4  0  0  0  0
 21 27  1  0  0  0  0
 22 23  4  0  0  0  0
 22 28  1  0  0  0  0
 23 24  4  0  0  0  0
 23 26  1  0  0  0  0
 24 25  4  0  0  0  0
 24 29  1  0  0  0  0
 25 30  1  0  0  0  0
 26 31  1  0  0  0  0
 26 32  1  0  0  0  0
M  END
> <BCLConfClusterSize>
1

> <ConfClashScore>
1.47368e-05 

> <ConfOneFourInteractionScore>
-0.915991 

> <ConfScore>
0.409546 

> <ConfScorePBest>
0.00353324 

> <ConfTolerance>
0.724932 

> <RosettaParamsInstructions>
M  ROOT 3
M  POLY_N_BB 3
M  POLY_CA_BB 4
M  POLY_C_BB 2
M  POLY_O_BB 5
M  POLY_IGNORE 9 10 11 12 13 14 15 16 17 18 
M  POLY_UPPER 6
M  POLY_LOWER 8
M  POLY_CHG 0
M  POLY_PROPERTIES ALPHA_AA D_AA PROTEIN AROMATIC POLYMER 
M  END

$$$$



 32 32  0  0  0  0  0  0  0  0999 V2000
   -1.2765    0.8795   -0.2730 H   0  0  0  1  0  0  0  0  0  0  0  0
   -2.7018    1.9804    0.7970 C   0  0  0  1  0  0  0  0  0  0  0  0
   -0.2534    2.2478    0.8832 N   0  0  0  1  0  0  0  0  0  0  0  0
   -1.3985    1.9014    0.0200 C   0  0  0  1  0  0  0  0  0  0  0  0
   -2.9345    2.7979    1.6722 O   0  0  0  1  0  0  0  0  0  0  0  0
   -3.5949    1.0582    0.4346 N   0  0  0  1  0  0  0  0  0  0  0  0
   -0.2913    3.0728    1.4107 H   0  0  0  1  0  0  0  0  0  0  0  0
    0.8426    1.4692    0.9717 C   0  0  0  1  0  0  0  0  0  0  0  0
   -4.8760    0.8369    1.0886 C   0  0  0  1  0  0  0  0  0  0  0  0
    1.8447    1.9393    2.0183 C   0  0  0  1  0  0  0  0  0  0  0  0
    1.0452    0.4751    0.2932 O   0  0  0  1  0  0  0  0  0  0  0  0
   -3.3716    0.4868   -0.3295 H   0  0  0  1  0  0  0  0  0  0  0  0
   -4.9229    1.4155    1.9874 H   0  0  0  1  0  0  0  0  0  0  0  0
   -4.9798   -0.2010    1.3271 H   0  0  0  1  0  0  0  0  0  0  0  0
   -5.6672    1.1333    0.4321 H   0  0  0  1  0  0  0  0  0  0  0  0
    2.3216    2.8351    1.6792 H   0  0  0  1  0  0  0  0  0  0  0  0
    2.5820    1.1794    2.1725 H   0  0  0  1  0  0  0  0  0  0  0  0
    1.3342    2.1336    2.9384 H   0  0  0  1  0  0  0  0  0  0  0  0
   -2.8245    8.8022   -0.0124 I   0  0  0  1  0  0  0  0  0  0  0  0
   -2.3645    6.8064   -0.4288 C   0  0  0  1  0  0  0  0  0  0  0  0
   -1.1127    6.3023   -0.1120 C   0  0  0  1  0  0  0  0  0  0  0  0
   -0.8072    4.9839   -0.3924 C   0  0  0  1  0  0  0  0  0  0  0  0
   -1.7547    4.1642   -0.9857 C   0  0  0  1  0  0  0  0  0  0  0  0
   -3.0029    4.6666   -1.3016 C   0  0  0  1  0  0  0  0  0  0  0  0
   -3.3091    5.9890   -1.0203 C   0  0  0  1  0  0  0  0  0  0  0  0
   -1.3707    2.7303   -1.2650 C   0  0  0  1  0  0  0  0  0  0  0  0
   -0.4033    6.9163    0.3368 H   0  0  0  1  0  0  0  0  0  0  0  0
    0.1333    4.6069   -0.1584 H   0  0  0  1  0  0  0  0  0  0  0  0
   -3.7123    4.0526   -1.7504 H   0  0  0  1  0  0  0  0  0  0  0  0
   -4.2497    6.3660   -1.2543 H   0  0  0  1  0  0  0  0  0  0  0  0
   -2.0616    2.3125   -1.9670 H   0  0  0  1  0  0  0  0  0  0  0  0
   -0.3836    2.7054   -1.6773 H   0  0  0  1  0  0  0  0  0  0  0  0
  1  4  1  0  0  0  0
  2  4  1  0  0  0  0
  2  5  2  0  0  0  0
  2  6  1  0  0  0  0
  3  4  1  0  0  0  0
  3  7  1  0  0  0  0
  3  8  1  0  0  0  0
  4 26  1  0  0  0  0
  6  9  1  0  0  0  0
  6 12  1  0  0  0  0
  8 10  1  0  0  0  0
  8 11  2  0  0  0  0
  9 13  1  0  0  0  0
  9 14  1  0  0  0  0
  9 15  1  0  0  0  0
 10 16  1  0  0  0  0
 10 17  1  0  0  0  0
 10 18  1  0  0  0  0
 19 20  1  0  0  0  0
 20 21  4  0  0  0  0
 20 25  4  0  0  0  0
 21 22  4  0  0  0  0
 21 27  1  0  0  0  0
 22 23  4  0  0  0  0
 22 28  1  0  0  0  0
 23 24  4  0  0  0  0
 23 26  1  0  0  0  0
 24 25  4  0  0  0  0
 24 29  1  0  0  0  0
 25 30  1  0  0  0  0
 26 31  1  0  0  0  0
 26 32  1  0  0  0  0
M  END
> <BCLConfClusterSize>
1

> <ConfClashScore>
0 

> <ConfOneFourInteractionScore>
-0.987258 

> <ConfScore>
0.414016 

> <ConfScorePBest>
0.00350476 

> <ConfTolerance>
0.628227 

> <RosettaParamsInstructions>
M  ROOT 3
M  POLY_N_BB 3
M  POLY_CA_BB 4
M  POLY_C_BB 2
M  POLY_O_BB 5
M  POLY_IGNORE 9 10 11 12 13 14 15 16 17 18 
M  POLY_UPPER 6
M  POLY_LOWER 8
M  POLY_CHG 0
M  POLY_PROPERTIES ALPHA_AA D_AA PROTEIN AROMATIC POLYMER 
M  END

$$$$



 32 32  0  0  0  0  0  0  0  0999 V2000
   -1.0734    1.4117   -2.8909 H   0  0  0  1  0  0  0  0  0  0  0  0
   -0.6104    3.3596   -3.5416 C   0  0  0  1  0  0  0  0  0  0  0  0
   -2.8726    2.3401   -3.2384 N   0  0  0  1  0  0  0  0  0  0  0  0
   -1.4961    2.3868   -2.7662 C   0  0  0  1  0  0  0  0  0  0  0  0
    0.5955    3.3994   -3.3611 O   0  0  0  1  0  0  0  0  0  0  0  0
   -1.2406    4.1474   -4.4142 N   0  0  0  1  0  0  0  0  0  0  0  0
   -3.3955    3.1685   -3.2104 H   0  0  0  1  0  0  0  0  0  0  0  0
   -3.4672    1.2417   -3.7066 C   0  0  0  1  0  0  0  0  0  0  0  0
   -0.5166    5.2118   -5.0931 C   0  0  0  1  0  0  0  0  0  0  0  0
   -4.9455    1.3743   -4.0169 C   0  0  0  1  0  0  0  0  0  0  0  0
   -2.8718    0.1819   -3.8817 O   0  0  0  1  0  0  0  0  0  0  0  0
   -2.1931    4.0092   -4.5986 H   0  0  0  1  0  0  0  0  0  0  0  0
    0.5107    4.9326   -5.2010 H   0  0  0  1  0  0  0  0  0  0  0  0
   -0.5828    6.1113   -4.5174 H   0  0  0  1  0  0  0  0  0  0  0  0
   -0.9453    5.3741   -6.0599 H   0  0  0  1  0  0  0  0  0  0  0  0
   -5.3026    2.3171   -3.6583 H   0  0  0  1  0  0  0  0  0  0  0  0
   -5.4829    0.5835   -3.5365 H   0  0  0  1  0  0  0  0  0  0  0  0
   -5.0942    1.3160   -5.0749 H   0  0  0  1  0  0  0  0  0  0  0  0
   -2.8298    8.8015   -0.0145 I   0  0  0  1  0  0  0  0  0  0  0  0
   -2.3639    6.8066   -0.4285 C   0  0  0  1  0  0  0  0  0  0  0  0
   -1.1109    6.3063   -0.1102 C   0  0  0  1  0  0  0  0  0  0  0  0
   -0.8016    4.9885   -0.3890 C   0  0  0  1  0  0  0  0  0  0  0  0
   -1.7462    4.1655   -0.9822 C   0  0  0  1  0  0  0  0  0  0  0  0
   -2.9956    4.6641   -1.2997 C   0  0  0  1  0  0  0  0  0  0  0  0
   -3.3057    5.9859   -1.0199 C   0  0  0  1  0  0  0  0  0  0  0  0
   -1.4108    2.7236   -1.2819 C   0  0  0  1  0  0  0  0  0  0  0  0
   -0.4036    6.9227    0.3385 H   0  0  0  1  0  0  0  0  0  0  0  0
    0.1398    4.6143   -0.1538 H   0  0  0  1  0  0  0  0  0  0  0  0
   -3.7029    4.0477   -1.7484 H   0  0  0  1  0  0  0  0  0  0  0  0
   -4.2471    6.3601   -1.2551 H   0  0  0  1  0  0  0  0  0  0  0  0
   -0.4141    2.5287   -0.9451 H   0  0  0  1  0  0  0  0  0  0  0  0
   -2.0963    2.0970   -0.7505 H   0  0  0  1  0  0  0  0  0  0  0  0
  1  4  1  0  0  0  0
  2  4  1  0  0  0  0
  2  5  2  0  0  0  0
  2  6  1  0  0  0  0
  3  4  1  0  0  0  0
  3  7  1  0  0  0  0
  3  8  1  0  0  0  0
  4 26  1  0  0  0  0
  6  9  1  0  0  0  0
  6 12  1  0  0  0  0
  8 10  1  0  0  0  0
  8 11  2  0  0  0  0
  9 13  1  0  0  0  0
  9 14  1  0  0  0  0
  9 15  1  0  0  0  0
 10 16  1  0  0  0  0
 10 17  1  0  0  0  0
 10 18  1  0  0  0  0
 19 20  1  0  0  0  0
 20 21  4  0  0  0  0
 20 25  4  0  0  0  0
 21 22  4  0  0  0  0
 21 27  1  0  0  0  0
 22 23  4  0  0  0  0
 22 28  1  0  0  0  0
 23 24  4  0  0  0  0
 23 26  1  0  0  0  0
 24 25  4  0  0  0  0
 24 29  1  0  0  0  0
 25 30  1  0  0  0  0
 26 31  1  0  0  0  0
 26 32  1  0  0  0  0
M  END
> <BCLConfClusterSize>
1

> <ConfClashScore>
0 

> <ConfOneFourInteractionScore>
-0.957074 

> <ConfScore>
0.416108 

> <ConfScorePBest>
0.00347628 

> <ConfTolerance>
0.557267 

> <RosettaParamsInstructions>
M  ROOT 3
M  POLY_N_BB 3
M  POLY_CA_BB 4
M  POLY_C_BB 2
M  POLY_O_BB 5
M  POLY_IGNORE 9 10 11 12 13 14 15 16 17 18 
M  POLY_UPPER 6
M  POLY_LOWER 8
M  POLY_CHG 0
M  POLY_PROPERTIES ALPHA_AA D_AA PROTEIN AROMATIC POLYMER 
M  END

$$$$



 32 32  0  0  0  0  0  0  0  0999 V2000
    0.2854    3.2350   -2.4803 H   0  0  0  1  0  0  0  0  0  0  0  0
   -1.3789    3.2001   -3.7818 C   0  0  0  1  0  0  0  0  0  0  0  0
   -0.2049    1.2679   -2.8793 N   0  0  0  1  0  0  0  0  0  0  0  0
   -0.5967    2.6419   -2.6026 C   0  0  0  1  0  0  0  0  0  0  0  0
   -2.3147    3.9721   -3.6831 O   0  0  0  1  0  0  0  0  0  0  0  0
   -0.9444    2.7629   -4.9641 N   0  0  0  1  0  0  0  0  0  0  0  0
   -0.4725    0.8620   -3.7302 H   0  0  0  1  0  0  0  0  0  0  0  0
    0.5069    0.5407   -2.0136 C   0  0  0  1  0  0  0  0  0  0  0  0
   -1.5496    3.1171   -6.2393 C   0  0  0  1  0  0  0  0  0  0  0  0
    0.9395   -0.8280   -2.5025 C   0  0  0  1  0  0  0  0  0  0  0  0
    0.8022    0.9392   -0.8877 O   0  0  0  1  0  0  0  0  0  0  0  0
   -0.1680    2.1651   -4.9751 H   0  0  0  1  0  0  0  0  0  0  0  0
   -2.6020    2.9282   -6.1999 H   0  0  0  1  0  0  0  0  0  0  0  0
   -1.1108    2.5286   -7.0178 H   0  0  0  1  0  0  0  0  0  0  0  0
   -1.3809    4.1549   -6.4379 H   0  0  0  1  0  0  0  0  0  0  0  0
    1.0298   -0.8144   -3.5686 H   0  0  0  1  0  0  0  0  0  0  0  0
    0.2096   -1.5559   -2.2158 H   0  0  0  1  0  0  0  0  0  0  0  0
    1.8845   -1.0794   -2.0679 H   0  0  0  1  0  0  0  0  0  0  0  0
   -2.8222    8.8158   -0.0882 I   0  0  0  1  0  0  0  0  0  0  0  0
   -2.3699    6.7993   -0.3997 C   0  0  0  1  0  0  0  0  0  0  0  0
   -1.1143    6.2995   -0.0909 C   0  0  0  1  0  0  0  0  0  0  0  0
   -0.8005    4.9868   -0.3883 C   0  0  0  1  0  0  0  0  0  0  0  0
   -1.7433    4.1683   -0.9905 C   0  0  0  1  0  0  0  0  0  0  0  0
   -2.9953    4.6664   -1.2985 C   0  0  0  1  0  0  0  0  0  0  0  0
   -3.3098    5.9831   -1.0002 C   0  0  0  1  0  0  0  0  0  0  0  0
   -1.4031    2.7319   -1.3105 C   0  0  0  1  0  0  0  0  0  0  0  0
   -0.4083    6.9125    0.3645 H   0  0  0  1  0  0  0  0  0  0  0  0
    0.1429    4.6131   -0.1602 H   0  0  0  1  0  0  0  0  0  0  0  0
   -3.7012    4.0534   -1.7540 H   0  0  0  1  0  0  0  0  0  0  0  0
   -4.2532    6.3568   -1.2282 H   0  0  0  1  0  0  0  0  0  0  0  0
   -0.8270    2.3207   -0.5080 H   0  0  0  1  0  0  0  0  0  0  0  0
   -2.3089    2.1734   -1.4226 H   0  0  0  1  0  0  0  0  0  0  0  0
  1  4  1  0  0  0  0
  2  4  1  0  0  0  0
  2  5  2  0  0  0  0
  2  6  1  0  0  0  0
  3  4  1  0  0  0  0
  3  7  1  0  0  0  0
  3  8  1  0  0  0  0
  4 26  1  0  0  0  0
  6  9  1  0  0  0  0
  6 12  1  0  0  0  0
  8 10  1  0  0  0  0
  8 11  2  0  0  0  0
  9 13  1  0  0  0  0
  9 14  1  0  0  0  0
  9 15  1  0  0  0  0
 10 16  1  0  0  0  0
 10 17  1  0  0  0  0
 10 18  1  0  0  0  0
 19 20  1  0  0  0  0
 20 21  4  0  0  0  0
 20 25  4  0  0  0  0
 21 22  4  0  0  0  0
 21 27  1  0  0  0  0
 22 23  4  0  0  0  0
 22 28  1  0  0  0  0
 23 24  4  0  0  0  0
 23 26  1  0  0  0  0
 24 25  4  0  0  0  0
 24 29  1  0  0  0  0
 25 30  1  0  0  0  0
 26 31  1  0  0  0  0
 26 32  1  0  0  0  0
M  END
> <BCLConfClusterSize>
1

> <ConfClashScore>
0 

> <ConfOneFourInteractionScore>
-0.960608 

> <ConfScore>
0.422521 

> <ConfScorePBest>
0.0034478 

> <ConfTolerance>
0.699944 

> <RosettaParamsInstructions>
M  ROOT 3
M  POLY_N_BB 3
M  POLY_CA_BB 4
M  POLY_C_BB 2
M  POLY_O_BB 5
M  POLY_IGNORE 9 10 11 12 13 14 15 16 17 18 
M  POLY_UPPER 6
M  POLY_LOWER 8
M  POLY_CHG 0
M  POLY_PROPERTIES ALPHA_AA D_AA PROTEIN AROMATIC POLYMER 
M  END

$$$$



 32 32  0  0  0  0  0  0  0  0999 V2000
   -0.1223    2.4970   -2.9580 H   0  0  0  1  0  0  0  0  0  0  0  0
   -1.9346    3.4026   -3.6136 C   0  0  0  1  0  0  0  0  0  0  0  0
   -1.6124    1.0442   -3.0378 N   0  0  0  1  0  0  0  0  0  0  0  0
   -1.1684    2.4041   -2.7532 C   0  0  0  1  0  0  0  0  0  0  0  0
   -1.4449    4.5198   -3.7740 O   0  0  0  1  0  0  0  0  0  0  0  0
   -3.0918    3.0156   -4.1461 N   0  0  0  1  0  0  0  0  0  0  0  0
   -1.9057    0.4955   -2.2806 H   0  0  0  1  0  0  0  0  0  0  0  0
   -1.6494    0.4877   -4.2581 C   0  0  0  1  0  0  0  0  0  0  0  0
   -3.9466    3.9258   -4.8936 C   0  0  0  1  0  0  0  0  0  0  0  0
   -2.3061   -0.8765   -4.3404 C   0  0  0  1  0  0  0  0  0  0  0  0
   -1.1858    1.0340   -5.2573 O   0  0  0  1  0  0  0  0  0  0  0  0
   -3.3779    2.0855   -4.0307 H   0  0  0  1  0  0  0  0  0  0  0  0
   -3.4110    4.8282   -5.1026 H   0  0  0  1  0  0  0  0  0  0  0  0
   -4.8170    4.1538   -4.3146 H   0  0  0  1  0  0  0  0  0  0  0  0
   -4.2402    3.4645   -5.8134 H   0  0  0  1  0  0  0  0  0  0  0  0
   -1.8870   -1.4260   -5.1573 H   0  0  0  1  0  0  0  0  0  0  0  0
   -3.3583   -0.7569   -4.4939 H   0  0  0  1  0  0  0  0  0  0  0  0
   -2.1366   -1.4093   -3.4281 H   0  0  0  1  0  0  0  0  0  0  0  0
   -2.8828    8.7926   -0.0369 I   0  0  0  1  0  0  0  0  0  0  0  0
   -2.3514    6.8085   -0.4233 C   0  0  0  1  0  0  0  0  0  0  0  0
   -1.1003    6.3019   -0.1075 C   0  0  0  1  0  0  0  0  0  0  0  0
   -0.7974    4.9832   -0.3890 C   0  0  0  1  0  0  0  0  0  0  0  0
   -1.7466    4.1656   -0.9823 C   0  0  0  1  0  0  0  0  0  0  0  0
   -2.9941    4.6705   -1.2972 C   0  0  0  1  0  0  0  0  0  0  0  0
   -3.2978    5.9932   -1.0148 C   0  0  0  1  0  0  0  0  0  0  0  0
   -1.4183    2.7226   -1.2849 C   0  0  0  1  0  0  0  0  0  0  0  0
   -0.3895    6.9143    0.3413 H   0  0  0  1  0  0  0  0  0  0  0  0
    0.1426    4.6042   -0.1557 H   0  0  0  1  0  0  0  0  0  0  0  0
   -3.7049    4.0581   -1.7460 H   0  0  0  1  0  0  0  0  0  0  0  0
   -4.2378    6.3722   -1.2481 H   0  0  0  1  0  0  0  0  0  0  0  0
   -0.5374    2.4625   -0.7361 H   0  0  0  1  0  0  0  0  0  0  0  0
   -2.2377    2.1207   -0.9514 H   0  0  0  1  0  0  0  0  0  0  0  0
  1  4  1  0  0  0  0
  2  4  1  0  0  0  0
  2  5  2  0  0  0  0
  2  6  1  0  0  0  0
  3  4  1  0  0  0  0
  3  7  1  0  0  0  0
  3  8  1  0  0  0  0
  4 26  1  0  0  0  0
  6  9  1  0  0  0  0
  6 12  1  0  0  0  0
  8 10  1  0  0  0  0
  8 11  2  0  0  0  0
  9 13  1  0  0  0  0
  9 14  1  0  0  0  0
  9 15  1  0  0  0  0
 10 16  1  0  0  0  0
 10 17  1  0  0  0  0
 10 18  1  0  0  0  0
 19 20  1  0  0  0  0
 20 21  4  0  0  0  0
 20 25  4  0  0  0  0
 21 22  4  0  0  0  0
 21 27  1  0  0  0  0
 22 23  4  0  0  0  0
 22 28  1  0  0  0  0
 23 24  4  0  0  0  0
 23 26  1  0  0  0  0
 24 25  4  0  0  0  0
 24 29  1  0  0  0  0
 25 30  1  0  0  0  0
 26 31  1  0  0  0  0
 26 32  1  0  0  0  0
M  END
> <BCLConfClusterSize>
1

> <ConfClashScore>
0 

> <ConfOneFourInteractionScore>
-0.942345 

> <ConfScore>
0.429613 

> <ConfScorePBest>
0.00341932 

> <ConfTolerance>
0.706815 

> <RosettaParamsInstructions>
M  ROOT 3
M  POLY_N_BB 3
M  POLY_CA_BB 4
M  POLY_C_BB 2
M  POLY_O_BB 5
M  POLY_IGNORE 9 10 11 12 13 14 15 16 17 18 
M  POLY_UPPER 6
M  POLY_LOWER 8
M  POLY_CHG 0
M  POLY_PROPERTIES ALPHA_AA D_AA PROTEIN AROMATIC POLYMER 
M  END

$$$$



 32 32  0  0  0  0  0  0  0  0999 V2000
   -0.4040    1.5358   -2.6767 H   0  0  0  1  0  0  0  0  0  0  0  0
    1.0731    2.3414   -1.4328 C   0  0  0  1  0  0  0  0  0  0  0  0
   -0.1419    3.5052   -3.2306 N   0  0  0  1  0  0  0  0  0  0  0  0
   -0.2387    2.4708   -2.1832 C   0  0  0  1  0  0  0  0  0  0  0  0
    2.1005    1.9781   -2.0018 O   0  0  0  1  0  0  0  0  0  0  0  0
    1.0302    2.6463   -0.1299 N   0  0  0  1  0  0  0  0  0  0  0  0
   -0.8278    4.2040   -3.2699 H   0  0  0  1  0  0  0  0  0  0  0  0
    0.8526    3.5226   -4.1311 C   0  0  0  1  0  0  0  0  0  0  0  0
    2.2197    2.5000    0.6937 C   0  0  0  1  0  0  0  0  0  0  0  0
    0.8239    4.6699   -5.1221 C   0  0  0  1  0  0  0  0  0  0  0  0
    1.7382    2.6723   -4.1659 O   0  0  0  1  0  0  0  0  0  0  0  0
    0.1955    2.9687    0.2696 H   0  0  0  1  0  0  0  0  0  0  0  0
    3.0908    2.5419    0.0737 H   0  0  0  1  0  0  0  0  0  0  0  0
    2.1883    1.5585    1.2010 H   0  0  0  1  0  0  0  0  0  0  0  0
    2.2553    3.2920    1.4123 H   0  0  0  1  0  0  0  0  0  0  0  0
    0.2512    5.4777   -4.7167 H   0  0  0  1  0  0  0  0  0  0  0  0
    0.3771    4.3398   -6.0366 H   0  0  0  1  0  0  0  0  0  0  0  0
    1.8233    5.0016   -5.3122 H   0  0  0  1  0  0  0  0  0  0  0  0
   -2.8353    8.8006   -0.0169 I   0  0  0  1  0  0  0  0  0  0  0  0
   -2.3632    6.8066   -0.4282 C   0  0  0  1  0  0  0  0  0  0  0  0
   -1.1090    6.3104   -0.1083 C   0  0  0  1  0  0  0  0  0  0  0  0
   -0.7955    4.9932   -0.3854 C   0  0  0  1  0  0  0  0  0  0  0  0
   -1.7371    4.1668   -0.9784 C   0  0  0  1  0  0  0  0  0  0  0  0
   -2.9877    4.6613   -1.2976 C   0  0  0  1  0  0  0  0  0  0  0  0
   -3.3020    5.9825   -1.0196 C   0  0  0  1  0  0  0  0  0  0  0  0
   -1.4543    2.7182   -1.2996 C   0  0  0  1  0  0  0  0  0  0  0  0
   -0.4039    6.9294    0.3404 H   0  0  0  1  0  0  0  0  0  0  0  0
    0.1469    4.6221   -0.1489 H   0  0  0  1  0  0  0  0  0  0  0  0
   -3.6928    4.0423   -1.7462 H   0  0  0  1  0  0  0  0  0  0  0  0
   -4.2443    6.3536   -1.2560 H   0  0  0  1  0  0  0  0  0  0  0  0
   -1.3025    2.1990   -0.3764 H   0  0  0  1  0  0  0  0  0  0  0  0
   -2.3119    2.3171   -1.7982 H   0  0  0  1  0  0  0  0  0  0  0  0
  1  4  1  0  0  0  0
  2  4  1  0  0  0  0
  2  5  2  0  0  0  0
  2  6  1  0  0  0  0
  3  4  1  0  0  0  0
  3  7  1  0  0  0  0
  3  8  1  0  0  0  0
  4 26  1  0  0  0  0
  6  9  1  0  0  0  0
  6 12  1  0  0  0  0
  8 10  1  0  0  0  0
  8 11  2  0  0  0  0
  9 13  1  0  0  0  0
  9 14  1  0  0  0  0
  9 15  1  0  0  0  0
 10 16  1  0  0  0  0
 10 17  1  0  0  0  0
 10 18  1  0  0  0  0
 19 20  1  0  0  0  0
 20 21  4  0  0  0  0
 20 25  4  0  0  0  0
 21 22  4  0  0  0  0
 21 27  1  0  0  0  0
 22 23  4  0  0  0  0
 22 28  1  0  0  0  0
 23 24  4  0  0  0  0
 23 26  1  0  0  0  0
 24 25  4  0  0  0  0
 24 29  1  0  0  0  0
 25 30  1  0  0  0  0
 26 31  1  0  0  0  0
 26 32  1  0  0  0  0
M  END
> <BCLConfClusterSize>
1

> <ConfClashScore>
0 

> <ConfOneFourInteractionScore>
-0.933095 

> <ConfScore>
0.430226 

> <ConfScorePBest>
0.00339084 

> <ConfTolerance>
0.321015 

> <RosettaParamsInstructions>
M  ROOT 3
M  POLY_N_BB 3
M  POLY_CA_BB 4
M  POLY_C_BB 2
M  POLY_O_BB 5
M  POLY_IGNORE 9 10 11 12 13 14 15 16 17 18 
M  POLY_UPPER 6
M  POLY_LOWER 8
M  POLY_CHG 0
M  POLY_PROPERTIES ALPHA_AA D_AA PROTEIN AROMATIC POLYMER 
M  END

$$$$



 32 32  0  0  0  0  0  0  0  0999 V2000
   -0.5029    0.9863   -0.6461 H   0  0  0  1  0  0  0  0  0  0  0  0
   -1.8817    1.5143    0.8442 C   0  0  0  1  0  0  0  0  0  0  0  0
    0.3115    2.5418    0.4259 N   0  0  0  1  0  0  0  0  0  0  0  0
   -0.8459    1.8984   -0.2041 C   0  0  0  1  0  0  0  0  0  0  0  0
   -2.5175    0.4727    0.8254 O   0  0  0  1  0  0  0  0  0  0  0  0
   -2.0758    2.4033    1.8302 N   0  0  0  1  0  0  0  0  0  0  0  0
    0.1849    3.0177    1.2732 H   0  0  0  1  0  0  0  0  0  0  0  0
    1.5445    2.5012   -0.1203 C   0  0  0  1  0  0  0  0  0  0  0  0
   -3.1537    2.2082    2.7883 C   0  0  0  1  0  0  0  0  0  0  0  0
    2.6142    3.4014    0.4668 C   0  0  0  1  0  0  0  0  0  0  0  0
    1.7957    1.7580   -1.0653 O   0  0  0  1  0  0  0  0  0  0  0  0
   -1.4904    3.1857    1.9055 H   0  0  0  1  0  0  0  0  0  0  0  0
   -2.9212    2.7226    3.6972 H   0  0  0  1  0  0  0  0  0  0  0  0
   -3.2673    1.1633    2.9890 H   0  0  0  1  0  0  0  0  0  0  0  0
   -4.0652    2.5952    2.3829 H   0  0  0  1  0  0  0  0  0  0  0  0
    2.7047    3.2112    1.5159 H   0  0  0  1  0  0  0  0  0  0  0  0
    2.3430    4.4248    0.3123 H   0  0  0  1  0  0  0  0  0  0  0  0
    3.5496    3.2033   -0.0133 H   0  0  0  1  0  0  0  0  0  0  0  0
   -2.8277    8.8148   -0.0905 I   0  0  0  1  0  0  0  0  0  0  0  0
   -2.3691    6.7993   -0.3994 C   0  0  0  1  0  0  0  0  0  0  0  0
   -1.1124    6.3036   -0.0890 C   0  0  0  1  0  0  0  0  0  0  0  0
   -0.7944    4.9915   -0.3846 C   0  0  0  1  0  0  0  0  0  0  0  0
   -1.7342    4.1696   -0.9868 C   0  0  0  1  0  0  0  0  0  0  0  0
   -2.9874    4.6636   -1.2964 C   0  0  0  1  0  0  0  0  0  0  0  0
   -3.3061    5.9796   -0.9998 C   0  0  0  1  0  0  0  0  0  0  0  0
   -1.4466    2.7266   -1.3282 C   0  0  0  1  0  0  0  0  0  0  0  0
   -0.4086    6.9192    0.3664 H   0  0  0  1  0  0  0  0  0  0  0  0
    0.1499    4.6209   -0.1553 H   0  0  0  1  0  0  0  0  0  0  0  0
   -3.6911    4.0480   -1.7518 H   0  0  0  1  0  0  0  0  0  0  0  0
   -4.2504    6.3503   -1.2291 H   0  0  0  1  0  0  0  0  0  0  0  0
   -2.3673    2.2669   -1.6212 H   0  0  0  1  0  0  0  0  0  0  0  0
   -0.7625    2.7121   -2.1508 H   0  0  0  1  0  0  0  0  0  0  0  0
  1  4  1  0  0  0  0
  2  4  1  0  0  0  0
  2  5  2  0  0  0  0
  2  6  1  0  0  0  0
  3  4  1  0  0  0  0
  3  7  1  0  0  0  0
  3  8  1  0  0  0  0
  4 26  1  0  0  0  0
  6  9  1  0  0  0  0
  6 12  1  0  0  0  0
  8 10  1  0  0  0  0
  8 11  2  0  0  0  0
  9 13  1  0  0  0  0
  9 14  1  0  0  0  0
  9 15  1  0  0  0  0
 10 16  1  0  0  0  0
 10 17  1  0  0  0  0
 10 18  1  0  0  0  0
 19 20  1  0  0  0  0
 20 21  4  0  0  0  0
 20 25  4  0  0  0  0
 21 22  4  0  0  0  0
 21 27  1  0  0  0  0
 22 23  4  0  0  0  0
 22 28  1  0  0  0  0
 23 24  4  0  0  0  0
 23 26  1  0  0  0  0
 24 25  4  0  0  0  0
 24 29  1  0  0  0  0
 25 30  1  0  0  0  0
 26 31  1  0  0  0  0
 26 32  1  0  0  0  0
M  END
> <BCLConfClusterSize>
1

> <ConfClashScore>
0 

> <ConfOneFourInteractionScore>
-0.936632 

> <ConfScore>
0.431967 

> <ConfScorePBest>
0.00336236 

> <ConfTolerance>
0.862867 

> <RosettaParamsInstructions>
M  ROOT 3
M  POLY_N_BB 3
M  POLY_CA_BB 4
M  POLY_C_BB 2
M  POLY_O_BB 5
M  POLY_IGNORE 9 10 11 12 13 14 15 16 17 18 
M  POLY_UPPER 6
M  POLY_LOWER 8
M  POLY_CHG 0
M  POLY_PROPERTIES ALPHA_AA D_AA PROTEIN AROMATIC POLYMER 
M  END

$$$$



 32 32  0  0  0  0  0  0  0  0999 V2000
   -1.4636    2.3873    0.7969 H   0  0  0  1  0  0  0  0  0  0  0  0
    0.3538    1.5737    0.1104 C   0  0  0  1  0  0  0  0  0  0  0  0
   -1.9087    0.6217   -0.1882 N   0  0  0  1  0  0  0  0  0  0  0  0
   -1.1255    1.8551   -0.0676 C   0  0  0  1  0  0  0  0  0  0  0  0
    0.7451    0.6059    0.7574 O   0  0  0  1  0  0  0  0  0  0  0  0
    1.1881    2.4440   -0.4801 N   0  0  0  1  0  0  0  0  0  0  0  0
   -2.4969    0.5090   -0.9639 H   0  0  0  1  0  0  0  0  0  0  0  0
   -1.8485   -0.3539    0.7226 C   0  0  0  1  0  0  0  0  0  0  0  0
    2.6299    2.2469   -0.5007 C   0  0  0  1  0  0  0  0  0  0  0  0
   -2.7683   -1.5355    0.4839 C   0  0  0  1  0  0  0  0  0  0  0  0
   -1.1071   -0.3141    1.6907 O   0  0  0  1  0  0  0  0  0  0  0  0
    0.8133    3.2396   -0.9123 H   0  0  0  1  0  0  0  0  0  0  0  0
    2.8465    1.2088   -0.6428 H   0  0  0  1  0  0  0  0  0  0  0  0
    3.0476    2.5742    0.4285 H   0  0  0  1  0  0  0  0  0  0  0  0
    3.0555    2.8129   -1.3027 H   0  0  0  1  0  0  0  0  0  0  0  0
   -2.5347   -1.9854   -0.4584 H   0  0  0  1  0  0  0  0  0  0  0  0
   -3.7844   -1.2005    0.4768 H   0  0  0  1  0  0  0  0  0  0  0  0
   -2.6347   -2.2546    1.2650 H   0  0  0  1  0  0  0  0  0  0  0  0
   -2.8298    8.8015   -0.0145 I   0  0  0  1  0  0  0  0  0  0  0  0
   -2.3639    6.8066   -0.4285 C   0  0  0  1  0  0  0  0  0  0  0  0
   -1.1110    6.3063   -0.1102 C   0  0  0  1  0  0  0  0  0  0  0  0
   -0.8016    4.9885   -0.3890 C   0  0  0  1  0  0  0  0  0  0  0  0
   -1.7462    4.1655   -0.9822 C   0  0  0  1  0  0  0  0  0  0  0  0
   -2.9956    4.6641   -1.2997 C   0  0  0  1  0  0  0  0  0  0  0  0
   -3.3057    5.9859   -1.0199 C   0  0  0  1  0  0  0  0  0  0  0  0
   -1.4108    2.7236   -1.2819 C   0  0  0  1  0  0  0  0  0  0  0  0
   -0.4036    6.9227    0.3385 H   0  0  0  1  0  0  0  0  0  0  0  0
    0.1398    4.6143   -0.1538 H   0  0  0  1  0  0  0  0  0  0  0  0
   -3.7029    4.0477   -1.7484 H   0  0  0  1  0  0  0  0  0  0  0  0
   -4.2471    6.3601   -1.2551 H   0  0  0  1  0  0  0  0  0  0  0  0
   -2.2383    2.2946   -1.8074 H   0  0  0  1  0  0  0  0  0  0  0  0
   -0.5437    2.7098   -1.9086 H   0  0  0  1  0  0  0  0  0  0  0  0
  1  4  1  0  0  0  0
  2  4  1  0  0  0  0
  2  5  2  0  0  0  0
  2  6  1  0  0  0  0
  3  4  1  0  0  0  0
  3  7  1  0  0  0  0
  3  8  1  0  0  0  0
  4 26  1  0  0  0  0
  6  9  1  0  0  0  0
  6 12  1  0  0  0  0
  8 10  1  0  0  0  0
  8 11  2  0  0  0  0
  9 13  1  0  0  0  0
  9 14  1  0  0  0  0
  9 15  1  0  0  0  0
 10 16  1  0  0  0  0
 10 17  1  0  0  0  0
 10 18  1  0  0  0  0
 19 20  1  0  0  0  0
 20 21  4  0  0  0  0
 20 25  4  0  0  0  0
 21 22  4  0  0  0  0
 21 27  1  0  0  0  0
 22 23  4  0  0  0  0
 22 28  1  0  0  0  0
 23 24  4  0  0  0  0
 23 26  1  0  0  0  0
 24 25  4  0  0  0  0
 24 29  1  0  0  0  0
 25 30  1  0  0  0  0
 26 31  1  0  0  0  0
 26 32  1  0  0  0  0
M  END
> <BCLConfClusterSize>
1

> <ConfClashScore>
0.000968962 

> <ConfOneFourInteractionScore>
-0.947371 

> <ConfScore>
0.435573 

> <ConfScorePBest>
0.00333388 

> <ConfTolerance>
0.326315 

> <RosettaParamsInstructions>
M  ROOT 3
M  POLY_N_BB 3
M  POLY_CA_BB 4
M  POLY_C_BB 2
M  POLY_O_BB 5
M  POLY_IGNORE 9 10 11 12 13 14 15 16 17 18 
M  POLY_UPPER 6
M  POLY_LOWER 8
M  POLY_CHG 0
M  POLY_PROPERTIES ALPHA_AA D_AA PROTEIN AROMATIC POLYMER 
M  END

$$$$



 32 32  0  0  0  0  0  0  0  0999 V2000
    0.6767    2.7297   -1.3217 H   0  0  0  1  0  0  0  0  0  0  0  0
    0.0566    0.7353   -0.9054 C   0  0  0  1  0  0  0  0  0  0  0  0
    0.0220    2.6024    0.6574 N   0  0  0  1  0  0  0  0  0  0  0  0
   -0.1000    2.2489   -0.7645 C   0  0  0  1  0  0  0  0  0  0  0  0
   -0.6349   -0.0352   -0.2407 O   0  0  0  1  0  0  0  0  0  0  0  0
    0.9696    0.2734   -1.7744 N   0  0  0  1  0  0  0  0  0  0  0  0
   -0.6244    3.2279    1.0464 H   0  0  0  1  0  0  0  0  0  0  0  0
    0.9875    2.0982    1.4410 C   0  0  0  1  0  0  0  0  0  0  0  0
    1.1436   -1.1473   -2.0374 C   0  0  0  1  0  0  0  0  0  0  0  0
    0.9054    2.4680    2.9047 C   0  0  0  1  0  0  0  0  0  0  0  0
    1.8898    1.3793    1.0137 O   0  0  0  1  0  0  0  0  0  0  0  0
    1.5388    0.9153   -2.2482 H   0  0  0  1  0  0  0  0  0  0  0  0
    2.1794   -1.3548   -2.2078 H   0  0  0  1  0  0  0  0  0  0  0  0
    0.5781   -1.4213   -2.9035 H   0  0  0  1  0  0  0  0  0  0  0  0
    0.8013   -1.7104   -1.1945 H   0  0  0  1  0  0  0  0  0  0  0  0
   -0.1199    2.5898    3.1854 H   0  0  0  1  0  0  0  0  0  0  0  0
    1.4317    3.3847    3.0708 H   0  0  0  1  0  0  0  0  0  0  0  0
    1.3464    1.6912    3.4938 H   0  0  0  1  0  0  0  0  0  0  0  0
   -2.7856    8.8071    0.0035 I   0  0  0  1  0  0  0  0  0  0  0  0
   -2.3748    6.8050   -0.4330 C   0  0  0  1  0  0  0  0  0  0  0  0
   -1.1190    6.3146   -0.1107 C   0  0  0  1  0  0  0  0  0  0  0  0
   -0.7994    4.9983   -0.3853 C   0  0  0  1  0  0  0  0  0  0  0  0
   -1.7368    4.1669   -0.9783 C   0  0  0  1  0  0  0  0  0  0  0  0
   -2.9891    4.6556   -1.2997 C   0  0  0  1  0  0  0  0  0  0  0  0
   -3.3094    5.9759   -1.0243 C   0  0  0  1  0  0  0  0  0  0  0  0
   -1.4473    2.7191   -1.2968 C   0  0  0  1  0  0  0  0  0  0  0  0
   -0.4171    6.9374    0.3378 H   0  0  0  1  0  0  0  0  0  0  0  0
    0.1442    4.6317   -0.1471 H   0  0  0  1  0  0  0  0  0  0  0  0
   -3.6909    4.0329   -1.7483 H   0  0  0  1  0  0  0  0  0  0  0  0
   -4.2530    6.3426   -1.2625 H   0  0  0  1  0  0  0  0  0  0  0  0
   -2.2153    2.1145   -0.8614 H   0  0  0  1  0  0  0  0  0  0  0  0
   -1.4554    2.5960   -2.3596 H   0  0  0  1  0  0  0  0  0  0  0  0
  1  4  1  0  0  0  0
  2  4  1  0  0  0  0
  2  5  2  0  0  0  0
  2  6  1  0  0  0  0
  3  4  1  0  0  0  0
  3  7  1  0  0  0  0
  3  8  1  0  0  0  0
  4 26  1  0  0  0  0
  6  9  1  0  0  0  0
  6 12  1  0  0  0  0
  8 10  1  0  0  0  0
  8 11  2  0  0  0  0
  9 13  1  0  0  0  0
  9 14  1  0  0  0  0
  9 15  1  0  0  0  0
 10 16  1  0  0  0  0
 10 17  1  0  0  0  0
 10 18  1  0  0  0  0
 19 20  1  0  0  0  0
 20 21  4  0  0  0  0
 20 25  4  0  0  0  0
 21 22  4  0  0  0  0
 21 27  1  0  0  0  0
 22 23  4  0  0  0  0
 22 28  1  0  0  0  0
 23 24  4  0  0  0  0
 23 26  1  0  0  0  0
 24 25  4  0  0  0  0
 24 29  1  0  0  0  0
 25 30  1  0  0  0  0
 26 31  1  0  0  0  0
 26 32  1  0  0  0  0
M  END
> <BCLConfClusterSize>
1

> <ConfClashScore>
0 

> <ConfOneFourInteractionScore>
-0.978366 

> <ConfScore>
0.437359 

> <ConfScorePBest>
0.0033054 

> <ConfTolerance>
0.73684 

> <RosettaParamsInstructions>
M  ROOT 3
M  POLY_N_BB 3
M  POLY_CA_BB 4
M  POLY_C_BB 2
M  POLY_O_BB 5
M  POLY_IGNORE 9 10 11 12 13 14 15 16 17 18 
M  POLY_UPPER 6
M  POLY_LOWER 8
M  POLY_CHG 0
M  POLY_PROPERTIES ALPHA_AA D_AA PROTEIN AROMATIC POLYMER 
M  END

$$$$



 32 32  0  0  0  0  0  0  0  0999 V2000
   -1.2222    2.0382    0.7793 H   0  0  0  1  0  0  0  0  0  0  0  0
   -1.6933    0.2819   -0.4075 C   0  0  0  1  0  0  0  0  0  0  0  0
   -3.2138    2.0868    0.3198 N   0  0  0  1  0  0  0  0  0  0  0  0
   -1.8587    1.8203   -0.0527 C   0  0  0  1  0  0  0  0  0  0  0  0
   -1.0883   -0.4172    0.3723 O   0  0  0  1  0  0  0  0  0  0  0  0
   -2.2510   -0.1820   -1.5940 N   0  0  0  1  0  0  0  0  0  0  0  0
   -3.4302    2.1984    1.2690 H   0  0  0  1  0  0  0  0  0  0  0  0
   -4.1650    2.1860   -0.5542 C   0  0  0  1  0  0  0  0  0  0  0  0
   -2.0324   -1.5872   -2.0212 C   0  0  0  1  0  0  0  0  0  0  0  0
   -5.5469    2.4635    0.0049 C   0  0  0  1  0  0  0  0  0  0  0  0
   -3.9785    2.0658   -1.7621 O   0  0  0  1  0  0  0  0  0  0  0  0
   -2.7895    0.4198   -2.1493 H   0  0  0  1  0  0  0  0  0  0  0  0
   -2.3261   -2.2497   -1.2340 H   0  0  0  1  0  0  0  0  0  0  0  0
   -0.9963   -1.7350   -2.2436 H   0  0  0  1  0  0  0  0  0  0  0  0
   -2.6174   -1.7894   -2.8941 H   0  0  0  1  0  0  0  0  0  0  0  0
   -5.8400    1.6601    0.6480 H   0  0  0  1  0  0  0  0  0  0  0  0
   -6.2465    2.5491   -0.8001 H   0  0  0  1  0  0  0  0  0  0  0  0
   -5.5293    3.3773    0.5614 H   0  0  0  1  0  0  0  0  0  0  0  0
   -2.8362    8.7954    0.0062 I   0  0  0  1  0  0  0  0  0  0  0  0
   -2.3653    6.8053   -0.4251 C   0  0  0  1  0  0  0  0  0  0  0  0
   -1.1103    6.3060   -0.1131 C   0  0  0  1  0  0  0  0  0  0  0  0
   -0.7976    4.9915   -0.4034 C   0  0  0  1  0  0  0  0  0  0  0  0
   -1.7409    4.1707   -1.0018 C   0  0  0  1  0  0  0  0  0  0  0  0
   -2.9922    4.6683   -1.3131 C   0  0  0  1  0  0  0  0  0  0  0  0
   -3.3057    5.9869   -1.0218 C   0  0  0  1  0  0  0  0  0  0  0  0
   -1.4244    2.7102   -1.2211 C   0  0  0  1  0  0  0  0  0  0  0  0
   -0.4040    6.9207    0.3396 H   0  0  0  1  0  0  0  0  0  0  0  0
    0.1453    4.6181   -0.1728 H   0  0  0  1  0  0  0  0  0  0  0  0
   -3.6985    4.0536   -1.7658 H   0  0  0  1  0  0  0  0  0  0  0  0
   -4.2486    6.3603   -1.2524 H   0  0  0  1  0  0  0  0  0  0  0  0
   -1.9289    2.3814   -2.1055 H   0  0  0  1  0  0  0  0  0  0  0  0
   -0.3676    2.6068   -1.3534 H   0  0  0  1  0  0  0  0  0  0  0  0
  1  4  1  0  0  0  0
  2  4  1  0  0  0  0
  2  5  2  0  0  0  0
  2  6  1  0  0  0  0
  3  4  1  0  0  0  0
  3  7  1  0  0  0  0
  3  8  1  0  0  0  0
  4 26  1  0  0  0  0
  6  9  1  0  0  0  0
  6 12  1  0  0  0  0
  8 10  1  0  0  0  0
  8 11  2  0  0  0  0
  9 13  1  0  0  0  0
  9 14  1  0  0  0  0
  9 15  1  0  0  0  0
 10 16  1  0  0  0  0
 10 17  1  0  0  0  0
 10 18  1  0  0  0  0
 19 20  1  0  0  0  0
 20 21  4  0  0  0  0
 20 25  4  0  0  0  0
 21 22  4  0  0  0  0
 21 27  1  0  0  0  0
 22 23  4  0  0  0  0
 22 28  1  0  0  0  0
 23 24  4  0  0  0  0
 23 26  1  0  0  0  0
 24 25  4  0  0  0  0
 24 29  1  0  0  0  0
 25 30  1  0  0  0  0
 26 31  1  0  0  0  0
 26 32  1  0  0  0  0
M  END
> <BCLConfClusterSize>
1

> <ConfClashScore>
0 

> <ConfOneFourInteractionScore>
-0.950934 

> <ConfScore>
0.442877 

> <ConfScorePBest>
0.00327691 

> <ConfTolerance>
0.813547 

> <RosettaParamsInstructions>
M  ROOT 3
M  POLY_N_BB 3
M  POLY_CA_BB 4
M  POLY_C_BB 2
M  POLY_O_BB 5
M  POLY_IGNORE 9 10 11 12 13 14 15 16 17 18 
M  POLY_UPPER 6
M  POLY_LOWER 8
M  POLY_CHG 0
M  POLY_PROPERTIES ALPHA_AA D_AA PROTEIN AROMATIC POLYMER 
M  END

$$$$



 32 32  0  0  0  0  0  0  0  0999 V2000
   -0.1857    1.4885   -2.4470 H   0  0  0  1  0  0  0  0  0  0  0  0
    0.3746    3.4562   -2.9301 C   0  0  0  1  0  0  0  0  0  0  0  0
   -1.6321    2.2991   -3.6838 N   0  0  0  1  0  0  0  0  0  0  0  0
   -0.6814    2.4287   -2.5704 C   0  0  0  1  0  0  0  0  0  0  0  0
    0.2499    4.2766   -3.8198 O   0  0  0  1  0  0  0  0  0  0  0  0
    1.4985    3.4234   -2.1980 N   0  0  0  1  0  0  0  0  0  0  0  0
   -2.5607    2.5813   -3.5481 H   0  0  0  1  0  0  0  0  0  0  0  0
   -1.2608    1.7914   -4.9195 C   0  0  0  1  0  0  0  0  0  0  0  0
    2.6065    4.3103   -2.5199 C   0  0  0  1  0  0  0  0  0  0  0  0
   -2.3161    1.5767   -5.9679 C   0  0  0  1  0  0  0  0  0  0  0  0
   -0.0845    1.5348   -5.1151 O   0  0  0  1  0  0  0  0  0  0  0  0
    1.5733    2.8009   -1.4448 H   0  0  0  1  0  0  0  0  0  0  0  0
    2.8459    4.2202   -3.5588 H   0  0  0  1  0  0  0  0  0  0  0  0
    3.4599    4.0419   -1.9329 H   0  0  0  1  0  0  0  0  0  0  0  0
    2.3283    5.3208   -2.3045 H   0  0  0  1  0  0  0  0  0  0  0  0
   -1.9450    1.8970   -6.9190 H   0  0  0  1  0  0  0  0  0  0  0  0
   -3.1886    2.1428   -5.7167 H   0  0  0  1  0  0  0  0  0  0  0  0
   -2.5659    0.5373   -6.0145 H   0  0  0  1  0  0  0  0  0  0  0  0
   -2.8828    8.7926   -0.0369 I   0  0  0  1  0  0  0  0  0  0  0  0
   -2.3514    6.8085   -0.4233 C   0  0  0  1  0  0  0  0  0  0  0  0
   -1.1003    6.3019   -0.1075 C   0  0  0  1  0  0  0  0  0  0  0  0
   -0.7974    4.9832   -0.3890 C   0  0  0  1  0  0  0  0  0  0  0  0
   -1.7466    4.1656   -0.9823 C   0  0  0  1  0  0  0  0  0  0  0  0
   -2.9941    4.6705   -1.2972 C   0  0  0  1  0  0  0  0  0  0  0  0
   -3.2978    5.9932   -1.0148 C   0  0  0  1  0  0  0  0  0  0  0  0
   -1.4183    2.7226   -1.2849 C   0  0  0  1  0  0  0  0  0  0  0  0
   -0.3895    6.9143    0.3413 H   0  0  0  1  0  0  0  0  0  0  0  0
    0.1426    4.6042   -0.1557 H   0  0  0  1  0  0  0  0  0  0  0  0
   -3.7049    4.0581   -1.7460 H   0  0  0  1  0  0  0  0  0  0  0  0
   -4.2378    6.3722   -1.2481 H   0  0  0  1  0  0  0  0  0  0  0  0
   -0.8166    2.3556   -0.4799 H   0  0  0  1  0  0  0  0  0  0  0  0
   -2.3421    2.1836   -1.3150 H   0  0  0  1  0  0  0  0  0  0  0  0
  1  4  1  0  0  0  0
  2  4  1  0  0  0  0
  2  5  2  0  0  0  0
  2  6  1  0  0  0  0
  3  4  1  0  0  0  0
  3  7  1  0  0  0  0
  3  8  1  0  0  0  0
  4 26  1  0  0  0  0
  6  9  1  0  0  0  0
  6 12  1  0  0  0  0
  8 10  1  0  0  0  0
  8 11  2  0  0  0  0
  9 13  1  0  0  0  0
  9 14  1  0  0  0  0
  9 15  1  0  0  0  0
 10 16  1  0  0  0  0
 10 17  1  0  0  0  0
 10 18  1  0  0  0  0
 19 20  1  0  0  0  0
 20 21  4  0  0  0  0
 20 25  4  0  0  0  0
 21 22  4  0  0  0  0
 21 27  1  0  0  0  0
 22 23  4  0  0  0  0
 22 28  1  0  0  0  0
 23 24  4  0  0  0  0
 23 26  1  0  0  0  0
 24 25  4  0  0  0  0
 24 29  1  0  0  0  0
 25 30  1  0  0  0  0
 26 31  1  0  0  0  0
 26 32  1  0  0  0  0
M  END
> <BCLConfClusterSize>
1

> <ConfClashScore>
0 

> <ConfOneFourInteractionScore>
-0.974883 

> <ConfScore>
0.445608 

> <ConfScorePBest>
0.00324843 

> <ConfTolerance>
0.827036 

> <RosettaParamsInstructions>
M  ROOT 3
M  POLY_N_BB 3
M  POLY_CA_BB 4
M  POLY_C_BB 2
M  POLY_O_BB 5
M  POLY_IGNORE 9 10 11 12 13 14 15 16 17 18 
M  POLY_UPPER 6
M  POLY_LOWER 8
M  POLY_CHG 0
M  POLY_PROPERTIES ALPHA_AA D_AA PROTEIN AROMATIC POLYMER 
M  END

$$$$



 32 32  0  0  0  0  0  0  0  0999 V2000
    0.1582    2.7076    0.1553 H   0  0  0  1  0  0  0  0  0  0  0  0
    1.1535    3.1937   -1.6155 C   0  0  0  1  0  0  0  0  0  0  0  0
    0.3773    0.9688   -0.9151 N   0  0  0  1  0  0  0  0  0  0  0  0
    0.0792    2.4123   -0.8701 C   0  0  0  1  0  0  0  0  0  0  0  0
    2.2808    3.3192   -1.1661 O   0  0  0  1  0  0  0  0  0  0  0  0
    0.7340    3.7102   -2.7814 N   0  0  0  1  0  0  0  0  0  0  0  0
    0.3100    0.4299   -0.0993 H   0  0  0  1  0  0  0  0  0  0  0  0
    0.7424    0.3884   -2.0770 C   0  0  0  1  0  0  0  0  0  0  0  0
    1.6586    4.2123   -3.7868 C   0  0  0  1  0  0  0  0  0  0  0  0
    0.8931   -1.1200   -2.0410 C   0  0  0  1  0  0  0  0  0  0  0  0
    0.9446    1.0257   -3.1097 O   0  0  0  1  0  0  0  0  0  0  0  0
   -0.2284    3.7504   -2.9618 H   0  0  0  1  0  0  0  0  0  0  0  0
    1.1661    4.2543   -4.7358 H   0  0  0  1  0  0  0  0  0  0  0  0
    2.5033    3.5588   -3.8522 H   0  0  0  1  0  0  0  0  0  0  0  0
    1.9862    5.1930   -3.5116 H   0  0  0  1  0  0  0  0  0  0  0  0
    1.2089   -1.4243   -1.0650 H   0  0  0  1  0  0  0  0  0  0  0  0
    1.6232   -1.4226   -2.7623 H   0  0  0  1  0  0  0  0  0  0  0  0
   -0.0465   -1.5776   -2.2704 H   0  0  0  1  0  0  0  0  0  0  0  0
   -2.7820    8.8215   -0.0707 I   0  0  0  1  0  0  0  0  0  0  0  0
   -2.3787    6.7980   -0.4037 C   0  0  0  1  0  0  0  0  0  0  0  0
   -1.1231    6.2986   -0.0947 C   0  0  0  1  0  0  0  0  0  0  0  0
   -0.8090    4.9858   -0.3917 C   0  0  0  1  0  0  0  0  0  0  0  0
   -1.7515    4.1670   -0.9938 C   0  0  0  1  0  0  0  0  0  0  0  0
   -3.0036    4.6647   -1.3021 C   0  0  0  1  0  0  0  0  0  0  0  0
   -3.3184    5.9814   -1.0041 C   0  0  0  1  0  0  0  0  0  0  0  0
   -1.3581    2.7393   -1.2912 C   0  0  0  1  0  0  0  0  0  0  0  0
   -0.4172    6.9118    0.3607 H   0  0  0  1  0  0  0  0  0  0  0  0
    0.1345    4.6124   -0.1635 H   0  0  0  1  0  0  0  0  0  0  0  0
   -3.7094    4.0515   -1.7575 H   0  0  0  1  0  0  0  0  0  0  0  0
   -4.2618    6.3549   -1.2323 H   0  0  0  1  0  0  0  0  0  0  0  0
   -2.0237    2.0863   -0.7664 H   0  0  0  1  0  0  0  0  0  0  0  0
   -1.4508    2.5728   -2.3441 H   0  0  0  1  0  0  0  0  0  0  0  0
  1  4  1  0  0  0  0
  2  4  1  0  0  0  0
  2  5  2  0  0  0  0
  2  6  1  0  0  0  0
  3  4  1  0  0  0  0
  3  7  1  0  0  0  0
  3  8  1  0  0  0  0
  4 26  1  0  0  0  0
  6  9  1  0  0  0  0
  6 12  1  0  0  0  0
  8 10  1  0  0  0  0
  8 11  2  0  0  0  0
  9 13  1  0  0  0  0
  9 14  1  0  0  0  0
  9 15  1  0  0  0  0
 10 16  1  0  0  0  0
 10 17  1  0  0  0  0
 10 18  1  0  0  0  0
 19 20  1  0  0  0  0
 20 21  4  0  0  0  0
 20 25  4  0  0  0  0
 21 22  4  0  0  0  0
 21 27  1  0  0  0  0
 22 23  4  0  0  0  0
 22 28  1  0  0  0  0
 23 24  4  0  0  0  0
 23 26  1  0  0  0  0
 24 25  4  0  0  0  0
 24 29  1  0  0  0  0
 25 30  1  0  0  0  0
 26 31  1  0  0  0  0
 26 32  1  0  0  0  0
M  END
> <BCLConfClusterSize>
1

> <ConfClashScore>
0.000437741 

> <ConfOneFourInteractionScore>
-0.92018 

> <ConfScore>
0.447551 

> <ConfScorePBest>
0.00321995 

> <ConfTolerance>
0.60728 

> <RosettaParamsInstructions>
M  ROOT 3
M  POLY_N_BB 3
M  POLY_CA_BB 4
M  POLY_C_BB 2
M  POLY_O_BB 5
M  POLY_IGNORE 9 10 11 12 13 14 15 16 17 18 
M  POLY_UPPER 6
M  POLY_LOWER 8
M  POLY_CHG 0
M  POLY_PROPERTIES ALPHA_AA D_AA PROTEIN AROMATIC POLYMER 
M  END

$$$$



 32 32  0  0  0  0  0  0  0  0999 V2000
   -2.6551    2.1592    0.4146 H   0  0  0  1  0  0  0  0  0  0  0  0
   -0.6839    2.2183    1.1566 C   0  0  0  1  0  0  0  0  0  0  0  0
   -1.6779    0.4758   -0.2907 N   0  0  0  1  0  0  0  0  0  0  0  0
   -1.6804    1.8999    0.0574 C   0  0  0  1  0  0  0  0  0  0  0  0
    0.2672    2.9693    0.9567 O   0  0  0  1  0  0  0  0  0  0  0  0
   -0.9142    1.6299    2.3410 N   0  0  0  1  0  0  0  0  0  0  0  0
   -2.5193   -0.0166   -0.1904 H   0  0  0  1  0  0  0  0  0  0  0  0
   -0.6167   -0.2002   -0.7335 C   0  0  0  1  0  0  0  0  0  0  0  0
   -0.1235    1.9982    3.5059 C   0  0  0  1  0  0  0  0  0  0  0  0
   -0.8097   -1.6567   -1.1410 C   0  0  0  1  0  0  0  0  0  0  0  0
    0.5110    0.2812   -0.8334 O   0  0  0  1  0  0  0  0  0  0  0  0
   -1.6162    0.9509    2.4214 H   0  0  0  1  0  0  0  0  0  0  0  0
    0.2234    3.0047    3.3985 H   0  0  0  1  0  0  0  0  0  0  0  0
    0.7153    1.3392    3.5902 H   0  0  0  1  0  0  0  0  0  0  0  0
   -0.7277    1.9214    4.3856 H   0  0  0  1  0  0  0  0  0  0  0  0
   -1.6021   -1.7253   -1.8568 H   0  0  0  1  0  0  0  0  0  0  0  0
   -1.0577   -2.2384   -0.2779 H   0  0  0  1  0  0  0  0  0  0  0  0
    0.0952   -2.0285   -1.5744 H   0  0  0  1  0  0  0  0  0  0  0  0
   -2.8362    8.7954    0.0062 I   0  0  0  1  0  0  0  0  0  0  0  0
   -2.3653    6.8053   -0.4251 C   0  0  0  1  0  0  0  0  0  0  0  0
   -1.1103    6.3060   -0.1131 C   0  0  0  1  0  0  0  0  0  0  0  0
   -0.7976    4.9915   -0.4034 C   0  0  0  1  0  0  0  0  0  0  0  0
   -1.7409    4.1707   -1.0018 C   0  0  0  1  0  0  0  0  0  0  0  0
   -2.9922    4.6683   -1.3131 C   0  0  0  1  0  0  0  0  0  0  0  0
   -3.3057    5.9869   -1.0218 C   0  0  0  1  0  0  0  0  0  0  0  0
   -1.4244    2.7102   -1.2211 C   0  0  0  1  0  0  0  0  0  0  0  0
   -0.4040    6.9207    0.3396 H   0  0  0  1  0  0  0  0  0  0  0  0
    0.1453    4.6181   -0.1728 H   0  0  0  1  0  0  0  0  0  0  0  0
   -3.6985    4.0536   -1.7658 H   0  0  0  1  0  0  0  0  0  0  0  0
   -4.2486    6.3603   -1.2524 H   0  0  0  1  0  0  0  0  0  0  0  0
   -2.0440    2.3310   -2.0067 H   0  0  0  1  0  0  0  0  0  0  0  0
   -0.3956    2.6120   -1.4986 H   0  0  0  1  0  0  0  0  0  0  0  0
  1  4  1  0  0  0  0
  2  4  1  0  0  0  0
  2  5  2  0  0  0  0
  2  6  1  0  0  0  0
  3  4  1  0  0  0  0
  3  7  1  0  0  0  0
  3  8  1  0  0  0  0
  4 26  1  0  0  0  0
  6  9  1  0  0  0  0
  6 12  1  0  0  0  0
  8 10  1  0  0  0  0
  8 11  2  0  0  0  0
  9 13  1  0  0  0  0
  9 14  1  0  0  0  0
  9 15  1  0  0  0  0
 10 16  1  0  0  0  0
 10 17  1  0  0  0  0
 10 18  1  0  0  0  0
 19 20  1  0  0  0  0
 20 21  4  0  0  0  0
 20 25  4  0  0  0  0
 21 22  4  0  0  0  0
 21 27  1  0  0  0  0
 22 23  4  0  0  0  0
 22 28  1  0  0  0  0
 23 24  4  0  0  0  0
 23 26  1  0  0  0  0
 24 25  4  0  0  0  0
 24 29  1  0  0  0  0
 25 30  1  0  0  0  0
 26 31  1  0  0  0  0
 26 32  1  0  0  0  0
M  END
> <BCLConfClusterSize>
1

> <ConfClashScore>
0 

> <ConfOneFourInteractionScore>
-0.976146 

> <ConfScore>
0.452402 

> <ConfScorePBest>
0.00319147 

> <ConfTolerance>
0.483258 

> <RosettaParamsInstructions>
M  ROOT 3
M  POLY_N_BB 3
M  POLY_CA_BB 4
M  POLY_C_BB 2
M  POLY_O_BB 5
M  POLY_IGNORE 9 10 11 12 13 14 15 16 17 18 
M  POLY_UPPER 6
M  POLY_LOWER 8
M  POLY_CHG 0
M  POLY_PROPERTIES ALPHA_AA D_AA PROTEIN AROMATIC POLYMER 
M  END

$$$$



 32 32  0  0  0  0  0  0  0  0999 V2000
    0.4683    2.7718   -2.2317 H   0  0  0  1  0  0  0  0  0  0  0  0
   -0.8590    3.8382   -3.4645 C   0  0  0  1  0  0  0  0  0  0  0  0
   -0.7060    1.3907   -3.2050 N   0  0  0  1  0  0  0  0  0  0  0  0
   -0.5522    2.6755   -2.5389 C   0  0  0  1  0  0  0  0  0  0  0  0
   -0.2019    4.8669   -3.3285 O   0  0  0  1  0  0  0  0  0  0  0  0
   -1.8304    3.6419   -4.3604 N   0  0  0  1  0  0  0  0  0  0  0  0
   -1.1581    1.3596   -4.0739 H   0  0  0  1  0  0  0  0  0  0  0  0
   -0.2522    0.2522   -2.6730 C   0  0  0  1  0  0  0  0  0  0  0  0
   -2.3078    4.7030   -5.2345 C   0  0  0  1  0  0  0  0  0  0  0  0
   -0.5396   -1.0067   -3.4678 C   0  0  0  1  0  0  0  0  0  0  0  0
    0.3615    0.2085   -1.6076 O   0  0  0  1  0  0  0  0  0  0  0  0
   -2.2356    2.7524   -4.4314 H   0  0  0  1  0  0  0  0  0  0  0  0
   -2.6809    4.2770   -6.1424 H   0  0  0  1  0  0  0  0  0  0  0  0
   -1.5016    5.3698   -5.4587 H   0  0  0  1  0  0  0  0  0  0  0  0
   -3.0919    5.2422   -4.7452 H   0  0  0  1  0  0  0  0  0  0  0  0
   -1.5448   -0.9767   -3.8333 H   0  0  0  1  0  0  0  0  0  0  0  0
   -0.4149   -1.8624   -2.8376 H   0  0  0  1  0  0  0  0  0  0  0  0
    0.1381   -1.0694   -4.2935 H   0  0  0  1  0  0  0  0  0  0  0  0
   -2.8298    8.8015   -0.0145 I   0  0  0  1  0  0  0  0  0  0  0  0
   -2.3639    6.8066   -0.4285 C   0  0  0  1  0  0  0  0  0  0  0  0
   -1.1110    6.3063   -0.1102 C   0  0  0  1  0  0  0  0  0  0  0  0
   -0.8016    4.9885   -0.3890 C   0  0  0  1  0  0  0  0  0  0  0  0
   -1.7462    4.1655   -0.9822 C   0  0  0  1  0  0  0  0  0  0  0  0
   -2.9956    4.6641   -1.2997 C   0  0  0  1  0  0  0  0  0  0  0  0
   -3.3057    5.9859   -1.0199 C   0  0  0  1  0  0  0  0  0  0  0  0
   -1.4108    2.7236   -1.2819 C   0  0  0  1  0  0  0  0  0  0  0  0
   -0.4036    6.9227    0.3385 H   0  0  0  1  0  0  0  0  0  0  0  0
    0.1398    4.6143   -0.1538 H   0  0  0  1  0  0  0  0  0  0  0  0
   -3.7029    4.0477   -1.7484 H   0  0  0  1  0  0  0  0  0  0  0  0
   -4.2471    6.3601   -1.2551 H   0  0  0  1  0  0  0  0  0  0  0  0
   -0.8710    2.3010   -0.4604 H   0  0  0  1  0  0  0  0  0  0  0  0
   -2.3123    2.1693   -1.4399 H   0  0  0  1  0  0  0  0  0  0  0  0
  1  4  1  0  0  0  0
  2  4  1  0  0  0  0
  2  5  2  0  0  0  0
  2  6  1  0  0  0  0
  3  4  1  0  0  0  0
  3  7  1  0  0  0  0
  3  8  1  0  0  0  0
  4 26  1  0  0  0  0
  6  9  1  0  0  0  0
  6 12  1  0  0  0  0
  8 10  1  0  0  0  0
  8 11  2  0  0  0  0
  9 13  1  0  0  0  0
  9 14  1  0  0  0  0
  9 15  1  0  0  0  0
 10 16  1  0  0  0  0
 10 17  1  0  0  0  0
 10 18  1  0  0  0  0
 19 20  1  0  0  0  0
 20 21  4  0  0  0  0
 20 25  4  0  0  0  0
 21 22  4  0  0  0  0
 21 27  1  0  0  0  0
 22 23  4  0  0  0  0
 22 28  1  0  0  0  0
 23 24  4  0  0  0  0
 23 26  1  0  0  0  0
 24 25  4  0  0  0  0
 24 29  1  0  0  0  0
 25 30  1  0  0  0  0
 26 31  1  0  0  0  0
 26 32  1  0  0  0  0
M  END
> <BCLConfClusterSize>
1

> <ConfClashScore>
0 

> <ConfOneFourInteractionScore>
-0.951423 

> <ConfScore>
0.461399 

> <ConfScorePBest>
0.00316299 

> <ConfTolerance>
0.850121 

> <RosettaParamsInstructions>
M  ROOT 3
M  POLY_N_BB 3
M  POLY_CA_BB 4
M  POLY_C_BB 2
M  POLY_O_BB 5
M  POLY_IGNORE 9 10 11 12 13 14 15 16 17 18 
M  POLY_UPPER 6
M  POLY_LOWER 8
M  POLY_CHG 0
M  POLY_PROPERTIES ALPHA_AA D_AA PROTEIN AROMATIC POLYMER 
M  END

$$$$



 32 32  0  0  0  0  0  0  0  0999 V2000
   -2.9883    1.7619   -0.3242 H   0  0  0  1  0  0  0  0  0  0  0  0
   -1.5832    2.1882    1.1788 C   0  0  0  1  0  0  0  0  0  0  0  0
   -1.4542    0.4035   -0.5175 N   0  0  0  1  0  0  0  0  0  0  0  0
   -1.9222    1.7527   -0.2335 C   0  0  0  1  0  0  0  0  0  0  0  0
   -0.6006    1.7481    1.7698 O   0  0  0  1  0  0  0  0  0  0  0  0
   -2.4482    3.0775    1.6915 N   0  0  0  1  0  0  0  0  0  0  0  0
   -0.5437    0.1665   -0.2433 H   0  0  0  1  0  0  0  0  0  0  0  0
   -2.1857   -0.5301   -1.1268 C   0  0  0  1  0  0  0  0  0  0  0  0
   -2.1930    3.6791    2.9918 C   0  0  0  1  0  0  0  0  0  0  0  0
   -1.5088   -1.8814   -1.3169 C   0  0  0  1  0  0  0  0  0  0  0  0
   -3.3348   -0.3313   -1.5172 O   0  0  0  1  0  0  0  0  0  0  0  0
   -3.2532    3.3222    1.1890 H   0  0  0  1  0  0  0  0  0  0  0  0
   -2.9320    4.4270    3.1906 H   0  0  0  1  0  0  0  0  0  0  0  0
   -1.2220    4.1286    2.9922 H   0  0  0  1  0  0  0  0  0  0  0  0
   -2.2374    2.9241    3.7487 H   0  0  0  1  0  0  0  0  0  0  0  0
   -1.1235   -2.2230   -0.3790 H   0  0  0  1  0  0  0  0  0  0  0  0
   -0.7059   -1.7825   -2.0173 H   0  0  0  1  0  0  0  0  0  0  0  0
   -2.2215   -2.5879   -1.6881 H   0  0  0  1  0  0  0  0  0  0  0  0
   -2.8245    8.8022   -0.0124 I   0  0  0  1  0  0  0  0  0  0  0  0
   -2.3645    6.8064   -0.4288 C   0  0  0  1  0  0  0  0  0  0  0  0
   -1.1127    6.3023   -0.1120 C   0  0  0  1  0  0  0  0  0  0  0  0
   -0.8072    4.9839   -0.3924 C   0  0  0  1  0  0  0  0  0  0  0  0
   -1.7547    4.1642   -0.9857 C   0  0  0  1  0  0  0  0  0  0  0  0
   -3.0029    4.6666   -1.3016 C   0  0  0  1  0  0  0  0  0  0  0  0
   -3.3091    5.9890   -1.0203 C   0  0  0  1  0  0  0  0  0  0  0  0
   -1.3707    2.7303   -1.2650 C   0  0  0  1  0  0  0  0  0  0  0  0
   -0.4033    6.9163    0.3368 H   0  0  0  1  0  0  0  0  0  0  0  0
    0.1333    4.6069   -0.1584 H   0  0  0  1  0  0  0  0  0  0  0  0
   -3.7123    4.0526   -1.7504 H   0  0  0  1  0  0  0  0  0  0  0  0
   -4.2497    6.3660   -1.2543 H   0  0  0  1  0  0  0  0  0  0  0  0
   -1.7484    2.4581   -2.2283 H   0  0  0  1  0  0  0  0  0  0  0  0
   -0.3031    2.6577   -1.2664 H   0  0  0  1  0  0  0  0  0  0  0  0
  1  4  1  0  0  0  0
  2  4  1  0  0  0  0
  2  5  2  0  0  0  0
  2  6  1  0  0  0  0
  3  4  1  0  0  0  0
  3  7  1  0  0  0  0
  3  8  1  0  0  0  0
  4 26  1  0  0  0  0
  6  9  1  0  0  0  0
  6 12  1  0  0  0  0
  8 10  1  0  0  0  0
  8 11  2  0  0  0  0
  9 13  1  0  0  0  0
  9 14  1  0  0  0  0
  9 15  1  0  0  0  0
 10 16  1  0  0  0  0
 10 17  1  0  0  0  0
 10 18  1  0  0  0  0
 19 20  1  0  0  0  0
 20 21  4  0  0  0  0
 20 25  4  0  0  0  0
 21 22  4  0  0  0  0
 21 27  1  0  0  0  0
 22 23  4  0  0  0  0
 22 28  1  0  0  0  0
 23 24  4  0  0  0  0
 23 26  1  0  0  0  0
 24 25  4  0  0  0  0
 24 29  1  0  0  0  0
 25 30  1  0  0  0  0
 26 31  1  0  0  0  0
 26 32  1  0  0  0  0
M  END
> <BCLConfClusterSize>
1

> <ConfClashScore>
0 

> <ConfOneFourInteractionScore>
-0.990503 

> <ConfScore>
0.462149 

> <ConfScorePBest>
0.00313451 

> <ConfTolerance>
0.70816 

> <RosettaParamsInstructions>
M  ROOT 3
M  POLY_N_BB 3
M  POLY_CA_BB 4
M  POLY_C_BB 2
M  POLY_O_BB 5
M  POLY_IGNORE 9 10 11 12 13 14 15 16 17 18 
M  POLY_UPPER 6
M  POLY_LOWER 8
M  POLY_CHG 0
M  POLY_PROPERTIES ALPHA_AA D_AA PROTEIN AROMATIC POLYMER 
M  END

$$$$



 32 32  0  0  0  0  0  0  0  0999 V2000
   -2.3163    0.8807   -1.7773 H   0  0  0  1  0  0  0  0  0  0  0  0
   -3.1082    2.3123   -3.0903 C   0  0  0  1  0  0  0  0  0  0  0  0
   -3.6824    1.9969   -0.7182 N   0  0  0  1  0  0  0  0  0  0  0  0
   -2.6282    1.9024   -1.7170 C   0  0  0  1  0  0  0  0  0  0  0  0
   -4.3060    2.3793   -3.3531 O   0  0  0  1  0  0  0  0  0  0  0  0
   -2.1469    2.5923   -3.9845 N   0  0  0  1  0  0  0  0  0  0  0  0
   -4.4682    2.5500   -0.9108 H   0  0  0  1  0  0  0  0  0  0  0  0
   -3.6156    1.3495    0.4636 C   0  0  0  1  0  0  0  0  0  0  0  0
   -2.3816    2.9509   -5.3753 C   0  0  0  1  0  0  0  0  0  0  0  0
   -4.6944    1.6295    1.4917 C   0  0  0  1  0  0  0  0  0  0  0  0
   -2.7088    0.5563    0.7021 O   0  0  0  1  0  0  0  0  0  0  0  0
   -1.2170    2.5521   -3.6777 H   0  0  0  1  0  0  0  0  0  0  0  0
   -3.3061    3.4835   -5.4556 H   0  0  0  1  0  0  0  0  0  0  0  0
   -2.4295    2.0622   -5.9693 H   0  0  0  1  0  0  0  0  0  0  0  0
   -1.5818    3.5706   -5.7234 H   0  0  0  1  0  0  0  0  0  0  0  0
   -4.6335    0.9075    2.2791 H   0  0  0  1  0  0  0  0  0  0  0  0
   -5.6556    1.5682    1.0255 H   0  0  0  1  0  0  0  0  0  0  0  0
   -4.5555    2.6104    1.8960 H   0  0  0  1  0  0  0  0  0  0  0  0
   -2.8298    8.8015   -0.0145 I   0  0  0  1  0  0  0  0  0  0  0  0
   -2.3639    6.8066   -0.4285 C   0  0  0  1  0  0  0  0  0  0  0  0
   -1.1110    6.3063   -0.1102 C   0  0  0  1  0  0  0  0  0  0  0  0
   -0.8016    4.9885   -0.3890 C   0  0  0  1  0  0  0  0  0  0  0  0
   -1.7462    4.1655   -0.9822 C   0  0  0  1  0  0  0  0  0  0  0  0
   -2.9956    4.6641   -1.2997 C   0  0  0  1  0  0  0  0  0  0  0  0
   -3.3057    5.9859   -1.0199 C   0  0  0  1  0  0  0  0  0  0  0  0
   -1.4108    2.7236   -1.2819 C   0  0  0  1  0  0  0  0  0  0  0  0
   -0.4036    6.9227    0.3385 H   0  0  0  1  0  0  0  0  0  0  0  0
    0.1398    4.6143   -0.1538 H   0  0  0  1  0  0  0  0  0  0  0  0
   -3.7029    4.0477   -1.7484 H   0  0  0  1  0  0  0  0  0  0  0  0
   -4.2471    6.3601   -1.2551 H   0  0  0  1  0  0  0  0  0  0  0  0
   -0.6849    2.6990   -2.0676 H   0  0  0  1  0  0  0  0  0  0  0  0
   -0.9980    2.2796   -0.4002 H   0  0  0  1  0  0  0  0  0  0  0  0
  1  4  1  0  0  0  0
  2  4  1  0  0  0  0
  2  5  2  0  0  0  0
  2  6  1  0  0  0  0
  3  4  1  0  0  0  0
  3  7  1  0  0  0  0
  3  8  1  0  0  0  0
  4 26  1  0  0  0  0
  6  9  1  0  0  0  0
  6 12  1  0  0  0  0
  8 10  1  0  0  0  0
  8 11  2  0  0  0  0
  9 13  1  0  0  0  0
  9 14  1  0  0  0  0
  9 15  1  0  0  0  0
 10 16  1  0  0  0  0
 10 17  1  0  0  0  0
 10 18  1  0  0  0  0
 19 20  1  0  0  0  0
 20 21  4  0  0  0  0
 20 25  4  0  0  0  0
 21 22  4  0  0  0  0
 21 27  1  0  0  0  0
 22 23  4  0  0  0  0
 22 28  1  0  0  0  0
 23 24  4  0  0  0  0
 23 26  1  0  0  0  0
 24 25  4  0  0  0  0
 24 29  1  0  0  0  0
 25 30  1  0  0  0  0
 26 31  1  0  0  0  0
 26 32  1  0  0  0  0
M  END
> <BCLConfClusterSize>
1

> <ConfClashScore>
0 

> <ConfOneFourInteractionScore>
-0.946976 

> <ConfScore>
0.464771 

> <ConfScorePBest>
0.00310603 

> <ConfTolerance>
0.843298 

> <RosettaParamsInstructions>
M  ROOT 3
M  POLY_N_BB 3
M  POLY_CA_BB 4
M  POLY_C_BB 2
M  POLY_O_BB 5
M  POLY_IGNORE 9 10 11 12 13 14 15 16 17 18 
M  POLY_UPPER 6
M  POLY_LOWER 8
M  POLY_CHG 0
M  POLY_PROPERTIES ALPHA_AA D_AA PROTEIN AROMATIC POLYMER 
M  END

$$$$



 32 32  0  0  0  0  0  0  0  0999 V2000
   -0.6480    1.4781   -2.8002 H   0  0  0  1  0  0  0  0  0  0  0  0
    0.5571    3.1999   -2.8348 C   0  0  0  1  0  0  0  0  0  0  0  0
   -1.7104    3.0064   -3.7027 N   0  0  0  1  0  0  0  0  0  0  0  0
   -0.7915    2.5291   -2.6597 C   0  0  0  1  0  0  0  0  0  0  0  0
    0.6854    4.4150   -2.7104 O   0  0  0  1  0  0  0  0  0  0  0  0
    1.5800    2.3838   -3.1299 N   0  0  0  1  0  0  0  0  0  0  0  0
   -2.2251    2.3381   -4.2016 H   0  0  0  1  0  0  0  0  0  0  0  0
   -1.8884    4.2907   -4.0134 C   0  0  0  1  0  0  0  0  0  0  0  0
    2.9327    2.8775   -3.3399 C   0  0  0  1  0  0  0  0  0  0  0  0
   -2.8102    4.6281   -5.1800 C   0  0  0  1  0  0  0  0  0  0  0  0
   -1.3528    5.2224   -3.4144 O   0  0  0  1  0  0  0  0  0  0  0  0
    1.4104    1.4216   -3.2067 H   0  0  0  1  0  0  0  0  0  0  0  0
    3.4100    2.2984   -4.1026 H   0  0  0  1  0  0  0  0  0  0  0  0
    3.4880    2.7940   -2.4290 H   0  0  0  1  0  0  0  0  0  0  0  0
    2.8949    3.9032   -3.6423 H   0  0  0  1  0  0  0  0  0  0  0  0
   -2.2248    4.8064   -6.0578 H   0  0  0  1  0  0  0  0  0  0  0  0
   -3.3763    5.5051   -4.9450 H   0  0  0  1  0  0  0  0  0  0  0  0
   -3.4764    3.8095   -5.3561 H   0  0  0  1  0  0  0  0  0  0  0  0
   -2.8298    8.8015   -0.0145 I   0  0  0  1  0  0  0  0  0  0  0  0
   -2.3639    6.8066   -0.4285 C   0  0  0  1  0  0  0  0  0  0  0  0
   -1.1110    6.3063   -0.1102 C   0  0  0  1  0  0  0  0  0  0  0  0
   -0.8016    4.9885   -0.3890 C   0  0  0  1  0  0  0  0  0  0  0  0
   -1.7462    4.1655   -0.9822 C   0  0  0  1  0  0  0  0  0  0  0  0
   -2.9956    4.6641   -1.2997 C   0  0  0  1  0  0  0  0  0  0  0  0
   -3.3057    5.9859   -1.0199 C   0  0  0  1  0  0  0  0  0  0  0  0
   -1.4108    2.7236   -1.2819 C   0  0  0  1  0  0  0  0  0  0  0  0
   -0.4036    6.9227    0.3385 H   0  0  0  1  0  0  0  0  0  0  0  0
    0.1398    4.6143   -0.1538 H   0  0  0  1  0  0  0  0  0  0  0  0
   -3.7029    4.0477   -1.7484 H   0  0  0  1  0  0  0  0  0  0  0  0
   -4.2471    6.3601   -1.2551 H   0  0  0  1  0  0  0  0  0  0  0  0
   -0.7181    2.3748   -0.5448 H   0  0  0  1  0  0  0  0  0  0  0  0
   -2.3103    2.1465   -1.2282 H   0  0  0  1  0  0  0  0  0  0  0  0
  1  4  1  0  0  0  0
  2  4  1  0  0  0  0
  2  5  2  0  0  0  0
  2  6  1  0  0  0  0
  3  4  1  0  0  0  0
  3  7  1  0  0  0  0
  3  8  1  0  0  0  0
  4 26  1  0  0  0  0
  6  9  1  0  0  0  0
  6 12  1  0  0  0  0
  8 10  1  0  0  0  0
  8 11  2  0  0  0  0
  9 13  1  0  0  0  0
  9 14  1  0  0  0  0
  9 15  1  0  0  0  0
 10 16  1  0  0  0  0
 10 17  1  0  0  0  0
 10 18  1  0  0  0  0
 19 20  1  0  0  0  0
 20 21  4  0  0  0  0
 20 25  4  0  0  0  0
 21 22  4  0  0  0  0
 21 27  1  0  0  0  0
 22 23  4  0  0  0  0
 22 28  1  0  0  0  0
 23 24  4  0  0  0  0
 23 26  1  0  0  0  0
 24 25  4  0  0  0  0
 24 29  1  0  0  0  0
 25 30  1  0  0  0  0
 26 31  1  0  0  0  0
 26 32  1  0  0  0  0
M  END
> <BCLConfClusterSize>
1

> <ConfClashScore>
0 

> <ConfOneFourInteractionScore>
-0.973498 

> <ConfScore>
0.467142 

> <ConfScorePBest>
0.00307755 

> <ConfTolerance>
0.705733 

> <RosettaParamsInstructions>
M  ROOT 3
M  POLY_N_BB 3
M  POLY_CA_BB 4
M  POLY_C_BB 2
M  POLY_O_BB 5
M  POLY_IGNORE 9 10 11 12 13 14 15 16 17 18 
M  POLY_UPPER 6
M  POLY_LOWER 8
M  POLY_CHG 0
M  POLY_PROPERTIES ALPHA_AA D_AA PROTEIN AROMATIC POLYMER 
M  END

$$$$



 32 32  0  0  0  0  0  0  0  0999 V2000
   -0.7542    2.0605    0.5689 H   0  0  0  1  0  0  0  0  0  0  0  0
   -1.1181    0.3686   -0.6296 C   0  0  0  1  0  0  0  0  0  0  0  0
   -2.7967    1.8256    0.5171 N   0  0  0  1  0  0  0  0  0  0  0  0
   -1.4970    1.7643   -0.1421 C   0  0  0  1  0  0  0  0  0  0  0  0
   -1.7358   -0.1784   -1.5422 O   0  0  0  1  0  0  0  0  0  0  0  0
   -0.0809   -0.2070   -0.0012 N   0  0  0  1  0  0  0  0  0  0  0  0
   -3.4034    1.0659    0.3941 H   0  0  0  1  0  0  0  0  0  0  0  0
   -3.2217    2.8379    1.2748 C   0  0  0  1  0  0  0  0  0  0  0  0
    0.3733   -1.5519   -0.3222 C   0  0  0  1  0  0  0  0  0  0  0  0
   -4.5620    2.6347    1.9541 C   0  0  0  1  0  0  0  0  0  0  0  0
   -2.5821    3.8756    1.4245 O   0  0  0  1  0  0  0  0  0  0  0  0
    0.3867    0.2958    0.6980 H   0  0  0  1  0  0  0  0  0  0  0  0
    0.0577   -1.8088   -1.3118 H   0  0  0  1  0  0  0  0  0  0  0  0
   -0.0451   -2.2456    0.3768 H   0  0  0  1  0  0  0  0  0  0  0  0
    1.4412   -1.5899   -0.2674 H   0  0  0  1  0  0  0  0  0  0  0  0
   -5.3145    2.4586    1.2141 H   0  0  0  1  0  0  0  0  0  0  0  0
   -4.8129    3.5098    2.5163 H   0  0  0  1  0  0  0  0  0  0  0  0
   -4.5044    1.7923    2.6113 H   0  0  0  1  0  0  0  0  0  0  0  0
   -2.8222    8.8158   -0.0882 I   0  0  0  1  0  0  0  0  0  0  0  0
   -2.3699    6.7993   -0.3997 C   0  0  0  1  0  0  0  0  0  0  0  0
   -1.1143    6.2995   -0.0909 C   0  0  0  1  0  0  0  0  0  0  0  0
   -0.8005    4.9868   -0.3883 C   0  0  0  1  0  0  0  0  0  0  0  0
   -1.7433    4.1683   -0.9905 C   0  0  0  1  0  0  0  0  0  0  0  0
   -2.9953    4.6664   -1.2985 C   0  0  0  1  0  0  0  0  0  0  0  0
   -3.3098    5.9831   -1.0002 C   0  0  0  1  0  0  0  0  0  0  0  0
   -1.4031    2.7319   -1.3105 C   0  0  0  1  0  0  0  0  0  0  0  0
   -0.4083    6.9125    0.3645 H   0  0  0  1  0  0  0  0  0  0  0  0
    0.1429    4.6131   -0.1602 H   0  0  0  1  0  0  0  0  0  0  0  0
   -3.7012    4.0534   -1.7540 H   0  0  0  1  0  0  0  0  0  0  0  0
   -4.2532    6.3568   -1.2282 H   0  0  0  1  0  0  0  0  0  0  0  0
   -2.0747    2.3955   -2.0724 H   0  0  0  1  0  0  0  0  0  0  0  0
   -0.3998    2.7051   -1.6814 H   0  0  0  1  0  0  0  0  0  0  0  0
  1  4  1  0  0  0  0
  2  4  1  0  0  0  0
  2  5  2  0  0  0  0
  2  6  1  0  0  0  0
  3  4  1  0  0  0  0
  3  7  1  0  0  0  0
  3  8  1  0  0  0  0
  4 26  1  0  0  0  0
  6  9  1  0  0  0  0
  6 12  1  0  0  0  0
  8 10  1  0  0  0  0
  8 11  2  0  0  0  0
  9 13  1  0  0  0  0
  9 14  1  0  0  0  0
  9 15  1  0  0  0  0
 10 16  1  0  0  0  0
 10 17  1  0  0  0  0
 10 18  1  0  0  0  0
 19 20  1  0  0  0  0
 20 21  4  0  0  0  0
 20 25  4  0  0  0  0
 21 22  4  0  0  0  0
 21 27  1  0  0  0  0
 22 23  4  0  0  0  0
 22 28  1  0  0  0  0
 23 24  4  0  0  0  0
 23 26  1  0  0  0  0
 24 25  4  0  0  0  0
 24 29  1  0  0  0  0
 25 30  1  0  0  0  0
 26 31  1  0  0  0  0
 26 32  1  0  0  0  0
M  END
> <BCLConfClusterSize>
1

> <ConfClashScore>
0 

> <ConfOneFourInteractionScore>
-0.979783 

> <ConfScore>
0.467184 

> <ConfScorePBest>
0.00304907 

> <ConfTolerance>
0.709149 

> <RosettaParamsInstructions>
M  ROOT 3
M  POLY_N_BB 3
M  POLY_CA_BB 4
M  POLY_C_BB 2
M  POLY_O_BB 5
M  POLY_IGNORE 9 10 11 12 13 14 15 16 17 18 
M  POLY_UPPER 6
M  POLY_LOWER 8
M  POLY_CHG 0
M  POLY_PROPERTIES ALPHA_AA D_AA PROTEIN AROMATIC POLYMER 
M  END

$$$$



 32 32  0  0  0  0  0  0  0  0999 V2000
   -1.0926    0.9382   -0.1712 H   0  0  0  1  0  0  0  0  0  0  0  0
   -3.1635    0.9956   -0.4779 C   0  0  0  1  0  0  0  0  0  0  0  0
   -1.8671    2.3328    1.1361 N   0  0  0  1  0  0  0  0  0  0  0  0
   -1.8459    1.6977   -0.1952 C   0  0  0  1  0  0  0  0  0  0  0  0
   -3.1764   -0.0302   -1.1391 O   0  0  0  1  0  0  0  0  0  0  0  0
   -4.2570    1.5091    0.1001 N   0  0  0  1  0  0  0  0  0  0  0  0
   -1.6962    3.2954    1.2037 H   0  0  0  1  0  0  0  0  0  0  0  0
   -2.1133    1.6355    2.2623 C   0  0  0  1  0  0  0  0  0  0  0  0
   -5.5882    0.9725   -0.1405 C   0  0  0  1  0  0  0  0  0  0  0  0
   -2.1684    2.4940    3.5110 C   0  0  0  1  0  0  0  0  0  0  0  0
   -2.2818    0.4198    2.3090 O   0  0  0  1  0  0  0  0  0  0  0  0
   -4.1573    2.2728    0.7061 H   0  0  0  1  0  0  0  0  0  0  0  0
   -5.5154    0.0977   -0.7524 H   0  0  0  1  0  0  0  0  0  0  0  0
   -6.1841    1.7079   -0.6394 H   0  0  0  1  0  0  0  0  0  0  0  0
   -6.0437    0.7173    0.7934 H   0  0  0  1  0  0  0  0  0  0  0  0
   -2.2472    1.8656    4.3734 H   0  0  0  1  0  0  0  0  0  0  0  0
   -3.0197    3.1403    3.4618 H   0  0  0  1  0  0  0  0  0  0  0  0
   -1.2770    3.0821    3.5788 H   0  0  0  1  0  0  0  0  0  0  0  0
   -2.8298    8.8015   -0.0145 I   0  0  0  1  0  0  0  0  0  0  0  0
   -2.3639    6.8066   -0.4285 C   0  0  0  1  0  0  0  0  0  0  0  0
   -1.1109    6.3063   -0.1102 C   0  0  0  1  0  0  0  0  0  0  0  0
   -0.8016    4.9885   -0.3890 C   0  0  0  1  0  0  0  0  0  0  0  0
   -1.7462    4.1655   -0.9822 C   0  0  0  1  0  0  0  0  0  0  0  0
   -2.9956    4.6641   -1.2997 C   0  0  0  1  0  0  0  0  0  0  0  0
   -3.3057    5.9859   -1.0199 C   0  0  0  1  0  0  0  0  0  0  0  0
   -1.4108    2.7236   -1.2819 C   0  0  0  1  0  0  0  0  0  0  0  0
   -0.4036    6.9227    0.3385 H   0  0  0  1  0  0  0  0  0  0  0  0
    0.1398    4.6143   -0.1538 H   0  0  0  1  0  0  0  0  0  0  0  0
   -3.7029    4.0477   -1.7484 H   0  0  0  1  0  0  0  0  0  0  0  0
   -4.2471    6.3601   -1.2551 H   0  0  0  1  0  0  0  0  0  0  0  0
   -1.8921    2.4566   -2.1995 H   0  0  0  1  0  0  0  0  0  0  0  0
   -0.3500    2.6492   -1.4002 H   0  0  0  1  0  0  0  0  0  0  0  0
  1  4  1  0  0  0  0
  2  4  1  0  0  0  0
  2  5  2  0  0  0  0
  2  6  1  0  0  0  0
  3  4  1  0  0  0  0
  3  7  1  0  0  0  0
  3  8  1  0  0  0  0
  4 26  1  0  0  0  0
  6  9  1  0  0  0  0
  6 12  1  0  0  0  0
  8 10  1  0  0  0  0
  8 11  2  0  0  0  0
  9 13  1  0  0  0  0
  9 14  1  0  0  0  0
  9 15  1  0  0  0  0
 10 16  1  0  0  0  0
 10 17  1  0  0  0  0
 10 18  1  0  0  0  0
 19 20  1  0  0  0  0
 20 21  4  0  0  0  0
 20 25  4  0  0  0  0
 21 22  4  0  0  0  0
 21 27  1  0  0  0  0
 22 23  4  0  0  0  0
 22 28  1  0  0  0  0
 23 24  4  0  0  0  0
 23 26  1  0  0  0  0
 24 25  4  0  0  0  0
 24 29  1  0  0  0  0
 25 30  1  0  0  0  0
 26 31  1  0  0  0  0
 26 32  1  0  0  0  0
M  END
> <BCLConfClusterSize>
1

> <ConfClashScore>
0 

> <ConfOneFourInteractionScore>
-0.928132 

> <ConfScore>
0.474253 

> <ConfScorePBest>
0.00302059 

> <ConfTolerance>
0.566922 

> <RosettaParamsInstructions>
M  ROOT 3
M  POLY_N_BB 3
M  POLY_CA_BB 4
M  POLY_C_BB 2
M  POLY_O_BB 5
M  POLY_IGNORE 9 10 11 12 13 14 15 16 17 18 
M  POLY_UPPER 6
M  POLY_LOWER 8
M  POLY_CHG 0
M  POLY_PROPERTIES ALPHA_AA D_AA PROTEIN AROMATIC POLYMER 
M  END

$$$$



 32 32  0  0  0  0  0  0  0  0999 V2000
   -1.4162    0.8111   -0.4369 H   0  0  0  1  0  0  0  0  0  0  0  0
   -3.3881    1.5469   -0.3007 C   0  0  0  1  0  0  0  0  0  0  0  0
   -1.4082    2.2677    1.0373 N   0  0  0  1  0  0  0  0  0  0  0  0
   -1.8868    1.7534   -0.2483 C   0  0  0  1  0  0  0  0  0  0  0  0
   -4.1461    2.4945   -0.4309 O   0  0  0  1  0  0  0  0  0  0  0  0
   -3.8543    0.2989   -0.2001 N   0  0  0  1  0  0  0  0  0  0  0  0
   -0.5986    2.8188    1.0727 H   0  0  0  1  0  0  0  0  0  0  0  0
   -2.0797    1.9843    2.1727 C   0  0  0  1  0  0  0  0  0  0  0  0
   -5.2749   -0.0085   -0.2732 C   0  0  0  1  0  0  0  0  0  0  0  0
   -1.7307    2.7661    3.4189 C   0  0  0  1  0  0  0  0  0  0  0  0
   -2.9508    1.1158    2.1959 O   0  0  0  1  0  0  0  0  0  0  0  0
   -3.2175   -0.4351   -0.0727 H   0  0  0  1  0  0  0  0  0  0  0  0
   -5.5270   -0.2968   -1.2723 H   0  0  0  1  0  0  0  0  0  0  0  0
   -5.8414    0.8565    0.0018 H   0  0  0  1  0  0  0  0  0  0  0  0
   -5.5008   -0.8113    0.3972 H   0  0  0  1  0  0  0  0  0  0  0  0
   -2.5739    3.3513    3.7212 H   0  0  0  1  0  0  0  0  0  0  0  0
   -0.9031    3.4126    3.2140 H   0  0  0  1  0  0  0  0  0  0  0  0
   -1.4681    2.0875    4.2035 H   0  0  0  1  0  0  0  0  0  0  0  0
   -2.8222    8.8158   -0.0882 I   0  0  0  1  0  0  0  0  0  0  0  0
   -2.3699    6.7993   -0.3997 C   0  0  0  1  0  0  0  0  0  0  0  0
   -1.1143    6.2995   -0.0909 C   0  0  0  1  0  0  0  0  0  0  0  0
   -0.8005    4.9868   -0.3883 C   0  0  0  1  0  0  0  0  0  0  0  0
   -1.7433    4.1683   -0.9905 C   0  0  0  1  0  0  0  0  0  0  0  0
   -2.9953    4.6664   -1.2985 C   0  0  0  1  0  0  0  0  0  0  0  0
   -3.3098    5.9831   -1.0002 C   0  0  0  1  0  0  0  0  0  0  0  0
   -1.4031    2.7319   -1.3105 C   0  0  0  1  0  0  0  0  0  0  0  0
   -0.4083    6.9125    0.3645 H   0  0  0  1  0  0  0  0  0  0  0  0
    0.1429    4.6131   -0.1602 H   0  0  0  1  0  0  0  0  0  0  0  0
   -3.7012    4.0534   -1.7540 H   0  0  0  1  0  0  0  0  0  0  0  0
   -4.2532    6.3568   -1.2282 H   0  0  0  1  0  0  0  0  0  0  0  0
   -1.8583    2.4739   -2.2438 H   0  0  0  1  0  0  0  0  0  0  0  0
   -0.3401    2.6445   -1.3953 H   0  0  0  1  0  0  0  0  0  0  0  0
  1  4  1  0  0  0  0
  2  4  1  0  0  0  0
  2  5  2  0  0  0  0
  2  6  1  0  0  0  0
  3  4  1  0  0  0  0
  3  7  1  0  0  0  0
  3  8  1  0  0  0  0
  4 26  1  0  0  0  0
  6  9  1  0  0  0  0
  6 12  1  0  0  0  0
  8 10  1  0  0  0  0
  8 11  2  0  0  0  0
  9 13  1  0  0  0  0
  9 14  1  0  0  0  0
  9 15  1  0  0  0  0
 10 16  1  0  0  0  0
 10 17  1  0  0  0  0
 10 18  1  0  0  0  0
 19 20  1  0  0  0  0
 20 21  4  0  0  0  0
 20 25  4  0  0  0  0
 21 22  4  0  0  0  0
 21 27  1  0  0  0  0
 22 23  4  0  0  0  0
 22 28  1  0  0  0  0
 23 24  4  0  0  0  0
 23 26  1  0  0  0  0
 24 25  4  0  0  0  0
 24 29  1  0  0  0  0
 25 30  1  0  0  0  0
 26 31  1  0  0  0  0
 26 32  1  0  0  0  0
M  END
> <BCLConfClusterSize>
1

> <ConfClashScore>
0 

> <ConfOneFourInteractionScore>
-0.962372 

> <ConfScore>
0.475299 

> <ConfScorePBest>
0.00299211 

> <ConfTolerance>
0.534476 

> <RosettaParamsInstructions>
M  ROOT 3
M  POLY_N_BB 3
M  POLY_CA_BB 4
M  POLY_C_BB 2
M  POLY_O_BB 5
M  POLY_IGNORE 9 10 11 12 13 14 15 16 17 18 
M  POLY_UPPER 6
M  POLY_LOWER 8
M  POLY_CHG 0
M  POLY_PROPERTIES ALPHA_AA D_AA PROTEIN AROMATIC POLYMER 
M  END

$$$$



 32 32  0  0  0  0  0  0  0  0999 V2000
   -2.4665    1.9817    0.3831 H   0  0  0  1  0  0  0  0  0  0  0  0
   -0.5076    2.2984    1.0602 C   0  0  0  1  0  0  0  0  0  0  0  0
   -1.2646    0.4611   -0.3386 N   0  0  0  1  0  0  0  0  0  0  0  0
   -1.4792    1.8790   -0.0163 C   0  0  0  1  0  0  0  0  0  0  0  0
   -0.8635    2.4125    2.2323 O   0  0  0  1  0  0  0  0  0  0  0  0
    0.7436    2.5320    0.6539 N   0  0  0  1  0  0  0  0  0  0  0  0
   -1.9527   -0.1902   -0.0880 H   0  0  0  1  0  0  0  0  0  0  0  0
   -0.1660    0.0300   -0.9602 C   0  0  0  1  0  0  0  0  0  0  0  0
    1.7937    2.9492    1.5710 C   0  0  0  1  0  0  0  0  0  0  0  0
   -0.0414   -1.4805   -1.1459 C   0  0  0  1  0  0  0  0  0  0  0  0
    0.6678    0.7987   -1.4350 O   0  0  0  1  0  0  0  0  0  0  0  0
    0.9617    2.4185   -0.2948 H   0  0  0  1  0  0  0  0  0  0  0  0
    2.0795    2.1221    2.1867 H   0  0  0  1  0  0  0  0  0  0  0  0
    1.4324    3.7450    2.1883 H   0  0  0  1  0  0  0  0  0  0  0  0
    2.6413    3.2872    1.0123 H   0  0  0  1  0  0  0  0  0  0  0  0
   -0.8765   -1.8413   -1.7093 H   0  0  0  1  0  0  0  0  0  0  0  0
   -0.0249   -1.9572   -0.1881 H   0  0  0  1  0  0  0  0  0  0  0  0
    0.8646   -1.7016   -1.6705 H   0  0  0  1  0  0  0  0  0  0  0  0
   -2.8298    8.8015   -0.0145 I   0  0  0  1  0  0  0  0  0  0  0  0
   -2.3639    6.8066   -0.4285 C   0  0  0  1  0  0  0  0  0  0  0  0
   -1.1110    6.3063   -0.1102 C   0  0  0  1  0  0  0  0  0  0  0  0
   -0.8016    4.9885   -0.3890 C   0  0  0  1  0  0  0  0  0  0  0  0
   -1.7462    4.1655   -0.9822 C   0  0  0  1  0  0  0  0  0  0  0  0
   -2.9956    4.6641   -1.2997 C   0  0  0  1  0  0  0  0  0  0  0  0
   -3.3057    5.9859   -1.0199 C   0  0  0  1  0  0  0  0  0  0  0  0
   -1.4108    2.7236   -1.2819 C   0  0  0  1  0  0  0  0  0  0  0  0
   -0.4036    6.9227    0.3385 H   0  0  0  1  0  0  0  0  0  0  0  0
    0.1398    4.6143   -0.1538 H   0  0  0  1  0  0  0  0  0  0  0  0
   -3.7029    4.0477   -1.7484 H   0  0  0  1  0  0  0  0  0  0  0  0
   -4.2471    6.3601   -1.2551 H   0  0  0  1  0  0  0  0  0  0  0  0
   -2.1099    2.3420   -1.9965 H   0  0  0  1  0  0  0  0  0  0  0  0
   -0.4216    2.6702   -1.6863 H   0  0  0  1  0  0  0  0  0  0  0  0
  1  4  1  0  0  0  0
  2  4  1  0  0  0  0
  2  5  2  0  0  0  0
  2  6  1  0  0  0  0
  3  4  1  0  0  0  0
  3  7  1  0  0  0  0
  3  8  1  0  0  0  0
  4 26  1  0  0  0  0
  6  9  1  0  0  0  0
  6 12  1  0  0  0  0
  8 10  1  0  0  0  0
  8 11  2  0  0  0  0
  9 13  1  0  0  0  0
  9 14  1  0  0  0  0
  9 15  1  0  0  0  0
 10 16  1  0  0  0  0
 10 17  1  0  0  0  0
 10 18  1  0  0  0  0
 19 20  1  0  0  0  0
 20 21  4  0  0  0  0
 20 25  4  0  0  0  0
 21 22  4  0  0  0  0
 21 27  1  0  0  0  0
 22 23  4  0  0  0  0
 22 28  1  0  0  0  0
 23 24  4  0  0  0  0
 23 26  1  0  0  0  0
 24 25  4  0  0  0  0
 24 29  1  0  0  0  0
 25 30  1  0  0  0  0
 26 31  1  0  0  0  0
 26 32  1  0  0  0  0
M  END
> <BCLConfClusterSize>
1

> <ConfClashScore>
0 

> <ConfOneFourInteractionScore>
-0.927228 

> <ConfScore>
0.480389 

> <ConfScorePBest>
0.00296363 

> <ConfTolerance>
0.582915 

> <RosettaParamsInstructions>
M  ROOT 3
M  POLY_N_BB 3
M  POLY_CA_BB 4
M  POLY_C_BB 2
M  POLY_O_BB 5
M  POLY_IGNORE 9 10 11 12 13 14 15 16 17 18 
M  POLY_UPPER 6
M  POLY_LOWER 8
M  POLY_CHG 0
M  POLY_PROPERTIES ALPHA_AA D_AA PROTEIN AROMATIC POLYMER 
M  END

$$$$



 32 32  0  0  0  0  0  0  0  0999 V2000
   -2.6608    3.1035   -2.9188 H   0  0  0  1  0  0  0  0  0  0  0  0
   -3.0628    1.1233   -2.4165 C   0  0  0  1  0  0  0  0  0  0  0  0
   -1.0856    2.0036   -3.6288 N   0  0  0  1  0  0  0  0  0  0  0  0
   -2.0827    2.2683   -2.5824 C   0  0  0  1  0  0  0  0  0  0  0  0
   -3.3300    0.3797   -3.3596 O   0  0  0  1  0  0  0  0  0  0  0  0
   -3.6286    0.9463   -1.2120 N   0  0  0  1  0  0  0  0  0  0  0  0
   -0.1404    1.9434   -3.3770 H   0  0  0  1  0  0  0  0  0  0  0  0
   -1.4256    1.8410   -4.9223 C   0  0  0  1  0  0  0  0  0  0  0  0
   -4.6375   -0.0740   -0.9694 C   0  0  0  1  0  0  0  0  0  0  0  0
   -0.2398    1.6184   -5.8407 C   0  0  0  1  0  0  0  0  0  0  0  0
   -2.5763    1.8649   -5.3509 O   0  0  0  1  0  0  0  0  0  0  0  0
   -3.3526    1.5244   -0.4704 H   0  0  0  1  0  0  0  0  0  0  0  0
   -4.6090   -0.3670    0.0593 H   0  0  0  1  0  0  0  0  0  0  0  0
   -4.4401   -0.9246   -1.5879 H   0  0  0  1  0  0  0  0  0  0  0  0
   -5.6052    0.3194   -1.2013 H   0  0  0  1  0  0  0  0  0  0  0  0
    0.5202    1.0764   -5.3178 H   0  0  0  1  0  0  0  0  0  0  0  0
    0.1494    2.5640   -6.1557 H   0  0  0  1  0  0  0  0  0  0  0  0
   -0.5524    1.0578   -6.6968 H   0  0  0  1  0  0  0  0  0  0  0  0
   -2.8298    8.8015   -0.0145 I   0  0  0  1  0  0  0  0  0  0  0  0
   -2.3639    6.8066   -0.4285 C   0  0  0  1  0  0  0  0  0  0  0  0
   -1.1110    6.3063   -0.1102 C   0  0  0  1  0  0  0  0  0  0  0  0
   -0.8016    4.9885   -0.3890 C   0  0  0  1  0  0  0  0  0  0  0  0
   -1.7462    4.1655   -0.9822 C   0  0  0  1  0  0  0  0  0  0  0  0
   -2.9956    4.6641   -1.2997 C   0  0  0  1  0  0  0  0  0  0  0  0
   -3.3057    5.9859   -1.0199 C   0  0  0  1  0  0  0  0  0  0  0  0
   -1.4108    2.7236   -1.2819 C   0  0  0  1  0  0  0  0  0  0  0  0
   -0.4036    6.9227    0.3385 H   0  0  0  1  0  0  0  0  0  0  0  0
    0.1398    4.6143   -0.1538 H   0  0  0  1  0  0  0  0  0  0  0  0
   -3.7029    4.0477   -1.7484 H   0  0  0  1  0  0  0  0  0  0  0  0
   -4.2471    6.3601   -1.2551 H   0  0  0  1  0  0  0  0  0  0  0  0
   -0.3502    2.6235   -1.3813 H   0  0  0  1  0  0  0  0  0  0  0  0
   -1.7537    2.1089   -0.4760 H   0  0  0  1  0  0  0  0  0  0  0  0
  1  4  1  0  0  0  0
  2  4  1  0  0  0  0
  2  5  2  0  0  0  0
  2  6  1  0  0  0  0
  3  4  1  0  0  0  0
  3  7  1  0  0  0  0
  3  8  1  0  0  0  0
  4 26  1  0  0  0  0
  6  9  1  0  0  0  0
  6 12  1  0  0  0  0
  8 10  1  0  0  0  0
  8 11  2  0  0  0  0
  9 13  1  0  0  0  0
  9 14  1  0  0  0  0
  9 15  1  0  0  0  0
 10 16  1  0  0  0  0
 10 17  1  0  0  0  0
 10 18  1  0  0  0  0
 19 20  1  0  0  0  0
 20 21  4  0  0  0  0
 20 25  4  0  0  0  0
 21 22  4  0  0  0  0
 21 27  1  0  0  0  0
 22 23  4  0  0  0  0
 22 28  1  0  0  0  0
 23 24  4  0  0  0  0
 23 26  1  0  0  0  0
 24 25  4  0  0  0  0
 24 29  1  0  0  0  0
 25 30  1  0  0  0  0
 26 31  1  0  0  0  0
 26 32  1  0  0  0  0
M  END
> <BCLConfClusterSize>
1

> <ConfClashScore>
0 

> <ConfOneFourInteractionScore>
-0.939929 

> <ConfScore>
0.489173 

> <ConfScorePBest>
0.00293515 

> <ConfTolerance>
0.806976 

> <RosettaParamsInstructions>
M  ROOT 3
M  POLY_N_BB 3
M  POLY_CA_BB 4
M  POLY_C_BB 2
M  POLY_O_BB 5
M  POLY_IGNORE 9 10 11 12 13 14 15 16 17 18 
M  POLY_UPPER 6
M  POLY_LOWER 8
M  POLY_CHG 0
M  POLY_PROPERTIES ALPHA_AA D_AA PROTEIN AROMATIC POLYMER 
M  END

$$$$



 32 32  0  0  0  0  0  0  0  0999 V2000
   -0.9222    1.1698    0.1354 H   0  0  0  1  0  0  0  0  0  0  0  0
   -2.9823    0.9911   -0.2420 C   0  0  0  1  0  0  0  0  0  0  0  0
   -1.8699    2.6670    1.1963 N   0  0  0  1  0  0  0  0  0  0  0  0
   -1.7467    1.8373   -0.0046 C   0  0  0  1  0  0  0  0  0  0  0  0
   -3.1594   -0.0624    0.3639 O   0  0  0  1  0  0  0  0  0  0  0  0
   -3.8517    1.4693   -1.1462 N   0  0  0  1  0  0  0  0  0  0  0  0
   -1.0444    3.0803    1.5252 H   0  0  0  1  0  0  0  0  0  0  0  0
   -2.9811    2.9247    1.8951 C   0  0  0  1  0  0  0  0  0  0  0  0
   -4.9820    0.6582   -1.5733 C   0  0  0  1  0  0  0  0  0  0  0  0
   -2.7903    3.7412    3.1585 C   0  0  0  1  0  0  0  0  0  0  0  0
   -4.0932    2.5333    1.5510 O   0  0  0  1  0  0  0  0  0  0  0  0
   -3.7250    2.3666   -1.5194 H   0  0  0  1  0  0  0  0  0  0  0  0
   -5.1220   -0.1496   -0.8857 H   0  0  0  1  0  0  0  0  0  0  0  0
   -4.7901    0.2656   -2.5500 H   0  0  0  1  0  0  0  0  0  0  0  0
   -5.8649    1.2621   -1.5983 H   0  0  0  1  0  0  0  0  0  0  0  0
   -2.4869    4.7341    2.8996 H   0  0  0  1  0  0  0  0  0  0  0  0
   -2.0373    3.2856    3.7670 H   0  0  0  1  0  0  0  0  0  0  0  0
   -3.7122    3.7801    3.7003 H   0  0  0  1  0  0  0  0  0  0  0  0
   -2.8362    8.7954    0.0062 I   0  0  0  1  0  0  0  0  0  0  0  0
   -2.3653    6.8053   -0.4251 C   0  0  0  1  0  0  0  0  0  0  0  0
   -1.1103    6.3060   -0.1131 C   0  0  0  1  0  0  0  0  0  0  0  0
   -0.7976    4.9915   -0.4034 C   0  0  0  1  0  0  0  0  0  0  0  0
   -1.7409    4.1707   -1.0018 C   0  0  0  1  0  0  0  0  0  0  0  0
   -2.9922    4.6683   -1.3131 C   0  0  0  1  0  0  0  0  0  0  0  0
   -3.3057    5.9869   -1.0218 C   0  0  0  1  0  0  0  0  0  0  0  0
   -1.4244    2.7102   -1.2211 C   0  0  0  1  0  0  0  0  0  0  0  0
   -0.4040    6.9207    0.3396 H   0  0  0  1  0  0  0  0  0  0  0  0
    0.1453    4.6181   -0.1728 H   0  0  0  1  0  0  0  0  0  0  0  0
   -3.6985    4.0536   -1.7658 H   0  0  0  1  0  0  0  0  0  0  0  0
   -4.2486    6.3603   -1.2524 H   0  0  0  1  0  0  0  0  0  0  0  0
   -1.9972    2.3588   -2.0537 H   0  0  0  1  0  0  0  0  0  0  0  0
   -0.3812    2.6170   -1.4404 H   0  0  0  1  0  0  0  0  0  0  0  0
  1  4  1  0  0  0  0
  2  4  1  0  0  0  0
  2  5  2  0  0  0  0
  2  6  1  0  0  0  0
  3  4  1  0  0  0  0
  3  7  1  0  0  0  0
  3  8  1  0  0  0  0
  4 26  1  0  0  0  0
  6  9  1  0  0  0  0
  6 12  1  0  0  0  0
  8 10  1  0  0  0  0
  8 11  2  0  0  0  0
  9 13  1  0  0  0  0
  9 14  1  0  0  0  0
  9 15  1  0  0  0  0
 10 16  1  0  0  0  0
 10 17  1  0  0  0  0
 10 18  1  0  0  0  0
 19 20  1  0  0  0  0
 20 21  4  0  0  0  0
 20 25  4  0  0  0  0
 21 22  4  0  0  0  0
 21 27  1  0  0  0  0
 22 23  4  0  0  0  0
 22 28  1  0  0  0  0
 23 24  4  0  0  0  0
 23 26  1  0  0  0  0
 24 25  4  0  0  0  0
 24 29  1  0  0  0  0
 25 30  1  0  0  0  0
 26 31  1  0  0  0  0
 26 32  1  0  0  0  0
M  END
> <BCLConfClusterSize>
1

> <ConfClashScore>
0 

> <ConfOneFourInteractionScore>
-0.90437 

> <ConfScore>
0.4935 

> <ConfScorePBest>
0.00290666 

> <ConfTolerance>
0.324746 

> <RosettaParamsInstructions>
M  ROOT 3
M  POLY_N_BB 3
M  POLY_CA_BB 4
M  POLY_C_BB 2
M  POLY_O_BB 5
M  POLY_IGNORE 9 10 11 12 13 14 15 16 17 18 
M  POLY_UPPER 6
M  POLY_LOWER 8
M  POLY_CHG 0
M  POLY_PROPERTIES ALPHA_AA D_AA PROTEIN AROMATIC POLYMER 
M  END

$$$$



 32 32  0  0  0  0  0  0  0  0999 V2000
   -0.9473    1.0494   -0.0937 H   0  0  0  1  0  0  0  0  0  0  0  0
   -3.0328    1.0156   -0.2619 C   0  0  0  1  0  0  0  0  0  0  0  0
   -1.6894    2.5059    1.1647 N   0  0  0  1  0  0  0  0  0  0  0  0
   -1.7302    1.7783   -0.1180 C   0  0  0  1  0  0  0  0  0  0  0  0
   -3.1833   -0.0002    0.4157 O   0  0  0  1  0  0  0  0  0  0  0  0
   -3.9444    1.4832   -1.1119 N   0  0  0  1  0  0  0  0  0  0  0  0
   -1.6170    3.4831    1.1521 H   0  0  0  1  0  0  0  0  0  0  0  0
   -1.7484    1.8727    2.3546 C   0  0  0  1  0  0  0  0  0  0  0  0
   -5.1752    0.7867   -1.4552 C   0  0  0  1  0  0  0  0  0  0  0  0
   -1.5784    2.7020    3.6126 C   0  0  0  1  0  0  0  0  0  0  0  0
   -1.9343    0.6604    2.4197 O   0  0  0  1  0  0  0  0  0  0  0  0
   -3.7759    2.3517   -1.5334 H   0  0  0  1  0  0  0  0  0  0  0  0
   -5.5236    0.2373   -0.6056 H   0  0  0  1  0  0  0  0  0  0  0  0
   -4.9890    0.1116   -2.2642 H   0  0  0  1  0  0  0  0  0  0  0  0
   -5.9180    1.4990   -1.7481 H   0  0  0  1  0  0  0  0  0  0  0  0
   -2.5324    2.8516    4.0734 H   0  0  0  1  0  0  0  0  0  0  0  0
   -1.1522    3.6502    3.3595 H   0  0  0  1  0  0  0  0  0  0  0  0
   -0.9306    2.1893    4.2926 H   0  0  0  1  0  0  0  0  0  0  0  0
   -2.8298    8.8015   -0.0145 I   0  0  0  1  0  0  0  0  0  0  0  0
   -2.3639    6.8066   -0.4285 C   0  0  0  1  0  0  0  0  0  0  0  0
   -1.1110    6.3063   -0.1102 C   0  0  0  1  0  0  0  0  0  0  0  0
   -0.8016    4.9885   -0.3890 C   0  0  0  1  0  0  0  0  0  0  0  0
   -1.7462    4.1655   -0.9822 C   0  0  0  1  0  0  0  0  0  0  0  0
   -2.9956    4.6641   -1.2997 C   0  0  0  1  0  0  0  0  0  0  0  0
   -3.3057    5.9859   -1.0199 C   0  0  0  1  0  0  0  0  0  0  0  0
   -1.4108    2.7236   -1.2819 C   0  0  0  1  0  0  0  0  0  0  0  0
   -0.4036    6.9227    0.3385 H   0  0  0  1  0  0  0  0  0  0  0  0
    0.1398    4.6143   -0.1538 H   0  0  0  1  0  0  0  0  0  0  0  0
   -3.7029    4.0477   -1.7484 H   0  0  0  1  0  0  0  0  0  0  0  0
   -4.2471    6.3601   -1.2551 H   0  0  0  1  0  0  0  0  0  0  0  0
   -1.9744    2.4135   -2.1370 H   0  0  0  1  0  0  0  0  0  0  0  0
   -0.3654    2.6552   -1.4992 H   0  0  0  1  0  0  0  0  0  0  0  0
  1  4  1  0  0  0  0
  2  4  1  0  0  0  0
  2  5  2  0  0  0  0
  2  6  1  0  0  0  0
  3  4  1  0  0  0  0
  3  7  1  0  0  0  0
  3  8  1  0  0  0  0
  4 26  1  0  0  0  0
  6  9  1  0  0  0  0
  6 12  1  0  0  0  0
  8 10  1  0  0  0  0
  8 11  2  0  0  0  0
  9 13  1  0  0  0  0
  9 14  1  0  0  0  0
  9 15  1  0  0  0  0
 10 16  1  0  0  0  0
 10 17  1  0  0  0  0
 10 18  1  0  0  0  0
 19 20  1  0  0  0  0
 20 21  4  0  0  0  0
 20 25  4  0  0  0  0
 21 22  4  0  0  0  0
 21 27  1  0  0  0  0
 22 23  4  0  0  0  0
 22 28  1  0  0  0  0
 23 24  4  0  0  0  0
 23 26  1  0  0  0  0
 24 25  4  0  0  0  0
 24 29  1  0  0  0  0
 25 30  1  0  0  0  0
 26 31  1  0  0  0  0
 26 32  1  0  0  0  0
M  END
> <BCLConfClusterSize>
1

> <ConfClashScore>
0.000799311 

> <ConfOneFourInteractionScore>
-0.92929 

> <ConfScore>
0.494553 

> <ConfScorePBest>
0.00287818 

> <ConfTolerance>
0.588109 

> <RosettaParamsInstructions>
M  ROOT 3
M  POLY_N_BB 3
M  POLY_CA_BB 4
M  POLY_C_BB 2
M  POLY_O_BB 5
M  POLY_IGNORE 9 10 11 12 13 14 15 16 17 18 
M  POLY_UPPER 6
M  POLY_LOWER 8
M  POLY_CHG 0
M  POLY_PROPERTIES ALPHA_AA D_AA PROTEIN AROMATIC POLYMER 
M  END

$$$$



 32 32  0  0  0  0  0  0  0  0999 V2000
   -3.4784    2.3343   -1.4367 H   0  0  0  1  0  0  0  0  0  0  0  0
   -2.8069    1.3323    0.2927 C   0  0  0  1  0  0  0  0  0  0  0  0
   -2.3913    0.6996   -2.0772 N   0  0  0  1  0  0  0  0  0  0  0  0
   -2.6063    1.7908   -1.1386 C   0  0  0  1  0  0  0  0  0  0  0  0
   -3.0700    0.1619    0.5561 O   0  0  0  1  0  0  0  0  0  0  0  0
   -2.6783    2.2819    1.2327 N   0  0  0  1  0  0  0  0  0  0  0  0
   -2.7397    0.7846   -2.9892 H   0  0  0  1  0  0  0  0  0  0  0  0
   -1.7292   -0.4252   -1.7354 C   0  0  0  1  0  0  0  0  0  0  0  0
   -2.7628    2.0512    2.6671 C   0  0  0  1  0  0  0  0  0  0  0  0
   -1.7079   -1.5699   -2.7295 C   0  0  0  1  0  0  0  0  0  0  0  0
   -1.1586   -0.5216   -0.6496 O   0  0  0  1  0  0  0  0  0  0  0  0
   -2.5152    3.1997    0.9303 H   0  0  0  1  0  0  0  0  0  0  0  0
   -3.3210    1.1575    2.8529 H   0  0  0  1  0  0  0  0  0  0  0  0
   -3.2524    2.8806    3.1333 H   0  0  0  1  0  0  0  0  0  0  0  0
   -1.7771    1.9459    3.0699 H   0  0  0  1  0  0  0  0  0  0  0  0
   -2.5407   -2.2166   -2.5474 H   0  0  0  1  0  0  0  0  0  0  0  0
   -0.7976   -2.1212   -2.6188 H   0  0  0  1  0  0  0  0  0  0  0  0
   -1.7704   -1.1796   -3.7238 H   0  0  0  1  0  0  0  0  0  0  0  0
   -2.8298    8.8015   -0.0145 I   0  0  0  1  0  0  0  0  0  0  0  0
   -2.3639    6.8066   -0.4285 C   0  0  0  1  0  0  0  0  0  0  0  0
   -1.1110    6.3063   -0.1102 C   0  0  0  1  0  0  0  0  0  0  0  0
   -0.8016    4.9885   -0.3890 C   0  0  0  1  0  0  0  0  0  0  0  0
   -1.7462    4.1655   -0.9822 C   0  0  0  1  0  0  0  0  0  0  0  0
   -2.9956    4.6641   -1.2997 C   0  0  0  1  0  0  0  0  0  0  0  0
   -3.3057    5.9859   -1.0199 C   0  0  0  1  0  0  0  0  0  0  0  0
   -1.4108    2.7236   -1.2819 C   0  0  0  1  0  0  0  0  0  0  0  0
   -0.4036    6.9227    0.3385 H   0  0  0  1  0  0  0  0  0  0  0  0
    0.1398    4.6143   -0.1538 H   0  0  0  1  0  0  0  0  0  0  0  0
   -3.7029    4.0477   -1.7484 H   0  0  0  1  0  0  0  0  0  0  0  0
   -4.2471    6.3601   -1.2551 H   0  0  0  1  0  0  0  0  0  0  0  0
   -1.0477    2.6601   -2.2864 H   0  0  0  1  0  0  0  0  0  0  0  0
   -0.6464    2.4039   -0.6049 H   0  0  0  1  0  0  0  0  0  0  0  0
  1  4  1  0  0  0  0
  2  4  1  0  0  0  0
  2  5  2  0  0  0  0
  2  6  1  0  0  0  0
  3  4  1  0  0  0  0
  3  7  1  0  0  0  0
  3  8  1  0  0  0  0
  4 26  1  0  0  0  0
  6  9  1  0  0  0  0
  6 12  1  0  0  0  0
  8 10  1  0  0  0  0
  8 11  2  0  0  0  0
  9 13  1  0  0  0  0
  9 14  1  0  0  0  0
  9 15  1  0  0  0  0
 10 16  1  0  0  0  0
 10 17  1  0  0  0  0
 10 18  1  0  0  0  0
 19 20  1  0  0  0  0
 20 21  4  0  0  0  0
 20 25  4  0  0  0  0
 21 22  4  0  0  0  0
 21 27  1  0  0  0  0
 22 23  4  0  0  0  0
 22 28  1  0  0  0  0
 23 24  4  0  0  0  0
 23 26  1  0  0  0  0
 24 25  4  0  0  0  0
 24 29  1  0  0  0  0
 25 30  1  0  0  0  0
 26 31  1  0  0  0  0
 26 32  1  0  0  0  0
M  END
> <BCLConfClusterSize>
1

> <ConfClashScore>
0 

> <ConfOneFourInteractionScore>
-0.945765 

> <ConfScore>
0.497892 

> <ConfScorePBest>
0.0028497 

> <ConfTolerance>
0.759292 

> <RosettaParamsInstructions>
M  ROOT 3
M  POLY_N_BB 3
M  POLY_CA_BB 4
M  POLY_C_BB 2
M  POLY_O_BB 5
M  POLY_IGNORE 9 10 11 12 13 14 15 16 17 18 
M  POLY_UPPER 6
M  POLY_LOWER 8
M  POLY_CHG 0
M  POLY_PROPERTIES ALPHA_AA D_AA PROTEIN AROMATIC POLYMER 
M  END

$$$$



 32 32  0  0  0  0  0  0  0  0999 V2000
   -0.5207    1.5826   -2.8352 H   0  0  0  1  0  0  0  0  0  0  0  0
   -0.3003    3.6262   -3.3381 C   0  0  0  1  0  0  0  0  0  0  0  0
   -2.3594    2.2762   -3.4884 N   0  0  0  1  0  0  0  0  0  0  0  0
   -1.1098    2.4729   -2.7625 C   0  0  0  1  0  0  0  0  0  0  0  0
    0.2815    4.4530   -2.6614 O   0  0  0  1  0  0  0  0  0  0  0  0
   -0.2519    3.6977   -4.6713 N   0  0  0  1  0  0  0  0  0  0  0  0
   -3.1773    2.6912   -3.1432 H   0  0  0  1  0  0  0  0  0  0  0  0
   -2.4285    1.5427   -4.6187 C   0  0  0  1  0  0  0  0  0  0  0  0
    0.5447    4.6967   -5.3679 C   0  0  0  1  0  0  0  0  0  0  0  0
   -3.7746    1.3997   -5.2921 C   0  0  0  1  0  0  0  0  0  0  0  0
   -1.4273    1.0051   -5.0895 O   0  0  0  1  0  0  0  0  0  0  0  0
   -0.7709    3.0550   -5.1985 H   0  0  0  1  0  0  0  0  0  0  0  0
    0.2114    5.6753   -5.0917 H   0  0  0  1  0  0  0  0  0  0  0  0
    0.4341    4.5675   -6.4243 H   0  0  0  1  0  0  0  0  0  0  0  0
    1.5741    4.5820   -5.0998 H   0  0  0  1  0  0  0  0  0  0  0  0
   -4.3690    2.2661   -5.0898 H   0  0  0  1  0  0  0  0  0  0  0  0
   -4.2715    0.5305   -4.9145 H   0  0  0  1  0  0  0  0  0  0  0  0
   -3.6360    1.3012   -6.3485 H   0  0  0  1  0  0  0  0  0  0  0  0
   -2.8298    8.8015   -0.0145 I   0  0  0  1  0  0  0  0  0  0  0  0
   -2.3639    6.8066   -0.4285 C   0  0  0  1  0  0  0  0  0  0  0  0
   -1.1110    6.3063   -0.1102 C   0  0  0  1  0  0  0  0  0  0  0  0
   -0.8016    4.9885   -0.3890 C   0  0  0  1  0  0  0  0  0  0  0  0
   -1.7462    4.1655   -0.9822 C   0  0  0  1  0  0  0  0  0  0  0  0
   -2.9956    4.6641   -1.2997 C   0  0  0  1  0  0  0  0  0  0  0  0
   -3.3057    5.9859   -1.0199 C   0  0  0  1  0  0  0  0  0  0  0  0
   -1.4108    2.7236   -1.2819 C   0  0  0  1  0  0  0  0  0  0  0  0
   -0.4036    6.9227    0.3385 H   0  0  0  1  0  0  0  0  0  0  0  0
    0.1398    4.6143   -0.1538 H   0  0  0  1  0  0  0  0  0  0  0  0
   -3.7029    4.0477   -1.7484 H   0  0  0  1  0  0  0  0  0  0  0  0
   -4.2471    6.3601   -1.2551 H   0  0  0  1  0  0  0  0  0  0  0  0
   -0.5510    2.4476   -0.7080 H   0  0  0  1  0  0  0  0  0  0  0  0
   -2.2422    2.1139   -0.9954 H   0  0  0  1  0  0  0  0  0  0  0  0
  1  4  1  0  0  0  0
  2  4  1  0  0  0  0
  2  5  2  0  0  0  0
  2  6  1  0  0  0  0
  3  4  1  0  0  0  0
  3  7  1  0  0  0  0
  3  8  1  0  0  0  0
  4 26  1  0  0  0  0
  6  9  1  0  0  0  0
  6 12  1  0  0  0  0
  8 10  1  0  0  0  0
  8 11  2  0  0  0  0
  9 13  1  0  0  0  0
  9 14  1  0  0  0  0
  9 15  1  0  0  0  0
 10 16  1  0  0  0  0
 10 17  1  0  0  0  0
 10 18  1  0  0  0  0
 19 20  1  0  0  0  0
 20 21  4  0  0  0  0
 20 25  4  0  0  0  0
 21 22  4  0  0  0  0
 21 27  1  0  0  0  0
 22 23  4  0  0  0  0
 22 28  1  0  0  0  0
 23 24  4  0  0  0  0
 23 26  1  0  0  0  0
 24 25  4  0  0  0  0
 24 29  1  0  0  0  0
 25 30  1  0  0  0  0
 26 31  1  0  0  0  0
 26 32  1  0  0  0  0
M  END
> <BCLConfClusterSize>
1

> <ConfClashScore>
0 

> <ConfOneFourInteractionScore>
-0.941987 

> <ConfScore>
0.499198 

> <ConfScorePBest>
0.00282122 

> <ConfTolerance>
0.770891 

> <RosettaParamsInstructions>
M  ROOT 3
M  POLY_N_BB 3
M  POLY_CA_BB 4
M  POLY_C_BB 2
M  POLY_O_BB 5
M  POLY_IGNORE 9 10 11 12 13 14 15 16 17 18 
M  POLY_UPPER 6
M  POLY_LOWER 8
M  POLY_CHG 0
M  POLY_PROPERTIES ALPHA_AA D_AA PROTEIN AROMATIC POLYMER 
M  END

$$$$



 32 32  0  0  0  0  0  0  0  0999 V2000
   -3.1089    2.0199   -2.2203 H   0  0  0  1  0  0  0  0  0  0  0  0
   -1.5616    0.6878   -2.7368 C   0  0  0  1  0  0  0  0  0  0  0  0
   -1.9103    2.9738   -3.6126 N   0  0  0  1  0  0  0  0  0  0  0  0
   -2.0671    2.0892   -2.4542 C   0  0  0  1  0  0  0  0  0  0  0  0
   -1.1276   -0.0208   -1.8435 O   0  0  0  1  0  0  0  0  0  0  0  0
   -1.6253    0.2939   -4.0118 N   0  0  0  1  0  0  0  0  0  0  0  0
   -2.7052    3.4071   -3.9878 H   0  0  0  1  0  0  0  0  0  0  0  0
   -0.7097    3.2121   -4.1802 C   0  0  0  1  0  0  0  0  0  0  0  0
   -1.2573   -1.0507   -4.4294 C   0  0  0  1  0  0  0  0  0  0  0  0
   -0.6656    4.0997   -5.4088 C   0  0  0  1  0  0  0  0  0  0  0  0
    0.3187    2.7257   -3.7173 O   0  0  0  1  0  0  0  0  0  0  0  0
   -1.9305    0.9327   -4.6895 H   0  0  0  1  0  0  0  0  0  0  0  0
   -0.6482   -1.5046   -3.6759 H   0  0  0  1  0  0  0  0  0  0  0  0
   -0.7106   -1.0016   -5.3479 H   0  0  0  1  0  0  0  0  0  0  0  0
   -2.1426   -1.6346   -4.5716 H   0  0  0  1  0  0  0  0  0  0  0  0
   -1.2122    3.6368   -6.2036 H   0  0  0  1  0  0  0  0  0  0  0  0
    0.3513    4.2406   -5.7104 H   0  0  0  1  0  0  0  0  0  0  0  0
   -1.1048    5.0480   -5.1793 H   0  0  0  1  0  0  0  0  0  0  0  0
   -2.8245    8.8022   -0.0124 I   0  0  0  1  0  0  0  0  0  0  0  0
   -2.3645    6.8064   -0.4288 C   0  0  0  1  0  0  0  0  0  0  0  0
   -1.1127    6.3023   -0.1120 C   0  0  0  1  0  0  0  0  0  0  0  0
   -0.8072    4.9839   -0.3924 C   0  0  0  1  0  0  0  0  0  0  0  0
   -1.7547    4.1642   -0.9857 C   0  0  0  1  0  0  0  0  0  0  0  0
   -3.0029    4.6666   -1.3016 C   0  0  0  1  0  0  0  0  0  0  0  0
   -3.3091    5.9890   -1.0203 C   0  0  0  1  0  0  0  0  0  0  0  0
   -1.3707    2.7303   -1.2650 C   0  0  0  1  0  0  0  0  0  0  0  0
   -0.4033    6.9163    0.3368 H   0  0  0  1  0  0  0  0  0  0  0  0
    0.1333    4.6069   -0.1584 H   0  0  0  1  0  0  0  0  0  0  0  0
   -3.7123    4.0526   -1.7504 H   0  0  0  1  0  0  0  0  0  0  0  0
   -4.2497    6.3660   -1.2543 H   0  0  0  1  0  0  0  0  0  0  0  0
   -0.3162    2.6999   -1.4442 H   0  0  0  1  0  0  0  0  0  0  0  0
   -1.6020    2.1513   -0.3954 H   0  0  0  1  0  0  0  0  0  0  0  0
  1  4  1  0  0  0  0
  2  4  1  0  0  0  0
  2  5  2  0  0  0  0
  2  6  1  0  0  0  0
  3  4  1  0  0  0  0
  3  7  1  0  0  0  0
  3  8  1  0  0  0  0
  4 26  1  0  0  0  0
  6  9  1  0  0  0  0
  6 12  1  0  0  0  0
  8 10  1  0  0  0  0
  8 11  2  0  0  0  0
  9 13  1  0  0  0  0
  9 14  1  0  0  0  0
  9 15  1  0  0  0  0
 10 16  1  0  0  0  0
 10 17  1  0  0  0  0
 10 18  1  0  0  0  0
 19 20  1  0  0  0  0
 20 21  4  0  0  0  0
 20 25  4  0  0  0  0
 21 22  4  0  0  0  0
 21 27  1  0  0  0  0
 22 23  4  0  0  0  0
 22 28  1  0  0  0  0
 23 24  4  0  0  0  0
 23 26  1  0  0  0  0
 24 25  4  0  0  0  0
 24 29  1  0  0  0  0
 25 30  1  0  0  0  0
 26 31  1  0  0  0  0
 26 32  1  0  0  0  0
M  END
> <BCLConfClusterSize>
1

> <ConfClashScore>
0 

> <ConfOneFourInteractionScore>
-0.94953 

> <ConfScore>
0.505045 

> <ConfScorePBest>
0.00279274 

> <ConfTolerance>
0.784238 

> <RosettaParamsInstructions>
M  ROOT 3
M  POLY_N_BB 3
M  POLY_CA_BB 4
M  POLY_C_BB 2
M  POLY_O_BB 5
M  POLY_IGNORE 9 10 11 12 13 14 15 16 17 18 
M  POLY_UPPER 6
M  POLY_LOWER 8
M  POLY_CHG 0
M  POLY_PROPERTIES ALPHA_AA D_AA PROTEIN AROMATIC POLYMER 
M  END

$$$$



 32 32  0  0  0  0  0  0  0  0999 V2000
    0.6585    3.0228   -0.9525 H   0  0  0  1  0  0  0  0  0  0  0  0
    0.3937    0.9480   -1.2083 C   0  0  0  1  0  0  0  0  0  0  0  0
   -0.2038    2.2909    0.7815 N   0  0  0  1  0  0  0  0  0  0  0  0
   -0.0729    2.2914   -0.6786 C   0  0  0  1  0  0  0  0  0  0  0  0
    0.9852    0.8003   -2.2610 O   0  0  0  1  0  0  0  0  0  0  0  0
    0.1177   -0.1103   -0.4408 N   0  0  0  1  0  0  0  0  0  0  0  0
   -0.9325    1.7925    1.2070 H   0  0  0  1  0  0  0  0  0  0  0  0
    0.6720    2.9714    1.5367 C   0  0  0  1  0  0  0  0  0  0  0  0
    0.3959   -1.4736   -0.8673 C   0  0  0  1  0  0  0  0  0  0  0  0
    0.4167    2.9844    3.0492 C   0  0  0  1  0  0  0  0  0  0  0  0
    1.6839    3.5016    1.0815 O   0  0  0  1  0  0  0  0  0  0  0  0
   -0.2862    0.0367    0.4399 H   0  0  0  1  0  0  0  0  0  0  0  0
    1.3375   -1.7877   -0.4677 H   0  0  0  1  0  0  0  0  0  0  0  0
    0.4315   -1.5125   -1.9360 H   0  0  0  1  0  0  0  0  0  0  0  0
   -0.3766   -2.1229   -0.5118 H   0  0  0  1  0  0  0  0  0  0  0  0
    1.3504    3.0421    3.5685 H   0  0  0  1  0  0  0  0  0  0  0  0
   -0.0937    2.0876    3.3322 H   0  0  0  1  0  0  0  0  0  0  0  0
   -0.1847    3.8326    3.3018 H   0  0  0  1  0  0  0  0  0  0  0  0
   -2.7800    8.8079    0.0058 I   0  0  0  1  0  0  0  0  0  0  0  0
   -2.3756    6.8050   -0.4333 C   0  0  0  1  0  0  0  0  0  0  0  0
   -1.1209    6.3106   -0.1126 C   0  0  0  1  0  0  0  0  0  0  0  0
   -0.8055    4.9936   -0.3890 C   0  0  0  1  0  0  0  0  0  0  0  0
   -1.7459    4.1657   -0.9820 C   0  0  0  1  0  0  0  0  0  0  0  0
   -2.9970    4.6584   -1.3019 C   0  0  0  1  0  0  0  0  0  0  0  0
   -3.3131    5.9793   -1.0246 C   0  0  0  1  0  0  0  0  0  0  0  0
   -1.4039    2.7247   -1.2790 C   0  0  0  1  0  0  0  0  0  0  0  0
   -0.4168    6.9307    0.3360 H   0  0  0  1  0  0  0  0  0  0  0  0
    0.1372    4.6239   -0.1520 H   0  0  0  1  0  0  0  0  0  0  0  0
   -3.7011    4.0382   -1.7505 H   0  0  0  1  0  0  0  0  0  0  0  0
   -4.2558    6.3491   -1.2616 H   0  0  0  1  0  0  0  0  0  0  0  0
   -2.1767    2.1019   -0.8792 H   0  0  0  1  0  0  0  0  0  0  0  0
   -1.3562    2.5978   -2.3404 H   0  0  0  1  0  0  0  0  0  0  0  0
  1  4  1  0  0  0  0
  2  4  1  0  0  0  0
  2  5  2  0  0  0  0
  2  6  1  0  0  0  0
  3  4  1  0  0  0  0
  3  7  1  0  0  0  0
  3  8  1  0  0  0  0
  4 26  1  0  0  0  0
  6  9  1  0  0  0  0
  6 12  1  0  0  0  0
  8 10  1  0  0  0  0
  8 11  2  0  0  0  0
  9 13  1  0  0  0  0
  9 14  1  0  0  0  0
  9 15  1  0  0  0  0
 10 16  1  0  0  0  0
 10 17  1  0  0  0  0
 10 18  1  0  0  0  0
 19 20  1  0  0  0  0
 20 21  4  0  0  0  0
 20 25  4  0  0  0  0
 21 22  4  0  0  0  0
 21 27  1  0  0  0  0
 22 23  4  0  0  0  0
 22 28  1  0  0  0  0
 23 24  4  0  0  0  0
 23 26  1  0  0  0  0
 24 25  4  0  0  0  0
 24 29  1  0  0  0  0
 25 30  1  0  0  0  0
 26 31  1  0  0  0  0
 26 32  1  0  0  0  0
M  END
> <BCLConfClusterSize>
1

> <ConfClashScore>
0 

> <ConfOneFourInteractionScore>
-0.949001 

> <ConfScore>
0.512345 

> <ConfScorePBest>
0.00276426 

> <ConfTolerance>
0.887668 

> <RosettaParamsInstructions>
M  ROOT 3
M  POLY_N_BB 3
M  POLY_CA_BB 4
M  POLY_C_BB 2
M  POLY_O_BB 5
M  POLY_IGNORE 9 10 11 12 13 14 15 16 17 18 
M  POLY_UPPER 6
M  POLY_LOWER 8
M  POLY_CHG 0
M  POLY_PROPERTIES ALPHA_AA D_AA PROTEIN AROMATIC POLYMER 
M  END

$$$$



 32 32  0  0  0  0  0  0  0  0999 V2000
   -0.7318    3.3058   -3.1801 H   0  0  0  1  0  0  0  0  0  0  0  0
   -2.4416    2.1063   -3.4476 C   0  0  0  1  0  0  0  0  0  0  0  0
   -0.1207    1.3664   -2.8893 N   0  0  0  1  0  0  0  0  0  0  0  0
   -1.1225    2.4115   -2.7412 C   0  0  0  1  0  0  0  0  0  0  0  0
   -3.5166    2.4839   -2.9835 O   0  0  0  1  0  0  0  0  0  0  0  0
   -2.3434    1.4089   -4.5904 N   0  0  0  1  0  0  0  0  0  0  0  0
    0.7081    1.5705   -3.3707 H   0  0  0  1  0  0  0  0  0  0  0  0
   -0.2916    0.1383   -2.3916 C   0  0  0  1  0  0  0  0  0  0  0  0
   -3.5368    1.1054   -5.3660 C   0  0  0  1  0  0  0  0  0  0  0  0
    0.8935   -0.8016   -2.4982 C   0  0  0  1  0  0  0  0  0  0  0  0
   -1.3167   -0.1980   -1.8047 O   0  0  0  1  0  0  0  0  0  0  0  0
   -1.4663    1.1036   -4.9031 H   0  0  0  1  0  0  0  0  0  0  0  0
   -4.2512    1.8928   -5.2452 H   0  0  0  1  0  0  0  0  0  0  0  0
   -3.9601    0.1844   -5.0231 H   0  0  0  1  0  0  0  0  0  0  0  0
   -3.2766    1.0158   -6.4000 H   0  0  0  1  0  0  0  0  0  0  0  0
    1.3591   -0.6822   -3.4542 H   0  0  0  1  0  0  0  0  0  0  0  0
    0.5581   -1.8118   -2.3888 H   0  0  0  1  0  0  0  0  0  0  0  0
    1.5994   -0.5741   -1.7270 H   0  0  0  1  0  0  0  0  0  0  0  0
   -2.8298    8.8015   -0.0145 I   0  0  0  1  0  0  0  0  0  0  0  0
   -2.3639    6.8066   -0.4285 C   0  0  0  1  0  0  0  0  0  0  0  0
   -1.1109    6.3063   -0.1102 C   0  0  0  1  0  0  0  0  0  0  0  0
   -0.8016    4.9885   -0.3890 C   0  0  0  1  0  0  0  0  0  0  0  0
   -1.7462    4.1655   -0.9822 C   0  0  0  1  0  0  0  0  0  0  0  0
   -2.9956    4.6641   -1.2997 C   0  0  0  1  0  0  0  0  0  0  0  0
   -3.3057    5.9859   -1.0199 C   0  0  0  1  0  0  0  0  0  0  0  0
   -1.4108    2.7236   -1.2819 C   0  0  0  1  0  0  0  0  0  0  0  0
   -0.4036    6.9227    0.3385 H   0  0  0  1  0  0  0  0  0  0  0  0
    0.1398    4.6143   -0.1538 H   0  0  0  1  0  0  0  0  0  0  0  0
   -3.7029    4.0477   -1.7484 H   0  0  0  1  0  0  0  0  0  0  0  0
   -4.2471    6.3601   -1.2551 H   0  0  0  1  0  0  0  0  0  0  0  0
   -0.5451    2.4605   -0.7108 H   0  0  0  1  0  0  0  0  0  0  0  0
   -2.2392    2.1209   -0.9729 H   0  0  0  1  0  0  0  0  0  0  0  0
  1  4  1  0  0  0  0
  2  4  1  0  0  0  0
  2  5  2  0  0  0  0
  2  6  1  0  0  0  0
  3  4  1  0  0  0  0
  3  7  1  0  0  0  0
  3  8  1  0  0  0  0
  4 26  1  0  0  0  0
  6  9  1  0  0  0  0
  6 12  1  0  0  0  0
  8 10  1  0  0  0  0
  8 11  2  0  0  0  0
  9 13  1  0  0  0  0
  9 14  1  0  0  0  0
  9 15  1  0  0  0  0
 10 16  1  0  0  0  0
 10 17  1  0  0  0  0
 10 18  1  0  0  0  0
 19 20  1  0  0  0  0
 20 21  4  0  0  0  0
 20 25  4  0  0  0  0
 21 22  4  0  0  0  0
 21 27  1  0  0  0  0
 22 23  4  0  0  0  0
 22 28  1  0  0  0  0
 23 24  4  0  0  0  0
 23 26  1  0  0  0  0
 24 25  4  0  0  0  0
 24 29  1  0  0  0  0
 25 30  1  0  0  0  0
 26 31  1  0  0  0  0
 26 32  1  0  0  0  0
M  END
> <BCLConfClusterSize>
1

> <ConfClashScore>
0 

> <ConfOneFourInteractionScore>
-0.949291 

> <ConfScore>
0.530617 

> <ConfScorePBest>
0.00273578 

> <ConfTolerance>
0.674319 

> <RosettaParamsInstructions>
M  ROOT 3
M  POLY_N_BB 3
M  POLY_CA_BB 4
M  POLY_C_BB 2
M  POLY_O_BB 5
M  POLY_IGNORE 9 10 11 12 13 14 15 16 17 18 
M  POLY_UPPER 6
M  POLY_LOWER 8
M  POLY_CHG 0
M  POLY_PROPERTIES ALPHA_AA D_AA PROTEIN AROMATIC POLYMER 
M  END

$$$$



 32 32  0  0  0  0  0  0  0  0999 V2000
   -1.1066    3.0565   -3.2831 H   0  0  0  1  0  0  0  0  0  0  0  0
   -2.8506    1.9344   -3.1371 C   0  0  0  1  0  0  0  0  0  0  0  0
   -0.5284    1.1415   -2.8397 N   0  0  0  1  0  0  0  0  0  0  0  0
   -1.4580    2.2405   -2.6868 C   0  0  0  1  0  0  0  0  0  0  0  0
   -3.6944    1.7460   -2.3690 O   0  0  0  1  0  0  0  0  0  0  0  0
   -3.0881    1.8858   -4.4424 N   0  0  0  1  0  0  0  0  0  0  0  0
   -0.0146    0.8695   -2.0508 H   0  0  0  1  0  0  0  0  0  0  0  0
   -0.3182    0.4699   -3.9754 C   0  0  0  1  0  0  0  0  0  0  0  0
   -4.4021    1.4966   -4.9321 C   0  0  0  1  0  0  0  0  0  0  0  0
    0.7586   -0.5962   -3.9206 C   0  0  0  1  0  0  0  0  0  0  0  0
   -0.9470    0.6882   -5.0076 O   0  0  0  1  0  0  0  0  0  0  0  0
   -2.3770    2.1124   -5.0775 H   0  0  0  1  0  0  0  0  0  0  0  0
   -5.0236    2.3637   -5.0149 H   0  0  0  1  0  0  0  0  0  0  0  0
   -4.8463    0.8037   -4.2485 H   0  0  0  1  0  0  0  0  0  0  0  0
   -4.3025    1.0364   -5.8929 H   0  0  0  1  0  0  0  0  0  0  0  0
    0.7553   -1.1545   -4.8334 H   0  0  0  1  0  0  0  0  0  0  0  0
    0.5667   -1.2547   -3.0994 H   0  0  0  1  0  0  0  0  0  0  0  0
    1.7137   -0.1318   -3.7903 H   0  0  0  1  0  0  0  0  0  0  0  0
   -2.8362    8.7954    0.0062 I   0  0  0  1  0  0  0  0  0  0  0  0
   -2.3653    6.8053   -0.4251 C   0  0  0  1  0  0  0  0  0  0  0  0
   -1.1103    6.3060   -0.1131 C   0  0  0  1  0  0  0  0  0  0  0  0
   -0.7976    4.9915   -0.4034 C   0  0  0  1  0  0  0  0  0  0  0  0
   -1.7409    4.1707   -1.0018 C   0  0  0  1  0  0  0  0  0  0  0  0
   -2.9922    4.6683   -1.3131 C   0  0  0  1  0  0  0  0  0  0  0  0
   -3.3057    5.9869   -1.0218 C   0  0  0  1  0  0  0  0  0  0  0  0
   -1.4244    2.7102   -1.2211 C   0  0  0  1  0  0  0  0  0  0  0  0
   -0.4040    6.9207    0.3396 H   0  0  0  1  0  0  0  0  0  0  0  0
    0.1453    4.6181   -0.1728 H   0  0  0  1  0  0  0  0  0  0  0  0
   -3.6985    4.0536   -1.7658 H   0  0  0  1  0  0  0  0  0  0  0  0
   -4.2486    6.3603   -1.2524 H   0  0  0  1  0  0  0  0  0  0  0  0
   -0.4431    2.5238   -0.8372 H   0  0  0  1  0  0  0  0  0  0  0  0
   -2.1383    2.1318   -0.6727 H   0  0  0  1  0  0  0  0  0  0  0  0
  1  4  1  0  0  0  0
  2  4  1  0  0  0  0
  2  5  2  0  0  0  0
  2  6  1  0  0  0  0
  3  4  1  0  0  0  0
  3  7  1  0  0  0  0
  3  8  1  0  0  0  0
  4 26  1  0  0  0  0
  6  9  1  0  0  0  0
  6 12  1  0  0  0  0
  8 10  1  0  0  0  0
  8 11  2  0  0  0  0
  9 13  1  0  0  0  0
  9 14  1  0  0  0  0
  9 15  1  0  0  0  0
 10 16  1  0  0  0  0
 10 17  1  0  0  0  0
 10 18  1  0  0  0  0
 19 20  1  0  0  0  0
 20 21  4  0  0  0  0
 20 25  4  0  0  0  0
 21 22  4  0  0  0  0
 21 27  1  0  0  0  0
 22 23  4  0  0  0  0
 22 28  1  0  0  0  0
 23 24  4  0  0  0  0
 23 26  1  0  0  0  0
 24 25  4  0  0  0  0
 24 29  1  0  0  0  0
 25 30  1  0  0  0  0
 26 31  1  0  0  0  0
 26 32  1  0  0  0  0
M  END
> <BCLConfClusterSize>
1

> <ConfClashScore>
0 

> <ConfOneFourInteractionScore>
-0.963774 

> <ConfScore>
0.533957 

> <ConfScorePBest>
0.0027073 

> <ConfTolerance>
0.903667 

> <RosettaParamsInstructions>
M  ROOT 3
M  POLY_N_BB 3
M  POLY_CA_BB 4
M  POLY_C_BB 2
M  POLY_O_BB 5
M  POLY_IGNORE 9 10 11 12 13 14 15 16 17 18 
M  POLY_UPPER 6
M  POLY_LOWER 8
M  POLY_CHG 0
M  POLY_PROPERTIES ALPHA_AA D_AA PROTEIN AROMATIC POLYMER 
M  END

$$$$



 32 32  0  0  0  0  0  0  0  0999 V2000
    0.7340    2.9300   -1.3511 H   0  0  0  1  0  0  0  0  0  0  0  0
    0.2919    0.8753   -1.1535 C   0  0  0  1  0  0  0  0  0  0  0  0
    0.1742    2.5856    0.6084 N   0  0  0  1  0  0  0  0  0  0  0  0
    0.0284    2.3298   -0.8156 C   0  0  0  1  0  0  0  0  0  0  0  0
   -0.1488   -0.0319   -0.4526 O   0  0  0  1  0  0  0  0  0  0  0  0
    1.0283    0.6565   -2.2544 N   0  0  0  1  0  0  0  0  0  0  0  0
    0.8436    3.2282    0.9237 H   0  0  0  1  0  0  0  0  0  0  0  0
   -0.6100    1.9402    1.4965 C   0  0  0  1  0  0  0  0  0  0  0  0
    1.3291   -0.6839   -2.7348 C   0  0  0  1  0  0  0  0  0  0  0  0
   -0.4656    2.2936    2.9639 C   0  0  0  1  0  0  0  0  0  0  0  0
   -1.4179    1.0910    1.1297 O   0  0  0  1  0  0  0  0  0  0  0  0
    1.3754    1.4262   -2.7519 H   0  0  0  1  0  0  0  0  0  0  0  0
    1.3057   -1.3708   -1.9148 H   0  0  0  1  0  0  0  0  0  0  0  0
    2.3021   -0.6930   -3.1798 H   0  0  0  1  0  0  0  0  0  0  0  0
    0.6005   -0.9733   -3.4631 H   0  0  0  1  0  0  0  0  0  0  0  0
    0.5293    2.0708    3.2887 H   0  0  0  1  0  0  0  0  0  0  0  0
   -1.1644    1.7225    3.5386 H   0  0  0  1  0  0  0  0  0  0  0  0
   -0.6596    3.3371    3.1000 H   0  0  0  1  0  0  0  0  0  0  0  0
   -2.8245    8.8022   -0.0124 I   0  0  0  1  0  0  0  0  0  0  0  0
   -2.3645    6.8064   -0.4288 C   0  0  0  1  0  0  0  0  0  0  0  0
   -1.1127    6.3023   -0.1120 C   0  0  0  1  0  0  0  0  0  0  0  0
   -0.8072    4.9839   -0.3924 C   0  0  0  1  0  0  0  0  0  0  0  0
   -1.7547    4.1642   -0.9857 C   0  0  0  1  0  0  0  0  0  0  0  0
   -3.0029    4.6666   -1.3016 C   0  0  0  1  0  0  0  0  0  0  0  0
   -3.3091    5.9890   -1.0203 C   0  0  0  1  0  0  0  0  0  0  0  0
   -1.3707    2.7303   -1.2650 C   0  0  0  1  0  0  0  0  0  0  0  0
   -0.4033    6.9163    0.3368 H   0  0  0  1  0  0  0  0  0  0  0  0
    0.1333    4.6069   -0.1584 H   0  0  0  1  0  0  0  0  0  0  0  0
   -3.7123    4.0526   -1.7504 H   0  0  0  1  0  0  0  0  0  0  0  0
   -4.2497    6.3660   -1.2543 H   0  0  0  1  0  0  0  0  0  0  0  0
   -2.0724    2.0971   -0.7636 H   0  0  0  1  0  0  0  0  0  0  0  0
   -1.4365    2.5707   -2.3209 H   0  0  0  1  0  0  0  0  0  0  0  0
  1  4  1  0  0  0  0
  2  4  1  0  0  0  0
  2  5  2  0  0  0  0
  2  6  1  0  0  0  0
  3  4  1  0  0  0  0
  3  7  1  0  0  0  0
  3  8  1  0  0  0  0
  4 26  1  0  0  0  0
  6  9  1  0  0  0  0
  6 12  1  0  0  0  0
  8 10  1  0  0  0  0
  8 11  2  0  0  0  0
  9 13  1  0  0  0  0
  9 14  1  0  0  0  0
  9 15  1  0  0  0  0
 10 16  1  0  0  0  0
 10 17  1  0  0  0  0
 10 18  1  0  0  0  0
 19 20  1  0  0  0  0
 20 21  4  0  0  0  0
 20 25  4  0  0  0  0
 21 22  4  0  0  0  0
 21 27  1  0  0  0  0
 22 23  4  0  0  0  0
 22 28  1  0  0  0  0
 23 24  4  0  0  0  0
 23 26  1  0  0  0  0
 24 25  4  0  0  0  0
 24 29  1  0  0  0  0
 25 30  1  0  0  0  0
 26 31  1  0  0  0  0
 26 32  1  0  0  0  0
M  END
> <BCLConfClusterSize>
1

> <ConfClashScore>
0 

> <ConfOneFourInteractionScore>
-0.972882 

> <ConfScore>
0.534503 

> <ConfScorePBest>
0.00267882 

> <ConfTolerance>
0.993154 

> <RosettaParamsInstructions>
M  ROOT 3
M  POLY_N_BB 3
M  POLY_CA_BB 4
M  POLY_C_BB 2
M  POLY_O_BB 5
M  POLY_IGNORE 9 10 11 12 13 14 15 16 17 18 
M  POLY_UPPER 6
M  POLY_LOWER 8
M  POLY_CHG 0
M  POLY_PROPERTIES ALPHA_AA D_AA PROTEIN AROMATIC POLYMER 
M  END

$$$$



 32 32  0  0  0  0  0  0  0  0999 V2000
    0.6027    3.3307   -1.1719 H   0  0  0  1  0  0  0  0  0  0  0  0
    0.2655    2.5412   -3.0930 C   0  0  0  1  0  0  0  0  0  0  0  0
    0.5074    1.2885   -0.9357 N   0  0  0  1  0  0  0  0  0  0  0  0
    0.0647    2.5060   -1.5905 C   0  0  0  1  0  0  0  0  0  0  0  0
   -0.1361    3.4876   -3.7688 O   0  0  0  1  0  0  0  0  0  0  0  0
    0.9013    1.4843   -3.6211 N   0  0  0  1  0  0  0  0  0  0  0  0
   -0.0865    0.5127   -0.8596 H   0  0  0  1  0  0  0  0  0  0  0  0
    1.7476    1.2556   -0.4399 C   0  0  0  1  0  0  0  0  0  0  0  0
    1.1196    1.3441   -5.0531 C   0  0  0  1  0  0  0  0  0  0  0  0
    2.1297   -0.0144    0.2950 C   0  0  0  1  0  0  0  0  0  0  0  0
    2.5426    2.1866   -0.5617 O   0  0  0  1  0  0  0  0  0  0  0  0
    1.2302    0.7822   -3.0216 H   0  0  0  1  0  0  0  0  0  0  0  0
    0.2536    0.9077   -5.5053 H   0  0  0  1  0  0  0  0  0  0  0  0
    1.9671    0.7139   -5.2244 H   0  0  0  1  0  0  0  0  0  0  0  0
    1.2985    2.3078   -5.4823 H   0  0  0  1  0  0  0  0  0  0  0  0
    1.2700   -0.4113    0.7932 H   0  0  0  1  0  0  0  0  0  0  0  0
    2.8894    0.2056    1.0157 H   0  0  0  1  0  0  0  0  0  0  0  0
    2.4995   -0.7339   -0.4053 H   0  0  0  1  0  0  0  0  0  0  0  0
   -2.8298    8.8015   -0.0145 I   0  0  0  1  0  0  0  0  0  0  0  0
   -2.3639    6.8066   -0.4285 C   0  0  0  1  0  0  0  0  0  0  0  0
   -1.1110    6.3063   -0.1102 C   0  0  0  1  0  0  0  0  0  0  0  0
   -0.8016    4.9885   -0.3890 C   0  0  0  1  0  0  0  0  0  0  0  0
   -1.7462    4.1655   -0.9822 C   0  0  0  1  0  0  0  0  0  0  0  0
   -2.9956    4.6641   -1.2997 C   0  0  0  1  0  0  0  0  0  0  0  0
   -3.3057    5.9859   -1.0199 C   0  0  0  1  0  0  0  0  0  0  0  0
   -1.4108    2.7236   -1.2819 C   0  0  0  1  0  0  0  0  0  0  0  0
   -0.4036    6.9227    0.3385 H   0  0  0  1  0  0  0  0  0  0  0  0
    0.1398    4.6143   -0.1538 H   0  0  0  1  0  0  0  0  0  0  0  0
   -3.7029    4.0477   -1.7484 H   0  0  0  1  0  0  0  0  0  0  0  0
   -4.2471    6.3601   -1.2551 H   0  0  0  1  0  0  0  0  0  0  0  0
   -1.6721    2.1293   -0.4314 H   0  0  0  1  0  0  0  0  0  0  0  0
   -1.9857    2.4089   -2.1277 H   0  0  0  1  0  0  0  0  0  0  0  0
  1  4  1  0  0  0  0
  2  4  1  0  0  0  0
  2  5  2  0  0  0  0
  2  6  1  0  0  0  0
  3  4  1  0  0  0  0
  3  7  1  0  0  0  0
  3  8  1  0  0  0  0
  4 26  1  0  0  0  0
  6  9  1  0  0  0  0
  6 12  1  0  0  0  0
  8 10  1  0  0  0  0
  8 11  2  0  0  0  0
  9 13  1  0  0  0  0
  9 14  1  0  0  0  0
  9 15  1  0  0  0  0
 10 16  1  0  0  0  0
 10 17  1  0  0  0  0
 10 18  1  0  0  0  0
 19 20  1  0  0  0  0
 20 21  4  0  0  0  0
 20 25  4  0  0  0  0
 21 22  4  0  0  0  0
 21 27  1  0  0  0  0
 22 23  4  0  0  0  0
 22 28  1  0  0  0  0
 23 24  4  0  0  0  0
 23 26  1  0  0  0  0
 24 25  4  0  0  0  0
 24 29  1  0  0  0  0
 25 30  1  0  0  0  0
 26 31  1  0  0  0  0
 26 32  1  0  0  0  0
M  END
> <BCLConfClusterSize>
1

> <ConfClashScore>
0 

> <ConfOneFourInteractionScore>
-0.941392 

> <ConfScore>
0.537554 

> <ConfScorePBest>
0.00265034 

> <ConfTolerance>
1.1093 

> <RosettaParamsInstructions>
M  ROOT 3
M  POLY_N_BB 3
M  POLY_CA_BB 4
M  POLY_C_BB 2
M  POLY_O_BB 5
M  POLY_IGNORE 9 10 11 12 13 14 15 16 17 18 
M  POLY_UPPER 6
M  POLY_LOWER 8
M  POLY_CHG 0
M  POLY_PROPERTIES ALPHA_AA D_AA PROTEIN AROMATIC POLYMER 
M  END

$$$$



 32 32  0  0  0  0  0  0  0  0999 V2000
   -2.2946    2.6279   -3.1131 H   0  0  0  1  0  0  0  0  0  0  0  0
   -1.5842    0.6868   -2.7521 C   0  0  0  1  0  0  0  0  0  0  0  0
   -0.2509    2.7145   -3.3392 N   0  0  0  1  0  0  0  0  0  0  0  0
   -1.4348    2.1988   -2.6425 C   0  0  0  1  0  0  0  0  0  0  0  0
   -1.0792   -0.0668   -1.9356 O   0  0  0  1  0  0  0  0  0  0  0  0
   -2.3080    0.2918   -3.8105 N   0  0  0  1  0  0  0  0  0  0  0  0
    0.5050    3.0423   -2.8084 H   0  0  0  1  0  0  0  0  0  0  0  0
   -0.1643    2.7542   -4.7225 C   0  0  0  1  0  0  0  0  0  0  0  0
   -2.4472   -1.1095   -4.1778 C   0  0  0  1  0  0  0  0  0  0  0  0
    0.9958    3.4646   -5.3617 C   0  0  0  1  0  0  0  0  0  0  0  0
   -1.0352    2.2097   -5.3763 O   0  0  0  1  0  0  0  0  0  0  0  0
   -2.7587    0.9705   -4.3551 H   0  0  0  1  0  0  0  0  0  0  0  0
   -2.7655   -1.6723   -3.3253 H   0  0  0  1  0  0  0  0  0  0  0  0
   -1.5049   -1.4834   -4.5202 H   0  0  0  1  0  0  0  0  0  0  0  0
   -3.1734   -1.2030   -4.9581 H   0  0  0  1  0  0  0  0  0  0  0  0
    1.8622    3.3628   -4.7421 H   0  0  0  1  0  0  0  0  0  0  0  0
    0.7594    4.5018   -5.4761 H   0  0  0  1  0  0  0  0  0  0  0  0
    1.1917    3.0349   -6.3218 H   0  0  0  1  0  0  0  0  0  0  0  0
   -2.8362    8.7954    0.0062 I   0  0  0  1  0  0  0  0  0  0  0  0
   -2.3653    6.8053   -0.4251 C   0  0  0  1  0  0  0  0  0  0  0  0
   -1.1103    6.3060   -0.1131 C   0  0  0  1  0  0  0  0  0  0  0  0
   -0.7976    4.9915   -0.4034 C   0  0  0  1  0  0  0  0  0  0  0  0
   -1.7409    4.1707   -1.0018 C   0  0  0  1  0  0  0  0  0  0  0  0
   -2.9922    4.6683   -1.3131 C   0  0  0  1  0  0  0  0  0  0  0  0
   -3.3057    5.9869   -1.0218 C   0  0  0  1  0  0  0  0  0  0  0  0
   -1.4244    2.7102   -1.2211 C   0  0  0  1  0  0  0  0  0  0  0  0
   -0.4040    6.9207    0.3396 H   0  0  0  1  0  0  0  0  0  0  0  0
    0.1453    4.6181   -0.1728 H   0  0  0  1  0  0  0  0  0  0  0  0
   -3.6985    4.0536   -1.7658 H   0  0  0  1  0  0  0  0  0  0  0  0
   -4.2486    6.3603   -1.2524 H   0  0  0  1  0  0  0  0  0  0  0  0
   -0.4472    2.5312   -0.8236 H   0  0  0  1  0  0  0  0  0  0  0  0
   -2.1437    2.1406   -0.6706 H   0  0  0  1  0  0  0  0  0  0  0  0
  1  4  1  0  0  0  0
  2  4  1  0  0  0  0
  2  5  2  0  0  0  0
  2  6  1  0  0  0  0
  3  4  1  0  0  0  0
  3  7  1  0  0  0  0
  3  8  1  0  0  0  0
  4 26  1  0  0  0  0
  6  9  1  0  0  0  0
  6 12  1  0  0  0  0
  8 10  1  0  0  0  0
  8 11  2  0  0  0  0
  9 13  1  0  0  0  0
  9 14  1  0  0  0  0
  9 15  1  0  0  0  0
 10 16  1  0  0  0  0
 10 17  1  0  0  0  0
 10 18  1  0  0  0  0
 19 20  1  0  0  0  0
 20 21  4  0  0  0  0
 20 25  4  0  0  0  0
 21 22  4  0  0  0  0
 21 27  1  0  0  0  0
 22 23  4  0  0  0  0
 22 28  1  0  0  0  0
 23 24  4  0  0  0  0
 23 26  1  0  0  0  0
 24 25  4  0  0  0  0
 24 29  1  0  0  0  0
 25 30  1  0  0  0  0
 26 31  1  0  0  0  0
 26 32  1  0  0  0  0
M  END
> <BCLConfClusterSize>
1

> <ConfClashScore>
0 

> <ConfOneFourInteractionScore>
-0.971454 

> <ConfScore>
0.544713 

> <ConfScorePBest>
0.00262186 

> <ConfTolerance>
0.986593 

> <RosettaParamsInstructions>
M  ROOT 3
M  POLY_N_BB 3
M  POLY_CA_BB 4
M  POLY_C_BB 2
M  POLY_O_BB 5
M  POLY_IGNORE 9 10 11 12 13 14 15 16 17 18 
M  POLY_UPPER 6
M  POLY_LOWER 8
M  POLY_CHG 0
M  POLY_PROPERTIES ALPHA_AA D_AA PROTEIN AROMATIC POLYMER 
M  END

$$$$



 32 32  0  0  0  0  0  0  0  0999 V2000
   -2.5384    1.1874   -0.4318 H   0  0  0  1  0  0  0  0  0  0  0  0
   -2.0120    2.3939    1.1808 C   0  0  0  1  0  0  0  0  0  0  0  0
   -0.5751    0.7707   -0.0253 N   0  0  0  1  0  0  0  0  0  0  0  0
   -1.6700    1.7432   -0.1455 C   0  0  0  1  0  0  0  0  0  0  0  0
   -1.3321    2.1995    2.1756 O   0  0  0  1  0  0  0  0  0  0  0  0
   -3.0918    3.1807    1.1799 N   0  0  0  1  0  0  0  0  0  0  0  0
    0.1166    0.7492   -0.7192 H   0  0  0  1  0  0  0  0  0  0  0  0
   -0.4898   -0.0853    0.9969 C   0  0  0  1  0  0  0  0  0  0  0  0
   -3.4881    3.9581    2.3446 C   0  0  0  1  0  0  0  0  0  0  0  0
    0.7387   -0.9739    1.0112 C   0  0  0  1  0  0  0  0  0  0  0  0
   -1.3421   -0.1618    1.8779 O   0  0  0  1  0  0  0  0  0  0  0  0
   -3.6358    3.2363    0.3667 H   0  0  0  1  0  0  0  0  0  0  0  0
   -3.1570    3.4634    3.2338 H   0  0  0  1  0  0  0  0  0  0  0  0
   -4.5538    4.0519    2.3647 H   0  0  0  1  0  0  0  0  0  0  0  0
   -3.0448    4.9305    2.2918 H   0  0  0  1  0  0  0  0  0  0  0  0
    0.4787   -1.9367    1.3990 H   0  0  0  1  0  0  0  0  0  0  0  0
    1.4912   -0.5317    1.6303 H   0  0  0  1  0  0  0  0  0  0  0  0
    1.1132   -1.0803    0.0146 H   0  0  0  1  0  0  0  0  0  0  0  0
   -2.8298    8.8015   -0.0145 I   0  0  0  1  0  0  0  0  0  0  0  0
   -2.3639    6.8066   -0.4285 C   0  0  0  1  0  0  0  0  0  0  0  0
   -1.1110    6.3063   -0.1102 C   0  0  0  1  0  0  0  0  0  0  0  0
   -0.8016    4.9885   -0.3890 C   0  0  0  1  0  0  0  0  0  0  0  0
   -1.7462    4.1655   -0.9822 C   0  0  0  1  0  0  0  0  0  0  0  0
   -2.9956    4.6641   -1.2997 C   0  0  0  1  0  0  0  0  0  0  0  0
   -3.3057    5.9859   -1.0199 C   0  0  0  1  0  0  0  0  0  0  0  0
   -1.4108    2.7236   -1.2819 C   0  0  0  1  0  0  0  0  0  0  0  0
   -0.4036    6.9227    0.3385 H   0  0  0  1  0  0  0  0  0  0  0  0
    0.1398    4.6143   -0.1538 H   0  0  0  1  0  0  0  0  0  0  0  0
   -3.7029    4.0477   -1.7484 H   0  0  0  1  0  0  0  0  0  0  0  0
   -4.2471    6.3601   -1.2551 H   0  0  0  1  0  0  0  0  0  0  0  0
   -1.9966    2.4164   -2.1229 H   0  0  0  1  0  0  0  0  0  0  0  0
   -0.3718    2.6715   -1.5322 H   0  0  0  1  0  0  0  0  0  0  0  0
  1  4  1  0  0  0  0
  2  4  1  0  0  0  0
  2  5  2  0  0  0  0
  2  6  1  0  0  0  0
  3  4  1  0  0  0  0
  3  7  1  0  0  0  0
  3  8  1  0  0  0  0
  4 26  1  0  0  0  0
  6  9  1  0  0  0  0
  6 12  1  0  0  0  0
  8 10  1  0  0  0  0
  8 11  2  0  0  0  0
  9 13  1  0  0  0  0
  9 14  1  0  0  0  0
  9 15  1  0  0  0  0
 10 16  1  0  0  0  0
 10 17  1  0  0  0  0
 10 18  1  0  0  0  0
 19 20  1  0  0  0  0
 20 21  4  0  0  0  0
 20 25  4  0  0  0  0
 21 22  4  0  0  0  0
 21 27  1  0  0  0  0
 22 23  4  0  0  0  0
 22 28  1  0  0  0  0
 23 24  4  0  0  0  0
 23 26  1  0  0  0  0
 24 25  4  0  0  0  0
 24 29  1  0  0  0  0
 25 30  1  0  0  0  0
 26 31  1  0  0  0  0
 26 32  1  0  0  0  0
M  END
> <BCLConfClusterSize>
1

> <ConfClashScore>
0 

> <ConfOneFourInteractionScore>
-0.967834 

> <ConfScore>
0.547026 

> <ConfScorePBest>
0.00259338 

> <ConfTolerance>
0.854736 

> <RosettaParamsInstructions>
M  ROOT 3
M  POLY_N_BB 3
M  POLY_CA_BB 4
M  POLY_C_BB 2
M  POLY_O_BB 5
M  POLY_IGNORE 9 10 11 12 13 14 15 16 17 18 
M  POLY_UPPER 6
M  POLY_LOWER 8
M  POLY_CHG 0
M  POLY_PROPERTIES ALPHA_AA D_AA PROTEIN AROMATIC POLYMER 
M  END

$$$$



 32 32  0  0  0  0  0  0  0  0999 V2000
   -3.1529    1.7246   -0.6597 H   0  0  0  1  0  0  0  0  0  0  0  0
   -2.0743    2.1755    1.0867 C   0  0  0  1  0  0  0  0  0  0  0  0
   -1.5873    0.3938   -0.5457 N   0  0  0  1  0  0  0  0  0  0  0  0
   -2.1249    1.7338   -0.3630 C   0  0  0  1  0  0  0  0  0  0  0  0
   -2.2537    3.3510    1.4025 O   0  0  0  1  0  0  0  0  0  0  0  0
   -1.8240    1.2079    1.9828 N   0  0  0  1  0  0  0  0  0  0  0  0
   -2.2098   -0.3522   -0.6737 H   0  0  0  1  0  0  0  0  0  0  0  0
   -0.2745    0.1452   -0.5449 C   0  0  0  1  0  0  0  0  0  0  0  0
   -1.7647    1.4694    3.4132 C   0  0  0  1  0  0  0  0  0  0  0  0
    0.1321   -1.2495   -0.9790 C   0  0  0  1  0  0  0  0  0  0  0  0
    0.5655    0.9819   -0.2161 O   0  0  0  1  0  0  0  0  0  0  0  0
   -1.6761    0.2935    1.6627 H   0  0  0  1  0  0  0  0  0  0  0  0
   -0.7481    1.6316    3.7048 H   0  0  0  1  0  0  0  0  0  0  0  0
   -2.1586    0.6291    3.9458 H   0  0  0  1  0  0  0  0  0  0  0  0
   -2.3440    2.3399    3.6406 H   0  0  0  1  0  0  0  0  0  0  0  0
    1.1993   -1.3129   -1.0234 H   0  0  0  1  0  0  0  0  0  0  0  0
   -0.2777   -1.4555   -1.9457 H   0  0  0  1  0  0  0  0  0  0  0  0
   -0.2384   -1.9644   -0.2743 H   0  0  0  1  0  0  0  0  0  0  0  0
   -2.7308    8.8123    0.0254 I   0  0  0  1  0  0  0  0  0  0  0  0
   -2.3871    6.8035   -0.4380 C   0  0  0  1  0  0  0  0  0  0  0  0
   -1.1307    6.3149   -0.1150 C   0  0  0  1  0  0  0  0  0  0  0  0
   -0.8095    4.9988   -0.3889 C   0  0  0  1  0  0  0  0  0  0  0  0
   -1.7456    4.1660   -0.9818 C   0  0  0  1  0  0  0  0  0  0  0  0
   -2.9983    4.6530   -1.3040 C   0  0  0  1  0  0  0  0  0  0  0  0
   -3.3204    5.9730   -1.0292 C   0  0  0  1  0  0  0  0  0  0  0  0
   -1.3972    2.7260   -1.2761 C   0  0  0  1  0  0  0  0  0  0  0  0
   -0.4298    6.9386    0.3335 H   0  0  0  1  0  0  0  0  0  0  0  0
    0.1345    4.6334   -0.1502 H   0  0  0  1  0  0  0  0  0  0  0  0
   -3.6993    4.0291   -1.7525 H   0  0  0  1  0  0  0  0  0  0  0  0
   -4.2643    6.3384   -1.2679 H   0  0  0  1  0  0  0  0  0  0  0  0
   -1.6615    2.5122   -2.2906 H   0  0  0  1  0  0  0  0  0  0  0  0
   -0.3428    2.5975   -1.1470 H   0  0  0  1  0  0  0  0  0  0  0  0
  1  4  1  0  0  0  0
  2  4  1  0  0  0  0
  2  5  2  0  0  0  0
  2  6  1  0  0  0  0
  3  4  1  0  0  0  0
  3  7  1  0  0  0  0
  3  8  1  0  0  0  0
  4 26  1  0  0  0  0
  6  9  1  0  0  0  0
  6 12  1  0  0  0  0
  8 10  1  0  0  0  0
  8 11  2  0  0  0  0
  9 13  1  0  0  0  0
  9 14  1  0  0  0  0
  9 15  1  0  0  0  0
 10 16  1  0  0  0  0
 10 17  1  0  0  0  0
 10 18  1  0  0  0  0
 19 20  1  0  0  0  0
 20 21  4  0  0  0  0
 20 25  4  0  0  0  0
 21 22  4  0  0  0  0
 21 27  1  0  0  0  0
 22 23  4  0  0  0  0
 22 28  1  0  0  0  0
 23 24  4  0  0  0  0
 23 26  1  0  0  0  0
 24 25  4  0  0  0  0
 24 29  1  0  0  0  0
 25 30  1  0  0  0  0
 26 31  1  0  0  0  0
 26 32  1  0  0  0  0
M  END
> <BCLConfClusterSize>
1

> <ConfClashScore>
0 

> <ConfOneFourInteractionScore>
-0.95733 

> <ConfScore>
0.553278 

> <ConfScorePBest>
0.0025649 

> <ConfTolerance>
0.794899 

> <RosettaParamsInstructions>
M  ROOT 3
M  POLY_N_BB 3
M  POLY_CA_BB 4
M  POLY_C_BB 2
M  POLY_O_BB 5
M  POLY_IGNORE 9 10 11 12 13 14 15 16 17 18 
M  POLY_UPPER 6
M  POLY_LOWER 8
M  POLY_CHG 0
M  POLY_PROPERTIES ALPHA_AA D_AA PROTEIN AROMATIC POLYMER 
M  END

$$$$



 32 32  0  0  0  0  0  0  0  0999 V2000
   -0.6893    2.9874   -3.2760 H   0  0  0  1  0  0  0  0  0  0  0  0
    0.2346    1.2194   -2.5928 C   0  0  0  1  0  0  0  0  0  0  0  0
    0.8638    3.5189   -1.9793 N   0  0  0  1  0  0  0  0  0  0  0  0
   -0.2815    2.6297   -2.3537 C   0  0  0  1  0  0  0  0  0  0  0  0
    0.5965    0.8585   -3.7110 O   0  0  0  1  0  0  0  0  0  0  0  0
    0.1826    0.4098   -1.5313 N   0  0  0  1  0  0  0  0  0  0  0  0
    1.3806    3.3104   -1.1731 H   0  0  0  1  0  0  0  0  0  0  0  0
    1.2057    4.5866   -2.7061 C   0  0  0  1  0  0  0  0  0  0  0  0
    0.3477   -1.0347   -1.5961 C   0  0  0  1  0  0  0  0  0  0  0  0
    2.1960    5.5433   -2.0300 C   0  0  0  1  0  0  0  0  0  0  0  0
    0.7217    4.8488   -3.8064 O   0  0  0  1  0  0  0  0  0  0  0  0
    0.0232    0.8144   -0.6531 H   0  0  0  1  0  0  0  0  0  0  0  0
    1.2801   -1.2669   -2.0668 H   0  0  0  1  0  0  0  0  0  0  0  0
   -0.4537   -1.4599   -2.1635 H   0  0  0  1  0  0  0  0  0  0  0  0
    0.3379   -1.4393   -0.6056 H   0  0  0  1  0  0  0  0  0  0  0  0
    1.7147    6.0351   -1.2107 H   0  0  0  1  0  0  0  0  0  0  0  0
    2.5271    6.2730   -2.7391 H   0  0  0  1  0  0  0  0  0  0  0  0
    3.0369    4.9890   -1.6688 H   0  0  0  1  0  0  0  0  0  0  0  0
   -2.8298    8.8015   -0.0145 I   0  0  0  1  0  0  0  0  0  0  0  0
   -2.3639    6.8066   -0.4285 C   0  0  0  1  0  0  0  0  0  0  0  0
   -1.1110    6.3063   -0.1102 C   0  0  0  1  0  0  0  0  0  0  0  0
   -0.8016    4.9885   -0.3890 C   0  0  0  1  0  0  0  0  0  0  0  0
   -1.7462    4.1655   -0.9822 C   0  0  0  1  0  0  0  0  0  0  0  0
   -2.9956    4.6641   -1.2997 C   0  0  0  1  0  0  0  0  0  0  0  0
   -3.3057    5.9859   -1.0199 C   0  0  0  1  0  0  0  0  0  0  0  0
   -1.4108    2.7236   -1.2819 C   0  0  0  1  0  0  0  0  0  0  0  0
   -0.4036    6.9227    0.3385 H   0  0  0  1  0  0  0  0  0  0  0  0
    0.1398    4.6143   -0.1538 H   0  0  0  1  0  0  0  0  0  0  0  0
   -3.7029    4.0477   -1.7484 H   0  0  0  1  0  0  0  0  0  0  0  0
   -4.2471    6.3601   -1.2551 H   0  0  0  1  0  0  0  0  0  0  0  0
   -1.0818    2.2458   -0.3828 H   0  0  0  1  0  0  0  0  0  0  0  0
   -2.2855    2.2291   -1.6497 H   0  0  0  1  0  0  0  0  0  0  0  0
  1  4  1  0  0  0  0
  2  4  1  0  0  0  0
  2  5  2  0  0  0  0
  2  6  1  0  0  0  0
  3  4  1  0  0  0  0
  3  7  1  0  0  0  0
  3  8  1  0  0  0  0
  4 26  1  0  0  0  0
  6  9  1  0  0  0  0
  6 12  1  0  0  0  0
  8 10  1  0  0  0  0
  8 11  2  0  0  0  0
  9 13  1  0  0  0  0
  9 14  1  0  0  0  0
  9 15  1  0  0  0  0
 10 16  1  0  0  0  0
 10 17  1  0  0  0  0
 10 18  1  0  0  0  0
 19 20  1  0  0  0  0
 20 21  4  0  0  0  0
 20 25  4  0  0  0  0
 21 22  4  0  0  0  0
 21 27  1  0  0  0  0
 22 23  4  0  0  0  0
 22 28  1  0  0  0  0
 23 24  4  0  0  0  0
 23 26  1  0  0  0  0
 24 25  4  0  0  0  0
 24 29  1  0  0  0  0
 25 30  1  0  0  0  0
 26 31  1  0  0  0  0
 26 32  1  0  0  0  0
M  END
> <BCLConfClusterSize>
1

> <ConfClashScore>
0 

> <ConfOneFourInteractionScore>
-0.930865 

> <ConfScore>
0.554266 

> <ConfScorePBest>
0.00253641 

> <ConfTolerance>
1.09624 

> <RosettaParamsInstructions>
M  ROOT 3
M  POLY_N_BB 3
M  POLY_CA_BB 4
M  POLY_C_BB 2
M  POLY_O_BB 5
M  POLY_IGNORE 9 10 11 12 13 14 15 16 17 18 
M  POLY_UPPER 6
M  POLY_LOWER 8
M  POLY_CHG 0
M  POLY_PROPERTIES ALPHA_AA D_AA PROTEIN AROMATIC POLYMER 
M  END

$$$$



 32 32  0  0  0  0  0  0  0  0999 V2000
   -1.2339    1.3959   -2.9217 H   0  0  0  1  0  0  0  0  0  0  0  0
   -0.0980    3.0909   -3.4254 C   0  0  0  1  0  0  0  0  0  0  0  0
   -2.5254    2.9050   -3.4986 N   0  0  0  1  0  0  0  0  0  0  0  0
   -1.3189    2.4544   -2.7903 C   0  0  0  1  0  0  0  0  0  0  0  0
    0.2284    4.2454   -3.1625 O   0  0  0  1  0  0  0  0  0  0  0  0
    0.5824    2.3192   -4.2744 N   0  0  0  1  0  0  0  0  0  0  0  0
   -2.4239    3.6295   -4.1507 H   0  0  0  1  0  0  0  0  0  0  0  0
   -3.7500    2.4015   -3.3202 C   0  0  0  1  0  0  0  0  0  0  0  0
    1.7859    2.8250   -4.9177 C   0  0  0  1  0  0  0  0  0  0  0  0
   -4.8588    3.0712   -4.1084 C   0  0  0  1  0  0  0  0  0  0  0  0
   -3.9820    1.4570   -2.5702 O   0  0  0  1  0  0  0  0  0  0  0  0
    0.2713    1.4098   -4.4654 H   0  0  0  1  0  0  0  0  0  0  0  0
    2.1839    3.6356   -4.3438 H   0  0  0  1  0  0  0  0  0  0  0  0
    1.5460    3.1692   -5.9021 H   0  0  0  1  0  0  0  0  0  0  0  0
    2.5125    2.0420   -4.9803 H   0  0  0  1  0  0  0  0  0  0  0  0
   -4.9236    4.1019   -3.8286 H   0  0  0  1  0  0  0  0  0  0  0  0
   -5.7888    2.5857   -3.8982 H   0  0  0  1  0  0  0  0  0  0  0  0
   -4.6464    2.9985   -5.1546 H   0  0  0  1  0  0  0  0  0  0  0  0
   -2.8353    8.8006   -0.0169 I   0  0  0  1  0  0  0  0  0  0  0  0
   -2.3632    6.8066   -0.4282 C   0  0  0  1  0  0  0  0  0  0  0  0
   -1.1090    6.3104   -0.1083 C   0  0  0  1  0  0  0  0  0  0  0  0
   -0.7955    4.9932   -0.3854 C   0  0  0  1  0  0  0  0  0  0  0  0
   -1.7371    4.1668   -0.9784 C   0  0  0  1  0  0  0  0  0  0  0  0
   -2.9877    4.6613   -1.2976 C   0  0  0  1  0  0  0  0  0  0  0  0
   -3.3020    5.9825   -1.0196 C   0  0  0  1  0  0  0  0  0  0  0  0
   -1.4543    2.7182   -1.2996 C   0  0  0  1  0  0  0  0  0  0  0  0
   -0.4039    6.9294    0.3404 H   0  0  0  1  0  0  0  0  0  0  0  0
    0.1469    4.6221   -0.1489 H   0  0  0  1  0  0  0  0  0  0  0  0
   -3.6928    4.0423   -1.7462 H   0  0  0  1  0  0  0  0  0  0  0  0
   -4.2443    6.3536   -1.2560 H   0  0  0  1  0  0  0  0  0  0  0  0
   -0.5411    2.4349   -0.8193 H   0  0  0  1  0  0  0  0  0  0  0  0
   -2.2576    2.1220   -0.9198 H   0  0  0  1  0  0  0  0  0  0  0  0
  1  4  1  0  0  0  0
  2  4  1  0  0  0  0
  2  5  2  0  0  0  0
  2  6  1  0  0  0  0
  3  4  1  0  0  0  0
  3  7  1  0  0  0  0
  3  8  1  0  0  0  0
  4 26  1  0  0  0  0
  6  9  1  0  0  0  0
  6 12  1  0  0  0  0
  8 10  1  0  0  0  0
  8 11  2  0  0  0  0
  9 13  1  0  0  0  0
  9 14  1  0  0  0  0
  9 15  1  0  0  0  0
 10 16  1  0  0  0  0
 10 17  1  0  0  0  0
 10 18  1  0  0  0  0
 19 20  1  0  0  0  0
 20 21  4  0  0  0  0
 20 25  4  0  0  0  0
 21 22  4  0  0  0  0
 21 27  1  0  0  0  0
 22 23  4  0  0  0  0
 22 28  1  0  0  0  0
 23 24  4  0  0  0  0
 23 26  1  0  0  0  0
 24 25  4  0  0  0  0
 24 29  1  0  0  0  0
 25 30  1  0  0  0  0
 26 31  1  0  0  0  0
 26 32  1  0  0  0  0
M  END
> <BCLConfClusterSize>
1

> <ConfClashScore>
0 

> <ConfOneFourInteractionScore>
-0.97007 

> <ConfScore>
0.556389 

> <ConfScorePBest>
0.00250793 

> <ConfTolerance>
1.04712 

> <RosettaParamsInstructions>
M  ROOT 3
M  POLY_N_BB 3
M  POLY_CA_BB 4
M  POLY_C_BB 2
M  POLY_O_BB 5
M  POLY_IGNORE 9 10 11 12 13 14 15 16 17 18 
M  POLY_UPPER 6
M  POLY_LOWER 8
M  POLY_CHG 0
M  POLY_PROPERTIES ALPHA_AA D_AA PROTEIN AROMATIC POLYMER 
M  END

$$$$



 32 32  0  0  0  0  0  0  0  0999 V2000
   -1.2420    0.7672   -0.6601 H   0  0  0  1  0  0  0  0  0  0  0  0
   -3.2648    1.3117   -0.4916 C   0  0  0  1  0  0  0  0  0  0  0  0
   -1.4096    2.0026    0.9771 N   0  0  0  1  0  0  0  0  0  0  0  0
   -1.7893    1.6433   -0.3810 C   0  0  0  1  0  0  0  0  0  0  0  0
   -3.9397    1.0891    0.5001 O   0  0  0  1  0  0  0  0  0  0  0  0
   -3.7640    1.2816   -1.7374 N   0  0  0  1  0  0  0  0  0  0  0  0
   -1.3881    2.9499    1.2272 H   0  0  0  1  0  0  0  0  0  0  0  0
   -1.0771    1.0514    1.9295 C   0  0  0  1  0  0  0  0  0  0  0  0
   -5.1700    1.0183   -2.0053 C   0  0  0  1  0  0  0  0  0  0  0  0
   -1.0964   -0.4002    1.5484 C   0  0  0  1  0  0  0  0  0  0  0  0
   -0.7787    1.4281    3.0509 O   0  0  0  1  0  0  0  0  0  0  0  0
   -3.1607    1.4425   -2.4927 H   0  0  0  1  0  0  0  0  0  0  0  0
   -5.2577    0.3872   -2.8649 H   0  0  0  1  0  0  0  0  0  0  0  0
   -5.6771    1.9426   -2.1884 H   0  0  0  1  0  0  0  0  0  0  0  0
   -5.6089    0.5316   -1.1595 H   0  0  0  1  0  0  0  0  0  0  0  0
   -0.5586   -0.5364    0.6335 H   0  0  0  1  0  0  0  0  0  0  0  0
   -2.1088   -0.7210    1.4178 H   0  0  0  1  0  0  0  0  0  0  0  0
   -0.6356   -0.9780    2.3221 H   0  0  0  1  0  0  0  0  0  0  0  0
   -2.8231    8.8071   -0.0353 I   0  0  0  1  0  0  0  0  0  0  0  0
   -2.3624    6.8074   -0.4319 C   0  0  0  1  0  0  0  0  0  0  0  0
   -1.1115    6.3061   -0.1074 C   0  0  0  1  0  0  0  0  0  0  0  0
   -0.8056    4.9851   -0.3748 C   0  0  0  1  0  0  0  0  0  0  0  0
   -1.7517    4.1600   -0.9627 C   0  0  0  1  0  0  0  0  0  0  0  0
   -2.9991    4.6597   -1.2863 C   0  0  0  1  0  0  0  0  0  0  0  0
   -3.3057    5.9847   -1.0181 C   0  0  0  1  0  0  0  0  0  0  0  0
   -1.3973    2.7414   -1.3414 C   0  0  0  1  0  0  0  0  0  0  0  0
   -0.4031    6.9241    0.3373 H   0  0  0  1  0  0  0  0  0  0  0  0
    0.1343    4.6101   -0.1349 H   0  0  0  1  0  0  0  0  0  0  0  0
   -3.7075    4.0417   -1.7311 H   0  0  0  1  0  0  0  0  0  0  0  0
   -4.2456    6.3597   -1.2579 H   0  0  0  1  0  0  0  0  0  0  0  0
   -1.8709    2.5321   -2.2777 H   0  0  0  1  0  0  0  0  0  0  0  0
   -0.3348    2.6980   -1.4610 H   0  0  0  1  0  0  0  0  0  0  0  0
  1  4  1  0  0  0  0
  2  4  1  0  0  0  0
  2  5  2  0  0  0  0
  2  6  1  0  0  0  0
  3  4  1  0  0  0  0
  3  7  1  0  0  0  0
  3  8  1  0  0  0  0
  4 26  1  0  0  0  0
  6  9  1  0  0  0  0
  6 12  1  0  0  0  0
  8 10  1  0  0  0  0
  8 11  2  0  0  0  0
  9 13  1  0  0  0  0
  9 14  1  0  0  0  0
  9 15  1  0  0  0  0
 10 16  1  0  0  0  0
 10 17  1  0  0  0  0
 10 18  1  0  0  0  0
 19 20  1  0  0  0  0
 20 21  4  0  0  0  0
 20 25  4  0  0  0  0
 21 22  4  0  0  0  0
 21 27  1  0  0  0  0
 22 23  4  0  0  0  0
 22 28  1  0  0  0  0
 23 24  4  0  0  0  0
 23 26  1  0  0  0  0
 24 25  4  0  0  0  0
 24 29  1  0  0  0  0
 25 30  1  0  0  0  0
 26 31  1  0  0  0  0
 26 32  1  0  0  0  0
M  END
> <BCLConfClusterSize>
1

> <ConfClashScore>
0 

> <ConfOneFourInteractionScore>
-0.977982 

> <ConfScore>
0.562101 

> <ConfScorePBest>
0.00247945 

> <ConfTolerance>
1.11562 

> <RosettaParamsInstructions>
M  ROOT 3
M  POLY_N_BB 3
M  POLY_CA_BB 4
M  POLY_C_BB 2
M  POLY_O_BB 5
M  POLY_IGNORE 9 10 11 12 13 14 15 16 17 18 
M  POLY_UPPER 6
M  POLY_LOWER 8
M  POLY_CHG 0
M  POLY_PROPERTIES ALPHA_AA D_AA PROTEIN AROMATIC POLYMER 
M  END

$$$$



 32 32  0  0  0  0  0  0  0  0999 V2000
   -0.6589    1.0662   -0.2227 H   0  0  0  1  0  0  0  0  0  0  0  0
   -2.7657    1.1723    0.2531 C   0  0  0  1  0  0  0  0  0  0  0  0
   -0.8842    2.6237    1.1023 N   0  0  0  1  0  0  0  0  0  0  0  0
   -1.3616    1.8508   -0.0346 C   0  0  0  1  0  0  0  0  0  0  0  0
   -2.8630    0.2082    0.9948 O   0  0  0  1  0  0  0  0  0  0  0  0
   -3.8035    1.7180   -0.3584 N   0  0  0  1  0  0  0  0  0  0  0  0
    0.0776    2.6456    1.2889 H   0  0  0  1  0  0  0  0  0  0  0  0
   -1.7185    3.3101    1.9072 C   0  0  0  1  0  0  0  0  0  0  0  0
   -5.1467    1.1682   -0.2506 C   0  0  0  1  0  0  0  0  0  0  0  0
   -1.0207    3.9963    3.0654 C   0  0  0  1  0  0  0  0  0  0  0  0
   -2.9355    3.3932    1.7470 O   0  0  0  1  0  0  0  0  0  0  0  0
   -3.6633    2.5205   -0.9030 H   0  0  0  1  0  0  0  0  0  0  0  0
   -5.6172    1.5455    0.6332 H   0  0  0  1  0  0  0  0  0  0  0  0
   -5.0917    0.1009   -0.1971 H   0  0  0  1  0  0  0  0  0  0  0  0
   -5.7186    1.4538   -1.1086 H   0  0  0  1  0  0  0  0  0  0  0  0
   -1.6742    4.0209    3.9123 H   0  0  0  1  0  0  0  0  0  0  0  0
   -0.7635    4.9963    2.7846 H   0  0  0  1  0  0  0  0  0  0  0  0
   -0.1319    3.4561    3.3166 H   0  0  0  1  0  0  0  0  0  0  0  0
   -2.8298    8.8015   -0.0145 I   0  0  0  1  0  0  0  0  0  0  0  0
   -2.3639    6.8066   -0.4285 C   0  0  0  1  0  0  0  0  0  0  0  0
   -1.1110    6.3063   -0.1102 C   0  0  0  1  0  0  0  0  0  0  0  0
   -0.8016    4.9885   -0.3890 C   0  0  0  1  0  0  0  0  0  0  0  0
   -1.7462    4.1655   -0.9822 C   0  0  0  1  0  0  0  0  0  0  0  0
   -2.9956    4.6641   -1.2997 C   0  0  0  1  0  0  0  0  0  0  0  0
   -3.3057    5.9859   -1.0199 C   0  0  0  1  0  0  0  0  0  0  0  0
   -1.4108    2.7236   -1.2819 C   0  0  0  1  0  0  0  0  0  0  0  0
   -0.4036    6.9227    0.3385 H   0  0  0  1  0  0  0  0  0  0  0  0
    0.1398    4.6143   -0.1538 H   0  0  0  1  0  0  0  0  0  0  0  0
   -3.7029    4.0477   -1.7484 H   0  0  0  1  0  0  0  0  0  0  0  0
   -4.2471    6.3601   -1.2551 H   0  0  0  1  0  0  0  0  0  0  0  0
   -2.1550    2.3312   -1.9430 H   0  0  0  1  0  0  0  0  0  0  0  0
   -0.4542    2.6887   -1.7599 H   0  0  0  1  0  0  0  0  0  0  0  0
  1  4  1  0  0  0  0
  2  4  1  0  0  0  0
  2  5  2  0  0  0  0
  2  6  1  0  0  0  0
  3  4  1  0  0  0  0
  3  7  1  0  0  0  0
  3  8  1  0  0  0  0
  4 26  1  0  0  0  0
  6  9  1  0  0  0  0
  6 12  1  0  0  0  0
  8 10  1  0  0  0  0
  8 11  2  0  0  0  0
  9 13  1  0  0  0  0
  9 14  1  0  0  0  0
  9 15  1  0  0  0  0
 10 16  1  0  0  0  0
 10 17  1  0  0  0  0
 10 18  1  0  0  0  0
 19 20  1  0  0  0  0
 20 21  4  0  0  0  0
 20 25  4  0  0  0  0
 21 22  4  0  0  0  0
 21 27  1  0  0  0  0
 22 23  4  0  0  0  0
 22 28  1  0  0  0  0
 23 24  4  0  0  0  0
 23 26  1  0  0  0  0
 24 25  4  0  0  0  0
 24 29  1  0  0  0  0
 25 30  1  0  0  0  0
 26 31  1  0  0  0  0
 26 32  1  0  0  0  0
M  END
> <BCLConfClusterSize>
1

> <ConfClashScore>
0 

> <ConfOneFourInteractionScore>
-0.90437 

> <ConfScore>
0.569509 

> <ConfScorePBest>
0.00245097 

> <ConfTolerance>
0.718451 

> <RosettaParamsInstructions>
M  ROOT 3
M  POLY_N_BB 3
M  POLY_CA_BB 4
M  POLY_C_BB 2
M  POLY_O_BB 5
M  POLY_IGNORE 9 10 11 12 13 14 15 16 17 18 
M  POLY_UPPER 6
M  POLY_LOWER 8
M  POLY_CHG 0
M  POLY_PROPERTIES ALPHA_AA D_AA PROTEIN AROMATIC POLYMER 
M  END

$$$$



 32 32  0  0  0  0  0  0  0  0999 V2000
   -2.4743    2.0254    0.3908 H   0  0  0  1  0  0  0  0  0  0  0  0
   -0.4544    2.1294    0.9755 C   0  0  0  1  0  0  0  0  0  0  0  0
   -1.5404    0.4312   -0.5144 N   0  0  0  1  0  0  0  0  0  0  0  0
   -1.5277    1.8181   -0.0628 C   0  0  0  1  0  0  0  0  0  0  0  0
   -0.6207    1.8541    2.1627 O   0  0  0  1  0  0  0  0  0  0  0  0
    0.6978    2.6304    0.5079 N   0  0  0  1  0  0  0  0  0  0  0  0
   -2.1206    0.2064   -1.2714 H   0  0  0  1  0  0  0  0  0  0  0  0
   -0.7932   -0.5932    0.0469 C   0  0  0  1  0  0  0  0  0  0  0  0
    1.8165    2.9527    1.3812 C   0  0  0  1  0  0  0  0  0  0  0  0
   -1.0044   -2.0006   -0.4363 C   0  0  0  1  0  0  0  0  0  0  0  0
    0.0129   -0.3169    0.9165 O   0  0  0  1  0  0  0  0  0  0  0  0
    0.7899    2.7850   -0.4554 H   0  0  0  1  0  0  0  0  0  0  0  0
    1.4472    3.2409    2.3432 H   0  0  0  1  0  0  0  0  0  0  0  0
    2.3776    3.7597    0.9584 H   0  0  0  1  0  0  0  0  0  0  0  0
    2.4472    2.0945    1.4839 H   0  0  0  1  0  0  0  0  0  0  0  0
   -0.2940   -2.2249   -1.2043 H   0  0  0  1  0  0  0  0  0  0  0  0
   -1.9954   -2.0981   -0.8278 H   0  0  0  1  0  0  0  0  0  0  0  0
   -0.8741   -2.6808    0.3794 H   0  0  0  1  0  0  0  0  0  0  0  0
   -2.8298    8.8015   -0.0145 I   0  0  0  1  0  0  0  0  0  0  0  0
   -2.3639    6.8066   -0.4285 C   0  0  0  1  0  0  0  0  0  0  0  0
   -1.1110    6.3063   -0.1102 C   0  0  0  1  0  0  0  0  0  0  0  0
   -0.8016    4.9885   -0.3890 C   0  0  0  1  0  0  0  0  0  0  0  0
   -1.7462    4.1655   -0.9822 C   0  0  0  1  0  0  0  0  0  0  0  0
   -2.9956    4.6641   -1.2997 C   0  0  0  1  0  0  0  0  0  0  0  0
   -3.3057    5.9859   -1.0199 C   0  0  0  1  0  0  0  0  0  0  0  0
   -1.4108    2.7236   -1.2819 C   0  0  0  1  0  0  0  0  0  0  0  0
   -0.4036    6.9227    0.3385 H   0  0  0  1  0  0  0  0  0  0  0  0
    0.1398    4.6143   -0.1538 H   0  0  0  1  0  0  0  0  0  0  0  0
   -3.7029    4.0477   -1.7484 H   0  0  0  1  0  0  0  0  0  0  0  0
   -4.2471    6.3601   -1.2551 H   0  0  0  1  0  0  0  0  0  0  0  0
   -2.0812    2.3677   -2.0361 H   0  0  0  1  0  0  0  0  0  0  0  0
   -0.4059    2.6763   -1.6462 H   0  0  0  1  0  0  0  0  0  0  0  0
  1  4  1  0  0  0  0
  2  4  1  0  0  0  0
  2  5  2  0  0  0  0
  2  6  1  0  0  0  0
  3  4  1  0  0  0  0
  3  7  1  0  0  0  0
  3  8  1  0  0  0  0
  4 26  1  0  0  0  0
  6  9  1  0  0  0  0
  6 12  1  0  0  0  0
  8 10  1  0  0  0  0
  8 11  2  0  0  0  0
  9 13  1  0  0  0  0
  9 14  1  0  0  0  0
  9 15  1  0  0  0  0
 10 16  1  0  0  0  0
 10 17  1  0  0  0  0
 10 18  1  0  0  0  0
 19 20  1  0  0  0  0
 20 21  4  0  0  0  0
 20 25  4  0  0  0  0
 21 22  4  0  0  0  0
 21 27  1  0  0  0  0
 22 23  4  0  0  0  0
 22 28  1  0  0  0  0
 23 24  4  0  0  0  0
 23 26  1  0  0  0  0
 24 25  4  0  0  0  0
 24 29  1  0  0  0  0
 25 30  1  0  0  0  0
 26 31  1  0  0  0  0
 26 32  1  0  0  0  0
M  END
> <BCLConfClusterSize>
1

> <ConfClashScore>
0.00274397 

> <ConfOneFourInteractionScore>
-0.953993 

> <ConfScore>
0.577966 

> <ConfScorePBest>
0.00242249 

> <ConfTolerance>
0.925275 

> <RosettaParamsInstructions>
M  ROOT 3
M  POLY_N_BB 3
M  POLY_CA_BB 4
M  POLY_C_BB 2
M  POLY_O_BB 5
M  POLY_IGNORE 9 10 11 12 13 14 15 16 17 18 
M  POLY_UPPER 6
M  POLY_LOWER 8
M  POLY_CHG 0
M  POLY_PROPERTIES ALPHA_AA D_AA PROTEIN AROMATIC POLYMER 
M  END

$$$$



 32 32  0  0  0  0  0  0  0  0999 V2000
   -0.3322    1.7147   -2.7943 H   0  0  0  1  0  0  0  0  0  0  0  0
    1.1268    2.4546   -1.4575 C   0  0  0  1  0  0  0  0  0  0  0  0
   -0.2327    3.7584   -3.0935 N   0  0  0  1  0  0  0  0  0  0  0  0
   -0.1879    2.5990   -2.2095 C   0  0  0  1  0  0  0  0  0  0  0  0
    1.6025    1.3689   -1.1794 O   0  0  0  1  0  0  0  0  0  0  0  0
    1.7859    3.5536   -1.0872 N   0  0  0  1  0  0  0  0  0  0  0  0
    0.5952    4.2686   -3.2138 H   0  0  0  1  0  0  0  0  0  0  0  0
   -1.3158    4.1764   -3.7504 C   0  0  0  1  0  0  0  0  0  0  0  0
    2.9844    3.5678   -0.2617 C   0  0  0  1  0  0  0  0  0  0  0  0
   -1.1078    5.3558   -4.6804 C   0  0  0  1  0  0  0  0  0  0  0  0
   -2.4191    3.6521   -3.6229 O   0  0  0  1  0  0  0  0  0  0  0  0
    1.4368    4.4163   -1.3941 H   0  0  0  1  0  0  0  0  0  0  0  0
    2.9598    4.4169    0.3890 H   0  0  0  1  0  0  0  0  0  0  0  0
    3.8489    3.6249   -0.8896 H   0  0  0  1  0  0  0  0  0  0  0  0
    3.0256    2.6723    0.3223 H   0  0  0  1  0  0  0  0  0  0  0  0
   -0.5925    6.1352   -4.1590 H   0  0  0  1  0  0  0  0  0  0  0  0
   -2.0576    5.7180   -5.0145 H   0  0  0  1  0  0  0  0  0  0  0  0
   -0.5267    5.0464   -5.5238 H   0  0  0  1  0  0  0  0  0  0  0  0
   -2.8776    8.7935   -0.0347 I   0  0  0  1  0  0  0  0  0  0  0  0
   -2.3520    6.8084   -0.4236 C   0  0  0  1  0  0  0  0  0  0  0  0
   -1.1021    6.2979   -0.1094 C   0  0  0  1  0  0  0  0  0  0  0  0
   -0.8031    4.9786   -0.3925 C   0  0  0  1  0  0  0  0  0  0  0  0
   -1.7551    4.1643   -0.9858 C   0  0  0  1  0  0  0  0  0  0  0  0
   -3.0014    4.6730   -1.2992 C   0  0  0  1  0  0  0  0  0  0  0  0
   -3.3011    5.9963   -1.0152 C   0  0  0  1  0  0  0  0  0  0  0  0
   -1.3781    2.7292   -1.2681 C   0  0  0  1  0  0  0  0  0  0  0  0
   -0.3893    6.9078    0.3395 H   0  0  0  1  0  0  0  0  0  0  0  0
    0.1360    4.5969   -0.1603 H   0  0  0  1  0  0  0  0  0  0  0  0
   -3.7142    4.0631   -1.7481 H   0  0  0  1  0  0  0  0  0  0  0  0
   -4.2403    6.3781   -1.2473 H   0  0  0  1  0  0  0  0  0  0  0  0
   -1.1333    2.2528   -0.3418 H   0  0  0  1  0  0  0  0  0  0  0  0
   -2.2185    2.2372   -1.7115 H   0  0  0  1  0  0  0  0  0  0  0  0
  1  4  1  0  0  0  0
  2  4  1  0  0  0  0
  2  5  2  0  0  0  0
  2  6  1  0  0  0  0
  3  4  1  0  0  0  0
  3  7  1  0  0  0  0
  3  8  1  0  0  0  0
  4 26  1  0  0  0  0
  6  9  1  0  0  0  0
  6 12  1  0  0  0  0
  8 10  1  0  0  0  0
  8 11  2  0  0  0  0
  9 13  1  0  0  0  0
  9 14  1  0  0  0  0
  9 15  1  0  0  0  0
 10 16  1  0  0  0  0
 10 17  1  0  0  0  0
 10 18  1  0  0  0  0
 19 20  1  0  0  0  0
 20 21  4  0  0  0  0
 20 25  4  0  0  0  0
 21 22  4  0  0  0  0
 21 27  1  0  0  0  0
 22 23  4  0  0  0  0
 22 28  1  0  0  0  0
 23 24  4  0  0  0  0
 23 26  1  0  0  0  0
 24 25  4  0  0  0  0
 24 29  1  0  0  0  0
 25 30  1  0  0  0  0
 26 31  1  0  0  0  0
 26 32  1  0  0  0  0
M  END
> <BCLConfClusterSize>
1

> <ConfClashScore>
0.00127389 

> <ConfOneFourInteractionScore>
-0.939096 

> <ConfScore>
0.591903 

> <ConfScorePBest>
0.00239401 

> <ConfTolerance>
1.14513 

> <RosettaParamsInstructions>
M  ROOT 3
M  POLY_N_BB 3
M  POLY_CA_BB 4
M  POLY_C_BB 2
M  POLY_O_BB 5
M  POLY_IGNORE 9 10 11 12 13 14 15 16 17 18 
M  POLY_UPPER 6
M  POLY_LOWER 8
M  POLY_CHG 0
M  POLY_PROPERTIES ALPHA_AA D_AA PROTEIN AROMATIC POLYMER 
M  END

$$$$



 32 32  0  0  0  0  0  0  0  0999 V2000
   -1.2234    1.5366   -2.9938 H   0  0  0  1  0  0  0  0  0  0  0  0
    0.6112    2.4704   -2.7776 C   0  0  0  1  0  0  0  0  0  0  0  0
   -1.5000    3.4353   -3.7034 N   0  0  0  1  0  0  0  0  0  0  0  0
   -0.9026    2.5156   -2.7049 C   0  0  0  1  0  0  0  0  0  0  0  0
    1.2944    2.3093   -1.7672 O   0  0  0  1  0  0  0  0  0  0  0  0
    1.1406    2.6162   -4.0018 N   0  0  0  1  0  0  0  0  0  0  0  0
   -2.1155    3.0510   -4.3621 H   0  0  0  1  0  0  0  0  0  0  0  0
   -1.2531    4.7978   -3.7752 C   0  0  0  1  0  0  0  0  0  0  0  0
    2.5753    2.7238   -4.2206 C   0  0  0  1  0  0  0  0  0  0  0  0
   -1.9014    5.6011   -4.8676 C   0  0  0  1  0  0  0  0  0  0  0  0
   -0.5158    5.3004   -2.9468 O   0  0  0  1  0  0  0  0  0  0  0  0
    0.5402    2.6515   -4.7756 H   0  0  0  1  0  0  0  0  0  0  0  0
    2.7632    2.9651   -5.2460 H   0  0  0  1  0  0  0  0  0  0  0  0
    3.0431    1.7913   -3.9824 H   0  0  0  1  0  0  0  0  0  0  0  0
    2.9746    3.4939   -3.5943 H   0  0  0  1  0  0  0  0  0  0  0  0
   -1.1559    6.1687   -5.3841 H   0  0  0  1  0  0  0  0  0  0  0  0
   -2.6233    6.2657   -4.4409 H   0  0  0  1  0  0  0  0  0  0  0  0
   -2.3867    4.9406   -5.5555 H   0  0  0  1  0  0  0  0  0  0  0  0
   -2.8883    8.7914   -0.0392 I   0  0  0  1  0  0  0  0  0  0  0  0
   -2.3507    6.8086   -0.4230 C   0  0  0  1  0  0  0  0  0  0  0  0
   -1.0984    6.3060   -0.1056 C   0  0  0  1  0  0  0  0  0  0  0  0
   -0.7913    4.9879   -0.3854 C   0  0  0  1  0  0  0  0  0  0  0  0
   -1.7376    4.1668   -0.9786 C   0  0  0  1  0  0  0  0  0  0  0  0
   -2.9863    4.6677   -1.2952 C   0  0  0  1  0  0  0  0  0  0  0  0
   -3.2941    5.9898   -1.0145 C   0  0  0  1  0  0  0  0  0  0  0  0
   -1.4618    2.7175   -1.3026 C   0  0  0  1  0  0  0  0  0  0  0  0
   -0.3898    6.9210    0.3432 H   0  0  0  1  0  0  0  0  0  0  0  0
    0.1496    4.6120   -0.1508 H   0  0  0  1  0  0  0  0  0  0  0  0
   -3.6948    4.0527   -1.7439 H   0  0  0  1  0  0  0  0  0  0  0  0
   -4.2350    6.3657   -1.2490 H   0  0  0  1  0  0  0  0  0  0  0  0
   -0.7533    2.3393   -0.5957 H   0  0  0  1  0  0  0  0  0  0  0  0
   -2.3772    2.1697   -1.2189 H   0  0  0  1  0  0  0  0  0  0  0  0
  1  4  1  0  0  0  0
  2  4  1  0  0  0  0
  2  5  2  0  0  0  0
  2  6  1  0  0  0  0
  3  4  1  0  0  0  0
  3  7  1  0  0  0  0
  3  8  1  0  0  0  0
  4 26  1  0  0  0  0
  6  9  1  0  0  0  0
  6 12  1  0  0  0  0
  8 10  1  0  0  0  0
  8 11  2  0  0  0  0
  9 13  1  0  0  0  0
  9 14  1  0  0  0  0
  9 15  1  0  0  0  0
 10 16  1  0  0  0  0
 10 17  1  0  0  0  0
 10 18  1  0  0  0  0
 19 20  1  0  0  0  0
 20 21  4  0  0  0  0
 20 25  4  0  0  0  0
 21 22  4  0  0  0  0
 21 27  1  0  0  0  0
 22 23  4  0  0  0  0
 22 28  1  0  0  0  0
 23 24  4  0  0  0  0
 23 26  1  0  0  0  0
 24 25  4  0  0  0  0
 24 29  1  0  0  0  0
 25 30  1  0  0  0  0
 26 31  1  0  0  0  0
 26 32  1  0  0  0  0
M  END
> <BCLConfClusterSize>
1

> <ConfClashScore>
0 

> <ConfOneFourInteractionScore>
-0.928983 

> <ConfScore>
0.596967 

> <ConfScorePBest>
0.00236553 

> <ConfTolerance>
0.483266 

> <RosettaParamsInstructions>
M  ROOT 3
M  POLY_N_BB 3
M  POLY_CA_BB 4
M  POLY_C_BB 2
M  POLY_O_BB 5
M  POLY_IGNORE 9 10 11 12 13 14 15 16 17 18 
M  POLY_UPPER 6
M  POLY_LOWER 8
M  POLY_CHG 0
M  POLY_PROPERTIES ALPHA_AA D_AA PROTEIN AROMATIC POLYMER 
M  END

$$$$



 32 32  0  0  0  0  0  0  0  0999 V2000
    0.0119    2.6326    0.2253 H   0  0  0  1  0  0  0  0  0  0  0  0
    1.0811    3.0459   -1.5205 C   0  0  0  1  0  0  0  0  0  0  0  0
    0.1360    0.8690   -0.8018 N   0  0  0  1  0  0  0  0  0  0  0  0
   -0.0318    2.3146   -0.7954 C   0  0  0  1  0  0  0  0  0  0  0  0
    2.2545    2.9092   -1.1770 O   0  0  0  1  0  0  0  0  0  0  0  0
    0.7474    3.8451   -2.5462 N   0  0  0  1  0  0  0  0  0  0  0  0
    0.4656    0.4347   -1.6161 H   0  0  0  1  0  0  0  0  0  0  0  0
   -0.1437    0.1135    0.2639 C   0  0  0  1  0  0  0  0  0  0  0  0
    1.6258    4.8358   -3.1504 C   0  0  0  1  0  0  0  0  0  0  0  0
    0.2644   -1.3435    0.1638 C   0  0  0  1  0  0  0  0  0  0  0  0
   -0.6956    0.5531    1.2691 O   0  0  0  1  0  0  0  0  0  0  0  0
   -0.1556    3.7547   -2.9160 H   0  0  0  1  0  0  0  0  0  0  0  0
    2.1508    4.3942   -3.9715 H   0  0  0  1  0  0  0  0  0  0  0  0
    2.3292    5.1803   -2.4214 H   0  0  0  1  0  0  0  0  0  0  0  0
    1.0431    5.6612   -3.5026 H   0  0  0  1  0  0  0  0  0  0  0  0
    0.3227   -1.6281   -0.8660 H   0  0  0  1  0  0  0  0  0  0  0  0
   -0.4618   -1.9520    0.6611 H   0  0  0  1  0  0  0  0  0  0  0  0
    1.2201   -1.4784    0.6256 H   0  0  0  1  0  0  0  0  0  0  0  0
   -2.8222    8.8158   -0.0882 I   0  0  0  1  0  0  0  0  0  0  0  0
   -2.3699    6.7993   -0.3997 C   0  0  0  1  0  0  0  0  0  0  0  0
   -1.1143    6.2995   -0.0909 C   0  0  0  1  0  0  0  0  0  0  0  0
   -0.8005    4.9868   -0.3883 C   0  0  0  1  0  0  0  0  0  0  0  0
   -1.7433    4.1683   -0.9905 C   0  0  0  1  0  0  0  0  0  0  0  0
   -2.9953    4.6664   -1.2985 C   0  0  0  1  0  0  0  0  0  0  0  0
   -3.3098    5.9831   -1.0002 C   0  0  0  1  0  0  0  0  0  0  0  0
   -1.4031    2.7319   -1.3105 C   0  0  0  1  0  0  0  0  0  0  0  0
   -0.4083    6.9125    0.3645 H   0  0  0  1  0  0  0  0  0  0  0  0
    0.1429    4.6131   -0.1602 H   0  0  0  1  0  0  0  0  0  0  0  0
   -3.7012    4.0534   -1.7540 H   0  0  0  1  0  0  0  0  0  0  0  0
   -4.2532    6.3568   -1.2282 H   0  0  0  1  0  0  0  0  0  0  0  0
   -2.1416    2.0994   -0.8639 H   0  0  0  1  0  0  0  0  0  0  0  0
   -1.4205    2.6063   -2.3729 H   0  0  0  1  0  0  0  0  0  0  0  0
  1  4  1  0  0  0  0
  2  4  1  0  0  0  0
  2  5  2  0  0  0  0
  2  6  1  0  0  0  0
  3  4  1  0  0  0  0
  3  7  1  0  0  0  0
  3  8  1  0  0  0  0
  4 26  1  0  0  0  0
  6  9  1  0  0  0  0
  6 12  1  0  0  0  0
  8 10  1  0  0  0  0
  8 11  2  0  0  0  0
  9 13  1  0  0  0  0
  9 14  1  0  0  0  0
  9 15  1  0  0  0  0
 10 16  1  0  0  0  0
 10 17  1  0  0  0  0
 10 18  1  0  0  0  0
 19 20  1  0  0  0  0
 20 21  4  0  0  0  0
 20 25  4  0  0  0  0
 21 22  4  0  0  0  0
 21 27  1  0  0  0  0
 22 23  4  0  0  0  0
 22 28  1  0  0  0  0
 23 24  4  0  0  0  0
 23 26  1  0  0  0  0
 24 25  4  0  0  0  0
 24 29  1  0  0  0  0
 25 30  1  0  0  0  0
 26 31  1  0  0  0  0
 26 32  1  0  0  0  0
M  END
> <BCLConfClusterSize>
1

> <ConfClashScore>
0 

> <ConfOneFourInteractionScore>
-0.923424 

> <ConfScore>
0.632762 

> <ConfScorePBest>
0.00233705 

> <ConfTolerance>
1.11554 

> <RosettaParamsInstructions>
M  ROOT 3
M  POLY_N_BB 3
M  POLY_CA_BB 4
M  POLY_C_BB 2
M  POLY_O_BB 5
M  POLY_IGNORE 9 10 11 12 13 14 15 16 17 18 
M  POLY_UPPER 6
M  POLY_LOWER 8
M  POLY_CHG 0
M  POLY_PROPERTIES ALPHA_AA D_AA PROTEIN AROMATIC POLYMER 
M  END

$$$$



 32 32  0  0  0  0  0  0  0  0999 V2000
   -0.0941    1.7996   -2.6699 H   0  0  0  1  0  0  0  0  0  0  0  0
    1.0932    2.2454   -0.9930 C   0  0  0  1  0  0  0  0  0  0  0  0
    0.2866    3.8222   -2.7097 N   0  0  0  1  0  0  0  0  0  0  0  0
   -0.0115    2.6043   -1.9695 C   0  0  0  1  0  0  0  0  0  0  0  0
    1.4275    3.0935   -0.1700 O   0  0  0  1  0  0  0  0  0  0  0  0
    1.6153    1.0214   -1.1129 N   0  0  0  1  0  0  0  0  0  0  0  0
   -0.4044    4.5161   -2.7487 H   0  0  0  1  0  0  0  0  0  0  0  0
    1.4397    4.0536   -3.3378 C   0  0  0  1  0  0  0  0  0  0  0  0
    2.6990    0.5519   -0.2626 C   0  0  0  1  0  0  0  0  0  0  0  0
    1.5563    5.3995   -4.0264 C   0  0  0  1  0  0  0  0  0  0  0  0
    2.3599    3.2407   -3.3675 O   0  0  0  1  0  0  0  0  0  0  0  0
    1.2560    0.4189   -1.7971 H   0  0  0  1  0  0  0  0  0  0  0  0
    3.6369    0.8526   -0.6806 H   0  0  0  1  0  0  0  0  0  0  0  0
    2.6638   -0.5155   -0.1972 H   0  0  0  1  0  0  0  0  0  0  0  0
    2.5930    0.9733    0.7152 H   0  0  0  1  0  0  0  0  0  0  0  0
    2.4419    5.8972   -3.6903 H   0  0  0  1  0  0  0  0  0  0  0  0
    0.7004    5.9963   -3.7896 H   0  0  0  1  0  0  0  0  0  0  0  0
    1.6089    5.2547   -5.0853 H   0  0  0  1  0  0  0  0  0  0  0  0
   -2.7748    8.8084    0.0079 I   0  0  0  1  0  0  0  0  0  0  0  0
   -2.3762    6.8048   -0.4336 C   0  0  0  1  0  0  0  0  0  0  0  0
   -1.1227    6.3066   -0.1144 C   0  0  0  1  0  0  0  0  0  0  0  0
   -0.8112    4.9891   -0.3924 C   0  0  0  1  0  0  0  0  0  0  0  0
   -1.7543    4.1643   -0.9855 C   0  0  0  1  0  0  0  0  0  0  0  0
   -3.0043    4.6609   -1.3038 C   0  0  0  1  0  0  0  0  0  0  0  0
   -3.3165    5.9824   -1.0250 C   0  0  0  1  0  0  0  0  0  0  0  0
   -1.3638    2.7317   -1.2620 C   0  0  0  1  0  0  0  0  0  0  0  0
   -0.4164    6.9243    0.3342 H   0  0  0  1  0  0  0  0  0  0  0  0
    0.1307    4.6164   -0.1566 H   0  0  0  1  0  0  0  0  0  0  0  0
   -3.7105    4.0432   -1.7525 H   0  0  0  1  0  0  0  0  0  0  0  0
   -4.2584    6.3550   -1.2608 H   0  0  0  1  0  0  0  0  0  0  0  0
   -1.3118    2.2071   -0.3309 H   0  0  0  1  0  0  0  0  0  0  0  0
   -2.1151    2.2873   -1.8809 H   0  0  0  1  0  0  0  0  0  0  0  0
  1  4  1  0  0  0  0
  2  4  1  0  0  0  0
  2  5  2  0  0  0  0
  2  6  1  0  0  0  0
  3  4  1  0  0  0  0
  3  7  1  0  0  0  0
  3  8  1  0  0  0  0
  4 26  1  0  0  0  0
  6  9  1  0  0  0  0
  6 12  1  0  0  0  0
  8 10  1  0  0  0  0
  8 11  2  0  0  0  0
  9 13  1  0  0  0  0
  9 14  1  0  0  0  0
  9 15  1  0  0  0  0
 10 16  1  0  0  0  0
 10 17  1  0  0  0  0
 10 18  1  0  0  0  0
 19 20  1  0  0  0  0
 20 21  4  0  0  0  0
 20 25  4  0  0  0  0
 21 22  4  0  0  0  0
 21 27  1  0  0  0  0
 22 23  4  0  0  0  0
 22 28  1  0  0  0  0
 23 24  4  0  0  0  0
 23 26  1  0  0  0  0
 24 25  4  0  0  0  0
 24 29  1  0  0  0  0
 25 30  1  0  0  0  0
 26 31  1  0  0  0  0
 26 32  1  0  0  0  0
M  END
> <BCLConfClusterSize>
1

> <ConfClashScore>
0.000677749 

> <ConfOneFourInteractionScore>
-0.962556 

> <ConfScore>
0.661796 

> <ConfScorePBest>
0.00230857 

> <ConfTolerance>
0.965866 

> <RosettaParamsInstructions>
M  ROOT 3
M  POLY_N_BB 3
M  POLY_CA_BB 4
M  POLY_C_BB 2
M  POLY_O_BB 5
M  POLY_IGNORE 9 10 11 12 13 14 15 16 17 18 
M  POLY_UPPER 6
M  POLY_LOWER 8
M  POLY_CHG 0
M  POLY_PROPERTIES ALPHA_AA D_AA PROTEIN AROMATIC POLYMER 
M  END

$$$$



 32 32  0  0  0  0  0  0  0  0999 V2000
   -2.3269    0.8501   -1.1181 H   0  0  0  1  0  0  0  0  0  0  0  0
   -3.5641    2.1576   -0.0504 C   0  0  0  1  0  0  0  0  0  0  0  0
   -1.3520    1.2510    0.6491 N   0  0  0  1  0  0  0  0  0  0  0  0
   -2.1845    1.6935   -0.4753 C   0  0  0  1  0  0  0  0  0  0  0  0
   -4.5727    1.6691   -0.5325 O   0  0  0  1  0  0  0  0  0  0  0  0
   -3.5931    3.1272    0.8776 N   0  0  0  1  0  0  0  0  0  0  0  0
   -0.4172    1.5391    0.7085 H   0  0  0  1  0  0  0  0  0  0  0  0
   -1.8709    0.4483    1.6014 C   0  0  0  1  0  0  0  0  0  0  0  0
   -4.8369    3.7281    1.3355 C   0  0  0  1  0  0  0  0  0  0  0  0
   -0.9710    0.0276    2.7470 C   0  0  0  1  0  0  0  0  0  0  0  0
   -3.0394    0.0676    1.5442 O   0  0  0  1  0  0  0  0  0  0  0  0
   -2.7472    3.4413    1.2600 H   0  0  0  1  0  0  0  0  0  0  0  0
   -4.6253    4.4555    2.0911 H   0  0  0  1  0  0  0  0  0  0  0  0
   -5.4720    2.9681    1.7404 H   0  0  0  1  0  0  0  0  0  0  0  0
   -5.3281    4.2024    0.5116 H   0  0  0  1  0  0  0  0  0  0  0  0
   -1.1646   -0.9948    2.9963 H   0  0  0  1  0  0  0  0  0  0  0  0
   -1.1660    0.6451    3.5987 H   0  0  0  1  0  0  0  0  0  0  0  0
    0.0525    0.1354    2.4544 H   0  0  0  1  0  0  0  0  0  0  0  0
   -2.8298    8.8015   -0.0145 I   0  0  0  1  0  0  0  0  0  0  0  0
   -2.3639    6.8066   -0.4285 C   0  0  0  1  0  0  0  0  0  0  0  0
   -1.1110    6.3063   -0.1102 C   0  0  0  1  0  0  0  0  0  0  0  0
   -0.8016    4.9885   -0.3890 C   0  0  0  1  0  0  0  0  0  0  0  0
   -1.7462    4.1655   -0.9822 C   0  0  0  1  0  0  0  0  0  0  0  0
   -2.9956    4.6641   -1.2997 C   0  0  0  1  0  0  0  0  0  0  0  0
   -3.3057    5.9859   -1.0199 C   0  0  0  1  0  0  0  0  0  0  0  0
   -1.4108    2.7236   -1.2819 C   0  0  0  1  0  0  0  0  0  0  0  0
   -0.4036    6.9227    0.3385 H   0  0  0  1  0  0  0  0  0  0  0  0
    0.1398    4.6143   -0.1538 H   0  0  0  1  0  0  0  0  0  0  0  0
   -3.7029    4.0477   -1.7484 H   0  0  0  1  0  0  0  0  0  0  0  0
   -4.2471    6.3601   -1.2551 H   0  0  0  1  0  0  0  0  0  0  0  0
   -1.6085    2.5473   -2.3186 H   0  0  0  1  0  0  0  0  0  0  0  0
   -0.3685    2.5799   -1.0876 H   0  0  0  1  0  0  0  0  0  0  0  0
  1  4  1  0  0  0  0
  2  4  1  0  0  0  0
  2  5  2  0  0  0  0
  2  6  1  0  0  0  0
  3  4  1  0  0  0  0
  3  7  1  0  0  0  0
  3  8  1  0  0  0  0
  4 26  1  0  0  0  0
  6  9  1  0  0  0  0
  6 12  1  0  0  0  0
  8 10  1  0  0  0  0
  8 11  2  0  0  0  0
  9 13  1  0  0  0  0
  9 14  1  0  0  0  0
  9 15  1  0  0  0  0
 10 16  1  0  0  0  0
 10 17  1  0  0  0  0
 10 18  1  0  0  0  0
 19 20  1  0  0  0  0
 20 21  4  0  0  0  0
 20 25  4  0  0  0  0
 21 22  4  0  0  0  0
 21 27  1  0  0  0  0
 22 23  4  0  0  0  0
 22 28  1  0  0  0  0
 23 24  4  0  0  0  0
 23 26  1  0  0  0  0
 24 25  4  0  0  0  0
 24 29  1  0  0  0  0
 25 30  1  0  0  0  0
 26 31  1  0  0  0  0
 26 32  1  0  0  0  0
M  END
> <BCLConfClusterSize>
1

> <ConfClashScore>
0 

> <ConfOneFourInteractionScore>
-0.942345 

> <ConfScore>
0.682057 

> <ConfScorePBest>
0.00228009 

> <ConfTolerance>
1.02665 

> <RosettaParamsInstructions>
M  ROOT 3
M  POLY_N_BB 3
M  POLY_CA_BB 4
M  POLY_C_BB 2
M  POLY_O_BB 5
M  POLY_IGNORE 9 10 11 12 13 14 15 16 17 18 
M  POLY_UPPER 6
M  POLY_LOWER 8
M  POLY_CHG 0
M  POLY_PROPERTIES ALPHA_AA D_AA PROTEIN AROMATIC POLYMER 
M  END

$$$$



 32 32  0  0  0  0  0  0  0  0999 V2000
   -0.0102    2.1245   -2.7178 H   0  0  0  1  0  0  0  0  0  0  0  0
   -1.0029    3.7889   -3.5453 C   0  0  0  1  0  0  0  0  0  0  0  0
   -1.8779    1.4827   -3.3425 N   0  0  0  1  0  0  0  0  0  0  0  0
   -1.0110    2.5022   -2.7407 C   0  0  0  1  0  0  0  0  0  0  0  0
   -0.0949    4.6062   -3.4004 O   0  0  0  1  0  0  0  0  0  0  0  0
   -2.0598    4.0223   -4.3333 N   0  0  0  1  0  0  0  0  0  0  0  0
   -1.4478    0.7711   -3.8613 H   0  0  0  1  0  0  0  0  0  0  0  0
   -3.2073    1.4514   -3.2368 C   0  0  0  1  0  0  0  0  0  0  0  0
   -2.2474    5.2874   -5.0277 C   0  0  0  1  0  0  0  0  0  0  0  0
   -3.9151    0.4447   -4.1226 C   0  0  0  1  0  0  0  0  0  0  0  0
   -3.8350    2.1835   -2.4763 O   0  0  0  1  0  0  0  0  0  0  0  0
   -2.7304    3.3167   -4.4463 H   0  0  0  1  0  0  0  0  0  0  0  0
   -2.5571    5.0996   -6.0345 H   0  0  0  1  0  0  0  0  0  0  0  0
   -1.3257    5.8307   -5.0338 H   0  0  0  1  0  0  0  0  0  0  0  0
   -2.9974    5.8619   -4.5254 H   0  0  0  1  0  0  0  0  0  0  0  0
   -4.7488    0.9142   -4.6014 H   0  0  0  1  0  0  0  0  0  0  0  0
   -4.2610   -0.3736   -3.5262 H   0  0  0  1  0  0  0  0  0  0  0  0
   -3.2349    0.0830   -4.8652 H   0  0  0  1  0  0  0  0  0  0  0  0
   -2.8353    8.8006   -0.0169 I   0  0  0  1  0  0  0  0  0  0  0  0
   -2.3632    6.8066   -0.4282 C   0  0  0  1  0  0  0  0  0  0  0  0
   -1.1090    6.3104   -0.1083 C   0  0  0  1  0  0  0  0  0  0  0  0
   -0.7955    4.9932   -0.3854 C   0  0  0  1  0  0  0  0  0  0  0  0
   -1.7371    4.1668   -0.9784 C   0  0  0  1  0  0  0  0  0  0  0  0
   -2.9877    4.6613   -1.2976 C   0  0  0  1  0  0  0  0  0  0  0  0
   -3.3020    5.9825   -1.0196 C   0  0  0  1  0  0  0  0  0  0  0  0
   -1.4543    2.7182   -1.2996 C   0  0  0  1  0  0  0  0  0  0  0  0
   -0.4039    6.9294    0.3404 H   0  0  0  1  0  0  0  0  0  0  0  0
    0.1469    4.6221   -0.1489 H   0  0  0  1  0  0  0  0  0  0  0  0
   -3.6928    4.0423   -1.7462 H   0  0  0  1  0  0  0  0  0  0  0  0
   -4.2443    6.3536   -1.2560 H   0  0  0  1  0  0  0  0  0  0  0  0
   -0.6793    2.3702   -0.6491 H   0  0  0  1  0  0  0  0  0  0  0  0
   -2.3455    2.1512   -1.1288 H   0  0  0  1  0  0  0  0  0  0  0  0
  1  4  1  0  0  0  0
  2  4  1  0  0  0  0
  2  5  2  0  0  0  0
  2  6  1  0  0  0  0
  3  4  1  0  0  0  0
  3  7  1  0  0  0  0
  3  8  1  0  0  0  0
  4 26  1  0  0  0  0
  6  9  1  0  0  0  0
  6 12  1  0  0  0  0
  8 10  1  0  0  0  0
  8 11  2  0  0  0  0
  9 13  1  0  0  0  0
  9 14  1  0  0  0  0
  9 15  1  0  0  0  0
 10 16  1  0  0  0  0
 10 17  1  0  0  0  0
 10 18  1  0  0  0  0
 19 20  1  0  0  0  0
 20 21  4  0  0  0  0
 20 25  4  0  0  0  0
 21 22  4  0  0  0  0
 21 27  1  0  0  0  0
 22 23  4  0  0  0  0
 22 28  1  0  0  0  0
 23 24  4  0  0  0  0
 23 26  1  0  0  0  0
 24 25  4  0  0  0  0
 24 29  1  0  0  0  0
 25 30  1  0  0  0  0
 26 31  1  0  0  0  0
 26 32  1  0  0  0  0
M  END
> <BCLConfClusterSize>
1

> <ConfClashScore>
0 

> <ConfOneFourInteractionScore>
-0.940738 

> <ConfScore>
0.685309 

> <ConfScorePBest>
0.00225161 

> <ConfTolerance>
1.00105 

> <RosettaParamsInstructions>
M  ROOT 3
M  POLY_N_BB 3
M  POLY_CA_BB 4
M  POLY_C_BB 2
M  POLY_O_BB 5
M  POLY_IGNORE 9 10 11 12 13 14 15 16 17 18 
M  POLY_UPPER 6
M  POLY_LOWER 8
M  POLY_CHG 0
M  POLY_PROPERTIES ALPHA_AA D_AA PROTEIN AROMATIC POLYMER 
M  END

$$$$



 32 32  0  0  0  0  0  0  0  0999 V2000
   -0.4682    2.4488    0.5910 H   0  0  0  1  0  0  0  0  0  0  0  0
   -0.8696    0.5218   -0.1650 C   0  0  0  1  0  0  0  0  0  0  0  0
   -2.5042    2.1506    0.7648 N   0  0  0  1  0  0  0  0  0  0  0  0
   -1.2539    1.9740    0.0413 C   0  0  0  1  0  0  0  0  0  0  0  0
    0.1365    0.2125   -0.7977 O   0  0  0  1  0  0  0  0  0  0  0  0
   -1.6946   -0.3835    0.3845 N   0  0  0  1  0  0  0  0  0  0  0  0
   -3.2879    2.4847    0.2804 H   0  0  0  1  0  0  0  0  0  0  0  0
   -2.6209    1.8729    2.0665 C   0  0  0  1  0  0  0  0  0  0  0  0
   -1.3979   -1.8082    0.3819 C   0  0  0  1  0  0  0  0  0  0  0  0
   -1.3236    1.4620    2.7594 C   0  0  0  1  0  0  0  0  0  0  0  0
   -3.6914    1.8665    2.6711 O   0  0  0  1  0  0  0  0  0  0  0  0
   -2.5256   -0.0742    0.8019 H   0  0  0  1  0  0  0  0  0  0  0  0
   -2.0887   -2.3157   -0.2585 H   0  0  0  1  0  0  0  0  0  0  0  0
   -1.4858   -2.1924    1.3767 H   0  0  0  1  0  0  0  0  0  0  0  0
   -0.4011   -1.9640    0.0256 H   0  0  0  1  0  0  0  0  0  0  0  0
   -1.5344    0.7205    3.5014 H   0  0  0  1  0  0  0  0  0  0  0  0
   -0.8823    2.3178    3.2260 H   0  0  0  1  0  0  0  0  0  0  0  0
   -0.6452    1.0599    2.0362 H   0  0  0  1  0  0  0  0  0  0  0  0
   -2.8298    8.8015   -0.0145 I   0  0  0  1  0  0  0  0  0  0  0  0
   -2.3639    6.8066   -0.4285 C   0  0  0  1  0  0  0  0  0  0  0  0
   -1.1110    6.3063   -0.1102 C   0  0  0  1  0  0  0  0  0  0  0  0
   -0.8016    4.9885   -0.3890 C   0  0  0  1  0  0  0  0  0  0  0  0
   -1.7462    4.1655   -0.9822 C   0  0  0  1  0  0  0  0  0  0  0  0
   -2.9956    4.6641   -1.2997 C   0  0  0  1  0  0  0  0  0  0  0  0
   -3.3057    5.9859   -1.0199 C   0  0  0  1  0  0  0  0  0  0  0  0
   -1.4108    2.7236   -1.2819 C   0  0  0  1  0  0  0  0  0  0  0  0
   -0.4036    6.9227    0.3385 H   0  0  0  1  0  0  0  0  0  0  0  0
    0.1398    4.6143   -0.1538 H   0  0  0  1  0  0  0  0  0  0  0  0
   -3.7029    4.0477   -1.7484 H   0  0  0  1  0  0  0  0  0  0  0  0
   -4.2471    6.3601   -1.2551 H   0  0  0  1  0  0  0  0  0  0  0  0
   -2.1991    2.2819   -1.8550 H   0  0  0  1  0  0  0  0  0  0  0  0
   -0.4961    2.6738   -1.8348 H   0  0  0  1  0  0  0  0  0  0  0  0
  1  4  1  0  0  0  0
  2  4  1  0  0  0  0
  2  5  2  0  0  0  0
  2  6  1  0  0  0  0
  3  4  1  0  0  0  0
  3  7  1  0  0  0  0
  3  8  1  0  0  0  0
  4 26  1  0  0  0  0
  6  9  1  0  0  0  0
  6 12  1  0  0  0  0
  8 10  1  0  0  0  0
  8 11  2  0  0  0  0
  9 13  1  0  0  0  0
  9 14  1  0  0  0  0
  9 15  1  0  0  0  0
 10 16  1  0  0  0  0
 10 17  1  0  0  0  0
 10 18  1  0  0  0  0
 19 20  1  0  0  0  0
 20 21  4  0  0  0  0
 20 25  4  0  0  0  0
 21 22  4  0  0  0  0
 21 27  1  0  0  0  0
 22 23  4  0  0  0  0
 22 28  1  0  0  0  0
 23 24  4  0  0  0  0
 23 26  1  0  0  0  0
 24 25  4  0  0  0  0
 24 29  1  0  0  0  0
 25 30  1  0  0  0  0
 26 31  1  0  0  0  0
 26 32  1  0  0  0  0
M  END
> <BCLConfClusterSize>
1

> <ConfClashScore>
0 

> <ConfOneFourInteractionScore>
-0.960318 

> <ConfScore>
0.686652 

> <ConfScorePBest>
0.00222313 

> <ConfTolerance>
1.44747 

> <RosettaParamsInstructions>
M  ROOT 3
M  POLY_N_BB 3
M  POLY_CA_BB 4
M  POLY_C_BB 2
M  POLY_O_BB 5
M  POLY_IGNORE 9 10 11 12 13 14 15 16 17 18 
M  POLY_UPPER 6
M  POLY_LOWER 8
M  POLY_CHG 0
M  POLY_PROPERTIES ALPHA_AA D_AA PROTEIN AROMATIC POLYMER 
M  END

$$$$



 32 32  0  0  0  0  0  0  0  0999 V2000
   -2.5860    1.7211    0.0050 H   0  0  0  1  0  0  0  0  0  0  0  0
   -0.7986    2.1583    1.0364 C   0  0  0  1  0  0  0  0  0  0  0  0
   -1.1347    0.4504   -0.7530 N   0  0  0  1  0  0  0  0  0  0  0  0
   -1.5411    1.7544   -0.2230 C   0  0  0  1  0  0  0  0  0  0  0  0
    0.3954    1.8989    1.1804 O   0  0  0  1  0  0  0  0  0  0  0  0
   -1.4854    2.8771    1.9221 N   0  0  0  1  0  0  0  0  0  0  0  0
   -0.4498    0.3986   -1.4520 H   0  0  0  1  0  0  0  0  0  0  0  0
   -1.6983   -0.6730   -0.2834 C   0  0  0  1  0  0  0  0  0  0  0  0
   -2.8809    3.2358    1.7176 C   0  0  0  1  0  0  0  0  0  0  0  0
   -1.4547   -1.9622   -1.0782 C   0  0  0  1  0  0  0  0  0  0  0  0
   -2.4494   -0.6767    0.6910 O   0  0  0  1  0  0  0  0  0  0  0  0
   -1.0355    3.1750    2.7402 H   0  0  0  1  0  0  0  0  0  0  0  0
   -3.0836    3.2982    0.6689 H   0  0  0  1  0  0  0  0  0  0  0  0
   -3.0762    4.1829    2.1754 H   0  0  0  1  0  0  0  0  0  0  0  0
   -3.5089    2.4898    2.1582 H   0  0  0  1  0  0  0  0  0  0  0  0
   -2.2113   -2.0683   -1.8273 H   0  0  0  1  0  0  0  0  0  0  0  0
   -1.4894   -2.8014   -0.4153 H   0  0  0  1  0  0  0  0  0  0  0  0
   -0.4936   -1.9162   -1.5462 H   0  0  0  1  0  0  0  0  0  0  0  0
   -2.7752    8.8264   -0.0920 I   0  0  0  1  0  0  0  0  0  0  0  0
   -2.3772    6.7990   -0.4072 C   0  0  0  1  0  0  0  0  0  0  0  0
   -1.1235    6.2987   -0.0918 C   0  0  0  1  0  0  0  0  0  0  0  0
   -0.8127    4.9826   -0.3771 C   0  0  0  1  0  0  0  0  0  0  0  0
   -1.7566    4.1614   -0.9739 C   0  0  0  1  0  0  0  0  0  0  0  0
   -3.0067    4.6600   -1.2884 C   0  0  0  1  0  0  0  0  0  0  0  0
   -3.3183    5.9801   -1.0022 C   0  0  0  1  0  0  0  0  0  0  0  0
   -1.3467    2.7577   -1.3523 C   0  0  0  1  0  0  0  0  0  0  0  0
   -0.4167    6.9137    0.3596 H   0  0  0  1  0  0  0  0  0  0  0  0
    0.1292    4.6084   -0.1441 H   0  0  0  1  0  0  0  0  0  0  0  0
   -3.7135    4.0449   -1.7398 H   0  0  0  1  0  0  0  0  0  0  0  0
   -4.2602    6.3543   -1.2352 H   0  0  0  1  0  0  0  0  0  0  0  0
   -1.9345    2.4455   -2.1902 H   0  0  0  1  0  0  0  0  0  0  0  0
   -0.3122    2.7670   -1.6254 H   0  0  0  1  0  0  0  0  0  0  0  0
  1  4  1  0  0  0  0
  2  4  1  0  0  0  0
  2  5  2  0  0  0  0
  2  6  1  0  0  0  0
  3  4  1  0  0  0  0
  3  7  1  0  0  0  0
  3  8  1  0  0  0  0
  4 26  1  0  0  0  0
  6  9  1  0  0  0  0
  6 12  1  0  0  0  0
  8 10  1  0  0  0  0
  8 11  2  0  0  0  0
  9 13  1  0  0  0  0
  9 14  1  0  0  0  0
  9 15  1  0  0  0  0
 10 16  1  0  0  0  0
 10 17  1  0  0  0  0
 10 18  1  0  0  0  0
 19 20  1  0  0  0  0
 20 21  4  0  0  0  0
 20 25  4  0  0  0  0
 21 22  4  0  0  0  0
 21 27  1  0  0  0  0
 22 23  4  0  0  0  0
 22 28  1  0  0  0  0
 23 24  4  0  0  0  0
 23 26  1  0  0  0  0
 24 25  4  0  0  0  0
 24 29  1  0  0  0  0
 25 30  1  0  0  0  0
 26 31  1  0  0  0  0
 26 32  1  0  0  0  0
M  END
> <BCLConfClusterSize>
1

> <ConfClashScore>
0 

> <ConfOneFourInteractionScore>
-0.985807 

> <ConfScore>
0.713213 

> <ConfScorePBest>
0.00219465 

> <ConfTolerance>
1.87771 

> <RosettaParamsInstructions>
M  ROOT 3
M  POLY_N_BB 3
M  POLY_CA_BB 4
M  POLY_C_BB 2
M  POLY_O_BB 5
M  POLY_IGNORE 9 10 11 12 13 14 15 16 17 18 
M  POLY_UPPER 6
M  POLY_LOWER 8
M  POLY_CHG 0
M  POLY_PROPERTIES ALPHA_AA D_AA PROTEIN AROMATIC POLYMER 
M  END

$$$$



 32 32  0  0  0  0  0  0  0  0999 V2000
   -1.3038    2.2762    0.7800 H   0  0  0  1  0  0  0  0  0  0  0  0
   -1.3363    0.4343   -0.2333 C   0  0  0  1  0  0  0  0  0  0  0  0
   -3.2387    1.9538    0.1576 N   0  0  0  1  0  0  0  0  0  0  0  0
   -1.8044    1.8689   -0.0735 C   0  0  0  1  0  0  0  0  0  0  0  0
   -2.1446   -0.4448   -0.5197 O   0  0  0  1  0  0  0  0  0  0  0  0
   -0.0158    0.2141   -0.1327 N   0  0  0  1  0  0  0  0  0  0  0  0
   -3.5601    2.3374    1.0002 H   0  0  0  1  0  0  0  0  0  0  0  0
   -4.1306    1.5280   -0.7370 C   0  0  0  1  0  0  0  0  0  0  0  0
    0.9763    1.2300    0.1859 C   0  0  0  1  0  0  0  0  0  0  0  0
   -5.5864    1.7147   -0.3560 C   0  0  0  1  0  0  0  0  0  0  0  0
   -3.8124    1.0149   -1.8065 O   0  0  0  1  0  0  0  0  0  0  0  0
    0.3041   -0.6995   -0.2853 H   0  0  0  1  0  0  0  0  0  0  0  0
    1.2478    1.1529    1.2180 H   0  0  0  1  0  0  0  0  0  0  0  0
    0.5665    2.2002   -0.0033 H   0  0  0  1  0  0  0  0  0  0  0  0
    1.8441    1.0839   -0.4228 H   0  0  0  1  0  0  0  0  0  0  0  0
   -5.8936    0.9141    0.2840 H   0  0  0  1  0  0  0  0  0  0  0  0
   -6.1889    1.7153   -1.2403 H   0  0  0  1  0  0  0  0  0  0  0  0
   -5.7039    2.6463    0.1570 H   0  0  0  1  0  0  0  0  0  0  0  0
   -2.8298    8.8015   -0.0145 I   0  0  0  1  0  0  0  0  0  0  0  0
   -2.3639    6.8066   -0.4285 C   0  0  0  1  0  0  0  0  0  0  0  0
   -1.1110    6.3063   -0.1102 C   0  0  0  1  0  0  0  0  0  0  0  0
   -0.8016    4.9885   -0.3890 C   0  0  0  1  0  0  0  0  0  0  0  0
   -1.7462    4.1655   -0.9822 C   0  0  0  1  0  0  0  0  0  0  0  0
   -2.9956    4.6641   -1.2997 C   0  0  0  1  0  0  0  0  0  0  0  0
   -3.3057    5.9859   -1.0199 C   0  0  0  1  0  0  0  0  0  0  0  0
   -1.4108    2.7236   -1.2819 C   0  0  0  1  0  0  0  0  0  0  0  0
   -0.4036    6.9227    0.3385 H   0  0  0  1  0  0  0  0  0  0  0  0
    0.1398    4.6143   -0.1538 H   0  0  0  1  0  0  0  0  0  0  0  0
   -3.7029    4.0477   -1.7484 H   0  0  0  1  0  0  0  0  0  0  0  0
   -4.2471    6.3601   -1.2551 H   0  0  0  1  0  0  0  0  0  0  0  0
   -1.9539    2.3992   -2.1449 H   0  0  0  1  0  0  0  0  0  0  0  0
   -0.3608    2.6282   -1.4640 H   0  0  0  1  0  0  0  0  0  0  0  0
  1  4  1  0  0  0  0
  2  4  1  0  0  0  0
  2  5  2  0  0  0  0
  2  6  1  0  0  0  0
  3  4  1  0  0  0  0
  3  7  1  0  0  0  0
  3  8  1  0  0  0  0
  4 26  1  0  0  0  0
  6  9  1  0  0  0  0
  6 12  1  0  0  0  0
  8 10  1  0  0  0  0
  8 11  2  0  0  0  0
  9 13  1  0  0  0  0
  9 14  1  0  0  0  0
  9 15  1  0  0  0  0
 10 16  1  0  0  0  0
 10 17  1  0  0  0  0
 10 18  1  0  0  0  0
 19 20  1  0  0  0  0
 20 21  4  0  0  0  0
 20 25  4  0  0  0  0
 21 22  4  0  0  0  0
 21 27  1  0  0  0  0
 22 23  4  0  0  0  0
 22 28  1  0  0  0  0
 23 24  4  0  0  0  0
 23 26  1  0  0  0  0
 24 25  4  0  0  0  0
 24 29  1  0  0  0  0
 25 30  1  0  0  0  0
 26 31  1  0  0  0  0
 26 32  1  0  0  0  0
M  END
> <BCLConfClusterSize>
1

> <ConfClashScore>
0 

> <ConfOneFourInteractionScore>
-0.984199 

> <ConfScore>
0.798286 

> <ConfScorePBest>
0.00216617 

> <ConfTolerance>
1.89871 

> <RosettaParamsInstructions>
M  ROOT 3
M  POLY_N_BB 3
M  POLY_CA_BB 4
M  POLY_C_BB 2
M  POLY_O_BB 5
M  POLY_IGNORE 9 10 11 12 13 14 15 16 17 18 
M  POLY_UPPER 6
M  POLY_LOWER 8
M  POLY_CHG 0
M  POLY_PROPERTIES ALPHA_AA D_AA PROTEIN AROMATIC POLYMER 
M  END

$$$$
