


 34 34  0  0  0  0  0  0  0  0999 V2000
   -0.0602    3.6659   -0.0668 H   0  0  0  1  0  0  0  0  0  0  0  0
   -1.7879    3.4161    1.0701 C   0  0  0  1  0  0  0  0  0  0  0  0
   -1.4573    4.9897   -0.7818 N   0  0  0  1  0  0  0  0  0  0  0  0
   -1.1113    3.6521   -0.2662 C   0  0  0  1  0  0  0  0  0  0  0  0
   -2.0022    4.3434    1.8498 O   0  0  0  1  0  0  0  0  0  0  0  0
   -2.1271    2.1531    1.3329 N   0  0  0  1  0  0  0  0  0  0  0  0
   -1.9229    5.0594   -1.6413 H   0  0  0  1  0  0  0  0  0  0  0  0
   -1.1583    6.1081   -0.1191 C   0  0  0  1  0  0  0  0  0  0  0  0
   -2.6029    1.6688    2.6201 C   0  0  0  1  0  0  0  0  0  0  0  0
   -1.4507    7.4045   -0.8491 C   0  0  0  1  0  0  0  0  0  0  0  0
   -0.6796    6.1074    1.0037 O   0  0  0  1  0  0  0  0  0  0  0  0
   -2.0501    1.5023    0.6042 H   0  0  0  1  0  0  0  0  0  0  0  0
   -3.1508    2.4444    3.1132 H   0  0  0  1  0  0  0  0  0  0  0  0
   -1.7673    1.3832    3.2244 H   0  0  0  1  0  0  0  0  0  0  0  0
   -3.2403    0.8227    2.4691 H   0  0  0  1  0  0  0  0  0  0  0  0
   -2.5041    7.4910   -1.0157 H   0  0  0  1  0  0  0  0  0  0  0  0
   -0.9397    7.4072   -1.7892 H   0  0  0  1  0  0  0  0  0  0  0  0
   -1.1144    8.2303   -0.2575 H   0  0  0  1  0  0  0  0  0  0  0  0
   -1.3273    2.5407   -1.2969 C   0  0  0  1  0  0  0  0  0  0  0  0
   -2.7280    2.5113   -1.8476 C   0  0  0  1  0  0  0  0  0  0  0  0
   -2.9986    3.1283   -3.0591 C   0  0  0  1  0  0  0  0  0  0  0  0
   -4.2970    3.1886   -3.5289 C   0  0  0  1  0  0  0  0  0  0  0  0
   -5.3278    2.6274   -2.7914 C   0  0  0  1  0  0  0  0  0  0  0  0
   -5.0579    2.0122   -1.5836 C   0  0  0  1  0  0  0  0  0  0  0  0
   -3.7557    1.9517   -1.1122 C   0  0  0  1  0  0  0  0  0  0  0  0
   -6.5918    2.6947   -3.2758 O   0  0  0  1  0  0  0  0  0  0  0  0
   -4.6567    3.7744   -4.6969 O   0  0  0  1  0  0  0  0  0  0  0  0
   -1.1250    1.5994   -0.8302 H   0  0  0  1  0  0  0  0  0  0  0  0
   -0.6456    2.6912   -2.1079 H   0  0  0  1  0  0  0  0  0  0  0  0
   -2.2247    3.5458   -3.6144 H   0  0  0  1  0  0  0  0  0  0  0  0
   -5.8318    1.5947   -1.0283 H   0  0  0  1  0  0  0  0  0  0  0  0
   -3.5521    1.4853   -0.2052 H   0  0  0  1  0  0  0  0  0  0  0  0
   -6.7209    2.0054   -3.9314 H   0  0  0  1  0  0  0  0  0  0  0  0
   -5.3529    3.2602   -5.1122 H   0  0  0  1  0  0  0  0  0  0  0  0
  1  4  1  0  0  0  0
  2  4  1  0  0  0  0
  2  5  2  0  0  0  0
  2  6  1  0  0  0  0
  3  4  1  0  0  0  0
  3  7  1  0  0  0  0
  3  8  1  0  0  0  0
  4 19  1  0  0  0  0
  6  9  1  0  0  0  0
  6 12  1  0  0  0  0
  8 10  1  0  0  0  0
  8 11  2  0  0  0  0
  9 13  1  0  0  0  0
  9 14  1  0  0  0  0
  9 15  1  0  0  0  0
 10 16  1  0  0  0  0
 10 17  1  0  0  0  0
 10 18  1  0  0  0  0
 19 20  1  0  0  0  0
 19 28  1  0  0  0  0
 19 29  1  0  0  0  0
 20 21  4  0  0  0  0
 20 25  4  0  0  0  0
 21 22  4  0  0  0  0
 21 30  1  0  0  0  0
 22 23  4  0  0  0  0
 22 27  1  0  0  0  0
 23 24  4  0  0  0  0
 23 26  1  0  0  0  0
 24 25  4  0  0  0  0
 24 31  1  0  0  0  0
 25 32  1  0  0  0  0
 26 33  1  0  0  0  0
 27 34  1  0  0  0  0
M  END
> <BCLConfClusterSize>
1

> <ConfClashScore>
0 

> <ConfOneFourInteractionScore>
-0.95103 

> <ConfScore>
-0.117412 

> <ConfScorePBest>
0.00783383 

> <ConfTolerance>
0.232523 

> <RosettaParamsInstructions>
M  ROOT 3
M  POLY_N_BB 3
M  POLY_CA_BB 4
M  POLY_C_BB 2
M  POLY_O_BB 5
M  POLY_IGNORE 9 10 11 12 13 14 15 16 17 18 
M  POLY_UPPER 6
M  POLY_LOWER 8
M  POLY_CHG 0
M  POLY_PROPERTIES ALPHA_AA D_AA PROTEIN AROMATIC POLYMER 
M  END

$$$$



 34 34  0  0  0  0  0  0  0  0999 V2000
    0.4503    1.5352   -1.4034 H   0  0  0  1  0  0  0  0  0  0  0  0
   -0.5477    1.1764   -3.2428 C   0  0  0  1  0  0  0  0  0  0  0  0
   -1.1258    0.2181   -1.0752 N   0  0  0  1  0  0  0  0  0  0  0  0
   -0.5533    1.3791   -1.7401 C   0  0  0  1  0  0  0  0  0  0  0  0
   -0.4299    0.0537   -3.7265 O   0  0  0  1  0  0  0  0  0  0  0  0
   -0.6751    2.2591   -4.0261 N   0  0  0  1  0  0  0  0  0  0  0  0
   -1.9806    0.3155   -0.6060 H   0  0  0  1  0  0  0  0  0  0  0  0
   -0.5265   -0.9760   -1.0822 C   0  0  0  1  0  0  0  0  0  0  0  0
   -0.7180    2.1675   -5.4779 C   0  0  0  1  0  0  0  0  0  0  0  0
   -1.2431   -2.0806   -0.3163 C   0  0  0  1  0  0  0  0  0  0  0  0
    0.5279   -1.1870   -1.6597 O   0  0  0  1  0  0  0  0  0  0  0  0
   -0.7415    3.1419   -3.6057 H   0  0  0  1  0  0  0  0  0  0  0  0
   -0.9874    1.1726   -5.7652 H   0  0  0  1  0  0  0  0  0  0  0  0
    0.2450    2.4058   -5.8787 H   0  0  0  1  0  0  0  0  0  0  0  0
   -1.4433    2.8568   -5.8572 H   0  0  0  1  0  0  0  0  0  0  0  0
   -1.8628   -1.6466    0.4403 H   0  0  0  1  0  0  0  0  0  0  0  0
   -0.5206   -2.7241    0.1406 H   0  0  0  1  0  0  0  0  0  0  0  0
   -1.8494   -2.6471   -0.9919 H   0  0  0  1  0  0  0  0  0  0  0  0
   -1.3868    2.6181   -1.4095 C   0  0  0  1  0  0  0  0  0  0  0  0
   -2.8065    2.5341   -1.9299 C   0  0  0  1  0  0  0  0  0  0  0  0
   -3.1274    3.1330   -3.1382 C   0  0  0  1  0  0  0  0  0  0  0  0
   -4.4378    3.1434   -3.5776 C   0  0  0  1  0  0  0  0  0  0  0  0
   -5.4302    2.5503   -2.8128 C   0  0  0  1  0  0  0  0  0  0  0  0
   -5.1100    1.9532   -1.6082 C   0  0  0  1  0  0  0  0  0  0  0  0
   -3.7959    1.9427   -1.1673 C   0  0  0  1  0  0  0  0  0  0  0  0
   -6.6905    2.5944   -3.3092 O   0  0  0  1  0  0  0  0  0  0  0  0
   -4.7273    3.7398   -4.7597 O   0  0  0  1  0  0  0  0  0  0  0  0
   -0.9141    3.4730   -1.8459 H   0  0  0  1  0  0  0  0  0  0  0  0
   -1.4201    2.7323   -0.3461 H   0  0  0  1  0  0  0  0  0  0  0  0
   -2.3823    3.5745   -3.7139 H   0  0  0  1  0  0  0  0  0  0  0  0
   -5.8552    1.5118   -1.0325 H   0  0  0  1  0  0  0  0  0  0  0  0
   -3.5544    1.4898   -0.2627 H   0  0  0  1  0  0  0  0  0  0  0  0
   -7.1689    1.8071   -3.0393 H   0  0  0  1  0  0  0  0  0  0  0  0
   -3.9501    3.7285   -5.3231 H   0  0  0  1  0  0  0  0  0  0  0  0
  1  4  1  0  0  0  0
  2  4  1  0  0  0  0
  2  5  2  0  0  0  0
  2  6  1  0  0  0  0
  3  4  1  0  0  0  0
  3  7  1  0  0  0  0
  3  8  1  0  0  0  0
  4 19  1  0  0  0  0
  6  9  1  0  0  0  0
  6 12  1  0  0  0  0
  8 10  1  0  0  0  0
  8 11  2  0  0  0  0
  9 13  1  0  0  0  0
  9 14  1  0  0  0  0
  9 15  1  0  0  0  0
 10 16  1  0  0  0  0
 10 17  1  0  0  0  0
 10 18  1  0  0  0  0
 19 20  1  0  0  0  0
 19 28  1  0  0  0  0
 19 29  1  0  0  0  0
 20 21  4  0  0  0  0
 20 25  4  0  0  0  0
 21 22  4  0  0  0  0
 21 30  1  0  0  0  0
 22 23  4  0  0  0  0
 22 27  1  0  0  0  0
 23 24  4  0  0  0  0
 23 26  1  0  0  0  0
 24 25  4  0  0  0  0
 24 31  1  0  0  0  0
 25 32  1  0  0  0  0
 26 33  1  0  0  0  0
 27 34  1  0  0  0  0
M  END
> <BCLConfClusterSize>
1

> <ConfClashScore>
0 

> <ConfOneFourInteractionScore>
-0.955611 

> <ConfScore>
-0.0906889 

> <ConfScorePBest>
0.00780535 

> <ConfTolerance>
0.268507 

> <RosettaParamsInstructions>
M  ROOT 3
M  POLY_N_BB 3
M  POLY_CA_BB 4
M  POLY_C_BB 2
M  POLY_O_BB 5
M  POLY_IGNORE 9 10 11 12 13 14 15 16 17 18 
M  POLY_UPPER 6
M  POLY_LOWER 8
M  POLY_CHG 0
M  POLY_PROPERTIES ALPHA_AA D_AA PROTEIN AROMATIC POLYMER 
M  END

$$$$



 34 34  0  0  0  0  0  0  0  0999 V2000
    0.0253    3.9417   -0.4572 H   0  0  0  1  0  0  0  0  0  0  0  0
   -1.8684    4.4062    0.3463 C   0  0  0  1  0  0  0  0  0  0  0  0
   -1.0066    4.9887   -1.8977 N   0  0  0  1  0  0  0  0  0  0  0  0
   -0.9773    4.0047   -0.8259 C   0  0  0  1  0  0  0  0  0  0  0  0
   -2.1712    5.5680    0.5490 O   0  0  0  1  0  0  0  0  0  0  0  0
   -2.2676    3.3663    1.1041 N   0  0  0  1  0  0  0  0  0  0  0  0
   -1.2222    4.6920   -2.8064 H   0  0  0  1  0  0  0  0  0  0  0  0
   -0.7499    6.2827   -1.6858 C   0  0  0  1  0  0  0  0  0  0  0  0
   -3.0534    3.5977    2.3069 C   0  0  0  1  0  0  0  0  0  0  0  0
   -0.7926    7.1723   -2.9129 C   0  0  0  1  0  0  0  0  0  0  0  0
   -0.4932    6.7413   -0.5734 O   0  0  0  1  0  0  0  0  0  0  0  0
   -2.0283    2.4520    0.8448 H   0  0  0  1  0  0  0  0  0  0  0  0
   -3.1300    4.6498    2.4865 H   0  0  0  1  0  0  0  0  0  0  0  0
   -2.5755    3.1276    3.1408 H   0  0  0  1  0  0  0  0  0  0  0  0
   -4.0326    3.1860    2.1776 H   0  0  0  1  0  0  0  0  0  0  0  0
   -0.6696    6.5746   -3.7919 H   0  0  0  1  0  0  0  0  0  0  0  0
   -0.0034    7.8928   -2.8585 H   0  0  0  1  0  0  0  0  0  0  0  0
   -1.7350    7.6773   -2.9544 H   0  0  0  1  0  0  0  0  0  0  0  0
   -1.3514    2.6268   -1.3638 C   0  0  0  1  0  0  0  0  0  0  0  0
   -2.7612    2.5023   -1.9077 C   0  0  0  1  0  0  0  0  0  0  0  0
   -3.0879    2.9343   -3.1837 C   0  0  0  1  0  0  0  0  0  0  0  0
   -4.4015    2.8943   -3.6116 C   0  0  0  1  0  0  0  0  0  0  0  0
   -5.3915    2.4173   -2.7667 C   0  0  0  1  0  0  0  0  0  0  0  0
   -5.0657    1.9867   -1.4945 C   0  0  0  1  0  0  0  0  0  0  0  0
   -3.7483    2.0267   -1.0652 C   0  0  0  1  0  0  0  0  0  0  0  0
   -6.7025    2.3363   -3.1006 O   0  0  0  1  0  0  0  0  0  0  0  0
   -4.7705    3.3101   -4.8475 O   0  0  0  1  0  0  0  0  0  0  0  0
   -1.2413    1.9205   -0.5676 H   0  0  0  1  0  0  0  0  0  0  0  0
   -0.6707    2.3845   -2.1530 H   0  0  0  1  0  0  0  0  0  0  0  0
   -2.3445    3.2884   -3.8191 H   0  0  0  1  0  0  0  0  0  0  0  0
   -5.8090    1.6326   -0.8591 H   0  0  0  1  0  0  0  0  0  0  0  0
   -3.5026    1.6989   -0.1092 H   0  0  0  1  0  0  0  0  0  0  0  0
   -6.7949    2.4007   -4.0540 H   0  0  0  1  0  0  0  0  0  0  0  0
   -4.6915    4.2654   -4.9011 H   0  0  0  1  0  0  0  0  0  0  0  0
  1  4  1  0  0  0  0
  2  4  1  0  0  0  0
  2  5  2  0  0  0  0
  2  6  1  0  0  0  0
  3  4  1  0  0  0  0
  3  7  1  0  0  0  0
  3  8  1  0  0  0  0
  4 19  1  0  0  0  0
  6  9  1  0  0  0  0
  6 12  1  0  0  0  0
  8 10  1  0  0  0  0
  8 11  2  0  0  0  0
  9 13  1  0  0  0  0
  9 14  1  0  0  0  0
  9 15  1  0  0  0  0
 10 16  1  0  0  0  0
 10 17  1  0  0  0  0
 10 18  1  0  0  0  0
 19 20  1  0  0  0  0
 19 28  1  0  0  0  0
 19 29  1  0  0  0  0
 20 21  4  0  0  0  0
 20 25  4  0  0  0  0
 21 22  4  0  0  0  0
 21 30  1  0  0  0  0
 22 23  4  0  0  0  0
 22 27  1  0  0  0  0
 23 24  4  0  0  0  0
 23 26  1  0  0  0  0
 24 25  4  0  0  0  0
 24 31  1  0  0  0  0
 25 32  1  0  0  0  0
 26 33  1  0  0  0  0
 27 34  1  0  0  0  0
M  END
> <BCLConfClusterSize>
1

> <ConfClashScore>
0 

> <ConfOneFourInteractionScore>
-0.949142 

> <ConfScore>
-0.0804693 

> <ConfScorePBest>
0.00777687 

> <ConfTolerance>
0.321704 

> <RosettaParamsInstructions>
M  ROOT 3
M  POLY_N_BB 3
M  POLY_CA_BB 4
M  POLY_C_BB 2
M  POLY_O_BB 5
M  POLY_IGNORE 9 10 11 12 13 14 15 16 17 18 
M  POLY_UPPER 6
M  POLY_LOWER 8
M  POLY_CHG 0
M  POLY_PROPERTIES ALPHA_AA D_AA PROTEIN AROMATIC POLYMER 
M  END

$$$$



 34 34  0  0  0  0  0  0  0  0999 V2000
   -1.4823    4.6293   -0.9346 H   0  0  0  1  0  0  0  0  0  0  0  0
    0.3107    4.0298   -0.0230 C   0  0  0  1  0  0  0  0  0  0  0  0
   -1.9829    3.6106    0.7885 N   0  0  0  1  0  0  0  0  0  0  0  0
   -1.1388    3.7611   -0.4120 C   0  0  0  1  0  0  0  0  0  0  0  0
    0.6107    4.4586    1.0904 O   0  0  0  1  0  0  0  0  0  0  0  0
    1.1905    3.7553   -0.9981 N   0  0  0  1  0  0  0  0  0  0  0  0
   -2.8440    4.0783    0.7983 H   0  0  0  1  0  0  0  0  0  0  0  0
   -1.6624    2.8862    1.8610 C   0  0  0  1  0  0  0  0  0  0  0  0
    2.6266    3.9737   -0.9102 C   0  0  0  1  0  0  0  0  0  0  0  0
   -2.6722    2.8967    2.9863 C   0  0  0  1  0  0  0  0  0  0  0  0
   -0.6167    2.2440    1.9475 O   0  0  0  1  0  0  0  0  0  0  0  0
    0.8396    3.3794   -1.8323 H   0  0  0  1  0  0  0  0  0  0  0  0
    2.9865    4.3613   -1.8404 H   0  0  0  1  0  0  0  0  0  0  0  0
    3.1159    3.0462   -0.6974 H   0  0  0  1  0  0  0  0  0  0  0  0
    2.8334    4.6742   -0.1283 H   0  0  0  1  0  0  0  0  0  0  0  0
   -3.6128    2.5362    2.6255 H   0  0  0  1  0  0  0  0  0  0  0  0
   -2.7895    3.8959    3.3506 H   0  0  0  1  0  0  0  0  0  0  0  0
   -2.3289    2.2655    3.7791 H   0  0  0  1  0  0  0  0  0  0  0  0
   -1.3364    2.5739   -1.3591 C   0  0  0  1  0  0  0  0  0  0  0  0
   -2.7610    2.5299   -1.8760 C   0  0  0  1  0  0  0  0  0  0  0  0
   -3.0759    3.1686   -3.0654 C   0  0  0  1  0  0  0  0  0  0  0  0
   -4.3876    3.2148   -3.4985 C   0  0  0  1  0  0  0  0  0  0  0  0
   -5.3875    2.6179   -2.7465 C   0  0  0  1  0  0  0  0  0  0  0  0
   -5.0733    1.9812   -1.5608 C   0  0  0  1  0  0  0  0  0  0  0  0
   -3.7579    1.9347   -1.1261 C   0  0  0  1  0  0  0  0  0  0  0  0
   -6.6974    2.6083   -3.0938 O   0  0  0  1  0  0  0  0  0  0  0  0
   -4.7453    3.8316   -4.6511 O   0  0  0  1  0  0  0  0  0  0  0  0
   -1.1261    1.6664   -0.8327 H   0  0  0  1  0  0  0  0  0  0  0  0
   -0.6656    2.6701   -2.1871 H   0  0  0  1  0  0  0  0  0  0  0  0
   -2.3253    3.6130   -3.6316 H   0  0  0  1  0  0  0  0  0  0  0  0
   -5.8240    1.5368   -0.9945 H   0  0  0  1  0  0  0  0  0  0  0  0
   -3.5210    1.4521   -0.2359 H   0  0  0  1  0  0  0  0  0  0  0  0
   -6.8194    2.0555   -3.8691 H   0  0  0  1  0  0  0  0  0  0  0  0
   -4.7109    3.2024   -5.3753 H   0  0  0  1  0  0  0  0  0  0  0  0
  1  4  1  0  0  0  0
  2  4  1  0  0  0  0
  2  5  2  0  0  0  0
  2  6  1  0  0  0  0
  3  4  1  0  0  0  0
  3  7  1  0  0  0  0
  3  8  1  0  0  0  0
  4 19  1  0  0  0  0
  6  9  1  0  0  0  0
  6 12  1  0  0  0  0
  8 10  1  0  0  0  0
  8 11  2  0  0  0  0
  9 13  1  0  0  0  0
  9 14  1  0  0  0  0
  9 15  1  0  0  0  0
 10 16  1  0  0  0  0
 10 17  1  0  0  0  0
 10 18  1  0  0  0  0
 19 20  1  0  0  0  0
 19 28  1  0  0  0  0
 19 29  1  0  0  0  0
 20 21  4  0  0  0  0
 20 25  4  0  0  0  0
 21 22  4  0  0  0  0
 21 30  1  0  0  0  0
 22 23  4  0  0  0  0
 22 27  1  0  0  0  0
 23 24  4  0  0  0  0
 23 26  1  0  0  0  0
 24 25  4  0  0  0  0
 24 31  1  0  0  0  0
 25 32  1  0  0  0  0
 26 33  1  0  0  0  0
 27 34  1  0  0  0  0
M  END
> <BCLConfClusterSize>
1

> <ConfClashScore>
0 

> <ConfOneFourInteractionScore>
-0.933935 

> <ConfScore>
-0.0599148 

> <ConfScorePBest>
0.00774839 

> <ConfTolerance>
0.199274 

> <RosettaParamsInstructions>
M  ROOT 3
M  POLY_N_BB 3
M  POLY_CA_BB 4
M  POLY_C_BB 2
M  POLY_O_BB 5
M  POLY_IGNORE 9 10 11 12 13 14 15 16 17 18 
M  POLY_UPPER 6
M  POLY_LOWER 8
M  POLY_CHG 0
M  POLY_PROPERTIES ALPHA_AA D_AA PROTEIN AROMATIC POLYMER 
M  END

$$$$



 34 34  0  0  0  0  0  0  0  0999 V2000
    0.3992    1.4100   -1.5327 H   0  0  0  1  0  0  0  0  0  0  0  0
   -0.4789    1.2730   -3.4388 C   0  0  0  1  0  0  0  0  0  0  0  0
   -1.1998    0.1093   -1.3758 N   0  0  0  1  0  0  0  0  0  0  0  0
   -0.5922    1.3261   -1.9265 C   0  0  0  1  0  0  0  0  0  0  0  0
   -0.4950    0.2243   -4.0570 O   0  0  0  1  0  0  0  0  0  0  0  0
   -0.3571    2.4133   -4.1202 N   0  0  0  1  0  0  0  0  0  0  0  0
   -1.8705    0.2175   -0.6695 H   0  0  0  1  0  0  0  0  0  0  0  0
   -0.9079   -1.1331   -1.7640 C   0  0  0  1  0  0  0  0  0  0  0  0
   -0.3710    2.5223   -5.5713 C   0  0  0  1  0  0  0  0  0  0  0  0
   -1.8149   -2.2220   -1.2247 C   0  0  0  1  0  0  0  0  0  0  0  0
    0.0250   -1.3955   -2.5051 O   0  0  0  1  0  0  0  0  0  0  0  0
   -0.2503    3.2399   -3.6047 H   0  0  0  1  0  0  0  0  0  0  0  0
    0.3841    1.8867   -5.9845 H   0  0  0  1  0  0  0  0  0  0  0  0
   -0.1779    3.5359   -5.8545 H   0  0  0  1  0  0  0  0  0  0  0  0
   -1.3296    2.2244   -5.9419 H   0  0  0  1  0  0  0  0  0  0  0  0
   -2.8281   -2.0093   -1.4952 H   0  0  0  1  0  0  0  0  0  0  0  0
   -1.7310   -2.2602   -0.1587 H   0  0  0  1  0  0  0  0  0  0  0  0
   -1.5256   -3.1648   -1.6398 H   0  0  0  1  0  0  0  0  0  0  0  0
   -1.3711    2.5621   -1.4670 C   0  0  0  1  0  0  0  0  0  0  0  0
   -2.8044    2.5076   -1.9584 C   0  0  0  1  0  0  0  0  0  0  0  0
   -3.1740    3.0484   -3.1801 C   0  0  0  1  0  0  0  0  0  0  0  0
   -4.5047    3.0669   -3.5533 C   0  0  0  1  0  0  0  0  0  0  0  0
   -5.4690    2.5399   -2.7084 C   0  0  0  1  0  0  0  0  0  0  0  0
   -5.1003    2.0008   -1.4904 C   0  0  0  1  0  0  0  0  0  0  0  0
   -3.7658    1.9822   -1.1159 C   0  0  0  1  0  0  0  0  0  0  0  0
   -6.7664    2.5650   -3.0991 O   0  0  0  1  0  0  0  0  0  0  0  0
   -4.7920    3.6159   -4.7586 O   0  0  0  1  0  0  0  0  0  0  0  0
   -0.8993    3.4394   -1.8577 H   0  0  0  1  0  0  0  0  0  0  0  0
   -1.3681    2.6011   -0.3977 H   0  0  0  1  0  0  0  0  0  0  0  0
   -2.4501    3.4402   -3.8158 H   0  0  0  1  0  0  0  0  0  0  0  0
   -5.8242    1.6091   -0.8547 H   0  0  0  1  0  0  0  0  0  0  0  0
   -3.4880    1.5728   -0.2011 H   0  0  0  1  0  0  0  0  0  0  0  0
   -6.9264    1.8548   -3.7248 H   0  0  0  1  0  0  0  0  0  0  0  0
   -3.9868    3.9551   -5.1564 H   0  0  0  1  0  0  0  0  0  0  0  0
  1  4  1  0  0  0  0
  2  4  1  0  0  0  0
  2  5  2  0  0  0  0
  2  6  1  0  0  0  0
  3  4  1  0  0  0  0
  3  7  1  0  0  0  0
  3  8  1  0  0  0  0
  4 19  1  0  0  0  0
  6  9  1  0  0  0  0
  6 12  1  0  0  0  0
  8 10  1  0  0  0  0
  8 11  2  0  0  0  0
  9 13  1  0  0  0  0
  9 14  1  0  0  0  0
  9 15  1  0  0  0  0
 10 16  1  0  0  0  0
 10 17  1  0  0  0  0
 10 18  1  0  0  0  0
 19 20  1  0  0  0  0
 19 28  1  0  0  0  0
 19 29  1  0  0  0  0
 20 21  4  0  0  0  0
 20 25  4  0  0  0  0
 21 22  4  0  0  0  0
 21 30  1  0  0  0  0
 22 23  4  0  0  0  0
 22 27  1  0  0  0  0
 23 24  4  0  0  0  0
 23 26  1  0  0  0  0
 24 25  4  0  0  0  0
 24 31  1  0  0  0  0
 25 32  1  0  0  0  0
 26 33  1  0  0  0  0
 27 34  1  0  0  0  0
M  END
> <BCLConfClusterSize>
1

> <ConfClashScore>
0 

> <ConfOneFourInteractionScore>
-0.949142 

> <ConfScore>
-0.0545189 

> <ConfScorePBest>
0.00771991 

> <ConfTolerance>
0.290595 

> <RosettaParamsInstructions>
M  ROOT 3
M  POLY_N_BB 3
M  POLY_CA_BB 4
M  POLY_C_BB 2
M  POLY_O_BB 5
M  POLY_IGNORE 9 10 11 12 13 14 15 16 17 18 
M  POLY_UPPER 6
M  POLY_LOWER 8
M  POLY_CHG 0
M  POLY_PROPERTIES ALPHA_AA D_AA PROTEIN AROMATIC POLYMER 
M  END

$$$$



 34 34  0  0  0  0  0  0  0  0999 V2000
    0.3888    1.6010   -0.9361 H   0  0  0  1  0  0  0  0  0  0  0  0
   -0.3233    1.0197   -2.8344 C   0  0  0  1  0  0  0  0  0  0  0  0
   -1.1762    0.2994   -0.6267 N   0  0  0  1  0  0  0  0  0  0  0  0
   -0.5646    1.3895   -1.3734 C   0  0  0  1  0  0  0  0  0  0  0  0
    0.0665   -0.1007   -3.1523 O   0  0  0  1  0  0  0  0  0  0  0  0
   -0.5629    1.9865   -3.7249 N   0  0  0  1  0  0  0  0  0  0  0  0
   -1.1644    0.3503    0.3519 H   0  0  0  1  0  0  0  0  0  0  0  0
   -1.7525   -0.7659   -1.1907 C   0  0  0  1  0  0  0  0  0  0  0  0
   -0.4010    1.7260   -5.1475 C   0  0  0  1  0  0  0  0  0  0  0  0
   -2.2149   -1.8716   -0.2380 C   0  0  0  1  0  0  0  0  0  0  0  0
   -1.9401   -0.9310   -2.3932 O   0  0  0  1  0  0  0  0  0  0  0  0
   -0.8483    2.8728   -3.4195 H   0  0  0  1  0  0  0  0  0  0  0  0
   -0.0925    2.6232   -5.6421 H   0  0  0  1  0  0  0  0  0  0  0  0
   -1.3323    1.3951   -5.5576 H   0  0  0  1  0  0  0  0  0  0  0  0
    0.3409    0.9680   -5.2889 H   0  0  0  1  0  0  0  0  0  0  0  0
   -1.9483   -1.6130    0.7655 H   0  0  0  1  0  0  0  0  0  0  0  0
   -1.7426   -2.7936   -0.5059 H   0  0  0  1  0  0  0  0  0  0  0  0
   -3.2770   -1.9810   -0.3077 H   0  0  0  1  0  0  0  0  0  0  0  0
   -1.4074    2.6484   -1.2514 C   0  0  0  1  0  0  0  0  0  0  0  0
   -2.7846    2.5721   -1.8808 C   0  0  0  1  0  0  0  0  0  0  0  0
   -3.0751    3.2186   -3.0722 C   0  0  0  1  0  0  0  0  0  0  0  0
   -4.3655    3.2075   -3.5674 C   0  0  0  1  0  0  0  0  0  0  0  0
   -5.3679    2.5456   -2.8756 C   0  0  0  1  0  0  0  0  0  0  0  0
   -5.0780    1.9012   -1.6878 C   0  0  0  1  0  0  0  0  0  0  0  0
   -3.7840    1.9121   -1.1910 C   0  0  0  1  0  0  0  0  0  0  0  0
   -6.6070    2.5726   -3.4238 O   0  0  0  1  0  0  0  0  0  0  0  0
   -4.5762    3.8646   -4.7338 O   0  0  0  1  0  0  0  0  0  0  0  0
   -0.8743    3.4492   -1.7198 H   0  0  0  1  0  0  0  0  0  0  0  0
   -1.5316    2.8628   -0.2105 H   0  0  0  1  0  0  0  0  0  0  0  0
   -2.3223    3.7118   -3.5933 H   0  0  0  1  0  0  0  0  0  0  0  0
   -5.8309    1.4079   -1.1667 H   0  0  0  1  0  0  0  0  0  0  0  0
   -3.5651    1.4237   -0.2992 H   0  0  0  1  0  0  0  0  0  0  0  0
   -7.2127    2.0731   -2.8715 H   0  0  0  1  0  0  0  0  0  0  0  0
   -4.4466    3.2614   -5.4693 H   0  0  0  1  0  0  0  0  0  0  0  0
  1  4  1  0  0  0  0
  2  4  1  0  0  0  0
  2  5  2  0  0  0  0
  2  6  1  0  0  0  0
  3  4  1  0  0  0  0
  3  7  1  0  0  0  0
  3  8  1  0  0  0  0
  4 19  1  0  0  0  0
  6  9  1  0  0  0  0
  6 12  1  0  0  0  0
  8 10  1  0  0  0  0
  8 11  2  0  0  0  0
  9 13  1  0  0  0  0
  9 14  1  0  0  0  0
  9 15  1  0  0  0  0
 10 16  1  0  0  0  0
 10 17  1  0  0  0  0
 10 18  1  0  0  0  0
 19 20  1  0  0  0  0
 19 28  1  0  0  0  0
 19 29  1  0  0  0  0
 20 21  4  0  0  0  0
 20 25  4  0  0  0  0
 21 22  4  0  0  0  0
 21 30  1  0  0  0  0
 22 23  4  0  0  0  0
 22 27  1  0  0  0  0
 23 24  4  0  0  0  0
 23 26  1  0  0  0  0
 24 25  4  0  0  0  0
 24 31  1  0  0  0  0
 25 32  1  0  0  0  0
 26 33  1  0  0  0  0
 27 34  1  0  0  0  0
M  END
> <BCLConfClusterSize>
1

> <ConfClashScore>
0.00058026 

> <ConfOneFourInteractionScore>
-0.917907 

> <ConfScore>
-0.046991 

> <ConfScorePBest>
0.00769143 

> <ConfTolerance>
0.275362 

> <RosettaParamsInstructions>
M  ROOT 3
M  POLY_N_BB 3
M  POLY_CA_BB 4
M  POLY_C_BB 2
M  POLY_O_BB 5
M  POLY_IGNORE 9 10 11 12 13 14 15 16 17 18 
M  POLY_UPPER 6
M  POLY_LOWER 8
M  POLY_CHG 0
M  POLY_PROPERTIES ALPHA_AA D_AA PROTEIN AROMATIC POLYMER 
M  END

$$$$



 34 34  0  0  0  0  0  0  0  0999 V2000
   -0.9771    0.6722   -1.1909 H   0  0  0  1  0  0  0  0  0  0  0  0
    0.7776    1.6617   -0.5531 C   0  0  0  1  0  0  0  0  0  0  0  0
   -0.0908    1.5727   -2.8246 N   0  0  0  1  0  0  0  0  0  0  0  0
   -0.4696    1.5857   -1.4207 C   0  0  0  1  0  0  0  0  0  0  0  0
    1.8745    1.3096   -0.9544 O   0  0  0  1  0  0  0  0  0  0  0  0
    0.6736    2.1301    0.6938 N   0  0  0  1  0  0  0  0  0  0  0  0
   -0.5226    0.9457   -3.4417 H   0  0  0  1  0  0  0  0  0  0  0  0
    0.8413    2.4107   -3.2732 C   0  0  0  1  0  0  0  0  0  0  0  0
    1.7865    2.0997    1.6310 C   0  0  0  1  0  0  0  0  0  0  0  0
    1.1036    2.4589   -4.7744 C   0  0  0  1  0  0  0  0  0  0  0  0
    1.5055    3.1503   -2.5484 O   0  0  0  1  0  0  0  0  0  0  0  0
   -0.1819    2.5074    0.9875 H   0  0  0  1  0  0  0  0  0  0  0  0
    2.7062    2.2192    1.0974 H   0  0  0  1  0  0  0  0  0  0  0  0
    1.7928    1.1621    2.1465 H   0  0  0  1  0  0  0  0  0  0  0  0
    1.6787    2.8954    2.3382 H   0  0  0  1  0  0  0  0  0  0  0  0
    0.1751    2.5630   -5.2960 H   0  0  0  1  0  0  0  0  0  0  0  0
    1.5853    1.5541   -5.0813 H   0  0  0  1  0  0  0  0  0  0  0  0
    1.7343    3.2935   -4.9993 H   0  0  0  1  0  0  0  0  0  0  0  0
   -1.4220    2.7362   -1.1220 C   0  0  0  1  0  0  0  0  0  0  0  0
   -2.7588    2.5980   -1.8238 C   0  0  0  1  0  0  0  0  0  0  0  0
   -3.0075    3.2152   -3.0399 C   0  0  0  1  0  0  0  0  0  0  0  0
   -4.2675    3.1475   -3.6040 C   0  0  0  1  0  0  0  0  0  0  0  0
   -5.2809    2.4581   -2.9566 C   0  0  0  1  0  0  0  0  0  0  0  0
   -5.0327    1.8428   -1.7441 C   0  0  0  1  0  0  0  0  0  0  0  0
   -3.7691    1.9105   -1.1781 C   0  0  0  1  0  0  0  0  0  0  0  0
   -6.5063    2.4017   -3.5326 O   0  0  0  1  0  0  0  0  0  0  0  0
   -4.5603    3.7388   -4.7878 O   0  0  0  1  0  0  0  0  0  0  0  0
   -0.9633    3.6492   -1.4396 H   0  0  0  1  0  0  0  0  0  0  0  0
   -1.5935    2.7710   -0.0664 H   0  0  0  1  0  0  0  0  0  0  0  0
   -2.2462    3.7290   -3.5276 H   0  0  0  1  0  0  0  0  0  0  0  0
   -5.7940    1.3290   -1.2564 H   0  0  0  1  0  0  0  0  0  0  0  0
   -3.5814    1.4441   -0.2677 H   0  0  0  1  0  0  0  0  0  0  0  0
   -7.1740    2.6551   -2.8910 H   0  0  0  1  0  0  0  0  0  0  0  0
   -5.0224    3.1146   -5.3521 H   0  0  0  1  0  0  0  0  0  0  0  0
  1  4  1  0  0  0  0
  2  4  1  0  0  0  0
  2  5  2  0  0  0  0
  2  6  1  0  0  0  0
  3  4  1  0  0  0  0
  3  7  1  0  0  0  0
  3  8  1  0  0  0  0
  4 19  1  0  0  0  0
  6  9  1  0  0  0  0
  6 12  1  0  0  0  0
  8 10  1  0  0  0  0
  8 11  2  0  0  0  0
  9 13  1  0  0  0  0
  9 14  1  0  0  0  0
  9 15  1  0  0  0  0
 10 16  1  0  0  0  0
 10 17  1  0  0  0  0
 10 18  1  0  0  0  0
 19 20  1  0  0  0  0
 19 28  1  0  0  0  0
 19 29  1  0  0  0  0
 20 21  4  0  0  0  0
 20 25  4  0  0  0  0
 21 22  4  0  0  0  0
 21 30  1  0  0  0  0
 22 23  4  0  0  0  0
 22 27  1  0  0  0  0
 23 24  4  0  0  0  0
 23 26  1  0  0  0  0
 24 25  4  0  0  0  0
 24 31  1  0  0  0  0
 25 32  1  0  0  0  0
 26 33  1  0  0  0  0
 27 34  1  0  0  0  0
M  END
> <BCLConfClusterSize>
1

> <ConfClashScore>
0 

> <ConfOneFourInteractionScore>
-0.933935 

> <ConfScore>
-0.0402 

> <ConfScorePBest>
0.00766295 

> <ConfTolerance>
0.218735 

> <RosettaParamsInstructions>
M  ROOT 3
M  POLY_N_BB 3
M  POLY_CA_BB 4
M  POLY_C_BB 2
M  POLY_O_BB 5
M  POLY_IGNORE 9 10 11 12 13 14 15 16 17 18 
M  POLY_UPPER 6
M  POLY_LOWER 8
M  POLY_CHG 0
M  POLY_PROPERTIES ALPHA_AA D_AA PROTEIN AROMATIC POLYMER 
M  END

$$$$



 34 34  0  0  0  0  0  0  0  0999 V2000
    0.3080    1.5358   -0.6904 H   0  0  0  1  0  0  0  0  0  0  0  0
    0.1263    1.4842   -2.7714 C   0  0  0  1  0  0  0  0  0  0  0  0
   -1.2328    0.2363   -1.1035 N   0  0  0  1  0  0  0  0  0  0  0  0
   -0.4960    1.4717   -1.3935 C   0  0  0  1  0  0  0  0  0  0  0  0
    0.7428    0.5071   -3.1942 O   0  0  0  1  0  0  0  0  0  0  0  0
   -0.0136    2.5862   -3.5138 N   0  0  0  1  0  0  0  0  0  0  0  0
   -1.4189    0.0048   -0.1696 H   0  0  0  1  0  0  0  0  0  0  0  0
   -1.6623   -0.5908   -2.0764 C   0  0  0  1  0  0  0  0  0  0  0  0
    0.5621    2.7049   -4.8451 C   0  0  0  1  0  0  0  0  0  0  0  0
   -2.2342   -1.8960   -1.5583 C   0  0  0  1  0  0  0  0  0  0  0  0
   -1.6108   -0.3443   -3.2707 O   0  0  0  1  0  0  0  0  0  0  0  0
   -0.5215    3.3408   -3.1491 H   0  0  0  1  0  0  0  0  0  0  0  0
    1.1295    1.8257   -5.0685 H   0  0  0  1  0  0  0  0  0  0  0  0
    1.2027    3.5612   -4.8813 H   0  0  0  1  0  0  0  0  0  0  0  0
   -0.2225    2.8151   -5.5641 H   0  0  0  1  0  0  0  0  0  0  0  0
   -3.2406   -1.7397   -1.2300 H   0  0  0  1  0  0  0  0  0  0  0  0
   -1.6418   -2.2441   -0.7380 H   0  0  0  1  0  0  0  0  0  0  0  0
   -2.2239   -2.6254   -2.3411 H   0  0  0  1  0  0  0  0  0  0  0  0
   -1.4056    2.6618   -1.1176 C   0  0  0  1  0  0  0  0  0  0  0  0
   -2.7418    2.5653   -1.8275 C   0  0  0  1  0  0  0  0  0  0  0  0
   -2.9549    3.1657   -3.0586 C   0  0  0  1  0  0  0  0  0  0  0  0
   -4.2123    3.1394   -3.6317 C   0  0  0  1  0  0  0  0  0  0  0  0
   -5.2590    2.5080   -2.9781 C   0  0  0  1  0  0  0  0  0  0  0  0
   -5.0464    1.9094   -1.7506 C   0  0  0  1  0  0  0  0  0  0  0  0
   -3.7854    1.9357   -1.1757 C   0  0  0  1  0  0  0  0  0  0  0  0
   -6.4814    2.4911   -3.5630 O   0  0  0  1  0  0  0  0  0  0  0  0
   -4.4708    3.7165   -4.8304 O   0  0  0  1  0  0  0  0  0  0  0  0
   -0.9099    3.5521   -1.4443 H   0  0  0  1  0  0  0  0  0  0  0  0
   -1.5829    2.7179   -0.0639 H   0  0  0  1  0  0  0  0  0  0  0  0
   -2.1687    3.6360   -3.5510 H   0  0  0  1  0  0  0  0  0  0  0  0
   -5.8326    1.4392   -1.2583 H   0  0  0  1  0  0  0  0  0  0  0  0
   -3.6245    1.4818   -0.2539 H   0  0  0  1  0  0  0  0  0  0  0  0
   -7.1514    2.3089   -2.9000 H   0  0  0  1  0  0  0  0  0  0  0  0
   -5.2883    3.3616   -5.1873 H   0  0  0  1  0  0  0  0  0  0  0  0
  1  4  1  0  0  0  0
  2  4  1  0  0  0  0
  2  5  2  0  0  0  0
  2  6  1  0  0  0  0
  3  4  1  0  0  0  0
  3  7  1  0  0  0  0
  3  8  1  0  0  0  0
  4 19  1  0  0  0  0
  6  9  1  0  0  0  0
  6 12  1  0  0  0  0
  8 10  1  0  0  0  0
  8 11  2  0  0  0  0
  9 13  1  0  0  0  0
  9 14  1  0  0  0  0
  9 15  1  0  0  0  0
 10 16  1  0  0  0  0
 10 17  1  0  0  0  0
 10 18  1  0  0  0  0
 19 20  1  0  0  0  0
 19 28  1  0  0  0  0
 19 29  1  0  0  0  0
 20 21  4  0  0  0  0
 20 25  4  0  0  0  0
 21 22  4  0  0  0  0
 21 30  1  0  0  0  0
 22 23  4  0  0  0  0
 22 27  1  0  0  0  0
 23 24  4  0  0  0  0
 23 26  1  0  0  0  0
 24 25  4  0  0  0  0
 24 31  1  0  0  0  0
 25 32  1  0  0  0  0
 26 33  1  0  0  0  0
 27 34  1  0  0  0  0
M  END
> <BCLConfClusterSize>
1

> <ConfClashScore>
0 

> <ConfOneFourInteractionScore>
-0.917907 

> <ConfScore>
-0.0374627 

> <ConfScorePBest>
0.00763447 

> <ConfTolerance>
0.258518 

> <RosettaParamsInstructions>
M  ROOT 3
M  POLY_N_BB 3
M  POLY_CA_BB 4
M  POLY_C_BB 2
M  POLY_O_BB 5
M  POLY_IGNORE 9 10 11 12 13 14 15 16 17 18 
M  POLY_UPPER 6
M  POLY_LOWER 8
M  POLY_CHG 0
M  POLY_PROPERTIES ALPHA_AA D_AA PROTEIN AROMATIC POLYMER 
M  END

$$$$



 34 34  0  0  0  0  0  0  0  0999 V2000
   -1.7514    4.5989   -0.7360 H   0  0  0  1  0  0  0  0  0  0  0  0
    0.1988    4.2081   -0.1384 C   0  0  0  1  0  0  0  0  0  0  0  0
   -1.8890    3.4463    0.9510 N   0  0  0  1  0  0  0  0  0  0  0  0
   -1.2305    3.7596   -0.3247 C   0  0  0  1  0  0  0  0  0  0  0  0
    0.5782    4.6341    0.9492 O   0  0  0  1  0  0  0  0  0  0  0  0
    0.9875    4.2031   -1.2239 N   0  0  0  1  0  0  0  0  0  0  0  0
   -2.7917    3.7908    1.1145 H   0  0  0  1  0  0  0  0  0  0  0  0
   -1.2997    2.7079    1.8958 C   0  0  0  1  0  0  0  0  0  0  0  0
    2.3211    4.7856   -1.2185 C   0  0  0  1  0  0  0  0  0  0  0  0
   -2.0877    2.5290    3.1789 C   0  0  0  1  0  0  0  0  0  0  0  0
   -0.1914    2.1987    1.7523 O   0  0  0  1  0  0  0  0  0  0  0  0
    0.6539    3.7930   -2.0490 H   0  0  0  1  0  0  0  0  0  0  0  0
    2.7542    4.6774   -0.2460 H   0  0  0  1  0  0  0  0  0  0  0  0
    2.2573    5.8245   -1.4666 H   0  0  0  1  0  0  0  0  0  0  0  0
    2.9324    4.2832   -1.9388 H   0  0  0  1  0  0  0  0  0  0  0  0
   -2.2601    3.4846    3.6283 H   0  0  0  1  0  0  0  0  0  0  0  0
   -1.5330    1.9122    3.8547 H   0  0  0  1  0  0  0  0  0  0  0  0
   -3.0260    2.0640    2.9591 H   0  0  0  1  0  0  0  0  0  0  0  0
   -1.4116    2.6307   -1.3261 C   0  0  0  1  0  0  0  0  0  0  0  0
   -2.7952    2.5185   -1.9358 C   0  0  0  1  0  0  0  0  0  0  0  0
   -3.0704    3.0019   -3.2055 C   0  0  0  1  0  0  0  0  0  0  0  0
   -4.3639    2.9699   -3.6916 C   0  0  0  1  0  0  0  0  0  0  0  0
   -5.3849    2.4496   -2.9118 C   0  0  0  1  0  0  0  0  0  0  0  0
   -5.1103    1.9676   -1.6459 C   0  0  0  1  0  0  0  0  0  0  0  0
   -3.8132    1.9996   -1.1581 C   0  0  0  1  0  0  0  0  0  0  0  0
   -6.6439    2.4244   -3.4128 O   0  0  0  1  0  0  0  0  0  0  0  0
   -4.5587    3.4643   -4.9383 O   0  0  0  1  0  0  0  0  0  0  0  0
   -1.1950    1.7091   -0.8273 H   0  0  0  1  0  0  0  0  0  0  0  0
   -0.7115    2.7795   -2.1214 H   0  0  0  1  0  0  0  0  0  0  0  0
   -2.3037    3.3886   -3.7922 H   0  0  0  1  0  0  0  0  0  0  0  0
   -5.8770    1.5809   -1.0592 H   0  0  0  1  0  0  0  0  0  0  0  0
   -3.6060    1.6333   -0.2071 H   0  0  0  1  0  0  0  0  0  0  0  0
   -7.2098    1.9107   -2.8318 H   0  0  0  1  0  0  0  0  0  0  0  0
   -4.2744    4.3808   -4.9677 H   0  0  0  1  0  0  0  0  0  0  0  0
  1  4  1  0  0  0  0
  2  4  1  0  0  0  0
  2  5  2  0  0  0  0
  2  6  1  0  0  0  0
  3  4  1  0  0  0  0
  3  7  1  0  0  0  0
  3  8  1  0  0  0  0
  4 19  1  0  0  0  0
  6  9  1  0  0  0  0
  6 12  1  0  0  0  0
  8 10  1  0  0  0  0
  8 11  2  0  0  0  0
  9 13  1  0  0  0  0
  9 14  1  0  0  0  0
  9 15  1  0  0  0  0
 10 16  1  0  0  0  0
 10 17  1  0  0  0  0
 10 18  1  0  0  0  0
 19 20  1  0  0  0  0
 19 28  1  0  0  0  0
 19 29  1  0  0  0  0
 20 21  4  0  0  0  0
 20 25  4  0  0  0  0
 21 22  4  0  0  0  0
 21 30  1  0  0  0  0
 22 23  4  0  0  0  0
 22 27  1  0  0  0  0
 23 24  4  0  0  0  0
 23 26  1  0  0  0  0
 24 25  4  0  0  0  0
 24 31  1  0  0  0  0
 25 32  1  0  0  0  0
 26 33  1  0  0  0  0
 27 34  1  0  0  0  0
M  END
> <BCLConfClusterSize>
1

> <ConfClashScore>
0 

> <ConfOneFourInteractionScore>
-0.957011 

> <ConfScore>
-0.0218549 

> <ConfScorePBest>
0.00760599 

> <ConfTolerance>
0.366744 

> <RosettaParamsInstructions>
M  ROOT 3
M  POLY_N_BB 3
M  POLY_CA_BB 4
M  POLY_C_BB 2
M  POLY_O_BB 5
M  POLY_IGNORE 9 10 11 12 13 14 15 16 17 18 
M  POLY_UPPER 6
M  POLY_LOWER 8
M  POLY_CHG 0
M  POLY_PROPERTIES ALPHA_AA D_AA PROTEIN AROMATIC POLYMER 
M  END

$$$$



 34 34  0  0  0  0  0  0  0  0999 V2000
   -1.0499    0.9185   -0.3788 H   0  0  0  1  0  0  0  0  0  0  0  0
    0.8426    1.7866   -0.5576 C   0  0  0  1  0  0  0  0  0  0  0  0
   -0.4808    0.7332   -2.3432 N   0  0  0  1  0  0  0  0  0  0  0  0
   -0.5572    1.5306   -1.1051 C   0  0  0  1  0  0  0  0  0  0  0  0
    1.7506    0.9727   -0.7209 O   0  0  0  1  0  0  0  0  0  0  0  0
    1.0078    2.9428    0.1027 N   0  0  0  1  0  0  0  0  0  0  0  0
   -1.1440    0.0275   -2.4930 H   0  0  0  1  0  0  0  0  0  0  0  0
    0.4612    0.9395   -3.2680 C   0  0  0  1  0  0  0  0  0  0  0  0
    2.2602    3.2189    0.7906 C   0  0  0  1  0  0  0  0  0  0  0  0
    0.4280    0.0081   -4.4585 C   0  0  0  1  0  0  0  0  0  0  0  0
    1.3096    1.8255   -3.1740 O   0  0  0  1  0  0  0  0  0  0  0  0
    0.2836    3.6027    0.1219 H   0  0  0  1  0  0  0  0  0  0  0  0
    3.0799    2.8952    0.1838 H   0  0  0  1  0  0  0  0  0  0  0  0
    2.2780    2.6941    1.7229 H   0  0  0  1  0  0  0  0  0  0  0  0
    2.3435    4.2703    0.9709 H   0  0  0  1  0  0  0  0  0  0  0  0
    0.9122   -0.9120   -4.2059 H   0  0  0  1  0  0  0  0  0  0  0  0
    0.9367    0.4642   -5.2821 H   0  0  0  1  0  0  0  0  0  0  0  0
   -0.5884   -0.1869   -4.7302 H   0  0  0  1  0  0  0  0  0  0  0  0
   -1.4176    2.7748   -1.2536 C   0  0  0  1  0  0  0  0  0  0  0  0
   -2.7732    2.5521   -1.8690 C   0  0  0  1  0  0  0  0  0  0  0  0
   -3.0173    2.9921   -3.1607 C   0  0  0  1  0  0  0  0  0  0  0  0
   -4.2839    2.8771   -3.7019 C   0  0  0  1  0  0  0  0  0  0  0  0
   -5.3087    2.3170   -2.9552 C   0  0  0  1  0  0  0  0  0  0  0  0
   -5.0651    1.8784   -1.6674 C   0  0  0  1  0  0  0  0  0  0  0  0
   -3.7949    1.9936   -1.1244 C   0  0  0  1  0  0  0  0  0  0  0  0
   -6.5406    2.2105   -3.5100 O   0  0  0  1  0  0  0  0  0  0  0  0
   -4.5724    3.2974   -4.9577 O   0  0  0  1  0  0  0  0  0  0  0  0
   -0.8868    3.4719   -1.8677 H   0  0  0  1  0  0  0  0  0  0  0  0
   -1.5621    3.1943   -0.2799 H   0  0  0  1  0  0  0  0  0  0  0  0
   -2.2476    3.4086   -3.7225 H   0  0  0  1  0  0  0  0  0  0  0  0
   -5.8349    1.4619   -1.1057 H   0  0  0  1  0  0  0  0  0  0  0  0
   -3.6108    1.6599   -0.1568 H   0  0  0  1  0  0  0  0  0  0  0  0
   -7.1817    2.6616   -2.9559 H   0  0  0  1  0  0  0  0  0  0  0  0
   -4.7747    4.2357   -4.9430 H   0  0  0  1  0  0  0  0  0  0  0  0
  1  4  1  0  0  0  0
  2  4  1  0  0  0  0
  2  5  2  0  0  0  0
  2  6  1  0  0  0  0
  3  4  1  0  0  0  0
  3  7  1  0  0  0  0
  3  8  1  0  0  0  0
  4 19  1  0  0  0  0
  6  9  1  0  0  0  0
  6 12  1  0  0  0  0
  8 10  1  0  0  0  0
  8 11  2  0  0  0  0
  9 13  1  0  0  0  0
  9 14  1  0  0  0  0
  9 15  1  0  0  0  0
 10 16  1  0  0  0  0
 10 17  1  0  0  0  0
 10 18  1  0  0  0  0
 19 20  1  0  0  0  0
 19 28  1  0  0  0  0
 19 29  1  0  0  0  0
 20 21  4  0  0  0  0
 20 25  4  0  0  0  0
 21 22  4  0  0  0  0
 21 30  1  0  0  0  0
 22 23  4  0  0  0  0
 22 27  1  0  0  0  0
 23 24  4  0  0  0  0
 23 26  1  0  0  0  0
 24 25  4  0  0  0  0
 24 31  1  0  0  0  0
 25 32  1  0  0  0  0
 26 33  1  0  0  0  0
 27 34  1  0  0  0  0
M  END
> <BCLConfClusterSize>
1

> <ConfClashScore>
0 

> <ConfOneFourInteractionScore>
-0.935823 

> <ConfScore>
-0.0103226 

> <ConfScorePBest>
0.00757751 

> <ConfTolerance>
0.320492 

> <RosettaParamsInstructions>
M  ROOT 3
M  POLY_N_BB 3
M  POLY_CA_BB 4
M  POLY_C_BB 2
M  POLY_O_BB 5
M  POLY_IGNORE 9 10 11 12 13 14 15 16 17 18 
M  POLY_UPPER 6
M  POLY_LOWER 8
M  POLY_CHG 0
M  POLY_PROPERTIES ALPHA_AA D_AA PROTEIN AROMATIC POLYMER 
M  END

$$$$



 34 34  0  0  0  0  0  0  0  0999 V2000
   -0.3177    3.8278   -0.0113 H   0  0  0  1  0  0  0  0  0  0  0  0
   -1.8763    2.9579    1.1116 C   0  0  0  1  0  0  0  0  0  0  0  0
   -2.0624    4.7910   -0.5660 N   0  0  0  1  0  0  0  0  0  0  0  0
   -1.3478    3.5826   -0.1650 C   0  0  0  1  0  0  0  0  0  0  0  0
   -2.4823    3.6279    1.9468 O   0  0  0  1  0  0  0  0  0  0  0  0
   -1.6388    1.6451    1.2602 N   0  0  0  1  0  0  0  0  0  0  0  0
   -2.4565    4.8516   -1.4612 H   0  0  0  1  0  0  0  0  0  0  0  0
   -2.1807    5.8186    0.2885 C   0  0  0  1  0  0  0  0  0  0  0  0
   -2.2551    0.8585    2.3182 C   0  0  0  1  0  0  0  0  0  0  0  0
   -2.9719    7.0088   -0.2180 C   0  0  0  1  0  0  0  0  0  0  0  0
   -1.6867    5.8135    1.4130 O   0  0  0  1  0  0  0  0  0  0  0  0
   -1.0291    1.2009    0.6346 H   0  0  0  1  0  0  0  0  0  0  0  0
   -2.4545    1.4871    3.1608 H   0  0  0  1  0  0  0  0  0  0  0  0
   -1.5916    0.0714    2.6098 H   0  0  0  1  0  0  0  0  0  0  0  0
   -3.1725    0.4386    1.9618 H   0  0  0  1  0  0  0  0  0  0  0  0
   -2.5173    7.9134    0.1283 H   0  0  0  1  0  0  0  0  0  0  0  0
   -3.9756    6.9515    0.1482 H   0  0  0  1  0  0  0  0  0  0  0  0
   -2.9810    7.0015   -1.2879 H   0  0  0  1  0  0  0  0  0  0  0  0
   -1.4226    2.6257   -1.3477 C   0  0  0  1  0  0  0  0  0  0  0  0
   -2.8117    2.5303   -1.9476 C   0  0  0  1  0  0  0  0  0  0  0  0
   -3.1022    3.0620   -3.1944 C   0  0  0  1  0  0  0  0  0  0  0  0
   -4.4003    3.0423   -3.6685 C   0  0  0  1  0  0  0  0  0  0  0  0
   -5.4108    2.4863   -2.8997 C   0  0  0  1  0  0  0  0  0  0  0  0
   -5.1211    1.9563   -1.6566 C   0  0  0  1  0  0  0  0  0  0  0  0
   -3.8192    1.9759   -1.1808 C   0  0  0  1  0  0  0  0  0  0  0  0
   -6.6971    2.4392   -3.3238 O   0  0  0  1  0  0  0  0  0  0  0  0
   -4.6600    3.5729   -4.8883 O   0  0  0  1  0  0  0  0  0  0  0  0
   -1.1267    1.6520   -1.0172 H   0  0  0  1  0  0  0  0  0  0  0  0
   -0.7474    2.9664   -2.1046 H   0  0  0  1  0  0  0  0  0  0  0  0
   -2.3434    3.4756   -3.7730 H   0  0  0  1  0  0  0  0  0  0  0  0
   -5.8799    1.5427   -1.0780 H   0  0  0  1  0  0  0  0  0  0  0  0
   -3.6006    1.5734   -0.2471 H   0  0  0  1  0  0  0  0  0  0  0  0
   -7.2063    1.8716   -2.7406 H   0  0  0  1  0  0  0  0  0  0  0  0
   -3.9479    4.1665   -5.1377 H   0  0  0  1  0  0  0  0  0  0  0  0
  1  4  1  0  0  0  0
  2  4  1  0  0  0  0
  2  5  2  0  0  0  0
  2  6  1  0  0  0  0
  3  4  1  0  0  0  0
  3  7  1  0  0  0  0
  3  8  1  0  0  0  0
  4 19  1  0  0  0  0
  6  9  1  0  0  0  0
  6 12  1  0  0  0  0
  8 10  1  0  0  0  0
  8 11  2  0  0  0  0
  9 13  1  0  0  0  0
  9 14  1  0  0  0  0
  9 15  1  0  0  0  0
 10 16  1  0  0  0  0
 10 17  1  0  0  0  0
 10 18  1  0  0  0  0
 19 20  1  0  0  0  0
 19 28  1  0  0  0  0
 19 29  1  0  0  0  0
 20 21  4  0  0  0  0
 20 25  4  0  0  0  0
 21 22  4  0  0  0  0
 21 30  1  0  0  0  0
 22 23  4  0  0  0  0
 22 27  1  0  0  0  0
 23 24  4  0  0  0  0
 23 26  1  0  0  0  0
 24 25  4  0  0  0  0
 24 31  1  0  0  0  0
 25 32  1  0  0  0  0
 26 33  1  0  0  0  0
 27 34  1  0  0  0  0
M  END
> <BCLConfClusterSize>
1

> <ConfClashScore>
0 

> <ConfOneFourInteractionScore>
-0.949142 

> <ConfScore>
-0.00941132 

> <ConfScorePBest>
0.00754903 

> <ConfTolerance>
0.30053 

> <RosettaParamsInstructions>
M  ROOT 3
M  POLY_N_BB 3
M  POLY_CA_BB 4
M  POLY_C_BB 2
M  POLY_O_BB 5
M  POLY_IGNORE 9 10 11 12 13 14 15 16 17 18 
M  POLY_UPPER 6
M  POLY_LOWER 8
M  POLY_CHG 0
M  POLY_PROPERTIES ALPHA_AA D_AA PROTEIN AROMATIC POLYMER 
M  END

$$$$



 34 34  0  0  0  0  0  0  0  0999 V2000
   -1.4226    4.8619   -1.1442 H   0  0  0  1  0  0  0  0  0  0  0  0
    0.1442    4.2382    0.0887 C   0  0  0  1  0  0  0  0  0  0  0  0
   -2.2602    4.1092    0.5839 N   0  0  0  1  0  0  0  0  0  0  0  0
   -1.2421    4.0413   -0.4816 C   0  0  0  1  0  0  0  0  0  0  0  0
    0.3342    4.9983    1.0372 O   0  0  0  1  0  0  0  0  0  0  0  0
    1.1639    3.5564   -0.4732 N   0  0  0  1  0  0  0  0  0  0  0  0
   -3.0458    4.6799    0.4517 H   0  0  0  1  0  0  0  0  0  0  0  0
   -2.1458    3.4041    1.7488 C   0  0  0  1  0  0  0  0  0  0  0  0
    2.5140    3.6973    0.0514 C   0  0  0  1  0  0  0  0  0  0  0  0
   -3.2560    3.6791    2.7307 C   0  0  0  1  0  0  0  0  0  0  0  0
   -1.2251    2.6336    1.9493 O   0  0  0  1  0  0  0  0  0  0  0  0
    0.9951    2.9650   -1.2362 H   0  0  0  1  0  0  0  0  0  0  0  0
    3.2177    3.6369   -0.7524 H   0  0  0  1  0  0  0  0  0  0  0  0
    2.7071    2.9136    0.7538 H   0  0  0  1  0  0  0  0  0  0  0  0
    2.6100    4.6452    0.5385 H   0  0  0  1  0  0  0  0  0  0  0  0
   -3.9842    2.8970    2.6748 H   0  0  0  1  0  0  0  0  0  0  0  0
   -3.7185    4.6143    2.4931 H   0  0  0  1  0  0  0  0  0  0  0  0
   -2.8536    3.7211    3.7212 H   0  0  0  1  0  0  0  0  0  0  0  0
   -1.4165    2.7667   -1.3087 C   0  0  0  1  0  0  0  0  0  0  0  0
   -2.7969    2.5572   -1.8951 C   0  0  0  1  0  0  0  0  0  0  0  0
   -3.0796    3.0370   -3.1646 C   0  0  0  1  0  0  0  0  0  0  0  0
   -4.3609    2.9345   -3.6725 C   0  0  0  1  0  0  0  0  0  0  0  0
   -5.3621    2.3471   -2.9147 C   0  0  0  1  0  0  0  0  0  0  0  0
   -5.0800    1.8688   -1.6491 C   0  0  0  1  0  0  0  0  0  0  0  0
   -3.7950    1.9715   -1.1395 C   0  0  0  1  0  0  0  0  0  0  0  0
   -6.5920    2.2764   -3.4794 O   0  0  0  1  0  0  0  0  0  0  0  0
   -4.7310    3.3789   -4.8981 O   0  0  0  1  0  0  0  0  0  0  0  0
   -1.1956    1.9311   -0.6780 H   0  0  0  1  0  0  0  0  0  0  0  0
   -0.7160    2.7992   -2.1169 H   0  0  0  1  0  0  0  0  0  0  0  0
   -2.3276    3.4741   -3.7347 H   0  0  0  1  0  0  0  0  0  0  0  0
   -5.8320    1.4317   -1.0789 H   0  0  0  1  0  0  0  0  0  0  0  0
   -3.5820    1.6080   -0.1887 H   0  0  0  1  0  0  0  0  0  0  0  0
   -7.2570    2.5174   -2.8303 H   0  0  0  1  0  0  0  0  0  0  0  0
   -4.2103    4.1514   -5.1296 H   0  0  0  1  0  0  0  0  0  0  0  0
  1  4  1  0  0  0  0
  2  4  1  0  0  0  0
  2  5  2  0  0  0  0
  2  6  1  0  0  0  0
  3  4  1  0  0  0  0
  3  7  1  0  0  0  0
  3  8  1  0  0  0  0
  4 19  1  0  0  0  0
  6  9  1  0  0  0  0
  6 12  1  0  0  0  0
  8 10  1  0  0  0  0
  8 11  2  0  0  0  0
  9 13  1  0  0  0  0
  9 14  1  0  0  0  0
  9 15  1  0  0  0  0
 10 16  1  0  0  0  0
 10 17  1  0  0  0  0
 10 18  1  0  0  0  0
 19 20  1  0  0  0  0
 19 28  1  0  0  0  0
 19 29  1  0  0  0  0
 20 21  4  0  0  0  0
 20 25  4  0  0  0  0
 21 22  4  0  0  0  0
 21 30  1  0  0  0  0
 22 23  4  0  0  0  0
 22 27  1  0  0  0  0
 23 24  4  0  0  0  0
 23 26  1  0  0  0  0
 24 25  4  0  0  0  0
 24 31  1  0  0  0  0
 25 32  1  0  0  0  0
 26 33  1  0  0  0  0
 27 34  1  0  0  0  0
M  END
> <BCLConfClusterSize>
1

> <ConfClashScore>
0 

> <ConfOneFourInteractionScore>
-0.933935 

> <ConfScore>
-0.00618162 

> <ConfScorePBest>
0.00752055 

> <ConfTolerance>
0.270053 

> <RosettaParamsInstructions>
M  ROOT 3
M  POLY_N_BB 3
M  POLY_CA_BB 4
M  POLY_C_BB 2
M  POLY_O_BB 5
M  POLY_IGNORE 9 10 11 12 13 14 15 16 17 18 
M  POLY_UPPER 6
M  POLY_LOWER 8
M  POLY_CHG 0
M  POLY_PROPERTIES ALPHA_AA D_AA PROTEIN AROMATIC POLYMER 
M  END

$$$$



 34 34  0  0  0  0  0  0  0  0999 V2000
   -0.3129    4.0671   -0.0108 H   0  0  0  1  0  0  0  0  0  0  0  0
   -2.1128    3.4795    1.0072 C   0  0  0  1  0  0  0  0  0  0  0  0
   -1.8703    5.1690   -0.8188 N   0  0  0  1  0  0  0  0  0  0  0  0
   -1.3402    3.9229   -0.2730 C   0  0  0  1  0  0  0  0  0  0  0  0
   -1.6662    2.5886    1.7973 O   0  0  0  1  0  0  0  0  0  0  0  0
   -3.3009    4.0599    1.2920 N   0  0  0  1  0  0  0  0  0  0  0  0
   -1.9471    5.2179   -1.7946 H   0  0  0  1  0  0  0  0  0  0  0  0
   -2.2631    6.2517   -0.1383 C   0  0  0  1  0  0  0  0  0  0  0  0
   -4.0418    3.7583    2.5078 C   0  0  0  1  0  0  0  0  0  0  0  0
   -2.8040    7.3950   -0.9745 C   0  0  0  1  0  0  0  0  0  0  0  0
   -2.1978    6.3321    1.0773 O   0  0  0  1  0  0  0  0  0  0  0  0
   -3.6759    4.7060    0.6577 H   0  0  0  1  0  0  0  0  0  0  0  0
   -3.3559    3.5320    3.2972 H   0  0  0  1  0  0  0  0  0  0  0  0
   -4.6792    2.9161    2.3371 H   0  0  0  1  0  0  0  0  0  0  0  0
   -4.6350    4.6052    2.7830 H   0  0  0  1  0  0  0  0  0  0  0  0
   -2.6862    8.3149   -0.4408 H   0  0  0  1  0  0  0  0  0  0  0  0
   -3.8420    7.2298   -1.1753 H   0  0  0  1  0  0  0  0  0  0  0  0
   -2.2656    7.4472   -1.8977 H   0  0  0  1  0  0  0  0  0  0  0  0
   -1.4082    2.8255   -1.3403 C   0  0  0  1  0  0  0  0  0  0  0  0
   -2.7998    2.6023   -1.8689 C   0  0  0  1  0  0  0  0  0  0  0  0
   -3.1684    3.1652   -3.0809 C   0  0  0  1  0  0  0  0  0  0  0  0
   -4.4697    3.0456   -3.5310 C   0  0  0  1  0  0  0  0  0  0  0  0
   -5.4049    2.3582   -2.7731 C   0  0  0  1  0  0  0  0  0  0  0  0
   -5.0373    1.7971   -1.5647 C   0  0  0  1  0  0  0  0  0  0  0  0
   -3.7323    1.9170   -1.1131 C   0  0  0  1  0  0  0  0  0  0  0  0
   -6.6732    2.2501   -3.2384 O   0  0  0  1  0  0  0  0  0  0  0  0
   -4.8069    3.6090   -4.7165 O   0  0  0  1  0  0  0  0  0  0  0  0
   -1.0562    1.9107   -0.9110 H   0  0  0  1  0  0  0  0  0  0  0  0
   -0.7746    3.1042   -2.1562 H   0  0  0  1  0  0  0  0  0  0  0  0
   -2.4658    3.6775   -3.6514 H   0  0  0  1  0  0  0  0  0  0  0  0
   -5.7399    1.2848   -0.9942 H   0  0  0  1  0  0  0  0  0  0  0  0
   -3.4548    1.4913   -0.2057 H   0  0  0  1  0  0  0  0  0  0  0  0
   -6.9612    3.0982   -3.5839 H   0  0  0  1  0  0  0  0  0  0  0  0
   -4.3007    3.1990   -5.4217 H   0  0  0  1  0  0  0  0  0  0  0  0
  1  4  1  0  0  0  0
  2  4  1  0  0  0  0
  2  5  2  0  0  0  0
  2  6  1  0  0  0  0
  3  4  1  0  0  0  0
  3  7  1  0  0  0  0
  3  8  1  0  0  0  0
  4 19  1  0  0  0  0
  6  9  1  0  0  0  0
  6 12  1  0  0  0  0
  8 10  1  0  0  0  0
  8 11  2  0  0  0  0
  9 13  1  0  0  0  0
  9 14  1  0  0  0  0
  9 15  1  0  0  0  0
 10 16  1  0  0  0  0
 10 17  1  0  0  0  0
 10 18  1  0  0  0  0
 19 20  1  0  0  0  0
 19 28  1  0  0  0  0
 19 29  1  0  0  0  0
 20 21  4  0  0  0  0
 20 25  4  0  0  0  0
 21 22  4  0  0  0  0
 21 30  1  0  0  0  0
 22 23  4  0  0  0  0
 22 27  1  0  0  0  0
 23 24  4  0  0  0  0
 23 26  1  0  0  0  0
 24 25  4  0  0  0  0
 24 31  1  0  0  0  0
 25 32  1  0  0  0  0
 26 33  1  0  0  0  0
 27 34  1  0  0  0  0
M  END
> <BCLConfClusterSize>
1

> <ConfClashScore>
0.000875986 

> <ConfOneFourInteractionScore>
-0.950605 

> <ConfScore>
-0.00294444 

> <ConfScorePBest>
0.00749207 

> <ConfTolerance>
0.215439 

> <RosettaParamsInstructions>
M  ROOT 3
M  POLY_N_BB 3
M  POLY_CA_BB 4
M  POLY_C_BB 2
M  POLY_O_BB 5
M  POLY_IGNORE 9 10 11 12 13 14 15 16 17 18 
M  POLY_UPPER 6
M  POLY_LOWER 8
M  POLY_CHG 0
M  POLY_PROPERTIES ALPHA_AA D_AA PROTEIN AROMATIC POLYMER 
M  END

$$$$



 34 34  0  0  0  0  0  0  0  0999 V2000
    0.6095    2.0502   -1.4586 H   0  0  0  1  0  0  0  0  0  0  0  0
   -0.1085    2.4716   -3.4322 C   0  0  0  1  0  0  0  0  0  0  0  0
   -0.7004    0.5414   -2.0324 N   0  0  0  1  0  0  0  0  0  0  0  0
   -0.3056    1.9406   -2.0021 C   0  0  0  1  0  0  0  0  0  0  0  0
    0.0073    1.7064   -4.3858 O   0  0  0  1  0  0  0  0  0  0  0  0
   -0.0732    3.8076   -3.5585 N   0  0  0  1  0  0  0  0  0  0  0  0
   -1.5468    0.2632   -1.6242 H   0  0  0  1  0  0  0  0  0  0  0  0
    0.1135   -0.3944   -2.6339 C   0  0  0  1  0  0  0  0  0  0  0  0
    0.2756    4.4610   -4.8112 C   0  0  0  1  0  0  0  0  0  0  0  0
   -0.3823   -1.8107   -2.6048 C   0  0  0  1  0  0  0  0  0  0  0  0
    1.1622   -0.0515   -3.1462 O   0  0  0  1  0  0  0  0  0  0  0  0
   -0.2898    4.3622   -2.7801 H   0  0  0  1  0  0  0  0  0  0  0  0
    1.2882    4.8037   -4.7655 H   0  0  0  1  0  0  0  0  0  0  0  0
   -0.3758    5.2946   -4.9719 H   0  0  0  1  0  0  0  0  0  0  0  0
    0.1708    3.7653   -5.6174 H   0  0  0  1  0  0  0  0  0  0  0  0
   -0.5450   -2.1529   -3.6054 H   0  0  0  1  0  0  0  0  0  0  0  0
   -1.3015   -1.8554   -2.0589 H   0  0  0  1  0  0  0  0  0  0  0  0
    0.3462   -2.4336   -2.1291 H   0  0  0  1  0  0  0  0  0  0  0  0
   -1.3914    2.7594   -1.3160 C   0  0  0  1  0  0  0  0  0  0  0  0
   -2.7880    2.5898   -1.8812 C   0  0  0  1  0  0  0  0  0  0  0  0
   -3.1529    3.1507   -3.0953 C   0  0  0  1  0  0  0  0  0  0  0  0
   -4.4602    3.0580   -3.5341 C   0  0  0  1  0  0  0  0  0  0  0  0
   -5.4053    2.3995   -2.7628 C   0  0  0  1  0  0  0  0  0  0  0  0
   -5.0413    1.8403   -1.5525 C   0  0  0  1  0  0  0  0  0  0  0  0
   -3.7302    1.9333   -1.1122 C   0  0  0  1  0  0  0  0  0  0  0  0
   -6.7063    2.2546   -3.1136 O   0  0  0  1  0  0  0  0  0  0  0  0
   -4.8659    3.5945   -4.7106 O   0  0  0  1  0  0  0  0  0  0  0  0
   -1.1259    3.7928   -1.3965 H   0  0  0  1  0  0  0  0  0  0  0  0
   -1.4161    2.4762   -0.2845 H   0  0  0  1  0  0  0  0  0  0  0  0
   -2.4430    3.6413   -3.6758 H   0  0  0  1  0  0  0  0  0  0  0  0
   -5.7512    1.3498   -0.9719 H   0  0  0  1  0  0  0  0  0  0  0  0
   -3.4555    1.5090   -0.2032 H   0  0  0  1  0  0  0  0  0  0  0  0
   -6.9478    2.9412   -3.7396 H   0  0  0  1  0  0  0  0  0  0  0  0
   -4.2842    3.2992   -5.4149 H   0  0  0  1  0  0  0  0  0  0  0  0
  1  4  1  0  0  0  0
  2  4  1  0  0  0  0
  2  5  2  0  0  0  0
  2  6  1  0  0  0  0
  3  4  1  0  0  0  0
  3  7  1  0  0  0  0
  3  8  1  0  0  0  0
  4 19  1  0  0  0  0
  6  9  1  0  0  0  0
  6 12  1  0  0  0  0
  8 10  1  0  0  0  0
  8 11  2  0  0  0  0
  9 13  1  0  0  0  0
  9 14  1  0  0  0  0
  9 15  1  0  0  0  0
 10 16  1  0  0  0  0
 10 17  1  0  0  0  0
 10 18  1  0  0  0  0
 19 20  1  0  0  0  0
 19 28  1  0  0  0  0
 19 29  1  0  0  0  0
 20 21  4  0  0  0  0
 20 25  4  0  0  0  0
 21 22  4  0  0  0  0
 21 30  1  0  0  0  0
 22 23  4  0  0  0  0
 22 27  1  0  0  0  0
 23 24  4  0  0  0  0
 23 26  1  0  0  0  0
 24 25  4  0  0  0  0
 24 31  1  0  0  0  0
 25 32  1  0  0  0  0
 26 33  1  0  0  0  0
 27 34  1  0  0  0  0
M  END
> <BCLConfClusterSize>
1

> <ConfClashScore>
0 

> <ConfOneFourInteractionScore>
-0.949142 

> <ConfScore>
-0.00288301 

> <ConfScorePBest>
0.00746359 

> <ConfTolerance>
0.32263 

> <RosettaParamsInstructions>
M  ROOT 3
M  POLY_N_BB 3
M  POLY_CA_BB 4
M  POLY_C_BB 2
M  POLY_O_BB 5
M  POLY_IGNORE 9 10 11 12 13 14 15 16 17 18 
M  POLY_UPPER 6
M  POLY_LOWER 8
M  POLY_CHG 0
M  POLY_PROPERTIES ALPHA_AA D_AA PROTEIN AROMATIC POLYMER 
M  END

$$$$



 34 34  0  0  0  0  0  0  0  0999 V2000
    0.4585    1.4733   -1.2564 H   0  0  0  1  0  0  0  0  0  0  0  0
   -0.1109    1.4735   -3.2915 C   0  0  0  1  0  0  0  0  0  0  0  0
   -1.1264    0.1551   -1.4523 N   0  0  0  1  0  0  0  0  0  0  0  0
   -0.4567    1.4100   -1.8071 C   0  0  0  1  0  0  0  0  0  0  0  0
    0.9107    2.0291   -3.6923 O   0  0  0  1  0  0  0  0  0  0  0  0
   -1.0146    0.8763   -4.0813 N   0  0  0  1  0  0  0  0  0  0  0  0
   -1.5049   -0.3977   -2.1675 H   0  0  0  1  0  0  0  0  0  0  0  0
   -1.2429   -0.2768   -0.1398 C   0  0  0  1  0  0  0  0  0  0  0  0
   -0.9426    0.9426   -5.5333 C   0  0  0  1  0  0  0  0  0  0  0  0
   -1.8424   -1.6373    0.1355 C   0  0  0  1  0  0  0  0  0  0  0  0
   -0.8568    0.4575    0.7512 O   0  0  0  1  0  0  0  0  0  0  0  0
   -1.7492    0.3777   -3.6664 H   0  0  0  1  0  0  0  0  0  0  0  0
   -0.4008    1.8182   -5.8244 H   0  0  0  1  0  0  0  0  0  0  0  0
   -1.9324    0.9852   -5.9376 H   0  0  0  1  0  0  0  0  0  0  0  0
   -0.4419    0.0734   -5.9054 H   0  0  0  1  0  0  0  0  0  0  0  0
   -1.2612   -2.3897   -0.3554 H   0  0  0  1  0  0  0  0  0  0  0  0
   -2.8465   -1.6656   -0.2331 H   0  0  0  1  0  0  0  0  0  0  0  0
   -1.8437   -1.8194    1.1899 H   0  0  0  1  0  0  0  0  0  0  0  0
   -1.3401    2.5652   -1.3654 C   0  0  0  1  0  0  0  0  0  0  0  0
   -2.7644    2.5262   -1.8783 C   0  0  0  1  0  0  0  0  0  0  0  0
   -3.0810    3.1706   -3.0641 C   0  0  0  1  0  0  0  0  0  0  0  0
   -4.3937    3.2210   -3.4938 C   0  0  0  1  0  0  0  0  0  0  0  0
   -5.3928    2.6228   -2.7419 C   0  0  0  1  0  0  0  0  0  0  0  0
   -5.0769    1.9805   -1.5597 C   0  0  0  1  0  0  0  0  0  0  0  0
   -3.7605    1.9297   -1.1285 C   0  0  0  1  0  0  0  0  0  0  0  0
   -6.6551    2.7079   -3.2277 O   0  0  0  1  0  0  0  0  0  0  0  0
   -4.6788    3.8613   -4.6538 O   0  0  0  1  0  0  0  0  0  0  0  0
   -0.8908    3.4740   -1.7076 H   0  0  0  1  0  0  0  0  0  0  0  0
   -1.3743    2.5644   -0.2959 H   0  0  0  1  0  0  0  0  0  0  0  0
   -2.3310    3.6159   -3.6304 H   0  0  0  1  0  0  0  0  0  0  0  0
   -5.8270    1.5351   -0.9934 H   0  0  0  1  0  0  0  0  0  0  0  0
   -3.5224    1.4428   -0.2409 H   0  0  0  1  0  0  0  0  0  0  0  0
   -6.8550    1.9210   -3.7401 H   0  0  0  1  0  0  0  0  0  0  0  0
   -4.7442    3.2207   -5.3658 H   0  0  0  1  0  0  0  0  0  0  0  0
  1  4  1  0  0  0  0
  2  4  1  0  0  0  0
  2  5  2  0  0  0  0
  2  6  1  0  0  0  0
  3  4  1  0  0  0  0
  3  7  1  0  0  0  0
  3  8  1  0  0  0  0
  4 19  1  0  0  0  0
  6  9  1  0  0  0  0
  6 12  1  0  0  0  0
  8 10  1  0  0  0  0
  8 11  2  0  0  0  0
  9 13  1  0  0  0  0
  9 14  1  0  0  0  0
  9 15  1  0  0  0  0
 10 16  1  0  0  0  0
 10 17  1  0  0  0  0
 10 18  1  0  0  0  0
 19 20  1  0  0  0  0
 19 28  1  0  0  0  0
 19 29  1  0  0  0  0
 20 21  4  0  0  0  0
 20 25  4  0  0  0  0
 21 22  4  0  0  0  0
 21 30  1  0  0  0  0
 22 23  4  0  0  0  0
 22 27  1  0  0  0  0
 23 24  4  0  0  0  0
 23 26  1  0  0  0  0
 24 25  4  0  0  0  0
 24 31  1  0  0  0  0
 25 32  1  0  0  0  0
 26 33  1  0  0  0  0
 27 34  1  0  0  0  0
M  END
> <BCLConfClusterSize>
1

> <ConfClashScore>
0 

> <ConfOneFourInteractionScore>
-0.9553 

> <ConfScore>
0.0128074 

> <ConfScorePBest>
0.0074351 

> <ConfTolerance>
0.244767 

> <RosettaParamsInstructions>
M  ROOT 3
M  POLY_N_BB 3
M  POLY_CA_BB 4
M  POLY_C_BB 2
M  POLY_O_BB 5
M  POLY_IGNORE 9 10 11 12 13 14 15 16 17 18 
M  POLY_UPPER 6
M  POLY_LOWER 8
M  POLY_CHG 0
M  POLY_PROPERTIES ALPHA_AA D_AA PROTEIN AROMATIC POLYMER 
M  END

$$$$



 34 34  0  0  0  0  0  0  0  0999 V2000
    0.5575    1.7959   -1.3984 H   0  0  0  1  0  0  0  0  0  0  0  0
    0.0697    2.0109   -3.4028 C   0  0  0  1  0  0  0  0  0  0  0  0
   -0.7132    0.2458   -1.8092 N   0  0  0  1  0  0  0  0  0  0  0  0
   -0.3344    1.6700   -1.9759 C   0  0  0  1  0  0  0  0  0  0  0  0
    0.4892    1.1721   -4.1793 O   0  0  0  1  0  0  0  0  0  0  0  0
   -0.0382    3.2797   -3.8256 N   0  0  0  1  0  0  0  0  0  0  0  0
   -0.6810   -0.1287   -0.9042 H   0  0  0  1  0  0  0  0  0  0  0  0
   -1.0943   -0.5639   -2.7984 C   0  0  0  1  0  0  0  0  0  0  0  0
    0.3884    3.6409   -5.1693 C   0  0  0  1  0  0  0  0  0  0  0  0
   -1.1697   -2.0379   -2.4511 C   0  0  0  1  0  0  0  0  0  0  0  0
   -1.3708   -0.1590   -3.9263 O   0  0  0  1  0  0  0  0  0  0  0  0
   -0.4051    3.9646   -3.2284 H   0  0  0  1  0  0  0  0  0  0  0  0
   -0.4514    3.6084   -5.8315 H   0  0  0  1  0  0  0  0  0  0  0  0
    1.1335    2.9500   -5.5045 H   0  0  0  1  0  0  0  0  0  0  0  0
    0.7968    4.6299   -5.1598 H   0  0  0  1  0  0  0  0  0  0  0  0
   -0.5093   -2.5891   -3.0876 H   0  0  0  1  0  0  0  0  0  0  0  0
   -2.1719   -2.3861   -2.5903 H   0  0  0  1  0  0  0  0  0  0  0  0
   -0.8811   -2.1789   -1.4305 H   0  0  0  1  0  0  0  0  0  0  0  0
   -1.3370    2.6221   -1.3637 C   0  0  0  1  0  0  0  0  0  0  0  0
   -2.7458    2.4942   -1.8784 C   0  0  0  1  0  0  0  0  0  0  0  0
   -3.0480    2.9343   -3.1577 C   0  0  0  1  0  0  0  0  0  0  0  0
   -4.3549    2.9081   -3.6066 C   0  0  0  1  0  0  0  0  0  0  0  0
   -5.3627    2.4369   -2.7797 C   0  0  0  1  0  0  0  0  0  0  0  0
   -5.0612    1.9982   -1.5042 C   0  0  0  1  0  0  0  0  0  0  0  0
   -3.7505    2.0244   -1.0537 C   0  0  0  1  0  0  0  0  0  0  0  0
   -6.6575    2.3870   -3.1768 O   0  0  0  1  0  0  0  0  0  0  0  0
   -4.6259    3.3485   -4.8594 O   0  0  0  1  0  0  0  0  0  0  0  0
   -1.0044    3.6206   -1.5566 H   0  0  0  1  0  0  0  0  0  0  0  0
   -1.3544    2.4491   -0.3079 H   0  0  0  1  0  0  0  0  0  0  0  0
   -2.2914    3.2840   -3.7797 H   0  0  0  1  0  0  0  0  0  0  0  0
   -5.8178    1.6484   -0.8823 H   0  0  0  1  0  0  0  0  0  0  0  0
   -3.5232    1.6905   -0.0954 H   0  0  0  1  0  0  0  0  0  0  0  0
   -6.6989    2.3916   -4.1359 H   0  0  0  1  0  0  0  0  0  0  0  0
   -5.1482    4.1525   -4.8104 H   0  0  0  1  0  0  0  0  0  0  0  0
  1  4  1  0  0  0  0
  2  4  1  0  0  0  0
  2  5  2  0  0  0  0
  2  6  1  0  0  0  0
  3  4  1  0  0  0  0
  3  7  1  0  0  0  0
  3  8  1  0  0  0  0
  4 19  1  0  0  0  0
  6  9  1  0  0  0  0
  6 12  1  0  0  0  0
  8 10  1  0  0  0  0
  8 11  2  0  0  0  0
  9 13  1  0  0  0  0
  9 14  1  0  0  0  0
  9 15  1  0  0  0  0
 10 16  1  0  0  0  0
 10 17  1  0  0  0  0
 10 18  1  0  0  0  0
 19 20  1  0  0  0  0
 19 28  1  0  0  0  0
 19 29  1  0  0  0  0
 20 21  4  0  0  0  0
 20 25  4  0  0  0  0
 21 22  4  0  0  0  0
 21 30  1  0  0  0  0
 22 23  4  0  0  0  0
 22 27  1  0  0  0  0
 23 24  4  0  0  0  0
 23 26  1  0  0  0  0
 24 25  4  0  0  0  0
 24 31  1  0  0  0  0
 25 32  1  0  0  0  0
 26 33  1  0  0  0  0
 27 34  1  0  0  0  0
M  END
> <BCLConfClusterSize>
1

> <ConfClashScore>
0 

> <ConfOneFourInteractionScore>
-0.924221 

> <ConfScore>
0.0203065 

> <ConfScorePBest>
0.00740662 

> <ConfTolerance>
0.362122 

> <RosettaParamsInstructions>
M  ROOT 3
M  POLY_N_BB 3
M  POLY_CA_BB 4
M  POLY_C_BB 2
M  POLY_O_BB 5
M  POLY_IGNORE 9 10 11 12 13 14 15 16 17 18 
M  POLY_UPPER 6
M  POLY_LOWER 8
M  POLY_CHG 0
M  POLY_PROPERTIES ALPHA_AA D_AA PROTEIN AROMATIC POLYMER 
M  END

$$$$



 34 34  0  0  0  0  0  0  0  0999 V2000
   -0.1172    3.5825    0.0685 H   0  0  0  1  0  0  0  0  0  0  0  0
   -2.0644    3.6663    0.8543 C   0  0  0  1  0  0  0  0  0  0  0  0
   -1.1698    4.9540   -1.0478 N   0  0  0  1  0  0  0  0  0  0  0  0
   -1.1073    3.6945   -0.3214 C   0  0  0  1  0  0  0  0  0  0  0  0
   -1.8338    2.9677    1.8377 O   0  0  0  1  0  0  0  0  0  0  0  0
   -3.1683    4.4261    0.7873 N   0  0  0  1  0  0  0  0  0  0  0  0
   -1.8616    5.6050   -0.8069 H   0  0  0  1  0  0  0  0  0  0  0  0
   -0.3085    5.2565   -2.0412 C   0  0  0  1  0  0  0  0  0  0  0  0
   -4.1198    4.4311    1.8885 C   0  0  0  1  0  0  0  0  0  0  0  0
   -0.5356    6.5363   -2.8136 C   0  0  0  1  0  0  0  0  0  0  0  0
    0.6330    4.5159   -2.3122 O   0  0  0  1  0  0  0  0  0  0  0  0
   -3.3342    4.9788   -0.0048 H   0  0  0  1  0  0  0  0  0  0  0  0
   -4.0346    3.5172    2.4383 H   0  0  0  1  0  0  0  0  0  0  0  0
   -5.1129    4.5227    1.5009 H   0  0  0  1  0  0  0  0  0  0  0  0
   -3.9114    5.2572    2.5358 H   0  0  0  1  0  0  0  0  0  0  0  0
   -1.5740    6.6288   -3.0543 H   0  0  0  1  0  0  0  0  0  0  0  0
    0.0389    6.5147   -3.7160 H   0  0  0  1  0  0  0  0  0  0  0  0
   -0.2322    7.3712   -2.2171 H   0  0  0  1  0  0  0  0  0  0  0  0
   -1.3560    2.5208   -1.2734 C   0  0  0  1  0  0  0  0  0  0  0  0
   -2.7491    2.5264   -1.8718 C   0  0  0  1  0  0  0  0  0  0  0  0
   -3.0249    3.1800   -3.0628 C   0  0  0  1  0  0  0  0  0  0  0  0
   -4.3242    3.2464   -3.5295 C   0  0  0  1  0  0  0  0  0  0  0  0
   -5.3505    2.6550   -2.8096 C   0  0  0  1  0  0  0  0  0  0  0  0
   -5.0753    2.0034   -1.6223 C   0  0  0  1  0  0  0  0  0  0  0  0
   -3.7723    1.9367   -1.1539 C   0  0  0  1  0  0  0  0  0  0  0  0
   -6.6388    2.6892   -3.2292 O   0  0  0  1  0  0  0  0  0  0  0  0
   -4.6440    3.8783   -4.6850 O   0  0  0  1  0  0  0  0  0  0  0  0
   -1.2220    1.6082   -0.7311 H   0  0  0  1  0  0  0  0  0  0  0  0
   -0.6431    2.5711   -2.0697 H   0  0  0  1  0  0  0  0  0  0  0  0
   -2.2544    3.6203   -3.6050 H   0  0  0  1  0  0  0  0  0  0  0  0
   -5.8459    1.5632   -1.0801 H   0  0  0  1  0  0  0  0  0  0  0  0
   -3.5648    1.4429   -0.2625 H   0  0  0  1  0  0  0  0  0  0  0  0
   -6.8895    1.8255   -3.5649 H   0  0  0  1  0  0  0  0  0  0  0  0
   -4.9335    3.2326   -5.3338 H   0  0  0  1  0  0  0  0  0  0  0  0
  1  4  1  0  0  0  0
  2  4  1  0  0  0  0
  2  5  2  0  0  0  0
  2  6  1  0  0  0  0
  3  4  1  0  0  0  0
  3  7  1  0  0  0  0
  3  8  1  0  0  0  0
  4 19  1  0  0  0  0
  6  9  1  0  0  0  0
  6 12  1  0  0  0  0
  8 10  1  0  0  0  0
  8 11  2  0  0  0  0
  9 13  1  0  0  0  0
  9 14  1  0  0  0  0
  9 15  1  0  0  0  0
 10 16  1  0  0  0  0
 10 17  1  0  0  0  0
 10 18  1  0  0  0  0
 19 20  1  0  0  0  0
 19 28  1  0  0  0  0
 19 29  1  0  0  0  0
 20 21  4  0  0  0  0
 20 25  4  0  0  0  0
 21 22  4  0  0  0  0
 21 30  1  0  0  0  0
 22 23  4  0  0  0  0
 22 27  1  0  0  0  0
 23 24  4  0  0  0  0
 23 26  1  0  0  0  0
 24 25  4  0  0  0  0
 24 31  1  0  0  0  0
 25 32  1  0  0  0  0
 26 33  1  0  0  0  0
 27 34  1  0  0  0  0
M  END
> <BCLConfClusterSize>
1

> <ConfClashScore>
0 

> <ConfOneFourInteractionScore>
-0.952634 

> <ConfScore>
0.0370847 

> <ConfScorePBest>
0.00737814 

> <ConfTolerance>
0.33425 

> <RosettaParamsInstructions>
M  ROOT 3
M  POLY_N_BB 3
M  POLY_CA_BB 4
M  POLY_C_BB 2
M  POLY_O_BB 5
M  POLY_IGNORE 9 10 11 12 13 14 15 16 17 18 
M  POLY_UPPER 6
M  POLY_LOWER 8
M  POLY_CHG 0
M  POLY_PROPERTIES ALPHA_AA D_AA PROTEIN AROMATIC POLYMER 
M  END

$$$$



 34 34  0  0  0  0  0  0  0  0999 V2000
    0.3794    1.4105   -1.0951 H   0  0  0  1  0  0  0  0  0  0  0  0
   -0.5735    0.5574   -2.7620 C   0  0  0  1  0  0  0  0  0  0  0  0
   -1.2285    0.3338   -0.3962 N   0  0  0  1  0  0  0  0  0  0  0  0
   -0.6280    1.2074   -1.3932 C   0  0  0  1  0  0  0  0  0  0  0  0
    0.3974    0.7084   -3.5024 O   0  0  0  1  0  0  0  0  0  0  0  0
   -1.6425   -0.1810   -3.0999 N   0  0  0  1  0  0  0  0  0  0  0  0
   -1.6318   -0.5103   -0.6883 H   0  0  0  1  0  0  0  0  0  0  0  0
   -1.2495    0.6456    0.9163 C   0  0  0  1  0  0  0  0  0  0  0  0
   -1.8675   -0.8893   -4.3511 C   0  0  0  1  0  0  0  0  0  0  0  0
   -1.9292   -0.3161    1.8646 C   0  0  0  1  0  0  0  0  0  0  0  0
   -0.7315    1.6813    1.3319 O   0  0  0  1  0  0  0  0  0  0  0  0
   -2.3521   -0.2510   -2.4276 H   0  0  0  1  0  0  0  0  0  0  0  0
   -0.9295   -1.2122   -4.7524 H   0  0  0  1  0  0  0  0  0  0  0  0
   -2.3478   -0.2360   -5.0492 H   0  0  0  1  0  0  0  0  0  0  0  0
   -2.4904   -1.7406   -4.1718 H   0  0  0  1  0  0  0  0  0  0  0  0
   -2.8107    0.1398    2.2645 H   0  0  0  1  0  0  0  0  0  0  0  0
   -1.2608   -0.5612    2.6634 H   0  0  0  1  0  0  0  0  0  0  0  0
   -2.1970   -1.2075    1.3368 H   0  0  0  1  0  0  0  0  0  0  0  0
   -1.3647    2.5396   -1.4390 C   0  0  0  1  0  0  0  0  0  0  0  0
   -2.7840    2.4753   -1.9365 C   0  0  0  1  0  0  0  0  0  0  0  0
   -3.0879    2.9612   -3.1987 C   0  0  0  1  0  0  0  0  0  0  0  0
   -4.4010    2.9930   -3.6291 C   0  0  0  1  0  0  0  0  0  0  0  0
   -5.4133    2.5341   -2.8008 C   0  0  0  1  0  0  0  0  0  0  0  0
   -5.1101    2.0497   -1.5424 C   0  0  0  1  0  0  0  0  0  0  0  0
   -3.7933    2.0177   -1.1105 C   0  0  0  1  0  0  0  0  0  0  0  0
   -6.7143    2.5404   -3.1802 O   0  0  0  1  0  0  0  0  0  0  0  0
   -4.6733    3.4774   -4.8651 O   0  0  0  1  0  0  0  0  0  0  0  0
   -0.8187    3.1968   -2.0831 H   0  0  0  1  0  0  0  0  0  0  0  0
   -1.3803    2.9424   -0.4478 H   0  0  0  1  0  0  0  0  0  0  0  0
   -2.3280    3.3017   -3.8217 H   0  0  0  1  0  0  0  0  0  0  0  0
   -5.8701    1.7092   -0.9194 H   0  0  0  1  0  0  0  0  0  0  0  0
   -3.5649    1.6495   -0.1651 H   0  0  0  1  0  0  0  0  0  0  0  0
   -6.9446    1.6847   -3.5493 H   0  0  0  1  0  0  0  0  0  0  0  0
   -4.3734    4.3873   -4.9260 H   0  0  0  1  0  0  0  0  0  0  0  0
  1  4  1  0  0  0  0
  2  4  1  0  0  0  0
  2  5  2  0  0  0  0
  2  6  1  0  0  0  0
  3  4  1  0  0  0  0
  3  7  1  0  0  0  0
  3  8  1  0  0  0  0
  4 19  1  0  0  0  0
  6  9  1  0  0  0  0
  6 12  1  0  0  0  0
  8 10  1  0  0  0  0
  8 11  2  0  0  0  0
  9 13  1  0  0  0  0
  9 14  1  0  0  0  0
  9 15  1  0  0  0  0
 10 16  1  0  0  0  0
 10 17  1  0  0  0  0
 10 18  1  0  0  0  0
 19 20  1  0  0  0  0
 19 28  1  0  0  0  0
 19 29  1  0  0  0  0
 20 21  4  0  0  0  0
 20 25  4  0  0  0  0
 21 22  4  0  0  0  0
 21 30  1  0  0  0  0
 22 23  4  0  0  0  0
 22 27  1  0  0  0  0
 23 24  4  0  0  0  0
 23 26  1  0  0  0  0
 24 25  4  0  0  0  0
 24 31  1  0  0  0  0
 25 32  1  0  0  0  0
 26 33  1  0  0  0  0
 27 34  1  0  0  0  0
M  END
> <BCLConfClusterSize>
1

> <ConfClashScore>
0 

> <ConfOneFourInteractionScore>
-0.959103 

> <ConfScore>
0.0458394 

> <ConfScorePBest>
0.00734966 

> <ConfTolerance>
0.41884 

> <RosettaParamsInstructions>
M  ROOT 3
M  POLY_N_BB 3
M  POLY_CA_BB 4
M  POLY_C_BB 2
M  POLY_O_BB 5
M  POLY_IGNORE 9 10 11 12 13 14 15 16 17 18 
M  POLY_UPPER 6
M  POLY_LOWER 8
M  POLY_CHG 0
M  POLY_PROPERTIES ALPHA_AA D_AA PROTEIN AROMATIC POLYMER 
M  END

$$$$



 34 34  0  0  0  0  0  0  0  0999 V2000
   -1.3257    0.4782   -0.9711 H   0  0  0  1  0  0  0  0  0  0  0  0
    0.6196    1.1091   -0.5116 C   0  0  0  1  0  0  0  0  0  0  0  0
   -0.3984    0.8380   -2.7676 N   0  0  0  1  0  0  0  0  0  0  0  0
   -0.6338    1.1908   -1.3689 C   0  0  0  1  0  0  0  0  0  0  0  0
    1.5939    0.4471   -0.8667 O   0  0  0  1  0  0  0  0  0  0  0  0
    0.5850    1.7989    0.6387 N   0  0  0  1  0  0  0  0  0  0  0  0
   -1.1226    0.4192   -3.2781 H   0  0  0  1  0  0  0  0  0  0  0  0
    0.7784    1.0682   -3.3789 C   0  0  0  1  0  0  0  0  0  0  0  0
    1.6937    1.7948    1.5813 C   0  0  0  1  0  0  0  0  0  0  0  0
    0.8894    0.5650   -4.8050 C   0  0  0  1  0  0  0  0  0  0  0  0
    1.7153    1.6482   -2.8318 O   0  0  0  1  0  0  0  0  0  0  0  0
   -0.2147    2.3239    0.8514 H   0  0  0  1  0  0  0  0  0  0  0  0
    1.3326    2.0384    2.5586 H   0  0  0  1  0  0  0  0  0  0  0  0
    2.4210    2.5192    1.2792 H   0  0  0  1  0  0  0  0  0  0  0  0
    2.1428    0.8237    1.5991 H   0  0  0  1  0  0  0  0  0  0  0  0
    1.1589   -0.4705   -4.7984 H   0  0  0  1  0  0  0  0  0  0  0  0
    1.6395    1.1251   -5.3232 H   0  0  0  1  0  0  0  0  0  0  0  0
   -0.0517    0.6852   -5.2997 H   0  0  0  1  0  0  0  0  0  0  0  0
   -1.3299    2.5444   -1.3147 C   0  0  0  1  0  0  0  0  0  0  0  0
   -2.7356    2.5065   -1.8519 C   0  0  0  1  0  0  0  0  0  0  0  0
   -3.0183    3.1088   -3.0681 C   0  0  0  1  0  0  0  0  0  0  0  0
   -4.3211    3.1617   -3.5265 C   0  0  0  1  0  0  0  0  0  0  0  0
   -5.3443    2.6079   -2.7729 C   0  0  0  1  0  0  0  0  0  0  0  0
   -5.0622    2.0075   -1.5604 C   0  0  0  1  0  0  0  0  0  0  0  0
   -3.7557    1.9543   -1.1004 C   0  0  0  1  0  0  0  0  0  0  0  0
   -6.5764    2.7160   -3.3270 O   0  0  0  1  0  0  0  0  0  0  0  0
   -4.5729    3.7604   -4.7160 O   0  0  0  1  0  0  0  0  0  0  0  0
   -0.7626    3.2426   -1.8940 H   0  0  0  1  0  0  0  0  0  0  0  0
   -1.3634    2.8695   -0.2958 H   0  0  0  1  0  0  0  0  0  0  0  0
   -2.2502    3.5207   -3.6355 H   0  0  0  1  0  0  0  0  0  0  0  0
   -5.8304    1.5956   -0.9931 H   0  0  0  1  0  0  0  0  0  0  0  0
   -3.5431    1.4990   -0.1899 H   0  0  0  1  0  0  0  0  0  0  0  0
   -6.7307    1.9714   -3.9128 H   0  0  0  1  0  0  0  0  0  0  0  0
   -5.3524    3.3665   -5.1144 H   0  0  0  1  0  0  0  0  0  0  0  0
  1  4  1  0  0  0  0
  2  4  1  0  0  0  0
  2  5  2  0  0  0  0
  2  6  1  0  0  0  0
  3  4  1  0  0  0  0
  3  7  1  0  0  0  0
  3  8  1  0  0  0  0
  4 19  1  0  0  0  0
  6  9  1  0  0  0  0
  6 12  1  0  0  0  0
  8 10  1  0  0  0  0
  8 11  2  0  0  0  0
  9 13  1  0  0  0  0
  9 14  1  0  0  0  0
  9 15  1  0  0  0  0
 10 16  1  0  0  0  0
 10 17  1  0  0  0  0
 10 18  1  0  0  0  0
 19 20  1  0  0  0  0
 19 28  1  0  0  0  0
 19 29  1  0  0  0  0
 20 21  4  0  0  0  0
 20 25  4  0  0  0  0
 21 22  4  0  0  0  0
 21 30  1  0  0  0  0
 22 23  4  0  0  0  0
 22 27  1  0  0  0  0
 23 24  4  0  0  0  0
 23 26  1  0  0  0  0
 24 25  4  0  0  0  0
 24 31  1  0  0  0  0
 25 32  1  0  0  0  0
 26 33  1  0  0  0  0
 27 34  1  0  0  0  0
M  END
> <BCLConfClusterSize>
1

> <ConfClashScore>
0 

> <ConfOneFourInteractionScore>
-0.960887 

> <ConfScore>
0.0474958 

> <ConfScorePBest>
0.00732118 

> <ConfTolerance>
0.404674 

> <RosettaParamsInstructions>
M  ROOT 3
M  POLY_N_BB 3
M  POLY_CA_BB 4
M  POLY_C_BB 2
M  POLY_O_BB 5
M  POLY_IGNORE 9 10 11 12 13 14 15 16 17 18 
M  POLY_UPPER 6
M  POLY_LOWER 8
M  POLY_CHG 0
M  POLY_PROPERTIES ALPHA_AA D_AA PROTEIN AROMATIC POLYMER 
M  END

$$$$



 34 34  0  0  0  0  0  0  0  0999 V2000
   -1.3519    4.6762   -0.8743 H   0  0  0  1  0  0  0  0  0  0  0  0
    0.3225    3.8438    0.1056 C   0  0  0  1  0  0  0  0  0  0  0  0
   -2.0739    3.6387    0.7622 N   0  0  0  1  0  0  0  0  0  0  0  0
   -1.1286    3.7764   -0.3400 C   0  0  0  1  0  0  0  0  0  0  0  0
    1.2322    3.8947   -0.7057 O   0  0  0  1  0  0  0  0  0  0  0  0
    0.5257    3.8432    1.4325 N   0  0  0  1  0  0  0  0  0  0  0  0
   -2.4160    2.7411    0.9562 H   0  0  0  1  0  0  0  0  0  0  0  0
   -2.5079    4.6425    1.5259 C   0  0  0  1  0  0  0  0  0  0  0  0
    1.8024    3.8594    2.1310 C   0  0  0  1  0  0  0  0  0  0  0  0
   -3.6572    4.3117    2.4581 C   0  0  0  1  0  0  0  0  0  0  0  0
   -2.0203    5.7692    1.4902 O   0  0  0  1  0  0  0  0  0  0  0  0
   -0.2768    3.8305    1.9948 H   0  0  0  1  0  0  0  0  0  0  0  0
    2.4604    4.5569    1.6563 H   0  0  0  1  0  0  0  0  0  0  0  0
    2.2373    2.8822    2.1013 H   0  0  0  1  0  0  0  0  0  0  0  0
    1.6481    4.1509    3.1489 H   0  0  0  1  0  0  0  0  0  0  0  0
   -3.6491    3.2645    2.6775 H   0  0  0  1  0  0  0  0  0  0  0  0
   -4.5831    4.5702    1.9880 H   0  0  0  1  0  0  0  0  0  0  0  0
   -3.5506    4.8671    3.3664 H   0  0  0  1  0  0  0  0  0  0  0  0
   -1.3879    2.6081   -1.2770 C   0  0  0  1  0  0  0  0  0  0  0  0
   -2.7765    2.5574   -1.8836 C   0  0  0  1  0  0  0  0  0  0  0  0
   -3.0742    3.2078   -3.0710 C   0  0  0  1  0  0  0  0  0  0  0  0
   -4.3725    3.2209   -3.5449 C   0  0  0  1  0  0  0  0  0  0  0  0
   -5.3759    2.5791   -2.8357 C   0  0  0  1  0  0  0  0  0  0  0  0
   -5.0789    1.9307   -1.6519 C   0  0  0  1  0  0  0  0  0  0  0  0
   -3.7768    1.9175   -1.1764 C   0  0  0  1  0  0  0  0  0  0  0  0
   -6.6051    2.6557   -3.4012 O   0  0  0  1  0  0  0  0  0  0  0  0
   -4.5899    3.8804   -4.7087 O   0  0  0  1  0  0  0  0  0  0  0  0
   -1.2349    1.7033   -0.7267 H   0  0  0  1  0  0  0  0  0  0  0  0
   -0.6799    2.6634   -2.0774 H   0  0  0  1  0  0  0  0  0  0  0  0
   -2.3208    3.6859   -3.6052 H   0  0  0  1  0  0  0  0  0  0  0  0
   -5.8323    1.4526   -1.1177 H   0  0  0  1  0  0  0  0  0  0  0  0
   -3.5527    1.4261   -0.2876 H   0  0  0  1  0  0  0  0  0  0  0  0
   -7.1510    1.9341   -3.0804 H   0  0  0  1  0  0  0  0  0  0  0  0
   -4.5285    3.2644   -5.4424 H   0  0  0  1  0  0  0  0  0  0  0  0
  1  4  1  0  0  0  0
  2  4  1  0  0  0  0
  2  5  2  0  0  0  0
  2  6  1  0  0  0  0
  3  4  1  0  0  0  0
  3  7  1  0  0  0  0
  3  8  1  0  0  0  0
  4 19  1  0  0  0  0
  6  9  1  0  0  0  0
  6 12  1  0  0  0  0
  8 10  1  0  0  0  0
  8 11  2  0  0  0  0
  9 13  1  0  0  0  0
  9 14  1  0  0  0  0
  9 15  1  0  0  0  0
 10 16  1  0  0  0  0
 10 17  1  0  0  0  0
 10 18  1  0  0  0  0
 19 20  1  0  0  0  0
 19 28  1  0  0  0  0
 19 29  1  0  0  0  0
 20 21  4  0  0  0  0
 20 25  4  0  0  0  0
 21 22  4  0  0  0  0
 21 30  1  0  0  0  0
 22 23  4  0  0  0  0
 22 27  1  0  0  0  0
 23 24  4  0  0  0  0
 23 26  1  0  0  0  0
 24 25  4  0  0  0  0
 24 31  1  0  0  0  0
 25 32  1  0  0  0  0
 26 33  1  0  0  0  0
 27 34  1  0  0  0  0
M  END
> <BCLConfClusterSize>
1

> <ConfClashScore>
0 

> <ConfOneFourInteractionScore>
-0.956443 

> <ConfScore>
0.0514126 

> <ConfScorePBest>
0.0072927 

> <ConfTolerance>
0.234263 

> <RosettaParamsInstructions>
M  ROOT 3
M  POLY_N_BB 3
M  POLY_CA_BB 4
M  POLY_C_BB 2
M  POLY_O_BB 5
M  POLY_IGNORE 9 10 11 12 13 14 15 16 17 18 
M  POLY_UPPER 6
M  POLY_LOWER 8
M  POLY_CHG 0
M  POLY_PROPERTIES ALPHA_AA D_AA PROTEIN AROMATIC POLYMER 
M  END

$$$$



 34 34  0  0  0  0  0  0  0  0999 V2000
   -1.0901    0.7719   -0.9138 H   0  0  0  1  0  0  0  0  0  0  0  0
    0.7470    1.6842   -0.5883 C   0  0  0  1  0  0  0  0  0  0  0  0
   -0.3023    1.1513   -2.7656 N   0  0  0  1  0  0  0  0  0  0  0  0
   -0.5359    1.5628   -1.3745 C   0  0  0  1  0  0  0  0  0  0  0  0
    0.7132    2.0394    0.5882 O   0  0  0  1  0  0  0  0  0  0  0  0
    1.8701    1.3085   -1.2068 N   0  0  0  1  0  0  0  0  0  0  0  0
   -0.1146    1.8267   -3.4504 H   0  0  0  1  0  0  0  0  0  0  0  0
   -0.3456   -0.1473   -3.1004 C   0  0  0  1  0  0  0  0  0  0  0  0
    3.1693    1.3500   -0.5524 C   0  0  0  1  0  0  0  0  0  0  0  0
   -0.0710   -0.4784   -4.5639 C   0  0  0  1  0  0  0  0  0  0  0  0
   -0.5147   -1.0379   -2.2689 O   0  0  0  1  0  0  0  0  0  0  0  0
    1.8172    0.9940   -2.1335 H   0  0  0  1  0  0  0  0  0  0  0  0
    3.1516    0.7258    0.3165 H   0  0  0  1  0  0  0  0  0  0  0  0
    3.3911    2.3562   -0.2639 H   0  0  0  1  0  0  0  0  0  0  0  0
    3.9203    0.9984   -1.2285 H   0  0  0  1  0  0  0  0  0  0  0  0
   -0.5862    0.2192   -5.1907 H   0  0  0  1  0  0  0  0  0  0  0  0
   -0.4148   -1.4693   -4.7758 H   0  0  0  1  0  0  0  0  0  0  0  0
    0.9806   -0.4174   -4.7519 H   0  0  0  1  0  0  0  0  0  0  0  0
   -1.4413    2.7981   -1.3087 C   0  0  0  1  0  0  0  0  0  0  0  0
   -2.8043    2.5625   -1.9027 C   0  0  0  1  0  0  0  0  0  0  0  0
   -3.0742    3.0033   -3.1889 C   0  0  0  1  0  0  0  0  0  0  0  0
   -4.3481    2.8762   -3.7098 C   0  0  0  1  0  0  0  0  0  0  0  0
   -5.3545    2.3030   -2.9481 C   0  0  0  1  0  0  0  0  0  0  0  0
   -5.0852    1.8636   -1.6657 C   0  0  0  1  0  0  0  0  0  0  0  0
   -3.8077    1.9910   -1.1431 C   0  0  0  1  0  0  0  0  0  0  0  0
   -6.6291    2.1327   -3.3760 O   0  0  0  1  0  0  0  0  0  0  0  0
   -4.5393    3.3338   -4.9710 O   0  0  0  1  0  0  0  0  0  0  0  0
   -0.9695    3.5951   -1.8444 H   0  0  0  1  0  0  0  0  0  0  0  0
   -1.5606    3.0786   -0.2831 H   0  0  0  1  0  0  0  0  0  0  0  0
   -2.3182    3.4297   -3.7619 H   0  0  0  1  0  0  0  0  0  0  0  0
   -5.8412    1.4372   -1.0927 H   0  0  0  1  0  0  0  0  0  0  0  0
   -3.6042    1.6566   -0.1796 H   0  0  0  1  0  0  0  0  0  0  0  0
   -7.2221    2.6579   -2.8338 H   0  0  0  1  0  0  0  0  0  0  0  0
   -4.3537    4.2751   -5.0019 H   0  0  0  1  0  0  0  0  0  0  0  0
  1  4  1  0  0  0  0
  2  4  1  0  0  0  0
  2  5  2  0  0  0  0
  2  6  1  0  0  0  0
  3  4  1  0  0  0  0
  3  7  1  0  0  0  0
  3  8  1  0  0  0  0
  4 19  1  0  0  0  0
  6  9  1  0  0  0  0
  6 12  1  0  0  0  0
  8 10  1  0  0  0  0
  8 11  2  0  0  0  0
  9 13  1  0  0  0  0
  9 14  1  0  0  0  0
  9 15  1  0  0  0  0
 10 16  1  0  0  0  0
 10 17  1  0  0  0  0
 10 18  1  0  0  0  0
 19 20  1  0  0  0  0
 19 28  1  0  0  0  0
 19 29  1  0  0  0  0
 20 21  4  0  0  0  0
 20 25  4  0  0  0  0
 21 22  4  0  0  0  0
 21 30  1  0  0  0  0
 22 23  4  0  0  0  0
 22 27  1  0  0  0  0
 23 24  4  0  0  0  0
 23 26  1  0  0  0  0
 24 25  4  0  0  0  0
 24 31  1  0  0  0  0
 25 32  1  0  0  0  0
 26 33  1  0  0  0  0
 27 34  1  0  0  0  0
M  END
> <BCLConfClusterSize>
1

> <ConfClashScore>
0 

> <ConfOneFourInteractionScore>
-0.94165 

> <ConfScore>
0.0537196 

> <ConfScorePBest>
0.00726422 

> <ConfTolerance>
0.298955 

> <RosettaParamsInstructions>
M  ROOT 3
M  POLY_N_BB 3
M  POLY_CA_BB 4
M  POLY_C_BB 2
M  POLY_O_BB 5
M  POLY_IGNORE 9 10 11 12 13 14 15 16 17 18 
M  POLY_UPPER 6
M  POLY_LOWER 8
M  POLY_CHG 0
M  POLY_PROPERTIES ALPHA_AA D_AA PROTEIN AROMATIC POLYMER 
M  END

$$$$



 34 34  0  0  0  0  0  0  0  0999 V2000
    0.0678    3.7328   -0.4556 H   0  0  0  1  0  0  0  0  0  0  0  0
   -1.7002    4.0014    0.6301 C   0  0  0  1  0  0  0  0  0  0  0  0
   -1.1426    4.9904   -1.5543 N   0  0  0  1  0  0  0  0  0  0  0  0
   -0.9741    3.8089   -0.6870 C   0  0  0  1  0  0  0  0  0  0  0  0
   -1.8841    5.1143    1.0950 O   0  0  0  1  0  0  0  0  0  0  0  0
   -2.1178    2.8783    1.2354 N   0  0  0  1  0  0  0  0  0  0  0  0
   -0.3764    5.3065   -2.0771 H   0  0  0  1  0  0  0  0  0  0  0  0
   -2.3085    5.6472   -1.6522 C   0  0  0  1  0  0  0  0  0  0  0  0
   -2.8384    2.8983    2.4996 C   0  0  0  1  0  0  0  0  0  0  0  0
   -2.2960    6.8808   -2.5263 C   0  0  0  1  0  0  0  0  0  0  0  0
   -3.3325    5.2840   -1.0751 O   0  0  0  1  0  0  0  0  0  0  0  0
   -1.9309    2.0149    0.8112 H   0  0  0  1  0  0  0  0  0  0  0  0
   -2.9610    3.9103    2.8248 H   0  0  0  1  0  0  0  0  0  0  0  0
   -2.2842    2.3525    3.2344 H   0  0  0  1  0  0  0  0  0  0  0  0
   -3.7997    2.4469    2.3691 H   0  0  0  1  0  0  0  0  0  0  0  0
   -2.3703    6.5914   -3.5537 H   0  0  0  1  0  0  0  0  0  0  0  0
   -1.3832    7.4175   -2.3723 H   0  0  0  1  0  0  0  0  0  0  0  0
   -3.1257    7.5066   -2.2714 H   0  0  0  1  0  0  0  0  0  0  0  0
   -1.3476    2.5379   -1.4385 C   0  0  0  1  0  0  0  0  0  0  0  0
   -2.7715    2.4689   -1.9219 C   0  0  0  1  0  0  0  0  0  0  0  0
   -3.0870    2.9415   -3.1863 C   0  0  0  1  0  0  0  0  0  0  0  0
   -4.4040    2.9694   -3.6047 C   0  0  0  1  0  0  0  0  0  0  0  0
   -5.4088    2.5198   -2.7622 C   0  0  0  1  0  0  0  0  0  0  0  0
   -5.0940    2.0486   -1.5016 C   0  0  0  1  0  0  0  0  0  0  0  0
   -3.7732    2.0206   -1.0817 C   0  0  0  1  0  0  0  0  0  0  0  0
   -6.6753    2.5720   -3.2417 O   0  0  0  1  0  0  0  0  0  0  0  0
   -4.7623    3.4270   -4.8290 O   0  0  0  1  0  0  0  0  0  0  0  0
   -1.1802    1.7070   -0.7853 H   0  0  0  1  0  0  0  0  0  0  0  0
   -0.7055    2.4574   -2.2906 H   0  0  0  1  0  0  0  0  0  0  0  0
   -2.3329    3.2751   -3.8200 H   0  0  0  1  0  0  0  0  0  0  0  0
   -5.8482    1.7151   -0.8679 H   0  0  0  1  0  0  0  0  0  0  0  0
   -3.5361    1.6623   -0.1347 H   0  0  0  1  0  0  0  0  0  0  0  0
   -6.8409    1.8040   -3.7933 H   0  0  0  1  0  0  0  0  0  0  0  0
   -4.5413    4.3586   -4.9002 H   0  0  0  1  0  0  0  0  0  0  0  0
  1  4  1  0  0  0  0
  2  4  1  0  0  0  0
  2  5  2  0  0  0  0
  2  6  1  0  0  0  0
  3  4  1  0  0  0  0
  3  7  1  0  0  0  0
  3  8  1  0  0  0  0
  4 19  1  0  0  0  0
  6  9  1  0  0  0  0
  6 12  1  0  0  0  0
  8 10  1  0  0  0  0
  8 11  2  0  0  0  0
  9 13  1  0  0  0  0
  9 14  1  0  0  0  0
  9 15  1  0  0  0  0
 10 16  1  0  0  0  0
 10 17  1  0  0  0  0
 10 18  1  0  0  0  0
 19 20  1  0  0  0  0
 19 28  1  0  0  0  0
 19 29  1  0  0  0  0
 20 21  4  0  0  0  0
 20 25  4  0  0  0  0
 21 22  4  0  0  0  0
 21 30  1  0  0  0  0
 22 23  4  0  0  0  0
 22 27  1  0  0  0  0
 23 24  4  0  0  0  0
 23 26  1  0  0  0  0
 24 25  4  0  0  0  0
 24 31  1  0  0  0  0
 25 32  1  0  0  0  0
 26 33  1  0  0  0  0
 27 34  1  0  0  0  0
M  END
> <BCLConfClusterSize>
1

> <ConfClashScore>
0 

> <ConfOneFourInteractionScore>
-0.924221 

> <ConfScore>
0.0602318 

> <ConfScorePBest>
0.00723574 

> <ConfTolerance>
0.28639 

> <RosettaParamsInstructions>
M  ROOT 3
M  POLY_N_BB 3
M  POLY_CA_BB 4
M  POLY_C_BB 2
M  POLY_O_BB 5
M  POLY_IGNORE 9 10 11 12 13 14 15 16 17 18 
M  POLY_UPPER 6
M  POLY_LOWER 8
M  POLY_CHG 0
M  POLY_PROPERTIES ALPHA_AA D_AA PROTEIN AROMATIC POLYMER 
M  END

$$$$



 34 34  0  0  0  0  0  0  0  0999 V2000
   -1.4243    4.9182   -1.5013 H   0  0  0  1  0  0  0  0  0  0  0  0
    0.1849    4.4137   -0.2086 C   0  0  0  1  0  0  0  0  0  0  0  0
   -2.1722    4.4138    0.3819 N   0  0  0  1  0  0  0  0  0  0  0  0
   -1.2305    4.2047   -0.7277 C   0  0  0  1  0  0  0  0  0  0  0  0
    0.4174    5.1910    0.7134 O   0  0  0  1  0  0  0  0  0  0  0  0
    1.1376    3.7027   -0.8184 N   0  0  0  1  0  0  0  0  0  0  0  0
   -2.7345    3.6735    0.6920 H   0  0  0  1  0  0  0  0  0  0  0  0
   -2.2638    5.6226    0.9740 C   0  0  0  1  0  0  0  0  0  0  0  0
    2.5503    3.8733   -0.5134 C   0  0  0  1  0  0  0  0  0  0  0  0
   -3.3838    5.8446    1.9718 C   0  0  0  1  0  0  0  0  0  0  0  0
   -1.4635    6.5200    0.7139 O   0  0  0  1  0  0  0  0  0  0  0  0
    0.8760    3.0434   -1.4946 H   0  0  0  1  0  0  0  0  0  0  0  0
    2.7316    3.5986    0.5047 H   0  0  0  1  0  0  0  0  0  0  0  0
    2.8258    4.8967   -0.6609 H   0  0  0  1  0  0  0  0  0  0  0  0
    3.1323    3.2500   -1.1598 H   0  0  0  1  0  0  0  0  0  0  0  0
   -3.4143    5.0277    2.6622 H   0  0  0  1  0  0  0  0  0  0  0  0
   -4.3170    5.9069    1.4520 H   0  0  0  1  0  0  0  0  0  0  0  0
   -3.2106    6.7558    2.5052 H   0  0  0  1  0  0  0  0  0  0  0  0
   -1.4123    2.7954   -1.3011 C   0  0  0  1  0  0  0  0  0  0  0  0
   -2.7892    2.5683   -1.8937 C   0  0  0  1  0  0  0  0  0  0  0  0
   -3.1131    3.0094   -3.1674 C   0  0  0  1  0  0  0  0  0  0  0  0
   -4.4051    2.8710   -3.6386 C   0  0  0  1  0  0  0  0  0  0  0  0
   -5.3755    2.2865   -2.8398 C   0  0  0  1  0  0  0  0  0  0  0  0
   -5.0524    1.8469   -1.5700 C   0  0  0  1  0  0  0  0  0  0  0  0
   -3.7568    1.9855   -1.0972 C   0  0  0  1  0  0  0  0  0  0  0  0
   -6.6539    2.1245   -3.2597 O   0  0  0  1  0  0  0  0  0  0  0  0
   -4.8146    3.2763   -4.8653 O   0  0  0  1  0  0  0  0  0  0  0  0
   -1.2584    2.0856   -0.5153 H   0  0  0  1  0  0  0  0  0  0  0  0
   -0.6820    2.6430   -2.0681 H   0  0  0  1  0  0  0  0  0  0  0  0
   -2.3841    3.4442   -3.7682 H   0  0  0  1  0  0  0  0  0  0  0  0
   -5.7814    1.4120   -0.9692 H   0  0  0  1  0  0  0  0  0  0  0  0
   -3.5128    1.6510   -0.1431 H   0  0  0  1  0  0  0  0  0  0  0  0
   -7.0394    2.9826   -3.4515 H   0  0  0  1  0  0  0  0  0  0  0  0
   -4.3326    4.0668   -5.1191 H   0  0  0  1  0  0  0  0  0  0  0  0
  1  4  1  0  0  0  0
  2  4  1  0  0  0  0
  2  5  2  0  0  0  0
  2  6  1  0  0  0  0
  3  4  1  0  0  0  0
  3  7  1  0  0  0  0
  3  8  1  0  0  0  0
  4 19  1  0  0  0  0
  6  9  1  0  0  0  0
  6 12  1  0  0  0  0
  8 10  1  0  0  0  0
  8 11  2  0  0  0  0
  9 13  1  0  0  0  0
  9 14  1  0  0  0  0
  9 15  1  0  0  0  0
 10 16  1  0  0  0  0
 10 17  1  0  0  0  0
 10 18  1  0  0  0  0
 19 20  1  0  0  0  0
 19 28  1  0  0  0  0
 19 29  1  0  0  0  0
 20 21  4  0  0  0  0
 20 25  4  0  0  0  0
 21 22  4  0  0  0  0
 21 30  1  0  0  0  0
 22 23  4  0  0  0  0
 22 27  1  0  0  0  0
 23 24  4  0  0  0  0
 23 26  1  0  0  0  0
 24 25  4  0  0  0  0
 24 31  1  0  0  0  0
 25 32  1  0  0  0  0
 26 33  1  0  0  0  0
 27 34  1  0  0  0  0
M  END
> <BCLConfClusterSize>
1

> <ConfClashScore>
0 

> <ConfOneFourInteractionScore>
-0.958855 

> <ConfScore>
0.0608681 

> <ConfScorePBest>
0.00720726 

> <ConfTolerance>
0.345023 

> <RosettaParamsInstructions>
M  ROOT 3
M  POLY_N_BB 3
M  POLY_CA_BB 4
M  POLY_C_BB 2
M  POLY_O_BB 5
M  POLY_IGNORE 9 10 11 12 13 14 15 16 17 18 
M  POLY_UPPER 6
M  POLY_LOWER 8
M  POLY_CHG 0
M  POLY_PROPERTIES ALPHA_AA D_AA PROTEIN AROMATIC POLYMER 
M  END

$$$$



 34 34  0  0  0  0  0  0  0  0999 V2000
   -0.5330    3.5140    0.5050 H   0  0  0  1  0  0  0  0  0  0  0  0
   -1.9286    2.1333    1.2388 C   0  0  0  1  0  0  0  0  0  0  0  0
   -2.3774    4.3808    0.2723 N   0  0  0  1  0  0  0  0  0  0  0  0
   -1.5202    3.2012    0.2361 C   0  0  0  1  0  0  0  0  0  0  0  0
   -2.3673    2.4079    2.3408 O   0  0  0  1  0  0  0  0  0  0  0  0
   -1.8030    0.8405    0.9021 N   0  0  0  1  0  0  0  0  0  0  0  0
   -2.0372    5.2010   -0.1424 H   0  0  0  1  0  0  0  0  0  0  0  0
   -3.5966    4.4275    0.8305 C   0  0  0  1  0  0  0  0  0  0  0  0
   -2.1465   -0.2005    1.8591 C   0  0  0  1  0  0  0  0  0  0  0  0
   -4.2921    5.7724    0.9122 C   0  0  0  1  0  0  0  0  0  0  0  0
   -4.1355    3.4123    1.2634 O   0  0  0  1  0  0  0  0  0  0  0  0
   -1.4792    0.5969    0.0098 H   0  0  0  1  0  0  0  0  0  0  0  0
   -3.1836   -0.4457    1.7632 H   0  0  0  1  0  0  0  0  0  0  0  0
   -1.9534    0.1499    2.8515 H   0  0  0  1  0  0  0  0  0  0  0  0
   -1.5551   -1.0711    1.6664 H   0  0  0  1  0  0  0  0  0  0  0  0
   -3.5603    6.5484    0.9969 H   0  0  0  1  0  0  0  0  0  0  0  0
   -4.9323    5.7911    1.7693 H   0  0  0  1  0  0  0  0  0  0  0  0
   -4.8745    5.9268    0.0279 H   0  0  0  1  0  0  0  0  0  0  0  0
   -1.4371    2.6987   -1.1993 C   0  0  0  1  0  0  0  0  0  0  0  0
   -2.7925    2.5902   -1.8701 C   0  0  0  1  0  0  0  0  0  0  0  0
   -3.0619    3.2296   -3.0701 C   0  0  0  1  0  0  0  0  0  0  0  0
   -4.3361    3.1883   -3.6041 C   0  0  0  1  0  0  0  0  0  0  0  0
   -5.3432    2.5032   -2.9424 C   0  0  0  1  0  0  0  0  0  0  0  0
   -5.0743    1.8657   -1.7459 C   0  0  0  1  0  0  0  0  0  0  0  0
   -3.7965    1.9070   -1.2102 C   0  0  0  1  0  0  0  0  0  0  0  0
   -6.6180    2.4045   -3.3915 O   0  0  0  1  0  0  0  0  0  0  0  0
   -4.6492    3.8020   -4.7712 O   0  0  0  1  0  0  0  0  0  0  0  0
   -0.9805    1.7311   -1.1955 H   0  0  0  1  0  0  0  0  0  0  0  0
   -0.8315    3.3772   -1.7631 H   0  0  0  1  0  0  0  0  0  0  0  0
   -2.3054    3.7403   -3.5686 H   0  0  0  1  0  0  0  0  0  0  0  0
   -5.8309    1.3551   -1.2475 H   0  0  0  1  0  0  0  0  0  0  0  0
   -3.5934    1.4239   -0.3119 H   0  0  0  1  0  0  0  0  0  0  0  0
   -7.2184    2.3578   -2.6439 H   0  0  0  1  0  0  0  0  0  0  0  0
   -4.3662    3.2544   -5.5071 H   0  0  0  1  0  0  0  0  0  0  0  0
  1  4  1  0  0  0  0
  2  4  1  0  0  0  0
  2  5  2  0  0  0  0
  2  6  1  0  0  0  0
  3  4  1  0  0  0  0
  3  7  1  0  0  0  0
  3  8  1  0  0  0  0
  4 19  1  0  0  0  0
  6  9  1  0  0  0  0
  6 12  1  0  0  0  0
  8 10  1  0  0  0  0
  8 11  2  0  0  0  0
  9 13  1  0  0  0  0
  9 14  1  0  0  0  0
  9 15  1  0  0  0  0
 10 16  1  0  0  0  0
 10 17  1  0  0  0  0
 10 18  1  0  0  0  0
 19 20  1  0  0  0  0
 19 28  1  0  0  0  0
 19 29  1  0  0  0  0
 20 21  4  0  0  0  0
 20 25  4  0  0  0  0
 21 22  4  0  0  0  0
 21 30  1  0  0  0  0
 22 23  4  0  0  0  0
 22 27  1  0  0  0  0
 23 24  4  0  0  0  0
 23 26  1  0  0  0  0
 24 25  4  0  0  0  0
 24 31  1  0  0  0  0
 25 32  1  0  0  0  0
 26 33  1  0  0  0  0
 27 34  1  0  0  0  0
M  END
> <BCLConfClusterSize>
1

> <ConfClashScore>
0.000560858 

> <ConfOneFourInteractionScore>
-0.944279 

> <ConfScore>
0.0612409 

> <ConfScorePBest>
0.00717878 

> <ConfTolerance>
0.348511 

> <RosettaParamsInstructions>
M  ROOT 3
M  POLY_N_BB 3
M  POLY_CA_BB 4
M  POLY_C_BB 2
M  POLY_O_BB 5
M  POLY_IGNORE 9 10 11 12 13 14 15 16 17 18 
M  POLY_UPPER 6
M  POLY_LOWER 8
M  POLY_CHG 0
M  POLY_PROPERTIES ALPHA_AA D_AA PROTEIN AROMATIC POLYMER 
M  END

$$$$



 34 34  0  0  0  0  0  0  0  0999 V2000
    0.3419    1.4917   -0.9646 H   0  0  0  1  0  0  0  0  0  0  0  0
   -0.8428    0.3144   -2.2535 C   0  0  0  1  0  0  0  0  0  0  0  0
   -1.2496    0.7342    0.1193 N   0  0  0  1  0  0  0  0  0  0  0  0
   -0.7036    1.3194   -1.1134 C   0  0  0  1  0  0  0  0  0  0  0  0
   -0.9065   -0.8885   -2.0056 O   0  0  0  1  0  0  0  0  0  0  0  0
   -0.9753    0.8147   -3.4829 N   0  0  0  1  0  0  0  0  0  0  0  0
   -1.9533    1.2285    0.5894 H   0  0  0  1  0  0  0  0  0  0  0  0
   -0.8351   -0.4657    0.6564 C   0  0  0  1  0  0  0  0  0  0  0  0
   -1.1742    0.0228   -4.6876 C   0  0  0  1  0  0  0  0  0  0  0  0
   -1.5011   -0.8763    1.9372 C   0  0  0  1  0  0  0  0  0  0  0  0
    0.0216   -1.1218    0.0946 O   0  0  0  1  0  0  0  0  0  0  0  0
   -0.9358    1.7888   -3.5824 H   0  0  0  1  0  0  0  0  0  0  0  0
   -1.1692    0.6660   -5.5427 H   0  0  0  1  0  0  0  0  0  0  0  0
   -2.1142   -0.4851   -4.6291 H   0  0  0  1  0  0  0  0  0  0  0  0
   -0.3854   -0.6947   -4.7767 H   0  0  0  1  0  0  0  0  0  0  0  0
   -1.4367   -0.0769    2.6455 H   0  0  0  1  0  0  0  0  0  0  0  0
   -1.0118   -1.7423    2.3316 H   0  0  0  1  0  0  0  0  0  0  0  0
   -2.5296   -1.1025    1.7475 H   0  0  0  1  0  0  0  0  0  0  0  0
   -1.3542    2.6717   -1.3894 C   0  0  0  1  0  0  0  0  0  0  0  0
   -2.7746    2.5548   -1.8739 C   0  0  0  1  0  0  0  0  0  0  0  0
   -3.1408    3.1571   -3.0675 C   0  0  0  1  0  0  0  0  0  0  0  0
   -4.4611    3.1360   -3.4755 C   0  0  0  1  0  0  0  0  0  0  0  0
   -5.4183    2.5080   -2.6939 C   0  0  0  1  0  0  0  0  0  0  0  0
   -5.0531    1.9075   -1.5039 C   0  0  0  1  0  0  0  0  0  0  0  0
   -3.7289    1.9286   -1.0945 C   0  0  0  1  0  0  0  0  0  0  0  0
   -6.7054    2.4962   -3.1181 O   0  0  0  1  0  0  0  0  0  0  0  0
   -4.7459    3.7493   -4.6500 O   0  0  0  1  0  0  0  0  0  0  0  0
   -0.7804    3.1796   -2.1361 H   0  0  0  1  0  0  0  0  0  0  0  0
   -1.3489    3.2432   -0.4848 H   0  0  0  1  0  0  0  0  0  0  0  0
   -2.4220    3.6248   -3.6560 H   0  0  0  1  0  0  0  0  0  0  0  0
   -5.7718    1.4398   -0.9155 H   0  0  0  1  0  0  0  0  0  0  0  0
   -3.4535    1.4732   -0.2009 H   0  0  0  1  0  0  0  0  0  0  0  0
   -6.7277    2.5556   -4.0760 H   0  0  0  1  0  0  0  0  0  0  0  0
   -4.6657    3.1181   -5.3689 H   0  0  0  1  0  0  0  0  0  0  0  0
  1  4  1  0  0  0  0
  2  4  1  0  0  0  0
  2  5  2  0  0  0  0
  2  6  1  0  0  0  0
  3  4  1  0  0  0  0
  3  7  1  0  0  0  0
  3  8  1  0  0  0  0
  4 19  1  0  0  0  0
  6  9  1  0  0  0  0
  6 12  1  0  0  0  0
  8 10  1  0  0  0  0
  8 11  2  0  0  0  0
  9 13  1  0  0  0  0
  9 14  1  0  0  0  0
  9 15  1  0  0  0  0
 10 16  1  0  0  0  0
 10 17  1  0  0  0  0
 10 18  1  0  0  0  0
 19 20  1  0  0  0  0
 19 28  1  0  0  0  0
 19 29  1  0  0  0  0
 20 21  4  0  0  0  0
 20 25  4  0  0  0  0
 21 22  4  0  0  0  0
 21 30  1  0  0  0  0
 22 23  4  0  0  0  0
 22 27  1  0  0  0  0
 23 24  4  0  0  0  0
 23 26  1  0  0  0  0
 24 25  4  0  0  0  0
 24 31  1  0  0  0  0
 25 32  1  0  0  0  0
 26 33  1  0  0  0  0
 27 34  1  0  0  0  0
M  END
> <BCLConfClusterSize>
1

> <ConfClashScore>
0 

> <ConfOneFourInteractionScore>
-0.955611 

> <ConfScore>
0.066111 

> <ConfScorePBest>
0.0071503 

> <ConfTolerance>
0.539892 

> <RosettaParamsInstructions>
M  ROOT 3
M  POLY_N_BB 3
M  POLY_CA_BB 4
M  POLY_C_BB 2
M  POLY_O_BB 5
M  POLY_IGNORE 9 10 11 12 13 14 15 16 17 18 
M  POLY_UPPER 6
M  POLY_LOWER 8
M  POLY_CHG 0
M  POLY_PROPERTIES ALPHA_AA D_AA PROTEIN AROMATIC POLYMER 
M  END

$$$$



 34 34  0  0  0  0  0  0  0  0999 V2000
    0.0306    3.7539   -0.4052 H   0  0  0  1  0  0  0  0  0  0  0  0
   -1.8894    4.4942    0.0428 C   0  0  0  1  0  0  0  0  0  0  0  0
   -0.6760    4.8079   -2.0352 N   0  0  0  1  0  0  0  0  0  0  0  0
   -0.8946    3.8935   -0.9244 C   0  0  0  1  0  0  0  0  0  0  0  0
   -2.0248    5.7138    0.1326 O   0  0  0  1  0  0  0  0  0  0  0  0
   -2.6185    3.6581    0.7987 N   0  0  0  1  0  0  0  0  0  0  0  0
    0.2154    4.8563   -2.4396 H   0  0  0  1  0  0  0  0  0  0  0  0
   -1.6578    5.5913   -2.5278 C   0  0  0  1  0  0  0  0  0  0  0  0
   -3.5840    4.1363    1.7770 C   0  0  0  1  0  0  0  0  0  0  0  0
   -1.2878    6.6267   -3.5655 C   0  0  0  1  0  0  0  0  0  0  0  0
   -2.8207    5.4687   -2.1455 O   0  0  0  1  0  0  0  0  0  0  0  0
   -2.4963    2.6921    0.6880 H   0  0  0  1  0  0  0  0  0  0  0  0
   -3.8139    3.3503    2.4657 H   0  0  0  1  0  0  0  0  0  0  0  0
   -4.4778    4.4431    1.2750 H   0  0  0  1  0  0  0  0  0  0  0  0
   -3.1703    4.9671    2.3094 H   0  0  0  1  0  0  0  0  0  0  0  0
   -0.2412    6.5609   -3.7784 H   0  0  0  1  0  0  0  0  0  0  0  0
   -1.5147    7.6032   -3.1914 H   0  0  0  1  0  0  0  0  0  0  0  0
   -1.8455    6.4489   -4.4612 H   0  0  0  1  0  0  0  0  0  0  0  0
   -1.3589    2.5338   -1.4201 C   0  0  0  1  0  0  0  0  0  0  0  0
   -2.7822    2.4829   -1.9400 C   0  0  0  1  0  0  0  0  0  0  0  0
   -3.1164    2.9789   -3.1906 C   0  0  0  1  0  0  0  0  0  0  0  0
   -4.4384    3.0040   -3.5931 C   0  0  0  1  0  0  0  0  0  0  0  0
   -5.4294    2.5285   -2.7485 C   0  0  0  1  0  0  0  0  0  0  0  0
   -5.0960    2.0341   -1.5017 C   0  0  0  1  0  0  0  0  0  0  0  0
   -3.7702    2.0087   -1.0978 C   0  0  0  1  0  0  0  0  0  0  0  0
   -6.7177    2.5590   -3.1681 O   0  0  0  1  0  0  0  0  0  0  0  0
   -4.8148    3.4838   -4.8034 O   0  0  0  1  0  0  0  0  0  0  0  0
   -1.2791    1.8416   -0.6081 H   0  0  0  1  0  0  0  0  0  0  0  0
   -0.7069    2.2312   -2.2127 H   0  0  0  1  0  0  0  0  0  0  0  0
   -2.3725    3.3320   -3.8259 H   0  0  0  1  0  0  0  0  0  0  0  0
   -5.8399    1.6810   -0.8665 H   0  0  0  1  0  0  0  0  0  0  0  0
   -3.5190    1.6330   -0.1612 H   0  0  0  1  0  0  0  0  0  0  0  0
   -6.8851    1.8090   -3.7436 H   0  0  0  1  0  0  0  0  0  0  0  0
   -4.2826    4.2520   -5.0232 H   0  0  0  1  0  0  0  0  0  0  0  0
  1  4  1  0  0  0  0
  2  4  1  0  0  0  0
  2  5  2  0  0  0  0
  2  6  1  0  0  0  0
  3  4  1  0  0  0  0
  3  7  1  0  0  0  0
  3  8  1  0  0  0  0
  4 19  1  0  0  0  0
  6  9  1  0  0  0  0
  6 12  1  0  0  0  0
  8 10  1  0  0  0  0
  8 11  2  0  0  0  0
  9 13  1  0  0  0  0
  9 14  1  0  0  0  0
  9 15  1  0  0  0  0
 10 16  1  0  0  0  0
 10 17  1  0  0  0  0
 10 18  1  0  0  0  0
 19 20  1  0  0  0  0
 19 28  1  0  0  0  0
 19 29  1  0  0  0  0
 20 21  4  0  0  0  0
 20 25  4  0  0  0  0
 21 22  4  0  0  0  0
 21 30  1  0  0  0  0
 22 23  4  0  0  0  0
 22 27  1  0  0  0  0
 23 24  4  0  0  0  0
 23 26  1  0  0  0  0
 24 25  4  0  0  0  0
 24 31  1  0  0  0  0
 25 32  1  0  0  0  0
 26 33  1  0  0  0  0
 27 34  1  0  0  0  0
M  END
> <BCLConfClusterSize>
1

> <ConfClashScore>
1.2381e-05 

> <ConfOneFourInteractionScore>
-0.930691 

> <ConfScore>
0.0662371 

> <ConfScorePBest>
0.00712182 

> <ConfTolerance>
0.608428 

> <RosettaParamsInstructions>
M  ROOT 3
M  POLY_N_BB 3
M  POLY_CA_BB 4
M  POLY_C_BB 2
M  POLY_O_BB 5
M  POLY_IGNORE 9 10 11 12 13 14 15 16 17 18 
M  POLY_UPPER 6
M  POLY_LOWER 8
M  POLY_CHG 0
M  POLY_PROPERTIES ALPHA_AA D_AA PROTEIN AROMATIC POLYMER 
M  END

$$$$



 34 34  0  0  0  0  0  0  0  0999 V2000
    0.4752    1.8781   -0.9406 H   0  0  0  1  0  0  0  0  0  0  0  0
   -0.1610    1.3591   -2.8620 C   0  0  0  1  0  0  0  0  0  0  0  0
   -0.9755    0.4392   -0.6995 N   0  0  0  1  0  0  0  0  0  0  0  0
   -0.4546    1.6177   -1.4016 C   0  0  0  1  0  0  0  0  0  0  0  0
    0.0374    0.2166   -3.2731 O   0  0  0  1  0  0  0  0  0  0  0  0
   -0.1237    2.4068   -3.6903 N   0  0  0  1  0  0  0  0  0  0  0  0
   -0.7245    0.2974    0.2371 H   0  0  0  1  0  0  0  0  0  0  0  0
   -1.7801   -0.4472   -1.2927 C   0  0  0  1  0  0  0  0  0  0  0  0
    0.2693    2.2809   -5.0858 C   0  0  0  1  0  0  0  0  0  0  0  0
   -2.2112   -1.6219   -0.4363 C   0  0  0  1  0  0  0  0  0  0  0  0
   -2.1543   -0.3352   -2.4485 O   0  0  0  1  0  0  0  0  0  0  0  0
   -0.3695    3.2908   -3.3460 H   0  0  0  1  0  0  0  0  0  0  0  0
    0.6824    1.3084   -5.2542 H   0  0  0  1  0  0  0  0  0  0  0  0
    1.0025    3.0247   -5.3181 H   0  0  0  1  0  0  0  0  0  0  0  0
   -0.5882    2.4171   -5.7112 H   0  0  0  1  0  0  0  0  0  0  0  0
   -2.3579   -1.2943    0.5717 H   0  0  0  1  0  0  0  0  0  0  0  0
   -1.4530   -2.3767   -0.4589 H   0  0  0  1  0  0  0  0  0  0  0  0
   -3.1267   -2.0238   -0.8173 H   0  0  0  1  0  0  0  0  0  0  0  0
   -1.3978    2.7891   -1.1610 C   0  0  0  1  0  0  0  0  0  0  0  0
   -2.7523    2.6054   -1.8170 C   0  0  0  1  0  0  0  0  0  0  0  0
   -3.0497    3.1817   -3.0422 C   0  0  0  1  0  0  0  0  0  0  0  0
   -4.3245    3.0740   -3.5651 C   0  0  0  1  0  0  0  0  0  0  0  0
   -5.3043    2.3853   -2.8671 C   0  0  0  1  0  0  0  0  0  0  0  0
   -5.0076    1.8108   -1.6456 C   0  0  0  1  0  0  0  0  0  0  0  0
   -3.7291    1.9186   -1.1210 C   0  0  0  1  0  0  0  0  0  0  0  0
   -6.5452    2.2891   -3.4033 O   0  0  0  1  0  0  0  0  0  0  0  0
   -4.6645    3.6246   -4.7559 O   0  0  0  1  0  0  0  0  0  0  0  0
   -0.9465    3.6761   -1.5540 H   0  0  0  1  0  0  0  0  0  0  0  0
   -1.5423    2.8990   -0.1065 H   0  0  0  1  0  0  0  0  0  0  0  0
   -2.3136    3.6951   -3.5678 H   0  0  0  1  0  0  0  0  0  0  0  0
   -5.7437    1.2975   -1.1200 H   0  0  0  1  0  0  0  0  0  0  0  0
   -3.5049    1.4829   -0.2037 H   0  0  0  1  0  0  0  0  0  0  0  0
   -6.8989    3.1690   -3.5526 H   0  0  0  1  0  0  0  0  0  0  0  0
   -5.1870    2.9976   -5.2614 H   0  0  0  1  0  0  0  0  0  0  0  0
  1  4  1  0  0  0  0
  2  4  1  0  0  0  0
  2  5  2  0  0  0  0
  2  6  1  0  0  0  0
  3  4  1  0  0  0  0
  3  7  1  0  0  0  0
  3  8  1  0  0  0  0
  4 19  1  0  0  0  0
  6  9  1  0  0  0  0
  6 12  1  0  0  0  0
  8 10  1  0  0  0  0
  8 11  2  0  0  0  0
  9 13  1  0  0  0  0
  9 14  1  0  0  0  0
  9 15  1  0  0  0  0
 10 16  1  0  0  0  0
 10 17  1  0  0  0  0
 10 18  1  0  0  0  0
 19 20  1  0  0  0  0
 19 28  1  0  0  0  0
 19 29  1  0  0  0  0
 20 21  4  0  0  0  0
 20 25  4  0  0  0  0
 21 22  4  0  0  0  0
 21 30  1  0  0  0  0
 22 23  4  0  0  0  0
 22 27  1  0  0  0  0
 23 24  4  0  0  0  0
 23 26  1  0  0  0  0
 24 25  4  0  0  0  0
 24 31  1  0  0  0  0
 25 32  1  0  0  0  0
 26 33  1  0  0  0  0
 27 34  1  0  0  0  0
M  END
> <BCLConfClusterSize>
1

> <ConfClashScore>
0 

> <ConfOneFourInteractionScore>
-0.924221 

> <ConfScore>
0.069092 

> <ConfScorePBest>
0.00709334 

> <ConfTolerance>
0.458228 

> <RosettaParamsInstructions>
M  ROOT 3
M  POLY_N_BB 3
M  POLY_CA_BB 4
M  POLY_C_BB 2
M  POLY_O_BB 5
M  POLY_IGNORE 9 10 11 12 13 14 15 16 17 18 
M  POLY_UPPER 6
M  POLY_LOWER 8
M  POLY_CHG 0
M  POLY_PROPERTIES ALPHA_AA D_AA PROTEIN AROMATIC POLYMER 
M  END

$$$$



 34 34  0  0  0  0  0  0  0  0999 V2000
   -0.0022    4.2951   -0.7413 H   0  0  0  1  0  0  0  0  0  0  0  0
   -1.8843    5.2386   -0.8268 C   0  0  0  1  0  0  0  0  0  0  0  0
   -0.5067    4.4888   -2.7398 N   0  0  0  1  0  0  0  0  0  0  0  0
   -0.8814    4.2256   -1.3472 C   0  0  0  1  0  0  0  0  0  0  0  0
   -1.9097    6.3889   -1.2565 O   0  0  0  1  0  0  0  0  0  0  0  0
   -2.7217    4.7952    0.1151 N   0  0  0  1  0  0  0  0  0  0  0  0
   -0.6189    3.7758   -3.4026 H   0  0  0  1  0  0  0  0  0  0  0  0
   -0.0176    5.6671   -3.1368 C   0  0  0  1  0  0  0  0  0  0  0  0
   -3.8107    5.6405    0.5813 C   0  0  0  1  0  0  0  0  0  0  0  0
    0.4260    5.7420   -4.5848 C   0  0  0  1  0  0  0  0  0  0  0  0
    0.0739    6.6320   -2.3958 O   0  0  0  1  0  0  0  0  0  0  0  0
   -2.6023    3.8988    0.4929 H   0  0  0  1  0  0  0  0  0  0  0  0
   -3.4171    6.4246    1.1939 H   0  0  0  1  0  0  0  0  0  0  0  0
   -4.4984    5.0529    1.1528 H   0  0  0  1  0  0  0  0  0  0  0  0
   -4.3172    6.0655   -0.2599 H   0  0  0  1  0  0  0  0  0  0  0  0
    1.1700    6.5036   -4.6915 H   0  0  0  1  0  0  0  0  0  0  0  0
   -0.4150    5.9762   -5.2035 H   0  0  0  1  0  0  0  0  0  0  0  0
    0.8359    4.7992   -4.8812 H   0  0  0  1  0  0  0  0  0  0  0  0
   -1.3932    2.7976   -1.2513 C   0  0  0  1  0  0  0  0  0  0  0  0
   -2.7610    2.5565   -1.8548 C   0  0  0  1  0  0  0  0  0  0  0  0
   -3.0199    2.9777   -3.1499 C   0  0  0  1  0  0  0  0  0  0  0  0
   -4.2905    2.8472   -3.6779 C   0  0  0  1  0  0  0  0  0  0  0  0
   -5.3046    2.2903   -2.9144 C   0  0  0  1  0  0  0  0  0  0  0  0
   -5.0464    1.8704   -1.6233 C   0  0  0  1  0  0  0  0  0  0  0  0
   -3.7721    2.0012   -1.0935 C   0  0  0  1  0  0  0  0  0  0  0  0
   -6.5768    2.1182   -3.3488 O   0  0  0  1  0  0  0  0  0  0  0  0
   -4.5933    3.2489   -4.9363 O   0  0  0  1  0  0  0  0  0  0  0  0
   -1.4379    2.5318   -0.2158 H   0  0  0  1  0  0  0  0  0  0  0  0
   -0.6942    2.1620   -1.7534 H   0  0  0  1  0  0  0  0  0  0  0  0
   -2.2581    3.3918   -3.7241 H   0  0  0  1  0  0  0  0  0  0  0  0
   -5.8082    1.4563   -1.0490 H   0  0  0  1  0  0  0  0  0  0  0  0
   -3.5769    1.6815   -0.1233 H   0  0  0  1  0  0  0  0  0  0  0  0
   -7.0053    2.9731   -3.4324 H   0  0  0  1  0  0  0  0  0  0  0  0
   -5.0167    4.1099   -4.9047 H   0  0  0  1  0  0  0  0  0  0  0  0
  1  4  1  0  0  0  0
  2  4  1  0  0  0  0
  2  5  2  0  0  0  0
  2  6  1  0  0  0  0
  3  4  1  0  0  0  0
  3  7  1  0  0  0  0
  3  8  1  0  0  0  0
  4 19  1  0  0  0  0
  6  9  1  0  0  0  0
  6 12  1  0  0  0  0
  8 10  1  0  0  0  0
  8 11  2  0  0  0  0
  9 13  1  0  0  0  0
  9 14  1  0  0  0  0
  9 15  1  0  0  0  0
 10 16  1  0  0  0  0
 10 17  1  0  0  0  0
 10 18  1  0  0  0  0
 19 20  1  0  0  0  0
 19 28  1  0  0  0  0
 19 29  1  0  0  0  0
 20 21  4  0  0  0  0
 20 25  4  0  0  0  0
 21 22  4  0  0  0  0
 21 30  1  0  0  0  0
 22 23  4  0  0  0  0
 22 27  1  0  0  0  0
 23 24  4  0  0  0  0
 23 26  1  0  0  0  0
 24 25  4  0  0  0  0
 24 31  1  0  0  0  0
 25 32  1  0  0  0  0
 26 33  1  0  0  0  0
 27 34  1  0  0  0  0
M  END
> <BCLConfClusterSize>
1

> <ConfClashScore>
0 

> <ConfOneFourInteractionScore>
-0.955611 

> <ConfScore>
0.0726683 

> <ConfScorePBest>
0.00706485 

> <ConfTolerance>
0.580963 

> <RosettaParamsInstructions>
M  ROOT 3
M  POLY_N_BB 3
M  POLY_CA_BB 4
M  POLY_C_BB 2
M  POLY_O_BB 5
M  POLY_IGNORE 9 10 11 12 13 14 15 16 17 18 
M  POLY_UPPER 6
M  POLY_LOWER 8
M  POLY_CHG 0
M  POLY_PROPERTIES ALPHA_AA D_AA PROTEIN AROMATIC POLYMER 
M  END

$$$$



 34 34  0  0  0  0  0  0  0  0999 V2000
   -2.1741    3.5728    0.6031 H   0  0  0  1  0  0  0  0  0  0  0  0
   -1.7474    5.2194   -0.6151 C   0  0  0  1  0  0  0  0  0  0  0  0
   -0.1446    3.8941    0.6841 N   0  0  0  1  0  0  0  0  0  0  0  0
   -1.3959    3.8454   -0.0788 C   0  0  0  1  0  0  0  0  0  0  0  0
   -2.1167    6.1215    0.1342 O   0  0  0  1  0  0  0  0  0  0  0  0
   -1.6282    5.3748   -1.9395 N   0  0  0  1  0  0  0  0  0  0  0  0
    0.5667    3.2704    0.4282 H   0  0  0  1  0  0  0  0  0  0  0  0
    0.1044    4.7437    1.7250 C   0  0  0  1  0  0  0  0  0  0  0  0
   -1.9830    6.6418   -2.5614 C   0  0  0  1  0  0  0  0  0  0  0  0
    1.4645    4.5526    2.3462 C   0  0  0  1  0  0  0  0  0  0  0  0
   -0.7116    5.5674    2.0954 O   0  0  0  1  0  0  0  0  0  0  0  0
   -1.3014    4.6338   -2.4913 H   0  0  0  1  0  0  0  0  0  0  0  0
   -2.9778    6.5823   -2.9508 H   0  0  0  1  0  0  0  0  0  0  0  0
   -1.3003    6.8512   -3.3583 H   0  0  0  1  0  0  0  0  0  0  0  0
   -1.9317    7.4234   -1.8324 H   0  0  0  1  0  0  0  0  0  0  0  0
    1.6156    5.2880    3.1086 H   0  0  0  1  0  0  0  0  0  0  0  0
    2.2181    4.6590    1.5941 H   0  0  0  1  0  0  0  0  0  0  0  0
    1.5254    3.5750    2.7770 H   0  0  0  1  0  0  0  0  0  0  0  0
   -1.3845    2.7863   -1.1734 C   0  0  0  1  0  0  0  0  0  0  0  0
   -2.7339    2.5790   -1.8074 C   0  0  0  1  0  0  0  0  0  0  0  0
   -2.9825    3.0969   -3.0690 C   0  0  0  1  0  0  0  0  0  0  0  0
   -4.2452    2.9939   -3.6217 C   0  0  0  1  0  0  0  0  0  0  0  0
   -5.2615    2.3680   -2.9168 C   0  0  0  1  0  0  0  0  0  0  0  0
   -5.0135    1.8517   -1.6590 C   0  0  0  1  0  0  0  0  0  0  0  0
   -3.7472    1.9549   -1.1045 C   0  0  0  1  0  0  0  0  0  0  0  0
   -6.5136    2.2382   -3.4188 O   0  0  0  1  0  0  0  0  0  0  0  0
   -4.5820    3.4738   -4.8435 O   0  0  0  1  0  0  0  0  0  0  0  0
   -1.0625    1.8593   -0.7470 H   0  0  0  1  0  0  0  0  0  0  0  0
   -0.6942    3.0890   -1.9329 H   0  0  0  1  0  0  0  0  0  0  0  0
   -2.2190    3.5629   -3.5996 H   0  0  0  1  0  0  0  0  0  0  0  0
   -5.7770    1.3857   -1.1284 H   0  0  0  1  0  0  0  0  0  0  0  0
   -3.5597    1.5628   -0.1597 H   0  0  0  1  0  0  0  0  0  0  0  0
   -6.8789    3.1078   -3.5978 H   0  0  0  1  0  0  0  0  0  0  0  0
   -5.5246    3.3586   -4.9843 H   0  0  0  1  0  0  0  0  0  0  0  0
  1  4  1  0  0  0  0
  2  4  1  0  0  0  0
  2  5  2  0  0  0  0
  2  6  1  0  0  0  0
  3  4  1  0  0  0  0
  3  7  1  0  0  0  0
  3  8  1  0  0  0  0
  4 19  1  0  0  0  0
  6  9  1  0  0  0  0
  6 12  1  0  0  0  0
  8 10  1  0  0  0  0
  8 11  2  0  0  0  0
  9 13  1  0  0  0  0
  9 14  1  0  0  0  0
  9 15  1  0  0  0  0
 10 16  1  0  0  0  0
 10 17  1  0  0  0  0
 10 18  1  0  0  0  0
 19 20  1  0  0  0  0
 19 28  1  0  0  0  0
 19 29  1  0  0  0  0
 20 21  4  0  0  0  0
 20 25  4  0  0  0  0
 21 22  4  0  0  0  0
 21 30  1  0  0  0  0
 22 23  4  0  0  0  0
 22 27  1  0  0  0  0
 23 24  4  0  0  0  0
 23 26  1  0  0  0  0
 24 25  4  0  0  0  0
 24 31  1  0  0  0  0
 25 32  1  0  0  0  0
 26 33  1  0  0  0  0
 27 34  1  0  0  0  0
M  END
> <BCLConfClusterSize>
1

> <ConfClashScore>
0 

> <ConfOneFourInteractionScore>
-0.952541 

> <ConfScore>
0.0775151 

> <ConfScorePBest>
0.00703637 

> <ConfTolerance>
0.451149 

> <RosettaParamsInstructions>
M  ROOT 3
M  POLY_N_BB 3
M  POLY_CA_BB 4
M  POLY_C_BB 2
M  POLY_O_BB 5
M  POLY_IGNORE 9 10 11 12 13 14 15 16 17 18 
M  POLY_UPPER 6
M  POLY_LOWER 8
M  POLY_CHG 0
M  POLY_PROPERTIES ALPHA_AA D_AA PROTEIN AROMATIC POLYMER 
M  END

$$$$



 34 34  0  0  0  0  0  0  0  0999 V2000
   -0.2777    2.4571    0.5653 H   0  0  0  1  0  0  0  0  0  0  0  0
   -1.5310    0.7876    0.4252 C   0  0  0  1  0  0  0  0  0  0  0  0
   -2.1622    3.0531    1.1545 N   0  0  0  1  0  0  0  0  0  0  0  0
   -1.2863    2.2751    0.2578 C   0  0  0  1  0  0  0  0  0  0  0  0
   -1.8995    0.3114    1.4980 O   0  0  0  1  0  0  0  0  0  0  0  0
   -1.3069    0.0726   -0.6946 N   0  0  0  1  0  0  0  0  0  0  0  0
   -2.7110    3.7704    0.7742 H   0  0  0  1  0  0  0  0  0  0  0  0
   -2.2359    2.8046    2.5166 C   0  0  0  1  0  0  0  0  0  0  0  0
   -1.4685   -1.3736   -0.6826 C   0  0  0  1  0  0  0  0  0  0  0  0
   -3.2596    3.5366    3.3382 C   0  0  0  1  0  0  0  0  0  0  0  0
   -1.4635    1.9962    3.0048 O   0  0  0  1  0  0  0  0  0  0  0  0
   -1.0346    0.5274   -1.5188 H   0  0  0  1  0  0  0  0  0  0  0  0
   -2.4557   -1.6200   -0.3516 H   0  0  0  1  0  0  0  0  0  0  0  0
   -0.7511   -1.8069   -0.0174 H   0  0  0  1  0  0  0  0  0  0  0  0
   -1.3175   -1.7573   -1.6700 H   0  0  0  1  0  0  0  0  0  0  0  0
   -2.7678    4.0932    4.1084 H   0  0  0  1  0  0  0  0  0  0  0  0
   -3.9312    2.8315    3.7816 H   0  0  0  1  0  0  0  0  0  0  0  0
   -3.8086    4.2062    2.7096 H   0  0  0  1  0  0  0  0  0  0  0  0
   -1.4038    2.7801   -1.1710 C   0  0  0  1  0  0  0  0  0  0  0  0
   -2.7525    2.5673   -1.8258 C   0  0  0  1  0  0  0  0  0  0  0  0
   -2.9765    3.0575   -3.1030 C   0  0  0  1  0  0  0  0  0  0  0  0
   -4.2309    2.9514   -3.6736 C   0  0  0  1  0  0  0  0  0  0  0  0
   -5.2635    2.3501   -2.9710 C   0  0  0  1  0  0  0  0  0  0  0  0
   -5.0400    1.8614   -1.6977 C   0  0  0  1  0  0  0  0  0  0  0  0
   -3.7820    1.9677   -1.1252 C   0  0  0  1  0  0  0  0  0  0  0  0
   -6.4831    2.2534   -3.5541 O   0  0  0  1  0  0  0  0  0  0  0  0
   -4.4263    3.4429   -4.9214 O   0  0  0  1  0  0  0  0  0  0  0  0
   -0.6672    2.2758   -1.7609 H   0  0  0  1  0  0  0  0  0  0  0  0
   -1.2006    3.8306   -1.1676 H   0  0  0  1  0  0  0  0  0  0  0  0
   -2.2008    3.5050   -3.6318 H   0  0  0  1  0  0  0  0  0  0  0  0
   -5.8157    1.4139   -1.1690 H   0  0  0  1  0  0  0  0  0  0  0  0
   -3.6129    1.5963   -0.1686 H   0  0  0  1  0  0  0  0  0  0  0  0
   -7.1118    2.7974   -3.0741 H   0  0  0  1  0  0  0  0  0  0  0  0
   -5.3234    3.7763   -4.9976 H   0  0  0  1  0  0  0  0  0  0  0  0
  1  4  1  0  0  0  0
  2  4  1  0  0  0  0
  2  5  2  0  0  0  0
  2  6  1  0  0  0  0
  3  4  1  0  0  0  0
  3  7  1  0  0  0  0
  3  8  1  0  0  0  0
  4 19  1  0  0  0  0
  6  9  1  0  0  0  0
  6 12  1  0  0  0  0
  8 10  1  0  0  0  0
  8 11  2  0  0  0  0
  9 13  1  0  0  0  0
  9 14  1  0  0  0  0
  9 15  1  0  0  0  0
 10 16  1  0  0  0  0
 10 17  1  0  0  0  0
 10 18  1  0  0  0  0
 19 20  1  0  0  0  0
 19 28  1  0  0  0  0
 19 29  1  0  0  0  0
 20 21  4  0  0  0  0
 20 25  4  0  0  0  0
 21 22  4  0  0  0  0
 21 30  1  0  0  0  0
 22 23  4  0  0  0  0
 22 27  1  0  0  0  0
 23 24  4  0  0  0  0
 23 26  1  0  0  0  0
 24 25  4  0  0  0  0
 24 31  1  0  0  0  0
 25 32  1  0  0  0  0
 26 33  1  0  0  0  0
 27 34  1  0  0  0  0
M  END
> <BCLConfClusterSize>
1

> <ConfClashScore>
0 

> <ConfOneFourInteractionScore>
-0.9417 

> <ConfScore>
0.0869446 

> <ConfScorePBest>
0.00700789 

> <ConfTolerance>
0.72231 

> <RosettaParamsInstructions>
M  ROOT 3
M  POLY_N_BB 3
M  POLY_CA_BB 4
M  POLY_C_BB 2
M  POLY_O_BB 5
M  POLY_IGNORE 9 10 11 12 13 14 15 16 17 18 
M  POLY_UPPER 6
M  POLY_LOWER 8
M  POLY_CHG 0
M  POLY_PROPERTIES ALPHA_AA D_AA PROTEIN AROMATIC POLYMER 
M  END

$$$$



 34 34  0  0  0  0  0  0  0  0999 V2000
   -0.2480    4.2702   -0.3252 H   0  0  0  1  0  0  0  0  0  0  0  0
   -2.1949    4.7063    0.2744 C   0  0  0  1  0  0  0  0  0  0  0  0
   -1.1751    5.2078   -1.8991 N   0  0  0  1  0  0  0  0  0  0  0  0
   -1.2139    4.2426   -0.7848 C   0  0  0  1  0  0  0  0  0  0  0  0
   -2.0123    4.4601    1.4637 O   0  0  0  1  0  0  0  0  0  0  0  0
   -3.2573    5.3928   -0.1753 N   0  0  0  1  0  0  0  0  0  0  0  0
   -1.4463    4.9277   -2.7982 H   0  0  0  1  0  0  0  0  0  0  0  0
   -0.7693    6.4685   -1.6845 C   0  0  0  1  0  0  0  0  0  0  0  0
   -4.3431    5.8874    0.6580 C   0  0  0  1  0  0  0  0  0  0  0  0
   -0.5583    7.3129   -2.9262 C   0  0  0  1  0  0  0  0  0  0  0  0
   -0.5760    6.9269   -0.5616 O   0  0  0  1  0  0  0  0  0  0  0  0
   -3.3053    5.5745   -1.1371 H   0  0  0  1  0  0  0  0  0  0  0  0
   -4.7442    6.7815    0.2283 H   0  0  0  1  0  0  0  0  0  0  0  0
   -3.9717    6.0988    1.6389 H   0  0  0  1  0  0  0  0  0  0  0  0
   -5.1117    5.1455    0.7192 H   0  0  0  1  0  0  0  0  0  0  0  0
    0.2497    6.9091   -3.4996 H   0  0  0  1  0  0  0  0  0  0  0  0
   -0.3248    8.3169   -2.6390 H   0  0  0  1  0  0  0  0  0  0  0  0
   -1.4511    7.3087   -3.5160 H   0  0  0  1  0  0  0  0  0  0  0  0
   -1.4137    2.7982   -1.2525 C   0  0  0  1  0  0  0  0  0  0  0  0
   -2.7694    2.5578   -1.8612 C   0  0  0  1  0  0  0  0  0  0  0  0
   -3.0227    2.9860   -3.1550 C   0  0  0  1  0  0  0  0  0  0  0  0
   -4.2901    2.8546   -3.6905 C   0  0  0  1  0  0  0  0  0  0  0  0
   -5.3065    2.2899   -2.9359 C   0  0  0  1  0  0  0  0  0  0  0  0
   -5.0537    1.8630   -1.6459 C   0  0  0  1  0  0  0  0  0  0  0  0
   -3.7827    1.9946   -1.1086 C   0  0  0  1  0  0  0  0  0  0  0  0
   -6.5393    2.1672   -3.4851 O   0  0  0  1  0  0  0  0  0  0  0  0
   -4.5876    3.2629   -4.9481 O   0  0  0  1  0  0  0  0  0  0  0  0
   -1.2984    2.1484   -0.4103 H   0  0  0  1  0  0  0  0  0  0  0  0
   -0.6668    2.5707   -1.9841 H   0  0  0  1  0  0  0  0  0  0  0  0
   -2.2592    3.4060   -3.7227 H   0  0  0  1  0  0  0  0  0  0  0  0
   -5.8172    1.4429   -1.0782 H   0  0  0  1  0  0  0  0  0  0  0  0
   -3.5916    1.6697   -0.1393 H   0  0  0  1  0  0  0  0  0  0  0  0
   -7.1165    2.8484   -3.1325 H   0  0  0  1  0  0  0  0  0  0  0  0
   -4.8729    4.1793   -4.9284 H   0  0  0  1  0  0  0  0  0  0  0  0
  1  4  1  0  0  0  0
  2  4  1  0  0  0  0
  2  5  2  0  0  0  0
  2  6  1  0  0  0  0
  3  4  1  0  0  0  0
  3  7  1  0  0  0  0
  3  8  1  0  0  0  0
  4 19  1  0  0  0  0
  6  9  1  0  0  0  0
  6 12  1  0  0  0  0
  8 10  1  0  0  0  0
  8 11  2  0  0  0  0
  9 13  1  0  0  0  0
  9 14  1  0  0  0  0
  9 15  1  0  0  0  0
 10 16  1  0  0  0  0
 10 17  1  0  0  0  0
 10 18  1  0  0  0  0
 19 20  1  0  0  0  0
 19 28  1  0  0  0  0
 19 29  1  0  0  0  0
 20 21  4  0  0  0  0
 20 25  4  0  0  0  0
 21 22  4  0  0  0  0
 21 30  1  0  0  0  0
 22 23  4  0  0  0  0
 22 27  1  0  0  0  0
 23 24  4  0  0  0  0
 23 26  1  0  0  0  0
 24 25  4  0  0  0  0
 24 31  1  0  0  0  0
 25 32  1  0  0  0  0
 26 33  1  0  0  0  0
 27 34  1  0  0  0  0
M  END
> <BCLConfClusterSize>
1

> <ConfClashScore>
0 

> <ConfOneFourInteractionScore>
-0.957074 

> <ConfScore>
0.0869906 

> <ConfScorePBest>
0.00697941 

> <ConfTolerance>
0.276741 

> <RosettaParamsInstructions>
M  ROOT 3
M  POLY_N_BB 3
M  POLY_CA_BB 4
M  POLY_C_BB 2
M  POLY_O_BB 5
M  POLY_IGNORE 9 10 11 12 13 14 15 16 17 18 
M  POLY_UPPER 6
M  POLY_LOWER 8
M  POLY_CHG 0
M  POLY_PROPERTIES ALPHA_AA D_AA PROTEIN AROMATIC POLYMER 
M  END

$$$$



 34 34  0  0  0  0  0  0  0  0999 V2000
    0.3574    1.8158   -0.5891 H   0  0  0  1  0  0  0  0  0  0  0  0
   -0.2433    1.0064   -2.4578 C   0  0  0  1  0  0  0  0  0  0  0  0
   -1.2616    0.5446   -0.2897 N   0  0  0  1  0  0  0  0  0  0  0  0
   -0.5564    1.5459   -1.0758 C   0  0  0  1  0  0  0  0  0  0  0  0
    0.7387    1.3934   -3.0857 O   0  0  0  1  0  0  0  0  0  0  0  0
   -1.1019    0.0923   -2.9350 N   0  0  0  1  0  0  0  0  0  0  0  0
   -2.1639    0.7661    0.0219 H   0  0  0  1  0  0  0  0  0  0  0  0
   -0.7715   -0.6540    0.0392 C   0  0  0  1  0  0  0  0  0  0  0  0
   -0.8414   -0.4718   -4.2510 C   0  0  0  1  0  0  0  0  0  0  0  0
   -1.6043   -1.4613    1.0267 C   0  0  0  1  0  0  0  0  0  0  0  0
    0.2858   -1.0954   -0.4172 O   0  0  0  1  0  0  0  0  0  0  0  0
   -1.8821   -0.1875   -2.4122 H   0  0  0  1  0  0  0  0  0  0  0  0
   -0.5242    0.3043   -4.9158 H   0  0  0  1  0  0  0  0  0  0  0  0
   -1.7355   -0.9218   -4.6292 H   0  0  0  1  0  0  0  0  0  0  0  0
   -0.0730   -1.2126   -4.1755 H   0  0  0  1  0  0  0  0  0  0  0  0
   -2.4434   -1.8899    0.5196 H   0  0  0  1  0  0  0  0  0  0  0  0
   -1.9509   -0.8191    1.8092 H   0  0  0  1  0  0  0  0  0  0  0  0
   -1.0038   -2.2419    1.4449 H   0  0  0  1  0  0  0  0  0  0  0  0
   -1.4260    2.7847   -1.2152 C   0  0  0  1  0  0  0  0  0  0  0  0
   -2.7729    2.5624   -1.8748 C   0  0  0  1  0  0  0  0  0  0  0  0
   -3.0269    2.9899   -3.1688 C   0  0  0  1  0  0  0  0  0  0  0  0
   -4.2943    2.8571   -3.7040 C   0  0  0  1  0  0  0  0  0  0  0  0
   -5.3100    2.2918   -2.9489 C   0  0  0  1  0  0  0  0  0  0  0  0
   -5.0565    1.8657   -1.6588 C   0  0  0  1  0  0  0  0  0  0  0  0
   -3.7855    1.9987   -1.1218 C   0  0  0  1  0  0  0  0  0  0  0  0
   -6.5792    2.1168   -3.3907 O   0  0  0  1  0  0  0  0  0  0  0  0
   -4.5924    3.2646   -4.9617 O   0  0  0  1  0  0  0  0  0  0  0  0
   -0.8873    3.5022   -1.7982 H   0  0  0  1  0  0  0  0  0  0  0  0
   -1.5992    3.1783   -0.2354 H   0  0  0  1  0  0  0  0  0  0  0  0
   -2.2639    3.4104   -3.7368 H   0  0  0  1  0  0  0  0  0  0  0  0
   -5.8195    1.4452   -1.0908 H   0  0  0  1  0  0  0  0  0  0  0  0
   -3.5939    1.6744   -0.1524 H   0  0  0  1  0  0  0  0  0  0  0  0
   -7.1235    2.8527   -3.1015 H   0  0  0  1  0  0  0  0  0  0  0  0
   -4.7785    4.2064   -4.9577 H   0  0  0  1  0  0  0  0  0  0  0  0
  1  4  1  0  0  0  0
  2  4  1  0  0  0  0
  2  5  2  0  0  0  0
  2  6  1  0  0  0  0
  3  4  1  0  0  0  0
  3  7  1  0  0  0  0
  3  8  1  0  0  0  0
  4 19  1  0  0  0  0
  6  9  1  0  0  0  0
  6 12  1  0  0  0  0
  8 10  1  0  0  0  0
  8 11  2  0  0  0  0
  9 13  1  0  0  0  0
  9 14  1  0  0  0  0
  9 15  1  0  0  0  0
 10 16  1  0  0  0  0
 10 17  1  0  0  0  0
 10 18  1  0  0  0  0
 19 20  1  0  0  0  0
 19 28  1  0  0  0  0
 19 29  1  0  0  0  0
 20 21  4  0  0  0  0
 20 25  4  0  0  0  0
 21 22  4  0  0  0  0
 21 30  1  0  0  0  0
 22 23  4  0  0  0  0
 22 27  1  0  0  0  0
 23 24  4  0  0  0  0
 23 26  1  0  0  0  0
 24 25  4  0  0  0  0
 24 31  1  0  0  0  0
 25 32  1  0  0  0  0
 26 33  1  0  0  0  0
 27 34  1  0  0  0  0
M  END
> <BCLConfClusterSize>
1

> <ConfClashScore>
0 

> <ConfOneFourInteractionScore>
-0.950605 

> <ConfScore>
0.0916323 

> <ConfScorePBest>
0.00695093 

> <ConfTolerance>
0.247032 

> <RosettaParamsInstructions>
M  ROOT 3
M  POLY_N_BB 3
M  POLY_CA_BB 4
M  POLY_C_BB 2
M  POLY_O_BB 5
M  POLY_IGNORE 9 10 11 12 13 14 15 16 17 18 
M  POLY_UPPER 6
M  POLY_LOWER 8
M  POLY_CHG 0
M  POLY_PROPERTIES ALPHA_AA D_AA PROTEIN AROMATIC POLYMER 
M  END

$$$$



 34 34  0  0  0  0  0  0  0  0999 V2000
   -0.9229    0.7261   -1.0920 H   0  0  0  1  0  0  0  0  0  0  0  0
    0.8627    1.8027   -0.7784 C   0  0  0  1  0  0  0  0  0  0  0  0
   -0.3799    1.5275   -2.9161 N   0  0  0  1  0  0  0  0  0  0  0  0
   -0.4762    1.6231   -1.4672 C   0  0  0  1  0  0  0  0  0  0  0  0
    1.8906    1.3118   -1.2431 O   0  0  0  1  0  0  0  0  0  0  0  0
    0.8439    2.5231    0.3541 N   0  0  0  1  0  0  0  0  0  0  0  0
   -0.8274    2.2045   -3.4655 H   0  0  0  1  0  0  0  0  0  0  0  0
    0.2961    0.5510   -3.5221 C   0  0  0  1  0  0  0  0  0  0  0  0
    2.0400    2.6219    1.1772 C   0  0  0  1  0  0  0  0  0  0  0  0
    0.2195    0.5384   -5.0365 C   0  0  0  1  0  0  0  0  0  0  0  0
    0.9459   -0.2946   -2.9086 O   0  0  0  1  0  0  0  0  0  0  0  0
    0.0230    2.9835    0.6273 H   0  0  0  1  0  0  0  0  0  0  0  0
    1.7959    3.0921    2.1069 H   0  0  0  1  0  0  0  0  0  0  0  0
    2.7774    3.2048    0.6659 H   0  0  0  1  0  0  0  0  0  0  0  0
    2.4260    1.6417    1.3641 H   0  0  0  1  0  0  0  0  0  0  0  0
    0.9574    1.2017   -5.4370 H   0  0  0  1  0  0  0  0  0  0  0  0
   -0.7533    0.8582   -5.3468 H   0  0  0  1  0  0  0  0  0  0  0  0
    0.4003   -0.4537   -5.3942 H   0  0  0  1  0  0  0  0  0  0  0  0
   -1.4328    2.7715   -1.1741 C   0  0  0  1  0  0  0  0  0  0  0  0
   -2.7777    2.6002   -1.8282 C   0  0  0  1  0  0  0  0  0  0  0  0
   -3.0306    3.2200   -3.0420 C   0  0  0  1  0  0  0  0  0  0  0  0
   -4.2904    3.1469   -3.6058 C   0  0  0  1  0  0  0  0  0  0  0  0
   -5.2995    2.4494   -2.9602 C   0  0  0  1  0  0  0  0  0  0  0  0
   -5.0471    1.8316   -1.7500 C   0  0  0  1  0  0  0  0  0  0  0  0
   -3.7837    1.9047   -1.1843 C   0  0  0  1  0  0  0  0  0  0  0  0
   -6.5609    2.3199   -3.4385 O   0  0  0  1  0  0  0  0  0  0  0  0
   -4.5144    3.7655   -4.7907 O   0  0  0  1  0  0  0  0  0  0  0  0
   -0.9938    3.6798   -1.5307 H   0  0  0  1  0  0  0  0  0  0  0  0
   -1.5745    2.8349   -0.1154 H   0  0  0  1  0  0  0  0  0  0  0  0
   -2.2725    3.7399   -3.5284 H   0  0  0  1  0  0  0  0  0  0  0  0
   -5.8052    1.3116   -1.2636 H   0  0  0  1  0  0  0  0  0  0  0  0
   -3.5929    1.4364   -0.2756 H   0  0  0  1  0  0  0  0  0  0  0  0
   -7.1818    2.6975   -2.8112 H   0  0  0  1  0  0  0  0  0  0  0  0
   -4.8337    3.1255   -5.4310 H   0  0  0  1  0  0  0  0  0  0  0  0
  1  4  1  0  0  0  0
  2  4  1  0  0  0  0
  2  5  2  0  0  0  0
  2  6  1  0  0  0  0
  3  4  1  0  0  0  0
  3  7  1  0  0  0  0
  3  8  1  0  0  0  0
  4 19  1  0  0  0  0
  6  9  1  0  0  0  0
  6 12  1  0  0  0  0
  8 10  1  0  0  0  0
  8 11  2  0  0  0  0
  9 13  1  0  0  0  0
  9 14  1  0  0  0  0
  9 15  1  0  0  0  0
 10 16  1  0  0  0  0
 10 17  1  0  0  0  0
 10 18  1  0  0  0  0
 19 20  1  0  0  0  0
 19 28  1  0  0  0  0
 19 29  1  0  0  0  0
 20 21  4  0  0  0  0
 20 25  4  0  0  0  0
 21 22  4  0  0  0  0
 21 30  1  0  0  0  0
 22 23  4  0  0  0  0
 22 27  1  0  0  0  0
 23 24  4  0  0  0  0
 23 26  1  0  0  0  0
 24 25  4  0  0  0  0
 24 31  1  0  0  0  0
 25 32  1  0  0  0  0
 26 33  1  0  0  0  0
 27 34  1  0  0  0  0
M  END
> <BCLConfClusterSize>
1

> <ConfClashScore>
0 

> <ConfOneFourInteractionScore>
-0.958855 

> <ConfScore>
0.0947516 

> <ConfScorePBest>
0.00692245 

> <ConfTolerance>
0.392076 

> <RosettaParamsInstructions>
M  ROOT 3
M  POLY_N_BB 3
M  POLY_CA_BB 4
M  POLY_C_BB 2
M  POLY_O_BB 5
M  POLY_IGNORE 9 10 11 12 13 14 15 16 17 18 
M  POLY_UPPER 6
M  POLY_LOWER 8
M  POLY_CHG 0
M  POLY_PROPERTIES ALPHA_AA D_AA PROTEIN AROMATIC POLYMER 
M  END

$$$$



 34 34  0  0  0  0  0  0  0  0999 V2000
    0.5286    1.9969   -0.9235 H   0  0  0  1  0  0  0  0  0  0  0  0
    0.0481    1.7676   -2.9564 C   0  0  0  1  0  0  0  0  0  0  0  0
   -0.8066    0.4374   -1.0653 N   0  0  0  1  0  0  0  0  0  0  0  0
   -0.3437    1.7495   -1.4917 C   0  0  0  1  0  0  0  0  0  0  0  0
    0.9845    2.4568   -3.3584 O   0  0  0  1  0  0  0  0  0  0  0  0
   -0.6879    0.9911   -3.7662 N   0  0  0  1  0  0  0  0  0  0  0  0
   -1.7525    0.3207   -0.8371 H   0  0  0  1  0  0  0  0  0  0  0  0
    0.0130   -0.6137   -0.9741 C   0  0  0  1  0  0  0  0  0  0  0  0
   -0.4023    0.8590   -5.1870 C   0  0  0  1  0  0  0  0  0  0  0  0
   -0.5857   -1.8444   -0.2968 C   0  0  0  1  0  0  0  0  0  0  0  0
    1.1897   -0.5966   -1.3311 O   0  0  0  1  0  0  0  0  0  0  0  0
   -1.4441    0.4958   -3.3877 H   0  0  0  1  0  0  0  0  0  0  0  0
   -1.3208    0.7809   -5.7302 H   0  0  0  1  0  0  0  0  0  0  0  0
    0.1853   -0.0199   -5.3522 H   0  0  0  1  0  0  0  0  0  0  0  0
    0.1387    1.7187   -5.5233 H   0  0  0  1  0  0  0  0  0  0  0  0
   -1.5046   -2.1057   -0.7785 H   0  0  0  1  0  0  0  0  0  0  0  0
   -0.7727   -1.6282    0.7343 H   0  0  0  1  0  0  0  0  0  0  0  0
    0.1009   -2.6617   -0.3715 H   0  0  0  1  0  0  0  0  0  0  0  0
   -1.3952    2.8034   -1.1853 C   0  0  0  1  0  0  0  0  0  0  0  0
   -2.7502    2.5724   -1.8207 C   0  0  0  1  0  0  0  0  0  0  0  0
   -2.9964    3.0526   -3.0976 C   0  0  0  1  0  0  0  0  0  0  0  0
   -4.2571    2.9298   -3.6506 C   0  0  0  1  0  0  0  0  0  0  0  0
   -5.2738    2.3218   -2.9308 C   0  0  0  1  0  0  0  0  0  0  0  0
   -5.0280    1.8430   -1.6578 C   0  0  0  1  0  0  0  0  0  0  0  0
   -3.7637    1.9661   -1.1029 C   0  0  0  1  0  0  0  0  0  0  0  0
   -6.4817    2.2320   -3.5387 O   0  0  0  1  0  0  0  0  0  0  0  0
   -4.4745    3.4119   -4.8985 O   0  0  0  1  0  0  0  0  0  0  0  0
   -1.0262    3.7473   -1.5286 H   0  0  0  1  0  0  0  0  0  0  0  0
   -1.5295    2.8369   -0.1243 H   0  0  0  1  0  0  0  0  0  0  0  0
   -2.2327    3.5053   -3.6393 H   0  0  0  1  0  0  0  0  0  0  0  0
   -5.7918    1.3904   -1.1161 H   0  0  0  1  0  0  0  0  0  0  0  0
   -3.5779    1.6022   -0.1465 H   0  0  0  1  0  0  0  0  0  0  0  0
   -7.0095    3.0030   -3.3183 H   0  0  0  1  0  0  0  0  0  0  0  0
   -5.3906    3.6867   -4.9808 H   0  0  0  1  0  0  0  0  0  0  0  0
  1  4  1  0  0  0  0
  2  4  1  0  0  0  0
  2  5  2  0  0  0  0
  2  6  1  0  0  0  0
  3  4  1  0  0  0  0
  3  7  1  0  0  0  0
  3  8  1  0  0  0  0
  4 19  1  0  0  0  0
  6  9  1  0  0  0  0
  6 12  1  0  0  0  0
  8 10  1  0  0  0  0
  8 11  2  0  0  0  0
  9 13  1  0  0  0  0
  9 14  1  0  0  0  0
  9 15  1  0  0  0  0
 10 16  1  0  0  0  0
 10 17  1  0  0  0  0
 10 18  1  0  0  0  0
 19 20  1  0  0  0  0
 19 28  1  0  0  0  0
 19 29  1  0  0  0  0
 20 21  4  0  0  0  0
 20 25  4  0  0  0  0
 21 22  4  0  0  0  0
 21 30  1  0  0  0  0
 22 23  4  0  0  0  0
 22 27  1  0  0  0  0
 23 24  4  0  0  0  0
 23 26  1  0  0  0  0
 24 25  4  0  0  0  0
 24 31  1  0  0  0  0
 25 32  1  0  0  0  0
 26 33  1  0  0  0  0
 27 34  1  0  0  0  0
M  END
> <BCLConfClusterSize>
1

> <ConfClashScore>
0 

> <ConfOneFourInteractionScore>
-0.950605 

> <ConfScore>
0.0967274 

> <ConfScorePBest>
0.00689397 

> <ConfTolerance>
0.288948 

> <RosettaParamsInstructions>
M  ROOT 3
M  POLY_N_BB 3
M  POLY_CA_BB 4
M  POLY_C_BB 2
M  POLY_O_BB 5
M  POLY_IGNORE 9 10 11 12 13 14 15 16 17 18 
M  POLY_UPPER 6
M  POLY_LOWER 8
M  POLY_CHG 0
M  POLY_PROPERTIES ALPHA_AA D_AA PROTEIN AROMATIC POLYMER 
M  END

$$$$



 34 34  0  0  0  0  0  0  0  0999 V2000
   -0.2749    3.9441    0.0594 H   0  0  0  1  0  0  0  0  0  0  0  0
   -2.2440    3.8195    0.8208 C   0  0  0  1  0  0  0  0  0  0  0  0
   -1.4654    5.2219   -1.0471 N   0  0  0  1  0  0  0  0  0  0  0  0
   -1.2687    3.9686   -0.3364 C   0  0  0  1  0  0  0  0  0  0  0  0
   -1.9784    3.1140    1.7925 O   0  0  0  1  0  0  0  0  0  0  0  0
   -3.3889    4.4986    0.7061 N   0  0  0  1  0  0  0  0  0  0  0  0
   -1.4761    5.2319   -2.0270 H   0  0  0  1  0  0  0  0  0  0  0  0
   -1.6328    6.3682   -0.3619 C   0  0  0  1  0  0  0  0  0  0  0  0
   -4.4900    4.4104    1.6535 C   0  0  0  1  0  0  0  0  0  0  0  0
   -1.8160    7.5858   -1.2468 C   0  0  0  1  0  0  0  0  0  0  0  0
   -1.6416    6.4549    0.8549 O   0  0  0  1  0  0  0  0  0  0  0  0
   -3.4939    5.0939   -0.0652 H   0  0  0  1  0  0  0  0  0  0  0  0
   -4.5647    3.4087    2.0221 H   0  0  0  1  0  0  0  0  0  0  0  0
   -5.4031    4.6795    1.1649 H   0  0  0  1  0  0  0  0  0  0  0  0
   -4.3117    5.0783    2.4703 H   0  0  0  1  0  0  0  0  0  0  0  0
   -0.9011    7.7947   -1.7608 H   0  0  0  1  0  0  0  0  0  0  0  0
   -2.0861    8.4274   -0.6436 H   0  0  0  1  0  0  0  0  0  0  0  0
   -2.5901    7.3947   -1.9604 H   0  0  0  1  0  0  0  0  0  0  0  0
   -1.4176    2.8131   -1.2980 C   0  0  0  1  0  0  0  0  0  0  0  0
   -2.7831    2.5620   -1.8778 C   0  0  0  1  0  0  0  0  0  0  0  0
   -3.0654    2.9839   -3.1677 C   0  0  0  1  0  0  0  0  0  0  0  0
   -4.3426    2.8426   -3.6768 C   0  0  0  1  0  0  0  0  0  0  0  0
   -5.3398    2.2742   -2.8997 C   0  0  0  1  0  0  0  0  0  0  0  0
   -5.0581    1.8535   -1.6137 C   0  0  0  1  0  0  0  0  0  0  0  0
   -3.7773    1.9952   -1.1028 C   0  0  0  1  0  0  0  0  0  0  0  0
   -6.6050    2.1099   -3.3567 O   0  0  0  1  0  0  0  0  0  0  0  0
   -4.6682    3.2445   -4.9295 O   0  0  0  1  0  0  0  0  0  0  0  0
   -1.1216    1.9251   -0.7797 H   0  0  0  1  0  0  0  0  0  0  0  0
   -0.7500    2.9888   -2.1155 H   0  0  0  1  0  0  0  0  0  0  0  0
   -2.3164    3.4068   -3.7522 H   0  0  0  1  0  0  0  0  0  0  0  0
   -5.8072    1.4307   -1.0291 H   0  0  0  1  0  0  0  0  0  0  0  0
   -3.5644    1.6750   -0.1365 H   0  0  0  1  0  0  0  0  0  0  0  0
   -7.0926    2.9303   -3.2519 H   0  0  0  1  0  0  0  0  0  0  0  0
   -4.5855    4.1989   -4.9915 H   0  0  0  1  0  0  0  0  0  0  0  0
  1  4  1  0  0  0  0
  2  4  1  0  0  0  0
  2  5  2  0  0  0  0
  2  6  1  0  0  0  0
  3  4  1  0  0  0  0
  3  7  1  0  0  0  0
  3  8  1  0  0  0  0
  4 19  1  0  0  0  0
  6  9  1  0  0  0  0
  6 12  1  0  0  0  0
  8 10  1  0  0  0  0
  8 11  2  0  0  0  0
  9 13  1  0  0  0  0
  9 14  1  0  0  0  0
  9 15  1  0  0  0  0
 10 16  1  0  0  0  0
 10 17  1  0  0  0  0
 10 18  1  0  0  0  0
 19 20  1  0  0  0  0
 19 28  1  0  0  0  0
 19 29  1  0  0  0  0
 20 21  4  0  0  0  0
 20 25  4  0  0  0  0
 21 22  4  0  0  0  0
 21 30  1  0  0  0  0
 22 23  4  0  0  0  0
 22 27  1  0  0  0  0
 23 24  4  0  0  0  0
 23 26  1  0  0  0  0
 24 25  4  0  0  0  0
 24 31  1  0  0  0  0
 25 32  1  0  0  0  0
 26 33  1  0  0  0  0
 27 34  1  0  0  0  0
M  END
> <BCLConfClusterSize>
1

> <ConfClashScore>
0 

> <ConfOneFourInteractionScore>
-0.957074 

> <ConfScore>
0.106764 

> <ConfScorePBest>
0.00686549 

> <ConfTolerance>
0.270727 

> <RosettaParamsInstructions>
M  ROOT 3
M  POLY_N_BB 3
M  POLY_CA_BB 4
M  POLY_C_BB 2
M  POLY_O_BB 5
M  POLY_IGNORE 9 10 11 12 13 14 15 16 17 18 
M  POLY_UPPER 6
M  POLY_LOWER 8
M  POLY_CHG 0
M  POLY_PROPERTIES ALPHA_AA D_AA PROTEIN AROMATIC POLYMER 
M  END

$$$$



 34 34  0  0  0  0  0  0  0  0999 V2000
    0.4927    1.4935   -1.2577 H   0  0  0  1  0  0  0  0  0  0  0  0
   -0.4107    1.1447   -3.1223 C   0  0  0  1  0  0  0  0  0  0  0  0
   -1.0166    0.1272   -0.9604 N   0  0  0  1  0  0  0  0  0  0  0  0
   -0.4991    1.3176   -1.6185 C   0  0  0  1  0  0  0  0  0  0  0  0
    0.1385    1.9855   -3.8293 O   0  0  0  1  0  0  0  0  0  0  0  0
   -0.9663    0.0260   -3.6144 N   0  0  0  1  0  0  0  0  0  0  0  0
   -1.8738    0.1825   -0.4886 H   0  0  0  1  0  0  0  0  0  0  0  0
   -0.3638   -1.0383   -0.9770 C   0  0  0  1  0  0  0  0  0  0  0  0
   -0.9810   -0.2731   -5.0385 C   0  0  0  1  0  0  0  0  0  0  0  0
   -1.0182   -2.1745   -0.2015 C   0  0  0  1  0  0  0  0  0  0  0  0
    0.6989   -1.2024   -1.5748 O   0  0  0  1  0  0  0  0  0  0  0  0
   -1.3762   -0.6113   -2.9930 H   0  0  0  1  0  0  0  0  0  0  0  0
   -0.1584    0.2179   -5.5152 H   0  0  0  1  0  0  0  0  0  0  0  0
   -1.8989    0.0731   -5.4659 H   0  0  0  1  0  0  0  0  0  0  0  0
   -0.8967   -1.3301   -5.1816 H   0  0  0  1  0  0  0  0  0  0  0  0
   -1.2906   -1.8304    0.7743 H   0  0  0  1  0  0  0  0  0  0  0  0
   -0.3294   -2.9886   -0.1129 H   0  0  0  1  0  0  0  0  0  0  0  0
   -1.8941   -2.5026   -0.7212 H   0  0  0  1  0  0  0  0  0  0  0  0
   -1.3390    2.5326   -1.2468 C   0  0  0  1  0  0  0  0  0  0  0  0
   -2.7284    2.4998   -1.8483 C   0  0  0  1  0  0  0  0  0  0  0  0
   -2.9507    3.0838   -3.0857 C   0  0  0  1  0  0  0  0  0  0  0  0
   -4.2315    3.1423   -3.6019 C   0  0  0  1  0  0  0  0  0  0  0  0
   -5.2928    2.6124   -2.8849 C   0  0  0  1  0  0  0  0  0  0  0  0
   -5.0710    2.0301   -1.6512 C   0  0  0  1  0  0  0  0  0  0  0  0
   -3.7865    1.9713   -1.1333 C   0  0  0  1  0  0  0  0  0  0  0  0
   -6.5385    2.6772   -3.4147 O   0  0  0  1  0  0  0  0  0  0  0  0
   -4.4993    3.7075   -4.8042 O   0  0  0  1  0  0  0  0  0  0  0  0
   -0.8381    3.4120   -1.5941 H   0  0  0  1  0  0  0  0  0  0  0  0
   -1.4300    2.5706   -0.1813 H   0  0  0  1  0  0  0  0  0  0  0  0
   -2.1539    3.4779   -3.6255 H   0  0  0  1  0  0  0  0  0  0  0  0
   -5.8678    1.6361   -1.1114 H   0  0  0  1  0  0  0  0  0  0  0  0
   -3.6191    1.5296   -0.2067 H   0  0  0  1  0  0  0  0  0  0  0  0
   -6.9077    1.7931   -3.4746 H   0  0  0  1  0  0  0  0  0  0  0  0
   -5.4368    3.6270   -4.9944 H   0  0  0  1  0  0  0  0  0  0  0  0
  1  4  1  0  0  0  0
  2  4  1  0  0  0  0
  2  5  2  0  0  0  0
  2  6  1  0  0  0  0
  3  4  1  0  0  0  0
  3  7  1  0  0  0  0
  3  8  1  0  0  0  0
  4 19  1  0  0  0  0
  6  9  1  0  0  0  0
  6 12  1  0  0  0  0
  8 10  1  0  0  0  0
  8 11  2  0  0  0  0
  9 13  1  0  0  0  0
  9 14  1  0  0  0  0
  9 15  1  0  0  0  0
 10 16  1  0  0  0  0
 10 17  1  0  0  0  0
 10 18  1  0  0  0  0
 19 20  1  0  0  0  0
 19 28  1  0  0  0  0
 19 29  1  0  0  0  0
 20 21  4  0  0  0  0
 20 25  4  0  0  0  0
 21 22  4  0  0  0  0
 21 30  1  0  0  0  0
 22 23  4  0  0  0  0
 22 27  1  0  0  0  0
 23 24  4  0  0  0  0
 23 26  1  0  0  0  0
 24 25  4  0  0  0  0
 24 31  1  0  0  0  0
 25 32  1  0  0  0  0
 26 33  1  0  0  0  0
 27 34  1  0  0  0  0
M  END
> <BCLConfClusterSize>
1

> <ConfClashScore>
0 

> <ConfOneFourInteractionScore>
-0.957074 

> <ConfScore>
0.106999 

> <ConfScorePBest>
0.00683701 

> <ConfTolerance>
0.268409 

> <RosettaParamsInstructions>
M  ROOT 3
M  POLY_N_BB 3
M  POLY_CA_BB 4
M  POLY_C_BB 2
M  POLY_O_BB 5
M  POLY_IGNORE 9 10 11 12 13 14 15 16 17 18 
M  POLY_UPPER 6
M  POLY_LOWER 8
M  POLY_CHG 0
M  POLY_PROPERTIES ALPHA_AA D_AA PROTEIN AROMATIC POLYMER 
M  END

$$$$



 34 34  0  0  0  0  0  0  0  0999 V2000
   -1.0908    4.6967   -2.0596 H   0  0  0  1  0  0  0  0  0  0  0  0
    0.3557    4.5269   -0.5400 C   0  0  0  1  0  0  0  0  0  0  0  0
   -2.0216    4.9725   -0.2322 N   0  0  0  1  0  0  0  0  0  0  0  0
   -1.0428    4.2743   -1.0776 C   0  0  0  1  0  0  0  0  0  0  0  0
    1.3138    3.8658   -0.9383 O   0  0  0  1  0  0  0  0  0  0  0  0
    0.5133    5.4911    0.3806 N   0  0  0  1  0  0  0  0  0  0  0  0
   -2.5271    4.4571    0.4304 H   0  0  0  1  0  0  0  0  0  0  0  0
   -2.2461    6.2855   -0.3357 C   0  0  0  1  0  0  0  0  0  0  0  0
    1.8256    5.9165    0.8440 C   0  0  0  1  0  0  0  0  0  0  0  0
   -3.3263    6.8426    0.5708 C   0  0  0  1  0  0  0  0  0  0  0  0
   -1.6271    7.0108   -1.1099 O   0  0  0  1  0  0  0  0  0  0  0  0
   -0.2831    5.9237    0.7536 H   0  0  0  1  0  0  0  0  0  0  0  0
    2.5160    5.8987    0.0268 H   0  0  0  1  0  0  0  0  0  0  0  0
    2.1648    5.2528    1.6117 H   0  0  0  1  0  0  0  0  0  0  0  0
    1.7608    6.9107    1.2343 H   0  0  0  1  0  0  0  0  0  0  0  0
   -3.3406    7.9098    0.4954 H   0  0  0  1  0  0  0  0  0  0  0  0
   -3.1235    6.5594    1.5826 H   0  0  0  1  0  0  0  0  0  0  0  0
   -4.2772    6.4516    0.2742 H   0  0  0  1  0  0  0  0  0  0  0  0
   -1.4098    2.7916   -1.2003 C   0  0  0  1  0  0  0  0  0  0  0  0
   -2.7597    2.5659   -1.8526 C   0  0  0  1  0  0  0  0  0  0  0  0
   -3.0248    3.0009   -3.1419 C   0  0  0  1  0  0  0  0  0  0  0  0
   -4.2949    2.8643   -3.6696 C   0  0  0  1  0  0  0  0  0  0  0  0
   -5.3021    2.2875   -2.9118 C   0  0  0  1  0  0  0  0  0  0  0  0
   -5.0376    1.8539   -1.6265 C   0  0  0  1  0  0  0  0  0  0  0  0
   -3.7639    1.9908   -1.0970 C   0  0  0  1  0  0  0  0  0  0  0  0
   -6.5379    2.1599   -3.4535 O   0  0  0  1  0  0  0  0  0  0  0  0
   -4.4816    3.3166   -4.9334 O   0  0  0  1  0  0  0  0  0  0  0  0
   -1.4294    2.3634   -0.2199 H   0  0  0  1  0  0  0  0  0  0  0  0
   -0.6613    2.3031   -1.7885 H   0  0  0  1  0  0  0  0  0  0  0  0
   -2.2681    3.4299   -3.7119 H   0  0  0  1  0  0  0  0  0  0  0  0
   -5.7943    1.4248   -1.0565 H   0  0  0  1  0  0  0  0  0  0  0  0
   -3.5640    1.6608   -0.1312 H   0  0  0  1  0  0  0  0  0  0  0  0
   -7.0150    2.9878   -3.3618 H   0  0  0  1  0  0  0  0  0  0  0  0
   -5.1694    3.9862   -4.9358 H   0  0  0  1  0  0  0  0  0  0  0  0
  1  4  1  0  0  0  0
  2  4  1  0  0  0  0
  2  5  2  0  0  0  0
  2  6  1  0  0  0  0
  3  4  1  0  0  0  0
  3  7  1  0  0  0  0
  3  8  1  0  0  0  0
  4 19  1  0  0  0  0
  6  9  1  0  0  0  0
  6 12  1  0  0  0  0
  8 10  1  0  0  0  0
  8 11  2  0  0  0  0
  9 13  1  0  0  0  0
  9 14  1  0  0  0  0
  9 15  1  0  0  0  0
 10 16  1  0  0  0  0
 10 17  1  0  0  0  0
 10 18  1  0  0  0  0
 19 20  1  0  0  0  0
 19 28  1  0  0  0  0
 19 29  1  0  0  0  0
 20 21  4  0  0  0  0
 20 25  4  0  0  0  0
 21 22  4  0  0  0  0
 21 30  1  0  0  0  0
 22 23  4  0  0  0  0
 22 27  1  0  0  0  0
 23 24  4  0  0  0  0
 23 26  1  0  0  0  0
 24 25  4  0  0  0  0
 24 31  1  0  0  0  0
 25 32  1  0  0  0  0
 26 33  1  0  0  0  0
 27 34  1  0  0  0  0
M  END
> <BCLConfClusterSize>
1

> <ConfClashScore>
0 

> <ConfOneFourInteractionScore>
-0.94165 

> <ConfScore>
0.114174 

> <ConfScorePBest>
0.00680853 

> <ConfTolerance>
0.313964 

> <RosettaParamsInstructions>
M  ROOT 3
M  POLY_N_BB 3
M  POLY_CA_BB 4
M  POLY_C_BB 2
M  POLY_O_BB 5
M  POLY_IGNORE 9 10 11 12 13 14 15 16 17 18 
M  POLY_UPPER 6
M  POLY_LOWER 8
M  POLY_CHG 0
M  POLY_PROPERTIES ALPHA_AA D_AA PROTEIN AROMATIC POLYMER 
M  END

$$$$



 34 34  0  0  0  0  0  0  0  0999 V2000
   -1.4496    4.8795   -1.3039 H   0  0  0  1  0  0  0  0  0  0  0  0
    0.2399    4.3782   -0.1656 C   0  0  0  1  0  0  0  0  0  0  0  0
   -2.1569    4.2506    0.5195 N   0  0  0  1  0  0  0  0  0  0  0  0
   -1.2011    4.1392   -0.5723 C   0  0  0  1  0  0  0  0  0  0  0  0
    1.1275    4.5000   -1.0057 O   0  0  0  1  0  0  0  0  0  0  0  0
    0.4681    4.4450    1.1469 N   0  0  0  1  0  0  0  0  0  0  0  0
   -2.3782    3.4490    1.0379 H   0  0  0  1  0  0  0  0  0  0  0  0
   -2.7480    5.4175    0.8423 C   0  0  0  1  0  0  0  0  0  0  0  0
    1.7600    4.7273    1.7547 C   0  0  0  1  0  0  0  0  0  0  0  0
   -3.5858    5.3476    2.1042 C   0  0  0  1  0  0  0  0  0  0  0  0
   -2.6399    6.4576    0.1982 O   0  0  0  1  0  0  0  0  0  0  0  0
   -0.2913    4.2924    1.7472 H   0  0  0  1  0  0  0  0  0  0  0  0
    1.7945    4.3001    2.7351 H   0  0  0  1  0  0  0  0  0  0  0  0
    1.8982    5.7862    1.8222 H   0  0  0  1  0  0  0  0  0  0  0  0
    2.5370    4.3033    1.1535 H   0  0  0  1  0  0  0  0  0  0  0  0
   -4.6234    5.3290    1.8435 H   0  0  0  1  0  0  0  0  0  0  0  0
   -3.3865    6.2051    2.7123 H   0  0  0  1  0  0  0  0  0  0  0  0
   -3.3388    4.4593    2.6473 H   0  0  0  1  0  0  0  0  0  0  0  0
   -1.3805    2.7805   -1.2367 C   0  0  0  1  0  0  0  0  0  0  0  0
   -2.7542    2.5864   -1.8208 C   0  0  0  1  0  0  0  0  0  0  0  0
   -3.0585    3.1471   -3.0515 C   0  0  0  1  0  0  0  0  0  0  0  0
   -4.3427    3.0549   -3.5542 C   0  0  0  1  0  0  0  0  0  0  0  0
   -5.3250    2.3973   -2.8302 C   0  0  0  1  0  0  0  0  0  0  0  0
   -5.0215    1.8384   -1.6032 C   0  0  0  1  0  0  0  0  0  0  0  0
   -3.7336    1.9307   -1.0989 C   0  0  0  1  0  0  0  0  0  0  0  0
   -6.5964    2.2767   -3.2838 O   0  0  0  1  0  0  0  0  0  0  0  0
   -4.5679    3.6309   -4.7601 O   0  0  0  1  0  0  0  0  0  0  0  0
   -1.2107    2.0185   -0.5050 H   0  0  0  1  0  0  0  0  0  0  0  0
   -0.6601    2.6879   -2.0225 H   0  0  0  1  0  0  0  0  0  0  0  0
   -2.3206    3.6370   -3.5965 H   0  0  0  1  0  0  0  0  0  0  0  0
   -5.7594    1.3485   -1.0582 H   0  0  0  1  0  0  0  0  0  0  0  0
   -3.5043    1.5066   -0.1774 H   0  0  0  1  0  0  0  0  0  0  0  0
   -6.8404    3.0689   -3.7680 H   0  0  0  1  0  0  0  0  0  0  0  0
   -5.2181    3.1168   -5.2443 H   0  0  0  1  0  0  0  0  0  0  0  0
  1  4  1  0  0  0  0
  2  4  1  0  0  0  0
  2  5  2  0  0  0  0
  2  6  1  0  0  0  0
  3  4  1  0  0  0  0
  3  7  1  0  0  0  0
  3  8  1  0  0  0  0
  4 19  1  0  0  0  0
  6  9  1  0  0  0  0
  6 12  1  0  0  0  0
  8 10  1  0  0  0  0
  8 11  2  0  0  0  0
  9 13  1  0  0  0  0
  9 14  1  0  0  0  0
  9 15  1  0  0  0  0
 10 16  1  0  0  0  0
 10 17  1  0  0  0  0
 10 18  1  0  0  0  0
 19 20  1  0  0  0  0
 19 28  1  0  0  0  0
 19 29  1  0  0  0  0
 20 21  4  0  0  0  0
 20 25  4  0  0  0  0
 21 22  4  0  0  0  0
 21 30  1  0  0  0  0
 22 23  4  0  0  0  0
 22 27  1  0  0  0  0
 23 24  4  0  0  0  0
 23 26  1  0  0  0  0
 24 25  4  0  0  0  0
 24 31  1  0  0  0  0
 25 32  1  0  0  0  0
 26 33  1  0  0  0  0
 27 34  1  0  0  0  0
M  END
> <BCLConfClusterSize>
1

> <ConfClashScore>
0 

> <ConfOneFourInteractionScore>
-0.960318 

> <ConfScore>
0.116921 

> <ConfScorePBest>
0.00678005 

> <ConfTolerance>
0.347917 

> <RosettaParamsInstructions>
M  ROOT 3
M  POLY_N_BB 3
M  POLY_CA_BB 4
M  POLY_C_BB 2
M  POLY_O_BB 5
M  POLY_IGNORE 9 10 11 12 13 14 15 16 17 18 
M  POLY_UPPER 6
M  POLY_LOWER 8
M  POLY_CHG 0
M  POLY_PROPERTIES ALPHA_AA D_AA PROTEIN AROMATIC POLYMER 
M  END

$$$$



 34 34  0  0  0  0  0  0  0  0999 V2000
   -0.5645    1.0256   -2.3181 H   0  0  0  1  0  0  0  0  0  0  0  0
   -1.1090    0.1923   -0.4711 C   0  0  0  1  0  0  0  0  0  0  0  0
    0.8800    1.5539   -0.9515 N   0  0  0  1  0  0  0  0  0  0  0  0
   -0.5288    1.3347   -1.2944 C   0  0  0  1  0  0  0  0  0  0  0  0
   -0.7901   -0.9688   -0.7236 O   0  0  0  1  0  0  0  0  0  0  0  0
   -1.8885    0.5293    0.5619 N   0  0  0  1  0  0  0  0  0  0  0  0
    1.1658    2.4498   -0.6759 H   0  0  0  1  0  0  0  0  0  0  0  0
    1.7941    0.5674   -1.0022 C   0  0  0  1  0  0  0  0  0  0  0  0
   -2.3830   -0.4948    1.4681 C   0  0  0  1  0  0  0  0  0  0  0  0
    3.2097    0.9538   -0.5861 C   0  0  0  1  0  0  0  0  0  0  0  0
    1.5243   -0.5767   -1.3580 O   0  0  0  1  0  0  0  0  0  0  0  0
   -2.1270    1.4685    0.7086 H   0  0  0  1  0  0  0  0  0  0  0  0
   -1.6786   -1.2988    1.5169 H   0  0  0  1  0  0  0  0  0  0  0  0
   -3.3213   -0.8643    1.1104 H   0  0  0  1  0  0  0  0  0  0  0  0
   -2.5129   -0.0750    2.4436 H   0  0  0  1  0  0  0  0  0  0  0  0
    3.2280    1.9832   -0.2949 H   0  0  0  1  0  0  0  0  0  0  0  0
    3.8765    0.8044   -1.4095 H   0  0  0  1  0  0  0  0  0  0  0  0
    3.5178    0.3447    0.2379 H   0  0  0  1  0  0  0  0  0  0  0  0
   -1.3677    2.5982   -1.1942 C   0  0  0  1  0  0  0  0  0  0  0  0
   -2.7279    2.5220   -1.8346 C   0  0  0  1  0  0  0  0  0  0  0  0
   -2.9288    3.0942   -3.0812 C   0  0  0  1  0  0  0  0  0  0  0  0
   -4.1941    3.1124   -3.6372 C   0  0  0  1  0  0  0  0  0  0  0  0
   -5.2610    2.5538   -2.9509 C   0  0  0  1  0  0  0  0  0  0  0  0
   -5.0605    1.9834   -1.7081 C   0  0  0  1  0  0  0  0  0  0  0  0
   -3.7917    1.9650   -1.1502 C   0  0  0  1  0  0  0  0  0  0  0  0
   -6.4707    2.6035   -3.5599 O   0  0  0  1  0  0  0  0  0  0  0  0
   -4.4862    3.6530   -4.8451 O   0  0  0  1  0  0  0  0  0  0  0  0
   -0.8258    3.3923   -1.6639 H   0  0  0  1  0  0  0  0  0  0  0  0
   -1.5034    2.8230   -0.1570 H   0  0  0  1  0  0  0  0  0  0  0  0
   -2.1276    3.5098   -3.5979 H   0  0  0  1  0  0  0  0  0  0  0  0
   -5.8617    1.5678   -1.1914 H   0  0  0  1  0  0  0  0  0  0  0  0
   -3.6402    1.5321   -0.2168 H   0  0  0  1  0  0  0  0  0  0  0  0
   -7.0681    1.9823   -3.1370 H   0  0  0  1  0  0  0  0  0  0  0  0
   -5.4367    3.6431   -4.9792 H   0  0  0  1  0  0  0  0  0  0  0  0
  1  4  1  0  0  0  0
  2  4  1  0  0  0  0
  2  5  2  0  0  0  0
  2  6  1  0  0  0  0
  3  4  1  0  0  0  0
  3  7  1  0  0  0  0
  3  8  1  0  0  0  0
  4 19  1  0  0  0  0
  6  9  1  0  0  0  0
  6 12  1  0  0  0  0
  8 10  1  0  0  0  0
  8 11  2  0  0  0  0
  9 13  1  0  0  0  0
  9 14  1  0  0  0  0
  9 15  1  0  0  0  0
 10 16  1  0  0  0  0
 10 17  1  0  0  0  0
 10 18  1  0  0  0  0
 19 20  1  0  0  0  0
 19 28  1  0  0  0  0
 19 29  1  0  0  0  0
 20 21  4  0  0  0  0
 20 25  4  0  0  0  0
 21 22  4  0  0  0  0
 21 30  1  0  0  0  0
 22 23  4  0  0  0  0
 22 27  1  0  0  0  0
 23 24  4  0  0  0  0
 23 26  1  0  0  0  0
 24 25  4  0  0  0  0
 24 31  1  0  0  0  0
 25 32  1  0  0  0  0
 26 33  1  0  0  0  0
 27 34  1  0  0  0  0
M  END
> <BCLConfClusterSize>
1

> <ConfClashScore>
0 

> <ConfOneFourInteractionScore>
-0.952541 

> <ConfScore>
0.11807 

> <ConfScorePBest>
0.00675157 

> <ConfTolerance>
0.371192 

> <RosettaParamsInstructions>
M  ROOT 3
M  POLY_N_BB 3
M  POLY_CA_BB 4
M  POLY_C_BB 2
M  POLY_O_BB 5
M  POLY_IGNORE 9 10 11 12 13 14 15 16 17 18 
M  POLY_UPPER 6
M  POLY_LOWER 8
M  POLY_CHG 0
M  POLY_PROPERTIES ALPHA_AA D_AA PROTEIN AROMATIC POLYMER 
M  END

$$$$



 34 34  0  0  0  0  0  0  0  0999 V2000
   -0.8332    0.6379   -1.4497 H   0  0  0  1  0  0  0  0  0  0  0  0
    0.9072    1.7083   -0.9085 C   0  0  0  1  0  0  0  0  0  0  0  0
   -0.2367    1.6898   -3.1241 N   0  0  0  1  0  0  0  0  0  0  0  0
   -0.3996    1.5882   -1.6815 C   0  0  0  1  0  0  0  0  0  0  0  0
    0.9254    1.7806    0.3067 O   0  0  0  1  0  0  0  0  0  0  0  0
    2.0015    1.7248   -1.6942 N   0  0  0  1  0  0  0  0  0  0  0  0
   -0.5178    2.5133   -3.5750 H   0  0  0  1  0  0  0  0  0  0  0  0
    0.2828    0.6996   -3.8552 C   0  0  0  1  0  0  0  0  0  0  0  0
    3.3278    1.6350   -1.1019 C   0  0  0  1  0  0  0  0  0  0  0  0
    0.4422    0.9872   -5.3354 C   0  0  0  1  0  0  0  0  0  0  0  0
    0.6159   -0.3813   -3.3765 O   0  0  0  1  0  0  0  0  0  0  0  0
    1.9043    1.7975   -2.6667 H   0  0  0  1  0  0  0  0  0  0  0  0
    3.6556    2.6110   -0.8103 H   0  0  0  1  0  0  0  0  0  0  0  0
    4.0112    1.2286   -1.8179 H   0  0  0  1  0  0  0  0  0  0  0  0
    3.2917    0.9995   -0.2418 H   0  0  0  1  0  0  0  0  0  0  0  0
    0.4595    0.0655   -5.8786 H   0  0  0  1  0  0  0  0  0  0  0  0
    1.3585    1.5149   -5.4994 H   0  0  0  1  0  0  0  0  0  0  0  0
   -0.3791    1.5843   -5.6729 H   0  0  0  1  0  0  0  0  0  0  0  0
   -1.4016    2.6604   -1.2857 C   0  0  0  1  0  0  0  0  0  0  0  0
   -2.7718    2.5174   -1.8907 C   0  0  0  1  0  0  0  0  0  0  0  0
   -3.0048    2.9895   -3.1731 C   0  0  0  1  0  0  0  0  0  0  0  0
   -4.2805    2.9483   -3.7033 C   0  0  0  1  0  0  0  0  0  0  0  0
   -5.3259    2.4301   -2.9550 C   0  0  0  1  0  0  0  0  0  0  0  0
   -5.0935    1.9594   -1.6765 C   0  0  0  1  0  0  0  0  0  0  0  0
   -3.8141    2.0007   -1.1444 C   0  0  0  1  0  0  0  0  0  0  0  0
   -6.5667    2.3957   -3.4990 O   0  0  0  1  0  0  0  0  0  0  0  0
   -4.5585    3.4024   -4.9496 O   0  0  0  1  0  0  0  0  0  0  0  0
   -1.0060    3.6085   -1.5849 H   0  0  0  1  0  0  0  0  0  0  0  0
   -1.5067    2.6370   -0.2212 H   0  0  0  1  0  0  0  0  0  0  0  0
   -2.2197    3.3746   -3.7361 H   0  0  0  1  0  0  0  0  0  0  0  0
   -5.8785    1.5743   -1.1135 H   0  0  0  1  0  0  0  0  0  0  0  0
   -3.6386    1.6428   -0.1838 H   0  0  0  1  0  0  0  0  0  0  0  0
   -7.1930    2.0703   -2.8483 H   0  0  0  1  0  0  0  0  0  0  0  0
   -4.6758    4.3549   -4.9249 H   0  0  0  1  0  0  0  0  0  0  0  0
  1  4  1  0  0  0  0
  2  4  1  0  0  0  0
  2  5  2  0  0  0  0
  2  6  1  0  0  0  0
  3  4  1  0  0  0  0
  3  7  1  0  0  0  0
  3  8  1  0  0  0  0
  4 19  1  0  0  0  0
  6  9  1  0  0  0  0
  6 12  1  0  0  0  0
  8 10  1  0  0  0  0
  8 11  2  0  0  0  0
  9 13  1  0  0  0  0
  9 14  1  0  0  0  0
  9 15  1  0  0  0  0
 10 16  1  0  0  0  0
 10 17  1  0  0  0  0
 10 18  1  0  0  0  0
 19 20  1  0  0  0  0
 19 28  1  0  0  0  0
 19 29  1  0  0  0  0
 20 21  4  0  0  0  0
 20 25  4  0  0  0  0
 21 22  4  0  0  0  0
 21 30  1  0  0  0  0
 22 23  4  0  0  0  0
 22 27  1  0  0  0  0
 23 24  4  0  0  0  0
 23 26  1  0  0  0  0
 24 25  4  0  0  0  0
 24 31  1  0  0  0  0
 25 32  1  0  0  0  0
 26 33  1  0  0  0  0
 27 34  1  0  0  0  0
M  END
> <BCLConfClusterSize>
1

> <ConfClashScore>
0 

> <ConfOneFourInteractionScore>
-0.956443 

> <ConfScore>
0.118972 

> <ConfScorePBest>
0.00672309 

> <ConfTolerance>
0.304033 

> <RosettaParamsInstructions>
M  ROOT 3
M  POLY_N_BB 3
M  POLY_CA_BB 4
M  POLY_C_BB 2
M  POLY_O_BB 5
M  POLY_IGNORE 9 10 11 12 13 14 15 16 17 18 
M  POLY_UPPER 6
M  POLY_LOWER 8
M  POLY_CHG 0
M  POLY_PROPERTIES ALPHA_AA D_AA PROTEIN AROMATIC POLYMER 
M  END

$$$$



 34 34  0  0  0  0  0  0  0  0999 V2000
   -0.2816    1.6702   -2.6700 H   0  0  0  1  0  0  0  0  0  0  0  0
   -0.7808    0.4185   -1.0188 C   0  0  0  1  0  0  0  0  0  0  0  0
    0.9207    2.1773   -1.0505 N   0  0  0  1  0  0  0  0  0  0  0  0
   -0.3572    1.7626   -1.6067 C   0  0  0  1  0  0  0  0  0  0  0  0
   -1.3763   -0.4130   -1.7026 O   0  0  0  1  0  0  0  0  0  0  0  0
   -0.5275    0.2650    0.2906 N   0  0  0  1  0  0  0  0  0  0  0  0
    0.9849    3.0129   -0.5426 H   0  0  0  1  0  0  0  0  0  0  0  0
    2.0183    1.4140   -1.2324 C   0  0  0  1  0  0  0  0  0  0  0  0
   -1.0375   -0.8642    1.0539 C   0  0  0  1  0  0  0  0  0  0  0  0
    3.3037    1.8396   -0.5498 C   0  0  0  1  0  0  0  0  0  0  0  0
    1.9801    0.4020   -1.9310 O   0  0  0  1  0  0  0  0  0  0  0  0
    0.0199    0.9367    0.7483 H   0  0  0  1  0  0  0  0  0  0  0  0
   -1.1860   -1.6988    0.4010 H   0  0  0  1  0  0  0  0  0  0  0  0
   -1.9689   -0.5964    1.5073 H   0  0  0  1  0  0  0  0  0  0  0  0
   -0.3326   -1.1277    1.8145 H   0  0  0  1  0  0  0  0  0  0  0  0
    3.1094    2.0430    0.4826 H   0  0  0  1  0  0  0  0  0  0  0  0
    3.6826    2.7220   -1.0217 H   0  0  0  1  0  0  0  0  0  0  0  0
    4.0260    1.0542   -0.6285 H   0  0  0  1  0  0  0  0  0  0  0  0
   -1.4219    2.8083   -1.2721 C   0  0  0  1  0  0  0  0  0  0  0  0
   -2.7793    2.5617   -1.8723 C   0  0  0  1  0  0  0  0  0  0  0  0
   -3.0402    2.9828   -3.1670 C   0  0  0  1  0  0  0  0  0  0  0  0
   -4.3099    2.8456   -3.6955 C   0  0  0  1  0  0  0  0  0  0  0  0
   -5.3211    2.2822   -2.9329 C   0  0  0  1  0  0  0  0  0  0  0  0
   -5.0608    1.8625   -1.6421 C   0  0  0  1  0  0  0  0  0  0  0  0
   -3.7874    1.9999   -1.1119 C   0  0  0  1  0  0  0  0  0  0  0  0
   -6.6018    2.0865   -3.3305 O   0  0  0  1  0  0  0  0  0  0  0  0
   -4.5415    3.2696   -4.9617 O   0  0  0  1  0  0  0  0  0  0  0  0
   -1.0737    3.7576   -1.6222 H   0  0  0  1  0  0  0  0  0  0  0  0
   -1.5320    2.8386   -0.2082 H   0  0  0  1  0  0  0  0  0  0  0  0
   -2.2806    3.4018   -3.7407 H   0  0  0  1  0  0  0  0  0  0  0  0
   -5.8204    1.4434   -1.0685 H   0  0  0  1  0  0  0  0  0  0  0  0
   -3.5907    1.6803   -0.1419 H   0  0  0  1  0  0  0  0  0  0  0  0
   -7.1061    2.8921   -3.1952 H   0  0  0  1  0  0  0  0  0  0  0  0
   -4.7616    4.2040   -4.9516 H   0  0  0  1  0  0  0  0  0  0  0  0
  1  4  1  0  0  0  0
  2  4  1  0  0  0  0
  2  5  2  0  0  0  0
  2  6  1  0  0  0  0
  3  4  1  0  0  0  0
  3  7  1  0  0  0  0
  3  8  1  0  0  0  0
  4 19  1  0  0  0  0
  6  9  1  0  0  0  0
  6 12  1  0  0  0  0
  8 10  1  0  0  0  0
  8 11  2  0  0  0  0
  9 13  1  0  0  0  0
  9 14  1  0  0  0  0
  9 15  1  0  0  0  0
 10 16  1  0  0  0  0
 10 17  1  0  0  0  0
 10 18  1  0  0  0  0
 19 20  1  0  0  0  0
 19 28  1  0  0  0  0
 19 29  1  0  0  0  0
 20 21  4  0  0  0  0
 20 25  4  0  0  0  0
 21 22  4  0  0  0  0
 21 30  1  0  0  0  0
 22 23  4  0  0  0  0
 22 27  1  0  0  0  0
 23 24  4  0  0  0  0
 23 26  1  0  0  0  0
 24 25  4  0  0  0  0
 24 31  1  0  0  0  0
 25 32  1  0  0  0  0
 26 33  1  0  0  0  0
 27 34  1  0  0  0  0
M  END
> <BCLConfClusterSize>
1

> <ConfClashScore>
0 

> <ConfOneFourInteractionScore>
-0.960318 

> <ConfScore>
0.126241 

> <ConfScorePBest>
0.0066946 

> <ConfTolerance>
0.28647 

> <RosettaParamsInstructions>
M  ROOT 3
M  POLY_N_BB 3
M  POLY_CA_BB 4
M  POLY_C_BB 2
M  POLY_O_BB 5
M  POLY_IGNORE 9 10 11 12 13 14 15 16 17 18 
M  POLY_UPPER 6
M  POLY_LOWER 8
M  POLY_CHG 0
M  POLY_PROPERTIES ALPHA_AA D_AA PROTEIN AROMATIC POLYMER 
M  END

$$$$



 34 34  0  0  0  0  0  0  0  0999 V2000
    0.4216    1.4891   -1.3287 H   0  0  0  1  0  0  0  0  0  0  0  0
   -0.2380    1.5231   -3.3385 C   0  0  0  1  0  0  0  0  0  0  0  0
   -1.1914    0.2043   -1.4465 N   0  0  0  1  0  0  0  0  0  0  0  0
   -0.5158    1.4312   -1.8414 C   0  0  0  1  0  0  0  0  0  0  0  0
    0.6818    2.2245   -3.7576 O   0  0  0  1  0  0  0  0  0  0  0  0
   -1.0890    0.8865   -4.1587 N   0  0  0  1  0  0  0  0  0  0  0  0
   -1.8906    0.2488   -0.7613 H   0  0  0  1  0  0  0  0  0  0  0  0
   -0.8902   -0.9865   -1.9883 C   0  0  0  1  0  0  0  0  0  0  0  0
   -0.9104    0.8691   -5.6029 C   0  0  0  1  0  0  0  0  0  0  0  0
   -1.6405   -2.1825   -1.4165 C   0  0  0  1  0  0  0  0  0  0  0  0
   -0.0708   -1.1214   -2.8821 O   0  0  0  1  0  0  0  0  0  0  0  0
   -1.8571    0.4170   -3.7714 H   0  0  0  1  0  0  0  0  0  0  0  0
   -0.4462    1.7808   -5.9163 H   0  0  0  1  0  0  0  0  0  0  0  0
   -1.8639    0.7727   -6.0788 H   0  0  0  1  0  0  0  0  0  0  0  0
   -0.2898    0.0411   -5.8754 H   0  0  0  1  0  0  0  0  0  0  0  0
   -1.3693   -2.3170   -0.3903 H   0  0  0  1  0  0  0  0  0  0  0  0
   -1.3853   -3.0615   -1.9708 H   0  0  0  1  0  0  0  0  0  0  0  0
   -2.6941   -2.0092   -1.4870 H   0  0  0  1  0  0  0  0  0  0  0  0
   -1.3846    2.5798   -1.3457 C   0  0  0  1  0  0  0  0  0  0  0  0
   -2.7859    2.5384   -1.8941 C   0  0  0  1  0  0  0  0  0  0  0  0
   -3.0756    3.1987   -3.0780 C   0  0  0  1  0  0  0  0  0  0  0  0
   -4.3766    3.2461   -3.5421 C   0  0  0  1  0  0  0  0  0  0  0  0
   -5.3908    2.6289   -2.8267 C   0  0  0  1  0  0  0  0  0  0  0  0
   -5.1018    1.9705   -1.6464 C   0  0  0  1  0  0  0  0  0  0  0  0
   -3.7970    1.9229   -1.1807 C   0  0  0  1  0  0  0  0  0  0  0  0
   -6.6802    2.6437   -3.2439 O   0  0  0  1  0  0  0  0  0  0  0  0
   -4.5372    3.9234   -4.7050 O   0  0  0  1  0  0  0  0  0  0  0  0
   -0.9304    3.5025   -1.6411 H   0  0  0  1  0  0  0  0  0  0  0  0
   -1.4353    2.5323   -0.2780 H   0  0  0  1  0  0  0  0  0  0  0  0
   -2.3141    3.6584   -3.6169 H   0  0  0  1  0  0  0  0  0  0  0  0
   -5.8632    1.5108   -1.1075 H   0  0  0  1  0  0  0  0  0  0  0  0
   -3.5790    1.4240   -0.2945 H   0  0  0  1  0  0  0  0  0  0  0  0
   -7.0544    1.7637   -3.1597 H   0  0  0  1  0  0  0  0  0  0  0  0
   -4.4827    3.3112   -5.4425 H   0  0  0  1  0  0  0  0  0  0  0  0
  1  4  1  0  0  0  0
  2  4  1  0  0  0  0
  2  5  2  0  0  0  0
  2  6  1  0  0  0  0
  3  4  1  0  0  0  0
  3  7  1  0  0  0  0
  3  8  1  0  0  0  0
  4 19  1  0  0  0  0
  6  9  1  0  0  0  0
  6 12  1  0  0  0  0
  8 10  1  0  0  0  0
  8 11  2  0  0  0  0
  9 13  1  0  0  0  0
  9 14  1  0  0  0  0
  9 15  1  0  0  0  0
 10 16  1  0  0  0  0
 10 17  1  0  0  0  0
 10 18  1  0  0  0  0
 19 20  1  0  0  0  0
 19 28  1  0  0  0  0
 19 29  1  0  0  0  0
 20 21  4  0  0  0  0
 20 25  4  0  0  0  0
 21 22  4  0  0  0  0
 21 30  1  0  0  0  0
 22 23  4  0  0  0  0
 22 27  1  0  0  0  0
 23 24  4  0  0  0  0
 23 26  1  0  0  0  0
 24 25  4  0  0  0  0
 24 31  1  0  0  0  0
 25 32  1  0  0  0  0
 26 33  1  0  0  0  0
 27 34  1  0  0  0  0
M  END
> <BCLConfClusterSize>
1

> <ConfClashScore>
0 

> <ConfOneFourInteractionScore>
-0.950605 

> <ConfScore>
0.126656 

> <ConfScorePBest>
0.00666612 

> <ConfTolerance>
0.260693 

> <RosettaParamsInstructions>
M  ROOT 3
M  POLY_N_BB 3
M  POLY_CA_BB 4
M  POLY_C_BB 2
M  POLY_O_BB 5
M  POLY_IGNORE 9 10 11 12 13 14 15 16 17 18 
M  POLY_UPPER 6
M  POLY_LOWER 8
M  POLY_CHG 0
M  POLY_PROPERTIES ALPHA_AA D_AA PROTEIN AROMATIC POLYMER 
M  END

$$$$



 34 34  0  0  0  0  0  0  0  0999 V2000
    0.0660    4.0444   -0.6705 H   0  0  0  1  0  0  0  0  0  0  0  0
   -1.6575    4.1849    0.5673 C   0  0  0  1  0  0  0  0  0  0  0  0
   -1.3685    5.1270   -1.6511 N   0  0  0  1  0  0  0  0  0  0  0  0
   -0.9943    4.0328   -0.8136 C   0  0  0  1  0  0  0  0  0  0  0  0
   -1.2443    3.5662    1.5444 O   0  0  0  1  0  0  0  0  0  0  0  0
   -2.6943    5.0224    0.6232 N   0  0  0  1  0  0  0  0  0  0  0  0
   -1.8417    4.9412   -2.4888 H   0  0  0  1  0  0  0  0  0  0  0  0
   -1.0958    6.3955   -1.3322 C   0  0  0  1  0  0  0  0  0  0  0  0
   -3.4824    5.1892    1.8120 C   0  0  0  1  0  0  0  0  0  0  0  0
   -1.4443    7.4290   -2.3857 C   0  0  0  1  0  0  0  0  0  0  0  0
   -0.5945    6.7230   -0.2584 O   0  0  0  1  0  0  0  0  0  0  0  0
   -2.9262    5.5419   -0.1748 H   0  0  0  1  0  0  0  0  0  0  0  0
   -4.3911    5.6995    1.5695 H   0  0  0  1  0  0  0  0  0  0  0  0
   -2.9313    5.7633    2.5274 H   0  0  0  1  0  0  0  0  0  0  0  0
   -3.7121    4.2293    2.2250 H   0  0  0  1  0  0  0  0  0  0  0  0
   -2.1822    7.0282   -3.0489 H   0  0  0  1  0  0  0  0  0  0  0  0
   -0.5656    7.6820   -2.9412 H   0  0  0  1  0  0  0  0  0  0  0  0
   -1.8312    8.3060   -1.9102 H   0  0  0  1  0  0  0  0  0  0  0  0
   -1.3658    2.6735   -1.4718 C   0  0  0  1  0  0  0  0  0  0  0  0
   -2.7988    2.5406   -1.9132 C   0  0  0  1  0  0  0  0  0  0  0  0
   -3.1953    3.0932   -3.1212 C   0  0  0  1  0  0  0  0  0  0  0  0
   -4.5261    3.0589   -3.4929 C   0  0  0  1  0  0  0  0  0  0  0  0
   -5.4634    2.4673   -2.6604 C   0  0  0  1  0  0  0  0  0  0  0  0
   -5.0679    1.9165   -1.4562 C   0  0  0  1  0  0  0  0  0  0  0  0
   -3.7333    1.9507   -1.0831 C   0  0  0  1  0  0  0  0  0  0  0  0
   -6.7479    2.4661   -3.0926 O   0  0  0  1  0  0  0  0  0  0  0  0
   -4.8898    3.6105   -4.6761 O   0  0  0  1  0  0  0  0  0  0  0  0
   -1.1656    1.8978   -0.7626 H   0  0  0  1  0  0  0  0  0  0  0  0
   -0.7421    2.5415   -2.3312 H   0  0  0  1  0  0  0  0  0  0  0  0
   -2.4915    3.5335   -3.7476 H   0  0  0  1  0  0  0  0  0  0  0  0
   -5.7717    1.4762   -0.8297 H   0  0  0  1  0  0  0  0  0  0  0  0
   -3.4351    1.5326   -0.1788 H   0  0  0  1  0  0  0  0  0  0  0  0
   -6.7632    2.4863   -4.0522 H   0  0  0  1  0  0  0  0  0  0  0  0
   -4.1734    3.5148   -5.3080 H   0  0  0  1  0  0  0  0  0  0  0  0
  1  4  1  0  0  0  0
  2  4  1  0  0  0  0
  2  5  2  0  0  0  0
  2  6  1  0  0  0  0
  3  4  1  0  0  0  0
  3  7  1  0  0  0  0
  3  8  1  0  0  0  0
  4 19  1  0  0  0  0
  6  9  1  0  0  0  0
  6 12  1  0  0  0  0
  8 10  1  0  0  0  0
  8 11  2  0  0  0  0
  9 13  1  0  0  0  0
  9 14  1  0  0  0  0
  9 15  1  0  0  0  0
 10 16  1  0  0  0  0
 10 17  1  0  0  0  0
 10 18  1  0  0  0  0
 19 20  1  0  0  0  0
 19 28  1  0  0  0  0
 19 29  1  0  0  0  0
 20 21  4  0  0  0  0
 20 25  4  0  0  0  0
 21 22  4  0  0  0  0
 21 30  1  0  0  0  0
 22 23  4  0  0  0  0
 22 27  1  0  0  0  0
 23 24  4  0  0  0  0
 23 26  1  0  0  0  0
 24 25  4  0  0  0  0
 24 31  1  0  0  0  0
 25 32  1  0  0  0  0
 26 33  1  0  0  0  0
 27 34  1  0  0  0  0
M  END
> <BCLConfClusterSize>
1

> <ConfClashScore>
0 

> <ConfOneFourInteractionScore>
-0.931937 

> <ConfScore>
0.13134 

> <ConfScorePBest>
0.00663764 

> <ConfTolerance>
0.314434 

> <RosettaParamsInstructions>
M  ROOT 3
M  POLY_N_BB 3
M  POLY_CA_BB 4
M  POLY_C_BB 2
M  POLY_O_BB 5
M  POLY_IGNORE 9 10 11 12 13 14 15 16 17 18 
M  POLY_UPPER 6
M  POLY_LOWER 8
M  POLY_CHG 0
M  POLY_PROPERTIES ALPHA_AA D_AA PROTEIN AROMATIC POLYMER 
M  END

$$$$



 34 34  0  0  0  0  0  0  0  0999 V2000
   -1.0584    0.7613   -0.8114 H   0  0  0  1  0  0  0  0  0  0  0  0
    0.7867    1.6723   -0.4428 C   0  0  0  1  0  0  0  0  0  0  0  0
   -0.1955    1.1407   -2.6355 N   0  0  0  1  0  0  0  0  0  0  0  0
   -0.5005    1.5595   -1.2548 C   0  0  0  1  0  0  0  0  0  0  0  0
    0.7579    1.6854    0.7849 O   0  0  0  1  0  0  0  0  0  0  0  0
    1.9478    1.7567   -1.1098 N   0  0  0  1  0  0  0  0  0  0  0  0
   -0.5521    1.6692   -3.3797 H   0  0  0  1  0  0  0  0  0  0  0  0
    0.5534    0.0613   -2.9081 C   0  0  0  1  0  0  0  0  0  0  0  0
    3.2513    1.9502   -0.4922 C   0  0  0  1  0  0  0  0  0  0  0  0
    0.8587   -0.1753   -4.3744 C   0  0  0  1  0  0  0  0  0  0  0  0
    0.9743   -0.6993   -2.0375 O   0  0  0  1  0  0  0  0  0  0  0  0
    1.9158    1.6823   -2.0865 H   0  0  0  1  0  0  0  0  0  0  0  0
    3.1309    2.4473    0.4477 H   0  0  0  1  0  0  0  0  0  0  0  0
    3.8651    2.5464   -1.1346 H   0  0  0  1  0  0  0  0  0  0  0  0
    3.7162    0.9993   -0.3356 H   0  0  0  1  0  0  0  0  0  0  0  0
   -0.0480   -0.1265   -4.9404 H   0  0  0  1  0  0  0  0  0  0  0  0
    1.3023   -1.1416   -4.4947 H   0  0  0  1  0  0  0  0  0  0  0  0
    1.5372    0.5751   -4.7228 H   0  0  0  1  0  0  0  0  0  0  0  0
   -1.4016    2.7858   -1.1915 C   0  0  0  1  0  0  0  0  0  0  0  0
   -2.7518    2.5650   -1.8451 C   0  0  0  1  0  0  0  0  0  0  0  0
   -3.0155    3.0048   -3.1330 C   0  0  0  1  0  0  0  0  0  0  0  0
   -4.2857    2.8726   -3.6616 C   0  0  0  1  0  0  0  0  0  0  0  0
   -5.2944    2.2955   -2.9061 C   0  0  0  1  0  0  0  0  0  0  0  0
   -5.0313    1.8571   -1.6221 C   0  0  0  1  0  0  0  0  0  0  0  0
   -3.7575    1.9896   -1.0917 C   0  0  0  1  0  0  0  0  0  0  0  0
   -6.5302    2.1722   -3.4487 O   0  0  0  1  0  0  0  0  0  0  0  0
   -4.5200    3.3149   -4.9211 O   0  0  0  1  0  0  0  0  0  0  0  0
   -0.9105    3.5954   -1.6896 H   0  0  0  1  0  0  0  0  0  0  0  0
   -1.5582    3.0408   -0.1642 H   0  0  0  1  0  0  0  0  0  0  0  0
   -2.2577    3.4341   -3.7013 H   0  0  0  1  0  0  0  0  0  0  0  0
   -5.7891    1.4278   -1.0538 H   0  0  0  1  0  0  0  0  0  0  0  0
   -3.5586    1.6560   -0.1269 H   0  0  0  1  0  0  0  0  0  0  0  0
   -6.9600    3.0305   -3.4653 H   0  0  0  1  0  0  0  0  0  0  0  0
   -5.2695    3.9148   -4.9158 H   0  0  0  1  0  0  0  0  0  0  0  0
  1  4  1  0  0  0  0
  2  4  1  0  0  0  0
  2  5  2  0  0  0  0
  2  6  1  0  0  0  0
  3  4  1  0  0  0  0
  3  7  1  0  0  0  0
  3  8  1  0  0  0  0
  4 19  1  0  0  0  0
  6  9  1  0  0  0  0
  6 12  1  0  0  0  0
  8 10  1  0  0  0  0
  8 11  2  0  0  0  0
  9 13  1  0  0  0  0
  9 14  1  0  0  0  0
  9 15  1  0  0  0  0
 10 16  1  0  0  0  0
 10 17  1  0  0  0  0
 10 18  1  0  0  0  0
 19 20  1  0  0  0  0
 19 28  1  0  0  0  0
 19 29  1  0  0  0  0
 20 21  4  0  0  0  0
 20 25  4  0  0  0  0
 21 22  4  0  0  0  0
 21 30  1  0  0  0  0
 22 23  4  0  0  0  0
 22 27  1  0  0  0  0
 23 24  4  0  0  0  0
 23 26  1  0  0  0  0
 24 25  4  0  0  0  0
 24 31  1  0  0  0  0
 25 32  1  0  0  0  0
 26 33  1  0  0  0  0
 27 34  1  0  0  0  0
M  END
> <BCLConfClusterSize>
1

> <ConfClashScore>
0 

> <ConfOneFourInteractionScore>
-0.94165 

> <ConfScore>
0.131507 

> <ConfScorePBest>
0.00660916 

> <ConfTolerance>
0.230443 

> <RosettaParamsInstructions>
M  ROOT 3
M  POLY_N_BB 3
M  POLY_CA_BB 4
M  POLY_C_BB 2
M  POLY_O_BB 5
M  POLY_IGNORE 9 10 11 12 13 14 15 16 17 18 
M  POLY_UPPER 6
M  POLY_LOWER 8
M  POLY_CHG 0
M  POLY_PROPERTIES ALPHA_AA D_AA PROTEIN AROMATIC POLYMER 
M  END

$$$$



 34 34  0  0  0  0  0  0  0  0999 V2000
   -0.9257    4.3007   -2.5626 H   0  0  0  1  0  0  0  0  0  0  0  0
    0.5522    4.2091   -1.0763 C   0  0  0  1  0  0  0  0  0  0  0  0
   -1.8377    4.8802   -0.8155 N   0  0  0  1  0  0  0  0  0  0  0  0
   -0.8859    4.0392   -1.5258 C   0  0  0  1  0  0  0  0  0  0  0  0
    0.9271    5.2315   -0.5264 O   0  0  0  1  0  0  0  0  0  0  0  0
    1.3669    3.1711   -1.3234 N   0  0  0  1  0  0  0  0  0  0  0  0
   -2.6023    4.4579   -0.3710 H   0  0  0  1  0  0  0  0  0  0  0  0
   -1.7042    6.2210   -0.7475 C   0  0  0  1  0  0  0  0  0  0  0  0
    2.7922    3.2799   -1.0504 C   0  0  0  1  0  0  0  0  0  0  0  0
   -2.8603    7.0250   -0.1851 C   0  0  0  1  0  0  0  0  0  0  0  0
   -0.6775    6.7765   -1.1292 O   0  0  0  1  0  0  0  0  0  0  0  0
    1.0011    2.3384   -1.6883 H   0  0  0  1  0  0  0  0  0  0  0  0
    2.9400    3.5538   -0.0267 H   0  0  0  1  0  0  0  0  0  0  0  0
    3.2206    4.0275   -1.6849 H   0  0  0  1  0  0  0  0  0  0  0  0
    3.2641    2.3383   -1.2391 H   0  0  0  1  0  0  0  0  0  0  0  0
   -2.5477    7.5226    0.7091 H   0  0  0  1  0  0  0  0  0  0  0  0
   -3.6753    6.3688    0.0385 H   0  0  0  1  0  0  0  0  0  0  0  0
   -3.1736    7.7509   -0.9060 H   0  0  0  1  0  0  0  0  0  0  0  0
   -1.3461    2.5794   -1.4146 C   0  0  0  1  0  0  0  0  0  0  0  0
   -2.7715    2.4815   -1.9219 C   0  0  0  1  0  0  0  0  0  0  0  0
   -3.1217    2.9152   -3.1911 C   0  0  0  1  0  0  0  0  0  0  0  0
   -4.4464    2.9002   -3.5853 C   0  0  0  1  0  0  0  0  0  0  0  0
   -5.4240    2.4464   -2.7136 C   0  0  0  1  0  0  0  0  0  0  0  0
   -5.0746    2.0140   -1.4483 C   0  0  0  1  0  0  0  0  0  0  0  0
   -3.7461    2.0290   -1.0527 C   0  0  0  1  0  0  0  0  0  0  0  0
   -6.6834    2.4737   -3.2133 O   0  0  0  1  0  0  0  0  0  0  0  0
   -4.6663    3.3520   -4.8439 O   0  0  0  1  0  0  0  0  0  0  0  0
   -1.3051    2.2656   -0.3924 H   0  0  0  1  0  0  0  0  0  0  0  0
   -0.7095    1.9549   -2.0057 H   0  0  0  1  0  0  0  0  0  0  0  0
   -2.3879    3.2519   -3.8466 H   0  0  0  1  0  0  0  0  0  0  0  0
   -5.8085    1.6773   -0.7928 H   0  0  0  1  0  0  0  0  0  0  0  0
   -3.4828    1.6998   -0.1019 H   0  0  0  1  0  0  0  0  0  0  0  0
   -6.6695    2.1973   -4.1326 H   0  0  0  1  0  0  0  0  0  0  0  0
   -4.7944    4.3032   -4.8251 H   0  0  0  1  0  0  0  0  0  0  0  0
  1  4  1  0  0  0  0
  2  4  1  0  0  0  0
  2  5  2  0  0  0  0
  2  6  1  0  0  0  0
  3  4  1  0  0  0  0
  3  7  1  0  0  0  0
  3  8  1  0  0  0  0
  4 19  1  0  0  0  0
  6  9  1  0  0  0  0
  6 12  1  0  0  0  0
  8 10  1  0  0  0  0
  8 11  2  0  0  0  0
  9 13  1  0  0  0  0
  9 14  1  0  0  0  0
  9 15  1  0  0  0  0
 10 16  1  0  0  0  0
 10 17  1  0  0  0  0
 10 18  1  0  0  0  0
 19 20  1  0  0  0  0
 19 28  1  0  0  0  0
 19 29  1  0  0  0  0
 20 21  4  0  0  0  0
 20 25  4  0  0  0  0
 21 22  4  0  0  0  0
 21 30  1  0  0  0  0
 22 23  4  0  0  0  0
 22 27  1  0  0  0  0
 23 24  4  0  0  0  0
 23 26  1  0  0  0  0
 24 25  4  0  0  0  0
 24 31  1  0  0  0  0
 25 32  1  0  0  0  0
 26 33  1  0  0  0  0
 27 34  1  0  0  0  0
M  END
> <BCLConfClusterSize>
1

> <ConfClashScore>
0 

> <ConfOneFourInteractionScore>
-0.958855 

> <ConfScore>
0.131561 

> <ConfScorePBest>
0.00658068 

> <ConfTolerance>
0.591316 

> <RosettaParamsInstructions>
M  ROOT 3
M  POLY_N_BB 3
M  POLY_CA_BB 4
M  POLY_C_BB 2
M  POLY_O_BB 5
M  POLY_IGNORE 9 10 11 12 13 14 15 16 17 18 
M  POLY_UPPER 6
M  POLY_LOWER 8
M  POLY_CHG 0
M  POLY_PROPERTIES ALPHA_AA D_AA PROTEIN AROMATIC POLYMER 
M  END

$$$$



 34 34  0  0  0  0  0  0  0  0999 V2000
   -0.4639    1.5374   -2.7073 H   0  0  0  1  0  0  0  0  0  0  0  0
   -1.2241    0.2155   -1.2461 C   0  0  0  1  0  0  0  0  0  0  0  0
    0.7911    1.7167   -1.0811 N   0  0  0  1  0  0  0  0  0  0  0  0
   -0.5389    1.5209   -1.6401 C   0  0  0  1  0  0  0  0  0  0  0  0
   -1.2199   -0.1688   -0.0877 O   0  0  0  1  0  0  0  0  0  0  0  0
   -1.8270   -0.4919   -2.2058 N   0  0  0  1  0  0  0  0  0  0  0  0
    0.9460    2.5281   -0.5537 H   0  0  0  1  0  0  0  0  0  0  0  0
    1.8164    0.8737   -1.2329 C   0  0  0  1  0  0  0  0  0  0  0  0
   -2.6693   -1.6416   -1.9114 C   0  0  0  1  0  0  0  0  0  0  0  0
    3.1555    1.3658   -0.7194 C   0  0  0  1  0  0  0  0  0  0  0  0
    1.7016   -0.2257   -1.7493 O   0  0  0  1  0  0  0  0  0  0  0  0
   -1.6977   -0.2274   -3.1405 H   0  0  0  1  0  0  0  0  0  0  0  0
   -3.1702   -1.9552   -2.8034 H   0  0  0  1  0  0  0  0  0  0  0  0
   -3.3940   -1.3724   -1.1716 H   0  0  0  1  0  0  0  0  0  0  0  0
   -2.0630   -2.4425   -1.5427 H   0  0  0  1  0  0  0  0  0  0  0  0
    3.1208    1.4483    0.3469 H   0  0  0  1  0  0  0  0  0  0  0  0
    3.3698    2.3242   -1.1441 H   0  0  0  1  0  0  0  0  0  0  0  0
    3.9210    0.6723   -0.9984 H   0  0  0  1  0  0  0  0  0  0  0  0
   -1.4258    2.6919   -1.2275 C   0  0  0  1  0  0  0  0  0  0  0  0
   -2.7878    2.5781   -1.8584 C   0  0  0  1  0  0  0  0  0  0  0  0
   -3.0420    3.2280   -3.0562 C   0  0  0  1  0  0  0  0  0  0  0  0
   -4.3139    3.2078   -3.5968 C   0  0  0  1  0  0  0  0  0  0  0  0
   -5.3340    2.5333   -2.9441 C   0  0  0  1  0  0  0  0  0  0  0  0
   -5.0803    1.8854   -1.7500 C   0  0  0  1  0  0  0  0  0  0  0  0
   -3.8048    1.9055   -1.2076 C   0  0  0  1  0  0  0  0  0  0  0  0
   -6.6078    2.4552   -3.4002 O   0  0  0  1  0  0  0  0  0  0  0  0
   -4.5387    3.8549   -4.7661 O   0  0  0  1  0  0  0  0  0  0  0  0
   -0.9685    3.6064   -1.5428 H   0  0  0  1  0  0  0  0  0  0  0  0
   -1.5315    2.6938   -0.1628 H   0  0  0  1  0  0  0  0  0  0  0  0
   -2.2758    3.7307   -3.5480 H   0  0  0  1  0  0  0  0  0  0  0  0
   -5.8465    1.3827   -1.2582 H   0  0  0  1  0  0  0  0  0  0  0  0
   -3.6131    1.4146   -0.3110 H   0  0  0  1  0  0  0  0  0  0  0  0
   -7.1951    2.2333   -2.6740 H   0  0  0  1  0  0  0  0  0  0  0  0
   -4.5574    3.2196   -5.4856 H   0  0  0  1  0  0  0  0  0  0  0  0
  1  4  1  0  0  0  0
  2  4  1  0  0  0  0
  2  5  2  0  0  0  0
  2  6  1  0  0  0  0
  3  4  1  0  0  0  0
  3  7  1  0  0  0  0
  3  8  1  0  0  0  0
  4 19  1  0  0  0  0
  6  9  1  0  0  0  0
  6 12  1  0  0  0  0
  8 10  1  0  0  0  0
  8 11  2  0  0  0  0
  9 13  1  0  0  0  0
  9 14  1  0  0  0  0
  9 15  1  0  0  0  0
 10 16  1  0  0  0  0
 10 17  1  0  0  0  0
 10 18  1  0  0  0  0
 19 20  1  0  0  0  0
 19 28  1  0  0  0  0
 19 29  1  0  0  0  0
 20 21  4  0  0  0  0
 20 25  4  0  0  0  0
 21 22  4  0  0  0  0
 21 30  1  0  0  0  0
 22 23  4  0  0  0  0
 22 27  1  0  0  0  0
 23 24  4  0  0  0  0
 23 26  1  0  0  0  0
 24 25  4  0  0  0  0
 24 31  1  0  0  0  0
 25 32  1  0  0  0  0
 26 33  1  0  0  0  0
 27 34  1  0  0  0  0
M  END
> <BCLConfClusterSize>
1

> <ConfClashScore>
0 

> <ConfOneFourInteractionScore>
-0.985807 

> <ConfScore>
0.133203 

> <ConfScorePBest>
0.0065522 

> <ConfTolerance>
0.346212 

> <RosettaParamsInstructions>
M  ROOT 3
M  POLY_N_BB 3
M  POLY_CA_BB 4
M  POLY_C_BB 2
M  POLY_O_BB 5
M  POLY_IGNORE 9 10 11 12 13 14 15 16 17 18 
M  POLY_UPPER 6
M  POLY_LOWER 8
M  POLY_CHG 0
M  POLY_PROPERTIES ALPHA_AA D_AA PROTEIN AROMATIC POLYMER 
M  END

$$$$



 34 34  0  0  0  0  0  0  0  0999 V2000
   -1.3685    4.5997   -0.6041 H   0  0  0  1  0  0  0  0  0  0  0  0
    0.1897    3.5255    0.3750 C   0  0  0  1  0  0  0  0  0  0  0  0
   -2.2113    3.3214    0.8047 N   0  0  0  1  0  0  0  0  0  0  0  0
   -1.2151    3.6149   -0.2148 C   0  0  0  1  0  0  0  0  0  0  0  0
    0.3699    3.6023    1.5874 O   0  0  0  1  0  0  0  0  0  0  0  0
    1.2191    3.3610   -0.4697 N   0  0  0  1  0  0  0  0  0  0  0  0
   -3.0473    3.8327    0.8101 H   0  0  0  1  0  0  0  0  0  0  0  0
   -2.0258    2.3790    1.7334 C   0  0  0  1  0  0  0  0  0  0  0  0
    2.6045    3.4312   -0.0298 C   0  0  0  1  0  0  0  0  0  0  0  0
   -3.1980    2.1298    2.6624 C   0  0  0  1  0  0  0  0  0  0  0  0
   -0.9779    1.7437    1.8432 O   0  0  0  1  0  0  0  0  0  0  0  0
    1.0315    3.1874   -1.4158 H   0  0  0  1  0  0  0  0  0  0  0  0
    2.6651    4.0090    0.8688 H   0  0  0  1  0  0  0  0  0  0  0  0
    3.1973    3.8933   -0.7913 H   0  0  0  1  0  0  0  0  0  0  0  0
    2.9698    2.4429    0.1567 H   0  0  0  1  0  0  0  0  0  0  0  0
   -4.0290    2.7312    2.3580 H   0  0  0  1  0  0  0  0  0  0  0  0
   -2.9202    2.3862    3.6634 H   0  0  0  1  0  0  0  0  0  0  0  0
   -3.4719    1.0963    2.6213 H   0  0  0  1  0  0  0  0  0  0  0  0
   -1.3400    2.6031   -1.3557 C   0  0  0  1  0  0  0  0  0  0  0  0
   -2.7514    2.4905   -1.8979 C   0  0  0  1  0  0  0  0  0  0  0  0
   -3.0745    2.9191   -3.1760 C   0  0  0  1  0  0  0  0  0  0  0  0
   -4.3889    2.8905   -3.6026 C   0  0  0  1  0  0  0  0  0  0  0  0
   -5.3831    2.4283   -2.7545 C   0  0  0  1  0  0  0  0  0  0  0  0
   -5.0608    2.0010   -1.4803 C   0  0  0  1  0  0  0  0  0  0  0  0
   -3.7427    2.0296   -1.0522 C   0  0  0  1  0  0  0  0  0  0  0  0
   -6.6636    2.4051   -3.1978 O   0  0  0  1  0  0  0  0  0  0  0  0
   -4.7544    3.3037   -4.8404 O   0  0  0  1  0  0  0  0  0  0  0  0
   -1.0364    1.6429   -0.9942 H   0  0  0  1  0  0  0  0  0  0  0  0
   -0.6925    2.9060   -2.1519 H   0  0  0  1  0  0  0  0  0  0  0  0
   -2.3281    3.2621   -3.8137 H   0  0  0  1  0  0  0  0  0  0  0  0
   -5.8073    1.6580   -0.8425 H   0  0  0  1  0  0  0  0  0  0  0  0
   -3.4997    1.7043   -0.0947 H   0  0  0  1  0  0  0  0  0  0  0  0
   -6.6701    2.3839   -4.1576 H   0  0  0  1  0  0  0  0  0  0  0  0
   -4.9587    4.2415   -4.8179 H   0  0  0  1  0  0  0  0  0  0  0  0
  1  4  1  0  0  0  0
  2  4  1  0  0  0  0
  2  5  2  0  0  0  0
  2  6  1  0  0  0  0
  3  4  1  0  0  0  0
  3  7  1  0  0  0  0
  3  8  1  0  0  0  0
  4 19  1  0  0  0  0
  6  9  1  0  0  0  0
  6 12  1  0  0  0  0
  8 10  1  0  0  0  0
  8 11  2  0  0  0  0
  9 13  1  0  0  0  0
  9 14  1  0  0  0  0
  9 15  1  0  0  0  0
 10 16  1  0  0  0  0
 10 17  1  0  0  0  0
 10 18  1  0  0  0  0
 19 20  1  0  0  0  0
 19 28  1  0  0  0  0
 19 29  1  0  0  0  0
 20 21  4  0  0  0  0
 20 25  4  0  0  0  0
 21 22  4  0  0  0  0
 21 30  1  0  0  0  0
 22 23  4  0  0  0  0
 22 27  1  0  0  0  0
 23 24  4  0  0  0  0
 23 26  1  0  0  0  0
 24 25  4  0  0  0  0
 24 31  1  0  0  0  0
 25 32  1  0  0  0  0
 26 33  1  0  0  0  0
 27 34  1  0  0  0  0
M  END
> <BCLConfClusterSize>
1

> <ConfClashScore>
0 

> <ConfOneFourInteractionScore>
-0.935823 

> <ConfScore>
0.136411 

> <ConfScorePBest>
0.00652372 

> <ConfTolerance>
0.506413 

> <RosettaParamsInstructions>
M  ROOT 3
M  POLY_N_BB 3
M  POLY_CA_BB 4
M  POLY_C_BB 2
M  POLY_O_BB 5
M  POLY_IGNORE 9 10 11 12 13 14 15 16 17 18 
M  POLY_UPPER 6
M  POLY_LOWER 8
M  POLY_CHG 0
M  POLY_PROPERTIES ALPHA_AA D_AA PROTEIN AROMATIC POLYMER 
M  END

$$$$



 34 34  0  0  0  0  0  0  0  0999 V2000
   -0.0083    3.5845   -0.0686 H   0  0  0  1  0  0  0  0  0  0  0  0
   -1.9283    3.8119    0.7828 C   0  0  0  1  0  0  0  0  0  0  0  0
   -1.0415    4.9484   -1.2348 N   0  0  0  1  0  0  0  0  0  0  0  0
   -1.0062    3.7248   -0.4283 C   0  0  0  1  0  0  0  0  0  0  0  0
   -2.3941    2.7999    1.3047 O   0  0  0  1  0  0  0  0  0  0  0  0
   -2.1893    5.0502    1.2288 N   0  0  0  1  0  0  0  0  0  0  0  0
   -0.2043    5.3676   -1.5243 H   0  0  0  1  0  0  0  0  0  0  0  0
   -2.2176    5.4957   -1.5776 C   0  0  0  1  0  0  0  0  0  0  0  0
   -3.0909    5.3677    2.3261 C   0  0  0  1  0  0  0  0  0  0  0  0
   -2.2098    6.6270   -2.5806 C   0  0  0  1  0  0  0  0  0  0  0  0
   -3.2728    5.0908   -1.0914 O   0  0  0  1  0  0  0  0  0  0  0  0
   -1.7389    5.7970    0.7819 H   0  0  0  1  0  0  0  0  0  0  0  0
   -3.1465    4.5345    2.9952 H   0  0  0  1  0  0  0  0  0  0  0  0
   -4.0653    5.5781    1.9373 H   0  0  0  1  0  0  0  0  0  0  0  0
   -2.7239    6.2238    2.8526 H   0  0  0  1  0  0  0  0  0  0  0  0
   -1.6441    7.4469   -2.1899 H   0  0  0  1  0  0  0  0  0  0  0  0
   -3.2144    6.9443   -2.7679 H   0  0  0  1  0  0  0  0  0  0  0  0
   -1.7654    6.2905   -3.4939 H   0  0  0  1  0  0  0  0  0  0  0  0
   -1.3396    2.5476   -1.3301 C   0  0  0  1  0  0  0  0  0  0  0  0
   -2.7544    2.5235   -1.8696 C   0  0  0  1  0  0  0  0  0  0  0  0
   -3.0426    3.1733   -3.0597 C   0  0  0  1  0  0  0  0  0  0  0  0
   -4.3465    3.2374   -3.5137 C   0  0  0  1  0  0  0  0  0  0  0  0
   -5.3652    2.6475   -2.7818 C   0  0  0  1  0  0  0  0  0  0  0  0
   -5.0776    1.9997   -1.5953 C   0  0  0  1  0  0  0  0  0  0  0  0
   -3.7700    1.9352   -1.1398 C   0  0  0  1  0  0  0  0  0  0  0  0
   -6.6693    2.6552   -3.1502 O   0  0  0  1  0  0  0  0  0  0  0  0
   -4.6782    3.8656   -4.6678 O   0  0  0  1  0  0  0  0  0  0  0  0
   -1.1843    1.6488   -0.7707 H   0  0  0  1  0  0  0  0  0  0  0  0
   -0.6689    2.5700   -2.1635 H   0  0  0  1  0  0  0  0  0  0  0  0
   -2.2778    3.6125   -3.6109 H   0  0  0  1  0  0  0  0  0  0  0  0
   -5.8424    1.5605   -1.0441 H   0  0  0  1  0  0  0  0  0  0  0  0
   -3.5532    1.4442   -0.2490 H   0  0  0  1  0  0  0  0  0  0  0  0
   -6.8446    1.9062   -3.7246 H   0  0  0  1  0  0  0  0  0  0  0  0
   -4.8617    3.2123   -5.3469 H   0  0  0  1  0  0  0  0  0  0  0  0
  1  4  1  0  0  0  0
  2  4  1  0  0  0  0
  2  5  2  0  0  0  0
  2  6  1  0  0  0  0
  3  4  1  0  0  0  0
  3  7  1  0  0  0  0
  3  8  1  0  0  0  0
  4 19  1  0  0  0  0
  6  9  1  0  0  0  0
  6 12  1  0  0  0  0
  8 10  1  0  0  0  0
  8 11  2  0  0  0  0
  9 13  1  0  0  0  0
  9 14  1  0  0  0  0
  9 15  1  0  0  0  0
 10 16  1  0  0  0  0
 10 17  1  0  0  0  0
 10 18  1  0  0  0  0
 19 20  1  0  0  0  0
 19 28  1  0  0  0  0
 19 29  1  0  0  0  0
 20 21  4  0  0  0  0
 20 25  4  0  0  0  0
 21 22  4  0  0  0  0
 21 30  1  0  0  0  0
 22 23  4  0  0  0  0
 22 27  1  0  0  0  0
 23 24  4  0  0  0  0
 23 26  1  0  0  0  0
 24 25  4  0  0  0  0
 24 31  1  0  0  0  0
 25 32  1  0  0  0  0
 26 33  1  0  0  0  0
 27 34  1  0  0  0  0
M  END
> <BCLConfClusterSize>
1

> <ConfClashScore>
0 

> <ConfOneFourInteractionScore>
-0.947651 

> <ConfScore>
0.139801 

> <ConfScorePBest>
0.00649524 

> <ConfTolerance>
0.292099 

> <RosettaParamsInstructions>
M  ROOT 3
M  POLY_N_BB 3
M  POLY_CA_BB 4
M  POLY_C_BB 2
M  POLY_O_BB 5
M  POLY_IGNORE 9 10 11 12 13 14 15 16 17 18 
M  POLY_UPPER 6
M  POLY_LOWER 8
M  POLY_CHG 0
M  POLY_PROPERTIES ALPHA_AA D_AA PROTEIN AROMATIC POLYMER 
M  END

$$$$



 34 34  0  0  0  0  0  0  0  0999 V2000
   -1.9875    3.5470    0.4979 H   0  0  0  1  0  0  0  0  0  0  0  0
   -1.3677    5.0594   -0.8177 C   0  0  0  1  0  0  0  0  0  0  0  0
    0.0698    3.5250    0.4620 N   0  0  0  1  0  0  0  0  0  0  0  0
   -1.2060    3.6797   -0.2208 C   0  0  0  1  0  0  0  0  0  0  0  0
   -0.7525    5.4667   -1.7858 O   0  0  0  1  0  0  0  0  0  0  0  0
   -2.2688    5.8187   -0.1761 N   0  0  0  1  0  0  0  0  0  0  0  0
    0.6741    2.8076    0.1783 H   0  0  0  1  0  0  0  0  0  0  0  0
    0.4457    4.3270    1.4622 C   0  0  0  1  0  0  0  0  0  0  0  0
   -2.4650    7.2068   -0.5665 C   0  0  0  1  0  0  0  0  0  0  0  0
    1.8492    4.1060    1.9918 C   0  0  0  1  0  0  0  0  0  0  0  0
   -0.2849    5.1934    1.9354 O   0  0  0  1  0  0  0  0  0  0  0  0
   -2.7960    5.4377    0.5569 H   0  0  0  1  0  0  0  0  0  0  0  0
   -3.3880    7.5650   -0.1607 H   0  0  0  1  0  0  0  0  0  0  0  0
   -2.4942    7.2762   -1.6338 H   0  0  0  1  0  0  0  0  0  0  0  0
   -1.6571    7.8000   -0.1919 H   0  0  0  1  0  0  0  0  0  0  0  0
    2.5616    4.4197    1.2576 H   0  0  0  1  0  0  0  0  0  0  0  0
    1.9905    3.0669    2.2042 H   0  0  0  1  0  0  0  0  0  0  0  0
    1.9861    4.6754    2.8873 H   0  0  0  1  0  0  0  0  0  0  0  0
   -1.3751    2.5880   -1.2817 C   0  0  0  1  0  0  0  0  0  0  0  0
   -2.7626    2.5411   -1.8636 C   0  0  0  1  0  0  0  0  0  0  0  0
   -3.0270    3.2026   -3.0528 C   0  0  0  1  0  0  0  0  0  0  0  0
   -4.3168    3.2448   -3.5479 C   0  0  0  1  0  0  0  0  0  0  0  0
   -5.3448    2.6212   -2.8582 C   0  0  0  1  0  0  0  0  0  0  0  0
   -5.0810    1.9618   -1.6726 C   0  0  0  1  0  0  0  0  0  0  0  0
   -3.7876    1.9193   -1.1758 C   0  0  0  1  0  0  0  0  0  0  0  0
   -6.6000    2.6722   -3.3668 O   0  0  0  1  0  0  0  0  0  0  0  0
   -4.6254    3.8831   -4.7029 O   0  0  0  1  0  0  0  0  0  0  0  0
   -1.1620    1.6406   -0.8324 H   0  0  0  1  0  0  0  0  0  0  0  0
   -0.6796    2.7722   -2.0737 H   0  0  0  1  0  0  0  0  0  0  0  0
   -2.2551    3.6670   -3.5724 H   0  0  0  1  0  0  0  0  0  0  0  0
   -5.8530    1.4974   -1.1530 H   0  0  0  1  0  0  0  0  0  0  0  0
   -3.5884    1.4197   -0.2857 H   0  0  0  1  0  0  0  0  0  0  0  0
   -7.0686    1.8641   -3.1453 H   0  0  0  1  0  0  0  0  0  0  0  0
   -4.7377    3.2384   -5.4052 H   0  0  0  1  0  0  0  0  0  0  0  0
  1  4  1  0  0  0  0
  2  4  1  0  0  0  0
  2  5  2  0  0  0  0
  2  6  1  0  0  0  0
  3  4  1  0  0  0  0
  3  7  1  0  0  0  0
  3  8  1  0  0  0  0
  4 19  1  0  0  0  0
  6  9  1  0  0  0  0
  6 12  1  0  0  0  0
  8 10  1  0  0  0  0
  8 11  2  0  0  0  0
  9 13  1  0  0  0  0
  9 14  1  0  0  0  0
  9 15  1  0  0  0  0
 10 16  1  0  0  0  0
 10 17  1  0  0  0  0
 10 18  1  0  0  0  0
 19 20  1  0  0  0  0
 19 28  1  0  0  0  0
 19 29  1  0  0  0  0
 20 21  4  0  0  0  0
 20 25  4  0  0  0  0
 21 22  4  0  0  0  0
 21 30  1  0  0  0  0
 22 23  4  0  0  0  0
 22 27  1  0  0  0  0
 23 24  4  0  0  0  0
 23 26  1  0  0  0  0
 24 25  4  0  0  0  0
 24 31  1  0  0  0  0
 25 32  1  0  0  0  0
 26 33  1  0  0  0  0
 27 34  1  0  0  0  0
M  END
> <BCLConfClusterSize>
1

> <ConfClashScore>
0 

> <ConfOneFourInteractionScore>
-0.971454 

> <ConfScore>
0.140368 

> <ConfScorePBest>
0.00646676 

> <ConfTolerance>
0.356626 

> <RosettaParamsInstructions>
M  ROOT 3
M  POLY_N_BB 3
M  POLY_CA_BB 4
M  POLY_C_BB 2
M  POLY_O_BB 5
M  POLY_IGNORE 9 10 11 12 13 14 15 16 17 18 
M  POLY_UPPER 6
M  POLY_LOWER 8
M  POLY_CHG 0
M  POLY_PROPERTIES ALPHA_AA D_AA PROTEIN AROMATIC POLYMER 
M  END

$$$$



 34 34  0  0  0  0  0  0  0  0999 V2000
    0.5180    1.5284   -1.3188 H   0  0  0  1  0  0  0  0  0  0  0  0
    0.3182    2.3444   -3.2330 C   0  0  0  1  0  0  0  0  0  0  0  0
   -0.7814    0.3247   -2.3573 N   0  0  0  1  0  0  0  0  0  0  0  0
   -0.2895    1.6699   -2.0064 C   0  0  0  1  0  0  0  0  0  0  0  0
    1.1269    1.7497   -3.9443 O   0  0  0  1  0  0  0  0  0  0  0  0
   -0.0557    3.6026   -3.5112 N   0  0  0  1  0  0  0  0  0  0  0  0
   -1.7277    0.1147   -2.2135 H   0  0  0  1  0  0  0  0  0  0  0  0
    0.0184   -0.6177   -2.8646 C   0  0  0  1  0  0  0  0  0  0  0  0
    0.4349    4.3689   -4.6470 C   0  0  0  1  0  0  0  0  0  0  0  0
   -0.6669   -1.8978   -3.3017 C   0  0  0  1  0  0  0  0  0  0  0  0
    1.2329   -0.4744   -2.9775 O   0  0  0  1  0  0  0  0  0  0  0  0
   -0.7001    4.0329   -2.9114 H   0  0  0  1  0  0  0  0  0  0  0  0
    1.4523    4.1029   -4.8446 H   0  0  0  1  0  0  0  0  0  0  0  0
    0.3765    5.4137   -4.4239 H   0  0  0  1  0  0  0  0  0  0  0  0
   -0.1634    4.1534   -5.5075 H   0  0  0  1  0  0  0  0  0  0  0  0
   -1.0034   -1.7957   -4.3123 H   0  0  0  1  0  0  0  0  0  0  0  0
   -1.5050   -2.0889   -2.6646 H   0  0  0  1  0  0  0  0  0  0  0  0
    0.0242   -2.7121   -3.2367 H   0  0  0  1  0  0  0  0  0  0  0  0
   -1.3258    2.5074   -1.2684 C   0  0  0  1  0  0  0  0  0  0  0  0
   -2.7208    2.4860   -1.8620 C   0  0  0  1  0  0  0  0  0  0  0  0
   -2.9867    3.0253   -3.1111 C   0  0  0  1  0  0  0  0  0  0  0  0
   -4.2860    3.0752   -3.5797 C   0  0  0  1  0  0  0  0  0  0  0  0
   -5.3225    2.5814   -2.8031 C   0  0  0  1  0  0  0  0  0  0  0  0
   -5.0573    2.0438   -1.5578 C   0  0  0  1  0  0  0  0  0  0  0  0
   -3.7543    1.9936   -1.0876 C   0  0  0  1  0  0  0  0  0  0  0  0
   -6.5496    2.6800   -3.3698 O   0  0  0  1  0  0  0  0  0  0  0  0
   -4.5960    3.5974   -4.7913 O   0  0  0  1  0  0  0  0  0  0  0  0
   -0.9858    3.5219   -1.2609 H   0  0  0  1  0  0  0  0  0  0  0  0
   -1.3890    2.1444   -0.2639 H   0  0  0  1  0  0  0  0  0  0  0  0
   -2.2085    3.3922   -3.6954 H   0  0  0  1  0  0  0  0  0  0  0  0
   -5.8354    1.6769   -0.9735 H   0  0  0  1  0  0  0  0  0  0  0  0
   -3.5543    1.5853   -0.1522 H   0  0  0  1  0  0  0  0  0  0  0  0
   -6.6802    1.9508   -3.9804 H   0  0  0  1  0  0  0  0  0  0  0  0
   -5.5455    3.7256   -4.8515 H   0  0  0  1  0  0  0  0  0  0  0  0
  1  4  1  0  0  0  0
  2  4  1  0  0  0  0
  2  5  2  0  0  0  0
  2  6  1  0  0  0  0
  3  4  1  0  0  0  0
  3  7  1  0  0  0  0
  3  8  1  0  0  0  0
  4 19  1  0  0  0  0
  6  9  1  0  0  0  0
  6 12  1  0  0  0  0
  8 10  1  0  0  0  0
  8 11  2  0  0  0  0
  9 13  1  0  0  0  0
  9 14  1  0  0  0  0
  9 15  1  0  0  0  0
 10 16  1  0  0  0  0
 10 17  1  0  0  0  0
 10 18  1  0  0  0  0
 19 20  1  0  0  0  0
 19 28  1  0  0  0  0
 19 29  1  0  0  0  0
 20 21  4  0  0  0  0
 20 25  4  0  0  0  0
 21 22  4  0  0  0  0
 21 30  1  0  0  0  0
 22 23  4  0  0  0  0
 22 27  1  0  0  0  0
 23 24  4  0  0  0  0
 23 26  1  0  0  0  0
 24 25  4  0  0  0  0
 24 31  1  0  0  0  0
 25 32  1  0  0  0  0
 26 33  1  0  0  0  0
 27 34  1  0  0  0  0
M  END
> <BCLConfClusterSize>
1

> <ConfClashScore>
0 

> <ConfOneFourInteractionScore>
-0.942828 

> <ConfScore>
0.146379 

> <ConfScorePBest>
0.00643828 

> <ConfTolerance>
0.491198 

> <RosettaParamsInstructions>
M  ROOT 3
M  POLY_N_BB 3
M  POLY_CA_BB 4
M  POLY_C_BB 2
M  POLY_O_BB 5
M  POLY_IGNORE 9 10 11 12 13 14 15 16 17 18 
M  POLY_UPPER 6
M  POLY_LOWER 8
M  POLY_CHG 0
M  POLY_PROPERTIES ALPHA_AA D_AA PROTEIN AROMATIC POLYMER 
M  END

$$$$



 34 34  0  0  0  0  0  0  0  0999 V2000
   -1.2492    0.4940   -0.8830 H   0  0  0  1  0  0  0  0  0  0  0  0
    0.7227    1.1760   -0.6552 C   0  0  0  1  0  0  0  0  0  0  0  0
   -0.5070    0.7486   -2.7785 N   0  0  0  1  0  0  0  0  0  0  0  0
   -0.6123    1.1874   -1.3915 C   0  0  0  1  0  0  0  0  0  0  0  0
    0.9198    1.8987    0.3208 O   0  0  0  1  0  0  0  0  0  0  0  0
    1.6491    0.3357   -1.1409 N   0  0  0  1  0  0  0  0  0  0  0  0
   -1.1135    0.0687   -3.1393 H   0  0  0  1  0  0  0  0  0  0  0  0
    0.4479    1.3046   -3.5494 C   0  0  0  1  0  0  0  0  0  0  0  0
    2.9864    0.2414   -0.5747 C   0  0  0  1  0  0  0  0  0  0  0  0
    0.5350    0.8721   -4.9956 C   0  0  0  1  0  0  0  0  0  0  0  0
    1.2271    2.1399   -3.0925 O   0  0  0  1  0  0  0  0  0  0  0  0
    1.4171   -0.2345   -1.9034 H   0  0  0  1  0  0  0  0  0  0  0  0
    3.2682    1.1887   -0.1646 H   0  0  0  1  0  0  0  0  0  0  0  0
    3.6794   -0.0353   -1.3416 H   0  0  0  1  0  0  0  0  0  0  0  0
    2.9949   -0.4983    0.1983 H   0  0  0  1  0  0  0  0  0  0  0  0
    0.5891   -0.1953   -5.0465 H   0  0  0  1  0  0  0  0  0  0  0  0
    1.4107    1.2951   -5.4419 H   0  0  0  1  0  0  0  0  0  0  0  0
   -0.3330    1.2105   -5.5217 H   0  0  0  1  0  0  0  0  0  0  0  0
   -1.3242    2.5334   -1.3552 C   0  0  0  1  0  0  0  0  0  0  0  0
   -2.7347    2.4687   -1.8768 C   0  0  0  1  0  0  0  0  0  0  0  0
   -3.0150    2.9435   -3.1487 C   0  0  0  1  0  0  0  0  0  0  0  0
   -4.3202    2.9752   -3.6022 C   0  0  0  1  0  0  0  0  0  0  0  0
   -5.3483    2.5273   -2.7875 C   0  0  0  1  0  0  0  0  0  0  0  0
   -5.0687    2.0539   -1.5195 C   0  0  0  1  0  0  0  0  0  0  0  0
   -3.7598    2.0220   -1.0644 C   0  0  0  1  0  0  0  0  0  0  0  0
   -6.6013    2.5833   -3.3008 O   0  0  0  1  0  0  0  0  0  0  0  0
   -4.6442    3.4352   -4.8352 O   0  0  0  1  0  0  0  0  0  0  0  0
   -0.7714    3.2273   -1.9534 H   0  0  0  1  0  0  0  0  0  0  0  0
   -1.3511    2.8773   -0.3423 H   0  0  0  1  0  0  0  0  0  0  0  0
   -2.2432    3.2759   -3.7615 H   0  0  0  1  0  0  0  0  0  0  0  0
   -5.8405    1.7216   -0.9067 H   0  0  0  1  0  0  0  0  0  0  0  0
   -3.5491    1.6620   -0.1117 H   0  0  0  1  0  0  0  0  0  0  0  0
   -6.6641    1.9960   -4.0576 H   0  0  0  1  0  0  0  0  0  0  0  0
   -5.3096    4.1226   -4.7561 H   0  0  0  1  0  0  0  0  0  0  0  0
  1  4  1  0  0  0  0
  2  4  1  0  0  0  0
  2  5  2  0  0  0  0
  2  6  1  0  0  0  0
  3  4  1  0  0  0  0
  3  7  1  0  0  0  0
  3  8  1  0  0  0  0
  4 19  1  0  0  0  0
  6  9  1  0  0  0  0
  6 12  1  0  0  0  0
  8 10  1  0  0  0  0
  8 11  2  0  0  0  0
  9 13  1  0  0  0  0
  9 14  1  0  0  0  0
  9 15  1  0  0  0  0
 10 16  1  0  0  0  0
 10 17  1  0  0  0  0
 10 18  1  0  0  0  0
 19 20  1  0  0  0  0
 19 28  1  0  0  0  0
 19 29  1  0  0  0  0
 20 21  4  0  0  0  0
 20 25  4  0  0  0  0
 21 22  4  0  0  0  0
 21 30  1  0  0  0  0
 22 23  4  0  0  0  0
 22 27  1  0  0  0  0
 23 24  4  0  0  0  0
 23 26  1  0  0  0  0
 24 25  4  0  0  0  0
 24 31  1  0  0  0  0
 25 32  1  0  0  0  0
 26 33  1  0  0  0  0
 27 34  1  0  0  0  0
M  END
> <BCLConfClusterSize>
1

> <ConfClashScore>
0 

> <ConfOneFourInteractionScore>
-0.957723 

> <ConfScore>
0.147946 

> <ConfScorePBest>
0.0064098 

> <ConfTolerance>
0.188735 

> <RosettaParamsInstructions>
M  ROOT 3
M  POLY_N_BB 3
M  POLY_CA_BB 4
M  POLY_C_BB 2
M  POLY_O_BB 5
M  POLY_IGNORE 9 10 11 12 13 14 15 16 17 18 
M  POLY_UPPER 6
M  POLY_LOWER 8
M  POLY_CHG 0
M  POLY_PROPERTIES ALPHA_AA D_AA PROTEIN AROMATIC POLYMER 
M  END

$$$$



 34 34  0  0  0  0  0  0  0  0999 V2000
    0.5421    1.5802   -1.5246 H   0  0  0  1  0  0  0  0  0  0  0  0
   -0.2250    1.7498   -3.4793 C   0  0  0  1  0  0  0  0  0  0  0  0
   -0.9115    0.1377   -1.7367 N   0  0  0  1  0  0  0  0  0  0  0  0
   -0.4154    1.4826   -1.9921 C   0  0  0  1  0  0  0  0  0  0  0  0
    0.6179    2.5821   -3.8117 O   0  0  0  1  0  0  0  0  0  0  0  0
   -0.9819    1.0677   -4.3454 N   0  0  0  1  0  0  0  0  0  0  0  0
   -1.2934   -0.3609   -2.4890 H   0  0  0  1  0  0  0  0  0  0  0  0
   -0.8789   -0.4656   -0.5304 C   0  0  0  1  0  0  0  0  0  0  0  0
   -0.9488    1.3248   -5.7762 C   0  0  0  1  0  0  0  0  0  0  0  0
   -1.5462   -1.8153   -0.3925 C   0  0  0  1  0  0  0  0  0  0  0  0
   -0.3241    0.0638    0.4289 O   0  0  0  1  0  0  0  0  0  0  0  0
   -1.5797    0.3703   -4.0040 H   0  0  0  1  0  0  0  0  0  0  0  0
    0.0455    1.1770   -6.1428 H   0  0  0  1  0  0  0  0  0  0  0  0
   -1.2515    2.3337   -5.9642 H   0  0  0  1  0  0  0  0  0  0  0  0
   -1.6160    0.6530   -6.2746 H   0  0  0  1  0  0  0  0  0  0  0  0
   -2.5797   -1.6797   -0.1510 H   0  0  0  1  0  0  0  0  0  0  0  0
   -1.0681   -2.3713    0.3867 H   0  0  0  1  0  0  0  0  0  0  0  0
   -1.4630   -2.3500   -1.3156 H   0  0  0  1  0  0  0  0  0  0  0  0
   -1.3423    2.5200   -1.3517 C   0  0  0  1  0  0  0  0  0  0  0  0
   -2.7469    2.4682   -1.8906 C   0  0  0  1  0  0  0  0  0  0  0  0
   -3.0087    2.9535   -3.1624 C   0  0  0  1  0  0  0  0  0  0  0  0
   -4.3081    2.9970   -3.6314 C   0  0  0  1  0  0  0  0  0  0  0  0
   -5.3489    2.5504   -2.8323 C   0  0  0  1  0  0  0  0  0  0  0  0
   -5.0877    2.0665   -1.5643 C   0  0  0  1  0  0  0  0  0  0  0  0
   -3.7846    2.0228   -1.0937 C   0  0  0  1  0  0  0  0  0  0  0  0
   -6.6380    2.5684   -3.2499 O   0  0  0  1  0  0  0  0  0  0  0  0
   -4.5391    3.4807   -4.8762 O   0  0  0  1  0  0  0  0  0  0  0  0
   -0.9422    3.4948   -1.5371 H   0  0  0  1  0  0  0  0  0  0  0  0
   -1.3754    2.3421   -0.2971 H   0  0  0  1  0  0  0  0  0  0  0  0
   -2.2274    3.2849   -3.7636 H   0  0  0  1  0  0  0  0  0  0  0  0
   -5.8690    1.7351   -0.9631 H   0  0  0  1  0  0  0  0  0  0  0  0
   -3.5878    1.6549   -0.1410 H   0  0  0  1  0  0  0  0  0  0  0  0
   -6.8262    1.7668   -3.7436 H   0  0  0  1  0  0  0  0  0  0  0  0
   -5.1085    4.2515   -4.8199 H   0  0  0  1  0  0  0  0  0  0  0  0
  1  4  1  0  0  0  0
  2  4  1  0  0  0  0
  2  5  2  0  0  0  0
  2  6  1  0  0  0  0
  3  4  1  0  0  0  0
  3  7  1  0  0  0  0
  3  8  1  0  0  0  0
  4 19  1  0  0  0  0
  6  9  1  0  0  0  0
  6 12  1  0  0  0  0
  8 10  1  0  0  0  0
  8 11  2  0  0  0  0
  9 13  1  0  0  0  0
  9 14  1  0  0  0  0
  9 15  1  0  0  0  0
 10 16  1  0  0  0  0
 10 17  1  0  0  0  0
 10 18  1  0  0  0  0
 19 20  1  0  0  0  0
 19 28  1  0  0  0  0
 19 29  1  0  0  0  0
 20 21  4  0  0  0  0
 20 25  4  0  0  0  0
 21 22  4  0  0  0  0
 21 30  1  0  0  0  0
 22 23  4  0  0  0  0
 22 27  1  0  0  0  0
 23 24  4  0  0  0  0
 23 26  1  0  0  0  0
 24 25  4  0  0  0  0
 24 31  1  0  0  0  0
 25 32  1  0  0  0  0
 26 33  1  0  0  0  0
 27 34  1  0  0  0  0
M  END
> <BCLConfClusterSize>
1

> <ConfClashScore>
0 

> <ConfOneFourInteractionScore>
-0.9553 

> <ConfScore>
0.151696 

> <ConfScorePBest>
0.00638132 

> <ConfTolerance>
0.518383 

> <RosettaParamsInstructions>
M  ROOT 3
M  POLY_N_BB 3
M  POLY_CA_BB 4
M  POLY_C_BB 2
M  POLY_O_BB 5
M  POLY_IGNORE 9 10 11 12 13 14 15 16 17 18 
M  POLY_UPPER 6
M  POLY_LOWER 8
M  POLY_CHG 0
M  POLY_PROPERTIES ALPHA_AA D_AA PROTEIN AROMATIC POLYMER 
M  END

$$$$



 34 34  0  0  0  0  0  0  0  0999 V2000
    0.4518    1.8608   -0.8977 H   0  0  0  1  0  0  0  0  0  0  0  0
    0.2283    1.7195   -2.9795 C   0  0  0  1  0  0  0  0  0  0  0  0
   -0.9159    0.3661   -1.3140 N   0  0  0  1  0  0  0  0  0  0  0  0
   -0.3526    1.6966   -1.5838 C   0  0  0  1  0  0  0  0  0  0  0  0
    1.0300    2.5903   -3.3151 O   0  0  0  1  0  0  0  0  0  0  0  0
   -0.1548    0.7674   -3.8350 N   0  0  0  1  0  0  0  0  0  0  0  0
   -1.8072    0.3252   -0.9086 H   0  0  0  1  0  0  0  0  0  0  0  0
   -0.3045   -0.7917   -1.5799 C   0  0  0  1  0  0  0  0  0  0  0  0
    0.4548    0.6102   -5.1471 C   0  0  0  1  0  0  0  0  0  0  0  0
   -1.0458   -2.0388   -1.1544 C   0  0  0  1  0  0  0  0  0  0  0  0
    0.7915   -0.8584   -2.1348 O   0  0  0  1  0  0  0  0  0  0  0  0
   -0.8712    0.1537   -3.5697 H   0  0  0  1  0  0  0  0  0  0  0  0
    1.2047   -0.1518   -5.1035 H   0  0  0  1  0  0  0  0  0  0  0  0
    0.9033    1.5349   -5.4449 H   0  0  0  1  0  0  0  0  0  0  0  0
   -0.2953    0.3318   -5.8575 H   0  0  0  1  0  0  0  0  0  0  0  0
   -1.3481   -1.9434   -0.1325 H   0  0  0  1  0  0  0  0  0  0  0  0
   -0.4034   -2.8882   -1.2583 H   0  0  0  1  0  0  0  0  0  0  0  0
   -1.9105   -2.1674   -1.7714 H   0  0  0  1  0  0  0  0  0  0  0  0
   -1.3890    2.7652   -1.3273 C   0  0  0  1  0  0  0  0  0  0  0  0
   -2.7776    2.5460   -1.8952 C   0  0  0  1  0  0  0  0  0  0  0  0
   -3.1090    2.9504   -3.1790 C   0  0  0  1  0  0  0  0  0  0  0  0
   -4.4093    2.8222   -3.6297 C   0  0  0  1  0  0  0  0  0  0  0  0
   -5.3808    2.2845   -2.7999 C   0  0  0  1  0  0  0  0  0  0  0  0
   -5.0502    1.8813   -1.5199 C   0  0  0  1  0  0  0  0  0  0  0  0
   -3.7461    2.0098   -1.0677 C   0  0  0  1  0  0  0  0  0  0  0  0
   -6.6475    2.1643   -3.2666 O   0  0  0  1  0  0  0  0  0  0  0  0
   -4.7098    3.2295   -4.8869 O   0  0  0  1  0  0  0  0  0  0  0  0
   -1.0152    3.6792   -1.7394 H   0  0  0  1  0  0  0  0  0  0  0  0
   -1.4891    2.8662   -0.2668 H   0  0  0  1  0  0  0  0  0  0  0  0
   -2.3794    3.3501   -3.8031 H   0  0  0  1  0  0  0  0  0  0  0  0
   -5.7798    1.4816   -0.8959 H   0  0  0  1  0  0  0  0  0  0  0  0
   -3.4966    1.7027   -0.1060 H   0  0  0  1  0  0  0  0  0  0  0  0
   -6.8770    2.9453   -3.7754 H   0  0  0  1  0  0  0  0  0  0  0  0
   -4.6711    4.1877   -4.9311 H   0  0  0  1  0  0  0  0  0  0  0  0
  1  4  1  0  0  0  0
  2  4  1  0  0  0  0
  2  5  2  0  0  0  0
  2  6  1  0  0  0  0
  3  4  1  0  0  0  0
  3  7  1  0  0  0  0
  3  8  1  0  0  0  0
  4 19  1  0  0  0  0
  6  9  1  0  0  0  0
  6 12  1  0  0  0  0
  8 10  1  0  0  0  0
  8 11  2  0  0  0  0
  9 13  1  0  0  0  0
  9 14  1  0  0  0  0
  9 15  1  0  0  0  0
 10 16  1  0  0  0  0
 10 17  1  0  0  0  0
 10 18  1  0  0  0  0
 19 20  1  0  0  0  0
 19 28  1  0  0  0  0
 19 29  1  0  0  0  0
 20 21  4  0  0  0  0
 20 25  4  0  0  0  0
 21 22  4  0  0  0  0
 21 30  1  0  0  0  0
 22 23  4  0  0  0  0
 22 27  1  0  0  0  0
 23 24  4  0  0  0  0
 23 26  1  0  0  0  0
 24 25  4  0  0  0  0
 24 31  1  0  0  0  0
 25 32  1  0  0  0  0
 26 33  1  0  0  0  0
 27 34  1  0  0  0  0
M  END
> <BCLConfClusterSize>
1

> <ConfClashScore>
0 

> <ConfOneFourInteractionScore>
-0.931937 

> <ConfScore>
0.151784 

> <ConfScorePBest>
0.00635284 

> <ConfTolerance>
0.356429 

> <RosettaParamsInstructions>
M  ROOT 3
M  POLY_N_BB 3
M  POLY_CA_BB 4
M  POLY_C_BB 2
M  POLY_O_BB 5
M  POLY_IGNORE 9 10 11 12 13 14 15 16 17 18 
M  POLY_UPPER 6
M  POLY_LOWER 8
M  POLY_CHG 0
M  POLY_PROPERTIES ALPHA_AA D_AA PROTEIN AROMATIC POLYMER 
M  END

$$$$



 34 34  0  0  0  0  0  0  0  0999 V2000
   -0.1178    3.6058   -0.1116 H   0  0  0  1  0  0  0  0  0  0  0  0
   -1.8076    3.0970    1.0253 C   0  0  0  1  0  0  0  0  0  0  0  0
   -1.6381    4.8820   -0.6730 N   0  0  0  1  0  0  0  0  0  0  0  0
   -1.1706    3.5363   -0.2897 C   0  0  0  1  0  0  0  0  0  0  0  0
   -1.2292    2.3397    1.7870 O   0  0  0  1  0  0  0  0  0  0  0  0
   -3.0224    3.5934    1.2761 N   0  0  0  1  0  0  0  0  0  0  0  0
   -2.1766    5.0002   -1.4832 H   0  0  0  1  0  0  0  0  0  0  0  0
   -1.3257    5.9504    0.0894 C   0  0  0  1  0  0  0  0  0  0  0  0
   -3.8186    3.1617    2.4152 C   0  0  0  1  0  0  0  0  0  0  0  0
   -1.7042    7.3266   -0.4224 C   0  0  0  1  0  0  0  0  0  0  0  0
   -0.7517    5.8149    1.1667 O   0  0  0  1  0  0  0  0  0  0  0  0
   -3.3900    4.2719    0.6720 H   0  0  0  1  0  0  0  0  0  0  0  0
   -3.1977    2.6259    3.1025 H   0  0  0  1  0  0  0  0  0  0  0  0
   -4.6084    2.5241    2.0768 H   0  0  0  1  0  0  0  0  0  0  0  0
   -4.2350    4.0177    2.9039 H   0  0  0  1  0  0  0  0  0  0  0  0
   -1.1798    7.5254   -1.3336 H   0  0  0  1  0  0  0  0  0  0  0  0
   -1.4417    8.0631    0.3080 H   0  0  0  1  0  0  0  0  0  0  0  0
   -2.7583    7.3623   -0.6027 H   0  0  0  1  0  0  0  0  0  0  0  0
   -1.3551    2.5607   -1.4405 C   0  0  0  1  0  0  0  0  0  0  0  0
   -2.7859    2.4920   -1.9373 C   0  0  0  1  0  0  0  0  0  0  0  0
   -3.1475    2.9882   -3.1802 C   0  0  0  1  0  0  0  0  0  0  0  0
   -4.4761    2.9965   -3.5609 C   0  0  0  1  0  0  0  0  0  0  0  0
   -5.4464    2.5038   -2.7023 C   0  0  0  1  0  0  0  0  0  0  0  0
   -5.0858    2.0092   -1.4632 C   0  0  0  1  0  0  0  0  0  0  0  0
   -3.7533    2.0007   -1.0811 C   0  0  0  1  0  0  0  0  0  0  0  0
   -6.7269    2.5390   -3.1450 O   0  0  0  1  0  0  0  0  0  0  0  0
   -4.8789    3.4757   -4.7629 O   0  0  0  1  0  0  0  0  0  0  0  0
   -1.0618    1.5859   -1.1110 H   0  0  0  1  0  0  0  0  0  0  0  0
   -0.7275    2.8676   -2.2510 H   0  0  0  1  0  0  0  0  0  0  0  0
   -2.4191    3.3541   -3.8261 H   0  0  0  1  0  0  0  0  0  0  0  0
   -5.8141    1.6432   -0.8174 H   0  0  0  1  0  0  0  0  0  0  0  0
   -3.4815    1.6248   -0.1503 H   0  0  0  1  0  0  0  0  0  0  0  0
   -6.8059    2.0065   -3.9398 H   0  0  0  1  0  0  0  0  0  0  0  0
   -4.2465    4.1262   -5.0768 H   0  0  0  1  0  0  0  0  0  0  0  0
  1  4  1  0  0  0  0
  2  4  1  0  0  0  0
  2  5  2  0  0  0  0
  2  6  1  0  0  0  0
  3  4  1  0  0  0  0
  3  7  1  0  0  0  0
  3  8  1  0  0  0  0
  4 19  1  0  0  0  0
  6  9  1  0  0  0  0
  6 12  1  0  0  0  0
  8 10  1  0  0  0  0
  8 11  2  0  0  0  0
  9 13  1  0  0  0  0
  9 14  1  0  0  0  0
  9 15  1  0  0  0  0
 10 16  1  0  0  0  0
 10 17  1  0  0  0  0
 10 18  1  0  0  0  0
 19 20  1  0  0  0  0
 19 28  1  0  0  0  0
 19 29  1  0  0  0  0
 20 21  4  0  0  0  0
 20 25  4  0  0  0  0
 21 22  4  0  0  0  0
 21 30  1  0  0  0  0
 22 23  4  0  0  0  0
 22 27  1  0  0  0  0
 23 24  4  0  0  0  0
 23 26  1  0  0  0  0
 24 25  4  0  0  0  0
 24 31  1  0  0  0  0
 25 32  1  0  0  0  0
 26 33  1  0  0  0  0
 27 34  1  0  0  0  0
M  END
> <BCLConfClusterSize>
1

> <ConfClashScore>
0 

> <ConfOneFourInteractionScore>
-0.931937 

> <ConfScore>
0.152179 

> <ConfScorePBest>
0.00632436 

> <ConfTolerance>
0.384549 

> <RosettaParamsInstructions>
M  ROOT 3
M  POLY_N_BB 3
M  POLY_CA_BB 4
M  POLY_C_BB 2
M  POLY_O_BB 5
M  POLY_IGNORE 9 10 11 12 13 14 15 16 17 18 
M  POLY_UPPER 6
M  POLY_LOWER 8
M  POLY_CHG 0
M  POLY_PROPERTIES ALPHA_AA D_AA PROTEIN AROMATIC POLYMER 
M  END

$$$$



 34 34  0  0  0  0  0  0  0  0999 V2000
    0.5915    1.9718   -1.8446 H   0  0  0  1  0  0  0  0  0  0  0  0
   -0.2987    2.3226   -3.7123 C   0  0  0  1  0  0  0  0  0  0  0  0
   -0.7084    0.4169   -2.2580 N   0  0  0  1  0  0  0  0  0  0  0  0
   -0.3788    1.8490   -2.2787 C   0  0  0  1  0  0  0  0  0  0  0  0
    0.4808    3.2138   -4.0387 O   0  0  0  1  0  0  0  0  0  0  0  0
   -1.1000    1.7432   -4.6109 N   0  0  0  1  0  0  0  0  0  0  0  0
   -1.4675    0.1140   -1.7173 H   0  0  0  1  0  0  0  0  0  0  0  0
   -0.0090   -0.4865   -2.9507 C   0  0  0  1  0  0  0  0  0  0  0  0
   -1.2373    2.2472   -5.9692 C   0  0  0  1  0  0  0  0  0  0  0  0
   -0.4680   -1.9247   -2.8091 C   0  0  0  1  0  0  0  0  0  0  0  0
    0.9487   -0.1894   -3.6628 O   0  0  0  1  0  0  0  0  0  0  0  0
   -1.6130    0.9514   -4.3460 H   0  0  0  1  0  0  0  0  0  0  0  0
   -1.9624    1.6622   -6.4955 H   0  0  0  1  0  0  0  0  0  0  0  0
   -0.2944    2.1817   -6.4707 H   0  0  0  1  0  0  0  0  0  0  0  0
   -1.5562    3.2681   -5.9400 H   0  0  0  1  0  0  0  0  0  0  0  0
   -0.3587   -2.2359   -1.7912 H   0  0  0  1  0  0  0  0  0  0  0  0
    0.1266   -2.5524   -3.4395 H   0  0  0  1  0  0  0  0  0  0  0  0
   -1.4959   -2.0007   -3.0966 H   0  0  0  1  0  0  0  0  0  0  0  0
   -1.3646    2.6300   -1.4173 C   0  0  0  1  0  0  0  0  0  0  0  0
   -2.7920    2.5429   -1.9208 C   0  0  0  1  0  0  0  0  0  0  0  0
   -3.1733    3.1142   -3.1248 C   0  0  0  1  0  0  0  0  0  0  0  0
   -4.5015    3.0992   -3.5068 C   0  0  0  1  0  0  0  0  0  0  0  0
   -5.4515    2.5082   -2.6885 C   0  0  0  1  0  0  0  0  0  0  0  0
   -5.0712    1.9386   -1.4880 C   0  0  0  1  0  0  0  0  0  0  0  0
   -3.7392    1.9535   -1.1048 C   0  0  0  1  0  0  0  0  0  0  0  0
   -6.7643    2.4643   -3.0223 O   0  0  0  1  0  0  0  0  0  0  0  0
   -4.8502    3.6690   -4.6860 O   0  0  0  1  0  0  0  0  0  0  0  0
   -1.0688    3.6583   -1.4083 H   0  0  0  1  0  0  0  0  0  0  0  0
   -1.3302    2.2398   -0.4215 H   0  0  0  1  0  0  0  0  0  0  0  0
   -2.4600    3.5541   -3.7407 H   0  0  0  1  0  0  0  0  0  0  0  0
   -5.7845    1.4987   -0.8722 H   0  0  0  1  0  0  0  0  0  0  0  0
   -3.4525    1.5213   -0.2033 H   0  0  0  1  0  0  0  0  0  0  0  0
   -6.8499    2.3304   -3.9691 H   0  0  0  1  0  0  0  0  0  0  0  0
   -4.1684    3.4963   -5.3393 H   0  0  0  1  0  0  0  0  0  0  0  0
  1  4  1  0  0  0  0
  2  4  1  0  0  0  0
  2  5  2  0  0  0  0
  2  6  1  0  0  0  0
  3  4  1  0  0  0  0
  3  7  1  0  0  0  0
  3  8  1  0  0  0  0
  4 19  1  0  0  0  0
  6  9  1  0  0  0  0
  6 12  1  0  0  0  0
  8 10  1  0  0  0  0
  8 11  2  0  0  0  0
  9 13  1  0  0  0  0
  9 14  1  0  0  0  0
  9 15  1  0  0  0  0
 10 16  1  0  0  0  0
 10 17  1  0  0  0  0
 10 18  1  0  0  0  0
 19 20  1  0  0  0  0
 19 28  1  0  0  0  0
 19 29  1  0  0  0  0
 20 21  4  0  0  0  0
 20 25  4  0  0  0  0
 21 22  4  0  0  0  0
 21 30  1  0  0  0  0
 22 23  4  0  0  0  0
 22 27  1  0  0  0  0
 23 24  4  0  0  0  0
 23 26  1  0  0  0  0
 24 25  4  0  0  0  0
 24 31  1  0  0  0  0
 25 32  1  0  0  0  0
 26 33  1  0  0  0  0
 27 34  1  0  0  0  0
M  END
> <BCLConfClusterSize>
1

> <ConfClashScore>
0 

> <ConfOneFourInteractionScore>
-0.950605 

> <ConfScore>
0.1533 

> <ConfScorePBest>
0.00629587 

> <ConfTolerance>
0.328179 

> <RosettaParamsInstructions>
M  ROOT 3
M  POLY_N_BB 3
M  POLY_CA_BB 4
M  POLY_C_BB 2
M  POLY_O_BB 5
M  POLY_IGNORE 9 10 11 12 13 14 15 16 17 18 
M  POLY_UPPER 6
M  POLY_LOWER 8
M  POLY_CHG 0
M  POLY_PROPERTIES ALPHA_AA D_AA PROTEIN AROMATIC POLYMER 
M  END

$$$$



 34 34  0  0  0  0  0  0  0  0999 V2000
    0.5372    1.6677   -1.6679 H   0  0  0  1  0  0  0  0  0  0  0  0
   -0.6593    1.0991   -3.3355 C   0  0  0  1  0  0  0  0  0  0  0  0
   -0.8678    0.2450   -1.0646 N   0  0  0  1  0  0  0  0  0  0  0  0
   -0.4889    1.4271   -1.8526 C   0  0  0  1  0  0  0  0  0  0  0  0
    0.0706    1.6092   -4.1814 O   0  0  0  1  0  0  0  0  0  0  0  0
   -1.6299    0.2374   -3.6845 N   0  0  0  1  0  0  0  0  0  0  0  0
   -1.3444    0.3739   -0.2181 H   0  0  0  1  0  0  0  0  0  0  0  0
   -0.5849   -0.9986   -1.4626 C   0  0  0  1  0  0  0  0  0  0  0  0
   -1.8893   -0.1208   -5.0697 C   0  0  0  1  0  0  0  0  0  0  0  0
   -0.9599   -2.1364   -0.5125 C   0  0  0  1  0  0  0  0  0  0  0  0
    0.0204   -1.2331   -2.4955 O   0  0  0  1  0  0  0  0  0  0  0  0
   -2.1819   -0.1634   -2.9810 H   0  0  0  1  0  0  0  0  0  0  0  0
   -1.6939    0.7221   -5.6992 H   0  0  0  1  0  0  0  0  0  0  0  0
   -2.9125   -0.4154   -5.1760 H   0  0  0  1  0  0  0  0  0  0  0  0
   -1.2525   -0.9326   -5.3532 H   0  0  0  1  0  0  0  0  0  0  0  0
   -0.5257   -1.9568    0.4488 H   0  0  0  1  0  0  0  0  0  0  0  0
   -0.5919   -3.0623   -0.9025 H   0  0  0  1  0  0  0  0  0  0  0  0
   -2.0247   -2.1862   -0.4190 H   0  0  0  1  0  0  0  0  0  0  0  0
   -1.3512    2.6143   -1.4445 C   0  0  0  1  0  0  0  0  0  0  0  0
   -2.7764    2.4972   -1.9146 C   0  0  0  1  0  0  0  0  0  0  0  0
   -3.1208    2.9648   -3.1734 C   0  0  0  1  0  0  0  0  0  0  0  0
   -4.4420    2.9479   -3.5790 C   0  0  0  1  0  0  0  0  0  0  0  0
   -5.4219    2.4586   -2.7293 C   0  0  0  1  0  0  0  0  0  0  0  0
   -5.0783    1.9925   -1.4744 C   0  0  0  1  0  0  0  0  0  0  0  0
   -3.7533    2.0093   -1.0674 C   0  0  0  1  0  0  0  0  0  0  0  0
   -6.7292    2.4170   -3.0841 O   0  0  0  1  0  0  0  0  0  0  0  0
   -4.8725    3.3881   -4.7863 O   0  0  0  1  0  0  0  0  0  0  0  0
   -0.9267    3.5032   -1.8623 H   0  0  0  1  0  0  0  0  0  0  0  0
   -1.3496    2.6854   -0.3768 H   0  0  0  1  0  0  0  0  0  0  0  0
   -2.3852    3.3282   -3.8124 H   0  0  0  1  0  0  0  0  0  0  0  0
   -5.8139    1.6291   -0.8354 H   0  0  0  1  0  0  0  0  0  0  0  0
   -3.4944    1.6548   -0.1246 H   0  0  0  1  0  0  0  0  0  0  0  0
   -6.8004    2.2423   -4.0254 H   0  0  0  1  0  0  0  0  0  0  0  0
   -4.3835    4.1765   -5.0330 H   0  0  0  1  0  0  0  0  0  0  0  0
  1  4  1  0  0  0  0
  2  4  1  0  0  0  0
  2  5  2  0  0  0  0
  2  6  1  0  0  0  0
  3  4  1  0  0  0  0
  3  7  1  0  0  0  0
  3  8  1  0  0  0  0
  4 19  1  0  0  0  0
  6  9  1  0  0  0  0
  6 12  1  0  0  0  0
  8 10  1  0  0  0  0
  8 11  2  0  0  0  0
  9 13  1  0  0  0  0
  9 14  1  0  0  0  0
  9 15  1  0  0  0  0
 10 16  1  0  0  0  0
 10 17  1  0  0  0  0
 10 18  1  0  0  0  0
 19 20  1  0  0  0  0
 19 28  1  0  0  0  0
 19 29  1  0  0  0  0
 20 21  4  0  0  0  0
 20 25  4  0  0  0  0
 21 22  4  0  0  0  0
 21 30  1  0  0  0  0
 22 23  4  0  0  0  0
 22 27  1  0  0  0  0
 23 24  4  0  0  0  0
 23 26  1  0  0  0  0
 24 25  4  0  0  0  0
 24 31  1  0  0  0  0
 25 32  1  0  0  0  0
 26 33  1  0  0  0  0
 27 34  1  0  0  0  0
M  END
> <BCLConfClusterSize>
1

> <ConfClashScore>
0 

> <ConfOneFourInteractionScore>
-0.942976 

> <ConfScore>
0.153309 

> <ConfScorePBest>
0.00626739 

> <ConfTolerance>
0.408398 

> <RosettaParamsInstructions>
M  ROOT 3
M  POLY_N_BB 3
M  POLY_CA_BB 4
M  POLY_C_BB 2
M  POLY_O_BB 5
M  POLY_IGNORE 9 10 11 12 13 14 15 16 17 18 
M  POLY_UPPER 6
M  POLY_LOWER 8
M  POLY_CHG 0
M  POLY_PROPERTIES ALPHA_AA D_AA PROTEIN AROMATIC POLYMER 
M  END

$$$$



 34 34  0  0  0  0  0  0  0  0999 V2000
   -1.5029    3.7820    0.3117 H   0  0  0  1  0  0  0  0  0  0  0  0
   -1.6058    5.0645   -1.3626 C   0  0  0  1  0  0  0  0  0  0  0  0
    0.4061    3.9616   -0.4695 N   0  0  0  1  0  0  0  0  0  0  0  0
   -1.0373    3.8534   -0.6490 C   0  0  0  1  0  0  0  0  0  0  0  0
   -2.8003    5.3417   -1.2948 O   0  0  0  1  0  0  0  0  0  0  0  0
   -0.7238    5.7974   -2.0606 N   0  0  0  1  0  0  0  0  0  0  0  0
    0.9755    3.3807   -1.0161 H   0  0  0  1  0  0  0  0  0  0  0  0
    1.0096    4.7919    0.3825 C   0  0  0  1  0  0  0  0  0  0  0  0
   -1.0928    7.0458   -2.7110 C   0  0  0  1  0  0  0  0  0  0  0  0
    2.5124    4.6320    0.5051 C   0  0  0  1  0  0  0  0  0  0  0  0
    0.4033    5.6379    1.0345 O   0  0  0  1  0  0  0  0  0  0  0  0
    0.2006    5.4806   -2.1347 H   0  0  0  1  0  0  0  0  0  0  0  0
   -2.1393    7.0370   -2.9335 H   0  0  0  1  0  0  0  0  0  0  0  0
   -0.5363    7.1528   -3.6187 H   0  0  0  1  0  0  0  0  0  0  0  0
   -0.8739    7.8656   -2.0591 H   0  0  0  1  0  0  0  0  0  0  0  0
    2.9787    4.9229   -0.4129 H   0  0  0  1  0  0  0  0  0  0  0  0
    2.7461    3.6091    0.7151 H   0  0  0  1  0  0  0  0  0  0  0  0
    2.8730    5.2511    1.2998 H   0  0  0  1  0  0  0  0  0  0  0  0
   -1.3621    2.5786   -1.4290 C   0  0  0  1  0  0  0  0  0  0  0  0
   -2.7878    2.5285   -1.9097 C   0  0  0  1  0  0  0  0  0  0  0  0
   -3.1319    3.1620   -3.0936 C   0  0  0  1  0  0  0  0  0  0  0  0
   -4.4533    3.2024   -3.4969 C   0  0  0  1  0  0  0  0  0  0  0  0
   -5.4337    2.6048   -2.7202 C   0  0  0  1  0  0  0  0  0  0  0  0
   -5.0904    1.9732   -1.5398 C   0  0  0  1  0  0  0  0  0  0  0  0
   -3.7652    1.9326   -1.1352 C   0  0  0  1  0  0  0  0  0  0  0  0
   -6.7061    2.6795   -3.1808 O   0  0  0  1  0  0  0  0  0  0  0  0
   -4.7157    3.8432   -4.6619 O   0  0  0  1  0  0  0  0  0  0  0  0
   -1.1874    1.7362   -0.7928 H   0  0  0  1  0  0  0  0  0  0  0  0
   -0.7142    2.5249   -2.2788 H   0  0  0  1  0  0  0  0  0  0  0  0
   -2.3959    3.6069   -3.6784 H   0  0  0  1  0  0  0  0  0  0  0  0
   -5.8264    1.5283   -0.9550 H   0  0  0  1  0  0  0  0  0  0  0  0
   -3.5065    1.4539   -0.2489 H   0  0  0  1  0  0  0  0  0  0  0  0
   -6.9273    1.8683   -3.6442 H   0  0  0  1  0  0  0  0  0  0  0  0
   -4.3208    3.3584   -5.3903 H   0  0  0  1  0  0  0  0  0  0  0  0
  1  4  1  0  0  0  0
  2  4  1  0  0  0  0
  2  5  2  0  0  0  0
  2  6  1  0  0  0  0
  3  4  1  0  0  0  0
  3  7  1  0  0  0  0
  3  8  1  0  0  0  0
  4 19  1  0  0  0  0
  6  9  1  0  0  0  0
  6 12  1  0  0  0  0
  8 10  1  0  0  0  0
  8 11  2  0  0  0  0
  9 13  1  0  0  0  0
  9 14  1  0  0  0  0
  9 15  1  0  0  0  0
 10 16  1  0  0  0  0
 10 17  1  0  0  0  0
 10 18  1  0  0  0  0
 19 20  1  0  0  0  0
 19 28  1  0  0  0  0
 19 29  1  0  0  0  0
 20 21  4  0  0  0  0
 20 25  4  0  0  0  0
 21 22  4  0  0  0  0
 21 30  1  0  0  0  0
 22 23  4  0  0  0  0
 22 27  1  0  0  0  0
 23 24  4  0  0  0  0
 23 26  1  0  0  0  0
 24 25  4  0  0  0  0
 24 31  1  0  0  0  0
 25 32  1  0  0  0  0
 26 33  1  0  0  0  0
 27 34  1  0  0  0  0
M  END
> <BCLConfClusterSize>
1

> <ConfClashScore>
0 

> <ConfOneFourInteractionScore>
-0.949394 

> <ConfScore>
0.154039 

> <ConfScorePBest>
0.00623891 

> <ConfTolerance>
0.290554 

> <RosettaParamsInstructions>
M  ROOT 3
M  POLY_N_BB 3
M  POLY_CA_BB 4
M  POLY_C_BB 2
M  POLY_O_BB 5
M  POLY_IGNORE 9 10 11 12 13 14 15 16 17 18 
M  POLY_UPPER 6
M  POLY_LOWER 8
M  POLY_CHG 0
M  POLY_PROPERTIES ALPHA_AA D_AA PROTEIN AROMATIC POLYMER 
M  END

$$$$



 34 34  0  0  0  0  0  0  0  0999 V2000
   -0.2735    1.2780   -2.2034 H   0  0  0  1  0  0  0  0  0  0  0  0
   -1.3123    0.3900   -0.5729 C   0  0  0  1  0  0  0  0  0  0  0  0
    0.6465    1.8168   -0.4124 N   0  0  0  1  0  0  0  0  0  0  0  0
   -0.5547    1.5521   -1.2080 C   0  0  0  1  0  0  0  0  0  0  0  0
   -2.2214   -0.1774   -1.1728 O   0  0  0  1  0  0  0  0  0  0  0  0
   -0.8730   -0.0228    0.6194 N   0  0  0  1  0  0  0  0  0  0  0  0
    0.7385    2.6862    0.0303 H   0  0  0  1  0  0  0  0  0  0  0  0
    1.6211    0.9141   -0.2694 C   0  0  0  1  0  0  0  0  0  0  0  0
   -1.3562   -1.2445    1.2455 C   0  0  0  1  0  0  0  0  0  0  0  0
    2.7893    1.2888    0.6430 C   0  0  0  1  0  0  0  0  0  0  0  0
    1.6395   -0.1404   -0.8988 O   0  0  0  1  0  0  0  0  0  0  0  0
   -0.2022    0.5158    1.0887 H   0  0  0  1  0  0  0  0  0  0  0  0
   -2.3305   -1.4774    0.8695 H   0  0  0  1  0  0  0  0  0  0  0  0
   -1.4068   -1.1060    2.3052 H   0  0  0  1  0  0  0  0  0  0  0  0
   -0.6864   -2.0485    1.0220 H   0  0  0  1  0  0  0  0  0  0  0  0
    2.4248    1.8508    1.4774 H   0  0  0  1  0  0  0  0  0  0  0  0
    3.4938    1.8796    0.0957 H   0  0  0  1  0  0  0  0  0  0  0  0
    3.2668    0.3981    0.9946 H   0  0  0  1  0  0  0  0  0  0  0  0
   -1.4155    2.8070   -1.2714 C   0  0  0  1  0  0  0  0  0  0  0  0
   -2.7746    2.5599   -1.8678 C   0  0  0  1  0  0  0  0  0  0  0  0
   -3.0394    2.9812   -3.1616 C   0  0  0  1  0  0  0  0  0  0  0  0
   -4.3106    2.8437   -3.6864 C   0  0  0  1  0  0  0  0  0  0  0  0
   -5.3193    2.2797   -2.9211 C   0  0  0  1  0  0  0  0  0  0  0  0
   -5.0551    1.8597   -1.6311 C   0  0  0  1  0  0  0  0  0  0  0  0
   -3.7803    1.9975   -1.1045 C   0  0  0  1  0  0  0  0  0  0  0  0
   -6.5794    2.1193   -3.3935 O   0  0  0  1  0  0  0  0  0  0  0  0
   -4.6192    3.2451   -4.9435 O   0  0  0  1  0  0  0  0  0  0  0  0
   -0.9096    3.5373   -1.8676 H   0  0  0  1  0  0  0  0  0  0  0  0
   -1.5429    3.1831   -0.2778 H   0  0  0  1  0  0  0  0  0  0  0  0
   -2.2816    3.4007   -3.7373 H   0  0  0  1  0  0  0  0  0  0  0  0
   -5.8129    1.4402   -1.0554 H   0  0  0  1  0  0  0  0  0  0  0  0
   -3.5806    1.6777   -0.1353 H   0  0  0  1  0  0  0  0  0  0  0  0
   -7.0886    2.9154   -3.2248 H   0  0  0  1  0  0  0  0  0  0  0  0
   -4.7660    4.1938   -4.9500 H   0  0  0  1  0  0  0  0  0  0  0  0
  1  4  1  0  0  0  0
  2  4  1  0  0  0  0
  2  5  2  0  0  0  0
  2  6  1  0  0  0  0
  3  4  1  0  0  0  0
  3  7  1  0  0  0  0
  3  8  1  0  0  0  0
  4 19  1  0  0  0  0
  6  9  1  0  0  0  0
  6 12  1  0  0  0  0
  8 10  1  0  0  0  0
  8 11  2  0  0  0  0
  9 13  1  0  0  0  0
  9 14  1  0  0  0  0
  9 15  1  0  0  0  0
 10 16  1  0  0  0  0
 10 17  1  0  0  0  0
 10 18  1  0  0  0  0
 19 20  1  0  0  0  0
 19 28  1  0  0  0  0
 19 29  1  0  0  0  0
 20 21  4  0  0  0  0
 20 25  4  0  0  0  0
 21 22  4  0  0  0  0
 21 30  1  0  0  0  0
 22 23  4  0  0  0  0
 22 27  1  0  0  0  0
 23 24  4  0  0  0  0
 23 26  1  0  0  0  0
 24 25  4  0  0  0  0
 24 31  1  0  0  0  0
 25 32  1  0  0  0  0
 26 33  1  0  0  0  0
 27 34  1  0  0  0  0
M  END
> <BCLConfClusterSize>
1

> <ConfClashScore>
0 

> <ConfOneFourInteractionScore>
-0.956443 

> <ConfScore>
0.154194 

> <ConfScorePBest>
0.00621043 

> <ConfTolerance>
0.303285 

> <RosettaParamsInstructions>
M  ROOT 3
M  POLY_N_BB 3
M  POLY_CA_BB 4
M  POLY_C_BB 2
M  POLY_O_BB 5
M  POLY_IGNORE 9 10 11 12 13 14 15 16 17 18 
M  POLY_UPPER 6
M  POLY_LOWER 8
M  POLY_CHG 0
M  POLY_PROPERTIES ALPHA_AA D_AA PROTEIN AROMATIC POLYMER 
M  END

$$$$



 34 34  0  0  0  0  0  0  0  0999 V2000
   -0.3411    1.8648   -2.7577 H   0  0  0  1  0  0  0  0  0  0  0  0
   -0.7111    0.4272   -1.2379 C   0  0  0  1  0  0  0  0  0  0  0  0
    0.9759    2.1856   -1.1883 N   0  0  0  1  0  0  0  0  0  0  0  0
   -0.3464    1.8397   -1.6880 C   0  0  0  1  0  0  0  0  0  0  0  0
   -1.5224    0.2363   -0.3470 O   0  0  0  1  0  0  0  0  0  0  0  0
   -0.0851   -0.5701   -1.8825 N   0  0  0  1  0  0  0  0  0  0  0  0
    1.0500    2.8273   -0.4512 H   0  0  0  1  0  0  0  0  0  0  0  0
    2.0906    1.6598   -1.6985 C   0  0  0  1  0  0  0  0  0  0  0  0
   -0.3224   -1.9705   -1.5652 C   0  0  0  1  0  0  0  0  0  0  0  0
    3.3780    2.0271   -0.9866 C   0  0  0  1  0  0  0  0  0  0  0  0
    2.0934    0.9277   -2.6751 O   0  0  0  1  0  0  0  0  0  0  0  0
    0.5540   -0.3475   -2.5913 H   0  0  0  1  0  0  0  0  0  0  0  0
   -0.2431   -2.5571   -2.4565 H   0  0  0  1  0  0  0  0  0  0  0  0
   -1.3031   -2.0810   -1.1518 H   0  0  0  1  0  0  0  0  0  0  0  0
    0.4046   -2.3029   -0.8539 H   0  0  0  1  0  0  0  0  0  0  0  0
    3.3150    3.0346   -0.6318 H   0  0  0  1  0  0  0  0  0  0  0  0
    4.1990    1.9396   -1.6672 H   0  0  0  1  0  0  0  0  0  0  0  0
    3.5285    1.3663   -0.1586 H   0  0  0  1  0  0  0  0  0  0  0  0
   -1.4077    2.8219   -1.1850 C   0  0  0  1  0  0  0  0  0  0  0  0
   -2.7671    2.6000   -1.8144 C   0  0  0  1  0  0  0  0  0  0  0  0
   -3.0467    3.1606   -3.0510 C   0  0  0  1  0  0  0  0  0  0  0  0
   -4.3131    3.0435   -3.5921 C   0  0  0  1  0  0  0  0  0  0  0  0
   -5.3020    2.3610   -2.9009 C   0  0  0  1  0  0  0  0  0  0  0  0
   -5.0230    1.8022   -1.6680 C   0  0  0  1  0  0  0  0  0  0  0  0
   -3.7529    1.9195   -1.1251 C   0  0  0  1  0  0  0  0  0  0  0  0
   -6.5174    2.2820   -3.4953 O   0  0  0  1  0  0  0  0  0  0  0  0
   -4.4677    3.6358   -4.8012 O   0  0  0  1  0  0  0  0  0  0  0  0
   -1.0857    3.8168   -1.4118 H   0  0  0  1  0  0  0  0  0  0  0  0
   -1.5007    2.7094   -0.1250 H   0  0  0  1  0  0  0  0  0  0  0  0
   -2.3038    3.6693   -3.5715 H   0  0  0  1  0  0  0  0  0  0  0  0
   -5.7660    1.2935   -1.1476 H   0  0  0  1  0  0  0  0  0  0  0  0
   -3.5420    1.4955   -0.1992 H   0  0  0  1  0  0  0  0  0  0  0  0
   -7.0467    3.0427   -3.2447 H   0  0  0  1  0  0  0  0  0  0  0  0
   -5.1670    3.1933   -5.2878 H   0  0  0  1  0  0  0  0  0  0  0  0
  1  4  1  0  0  0  0
  2  4  1  0  0  0  0
  2  5  2  0  0  0  0
  2  6  1  0  0  0  0
  3  4  1  0  0  0  0
  3  7  1  0  0  0  0
  3  8  1  0  0  0  0
  4 19  1  0  0  0  0
  6  9  1  0  0  0  0
  6 12  1  0  0  0  0
  8 10  1  0  0  0  0
  8 11  2  0  0  0  0
  9 13  1  0  0  0  0
  9 14  1  0  0  0  0
  9 15  1  0  0  0  0
 10 16  1  0  0  0  0
 10 17  1  0  0  0  0
 10 18  1  0  0  0  0
 19 20  1  0  0  0  0
 19 28  1  0  0  0  0
 19 29  1  0  0  0  0
 20 21  4  0  0  0  0
 20 25  4  0  0  0  0
 21 22  4  0  0  0  0
 21 30  1  0  0  0  0
 22 23  4  0  0  0  0
 22 27  1  0  0  0  0
 23 24  4  0  0  0  0
 23 26  1  0  0  0  0
 24 25  4  0  0  0  0
 24 31  1  0  0  0  0
 25 32  1  0  0  0  0
 26 33  1  0  0  0  0
 27 34  1  0  0  0  0
M  END
> <BCLConfClusterSize>
1

> <ConfClashScore>
0 

> <ConfOneFourInteractionScore>
-0.979134 

> <ConfScore>
0.156178 

> <ConfScorePBest>
0.00618195 

> <ConfTolerance>
0.437488 

> <RosettaParamsInstructions>
M  ROOT 3
M  POLY_N_BB 3
M  POLY_CA_BB 4
M  POLY_C_BB 2
M  POLY_O_BB 5
M  POLY_IGNORE 9 10 11 12 13 14 15 16 17 18 
M  POLY_UPPER 6
M  POLY_LOWER 8
M  POLY_CHG 0
M  POLY_PROPERTIES ALPHA_AA D_AA PROTEIN AROMATIC POLYMER 
M  END

$$$$



 34 34  0  0  0  0  0  0  0  0999 V2000
   -1.1102    0.4998   -1.0806 H   0  0  0  1  0  0  0  0  0  0  0  0
    0.7997    1.4007   -1.1107 C   0  0  0  1  0  0  0  0  0  0  0  0
   -0.6248    0.8944   -3.0505 N   0  0  0  1  0  0  0  0  0  0  0  0
   -0.6143    1.2626   -1.6438 C   0  0  0  1  0  0  0  0  0  0  0  0
    1.0174    1.9610   -0.0372 O   0  0  0  1  0  0  0  0  0  0  0  0
    1.7983    0.8964   -1.8410 N   0  0  0  1  0  0  0  0  0  0  0  0
   -1.2073    0.1705   -3.3621 H   0  0  0  1  0  0  0  0  0  0  0  0
    0.1613    1.5436   -3.9227 C   0  0  0  1  0  0  0  0  0  0  0  0
    3.1965    1.1434   -1.5218 C   0  0  0  1  0  0  0  0  0  0  0  0
    0.1660    0.9984   -5.3376 C   0  0  0  1  0  0  0  0  0  0  0  0
    0.8408    2.5187   -3.6132 O   0  0  0  1  0  0  0  0  0  0  0  0
    1.5818    0.3408   -2.6187 H   0  0  0  1  0  0  0  0  0  0  0  0
    3.2792    2.0471   -0.9548 H   0  0  0  1  0  0  0  0  0  0  0  0
    3.7576    1.2385   -2.4279 H   0  0  0  1  0  0  0  0  0  0  0  0
    3.5808    0.3262   -0.9478 H   0  0  0  1  0  0  0  0  0  0  0  0
   -0.1669   -0.0185   -5.3297 H   0  0  0  1  0  0  0  0  0  0  0  0
    1.1586    1.0454   -5.7344 H   0  0  0  1  0  0  0  0  0  0  0  0
   -0.4904    1.5836   -5.9472 H   0  0  0  1  0  0  0  0  0  0  0  0
   -1.3797    2.5653   -1.4520 C   0  0  0  1  0  0  0  0  0  0  0  0
   -2.7995    2.4935   -1.9468 C   0  0  0  1  0  0  0  0  0  0  0  0
   -3.1159    3.0142   -3.1920 C   0  0  0  1  0  0  0  0  0  0  0  0
   -4.4308    3.0380   -3.6171 C   0  0  0  1  0  0  0  0  0  0  0  0
   -5.4325    2.5365   -2.8007 C   0  0  0  1  0  0  0  0  0  0  0  0
   -5.1169    2.0175   -1.5593 C   0  0  0  1  0  0  0  0  0  0  0  0
   -3.7982    1.9934   -1.1327 C   0  0  0  1  0  0  0  0  0  0  0  0
   -6.7135    2.5663   -3.2421 O   0  0  0  1  0  0  0  0  0  0  0  0
   -4.7155    3.5569   -4.8363 O   0  0  0  1  0  0  0  0  0  0  0  0
   -0.8716    3.3407   -1.9864 H   0  0  0  1  0  0  0  0  0  0  0  0
   -1.3943    2.8013   -0.4084 H   0  0  0  1  0  0  0  0  0  0  0  0
   -2.3639    3.3868   -3.8062 H   0  0  0  1  0  0  0  0  0  0  0  0
   -5.8689    1.6449   -0.9451 H   0  0  0  1  0  0  0  0  0  0  0  0
   -3.5604    1.5991   -0.2002 H   0  0  0  1  0  0  0  0  0  0  0  0
   -7.0531    1.6703   -3.3010 H   0  0  0  1  0  0  0  0  0  0  0  0
   -4.0743    4.2380   -5.0524 H   0  0  0  1  0  0  0  0  0  0  0  0
  1  4  1  0  0  0  0
  2  4  1  0  0  0  0
  2  5  2  0  0  0  0
  2  6  1  0  0  0  0
  3  4  1  0  0  0  0
  3  7  1  0  0  0  0
  3  8  1  0  0  0  0
  4 19  1  0  0  0  0
  6  9  1  0  0  0  0
  6 12  1  0  0  0  0
  8 10  1  0  0  0  0
  8 11  2  0  0  0  0
  9 13  1  0  0  0  0
  9 14  1  0  0  0  0
  9 15  1  0  0  0  0
 10 16  1  0  0  0  0
 10 17  1  0  0  0  0
 10 18  1  0  0  0  0
 19 20  1  0  0  0  0
 19 28  1  0  0  0  0
 19 29  1  0  0  0  0
 20 21  4  0  0  0  0
 20 25  4  0  0  0  0
 21 22  4  0  0  0  0
 21 30  1  0  0  0  0
 22 23  4  0  0  0  0
 22 27  1  0  0  0  0
 23 24  4  0  0  0  0
 23 26  1  0  0  0  0
 24 25  4  0  0  0  0
 24 31  1  0  0  0  0
 25 32  1  0  0  0  0
 26 33  1  0  0  0  0
 27 34  1  0  0  0  0
M  END
> <BCLConfClusterSize>
1

> <ConfClashScore>
0.000112248 

> <ConfOneFourInteractionScore>
-0.957723 

> <ConfScore>
0.156376 

> <ConfScorePBest>
0.00615347 

> <ConfTolerance>
0.280054 

> <RosettaParamsInstructions>
M  ROOT 3
M  POLY_N_BB 3
M  POLY_CA_BB 4
M  POLY_C_BB 2
M  POLY_O_BB 5
M  POLY_IGNORE 9 10 11 12 13 14 15 16 17 18 
M  POLY_UPPER 6
M  POLY_LOWER 8
M  POLY_CHG 0
M  POLY_PROPERTIES ALPHA_AA D_AA PROTEIN AROMATIC POLYMER 
M  END

$$$$



 34 34  0  0  0  0  0  0  0  0999 V2000
   -2.0282    4.2684    0.2084 H   0  0  0  1  0  0  0  0  0  0  0  0
   -1.4428    5.2751   -1.5357 C   0  0  0  1  0  0  0  0  0  0  0  0
    0.0337    4.2496    0.1516 N   0  0  0  1  0  0  0  0  0  0  0  0
   -1.2583    4.1659   -0.5276 C   0  0  0  1  0  0  0  0  0  0  0  0
   -2.5450    5.7791   -1.7342 O   0  0  0  1  0  0  0  0  0  0  0  0
   -0.3342    5.6621   -2.1863 N   0  0  0  1  0  0  0  0  0  0  0  0
    0.6616    3.5019    0.0674 H   0  0  0  1  0  0  0  0  0  0  0  0
    0.3881    5.3101    0.8829 C   0  0  0  1  0  0  0  0  0  0  0  0
   -0.3641    6.6527   -3.2521 C   0  0  0  1  0  0  0  0  0  0  0  0
    1.7552    5.2381    1.5247 C   0  0  0  1  0  0  0  0  0  0  0  0
   -0.3368    6.2896    1.0355 O   0  0  0  1  0  0  0  0  0  0  0  0
    0.5252    5.2637   -1.9349 H   0  0  0  1  0  0  0  0  0  0  0  0
   -0.9380    6.2767   -4.0731 H   0  0  0  1  0  0  0  0  0  0  0  0
    0.6346    6.8553   -3.5784 H   0  0  0  1  0  0  0  0  0  0  0  0
   -0.8108    7.5543   -2.8882 H   0  0  0  1  0  0  0  0  0  0  0  0
    2.4896    5.0210    0.7774 H   0  0  0  1  0  0  0  0  0  0  0  0
    1.7611    4.4657    2.2651 H   0  0  0  1  0  0  0  0  0  0  0  0
    1.9824    6.1766    1.9857 H   0  0  0  1  0  0  0  0  0  0  0  0
   -1.4287    2.7882   -1.1745 C   0  0  0  1  0  0  0  0  0  0  0  0
   -2.7744    2.6037   -1.8232 C   0  0  0  1  0  0  0  0  0  0  0  0
   -3.0356    3.2148   -3.0398 C   0  0  0  1  0  0  0  0  0  0  0  0
   -4.2966    3.1296   -3.5991 C   0  0  0  1  0  0  0  0  0  0  0  0
   -5.2987    2.4287   -2.9463 C   0  0  0  1  0  0  0  0  0  0  0  0
   -5.0381    1.8195   -1.7334 C   0  0  0  1  0  0  0  0  0  0  0  0
   -3.7735    1.9048   -1.1722 C   0  0  0  1  0  0  0  0  0  0  0  0
   -6.5485    2.3131   -3.4573 O   0  0  0  1  0  0  0  0  0  0  0  0
   -4.5287    3.7399   -4.7867 O   0  0  0  1  0  0  0  0  0  0  0  0
   -1.3094    2.0400   -0.4188 H   0  0  0  1  0  0  0  0  0  0  0  0
   -0.6714    2.6662   -1.9205 H   0  0  0  1  0  0  0  0  0  0  0  0
   -2.2827    3.7373   -3.5315 H   0  0  0  1  0  0  0  0  0  0  0  0
   -5.7910    1.2970   -1.2417 H   0  0  0  1  0  0  0  0  0  0  0  0
   -3.5764    1.4430   -0.2615 H   0  0  0  1  0  0  0  0  0  0  0  0
   -7.1663    2.7989   -2.9061 H   0  0  0  1  0  0  0  0  0  0  0  0
   -4.8839    3.1024   -5.4105 H   0  0  0  1  0  0  0  0  0  0  0  0
  1  4  1  0  0  0  0
  2  4  1  0  0  0  0
  2  5  2  0  0  0  0
  2  6  1  0  0  0  0
  3  4  1  0  0  0  0
  3  7  1  0  0  0  0
  3  8  1  0  0  0  0
  4 19  1  0  0  0  0
  6  9  1  0  0  0  0
  6 12  1  0  0  0  0
  8 10  1  0  0  0  0
  8 11  2  0  0  0  0
  9 13  1  0  0  0  0
  9 14  1  0  0  0  0
  9 15  1  0  0  0  0
 10 16  1  0  0  0  0
 10 17  1  0  0  0  0
 10 18  1  0  0  0  0
 19 20  1  0  0  0  0
 19 28  1  0  0  0  0
 19 29  1  0  0  0  0
 20 21  4  0  0  0  0
 20 25  4  0  0  0  0
 21 22  4  0  0  0  0
 21 30  1  0  0  0  0
 22 23  4  0  0  0  0
 22 27  1  0  0  0  0
 23 24  4  0  0  0  0
 23 26  1  0  0  0  0
 24 25  4  0  0  0  0
 24 31  1  0  0  0  0
 25 32  1  0  0  0  0
 26 33  1  0  0  0  0
 27 34  1  0  0  0  0
M  END
> <BCLConfClusterSize>
1

> <ConfClashScore>
0 

> <ConfOneFourInteractionScore>
-0.960318 

> <ConfScore>
0.156562 

> <ConfScorePBest>
0.00612499 

> <ConfTolerance>
0.374839 

> <RosettaParamsInstructions>
M  ROOT 3
M  POLY_N_BB 3
M  POLY_CA_BB 4
M  POLY_C_BB 2
M  POLY_O_BB 5
M  POLY_IGNORE 9 10 11 12 13 14 15 16 17 18 
M  POLY_UPPER 6
M  POLY_LOWER 8
M  POLY_CHG 0
M  POLY_PROPERTIES ALPHA_AA D_AA PROTEIN AROMATIC POLYMER 
M  END

$$$$



 34 34  0  0  0  0  0  0  0  0999 V2000
   -1.7862    4.8376   -0.7453 H   0  0  0  1  0  0  0  0  0  0  0  0
    0.0395    4.2305    0.1522 C   0  0  0  1  0  0  0  0  0  0  0  0
   -2.2068    3.6176    0.8888 N   0  0  0  1  0  0  0  0  0  0  0  0
   -1.3920    3.9635   -0.2705 C   0  0  0  1  0  0  0  0  0  0  0  0
    0.8268    4.8082   -0.5927 O   0  0  0  1  0  0  0  0  0  0  0  0
    0.3747    3.7991    1.3714 N   0  0  0  1  0  0  0  0  0  0  0  0
   -2.7117    2.7784    0.8536 H   0  0  0  1  0  0  0  0  0  0  0  0
   -2.3165    4.3575    1.9933 C   0  0  0  1  0  0  0  0  0  0  0  0
    1.6370    4.0828    2.0377 C   0  0  0  1  0  0  0  0  0  0  0  0
   -3.2537    3.8188    3.0566 C   0  0  0  1  0  0  0  0  0  0  0  0
   -1.7055    5.4104    2.1563 O   0  0  0  1  0  0  0  0  0  0  0  0
   -0.2787    3.2503    1.8534 H   0  0  0  1  0  0  0  0  0  0  0  0
    2.1011    4.9301    1.5778 H   0  0  0  1  0  0  0  0  0  0  0  0
    2.2828    3.2337    1.9542 H   0  0  0  1  0  0  0  0  0  0  0  0
    1.4553    4.2931    3.0710 H   0  0  0  1  0  0  0  0  0  0  0  0
   -2.9617    4.1961    4.0144 H   0  0  0  1  0  0  0  0  0  0  0  0
   -3.2063    2.7499    3.0651 H   0  0  0  1  0  0  0  0  0  0  0  0
   -4.2543    4.1303    2.8408 H   0  0  0  1  0  0  0  0  0  0  0  0
   -1.4070    2.8090   -1.2639 C   0  0  0  1  0  0  0  0  0  0  0  0
   -2.7676    2.5596   -1.8575 C   0  0  0  1  0  0  0  0  0  0  0  0
   -3.0358    2.9797   -3.1511 C   0  0  0  1  0  0  0  0  0  0  0  0
   -4.3079    2.8401   -3.6731 C   0  0  0  1  0  0  0  0  0  0  0  0
   -5.3142    2.2752   -2.9052 C   0  0  0  1  0  0  0  0  0  0  0  0
   -5.0467    1.8564   -1.6156 C   0  0  0  1  0  0  0  0  0  0  0  0
   -3.7710    1.9963   -1.0918 C   0  0  0  1  0  0  0  0  0  0  0  0
   -6.5520    2.1443   -3.4414 O   0  0  0  1  0  0  0  0  0  0  0  0
   -4.5465    3.2632   -4.9383 O   0  0  0  1  0  0  0  0  0  0  0  0
   -1.0877    1.9213   -0.7591 H   0  0  0  1  0  0  0  0  0  0  0  0
   -0.7252    3.0336   -2.0573 H   0  0  0  1  0  0  0  0  0  0  0  0
   -2.2798    3.3998   -3.7286 H   0  0  0  1  0  0  0  0  0  0  0  0
   -5.8027    1.4362   -1.0380 H   0  0  0  1  0  0  0  0  0  0  0  0
   -3.5688    1.6774   -0.1227 H   0  0  0  1  0  0  0  0  0  0  0  0
   -7.0326    2.9695   -3.3432 H   0  0  0  1  0  0  0  0  0  0  0  0
   -4.9903    4.1141   -4.9133 H   0  0  0  1  0  0  0  0  0  0  0  0
  1  4  1  0  0  0  0
  2  4  1  0  0  0  0
  2  5  2  0  0  0  0
  2  6  1  0  0  0  0
  3  4  1  0  0  0  0
  3  7  1  0  0  0  0
  3  8  1  0  0  0  0
  4 19  1  0  0  0  0
  6  9  1  0  0  0  0
  6 12  1  0  0  0  0
  8 10  1  0  0  0  0
  8 11  2  0  0  0  0
  9 13  1  0  0  0  0
  9 14  1  0  0  0  0
  9 15  1  0  0  0  0
 10 16  1  0  0  0  0
 10 17  1  0  0  0  0
 10 18  1  0  0  0  0
 19 20  1  0  0  0  0
 19 28  1  0  0  0  0
 19 29  1  0  0  0  0
 20 21  4  0  0  0  0
 20 25  4  0  0  0  0
 21 22  4  0  0  0  0
 21 30  1  0  0  0  0
 22 23  4  0  0  0  0
 22 27  1  0  0  0  0
 23 24  4  0  0  0  0
 23 26  1  0  0  0  0
 24 25  4  0  0  0  0
 24 31  1  0  0  0  0
 25 32  1  0  0  0  0
 26 33  1  0  0  0  0
 27 34  1  0  0  0  0
M  END
> <BCLConfClusterSize>
1

> <ConfClashScore>
0 

> <ConfOneFourInteractionScore>
-0.956443 

> <ConfScore>
0.160706 

> <ConfScorePBest>
0.00609651 

> <ConfTolerance>
0.288933 

> <RosettaParamsInstructions>
M  ROOT 3
M  POLY_N_BB 3
M  POLY_CA_BB 4
M  POLY_C_BB 2
M  POLY_O_BB 5
M  POLY_IGNORE 9 10 11 12 13 14 15 16 17 18 
M  POLY_UPPER 6
M  POLY_LOWER 8
M  POLY_CHG 0
M  POLY_PROPERTIES ALPHA_AA D_AA PROTEIN AROMATIC POLYMER 
M  END

$$$$



 34 34  0  0  0  0  0  0  0  0999 V2000
   -1.6433    3.6105    0.4279 H   0  0  0  1  0  0  0  0  0  0  0  0
   -1.6486    5.0424   -1.1283 C   0  0  0  1  0  0  0  0  0  0  0  0
    0.3160    3.8946   -0.1781 N   0  0  0  1  0  0  0  0  0  0  0  0
   -1.1058    3.7773   -0.4821 C   0  0  0  1  0  0  0  0  0  0  0  0
   -1.8995    5.0872   -2.3297 O   0  0  0  1  0  0  0  0  0  0  0  0
   -1.8299    6.0859   -0.3047 N   0  0  0  1  0  0  0  0  0  0  0  0
    0.9542    3.3478   -0.6822 H   0  0  0  1  0  0  0  0  0  0  0  0
    0.7778    4.7202    0.7624 C   0  0  0  1  0  0  0  0  0  0  0  0
   -2.0893    7.4301   -0.7984 C   0  0  0  1  0  0  0  0  0  0  0  0
    2.2814    4.6747    1.0248 C   0  0  0  1  0  0  0  0  0  0  0  0
    0.0574    5.5360    1.3361 O   0  0  0  1  0  0  0  0  0  0  0  0
   -1.7860    5.9378    0.6631 H   0  0  0  1  0  0  0  0  0  0  0  0
   -2.0724    7.4270   -1.8683 H   0  0  0  1  0  0  0  0  0  0  0  0
   -1.3362    8.0960   -0.4319 H   0  0  0  1  0  0  0  0  0  0  0  0
   -3.0502    7.7555   -0.4581 H   0  0  0  1  0  0  0  0  0  0  0  0
    2.8087    4.7775    0.0995 H   0  0  0  1  0  0  0  0  0  0  0  0
    2.5359    3.7395    1.4782 H   0  0  0  1  0  0  0  0  0  0  0  0
    2.5531    5.4753    1.6807 H   0  0  0  1  0  0  0  0  0  0  0  0
   -1.3350    2.5793   -1.3943 C   0  0  0  1  0  0  0  0  0  0  0  0
   -2.7525    2.4791   -1.8910 C   0  0  0  1  0  0  0  0  0  0  0  0
   -3.0629    2.9280   -3.1653 C   0  0  0  1  0  0  0  0  0  0  0  0
   -4.3758    2.9273   -3.5972 C   0  0  0  1  0  0  0  0  0  0  0  0
   -5.3814    2.4728   -2.7584 C   0  0  0  1  0  0  0  0  0  0  0  0
   -5.0717    2.0253   -1.4880 C   0  0  0  1  0  0  0  0  0  0  0  0
   -3.7551    2.0259   -1.0545 C   0  0  0  1  0  0  0  0  0  0  0  0
   -6.6603    2.4771   -3.2068 O   0  0  0  1  0  0  0  0  0  0  0  0
   -4.6047    3.3850   -4.8521 O   0  0  0  1  0  0  0  0  0  0  0  0
   -1.1007    1.6878   -0.8510 H   0  0  0  1  0  0  0  0  0  0  0  0
   -0.6835    2.6646   -2.2388 H   0  0  0  1  0  0  0  0  0  0  0  0
   -2.3080    3.2652   -3.7961 H   0  0  0  1  0  0  0  0  0  0  0  0
   -5.8266    1.6880   -0.8571 H   0  0  0  1  0  0  0  0  0  0  0  0
   -3.5216    1.6853   -0.1000 H   0  0  0  1  0  0  0  0  0  0  0  0
   -6.6824    2.1671   -4.1151 H   0  0  0  1  0  0  0  0  0  0  0  0
   -5.0848    4.2152   -4.8079 H   0  0  0  1  0  0  0  0  0  0  0  0
  1  4  1  0  0  0  0
  2  4  1  0  0  0  0
  2  5  2  0  0  0  0
  2  6  1  0  0  0  0
  3  4  1  0  0  0  0
  3  7  1  0  0  0  0
  3  8  1  0  0  0  0
  4 19  1  0  0  0  0
  6  9  1  0  0  0  0
  6 12  1  0  0  0  0
  8 10  1  0  0  0  0
  8 11  2  0  0  0  0
  9 13  1  0  0  0  0
  9 14  1  0  0  0  0
  9 15  1  0  0  0  0
 10 16  1  0  0  0  0
 10 17  1  0  0  0  0
 10 18  1  0  0  0  0
 19 20  1  0  0  0  0
 19 28  1  0  0  0  0
 19 29  1  0  0  0  0
 20 21  4  0  0  0  0
 20 25  4  0  0  0  0
 21 22  4  0  0  0  0
 21 30  1  0  0  0  0
 22 23  4  0  0  0  0
 22 27  1  0  0  0  0
 23 24  4  0  0  0  0
 23 26  1  0  0  0  0
 24 25  4  0  0  0  0
 24 31  1  0  0  0  0
 25 32  1  0  0  0  0
 26 33  1  0  0  0  0
 27 34  1  0  0  0  0
M  END
> <BCLConfClusterSize>
1

> <ConfClashScore>
0 

> <ConfOneFourInteractionScore>
-0.979134 

> <ConfScore>
0.161314 

> <ConfScorePBest>
0.00606803 

> <ConfTolerance>
0.463478 

> <RosettaParamsInstructions>
M  ROOT 3
M  POLY_N_BB 3
M  POLY_CA_BB 4
M  POLY_C_BB 2
M  POLY_O_BB 5
M  POLY_IGNORE 9 10 11 12 13 14 15 16 17 18 
M  POLY_UPPER 6
M  POLY_LOWER 8
M  POLY_CHG 0
M  POLY_PROPERTIES ALPHA_AA D_AA PROTEIN AROMATIC POLYMER 
M  END

$$$$



 34 34  0  0  0  0  0  0  0  0999 V2000
   -0.3847    4.1332    0.0099 H   0  0  0  1  0  0  0  0  0  0  0  0
   -2.4148    4.0448    0.6342 C   0  0  0  1  0  0  0  0  0  0  0  0
   -1.5930    5.3055   -1.2279 N   0  0  0  1  0  0  0  0  0  0  0  0
   -1.3518    4.0901   -0.4461 C   0  0  0  1  0  0  0  0  0  0  0  0
   -3.5311    4.5290    0.4521 O   0  0  0  1  0  0  0  0  0  0  0  0
   -2.0551    3.4491    1.7814 N   0  0  0  1  0  0  0  0  0  0  0  0
   -1.6785    5.2324   -2.2014 H   0  0  0  1  0  0  0  0  0  0  0  0
   -1.7005    6.5099   -0.6597 C   0  0  0  1  0  0  0  0  0  0  0  0
   -3.0103    3.1622    2.8411 C   0  0  0  1  0  0  0  0  0  0  0  0
   -2.1097    7.6331   -1.5782 C   0  0  0  1  0  0  0  0  0  0  0  0
   -1.4838    6.7086    0.5328 O   0  0  0  1  0  0  0  0  0  0  0  0
   -1.1165    3.1985    1.9101 H   0  0  0  1  0  0  0  0  0  0  0  0
   -3.9626    2.9320    2.4110 H   0  0  0  1  0  0  0  0  0  0  0  0
   -3.1041    4.0172    3.4776 H   0  0  0  1  0  0  0  0  0  0  0  0
   -2.6666    2.3264    3.4141 H   0  0  0  1  0  0  0  0  0  0  0  0
   -2.6860    7.2394   -2.3892 H   0  0  0  1  0  0  0  0  0  0  0  0
   -1.2354    8.1151   -1.9633 H   0  0  0  1  0  0  0  0  0  0  0  0
   -2.6980    8.3421   -1.0340 H   0  0  0  1  0  0  0  0  0  0  0  0
   -1.4408    2.8374   -1.3078 C   0  0  0  1  0  0  0  0  0  0  0  0
   -2.8150    2.6111   -1.8791 C   0  0  0  1  0  0  0  0  0  0  0  0
   -3.1531    3.1873   -3.0936 C   0  0  0  1  0  0  0  0  0  0  0  0
   -4.4400    3.0641   -3.5824 C   0  0  0  1  0  0  0  0  0  0  0  0
   -5.3912    2.3597   -2.8608 C   0  0  0  1  0  0  0  0  0  0  0  0
   -5.0539    1.7853   -1.6499 C   0  0  0  1  0  0  0  0  0  0  0  0
   -3.7633    1.9088   -1.1595 C   0  0  0  1  0  0  0  0  0  0  0  0
   -6.6298    2.2760   -3.4043 O   0  0  0  1  0  0  0  0  0  0  0  0
   -4.6992    3.6576   -4.7729 O   0  0  0  1  0  0  0  0  0  0  0  0
   -1.1780    1.9916   -0.7074 H   0  0  0  1  0  0  0  0  0  0  0  0
   -0.7468    2.9306   -2.1169 H   0  0  0  1  0  0  0  0  0  0  0  0
   -2.4384    3.7124   -3.6370 H   0  0  0  1  0  0  0  0  0  0  0  0
   -5.7686    1.2602   -1.1065 H   0  0  0  1  0  0  0  0  0  0  0  0
   -3.5085    1.4730   -0.2501 H   0  0  0  1  0  0  0  0  0  0  0  0
   -7.2239    2.8710   -2.9411 H   0  0  0  1  0  0  0  0  0  0  0  0
   -4.0974    3.3168   -5.4387 H   0  0  0  1  0  0  0  0  0  0  0  0
  1  4  1  0  0  0  0
  2  4  1  0  0  0  0
  2  5  2  0  0  0  0
  2  6  1  0  0  0  0
  3  4  1  0  0  0  0
  3  7  1  0  0  0  0
  3  8  1  0  0  0  0
  4 19  1  0  0  0  0
  6  9  1  0  0  0  0
  6 12  1  0  0  0  0
  8 10  1  0  0  0  0
  8 11  2  0  0  0  0
  9 13  1  0  0  0  0
  9 14  1  0  0  0  0
  9 15  1  0  0  0  0
 10 16  1  0  0  0  0
 10 17  1  0  0  0  0
 10 18  1  0  0  0  0
 19 20  1  0  0  0  0
 19 28  1  0  0  0  0
 19 29  1  0  0  0  0
 20 21  4  0  0  0  0
 20 25  4  0  0  0  0
 21 22  4  0  0  0  0
 21 30  1  0  0  0  0
 22 23  4  0  0  0  0
 22 27  1  0  0  0  0
 23 24  4  0  0  0  0
 23 26  1  0  0  0  0
 24 25  4  0  0  0  0
 24 31  1  0  0  0  0
 25 32  1  0  0  0  0
 26 33  1  0  0  0  0
 27 34  1  0  0  0  0
M  END
> <BCLConfClusterSize>
1

> <ConfClashScore>
0 

> <ConfOneFourInteractionScore>
-0.982563 

> <ConfScore>
0.161372 

> <ConfScorePBest>
0.00603955 

> <ConfTolerance>
0.365809 

> <RosettaParamsInstructions>
M  ROOT 3
M  POLY_N_BB 3
M  POLY_CA_BB 4
M  POLY_C_BB 2
M  POLY_O_BB 5
M  POLY_IGNORE 9 10 11 12 13 14 15 16 17 18 
M  POLY_UPPER 6
M  POLY_LOWER 8
M  POLY_CHG 0
M  POLY_PROPERTIES ALPHA_AA D_AA PROTEIN AROMATIC POLYMER 
M  END

$$$$



 34 34  0  0  0  0  0  0  0  0999 V2000
   -1.4318    4.7905   -1.0696 H   0  0  0  1  0  0  0  0  0  0  0  0
    0.4087    4.1491   -0.2919 C   0  0  0  1  0  0  0  0  0  0  0  0
   -1.7719    3.8571    0.7445 N   0  0  0  1  0  0  0  0  0  0  0  0
   -1.0667    3.9338   -0.5427 C   0  0  0  1  0  0  0  0  0  0  0  0
    1.2441    3.8470   -1.1431 O   0  0  0  1  0  0  0  0  0  0  0  0
    0.7782    4.6787    0.8850 N   0  0  0  1  0  0  0  0  0  0  0  0
   -2.5843    4.3903    0.8712 H   0  0  0  1  0  0  0  0  0  0  0  0
   -1.3421    3.0825    1.7522 C   0  0  0  1  0  0  0  0  0  0  0  0
    2.1737    4.7971    1.2803 C   0  0  0  1  0  0  0  0  0  0  0  0
   -2.2139    3.0716    2.9928 C   0  0  0  1  0  0  0  0  0  0  0  0
   -0.3111    2.4179    1.6920 O   0  0  0  1  0  0  0  0  0  0  0  0
    0.0840    4.9966    1.4993 H   0  0  0  1  0  0  0  0  0  0  0  0
    2.7466    4.0300    0.8026 H   0  0  0  1  0  0  0  0  0  0  0  0
    2.2535    4.6926    2.3422 H   0  0  0  1  0  0  0  0  0  0  0  0
    2.5472    5.7559    0.9868 H   0  0  0  1  0  0  0  0  0  0  0  0
   -3.1074    2.5165    2.7965 H   0  0  0  1  0  0  0  0  0  0  0  0
   -2.4695    4.0763    3.2577 H   0  0  0  1  0  0  0  0  0  0  0  0
   -1.6802    2.6143    3.7995 H   0  0  0  1  0  0  0  0  0  0  0  0
   -1.3805    2.7192   -1.3842 C   0  0  0  1  0  0  0  0  0  0  0  0
   -2.7968    2.5745   -1.9057 C   0  0  0  1  0  0  0  0  0  0  0  0
   -3.1873    3.1358   -3.1115 C   0  0  0  1  0  0  0  0  0  0  0  0
   -4.5090    3.0667   -3.5099 C   0  0  0  1  0  0  0  0  0  0  0  0
   -5.4429    2.4315   -2.7064 C   0  0  0  1  0  0  0  0  0  0  0  0
   -5.0534    1.8719   -1.5042 C   0  0  0  1  0  0  0  0  0  0  0  0
   -3.7279    1.9411   -1.1044 C   0  0  0  1  0  0  0  0  0  0  0  0
   -6.7485    2.3339   -3.0566 O   0  0  0  1  0  0  0  0  0  0  0  0
   -4.8184    3.6419   -4.6974 O   0  0  0  1  0  0  0  0  0  0  0  0
   -1.1680    1.8548   -0.7905 H   0  0  0  1  0  0  0  0  0  0  0  0
   -0.7277    2.7396   -2.2318 H   0  0  0  1  0  0  0  0  0  0  0  0
   -2.4859    3.6089   -3.7164 H   0  0  0  1  0  0  0  0  0  0  0  0
   -5.7548    1.3988   -0.8994 H   0  0  0  1  0  0  0  0  0  0  0  0
   -3.4341    1.5164   -0.2017 H   0  0  0  1  0  0  0  0  0  0  0  0
   -6.8808    2.7397   -3.9165 H   0  0  0  1  0  0  0  0  0  0  0  0
   -4.2029    3.3403   -5.3696 H   0  0  0  1  0  0  0  0  0  0  0  0
  1  4  1  0  0  0  0
  2  4  1  0  0  0  0
  2  5  2  0  0  0  0
  2  6  1  0  0  0  0
  3  4  1  0  0  0  0
  3  7  1  0  0  0  0
  3  8  1  0  0  0  0
  4 19  1  0  0  0  0
  6  9  1  0  0  0  0
  6 12  1  0  0  0  0
  8 10  1  0  0  0  0
  8 11  2  0  0  0  0
  9 13  1  0  0  0  0
  9 14  1  0  0  0  0
  9 15  1  0  0  0  0
 10 16  1  0  0  0  0
 10 17  1  0  0  0  0
 10 18  1  0  0  0  0
 19 20  1  0  0  0  0
 19 28  1  0  0  0  0
 19 29  1  0  0  0  0
 20 21  4  0  0  0  0
 20 25  4  0  0  0  0
 21 22  4  0  0  0  0
 21 30  1  0  0  0  0
 22 23  4  0  0  0  0
 22 27  1  0  0  0  0
 23 24  4  0  0  0  0
 23 26  1  0  0  0  0
 24 25  4  0  0  0  0
 24 31  1  0  0  0  0
 25 32  1  0  0  0  0
 26 33  1  0  0  0  0
 27 34  1  0  0  0  0
M  END
> <BCLConfClusterSize>
1

> <ConfClashScore>
0 

> <ConfOneFourInteractionScore>
-0.957723 

> <ConfScore>
0.16189 

> <ConfScorePBest>
0.00601107 

> <ConfTolerance>
0.225377 

> <RosettaParamsInstructions>
M  ROOT 3
M  POLY_N_BB 3
M  POLY_CA_BB 4
M  POLY_C_BB 2
M  POLY_O_BB 5
M  POLY_IGNORE 9 10 11 12 13 14 15 16 17 18 
M  POLY_UPPER 6
M  POLY_LOWER 8
M  POLY_CHG 0
M  POLY_PROPERTIES ALPHA_AA D_AA PROTEIN AROMATIC POLYMER 
M  END

$$$$



 34 34  0  0  0  0  0  0  0  0999 V2000
   -0.8853    0.6592   -1.1051 H   0  0  0  1  0  0  0  0  0  0  0  0
    0.9564    1.6628   -1.1593 C   0  0  0  1  0  0  0  0  0  0  0  0
   -0.4918    1.1224   -3.0705 N   0  0  0  1  0  0  0  0  0  0  0  0
   -0.4748    1.4839   -1.6494 C   0  0  0  1  0  0  0  0  0  0  0  0
    1.2619    1.4354    0.0003 O   0  0  0  1  0  0  0  0  0  0  0  0
    1.8395    2.0808   -2.0789 N   0  0  0  1  0  0  0  0  0  0  0  0
   -0.7796    1.8080   -3.7089 H   0  0  0  1  0  0  0  0  0  0  0  0
   -0.1315   -0.1162   -3.5788 C   0  0  0  1  0  0  0  0  0  0  0  0
    3.1996    2.4999   -1.7749 C   0  0  0  1  0  0  0  0  0  0  0  0
   -0.4226   -0.4281   -5.0293 C   0  0  0  1  0  0  0  0  0  0  0  0
    0.4100   -0.9151   -2.8365 O   0  0  0  1  0  0  0  0  0  0  0  0
    1.5502    2.1055   -3.0149 H   0  0  0  1  0  0  0  0  0  0  0  0
    3.6680    1.7676   -1.1511 H   0  0  0  1  0  0  0  0  0  0  0  0
    3.1772    3.4405   -1.2653 H   0  0  0  1  0  0  0  0  0  0  0  0
    3.7535    2.5998   -2.6849 H   0  0  0  1  0  0  0  0  0  0  0  0
    0.1491    0.2236   -5.6565 H   0  0  0  1  0  0  0  0  0  0  0  0
   -1.4652   -0.2845   -5.2225 H   0  0  0  1  0  0  0  0  0  0  0  0
   -0.1577   -1.4441   -5.2355 H   0  0  0  1  0  0  0  0  0  0  0  0
   -1.3519    2.6991   -1.3303 C   0  0  0  1  0  0  0  0  0  0  0  0
   -2.7590    2.5628   -1.8476 C   0  0  0  1  0  0  0  0  0  0  0  0
   -3.1044    3.1566   -3.0516 C   0  0  0  1  0  0  0  0  0  0  0  0
   -4.4145    3.1176   -3.4904 C   0  0  0  1  0  0  0  0  0  0  0  0
   -5.3819    2.4802   -2.7292 C   0  0  0  1  0  0  0  0  0  0  0  0
   -5.0373    1.8883   -1.5288 C   0  0  0  1  0  0  0  0  0  0  0  0
   -3.7234    1.9273   -1.0885 C   0  0  0  1  0  0  0  0  0  0  0  0
   -6.6584    2.4509   -3.1834 O   0  0  0  1  0  0  0  0  0  0  0  0
   -4.7284    3.7098   -4.6683 O   0  0  0  1  0  0  0  0  0  0  0  0
   -0.9082    3.5655   -1.7746 H   0  0  0  1  0  0  0  0  0  0  0  0
   -1.3899    2.8222   -0.2681 H   0  0  0  1  0  0  0  0  0  0  0  0
   -2.3779    3.6313   -3.6247 H   0  0  0  1  0  0  0  0  0  0  0  0
   -5.7638    1.4135   -0.9557 H   0  0  0  1  0  0  0  0  0  0  0  0
   -3.4635    1.4783   -0.1871 H   0  0  0  1  0  0  0  0  0  0  0  0
   -6.6834    2.7664   -4.0897 H   0  0  0  1  0  0  0  0  0  0  0  0
   -4.9754    3.0386   -5.3086 H   0  0  0  1  0  0  0  0  0  0  0  0
  1  4  1  0  0  0  0
  2  4  1  0  0  0  0
  2  5  2  0  0  0  0
  2  6  1  0  0  0  0
  3  4  1  0  0  0  0
  3  7  1  0  0  0  0
  3  8  1  0  0  0  0
  4 19  1  0  0  0  0
  6  9  1  0  0  0  0
  6 12  1  0  0  0  0
  8 10  1  0  0  0  0
  8 11  2  0  0  0  0
  9 13  1  0  0  0  0
  9 14  1  0  0  0  0
  9 15  1  0  0  0  0
 10 16  1  0  0  0  0
 10 17  1  0  0  0  0
 10 18  1  0  0  0  0
 19 20  1  0  0  0  0
 19 28  1  0  0  0  0
 19 29  1  0  0  0  0
 20 21  4  0  0  0  0
 20 25  4  0  0  0  0
 21 22  4  0  0  0  0
 21 30  1  0  0  0  0
 22 23  4  0  0  0  0
 22 27  1  0  0  0  0
 23 24  4  0  0  0  0
 23 26  1  0  0  0  0
 24 25  4  0  0  0  0
 24 31  1  0  0  0  0
 25 32  1  0  0  0  0
 26 33  1  0  0  0  0
 27 34  1  0  0  0  0
M  END
> <BCLConfClusterSize>
1

> <ConfClashScore>
0 

> <ConfOneFourInteractionScore>
-0.94165 

> <ConfScore>
0.163845 

> <ConfScorePBest>
0.00598259 

> <ConfTolerance>
0.340126 

> <RosettaParamsInstructions>
M  ROOT 3
M  POLY_N_BB 3
M  POLY_CA_BB 4
M  POLY_C_BB 2
M  POLY_O_BB 5
M  POLY_IGNORE 9 10 11 12 13 14 15 16 17 18 
M  POLY_UPPER 6
M  POLY_LOWER 8
M  POLY_CHG 0
M  POLY_PROPERTIES ALPHA_AA D_AA PROTEIN AROMATIC POLYMER 
M  END

$$$$



 34 34  0  0  0  0  0  0  0  0999 V2000
   -1.9215    4.7343   -0.6613 H   0  0  0  1  0  0  0  0  0  0  0  0
   -0.2106    4.2802    0.4481 C   0  0  0  1  0  0  0  0  0  0  0  0
   -2.5163    3.4457    0.8190 N   0  0  0  1  0  0  0  0  0  0  0  0
   -1.5292    3.8700   -0.1674 C   0  0  0  1  0  0  0  0  0  0  0  0
    0.7757    4.4922   -0.2561 O   0  0  0  1  0  0  0  0  0  0  0  0
   -0.1493    4.4057    1.7826 N   0  0  0  1  0  0  0  0  0  0  0  0
   -2.5916    2.4857    1.0007 H   0  0  0  1  0  0  0  0  0  0  0  0
   -3.3511    4.2934    1.5150 C   0  0  0  1  0  0  0  0  0  0  0  0
    1.0705    4.8007    2.4711 C   0  0  0  1  0  0  0  0  0  0  0  0
   -4.0781    3.6878    2.6800 C   0  0  0  1  0  0  0  0  0  0  0  0
   -3.4639    5.4587    1.1718 O   0  0  0  1  0  0  0  0  0  0  0  0
   -0.9540    4.2251    2.3120 H   0  0  0  1  0  0  0  0  0  0  0  0
    1.9185    4.4144    1.9452 H   0  0  0  1  0  0  0  0  0  0  0  0
    1.0602    4.4096    3.4670 H   0  0  0  1  0  0  0  0  0  0  0  0
    1.1295    5.8684    2.5072 H   0  0  0  1  0  0  0  0  0  0  0  0
   -4.6255    2.8289    2.3521 H   0  0  0  1  0  0  0  0  0  0  0  0
   -4.7559    4.4071    3.0901 H   0  0  0  1  0  0  0  0  0  0  0  0
   -3.3714    3.3958    3.4284 H   0  0  0  1  0  0  0  0  0  0  0  0
   -1.4015    2.7835   -1.2354 C   0  0  0  1  0  0  0  0  0  0  0  0
   -2.7650    2.5537   -1.8573 C   0  0  0  1  0  0  0  0  0  0  0  0
   -3.0085    2.9915   -3.1498 C   0  0  0  1  0  0  0  0  0  0  0  0
   -4.2738    2.8715   -3.6930 C   0  0  0  1  0  0  0  0  0  0  0  0
   -5.2978    2.3085   -2.9474 C   0  0  0  1  0  0  0  0  0  0  0  0
   -5.0548    1.8721   -1.6588 C   0  0  0  1  0  0  0  0  0  0  0  0
   -3.7859    1.9924   -1.1137 C   0  0  0  1  0  0  0  0  0  0  0  0
   -6.5099    2.2186   -3.5469 O   0  0  0  1  0  0  0  0  0  0  0  0
   -4.5617    3.2894   -4.9497 O   0  0  0  1  0  0  0  0  0  0  0  0
   -1.0525    1.8768   -0.7870 H   0  0  0  1  0  0  0  0  0  0  0  0
   -0.7102    3.0984   -1.9889 H   0  0  0  1  0  0  0  0  0  0  0  0
   -2.2393    3.4102   -3.7107 H   0  0  0  1  0  0  0  0  0  0  0  0
   -5.8240    1.4534   -1.0979 H   0  0  0  1  0  0  0  0  0  0  0  0
   -3.6022    1.6603   -0.1455 H   0  0  0  1  0  0  0  0  0  0  0  0
   -7.1468    2.7499   -3.0634 H   0  0  0  1  0  0  0  0  0  0  0  0
   -4.9519    4.1658   -4.9144 H   0  0  0  1  0  0  0  0  0  0  0  0
  1  4  1  0  0  0  0
  2  4  1  0  0  0  0
  2  5  2  0  0  0  0
  2  6  1  0  0  0  0
  3  4  1  0  0  0  0
  3  7  1  0  0  0  0
  3  8  1  0  0  0  0
  4 19  1  0  0  0  0
  6  9  1  0  0  0  0
  6 12  1  0  0  0  0
  8 10  1  0  0  0  0
  8 11  2  0  0  0  0
  9 13  1  0  0  0  0
  9 14  1  0  0  0  0
  9 15  1  0  0  0  0
 10 16  1  0  0  0  0
 10 17  1  0  0  0  0
 10 18  1  0  0  0  0
 19 20  1  0  0  0  0
 19 28  1  0  0  0  0
 19 29  1  0  0  0  0
 20 21  4  0  0  0  0
 20 25  4  0  0  0  0
 21 22  4  0  0  0  0
 21 30  1  0  0  0  0
 22 23  4  0  0  0  0
 22 27  1  0  0  0  0
 23 24  4  0  0  0  0
 23 26  1  0  0  0  0
 24 25  4  0  0  0  0
 24 31  1  0  0  0  0
 25 32  1  0  0  0  0
 26 33  1  0  0  0  0
 27 34  1  0  0  0  0
M  END
> <BCLConfClusterSize>
1

> <ConfClashScore>
0 

> <ConfOneFourInteractionScore>
-0.956443 

> <ConfScore>
0.166376 

> <ConfScorePBest>
0.00595411 

> <ConfTolerance>
0.463108 

> <RosettaParamsInstructions>
M  ROOT 3
M  POLY_N_BB 3
M  POLY_CA_BB 4
M  POLY_C_BB 2
M  POLY_O_BB 5
M  POLY_IGNORE 9 10 11 12 13 14 15 16 17 18 
M  POLY_UPPER 6
M  POLY_LOWER 8
M  POLY_CHG 0
M  POLY_PROPERTIES ALPHA_AA D_AA PROTEIN AROMATIC POLYMER 
M  END

$$$$



 34 34  0  0  0  0  0  0  0  0999 V2000
   -1.4794    0.6280   -0.2700 H   0  0  0  1  0  0  0  0  0  0  0  0
    0.5492    1.1761   -0.2498 C   0  0  0  1  0  0  0  0  0  0  0  0
   -0.7461    0.3337   -2.1692 N   0  0  0  1  0  0  0  0  0  0  0  0
   -0.7990    1.1098   -0.9407 C   0  0  0  1  0  0  0  0  0  0  0  0
    0.6605    1.6728    0.8702 O   0  0  0  1  0  0  0  0  0  0  0  0
    1.6143    0.6778   -0.8960 N   0  0  0  1  0  0  0  0  0  0  0  0
   -0.6549    0.7895   -3.0320 H   0  0  0  1  0  0  0  0  0  0  0  0
   -0.8216   -0.9994   -2.1243 C   0  0  0  1  0  0  0  0  0  0  0  0
    2.9252    0.4772   -0.3060 C   0  0  0  1  0  0  0  0  0  0  0  0
   -0.9121   -1.6996   -3.4662 C   0  0  0  1  0  0  0  0  0  0  0  0
   -0.8192   -1.6354   -1.0712 O   0  0  0  1  0  0  0  0  0  0  0  0
    1.4984    0.4306   -1.8372 H   0  0  0  1  0  0  0  0  0  0  0  0
    2.9738   -0.4971    0.1336 H   0  0  0  1  0  0  0  0  0  0  0  0
    3.0937    1.2174    0.4482 H   0  0  0  1  0  0  0  0  0  0  0  0
    3.6746    0.5636   -1.0649 H   0  0  0  1  0  0  0  0  0  0  0  0
   -0.0345   -2.2922   -3.6197 H   0  0  0  1  0  0  0  0  0  0  0  0
   -0.9899   -0.9696   -4.2446 H   0  0  0  1  0  0  0  0  0  0  0  0
   -1.7757   -2.3312   -3.4812 H   0  0  0  1  0  0  0  0  0  0  0  0
   -1.3529    2.5098   -1.2216 C   0  0  0  1  0  0  0  0  0  0  0  0
   -2.7247    2.4872   -1.8669 C   0  0  0  1  0  0  0  0  0  0  0  0
   -2.9424    3.0190   -3.1284 C   0  0  0  1  0  0  0  0  0  0  0  0
   -4.2231    3.0684   -3.6457 C   0  0  0  1  0  0  0  0  0  0  0  0
   -5.2891    2.5812   -2.9055 C   0  0  0  1  0  0  0  0  0  0  0  0
   -5.0718    2.0511   -1.6478 C   0  0  0  1  0  0  0  0  0  0  0  0
   -3.7875    2.0015   -1.1287 C   0  0  0  1  0  0  0  0  0  0  0  0
   -6.5347    2.6360   -3.4368 O   0  0  0  1  0  0  0  0  0  0  0  0
   -4.5320    3.5739   -4.8647 O   0  0  0  1  0  0  0  0  0  0  0  0
   -0.6768    3.0185   -1.8765 H   0  0  0  1  0  0  0  0  0  0  0  0
   -1.4209    3.0413   -0.2954 H   0  0  0  1  0  0  0  0  0  0  0  0
   -2.1422    3.3808   -3.6855 H   0  0  0  1  0  0  0  0  0  0  0  0
   -5.8721    1.6892   -1.0908 H   0  0  0  1  0  0  0  0  0  0  0  0
   -3.6236    1.5988   -0.1839 H   0  0  0  1  0  0  0  0  0  0  0  0
   -6.9200    1.7567   -3.4414 H   0  0  0  1  0  0  0  0  0  0  0  0
   -5.4072    3.9672   -4.8361 H   0  0  0  1  0  0  0  0  0  0  0  0
  1  4  1  0  0  0  0
  2  4  1  0  0  0  0
  2  5  2  0  0  0  0
  2  6  1  0  0  0  0
  3  4  1  0  0  0  0
  3  7  1  0  0  0  0
  3  8  1  0  0  0  0
  4 19  1  0  0  0  0
  6  9  1  0  0  0  0
  6 12  1  0  0  0  0
  8 10  1  0  0  0  0
  8 11  2  0  0  0  0
  9 13  1  0  0  0  0
  9 14  1  0  0  0  0
  9 15  1  0  0  0  0
 10 16  1  0  0  0  0
 10 17  1  0  0  0  0
 10 18  1  0  0  0  0
 19 20  1  0  0  0  0
 19 28  1  0  0  0  0
 19 29  1  0  0  0  0
 20 21  4  0  0  0  0
 20 25  4  0  0  0  0
 21 22  4  0  0  0  0
 21 30  1  0  0  0  0
 22 23  4  0  0  0  0
 22 27  1  0  0  0  0
 23 24  4  0  0  0  0
 23 26  1  0  0  0  0
 24 25  4  0  0  0  0
 24 31  1  0  0  0  0
 25 32  1  0  0  0  0
 26 33  1  0  0  0  0
 27 34  1  0  0  0  0
M  END
> <BCLConfClusterSize>
1

> <ConfClashScore>
0 

> <ConfOneFourInteractionScore>
-0.960318 

> <ConfScore>
0.170042 

> <ConfScorePBest>
0.00592562 

> <ConfTolerance>
0.353597 

> <RosettaParamsInstructions>
M  ROOT 3
M  POLY_N_BB 3
M  POLY_CA_BB 4
M  POLY_C_BB 2
M  POLY_O_BB 5
M  POLY_IGNORE 9 10 11 12 13 14 15 16 17 18 
M  POLY_UPPER 6
M  POLY_LOWER 8
M  POLY_CHG 0
M  POLY_PROPERTIES ALPHA_AA D_AA PROTEIN AROMATIC POLYMER 
M  END

$$$$



 34 34  0  0  0  0  0  0  0  0999 V2000
    0.3963    1.3479   -1.1543 H   0  0  0  1  0  0  0  0  0  0  0  0
   -0.0783    1.4039   -3.2003 C   0  0  0  1  0  0  0  0  0  0  0  0
   -1.2027    0.0865   -1.4463 N   0  0  0  1  0  0  0  0  0  0  0  0
   -0.4956    1.3230   -1.7448 C   0  0  0  1  0  0  0  0  0  0  0  0
    0.1320    2.4909   -3.7369 O   0  0  0  1  0  0  0  0  0  0  0  0
    0.0542    0.2560   -3.8836 N   0  0  0  1  0  0  0  0  0  0  0  0
   -0.9469   -0.4241   -0.6499 H   0  0  0  1  0  0  0  0  0  0  0  0
   -2.2141   -0.3890   -2.2406 C   0  0  0  1  0  0  0  0  0  0  0  0
    0.5971    0.2679   -5.2338 C   0  0  0  1  0  0  0  0  0  0  0  0
   -2.7370   -1.7676   -1.8867 C   0  0  0  1  0  0  0  0  0  0  0  0
   -2.6796    0.2467   -3.1827 O   0  0  0  1  0  0  0  0  0  0  0  0
   -0.2153   -0.5917   -3.4724 H   0  0  0  1  0  0  0  0  0  0  0  0
   -0.0722    0.7922   -5.8833 H   0  0  0  1  0  0  0  0  0  0  0  0
    0.7145   -0.7379   -5.5795 H   0  0  0  1  0  0  0  0  0  0  0  0
    1.5483    0.7580   -5.2311 H   0  0  0  1  0  0  0  0  0  0  0  0
   -1.9703   -2.4946   -2.0558 H   0  0  0  1  0  0  0  0  0  0  0  0
   -3.5849   -1.9950   -2.4984 H   0  0  0  1  0  0  0  0  0  0  0  0
   -3.0246   -1.7860   -0.8563 H   0  0  0  1  0  0  0  0  0  0  0  0
   -1.3407    2.5240   -1.3408 C   0  0  0  1  0  0  0  0  0  0  0  0
   -2.7501    2.4699   -1.8921 C   0  0  0  1  0  0  0  0  0  0  0  0
   -3.0053    2.9594   -3.1637 C   0  0  0  1  0  0  0  0  0  0  0  0
   -4.3019    3.0010   -3.6406 C   0  0  0  1  0  0  0  0  0  0  0  0
   -5.3464    2.5484   -2.8497 C   0  0  0  1  0  0  0  0  0  0  0  0
   -5.0918    2.0605   -1.5819 C   0  0  0  1  0  0  0  0  0  0  0  0
   -3.7915    2.0187   -1.1033 C   0  0  0  1  0  0  0  0  0  0  0  0
   -6.6083    2.5946   -3.3418 O   0  0  0  1  0  0  0  0  0  0  0  0
   -4.5264    3.4887   -4.8850 O   0  0  0  1  0  0  0  0  0  0  0  0
   -0.8667    3.4117   -1.7043 H   0  0  0  1  0  0  0  0  0  0  0  0
   -1.3939    2.5592   -0.2727 H   0  0  0  1  0  0  0  0  0  0  0  0
   -2.2212    3.2952   -3.7587 H   0  0  0  1  0  0  0  0  0  0  0  0
   -5.8759    1.7247   -0.9869 H   0  0  0  1  0  0  0  0  0  0  0  0
   -3.5996    1.6478   -0.1508 H   0  0  0  1  0  0  0  0  0  0  0  0
   -6.8989    1.7067   -3.5624 H   0  0  0  1  0  0  0  0  0  0  0  0
   -5.0651    4.2812   -4.8262 H   0  0  0  1  0  0  0  0  0  0  0  0
  1  4  1  0  0  0  0
  2  4  1  0  0  0  0
  2  5  2  0  0  0  0
  2  6  1  0  0  0  0
  3  4  1  0  0  0  0
  3  7  1  0  0  0  0
  3  8  1  0  0  0  0
  4 19  1  0  0  0  0
  6  9  1  0  0  0  0
  6 12  1  0  0  0  0
  8 10  1  0  0  0  0
  8 11  2  0  0  0  0
  9 13  1  0  0  0  0
  9 14  1  0  0  0  0
  9 15  1  0  0  0  0
 10 16  1  0  0  0  0
 10 17  1  0  0  0  0
 10 18  1  0  0  0  0
 19 20  1  0  0  0  0
 19 28  1  0  0  0  0
 19 29  1  0  0  0  0
 20 21  4  0  0  0  0
 20 25  4  0  0  0  0
 21 22  4  0  0  0  0
 21 30  1  0  0  0  0
 22 23  4  0  0  0  0
 22 27  1  0  0  0  0
 23 24  4  0  0  0  0
 23 26  1  0  0  0  0
 24 25  4  0  0  0  0
 24 31  1  0  0  0  0
 25 32  1  0  0  0  0
 26 33  1  0  0  0  0
 27 34  1  0  0  0  0
M  END
> <BCLConfClusterSize>
1

> <ConfClashScore>
0 

> <ConfOneFourInteractionScore>
-0.947651 

> <ConfScore>
0.170354 

> <ConfScorePBest>
0.00589714 

> <ConfTolerance>
0.215899 

> <RosettaParamsInstructions>
M  ROOT 3
M  POLY_N_BB 3
M  POLY_CA_BB 4
M  POLY_C_BB 2
M  POLY_O_BB 5
M  POLY_IGNORE 9 10 11 12 13 14 15 16 17 18 
M  POLY_UPPER 6
M  POLY_LOWER 8
M  POLY_CHG 0
M  POLY_PROPERTIES ALPHA_AA D_AA PROTEIN AROMATIC POLYMER 
M  END

$$$$



 34 34  0  0  0  0  0  0  0  0999 V2000
   -1.5166    4.8564   -0.8530 H   0  0  0  1  0  0  0  0  0  0  0  0
    0.1466    4.1532    0.2464 C   0  0  0  1  0  0  0  0  0  0  0  0
   -2.2308    3.9373    0.8598 N   0  0  0  1  0  0  0  0  0  0  0  0
   -1.2830    4.0061   -0.2468 C   0  0  0  1  0  0  0  0  0  0  0  0
    0.9888    4.7509   -0.4030 O   0  0  0  1  0  0  0  0  0  0  0  0
    0.3696    3.5714    1.4355 N   0  0  0  1  0  0  0  0  0  0  0  0
   -2.7699    3.1265    0.9710 H   0  0  0  1  0  0  0  0  0  0  0  0
   -2.3910    4.9511    1.7355 C   0  0  0  1  0  0  0  0  0  0  0  0
    1.6830    3.5623    2.0623 C   0  0  0  1  0  0  0  0  0  0  0  0
   -3.4944    4.8327    2.7688 C   0  0  0  1  0  0  0  0  0  0  0  0
   -1.6646    5.9433    1.6989 O   0  0  0  1  0  0  0  0  0  0  0  0
   -0.3780    3.1378    1.8975 H   0  0  0  1  0  0  0  0  0  0  0  0
    1.5784    3.3600    3.1078 H   0  0  0  1  0  0  0  0  0  0  0  0
    2.1483    4.5165    1.9288 H   0  0  0  1  0  0  0  0  0  0  0  0
    2.2879    2.8037    1.6113 H   0  0  0  1  0  0  0  0  0  0  0  0
   -3.3230    3.9693    3.3771 H   0  0  0  1  0  0  0  0  0  0  0  0
   -4.4380    4.7380    2.2733 H   0  0  0  1  0  0  0  0  0  0  0  0
   -3.5008    5.7074    3.3851 H   0  0  0  1  0  0  0  0  0  0  0  0
   -1.4166    2.7617   -1.1094 C   0  0  0  1  0  0  0  0  0  0  0  0
   -2.7496    2.5988   -1.8132 C   0  0  0  1  0  0  0  0  0  0  0  0
   -2.9973    3.1866   -3.0439 C   0  0  0  1  0  0  0  0  0  0  0  0
   -4.2544    3.0979   -3.6114 C   0  0  0  1  0  0  0  0  0  0  0  0
   -5.2660    2.4166   -2.9525 C   0  0  0  1  0  0  0  0  0  0  0  0
   -5.0188    1.8307   -1.7255 C   0  0  0  1  0  0  0  0  0  0  0  0
   -3.7581    1.9195   -1.1561 C   0  0  0  1  0  0  0  0  0  0  0  0
   -6.4706    2.3663   -3.5715 O   0  0  0  1  0  0  0  0  0  0  0  0
   -4.5462    3.6602   -4.8095 O   0  0  0  1  0  0  0  0  0  0  0  0
   -1.2680    1.9078   -0.4820 H   0  0  0  1  0  0  0  0  0  0  0  0
   -0.6508    2.7939   -1.8560 H   0  0  0  1  0  0  0  0  0  0  0  0
   -2.2373    3.6944   -3.5402 H   0  0  0  1  0  0  0  0  0  0  0  0
   -5.7788    1.3230   -1.2292 H   0  0  0  1  0  0  0  0  0  0  0  0
   -3.5711    1.4751   -0.2346 H   0  0  0  1  0  0  0  0  0  0  0  0
   -7.1212    2.8367   -3.0452 H   0  0  0  1  0  0  0  0  0  0  0  0
   -5.2373    3.1531   -5.2417 H   0  0  0  1  0  0  0  0  0  0  0  0
  1  4  1  0  0  0  0
  2  4  1  0  0  0  0
  2  5  2  0  0  0  0
  2  6  1  0  0  0  0
  3  4  1  0  0  0  0
  3  7  1  0  0  0  0
  3  8  1  0  0  0  0
  4 19  1  0  0  0  0
  6  9  1  0  0  0  0
  6 12  1  0  0  0  0
  8 10  1  0  0  0  0
  8 11  2  0  0  0  0
  9 13  1  0  0  0  0
  9 14  1  0  0  0  0
  9 15  1  0  0  0  0
 10 16  1  0  0  0  0
 10 17  1  0  0  0  0
 10 18  1  0  0  0  0
 19 20  1  0  0  0  0
 19 28  1  0  0  0  0
 19 29  1  0  0  0  0
 20 21  4  0  0  0  0
 20 25  4  0  0  0  0
 21 22  4  0  0  0  0
 21 30  1  0  0  0  0
 22 23  4  0  0  0  0
 22 27  1  0  0  0  0
 23 24  4  0  0  0  0
 23 26  1  0  0  0  0
 24 25  4  0  0  0  0
 24 31  1  0  0  0  0
 25 32  1  0  0  0  0
 26 33  1  0  0  0  0
 27 34  1  0  0  0  0
M  END
> <BCLConfClusterSize>
1

> <ConfClashScore>
0 

> <ConfOneFourInteractionScore>
-0.960318 

> <ConfScore>
0.170429 

> <ConfScorePBest>
0.00586866 

> <ConfTolerance>
0.377557 

> <RosettaParamsInstructions>
M  ROOT 3
M  POLY_N_BB 3
M  POLY_CA_BB 4
M  POLY_C_BB 2
M  POLY_O_BB 5
M  POLY_IGNORE 9 10 11 12 13 14 15 16 17 18 
M  POLY_UPPER 6
M  POLY_LOWER 8
M  POLY_CHG 0
M  POLY_PROPERTIES ALPHA_AA D_AA PROTEIN AROMATIC POLYMER 
M  END

$$$$



 34 34  0  0  0  0  0  0  0  0999 V2000
   -1.3174    4.8275   -1.4827 H   0  0  0  1  0  0  0  0  0  0  0  0
    0.3256    4.3335   -0.2854 C   0  0  0  1  0  0  0  0  0  0  0  0
   -2.0426    4.3452    0.3870 N   0  0  0  1  0  0  0  0  0  0  0  0
   -1.1063    4.1006   -0.7265 C   0  0  0  1  0  0  0  0  0  0  0  0
    1.2188    3.5550   -0.6086 O   0  0  0  1  0  0  0  0  0  0  0  0
    0.5861    5.4136    0.4669 N   0  0  0  1  0  0  0  0  0  0  0  0
   -2.8521    4.8710    0.2174 H   0  0  0  1  0  0  0  0  0  0  0  0
   -1.8255    3.8749    1.6185 C   0  0  0  1  0  0  0  0  0  0  0  0
    1.9200    5.7079    0.9689 C   0  0  0  1  0  0  0  0  0  0  0  0
   -2.8439    4.3143    2.6680 C   0  0  0  1  0  0  0  0  0  0  0  0
   -0.8465    3.1994    1.9298 O   0  0  0  1  0  0  0  0  0  0  0  0
   -0.1473    6.0255    0.6859 H   0  0  0  1  0  0  0  0  0  0  0  0
    2.6495    5.3821    0.2571 H   0  0  0  1  0  0  0  0  0  0  0  0
    2.0730    5.1957    1.8958 H   0  0  0  1  0  0  0  0  0  0  0  0
    2.0183    6.7622    1.1229 H   0  0  0  1  0  0  0  0  0  0  0  0
   -2.4157    4.2173    3.6438 H   0  0  0  1  0  0  0  0  0  0  0  0
   -3.7158    3.6981    2.5985 H   0  0  0  1  0  0  0  0  0  0  0  0
   -3.1137    5.3355    2.4972 H   0  0  0  1  0  0  0  0  0  0  0  0
   -1.3651    2.7331   -1.3518 C   0  0  0  1  0  0  0  0  0  0  0  0
   -2.7734    2.5737   -1.8590 C   0  0  0  1  0  0  0  0  0  0  0  0
   -3.1371    3.1614   -3.0606 C   0  0  0  1  0  0  0  0  0  0  0  0
   -4.4495    3.1008   -3.4900 C   0  0  0  1  0  0  0  0  0  0  0  0
   -5.4008    2.4479   -2.7219 C   0  0  0  1  0  0  0  0  0  0  0  0
   -5.0380    1.8620   -1.5239 C   0  0  0  1  0  0  0  0  0  0  0  0
   -3.7219    1.9226   -1.0930 C   0  0  0  1  0  0  0  0  0  0  0  0
   -6.6799    2.3975   -3.1669 O   0  0  0  1  0  0  0  0  0  0  0  0
   -4.8541    3.6643   -4.6543 O   0  0  0  1  0  0  0  0  0  0  0  0
   -1.1819    1.9808   -0.6134 H   0  0  0  1  0  0  0  0  0  0  0  0
   -0.6907    2.6005   -2.1719 H   0  0  0  1  0  0  0  0  0  0  0  0
   -2.4226    3.6478   -3.6389 H   0  0  0  1  0  0  0  0  0  0  0  0
   -5.7526    1.3755   -0.9456 H   0  0  0  1  0  0  0  0  0  0  0  0
   -3.4482    1.4782   -0.1934 H   0  0  0  1  0  0  0  0  0  0  0  0
   -6.7487    2.8719   -3.9987 H   0  0  0  1  0  0  0  0  0  0  0  0
   -4.6311    3.0840   -5.3857 H   0  0  0  1  0  0  0  0  0  0  0  0
  1  4  1  0  0  0  0
  2  4  1  0  0  0  0
  2  5  2  0  0  0  0
  2  6  1  0  0  0  0
  3  4  1  0  0  0  0
  3  7  1  0  0  0  0
  3  8  1  0  0  0  0
  4 19  1  0  0  0  0
  6  9  1  0  0  0  0
  6 12  1  0  0  0  0
  8 10  1  0  0  0  0
  8 11  2  0  0  0  0
  9 13  1  0  0  0  0
  9 14  1  0  0  0  0
  9 15  1  0  0  0  0
 10 16  1  0  0  0  0
 10 17  1  0  0  0  0
 10 18  1  0  0  0  0
 19 20  1  0  0  0  0
 19 28  1  0  0  0  0
 19 29  1  0  0  0  0
 20 21  4  0  0  0  0
 20 25  4  0  0  0  0
 21 22  4  0  0  0  0
 21 30  1  0  0  0  0
 22 23  4  0  0  0  0
 22 27  1  0  0  0  0
 23 24  4  0  0  0  0
 23 26  1  0  0  0  0
 24 25  4  0  0  0  0
 24 31  1  0  0  0  0
 25 32  1  0  0  0  0
 26 33  1  0  0  0  0
 27 34  1  0  0  0  0
M  END
> <BCLConfClusterSize>
1

> <ConfClashScore>
0 

> <ConfOneFourInteractionScore>
-0.976539 

> <ConfScore>
0.171805 

> <ConfScorePBest>
0.00584018 

> <ConfTolerance>
0.253335 

> <RosettaParamsInstructions>
M  ROOT 3
M  POLY_N_BB 3
M  POLY_CA_BB 4
M  POLY_C_BB 2
M  POLY_O_BB 5
M  POLY_IGNORE 9 10 11 12 13 14 15 16 17 18 
M  POLY_UPPER 6
M  POLY_LOWER 8
M  POLY_CHG 0
M  POLY_PROPERTIES ALPHA_AA D_AA PROTEIN AROMATIC POLYMER 
M  END

$$$$



 34 34  0  0  0  0  0  0  0  0999 V2000
   -0.4451    2.1299   -3.0890 H   0  0  0  1  0  0  0  0  0  0  0  0
   -0.4926    0.4401   -1.7458 C   0  0  0  1  0  0  0  0  0  0  0  0
    0.9873    2.4852   -1.6479 N   0  0  0  1  0  0  0  0  0  0  0  0
   -0.3270    1.9940   -2.0343 C   0  0  0  1  0  0  0  0  0  0  0  0
    0.0556   -0.4029   -2.4548 O   0  0  0  1  0  0  0  0  0  0  0  0
   -1.2458    0.1270   -0.7111 N   0  0  0  1  0  0  0  0  0  0  0  0
    1.0459    3.2640   -1.0560 H   0  0  0  1  0  0  0  0  0  0  0  0
    2.1167    1.9112   -2.0721 C   0  0  0  1  0  0  0  0  0  0  0  0
   -1.3754   -1.2787   -0.3576 C   0  0  0  1  0  0  0  0  0  0  0  0
    3.4026    2.5880   -1.6389 C   0  0  0  1  0  0  0  0  0  0  0  0
    2.1322    0.9000   -2.7690 O   0  0  0  1  0  0  0  0  0  0  0  0
   -1.7058    0.8211   -0.1942 H   0  0  0  1  0  0  0  0  0  0  0  0
   -2.0291   -1.3767    0.4838 H   0  0  0  1  0  0  0  0  0  0  0  0
   -0.4126   -1.6739   -0.1088 H   0  0  0  1  0  0  0  0  0  0  0  0
   -1.7796   -1.8192   -1.1878 H   0  0  0  1  0  0  0  0  0  0  0  0
    3.6085    3.4129   -2.2885 H   0  0  0  1  0  0  0  0  0  0  0  0
    4.2087    1.8861   -1.6876 H   0  0  0  1  0  0  0  0  0  0  0  0
    3.2979    2.9426   -0.6348 H   0  0  0  1  0  0  0  0  0  0  0  0
   -1.4379    2.8225   -1.3330 C   0  0  0  1  0  0  0  0  0  0  0  0
   -2.8085    2.5727   -1.9031 C   0  0  0  1  0  0  0  0  0  0  0  0
   -3.1093    3.0211   -3.1798 C   0  0  0  1  0  0  0  0  0  0  0  0
   -4.3910    2.8803   -3.6774 C   0  0  0  1  0  0  0  0  0  0  0  0
   -5.3743    2.2859   -2.9020 C   0  0  0  1  0  0  0  0  0  0  0  0
   -5.0743    1.8389   -1.6291 C   0  0  0  1  0  0  0  0  0  0  0  0
   -3.7889    1.9800   -1.1298 C   0  0  0  1  0  0  0  0  0  0  0  0
   -6.6434    2.1211   -3.3482 O   0  0  0  1  0  0  0  0  0  0  0  0
   -4.6617    3.3313   -4.9264 O   0  0  0  1  0  0  0  0  0  0  0  0
   -1.2079    3.8618   -1.4423 H   0  0  0  1  0  0  0  0  0  0  0  0
   -1.4492    2.5665   -0.2942 H   0  0  0  1  0  0  0  0  0  0  0  0
   -2.3706    3.4634   -3.7631 H   0  0  0  1  0  0  0  0  0  0  0  0
   -5.8130    1.3966   -1.0458 H   0  0  0  1  0  0  0  0  0  0  0  0
   -3.5622    1.6400   -0.1735 H   0  0  0  1  0  0  0  0  0  0  0  0
   -7.2013    2.8160   -2.9913 H   0  0  0  1  0  0  0  0  0  0  0  0
   -4.1866    4.1510   -5.0811 H   0  0  0  1  0  0  0  0  0  0  0  0
  1  4  1  0  0  0  0
  2  4  1  0  0  0  0
  2  5  2  0  0  0  0
  2  6  1  0  0  0  0
  3  4  1  0  0  0  0
  3  7  1  0  0  0  0
  3  8  1  0  0  0  0
  4 19  1  0  0  0  0
  6  9  1  0  0  0  0
  6 12  1  0  0  0  0
  8 10  1  0  0  0  0
  8 11  2  0  0  0  0
  9 13  1  0  0  0  0
  9 14  1  0  0  0  0
  9 15  1  0  0  0  0
 10 16  1  0  0  0  0
 10 17  1  0  0  0  0
 10 18  1  0  0  0  0
 19 20  1  0  0  0  0
 19 28  1  0  0  0  0
 19 29  1  0  0  0  0
 20 21  4  0  0  0  0
 20 25  4  0  0  0  0
 21 22  4  0  0  0  0
 21 30  1  0  0  0  0
 22 23  4  0  0  0  0
 22 27  1  0  0  0  0
 23 24  4  0  0  0  0
 23 26  1  0  0  0  0
 24 25  4  0  0  0  0
 24 31  1  0  0  0  0
 25 32  1  0  0  0  0
 26 33  1  0  0  0  0
 27 34  1  0  0  0  0
M  END
> <BCLConfClusterSize>
1

> <ConfClashScore>
0 

> <ConfOneFourInteractionScore>
-0.952541 

> <ConfScore>
0.174383 

> <ConfScorePBest>
0.0058117 

> <ConfTolerance>
0.543484 

> <RosettaParamsInstructions>
M  ROOT 3
M  POLY_N_BB 3
M  POLY_CA_BB 4
M  POLY_C_BB 2
M  POLY_O_BB 5
M  POLY_IGNORE 9 10 11 12 13 14 15 16 17 18 
M  POLY_UPPER 6
M  POLY_LOWER 8
M  POLY_CHG 0
M  POLY_PROPERTIES ALPHA_AA D_AA PROTEIN AROMATIC POLYMER 
M  END

$$$$



 34 34  0  0  0  0  0  0  0  0999 V2000
   -0.0327    3.8368   -0.4254 H   0  0  0  1  0  0  0  0  0  0  0  0
   -1.5898    3.5144    0.9097 C   0  0  0  1  0  0  0  0  0  0  0  0
   -1.5144    5.1197   -1.0130 N   0  0  0  1  0  0  0  0  0  0  0  0
   -1.0985    3.7891   -0.5070 C   0  0  0  1  0  0  0  0  0  0  0  0
   -1.3487    2.4435    1.4752 O   0  0  0  1  0  0  0  0  0  0  0  0
   -2.2900    4.5034    1.4858 N   0  0  0  1  0  0  0  0  0  0  0  0
   -2.3799    5.2046   -1.4647 H   0  0  0  1  0  0  0  0  0  0  0  0
   -0.7500    6.2068   -0.8744 C   0  0  0  1  0  0  0  0  0  0  0  0
   -2.9158    4.3546    2.7912 C   0  0  0  1  0  0  0  0  0  0  0  0
   -1.3139    7.4873   -1.4587 C   0  0  0  1  0  0  0  0  0  0  0  0
    0.3440    6.1892   -0.3119 O   0  0  0  1  0  0  0  0  0  0  0  0
   -2.3832    5.3556    1.0110 H   0  0  0  1  0  0  0  0  0  0  0  0
   -3.6889    3.6170    2.7347 H   0  0  0  1  0  0  0  0  0  0  0  0
   -3.3375    5.2905    3.0931 H   0  0  0  1  0  0  0  0  0  0  0  0
   -2.1812    4.0468    3.5057 H   0  0  0  1  0  0  0  0  0  0  0  0
   -2.0715    7.2495   -2.1759 H   0  0  0  1  0  0  0  0  0  0  0  0
   -0.5299    8.0363   -1.9371 H   0  0  0  1  0  0  0  0  0  0  0  0
   -1.7382    8.0800   -0.6753 H   0  0  0  1  0  0  0  0  0  0  0  0
   -1.3683    2.6735   -1.4915 C   0  0  0  1  0  0  0  0  0  0  0  0
   -2.8024    2.5287   -1.9254 C   0  0  0  1  0  0  0  0  0  0  0  0
   -3.1992    3.0369   -3.1526 C   0  0  0  1  0  0  0  0  0  0  0  0
   -4.5307    2.9929   -3.5207 C   0  0  0  1  0  0  0  0  0  0  0  0
   -5.4684    2.4358   -2.6653 C   0  0  0  1  0  0  0  0  0  0  0  0
   -5.0726    1.9292   -1.4418 C   0  0  0  1  0  0  0  0  0  0  0  0
   -3.7373    1.9732   -1.0724 C   0  0  0  1  0  0  0  0  0  0  0  0
   -6.7536    2.4224   -3.0951 O   0  0  0  1  0  0  0  0  0  0  0  0
   -4.8947    3.5010   -4.7232 O   0  0  0  1  0  0  0  0  0  0  0  0
   -1.0661    1.7527   -1.0379 H   0  0  0  1  0  0  0  0  0  0  0  0
   -0.7759    2.8530   -2.3642 H   0  0  0  1  0  0  0  0  0  0  0  0
   -2.4951    3.4513   -3.7961 H   0  0  0  1  0  0  0  0  0  0  0  0
   -5.7767    1.5148   -0.7983 H   0  0  0  1  0  0  0  0  0  0  0  0
   -3.4390    1.5882   -0.1535 H   0  0  0  1  0  0  0  0  0  0  0  0
   -6.7715    2.4726   -4.0536 H   0  0  0  1  0  0  0  0  0  0  0  0
   -4.1136    3.8002   -5.1944 H   0  0  0  1  0  0  0  0  0  0  0  0
  1  4  1  0  0  0  0
  2  4  1  0  0  0  0
  2  5  2  0  0  0  0
  2  6  1  0  0  0  0
  3  4  1  0  0  0  0
  3  7  1  0  0  0  0
  3  8  1  0  0  0  0
  4 19  1  0  0  0  0
  6  9  1  0  0  0  0
  6 12  1  0  0  0  0
  8 10  1  0  0  0  0
  8 11  2  0  0  0  0
  9 13  1  0  0  0  0
  9 14  1  0  0  0  0
  9 15  1  0  0  0  0
 10 16  1  0  0  0  0
 10 17  1  0  0  0  0
 10 18  1  0  0  0  0
 19 20  1  0  0  0  0
 19 28  1  0  0  0  0
 19 29  1  0  0  0  0
 20 21  4  0  0  0  0
 20 25  4  0  0  0  0
 21 22  4  0  0  0  0
 21 30  1  0  0  0  0
 22 23  4  0  0  0  0
 22 27  1  0  0  0  0
 23 24  4  0  0  0  0
 23 26  1  0  0  0  0
 24 25  4  0  0  0  0
 24 31  1  0  0  0  0
 25 32  1  0  0  0  0
 26 33  1  0  0  0  0
 27 34  1  0  0  0  0
M  END
> <BCLConfClusterSize>
1

> <ConfClashScore>
0 

> <ConfOneFourInteractionScore>
-0.931937 

> <ConfScore>
0.17687 

> <ConfScorePBest>
0.00578322 

> <ConfTolerance>
0.41777 

> <RosettaParamsInstructions>
M  ROOT 3
M  POLY_N_BB 3
M  POLY_CA_BB 4
M  POLY_C_BB 2
M  POLY_O_BB 5
M  POLY_IGNORE 9 10 11 12 13 14 15 16 17 18 
M  POLY_UPPER 6
M  POLY_LOWER 8
M  POLY_CHG 0
M  POLY_PROPERTIES ALPHA_AA D_AA PROTEIN AROMATIC POLYMER 
M  END

$$$$



 34 34  0  0  0  0  0  0  0  0999 V2000
   -0.5002    2.5867   -3.3688 H   0  0  0  1  0  0  0  0  0  0  0  0
    1.0532    3.1509   -2.0792 C   0  0  0  1  0  0  0  0  0  0  0  0
   -0.8995    4.5245   -2.8027 N   0  0  0  1  0  0  0  0  0  0  0  0
   -0.4132    3.1779   -2.4812 C   0  0  0  1  0  0  0  0  0  0  0  0
    1.6756    2.1119   -1.9544 O   0  0  0  1  0  0  0  0  0  0  0  0
    1.6887    4.3106   -1.8526 N   0  0  0  1  0  0  0  0  0  0  0  0
   -1.3436    5.0466   -2.1024 H   0  0  0  1  0  0  0  0  0  0  0  0
   -0.7563    5.0688   -4.0289 C   0  0  0  1  0  0  0  0  0  0  0  0
    3.0740    4.3098   -1.4068 C   0  0  0  1  0  0  0  0  0  0  0  0
   -1.1371    6.5251   -4.2112 C   0  0  0  1  0  0  0  0  0  0  0  0
   -0.3303    4.4064   -4.9713 O   0  0  0  1  0  0  0  0  0  0  0  0
    1.2190    5.1601   -1.9876 H   0  0  0  1  0  0  0  0  0  0  0  0
    3.6589    3.6961   -2.0595 H   0  0  0  1  0  0  0  0  0  0  0  0
    3.1276    3.9228   -0.4107 H   0  0  0  1  0  0  0  0  0  0  0  0
    3.4540    5.3099   -1.4223 H   0  0  0  1  0  0  0  0  0  0  0  0
   -2.1971    6.6324   -4.1113 H   0  0  0  1  0  0  0  0  0  0  0  0
   -0.8358    6.8532   -5.1841 H   0  0  0  1  0  0  0  0  0  0  0  0
   -0.6473    7.1175   -3.4669 H   0  0  0  1  0  0  0  0  0  0  0  0
   -1.3456    2.5520   -1.4524 C   0  0  0  1  0  0  0  0  0  0  0  0
   -2.7736    2.4723   -1.9220 C   0  0  0  1  0  0  0  0  0  0  0  0
   -3.1042    2.9392   -3.1846 C   0  0  0  1  0  0  0  0  0  0  0  0
   -4.4253    2.9573   -3.5905 C   0  0  0  1  0  0  0  0  0  0  0  0
   -5.4190    2.5035   -2.7372 C   0  0  0  1  0  0  0  0  0  0  0  0
   -5.0891    2.0380   -1.4783 C   0  0  0  1  0  0  0  0  0  0  0  0
   -3.7642    2.0198   -1.0710 C   0  0  0  1  0  0  0  0  0  0  0  0
   -6.6903    2.5460   -3.2047 O   0  0  0  1  0  0  0  0  0  0  0  0
   -4.7982    3.4091   -4.8126 O   0  0  0  1  0  0  0  0  0  0  0  0
   -1.3130    3.1415   -0.5600 H   0  0  0  1  0  0  0  0  0  0  0  0
   -1.0015    1.5615   -1.2389 H   0  0  0  1  0  0  0  0  0  0  0  0
   -2.3583    3.2759   -3.8264 H   0  0  0  1  0  0  0  0  0  0  0  0
   -5.8350    1.7014   -0.8366 H   0  0  0  1  0  0  0  0  0  0  0  0
   -3.5157    1.6658   -0.1253 H   0  0  0  1  0  0  0  0  0  0  0  0
   -6.7878    1.9194   -3.9254 H   0  0  0  1  0  0  0  0  0  0  0  0
   -4.5166    4.3209   -4.9168 H   0  0  0  1  0  0  0  0  0  0  0  0
  1  4  1  0  0  0  0
  2  4  1  0  0  0  0
  2  5  2  0  0  0  0
  2  6  1  0  0  0  0
  3  4  1  0  0  0  0
  3  7  1  0  0  0  0
  3  8  1  0  0  0  0
  4 19  1  0  0  0  0
  6  9  1  0  0  0  0
  6 12  1  0  0  0  0
  8 10  1  0  0  0  0
  8 11  2  0  0  0  0
  9 13  1  0  0  0  0
  9 14  1  0  0  0  0
  9 15  1  0  0  0  0
 10 16  1  0  0  0  0
 10 17  1  0  0  0  0
 10 18  1  0  0  0  0
 19 20  1  0  0  0  0
 19 28  1  0  0  0  0
 19 29  1  0  0  0  0
 20 21  4  0  0  0  0
 20 25  4  0  0  0  0
 21 22  4  0  0  0  0
 21 30  1  0  0  0  0
 22 23  4  0  0  0  0
 22 27  1  0  0  0  0
 23 24  4  0  0  0  0
 23 26  1  0  0  0  0
 24 25  4  0  0  0  0
 24 31  1  0  0  0  0
 25 32  1  0  0  0  0
 26 33  1  0  0  0  0
 27 34  1  0  0  0  0
M  END
> <BCLConfClusterSize>
1

> <ConfClashScore>
0 

> <ConfOneFourInteractionScore>
-0.949001 

> <ConfScore>
0.177877 

> <ConfScorePBest>
0.00575474 

> <ConfTolerance>
0.489739 

> <RosettaParamsInstructions>
M  ROOT 3
M  POLY_N_BB 3
M  POLY_CA_BB 4
M  POLY_C_BB 2
M  POLY_O_BB 5
M  POLY_IGNORE 9 10 11 12 13 14 15 16 17 18 
M  POLY_UPPER 6
M  POLY_LOWER 8
M  POLY_CHG 0
M  POLY_PROPERTIES ALPHA_AA D_AA PROTEIN AROMATIC POLYMER 
M  END

$$$$



 34 34  0  0  0  0  0  0  0  0999 V2000
    0.5136    2.0625   -1.1416 H   0  0  0  1  0  0  0  0  0  0  0  0
    0.0440    1.9646   -3.1884 C   0  0  0  1  0  0  0  0  0  0  0  0
   -0.7495    0.4537   -1.4503 N   0  0  0  1  0  0  0  0  0  0  0  0
   -0.3525    1.8409   -1.7297 C   0  0  0  1  0  0  0  0  0  0  0  0
   -0.2613    1.1271   -4.0213 O   0  0  0  1  0  0  0  0  0  0  0  0
    0.7561    3.0314   -3.5824 N   0  0  0  1  0  0  0  0  0  0  0  0
   -1.6539    0.3021   -1.1046 H   0  0  0  1  0  0  0  0  0  0  0  0
    0.0297   -0.6163   -1.6321 C   0  0  0  1  0  0  0  0  0  0  0  0
    1.2130    3.1366   -4.9601 C   0  0  0  1  0  0  0  0  0  0  0  0
   -0.5510   -1.9397   -1.1732 C   0  0  0  1  0  0  0  0  0  0  0  0
    1.1405   -0.5520   -2.1337 O   0  0  0  1  0  0  0  0  0  0  0  0
    0.9690    3.7411   -2.9411 H   0  0  0  1  0  0  0  0  0  0  0  0
    1.4724    2.1650   -5.3256 H   0  0  0  1  0  0  0  0  0  0  0  0
    2.0710    3.7745   -5.0033 H   0  0  0  1  0  0  0  0  0  0  0  0
    0.4315    3.5478   -5.5644 H   0  0  0  1  0  0  0  0  0  0  0  0
   -1.5975   -1.9666   -1.3949 H   0  0  0  1  0  0  0  0  0  0  0  0
   -0.4074   -2.0452   -0.1181 H   0  0  0  1  0  0  0  0  0  0  0  0
   -0.0580   -2.7411   -1.6827 H   0  0  0  1  0  0  0  0  0  0  0  0
   -1.4441    2.7936   -1.3023 C   0  0  0  1  0  0  0  0  0  0  0  0
   -2.8146    2.5911   -1.8911 C   0  0  0  1  0  0  0  0  0  0  0  0
   -3.1192    3.1531   -3.1211 C   0  0  0  1  0  0  0  0  0  0  0  0
   -4.4012    3.0530   -3.6280 C   0  0  0  1  0  0  0  0  0  0  0  0
   -5.3809    2.3861   -2.9090 C   0  0  0  1  0  0  0  0  0  0  0  0
   -5.0770    1.8259   -1.6826 C   0  0  0  1  0  0  0  0  0  0  0  0
   -3.7914    1.9262   -1.1741 C   0  0  0  1  0  0  0  0  0  0  0  0
   -6.6499    2.2575   -3.3668 O   0  0  0  1  0  0  0  0  0  0  0  0
   -4.7483    3.5902   -4.8229 O   0  0  0  1  0  0  0  0  0  0  0  0
   -1.1267    3.7817   -1.5624 H   0  0  0  1  0  0  0  0  0  0  0  0
   -1.5379    2.7169   -0.2392 H   0  0  0  1  0  0  0  0  0  0  0  0
   -2.3833    3.6499   -3.6625 H   0  0  0  1  0  0  0  0  0  0  0  0
   -5.8130    1.3291   -1.1413 H   0  0  0  1  0  0  0  0  0  0  0  0
   -3.5618    1.5011   -0.2531 H   0  0  0  1  0  0  0  0  0  0  0  0
   -7.2598    2.6425   -2.7331 H   0  0  0  1  0  0  0  0  0  0  0  0
   -3.9787    3.6213   -5.3959 H   0  0  0  1  0  0  0  0  0  0  0  0
  1  4  1  0  0  0  0
  2  4  1  0  0  0  0
  2  5  2  0  0  0  0
  2  6  1  0  0  0  0
  3  4  1  0  0  0  0
  3  7  1  0  0  0  0
  3  8  1  0  0  0  0
  4 19  1  0  0  0  0
  6  9  1  0  0  0  0
  6 12  1  0  0  0  0
  8 10  1  0  0  0  0
  8 11  2  0  0  0  0
  9 13  1  0  0  0  0
  9 14  1  0  0  0  0
  9 15  1  0  0  0  0
 10 16  1  0  0  0  0
 10 17  1  0  0  0  0
 10 18  1  0  0  0  0
 19 20  1  0  0  0  0
 19 28  1  0  0  0  0
 19 29  1  0  0  0  0
 20 21  4  0  0  0  0
 20 25  4  0  0  0  0
 21 22  4  0  0  0  0
 21 30  1  0  0  0  0
 22 23  4  0  0  0  0
 22 27  1  0  0  0  0
 23 24  4  0  0  0  0
 23 26  1  0  0  0  0
 24 25  4  0  0  0  0
 24 31  1  0  0  0  0
 25 32  1  0  0  0  0
 26 33  1  0  0  0  0
 27 34  1  0  0  0  0
M  END
> <BCLConfClusterSize>
1

> <ConfClashScore>
0 

> <ConfOneFourInteractionScore>
-0.976093 

> <ConfScore>
0.178565 

> <ConfScorePBest>
0.00572626 

> <ConfTolerance>
0.407976 

> <RosettaParamsInstructions>
M  ROOT 3
M  POLY_N_BB 3
M  POLY_CA_BB 4
M  POLY_C_BB 2
M  POLY_O_BB 5
M  POLY_IGNORE 9 10 11 12 13 14 15 16 17 18 
M  POLY_UPPER 6
M  POLY_LOWER 8
M  POLY_CHG 0
M  POLY_PROPERTIES ALPHA_AA D_AA PROTEIN AROMATIC POLYMER 
M  END

$$$$



 34 34  0  0  0  0  0  0  0  0999 V2000
   -1.8102    4.0935    0.3584 H   0  0  0  1  0  0  0  0  0  0  0  0
   -1.9142    5.2472   -1.4005 C   0  0  0  1  0  0  0  0  0  0  0  0
    0.1248    4.4309   -0.2649 N   0  0  0  1  0  0  0  0  0  0  0  0
   -1.2739    4.1471   -0.5660 C   0  0  0  1  0  0  0  0  0  0  0  0
   -1.4712    5.5425   -2.5073 O   0  0  0  1  0  0  0  0  0  0  0  0
   -3.0233    5.8003   -0.9015 N   0  0  0  1  0  0  0  0  0  0  0  0
    0.7875    3.7183   -0.3808 H   0  0  0  1  0  0  0  0  0  0  0  0
    0.5339    5.6285    0.1632 C   0  0  0  1  0  0  0  0  0  0  0  0
   -3.7891    6.8003   -1.6305 C   0  0  0  1  0  0  0  0  0  0  0  0
    1.9974    5.7916    0.5531 C   0  0  0  1  0  0  0  0  0  0  0  0
   -0.2013    6.6101    0.2619 O   0  0  0  1  0  0  0  0  0  0  0  0
   -3.3319    5.5229   -0.0137 H   0  0  0  1  0  0  0  0  0  0  0  0
   -4.6644    7.0574   -1.0713 H   0  0  0  1  0  0  0  0  0  0  0  0
   -4.0774    6.4046   -2.5819 H   0  0  0  1  0  0  0  0  0  0  0  0
   -3.1885    7.6741   -1.7742 H   0  0  0  1  0  0  0  0  0  0  0  0
    2.4841    4.8393    0.5198 H   0  0  0  1  0  0  0  0  0  0  0  0
    2.0599    6.1894    1.5444 H   0  0  0  1  0  0  0  0  0  0  0  0
    2.4761    6.4607   -0.1311 H   0  0  0  1  0  0  0  0  0  0  0  0
   -1.4029    2.7815   -1.2470 C   0  0  0  1  0  0  0  0  0  0  0  0
   -2.7638    2.5564   -1.8720 C   0  0  0  1  0  0  0  0  0  0  0  0
   -3.0464    2.9698   -3.1646 C   0  0  0  1  0  0  0  0  0  0  0  0
   -4.3263    2.8352   -3.6687 C   0  0  0  1  0  0  0  0  0  0  0  0
   -5.3260    2.2820   -2.8838 C   0  0  0  1  0  0  0  0  0  0  0  0
   -5.0440    1.8700   -1.5950 C   0  0  0  1  0  0  0  0  0  0  0  0
   -3.7605    2.0048   -1.0892 C   0  0  0  1  0  0  0  0  0  0  0  0
   -6.5940    2.1249   -3.3355 O   0  0  0  1  0  0  0  0  0  0  0  0
   -4.6962    3.2150   -4.9159 O   0  0  0  1  0  0  0  0  0  0  0  0
   -1.2336    2.0189   -0.5158 H   0  0  0  1  0  0  0  0  0  0  0  0
   -0.6602    2.7119   -2.0142 H   0  0  0  1  0  0  0  0  0  0  0  0
   -2.2955    3.3811   -3.7549 H   0  0  0  1  0  0  0  0  0  0  0  0
   -5.7949    1.4586   -1.0047 H   0  0  0  1  0  0  0  0  0  0  0  0
   -3.5475    1.6910   -0.1208 H   0  0  0  1  0  0  0  0  0  0  0  0
   -6.9850    2.9863   -3.4990 H   0  0  0  1  0  0  0  0  0  0  0  0
   -4.8399    4.1640   -4.9325 H   0  0  0  1  0  0  0  0  0  0  0  0
  1  4  1  0  0  0  0
  2  4  1  0  0  0  0
  2  5  2  0  0  0  0
  2  6  1  0  0  0  0
  3  4  1  0  0  0  0
  3  7  1  0  0  0  0
  3  8  1  0  0  0  0
  4 19  1  0  0  0  0
  6  9  1  0  0  0  0
  6 12  1  0  0  0  0
  8 10  1  0  0  0  0
  8 11  2  0  0  0  0
  9 13  1  0  0  0  0
  9 14  1  0  0  0  0
  9 15  1  0  0  0  0
 10 16  1  0  0  0  0
 10 17  1  0  0  0  0
 10 18  1  0  0  0  0
 19 20  1  0  0  0  0
 19 28  1  0  0  0  0
 19 29  1  0  0  0  0
 20 21  4  0  0  0  0
 20 25  4  0  0  0  0
 21 22  4  0  0  0  0
 21 30  1  0  0  0  0
 22 23  4  0  0  0  0
 22 27  1  0  0  0  0
 23 24  4  0  0  0  0
 23 26  1  0  0  0  0
 24 25  4  0  0  0  0
 24 31  1  0  0  0  0
 25 32  1  0  0  0  0
 26 33  1  0  0  0  0
 27 34  1  0  0  0  0
M  END
> <BCLConfClusterSize>
1

> <ConfClashScore>
0 

> <ConfOneFourInteractionScore>
-0.967834 

> <ConfScore>
0.179137 

> <ConfScorePBest>
0.00569778 

> <ConfTolerance>
0.511636 

> <RosettaParamsInstructions>
M  ROOT 3
M  POLY_N_BB 3
M  POLY_CA_BB 4
M  POLY_C_BB 2
M  POLY_O_BB 5
M  POLY_IGNORE 9 10 11 12 13 14 15 16 17 18 
M  POLY_UPPER 6
M  POLY_LOWER 8
M  POLY_CHG 0
M  POLY_PROPERTIES ALPHA_AA D_AA PROTEIN AROMATIC POLYMER 
M  END

$$$$



 34 34  0  0  0  0  0  0  0  0999 V2000
   -1.6201    4.9036   -1.1099 H   0  0  0  1  0  0  0  0  0  0  0  0
    0.1682    4.3853   -0.1265 C   0  0  0  1  0  0  0  0  0  0  0  0
   -2.1329    3.9930    0.6704 N   0  0  0  1  0  0  0  0  0  0  0  0
   -1.2718    4.0946   -0.5024 C   0  0  0  1  0  0  0  0  0  0  0  0
    1.0684    4.2795   -0.9416 O   0  0  0  1  0  0  0  0  0  0  0  0
    0.3744    4.7608    1.1457 N   0  0  0  1  0  0  0  0  0  0  0  0
   -2.7530    4.7261    0.8669 H   0  0  0  1  0  0  0  0  0  0  0  0
   -2.1059    2.9375    1.4846 C   0  0  0  1  0  0  0  0  0  0  0  0
    1.7163    5.0919    1.6015 C   0  0  0  1  0  0  0  0  0  0  0  0
   -3.0738    2.9783    2.6454 C   0  0  0  1  0  0  0  0  0  0  0  0
   -1.3488    1.9822    1.3180 O   0  0  0  1  0  0  0  0  0  0  0  0
   -0.3802    4.8120    1.7689 H   0  0  0  1  0  0  0  0  0  0  0  0
    1.6659    5.8951    2.3066 H   0  0  0  1  0  0  0  0  0  0  0  0
    2.3137    5.3890    0.7649 H   0  0  0  1  0  0  0  0  0  0  0  0
    2.1558    4.2351    2.0679 H   0  0  0  1  0  0  0  0  0  0  0  0
   -4.0764    3.0154    2.2733 H   0  0  0  1  0  0  0  0  0  0  0  0
   -2.8817    3.8474    3.2392 H   0  0  0  1  0  0  0  0  0  0  0  0
   -2.9484    2.1011    3.2451 H   0  0  0  1  0  0  0  0  0  0  0  0
   -1.4151    2.8171   -1.3132 C   0  0  0  1  0  0  0  0  0  0  0  0
   -2.7928    2.5650   -1.8892 C   0  0  0  1  0  0  0  0  0  0  0  0
   -3.0834    2.9911   -3.1759 C   0  0  0  1  0  0  0  0  0  0  0  0
   -4.3635    2.8502   -3.6777 C   0  0  0  1  0  0  0  0  0  0  0  0
   -5.3553    2.2782   -2.8965 C   0  0  0  1  0  0  0  0  0  0  0  0
   -5.0654    1.8534   -1.6136 C   0  0  0  1  0  0  0  0  0  0  0  0
   -3.7816    1.9945   -1.1101 C   0  0  0  1  0  0  0  0  0  0  0  0
   -6.6433    2.0780   -3.2675 O   0  0  0  1  0  0  0  0  0  0  0  0
   -4.6610    3.2677   -4.9323 O   0  0  0  1  0  0  0  0  0  0  0  0
   -1.1674    1.9930   -0.6773 H   0  0  0  1  0  0  0  0  0  0  0  0
   -0.7207    2.8623   -2.1260 H   0  0  0  1  0  0  0  0  0  0  0  0
   -2.3383    3.4166   -3.7636 H   0  0  0  1  0  0  0  0  0  0  0  0
   -5.8105    1.4279   -1.0260 H   0  0  0  1  0  0  0  0  0  0  0  0
   -3.5626    1.6712   -0.1462 H   0  0  0  1  0  0  0  0  0  0  0  0
   -7.1158    2.9135   -3.2487 H   0  0  0  1  0  0  0  0  0  0  0  0
   -4.4345    4.1962   -5.0232 H   0  0  0  1  0  0  0  0  0  0  0  0
  1  4  1  0  0  0  0
  2  4  1  0  0  0  0
  2  5  2  0  0  0  0
  2  6  1  0  0  0  0
  3  4  1  0  0  0  0
  3  7  1  0  0  0  0
  3  8  1  0  0  0  0
  4 19  1  0  0  0  0
  6  9  1  0  0  0  0
  6 12  1  0  0  0  0
  8 10  1  0  0  0  0
  8 11  2  0  0  0  0
  9 13  1  0  0  0  0
  9 14  1  0  0  0  0
  9 15  1  0  0  0  0
 10 16  1  0  0  0  0
 10 17  1  0  0  0  0
 10 18  1  0  0  0  0
 19 20  1  0  0  0  0
 19 28  1  0  0  0  0
 19 29  1  0  0  0  0
 20 21  4  0  0  0  0
 20 25  4  0  0  0  0
 21 22  4  0  0  0  0
 21 30  1  0  0  0  0
 22 23  4  0  0  0  0
 22 27  1  0  0  0  0
 23 24  4  0  0  0  0
 23 26  1  0  0  0  0
 24 25  4  0  0  0  0
 24 31  1  0  0  0  0
 25 32  1  0  0  0  0
 26 33  1  0  0  0  0
 27 34  1  0  0  0  0
M  END
> <BCLConfClusterSize>
1

> <ConfClashScore>
0 

> <ConfOneFourInteractionScore>
-0.954835 

> <ConfScore>
0.180243 

> <ConfScorePBest>
0.0056693 

> <ConfTolerance>
0.292236 

> <RosettaParamsInstructions>
M  ROOT 3
M  POLY_N_BB 3
M  POLY_CA_BB 4
M  POLY_C_BB 2
M  POLY_O_BB 5
M  POLY_IGNORE 9 10 11 12 13 14 15 16 17 18 
M  POLY_UPPER 6
M  POLY_LOWER 8
M  POLY_CHG 0
M  POLY_PROPERTIES ALPHA_AA D_AA PROTEIN AROMATIC POLYMER 
M  END

$$$$



 34 34  0  0  0  0  0  0  0  0999 V2000
    0.3586    1.2715   -1.1614 H   0  0  0  1  0  0  0  0  0  0  0  0
   -0.7193    0.5597   -2.8144 C   0  0  0  1  0  0  0  0  0  0  0  0
   -1.2200    0.1670   -0.4404 N   0  0  0  1  0  0  0  0  0  0  0  0
   -0.6741    1.1295   -1.4027 C   0  0  0  1  0  0  0  0  0  0  0  0
   -0.1007    1.0974   -3.7320 O   0  0  0  1  0  0  0  0  0  0  0  0
   -1.4529   -0.5444   -3.0262 N   0  0  0  1  0  0  0  0  0  0  0  0
   -2.1875    0.1504   -0.2852 H   0  0  0  1  0  0  0  0  0  0  0  0
   -0.4367   -0.6964    0.2387 C   0  0  0  1  0  0  0  0  0  0  0  0
   -1.6224   -1.1229   -4.3507 C   0  0  0  1  0  0  0  0  0  0  0  0
   -1.0942   -1.6089    1.2491 C   0  0  0  1  0  0  0  0  0  0  0  0
    0.7772   -0.7418    0.0433 O   0  0  0  1  0  0  0  0  0  0  0  0
   -1.8896   -0.9758   -2.2622 H   0  0  0  1  0  0  0  0  0  0  0  0
   -1.2211   -0.4566   -5.0855 H   0  0  0  1  0  0  0  0  0  0  0  0
   -2.6637   -1.2783   -4.5412 H   0  0  0  1  0  0  0  0  0  0  0  0
   -1.1068   -2.0593   -4.3993 H   0  0  0  1  0  0  0  0  0  0  0  0
   -1.0581   -1.1546    2.2172 H   0  0  0  1  0  0  0  0  0  0  0  0
   -0.5757   -2.5445    1.2748 H   0  0  0  1  0  0  0  0  0  0  0  0
   -2.1141   -1.7732    0.9703 H   0  0  0  1  0  0  0  0  0  0  0  0
   -1.3378    2.5068   -1.3134 C   0  0  0  1  0  0  0  0  0  0  0  0
   -2.7372    2.4680   -1.8956 C   0  0  0  1  0  0  0  0  0  0  0  0
   -3.0061    2.9390   -3.1713 C   0  0  0  1  0  0  0  0  0  0  0  0
   -4.3081    2.9773   -3.6334 C   0  0  0  1  0  0  0  0  0  0  0  0
   -5.3444    2.5397   -2.8234 C   0  0  0  1  0  0  0  0  0  0  0  0
   -5.0761    2.0702   -1.5515 C   0  0  0  1  0  0  0  0  0  0  0  0
   -3.7704    2.0317   -1.0878 C   0  0  0  1  0  0  0  0  0  0  0  0
   -6.6359    2.5531   -3.2340 O   0  0  0  1  0  0  0  0  0  0  0  0
   -4.6664    3.4252   -4.8613 O   0  0  0  1  0  0  0  0  0  0  0  0
   -0.7504    3.2154   -1.8591 H   0  0  0  1  0  0  0  0  0  0  0  0
   -1.3930    2.8037   -0.2869 H   0  0  0  1  0  0  0  0  0  0  0  0
   -2.2282    3.2635   -3.7806 H   0  0  0  1  0  0  0  0  0  0  0  0
   -5.8540    1.7456   -0.9423 H   0  0  0  1  0  0  0  0  0  0  0  0
   -3.5682    1.6745   -0.1322 H   0  0  0  1  0  0  0  0  0  0  0  0
   -6.7737    1.8574   -3.8810 H   0  0  0  1  0  0  0  0  0  0  0  0
   -5.1165    4.2688   -4.7760 H   0  0  0  1  0  0  0  0  0  0  0  0
  1  4  1  0  0  0  0
  2  4  1  0  0  0  0
  2  5  2  0  0  0  0
  2  6  1  0  0  0  0
  3  4  1  0  0  0  0
  3  7  1  0  0  0  0
  3  8  1  0  0  0  0
  4 19  1  0  0  0  0
  6  9  1  0  0  0  0
  6 12  1  0  0  0  0
  8 10  1  0  0  0  0
  8 11  2  0  0  0  0
  9 13  1  0  0  0  0
  9 14  1  0  0  0  0
  9 15  1  0  0  0  0
 10 16  1  0  0  0  0
 10 17  1  0  0  0  0
 10 18  1  0  0  0  0
 19 20  1  0  0  0  0
 19 28  1  0  0  0  0
 19 29  1  0  0  0  0
 20 21  4  0  0  0  0
 20 25  4  0  0  0  0
 21 22  4  0  0  0  0
 21 30  1  0  0  0  0
 22 23  4  0  0  0  0
 22 27  1  0  0  0  0
 23 24  4  0  0  0  0
 23 26  1  0  0  0  0
 24 25  4  0  0  0  0
 24 31  1  0  0  0  0
 25 32  1  0  0  0  0
 26 33  1  0  0  0  0
 27 34  1  0  0  0  0
M  END
> <BCLConfClusterSize>
1

> <ConfClashScore>
0 

> <ConfOneFourInteractionScore>
-0.957074 

> <ConfScore>
0.18074 

> <ConfScorePBest>
0.00564082 

> <ConfTolerance>
0.441598 

> <RosettaParamsInstructions>
M  ROOT 3
M  POLY_N_BB 3
M  POLY_CA_BB 4
M  POLY_C_BB 2
M  POLY_O_BB 5
M  POLY_IGNORE 9 10 11 12 13 14 15 16 17 18 
M  POLY_UPPER 6
M  POLY_LOWER 8
M  POLY_CHG 0
M  POLY_PROPERTIES ALPHA_AA D_AA PROTEIN AROMATIC POLYMER 
M  END

$$$$



 34 34  0  0  0  0  0  0  0  0999 V2000
    0.3584    1.2709   -1.0627 H   0  0  0  1  0  0  0  0  0  0  0  0
   -0.6473    0.6354   -2.8302 C   0  0  0  1  0  0  0  0  0  0  0  0
   -1.3558    0.2231   -0.5244 N   0  0  0  1  0  0  0  0  0  0  0  0
   -0.6520    1.1526   -1.3943 C   0  0  0  1  0  0  0  0  0  0  0  0
   -0.8064   -0.5568   -3.0786 O   0  0  0  1  0  0  0  0  0  0  0  0
   -0.4600    1.5620   -3.7833 N   0  0  0  1  0  0  0  0  0  0  0  0
   -2.0225   -0.3789   -0.9161 H   0  0  0  1  0  0  0  0  0  0  0  0
   -1.1248    0.1616    0.7901 C   0  0  0  1  0  0  0  0  0  0  0  0
   -0.2570    1.1571   -5.1663 C   0  0  0  1  0  0  0  0  0  0  0  0
   -1.8732   -0.9229    1.5404 C   0  0  0  1  0  0  0  0  0  0  0  0
   -0.3574    0.9272    1.3720 O   0  0  0  1  0  0  0  0  0  0  0  0
   -0.4599    2.5131   -3.5472 H   0  0  0  1  0  0  0  0  0  0  0  0
    0.5980    0.5168   -5.2292 H   0  0  0  1  0  0  0  0  0  0  0  0
   -0.0980    2.0246   -5.7720 H   0  0  0  1  0  0  0  0  0  0  0  0
   -1.1219    0.6320   -5.5145 H   0  0  0  1  0  0  0  0  0  0  0  0
   -1.7277   -1.8624    1.0494 H   0  0  0  1  0  0  0  0  0  0  0  0
   -2.9170   -0.6882    1.5587 H   0  0  0  1  0  0  0  0  0  0  0  0
   -1.5030   -0.9834    2.5425 H   0  0  0  1  0  0  0  0  0  0  0  0
   -1.3495    2.5092   -1.3590 C   0  0  0  1  0  0  0  0  0  0  0  0
   -2.7580    2.4676   -1.9186 C   0  0  0  1  0  0  0  0  0  0  0  0
   -3.0487    2.9403   -3.1889 C   0  0  0  1  0  0  0  0  0  0  0  0
   -4.3582    2.9758   -3.6299 C   0  0  0  1  0  0  0  0  0  0  0  0
   -5.3800    2.5340   -2.8041 C   0  0  0  1  0  0  0  0  0  0  0  0
   -5.0900    2.0628   -1.5376 C   0  0  0  1  0  0  0  0  0  0  0  0
   -3.7768    2.0270   -1.0951 C   0  0  0  1  0  0  0  0  0  0  0  0
   -6.6552    2.5739   -3.2613 O   0  0  0  1  0  0  0  0  0  0  0  0
   -4.7374    3.4250   -4.8510 O   0  0  0  1  0  0  0  0  0  0  0  0
   -0.7743    3.2030   -1.9358 H   0  0  0  1  0  0  0  0  0  0  0  0
   -1.3963    2.8418   -0.3431 H   0  0  0  1  0  0  0  0  0  0  0  0
   -2.2817    3.2681   -3.8100 H   0  0  0  1  0  0  0  0  0  0  0  0
   -5.8570    1.7350   -0.9165 H   0  0  0  1  0  0  0  0  0  0  0  0
   -3.5582    1.6687   -0.1436 H   0  0  0  1  0  0  0  0  0  0  0  0
   -6.8623    1.7487   -3.7059 H   0  0  0  1  0  0  0  0  0  0  0  0
   -4.7100    4.3846   -4.8622 H   0  0  0  1  0  0  0  0  0  0  0  0
  1  4  1  0  0  0  0
  2  4  1  0  0  0  0
  2  5  2  0  0  0  0
  2  6  1  0  0  0  0
  3  4  1  0  0  0  0
  3  7  1  0  0  0  0
  3  8  1  0  0  0  0
  4 19  1  0  0  0  0
  6  9  1  0  0  0  0
  6 12  1  0  0  0  0
  8 10  1  0  0  0  0
  8 11  2  0  0  0  0
  9 13  1  0  0  0  0
  9 14  1  0  0  0  0
  9 15  1  0  0  0  0
 10 16  1  0  0  0  0
 10 17  1  0  0  0  0
 10 18  1  0  0  0  0
 19 20  1  0  0  0  0
 19 28  1  0  0  0  0
 19 29  1  0  0  0  0
 20 21  4  0  0  0  0
 20 25  4  0  0  0  0
 21 22  4  0  0  0  0
 21 30  1  0  0  0  0
 22 23  4  0  0  0  0
 22 27  1  0  0  0  0
 23 24  4  0  0  0  0
 23 26  1  0  0  0  0
 24 25  4  0  0  0  0
 24 31  1  0  0  0  0
 25 32  1  0  0  0  0
 26 33  1  0  0  0  0
 27 34  1  0  0  0  0
M  END
> <BCLConfClusterSize>
1

> <ConfClashScore>
0 

> <ConfOneFourInteractionScore>
-0.933935 

> <ConfScore>
0.180848 

> <ConfScorePBest>
0.00561234 

> <ConfTolerance>
0.46521 

> <RosettaParamsInstructions>
M  ROOT 3
M  POLY_N_BB 3
M  POLY_CA_BB 4
M  POLY_C_BB 2
M  POLY_O_BB 5
M  POLY_IGNORE 9 10 11 12 13 14 15 16 17 18 
M  POLY_UPPER 6
M  POLY_LOWER 8
M  POLY_CHG 0
M  POLY_PROPERTIES ALPHA_AA D_AA PROTEIN AROMATIC POLYMER 
M  END

$$$$



 34 34  0  0  0  0  0  0  0  0999 V2000
   -0.0825    3.8877   -0.2162 H   0  0  0  1  0  0  0  0  0  0  0  0
   -1.9744    4.1930    0.6494 C   0  0  0  1  0  0  0  0  0  0  0  0
   -1.1906    5.0348   -1.5344 N   0  0  0  1  0  0  0  0  0  0  0  0
   -1.0952    3.9486   -0.5562 C   0  0  0  1  0  0  0  0  0  0  0  0
   -2.9842    3.5169    0.8414 O   0  0  0  1  0  0  0  0  0  0  0  0
   -1.6204    5.1674    1.5011 N   0  0  0  1  0  0  0  0  0  0  0  0
   -1.6179    4.8141   -2.3883 H   0  0  0  1  0  0  0  0  0  0  0  0
   -0.7570    6.3046   -1.3934 C   0  0  0  1  0  0  0  0  0  0  0  0
   -2.4742    5.4144    2.6535 C   0  0  0  1  0  0  0  0  0  0  0  0
   -0.8065    7.2110   -2.6026 C   0  0  0  1  0  0  0  0  0  0  0  0
   -0.3333    6.7153   -0.3139 O   0  0  0  1  0  0  0  0  0  0  0  0
   -0.8099    5.6976    1.3515 H   0  0  0  1  0  0  0  0  0  0  0  0
   -3.4810    5.1396    2.4175 H   0  0  0  1  0  0  0  0  0  0  0  0
   -2.4384    6.4532    2.9074 H   0  0  0  1  0  0  0  0  0  0  0  0
   -2.1308    4.8320    3.4828 H   0  0  0  1  0  0  0  0  0  0  0  0
   -0.6326    8.2220   -2.2984 H   0  0  0  1  0  0  0  0  0  0  0  0
   -1.7694    7.1381   -3.0635 H   0  0  0  1  0  0  0  0  0  0  0  0
   -0.0526    6.9144   -3.3015 H   0  0  0  1  0  0  0  0  0  0  0  0
   -1.4221    2.6414   -1.2595 C   0  0  0  1  0  0  0  0  0  0  0  0
   -2.7971    2.5711   -1.8944 C   0  0  0  1  0  0  0  0  0  0  0  0
   -3.0806    3.2202   -3.0860 C   0  0  0  1  0  0  0  0  0  0  0  0
   -4.3690    3.2148   -3.5862 C   0  0  0  1  0  0  0  0  0  0  0  0
   -5.3766    2.5558   -2.8992 C   0  0  0  1  0  0  0  0  0  0  0  0
   -5.0938    1.9087   -1.7112 C   0  0  0  1  0  0  0  0  0  0  0  0
   -3.8017    1.9140   -1.2093 C   0  0  0  1  0  0  0  0  0  0  0  0
   -6.6533    2.5183   -3.3522 O   0  0  0  1  0  0  0  0  0  0  0  0
   -4.5727    3.8741   -4.7526 O   0  0  0  1  0  0  0  0  0  0  0  0
   -1.3499    1.8526   -0.5402 H   0  0  0  1  0  0  0  0  0  0  0  0
   -0.6948    2.4902   -2.0296 H   0  0  0  1  0  0  0  0  0  0  0  0
   -2.3238    3.7113   -3.6035 H   0  0  0  1  0  0  0  0  0  0  0  0
   -5.8505    1.4176   -1.1937 H   0  0  0  1  0  0  0  0  0  0  0  0
   -3.5881    1.4237   -0.3174 H   0  0  0  1  0  0  0  0  0  0  0  0
   -7.1990    2.0288   -2.7324 H   0  0  0  1  0  0  0  0  0  0  0  0
   -4.2948    3.3209   -5.4862 H   0  0  0  1  0  0  0  0  0  0  0  0
  1  4  1  0  0  0  0
  2  4  1  0  0  0  0
  2  5  2  0  0  0  0
  2  6  1  0  0  0  0
  3  4  1  0  0  0  0
  3  7  1  0  0  0  0
  3  8  1  0  0  0  0
  4 19  1  0  0  0  0
  6  9  1  0  0  0  0
  6 12  1  0  0  0  0
  8 10  1  0  0  0  0
  8 11  2  0  0  0  0
  9 13  1  0  0  0  0
  9 14  1  0  0  0  0
  9 15  1  0  0  0  0
 10 16  1  0  0  0  0
 10 17  1  0  0  0  0
 10 18  1  0  0  0  0
 19 20  1  0  0  0  0
 19 28  1  0  0  0  0
 19 29  1  0  0  0  0
 20 21  4  0  0  0  0
 20 25  4  0  0  0  0
 21 22  4  0  0  0  0
 21 30  1  0  0  0  0
 22 23  4  0  0  0  0
 22 27  1  0  0  0  0
 23 24  4  0  0  0  0
 23 26  1  0  0  0  0
 24 25  4  0  0  0  0
 24 31  1  0  0  0  0
 25 32  1  0  0  0  0
 26 33  1  0  0  0  0
 27 34  1  0  0  0  0
M  END
> <BCLConfClusterSize>
1

> <ConfClashScore>
0 

> <ConfOneFourInteractionScore>
-0.969421 

> <ConfScore>
0.182054 

> <ConfScorePBest>
0.00558386 

> <ConfTolerance>
0.511439 

> <RosettaParamsInstructions>
M  ROOT 3
M  POLY_N_BB 3
M  POLY_CA_BB 4
M  POLY_C_BB 2
M  POLY_O_BB 5
M  POLY_IGNORE 9 10 11 12 13 14 15 16 17 18 
M  POLY_UPPER 6
M  POLY_LOWER 8
M  POLY_CHG 0
M  POLY_PROPERTIES ALPHA_AA D_AA PROTEIN AROMATIC POLYMER 
M  END

$$$$



 34 34  0  0  0  0  0  0  0  0999 V2000
   -0.7912    0.8462   -1.5550 H   0  0  0  1  0  0  0  0  0  0  0  0
    0.8244    1.8457   -0.6770 C   0  0  0  1  0  0  0  0  0  0  0  0
    0.0356    2.0140   -3.0337 N   0  0  0  1  0  0  0  0  0  0  0  0
   -0.3529    1.8192   -1.6322 C   0  0  0  1  0  0  0  0  0  0  0  0
    0.6499    1.9312    0.5357 O   0  0  0  1  0  0  0  0  0  0  0  0
    2.0602    1.7730   -1.1963 N   0  0  0  1  0  0  0  0  0  0  0  0
   -0.3292    1.3960   -3.7010 H   0  0  0  1  0  0  0  0  0  0  0  0
    0.8620    2.9883   -3.4615 C   0  0  0  1  0  0  0  0  0  0  0  0
    3.2211    1.8476   -0.3282 C   0  0  0  1  0  0  0  0  0  0  0  0
    1.1269    2.9510   -4.9540 C   0  0  0  1  0  0  0  0  0  0  0  0
    1.3706    3.8427   -2.7377 O   0  0  0  1  0  0  0  0  0  0  0  0
    2.1788    1.6693   -2.1636 H   0  0  0  1  0  0  0  0  0  0  0  0
    4.0738    2.1537   -0.8976 H   0  0  0  1  0  0  0  0  0  0  0  0
    3.4066    0.8858    0.1024 H   0  0  0  1  0  0  0  0  0  0  0  0
    3.0387    2.5584    0.4506 H   0  0  0  1  0  0  0  0  0  0  0  0
    1.1242    1.9358   -5.2920 H   0  0  0  1  0  0  0  0  0  0  0  0
    2.0802    3.3920   -5.1579 H   0  0  0  1  0  0  0  0  0  0  0  0
    0.3632    3.4990   -5.4653 H   0  0  0  1  0  0  0  0  0  0  0  0
   -1.4419    2.8076   -1.2870 C   0  0  0  1  0  0  0  0  0  0  0  0
   -2.8097    2.5874   -1.9031 C   0  0  0  1  0  0  0  0  0  0  0  0
   -3.1272    3.0779   -3.1601 C   0  0  0  1  0  0  0  0  0  0  0  0
   -4.4124    2.9423   -3.6503 C   0  0  0  1  0  0  0  0  0  0  0  0
   -5.3824    2.3112   -2.8872 C   0  0  0  1  0  0  0  0  0  0  0  0
   -5.0656    1.8223   -1.6339 C   0  0  0  1  0  0  0  0  0  0  0  0
   -3.7767    1.9581   -1.1421 C   0  0  0  1  0  0  0  0  0  0  0  0
   -6.6542    2.1500   -3.3268 O   0  0  0  1  0  0  0  0  0  0  0  0
   -4.7719    3.4098   -4.8705 O   0  0  0  1  0  0  0  0  0  0  0  0
   -1.1047    3.7756   -1.5938 H   0  0  0  1  0  0  0  0  0  0  0  0
   -1.5633    2.7920   -0.2240 H   0  0  0  1  0  0  0  0  0  0  0  0
   -2.3984    3.5478   -3.7344 H   0  0  0  1  0  0  0  0  0  0  0  0
   -5.7944    1.3524   -1.0597 H   0  0  0  1  0  0  0  0  0  0  0  0
   -3.5375    1.5866   -0.2007 H   0  0  0  1  0  0  0  0  0  0  0  0
   -7.2050    2.8556   -2.9801 H   0  0  0  1  0  0  0  0  0  0  0  0
   -4.0459    3.9117   -5.2480 H   0  0  0  1  0  0  0  0  0  0  0  0
  1  4  1  0  0  0  0
  2  4  1  0  0  0  0
  2  5  2  0  0  0  0
  2  6  1  0  0  0  0
  3  4  1  0  0  0  0
  3  7  1  0  0  0  0
  3  8  1  0  0  0  0
  4 19  1  0  0  0  0
  6  9  1  0  0  0  0
  6 12  1  0  0  0  0
  8 10  1  0  0  0  0
  8 11  2  0  0  0  0
  9 13  1  0  0  0  0
  9 14  1  0  0  0  0
  9 15  1  0  0  0  0
 10 16  1  0  0  0  0
 10 17  1  0  0  0  0
 10 18  1  0  0  0  0
 19 20  1  0  0  0  0
 19 28  1  0  0  0  0
 19 29  1  0  0  0  0
 20 21  4  0  0  0  0
 20 25  4  0  0  0  0
 21 22  4  0  0  0  0
 21 30  1  0  0  0  0
 22 23  4  0  0  0  0
 22 27  1  0  0  0  0
 23 24  4  0  0  0  0
 23 26  1  0  0  0  0
 24 25  4  0  0  0  0
 24 31  1  0  0  0  0
 25 32  1  0  0  0  0
 26 33  1  0  0  0  0
 27 34  1  0  0  0  0
M  END
> <BCLConfClusterSize>
1

> <ConfClashScore>
0 

> <ConfOneFourInteractionScore>
-0.953847 

> <ConfScore>
0.19115 

> <ConfScorePBest>
0.00555537 

> <ConfTolerance>
0.350809 

> <RosettaParamsInstructions>
M  ROOT 3
M  POLY_N_BB 3
M  POLY_CA_BB 4
M  POLY_C_BB 2
M  POLY_O_BB 5
M  POLY_IGNORE 9 10 11 12 13 14 15 16 17 18 
M  POLY_UPPER 6
M  POLY_LOWER 8
M  POLY_CHG 0
M  POLY_PROPERTIES ALPHA_AA D_AA PROTEIN AROMATIC POLYMER 
M  END

$$$$



 34 34  0  0  0  0  0  0  0  0999 V2000
    0.5855    1.9429   -1.5134 H   0  0  0  1  0  0  0  0  0  0  0  0
   -0.0120    2.7519   -3.3745 C   0  0  0  1  0  0  0  0  0  0  0  0
   -0.7924    0.6495   -2.3532 N   0  0  0  1  0  0  0  0  0  0  0  0
   -0.3158    1.9986   -2.0873 C   0  0  0  1  0  0  0  0  0  0  0  0
    0.4839    3.8639   -3.3772 O   0  0  0  1  0  0  0  0  0  0  0  0
   -0.2976    2.1769   -4.5462 N   0  0  0  1  0  0  0  0  0  0  0  0
   -1.6998    0.4051   -2.0753 H   0  0  0  1  0  0  0  0  0  0  0  0
   -0.0072   -0.3020   -2.9862 C   0  0  0  1  0  0  0  0  0  0  0  0
    0.0453    2.7937   -5.8189 C   0  0  0  1  0  0  0  0  0  0  0  0
   -0.5441   -1.6953   -3.1578 C   0  0  0  1  0  0  0  0  0  0  0  0
    1.0963    0.0246   -3.3836 O   0  0  0  1  0  0  0  0  0  0  0  0
   -0.7539    1.3097   -4.5487 H   0  0  0  1  0  0  0  0  0  0  0  0
    1.1047    2.9335   -5.8742 H   0  0  0  1  0  0  0  0  0  0  0  0
   -0.4439    3.7420   -5.8987 H   0  0  0  1  0  0  0  0  0  0  0  0
   -0.2727    2.1592   -6.6197 H   0  0  0  1  0  0  0  0  0  0  0  0
    0.2664   -2.3938   -3.1500 H   0  0  0  1  0  0  0  0  0  0  0  0
   -1.0651   -1.7642   -4.0898 H   0  0  0  1  0  0  0  0  0  0  0  0
   -1.2158   -1.9197   -2.3557 H   0  0  0  1  0  0  0  0  0  0  0  0
   -1.3536    2.7536   -1.2672 C   0  0  0  1  0  0  0  0  0  0  0  0
   -2.7436    2.5451   -1.8357 C   0  0  0  1  0  0  0  0  0  0  0  0
   -3.0341    2.9987   -3.1130 C   0  0  0  1  0  0  0  0  0  0  0  0
   -4.3215    2.8980   -3.6057 C   0  0  0  1  0  0  0  0  0  0  0  0
   -5.3209    2.3386   -2.8249 C   0  0  0  1  0  0  0  0  0  0  0  0
   -5.0311    1.8863   -1.5515 C   0  0  0  1  0  0  0  0  0  0  0  0
   -3.7400    1.9872   -1.0570 C   0  0  0  1  0  0  0  0  0  0  0  0
   -6.5572    2.2679   -3.3757 O   0  0  0  1  0  0  0  0  0  0  0  0
   -4.5818    3.3534   -4.8554 O   0  0  0  1  0  0  0  0  0  0  0  0
   -1.1212    3.7980   -1.2829 H   0  0  0  1  0  0  0  0  0  0  0  0
   -1.3302    2.3977   -0.2584 H   0  0  0  1  0  0  0  0  0  0  0  0
   -2.2835    3.4148   -3.7003 H   0  0  0  1  0  0  0  0  0  0  0  0
   -5.7817    1.4703   -0.9641 H   0  0  0  1  0  0  0  0  0  0  0  0
   -3.5211    1.6432   -0.1003 H   0  0  0  1  0  0  0  0  0  0  0  0
   -6.6936    3.0213   -3.9548 H   0  0  0  1  0  0  0  0  0  0  0  0
   -5.4592    3.7422   -4.8784 H   0  0  0  1  0  0  0  0  0  0  0  0
  1  4  1  0  0  0  0
  2  4  1  0  0  0  0
  2  5  2  0  0  0  0
  2  6  1  0  0  0  0
  3  4  1  0  0  0  0
  3  7  1  0  0  0  0
  3  8  1  0  0  0  0
  4 19  1  0  0  0  0
  6  9  1  0  0  0  0
  6 12  1  0  0  0  0
  8 10  1  0  0  0  0
  8 11  2  0  0  0  0
  9 13  1  0  0  0  0
  9 14  1  0  0  0  0
  9 15  1  0  0  0  0
 10 16  1  0  0  0  0
 10 17  1  0  0  0  0
 10 18  1  0  0  0  0
 19 20  1  0  0  0  0
 19 28  1  0  0  0  0
 19 29  1  0  0  0  0
 20 21  4  0  0  0  0
 20 25  4  0  0  0  0
 21 22  4  0  0  0  0
 21 30  1  0  0  0  0
 22 23  4  0  0  0  0
 22 27  1  0  0  0  0
 23 24  4  0  0  0  0
 23 26  1  0  0  0  0
 24 25  4  0  0  0  0
 24 31  1  0  0  0  0
 25 32  1  0  0  0  0
 26 33  1  0  0  0  0
 27 34  1  0  0  0  0
M  END
> <BCLConfClusterSize>
1

> <ConfClashScore>
0 

> <ConfOneFourInteractionScore>
-0.931937 

> <ConfScore>
0.192034 

> <ConfScorePBest>
0.00552689 

> <ConfTolerance>
0.470706 

> <RosettaParamsInstructions>
M  ROOT 3
M  POLY_N_BB 3
M  POLY_CA_BB 4
M  POLY_C_BB 2
M  POLY_O_BB 5
M  POLY_IGNORE 9 10 11 12 13 14 15 16 17 18 
M  POLY_UPPER 6
M  POLY_LOWER 8
M  POLY_CHG 0
M  POLY_PROPERTIES ALPHA_AA D_AA PROTEIN AROMATIC POLYMER 
M  END

$$$$



 34 34  0  0  0  0  0  0  0  0999 V2000
   -0.3765    3.7721   -2.6925 H   0  0  0  1  0  0  0  0  0  0  0  0
   -0.1553    1.7156   -3.0690 C   0  0  0  1  0  0  0  0  0  0  0  0
    1.0061    3.0494   -1.3505 N   0  0  0  1  0  0  0  0  0  0  0  0
   -0.2257    2.8883   -2.1086 C   0  0  0  1  0  0  0  0  0  0  0  0
    0.5856    1.7082   -4.0352 O   0  0  0  1  0  0  0  0  0  0  0  0
   -0.9307    0.6522   -2.8516 N   0  0  0  1  0  0  0  0  0  0  0  0
    0.9607    3.0636   -0.3717 H   0  0  0  1  0  0  0  0  0  0  0  0
    2.1968    3.1784   -1.9426 C   0  0  0  1  0  0  0  0  0  0  0  0
   -0.9750   -0.5357   -3.6968 C   0  0  0  1  0  0  0  0  0  0  0  0
    3.3524    3.5200   -1.0047 C   0  0  0  1  0  0  0  0  0  0  0  0
    2.3674    3.1080   -3.1585 O   0  0  0  1  0  0  0  0  0  0  0  0
   -1.5146    0.6705   -2.0648 H   0  0  0  1  0  0  0  0  0  0  0  0
   -0.0059   -0.9882   -3.7280 H   0  0  0  1  0  0  0  0  0  0  0  0
   -1.2706   -0.2579   -4.6869 H   0  0  0  1  0  0  0  0  0  0  0  0
   -1.6810   -1.2325   -3.2956 H   0  0  0  1  0  0  0  0  0  0  0  0
    3.1333    3.1587   -0.0216 H   0  0  0  1  0  0  0  0  0  0  0  0
    3.4841    4.5814   -0.9732 H   0  0  0  1  0  0  0  0  0  0  0  0
    4.2496    3.0592   -1.3620 H   0  0  0  1  0  0  0  0  0  0  0  0
   -1.4110    2.7631   -1.1655 C   0  0  0  1  0  0  0  0  0  0  0  0
   -2.7542    2.5595   -1.8346 C   0  0  0  1  0  0  0  0  0  0  0  0
   -2.9566    3.0386   -3.1196 C   0  0  0  1  0  0  0  0  0  0  0  0
   -4.2051    2.9415   -3.7045 C   0  0  0  1  0  0  0  0  0  0  0  0
   -5.2535    2.3603   -3.0083 C   0  0  0  1  0  0  0  0  0  0  0  0
   -5.0515    1.8827   -1.7272 C   0  0  0  1  0  0  0  0  0  0  0  0
   -3.7994    1.9800   -1.1404 C   0  0  0  1  0  0  0  0  0  0  0  0
   -6.5076    2.2175   -3.5017 O   0  0  0  1  0  0  0  0  0  0  0  0
   -4.4531    3.3998   -4.9555 O   0  0  0  1  0  0  0  0  0  0  0  0
   -1.4651    3.6587   -0.5825 H   0  0  0  1  0  0  0  0  0  0  0  0
   -1.2333    1.9276   -0.5211 H   0  0  0  1  0  0  0  0  0  0  0  0
   -2.1691    3.4710   -3.6435 H   0  0  0  1  0  0  0  0  0  0  0  0
   -5.8390    1.4503   -1.2034 H   0  0  0  1  0  0  0  0  0  0  0  0
   -3.6465    1.6169   -0.1779 H   0  0  0  1  0  0  0  0  0  0  0  0
   -7.1254    2.7060   -2.9528 H   0  0  0  1  0  0  0  0  0  0  0  0
   -5.2511    3.9334   -4.9490 H   0  0  0  1  0  0  0  0  0  0  0  0
  1  4  1  0  0  0  0
  2  4  1  0  0  0  0
  2  5  2  0  0  0  0
  2  6  1  0  0  0  0
  3  4  1  0  0  0  0
  3  7  1  0  0  0  0
  3  8  1  0  0  0  0
  4 19  1  0  0  0  0
  6  9  1  0  0  0  0
  6 12  1  0  0  0  0
  8 10  1  0  0  0  0
  8 11  2  0  0  0  0
  9 13  1  0  0  0  0
  9 14  1  0  0  0  0
  9 15  1  0  0  0  0
 10 16  1  0  0  0  0
 10 17  1  0  0  0  0
 10 18  1  0  0  0  0
 19 20  1  0  0  0  0
 19 28  1  0  0  0  0
 19 29  1  0  0  0  0
 20 21  4  0  0  0  0
 20 25  4  0  0  0  0
 21 22  4  0  0  0  0
 21 30  1  0  0  0  0
 22 23  4  0  0  0  0
 22 27  1  0  0  0  0
 23 24  4  0  0  0  0
 23 26  1  0  0  0  0
 24 25  4  0  0  0  0
 24 31  1  0  0  0  0
 25 32  1  0  0  0  0
 26 33  1  0  0  0  0
 27 34  1  0  0  0  0
M  END
> <BCLConfClusterSize>
1

> <ConfClashScore>
0 

> <ConfOneFourInteractionScore>
-0.941225 

> <ConfScore>
0.193482 

> <ConfScorePBest>
0.00549841 

> <ConfTolerance>
0.718396 

> <RosettaParamsInstructions>
M  ROOT 3
M  POLY_N_BB 3
M  POLY_CA_BB 4
M  POLY_C_BB 2
M  POLY_O_BB 5
M  POLY_IGNORE 9 10 11 12 13 14 15 16 17 18 
M  POLY_UPPER 6
M  POLY_LOWER 8
M  POLY_CHG 0
M  POLY_PROPERTIES ALPHA_AA D_AA PROTEIN AROMATIC POLYMER 
M  END

$$$$



 34 34  0  0  0  0  0  0  0  0999 V2000
    0.3808    1.4286   -1.0128 H   0  0  0  1  0  0  0  0  0  0  0  0
   -0.2758    0.9128   -2.9339 C   0  0  0  1  0  0  0  0  0  0  0  0
   -1.2712    0.2215   -0.7959 N   0  0  0  1  0  0  0  0  0  0  0  0
   -0.5603    1.2787   -1.4994 C   0  0  0  1  0  0  0  0  0  0  0  0
   -0.1574    1.7182   -3.8389 O   0  0  0  1  0  0  0  0  0  0  0  0
   -0.1613   -0.4007   -3.1362 N   0  0  0  1  0  0  0  0  0  0  0  0
   -0.9733   -0.0319    0.1027 H   0  0  0  1  0  0  0  0  0  0  0  0
   -2.3159   -0.4155   -1.3324 C   0  0  0  1  0  0  0  0  0  0  0  0
    0.2230   -1.0192   -4.3962 C   0  0  0  1  0  0  0  0  0  0  0  0
   -2.9275   -1.5112   -0.4811 C   0  0  0  1  0  0  0  0  0  0  0  0
   -2.7666   -0.1445   -2.4441 O   0  0  0  1  0  0  0  0  0  0  0  0
   -0.3502   -0.9938   -2.3793 H   0  0  0  1  0  0  0  0  0  0  0  0
    1.1706   -0.6332   -4.7092 H   0  0  0  1  0  0  0  0  0  0  0  0
   -0.5143   -0.8003   -5.1402 H   0  0  0  1  0  0  0  0  0  0  0  0
    0.2952   -2.0787   -4.2657 H   0  0  0  1  0  0  0  0  0  0  0  0
   -3.9661   -1.6100   -0.7183 H   0  0  0  1  0  0  0  0  0  0  0  0
   -2.8205   -1.2602    0.5535 H   0  0  0  1  0  0  0  0  0  0  0  0
   -2.4273   -2.4364   -0.6778 H   0  0  0  1  0  0  0  0  0  0  0  0
   -1.3363    2.5954   -1.4013 C   0  0  0  1  0  0  0  0  0  0  0  0
   -2.7545    2.4821   -1.8934 C   0  0  0  1  0  0  0  0  0  0  0  0
   -3.0714    2.9198   -3.1699 C   0  0  0  1  0  0  0  0  0  0  0  0
   -4.3855    2.9073   -3.5982 C   0  0  0  1  0  0  0  0  0  0  0  0
   -5.3857    2.4520   -2.7533 C   0  0  0  1  0  0  0  0  0  0  0  0
   -5.0695    2.0156   -1.4806 C   0  0  0  1  0  0  0  0  0  0  0  0
   -3.7517    2.0281   -1.0509 C   0  0  0  1  0  0  0  0  0  0  0  0
   -6.6658    2.4445   -3.1982 O   0  0  0  1  0  0  0  0  0  0  0  0
   -4.6708    3.3451   -4.8486 O   0  0  0  1  0  0  0  0  0  0  0  0
   -0.8303    3.3334   -1.9879 H   0  0  0  1  0  0  0  0  0  0  0  0
   -1.3549    2.9043   -0.3771 H   0  0  0  1  0  0  0  0  0  0  0  0
   -2.3205    3.2577   -3.8052 H   0  0  0  1  0  0  0  0  0  0  0  0
   -5.8204    1.6778   -0.8453 H   0  0  0  1  0  0  0  0  0  0  0  0
   -3.5133    1.6959   -0.0946 H   0  0  0  1  0  0  0  0  0  0  0  0
   -6.6769    2.2538   -4.1390 H   0  0  0  1  0  0  0  0  0  0  0  0
   -5.0009    4.2456   -4.8053 H   0  0  0  1  0  0  0  0  0  0  0  0
  1  4  1  0  0  0  0
  2  4  1  0  0  0  0
  2  5  2  0  0  0  0
  2  6  1  0  0  0  0
  3  4  1  0  0  0  0
  3  7  1  0  0  0  0
  3  8  1  0  0  0  0
  4 19  1  0  0  0  0
  6  9  1  0  0  0  0
  6 12  1  0  0  0  0
  8 10  1  0  0  0  0
  8 11  2  0  0  0  0
  9 13  1  0  0  0  0
  9 14  1  0  0  0  0
  9 15  1  0  0  0  0
 10 16  1  0  0  0  0
 10 17  1  0  0  0  0
 10 18  1  0  0  0  0
 19 20  1  0  0  0  0
 19 28  1  0  0  0  0
 19 29  1  0  0  0  0
 20 21  4  0  0  0  0
 20 25  4  0  0  0  0
 21 22  4  0  0  0  0
 21 30  1  0  0  0  0
 22 23  4  0  0  0  0
 22 27  1  0  0  0  0
 23 24  4  0  0  0  0
 23 26  1  0  0  0  0
 24 25  4  0  0  0  0
 24 31  1  0  0  0  0
 25 32  1  0  0  0  0
 26 33  1  0  0  0  0
 27 34  1  0  0  0  0
M  END
> <BCLConfClusterSize>
1

> <ConfClashScore>
0 

> <ConfOneFourInteractionScore>
-0.928983 

> <ConfScore>
0.199385 

> <ConfScorePBest>
0.00546993 

> <ConfTolerance>
0.291905 

> <RosettaParamsInstructions>
M  ROOT 3
M  POLY_N_BB 3
M  POLY_CA_BB 4
M  POLY_C_BB 2
M  POLY_O_BB 5
M  POLY_IGNORE 9 10 11 12 13 14 15 16 17 18 
M  POLY_UPPER 6
M  POLY_LOWER 8
M  POLY_CHG 0
M  POLY_PROPERTIES ALPHA_AA D_AA PROTEIN AROMATIC POLYMER 
M  END

$$$$



 34 34  0  0  0  0  0  0  0  0999 V2000
   -0.0379    3.6067   -0.0691 H   0  0  0  1  0  0  0  0  0  0  0  0
   -1.8102    3.5475    1.0288 C   0  0  0  1  0  0  0  0  0  0  0  0
   -1.3170    4.9789   -0.9041 N   0  0  0  1  0  0  0  0  0  0  0  0
   -1.0815    3.6542   -0.3003 C   0  0  0  1  0  0  0  0  0  0  0  0
   -2.3388    2.4950    1.3844 O   0  0  0  1  0  0  0  0  0  0  0  0
   -1.8343    4.6651    1.7721 N   0  0  0  1  0  0  0  0  0  0  0  0
   -0.5678    5.5482   -1.1780 H   0  0  0  1  0  0  0  0  0  0  0  0
   -2.5807    5.3808   -1.0670 C   0  0  0  1  0  0  0  0  0  0  0  0
   -2.4849    4.7199    3.0727 C   0  0  0  1  0  0  0  0  0  0  0  0
   -2.7605    6.7828   -1.6159 C   0  0  0  1  0  0  0  0  0  0  0  0
   -3.5411    4.6786   -0.7970 O   0  0  0  1  0  0  0  0  0  0  0  0
   -1.3985    5.4721    1.4269 H   0  0  0  1  0  0  0  0  0  0  0  0
   -3.5067    5.0125    2.9489 H   0  0  0  1  0  0  0  0  0  0  0  0
   -1.9826    5.4327    3.6927 H   0  0  0  1  0  0  0  0  0  0  0  0
   -2.4439    3.7547    3.5326 H   0  0  0  1  0  0  0  0  0  0  0  0
   -2.4041    6.8200   -2.6241 H   0  0  0  1  0  0  0  0  0  0  0  0
   -2.2062    7.4741   -1.0162 H   0  0  0  1  0  0  0  0  0  0  0  0
   -3.7980    7.0435   -1.5947 H   0  0  0  1  0  0  0  0  0  0  0  0
   -1.3468    2.5084   -1.2631 C   0  0  0  1  0  0  0  0  0  0  0  0
   -2.7334    2.4822   -1.8758 C   0  0  0  1  0  0  0  0  0  0  0  0
   -2.9803    3.0044   -3.1359 C   0  0  0  1  0  0  0  0  0  0  0  0
   -4.2728    3.0510   -3.6234 C   0  0  0  1  0  0  0  0  0  0  0  0
   -5.3214    2.5707   -2.8545 C   0  0  0  1  0  0  0  0  0  0  0  0
   -5.0751    2.0501   -1.5982 C   0  0  0  1  0  0  0  0  0  0  0  0
   -3.7789    2.0033   -1.1090 C   0  0  0  1  0  0  0  0  0  0  0  0
   -6.5602    2.6439   -3.3994 O   0  0  0  1  0  0  0  0  0  0  0  0
   -4.4893    3.5709   -4.8561 O   0  0  0  1  0  0  0  0  0  0  0  0
   -1.2033    1.5908   -0.7317 H   0  0  0  1  0  0  0  0  0  0  0  0
   -0.6353    2.5750   -2.0594 H   0  0  0  1  0  0  0  0  0  0  0  0
   -2.1931    3.3610   -3.7144 H   0  0  0  1  0  0  0  0  0  0  0  0
   -5.8623    1.6935   -1.0197 H   0  0  0  1  0  0  0  0  0  0  0  0
   -3.5932    1.6078   -0.1653 H   0  0  0  1  0  0  0  0  0  0  0  0
   -6.8759    1.7592   -3.5973 H   0  0  0  1  0  0  0  0  0  0  0  0
   -5.3405    4.0145   -4.8718 H   0  0  0  1  0  0  0  0  0  0  0  0
  1  4  1  0  0  0  0
  2  4  1  0  0  0  0
  2  5  2  0  0  0  0
  2  6  1  0  0  0  0
  3  4  1  0  0  0  0
  3  7  1  0  0  0  0
  3  8  1  0  0  0  0
  4 19  1  0  0  0  0
  6  9  1  0  0  0  0
  6 12  1  0  0  0  0
  8 10  1  0  0  0  0
  8 11  2  0  0  0  0
  9 13  1  0  0  0  0
  9 14  1  0  0  0  0
  9 15  1  0  0  0  0
 10 16  1  0  0  0  0
 10 17  1  0  0  0  0
 10 18  1  0  0  0  0
 19 20  1  0  0  0  0
 19 28  1  0  0  0  0
 19 29  1  0  0  0  0
 20 21  4  0  0  0  0
 20 25  4  0  0  0  0
 21 22  4  0  0  0  0
 21 30  1  0  0  0  0
 22 23  4  0  0  0  0
 22 27  1  0  0  0  0
 23 24  4  0  0  0  0
 23 26  1  0  0  0  0
 24 25  4  0  0  0  0
 24 31  1  0  0  0  0
 25 32  1  0  0  0  0
 26 33  1  0  0  0  0
 27 34  1  0  0  0  0
M  END
> <BCLConfClusterSize>
1

> <ConfClashScore>
0 

> <ConfOneFourInteractionScore>
-0.928983 

> <ConfScore>
0.199744 

> <ConfScorePBest>
0.00544145 

> <ConfTolerance>
0.304066 

> <RosettaParamsInstructions>
M  ROOT 3
M  POLY_N_BB 3
M  POLY_CA_BB 4
M  POLY_C_BB 2
M  POLY_O_BB 5
M  POLY_IGNORE 9 10 11 12 13 14 15 16 17 18 
M  POLY_UPPER 6
M  POLY_LOWER 8
M  POLY_CHG 0
M  POLY_PROPERTIES ALPHA_AA D_AA PROTEIN AROMATIC POLYMER 
M  END

$$$$



 34 34  0  0  0  0  0  0  0  0999 V2000
   -0.6402    4.2651   -2.5007 H   0  0  0  1  0  0  0  0  0  0  0  0
    0.5320    4.1550   -0.7589 C   0  0  0  1  0  0  0  0  0  0  0  0
   -1.7653    4.9397   -0.9055 N   0  0  0  1  0  0  0  0  0  0  0  0
   -0.7958    4.0010   -1.4756 C   0  0  0  1  0  0  0  0  0  0  0  0
    1.5961    3.7749   -1.2097 O   0  0  0  1  0  0  0  0  0  0  0  0
    0.4849    4.7492    0.4368 N   0  0  0  1  0  0  0  0  0  0  0  0
   -2.6302    4.5973   -0.5973 H   0  0  0  1  0  0  0  0  0  0  0  0
   -1.5112    6.2464   -0.7910 C   0  0  0  1  0  0  0  0  0  0  0  0
    1.6794    4.9917    1.2320 C   0  0  0  1  0  0  0  0  0  0  0  0
   -2.6238    7.0854   -0.1757 C   0  0  0  1  0  0  0  0  0  0  0  0
   -0.4524    6.7572   -1.1537 O   0  0  0  1  0  0  0  0  0  0  0  0
   -0.3842    5.0315    0.7908 H   0  0  0  1  0  0  0  0  0  0  0  0
    2.1626    4.0608    1.4437 H   0  0  0  1  0  0  0  0  0  0  0  0
    1.4057    5.4680    2.1502 H   0  0  0  1  0  0  0  0  0  0  0  0
    2.3481    5.6245    0.6868 H   0  0  0  1  0  0  0  0  0  0  0  0
   -3.0113    6.5867    0.6879 H   0  0  0  1  0  0  0  0  0  0  0  0
   -3.4074    7.2187   -0.8920 H   0  0  0  1  0  0  0  0  0  0  0  0
   -2.2340    8.0404    0.1091 H   0  0  0  1  0  0  0  0  0  0  0  0
   -1.3599    2.5766   -1.4527 C   0  0  0  1  0  0  0  0  0  0  0  0
   -2.7916    2.4967   -1.9454 C   0  0  0  1  0  0  0  0  0  0  0  0
   -3.1591    2.9835   -3.1902 C   0  0  0  1  0  0  0  0  0  0  0  0
   -4.4888    2.9819   -3.5676 C   0  0  0  1  0  0  0  0  0  0  0  0
   -5.4540    2.4888   -2.7036 C   0  0  0  1  0  0  0  0  0  0  0  0
   -5.0874    2.0036   -1.4626 C   0  0  0  1  0  0  0  0  0  0  0  0
   -3.7540    2.0050   -1.0838 C   0  0  0  1  0  0  0  0  0  0  0  0
   -6.7504    2.4932   -3.0987 O   0  0  0  1  0  0  0  0  0  0  0  0
   -4.8237    3.4679   -4.7876 O   0  0  0  1  0  0  0  0  0  0  0  0
   -1.3251    2.2125   -0.4471 H   0  0  0  1  0  0  0  0  0  0  0  0
   -0.7497    1.9585   -2.0777 H   0  0  0  1  0  0  0  0  0  0  0  0
   -2.4345    3.3498   -3.8401 H   0  0  0  1  0  0  0  0  0  0  0  0
   -5.8121    1.6373   -0.8127 H   0  0  0  1  0  0  0  0  0  0  0  0
   -3.4777    1.6362   -0.1515 H   0  0  0  1  0  0  0  0  0  0  0  0
   -6.8289    2.0475   -3.9454 H   0  0  0  1  0  0  0  0  0  0  0  0
   -4.2009    4.1528   -5.0418 H   0  0  0  1  0  0  0  0  0  0  0  0
  1  4  1  0  0  0  0
  2  4  1  0  0  0  0
  2  5  2  0  0  0  0
  2  6  1  0  0  0  0
  3  4  1  0  0  0  0
  3  7  1  0  0  0  0
  3  8  1  0  0  0  0
  4 19  1  0  0  0  0
  6  9  1  0  0  0  0
  6 12  1  0  0  0  0
  8 10  1  0  0  0  0
  8 11  2  0  0  0  0
  9 13  1  0  0  0  0
  9 14  1  0  0  0  0
  9 15  1  0  0  0  0
 10 16  1  0  0  0  0
 10 17  1  0  0  0  0
 10 18  1  0  0  0  0
 19 20  1  0  0  0  0
 19 28  1  0  0  0  0
 19 29  1  0  0  0  0
 20 21  4  0  0  0  0
 20 25  4  0  0  0  0
 21 22  4  0  0  0  0
 21 30  1  0  0  0  0
 22 23  4  0  0  0  0
 22 27  1  0  0  0  0
 23 24  4  0  0  0  0
 23 26  1  0  0  0  0
 24 25  4  0  0  0  0
 24 31  1  0  0  0  0
 25 32  1  0  0  0  0
 26 33  1  0  0  0  0
 27 34  1  0  0  0  0
M  END
> <BCLConfClusterSize>
1

> <ConfClashScore>
0 

> <ConfOneFourInteractionScore>
-0.94165 

> <ConfScore>
0.200064 

> <ConfScorePBest>
0.00541297 

> <ConfTolerance>
0.472963 

> <RosettaParamsInstructions>
M  ROOT 3
M  POLY_N_BB 3
M  POLY_CA_BB 4
M  POLY_C_BB 2
M  POLY_O_BB 5
M  POLY_IGNORE 9 10 11 12 13 14 15 16 17 18 
M  POLY_UPPER 6
M  POLY_LOWER 8
M  POLY_CHG 0
M  POLY_PROPERTIES ALPHA_AA D_AA PROTEIN AROMATIC POLYMER 
M  END

$$$$



 34 34  0  0  0  0  0  0  0  0999 V2000
   -0.7772    0.7499   -1.3085 H   0  0  0  1  0  0  0  0  0  0  0  0
    0.9779    1.8721   -1.0556 C   0  0  0  1  0  0  0  0  0  0  0  0
   -0.2359    1.5485   -3.1381 N   0  0  0  1  0  0  0  0  0  0  0  0
   -0.3841    1.6727   -1.6811 C   0  0  0  1  0  0  0  0  0  0  0  0
    1.9676    1.2832   -1.4823 O   0  0  0  1  0  0  0  0  0  0  0  0
    1.0243    2.7187   -0.0258 N   0  0  0  1  0  0  0  0  0  0  0  0
   -0.4744    0.7091   -3.5841 H   0  0  0  1  0  0  0  0  0  0  0  0
    0.2233    2.5776   -3.8558 C   0  0  0  1  0  0  0  0  0  0  0  0
    2.2225    3.0401    0.7351 C   0  0  0  1  0  0  0  0  0  0  0  0
    0.2138    2.3879   -5.3601 C   0  0  0  1  0  0  0  0  0  0  0  0
    0.6283    3.6116   -3.3506 O   0  0  0  1  0  0  0  0  0  0  0  0
    0.1887    3.1572    0.2382 H   0  0  0  1  0  0  0  0  0  0  0  0
    2.8180    2.1590    0.8527 H   0  0  0  1  0  0  0  0  0  0  0  0
    1.9435    3.4129    1.6985 H   0  0  0  1  0  0  0  0  0  0  0  0
    2.7868    3.7848    0.2137 H   0  0  0  1  0  0  0  0  0  0  0  0
    1.0684    2.8705   -5.7864 H   0  0  0  1  0  0  0  0  0  0  0  0
   -0.6778    2.8165   -5.7678 H   0  0  0  1  0  0  0  0  0  0  0  0
    0.2441    1.3429   -5.5878 H   0  0  0  1  0  0  0  0  0  0  0  0
   -1.3910    2.7647   -1.3445 C   0  0  0  1  0  0  0  0  0  0  0  0
   -2.7867    2.5548   -1.8984 C   0  0  0  1  0  0  0  0  0  0  0  0
   -3.1391    2.9955   -3.1646 C   0  0  0  1  0  0  0  0  0  0  0  0
   -4.4453    2.8737   -3.5999 C   0  0  0  1  0  0  0  0  0  0  0  0
   -5.4016    2.3059   -2.7725 C   0  0  0  1  0  0  0  0  0  0  0  0
   -5.0501    1.8666   -1.5102 C   0  0  0  1  0  0  0  0  0  0  0  0
   -3.7402    1.9887   -1.0734 C   0  0  0  1  0  0  0  0  0  0  0  0
   -6.6744    2.1927   -3.2241 O   0  0  0  1  0  0  0  0  0  0  0  0
   -4.8825    3.2801   -4.8166 O   0  0  0  1  0  0  0  0  0  0  0  0
   -1.0175    3.6892   -1.7327 H   0  0  0  1  0  0  0  0  0  0  0  0
   -1.4650    2.8285   -0.2790 H   0  0  0  1  0  0  0  0  0  0  0  0
   -2.4208    3.4179   -3.7869 H   0  0  0  1  0  0  0  0  0  0  0  0
   -5.7684    1.4443   -0.8879 H   0  0  0  1  0  0  0  0  0  0  0  0
   -3.4749    1.6544   -0.1250 H   0  0  0  1  0  0  0  0  0  0  0  0
   -6.8906    2.9541   -3.7674 H   0  0  0  1  0  0  0  0  0  0  0  0
   -4.3576    4.0275   -5.1125 H   0  0  0  1  0  0  0  0  0  0  0  0
  1  4  1  0  0  0  0
  2  4  1  0  0  0  0
  2  5  2  0  0  0  0
  2  6  1  0  0  0  0
  3  4  1  0  0  0  0
  3  7  1  0  0  0  0
  3  8  1  0  0  0  0
  4 19  1  0  0  0  0
  6  9  1  0  0  0  0
  6 12  1  0  0  0  0
  8 10  1  0  0  0  0
  8 11  2  0  0  0  0
  9 13  1  0  0  0  0
  9 14  1  0  0  0  0
  9 15  1  0  0  0  0
 10 16  1  0  0  0  0
 10 17  1  0  0  0  0
 10 18  1  0  0  0  0
 19 20  1  0  0  0  0
 19 28  1  0  0  0  0
 19 29  1  0  0  0  0
 20 21  4  0  0  0  0
 20 25  4  0  0  0  0
 21 22  4  0  0  0  0
 21 30  1  0  0  0  0
 22 23  4  0  0  0  0
 22 27  1  0  0  0  0
 23 24  4  0  0  0  0
 23 26  1  0  0  0  0
 24 25  4  0  0  0  0
 24 31  1  0  0  0  0
 25 32  1  0  0  0  0
 26 33  1  0  0  0  0
 27 34  1  0  0  0  0
M  END
> <BCLConfClusterSize>
1

> <ConfClashScore>
0 

> <ConfOneFourInteractionScore>
-0.933935 

> <ConfScore>
0.200292 

> <ConfScorePBest>
0.00538449 

> <ConfTolerance>
0.475458 

> <RosettaParamsInstructions>
M  ROOT 3
M  POLY_N_BB 3
M  POLY_CA_BB 4
M  POLY_C_BB 2
M  POLY_O_BB 5
M  POLY_IGNORE 9 10 11 12 13 14 15 16 17 18 
M  POLY_UPPER 6
M  POLY_LOWER 8
M  POLY_CHG 0
M  POLY_PROPERTIES ALPHA_AA D_AA PROTEIN AROMATIC POLYMER 
M  END

$$$$



 34 34  0  0  0  0  0  0  0  0999 V2000
   -1.0343    4.5195   -2.1336 H   0  0  0  1  0  0  0  0  0  0  0  0
    0.6928    3.9510   -1.0417 C   0  0  0  1  0  0  0  0  0  0  0  0
   -1.4963    4.6290   -0.1204 N   0  0  0  1  0  0  0  0  0  0  0  0
   -0.8236    3.9784   -1.2349 C   0  0  0  1  0  0  0  0  0  0  0  0
    1.2390    4.7698   -0.3071 O   0  0  0  1  0  0  0  0  0  0  0  0
    1.3810    3.0719   -1.7669 N   0  0  0  1  0  0  0  0  0  0  0  0
   -2.3205    5.1303   -0.2929 H   0  0  0  1  0  0  0  0  0  0  0  0
   -1.0144    4.5647    1.1694 C   0  0  0  1  0  0  0  0  0  0  0  0
    2.8325    2.9836   -1.7096 C   0  0  0  1  0  0  0  0  0  0  0  0
   -1.6075    5.5429    2.1410 C   0  0  0  1  0  0  0  0  0  0  0  0
   -0.1598    3.7496    1.4614 O   0  0  0  1  0  0  0  0  0  0  0  0
    0.8932    2.4631   -2.3600 H   0  0  0  1  0  0  0  0  0  0  0  0
    3.1472    2.0301   -2.0791 H   0  0  0  1  0  0  0  0  0  0  0  0
    3.1567    3.0979   -0.6963 H   0  0  0  1  0  0  0  0  0  0  0  0
    3.2607    3.7580   -2.3111 H   0  0  0  1  0  0  0  0  0  0  0  0
   -2.4238    5.0828    2.6577 H   0  0  0  1  0  0  0  0  0  0  0  0
   -1.9606    6.4025    1.6106 H   0  0  0  1  0  0  0  0  0  0  0  0
   -0.8611    5.8407    2.8474 H   0  0  0  1  0  0  0  0  0  0  0  0
   -1.3609    2.5596   -1.3980 C   0  0  0  1  0  0  0  0  0  0  0  0
   -2.7833    2.5198   -1.9215 C   0  0  0  1  0  0  0  0  0  0  0  0
   -3.1288    3.1045   -3.1299 C   0  0  0  1  0  0  0  0  0  0  0  0
   -4.4513    3.1334   -3.5303 C   0  0  0  1  0  0  0  0  0  0  0  0
   -5.4315    2.5730   -2.7262 C   0  0  0  1  0  0  0  0  0  0  0  0
   -5.0869    1.9900   -1.5214 C   0  0  0  1  0  0  0  0  0  0  0  0
   -3.7605    1.9610   -1.1196 C   0  0  0  1  0  0  0  0  0  0  0  0
   -6.7501    2.5500   -3.0384 O   0  0  0  1  0  0  0  0  0  0  0  0
   -4.8829    3.6865   -4.6899 O   0  0  0  1  0  0  0  0  0  0  0  0
   -1.3350    2.0740   -0.4449 H   0  0  0  1  0  0  0  0  0  0  0  0
   -0.7306    2.0336   -2.0842 H   0  0  0  1  0  0  0  0  0  0  0  0
   -2.3929    3.5214   -3.7352 H   0  0  0  1  0  0  0  0  0  0  0  0
   -5.8227    1.5732   -0.9162 H   0  0  0  1  0  0  0  0  0  0  0  0
   -3.5008    1.5187   -0.2149 H   0  0  0  1  0  0  0  0  0  0  0  0
   -6.8896    1.9808   -3.7988 H   0  0  0  1  0  0  0  0  0  0  0  0
   -4.1809    3.6489   -5.3436 H   0  0  0  1  0  0  0  0  0  0  0  0
  1  4  1  0  0  0  0
  2  4  1  0  0  0  0
  2  5  2  0  0  0  0
  2  6  1  0  0  0  0
  3  4  1  0  0  0  0
  3  7  1  0  0  0  0
  3  8  1  0  0  0  0
  4 19  1  0  0  0  0
  6  9  1  0  0  0  0
  6 12  1  0  0  0  0
  8 10  1  0  0  0  0
  8 11  2  0  0  0  0
  9 13  1  0  0  0  0
  9 14  1  0  0  0  0
  9 15  1  0  0  0  0
 10 16  1  0  0  0  0
 10 17  1  0  0  0  0
 10 18  1  0  0  0  0
 19 20  1  0  0  0  0
 19 28  1  0  0  0  0
 19 29  1  0  0  0  0
 20 21  4  0  0  0  0
 20 25  4  0  0  0  0
 21 22  4  0  0  0  0
 21 30  1  0  0  0  0
 22 23  4  0  0  0  0
 22 27  1  0  0  0  0
 23 24  4  0  0  0  0
 23 26  1  0  0  0  0
 24 25  4  0  0  0  0
 24 31  1  0  0  0  0
 25 32  1  0  0  0  0
 26 33  1  0  0  0  0
 27 34  1  0  0  0  0
M  END
> <BCLConfClusterSize>
1

> <ConfClashScore>
0 

> <ConfOneFourInteractionScore>
-0.933935 

> <ConfScore>
0.200706 

> <ConfScorePBest>
0.00535601 

> <ConfTolerance>
0.594572 

> <RosettaParamsInstructions>
M  ROOT 3
M  POLY_N_BB 3
M  POLY_CA_BB 4
M  POLY_C_BB 2
M  POLY_O_BB 5
M  POLY_IGNORE 9 10 11 12 13 14 15 16 17 18 
M  POLY_UPPER 6
M  POLY_LOWER 8
M  POLY_CHG 0
M  POLY_PROPERTIES ALPHA_AA D_AA PROTEIN AROMATIC POLYMER 
M  END

$$$$



 34 34  0  0  0  0  0  0  0  0999 V2000
   -0.9477    0.6249   -1.4688 H   0  0  0  1  0  0  0  0  0  0  0  0
    0.7617    1.6095   -0.7405 C   0  0  0  1  0  0  0  0  0  0  0  0
   -0.0609    1.5757   -3.0720 N   0  0  0  1  0  0  0  0  0  0  0  0
   -0.4440    1.5494   -1.6600 C   0  0  0  1  0  0  0  0  0  0  0  0
    0.8225    0.9748    0.2967 O   0  0  0  1  0  0  0  0  0  0  0  0
    1.7964    2.3851   -1.0764 N   0  0  0  1  0  0  0  0  0  0  0  0
   -0.4809    2.2343   -3.6638 H   0  0  0  1  0  0  0  0  0  0  0  0
    0.8415    0.7330   -3.5824 C   0  0  0  1  0  0  0  0  0  0  0  0
    2.9132    2.6249   -0.1747 C   0  0  0  1  0  0  0  0  0  0  0  0
    0.9215    0.6911   -5.0960 C   0  0  0  1  0  0  0  0  0  0  0  0
    1.5685    0.0294   -2.8861 O   0  0  0  1  0  0  0  0  0  0  0  0
    1.8035    2.8073   -1.9608 H   0  0  0  1  0  0  0  0  0  0  0  0
    3.0603    1.7670    0.4476 H   0  0  0  1  0  0  0  0  0  0  0  0
    2.7010    3.4767    0.4370 H   0  0  0  1  0  0  0  0  0  0  0  0
    3.7996    2.8071   -0.7457 H   0  0  0  1  0  0  0  0  0  0  0  0
   -0.0325    0.9409   -5.5112 H   0  0  0  1  0  0  0  0  0  0  0  0
    1.2008   -0.2926   -5.4111 H   0  0  0  1  0  0  0  0  0  0  0  0
    1.6527    1.3955   -5.4339 H   0  0  0  1  0  0  0  0  0  0  0  0
   -1.4207    2.6627   -1.3625 C   0  0  0  1  0  0  0  0  0  0  0  0
   -2.8150    2.5470   -1.9466 C   0  0  0  1  0  0  0  0  0  0  0  0
   -3.1315    3.0885   -3.1828 C   0  0  0  1  0  0  0  0  0  0  0  0
   -4.4348    3.0487   -3.6413 C   0  0  0  1  0  0  0  0  0  0  0  0
   -5.4243    2.4625   -2.8675 C   0  0  0  1  0  0  0  0  0  0  0  0
   -5.1086    1.9226   -1.6350 C   0  0  0  1  0  0  0  0  0  0  0  0
   -3.8015    1.9625   -1.1750 C   0  0  0  1  0  0  0  0  0  0  0  0
   -6.6775    2.4552   -3.3835 O   0  0  0  1  0  0  0  0  0  0  0  0
   -4.6708    3.6021   -4.8556 O   0  0  0  1  0  0  0  0  0  0  0  0
   -0.9930    3.5711   -1.7324 H   0  0  0  1  0  0  0  0  0  0  0  0
   -1.5230    2.7232   -0.2991 H   0  0  0  1  0  0  0  0  0  0  0  0
   -2.3885    3.5248   -3.7651 H   0  0  0  1  0  0  0  0  0  0  0  0
   -5.8516    1.4864   -1.0527 H   0  0  0  1  0  0  0  0  0  0  0  0
   -3.5633    1.5526   -0.2493 H   0  0  0  1  0  0  0  0  0  0  0  0
   -7.2680    1.9925   -2.7845 H   0  0  0  1  0  0  0  0  0  0  0  0
   -3.8669    4.0126   -5.1824 H   0  0  0  1  0  0  0  0  0  0  0  0
  1  4  1  0  0  0  0
  2  4  1  0  0  0  0
  2  5  2  0  0  0  0
  2  6  1  0  0  0  0
  3  4  1  0  0  0  0
  3  7  1  0  0  0  0
  3  8  1  0  0  0  0
  4 19  1  0  0  0  0
  6  9  1  0  0  0  0
  6 12  1  0  0  0  0
  8 10  1  0  0  0  0
  8 11  2  0  0  0  0
  9 13  1  0  0  0  0
  9 14  1  0  0  0  0
  9 15  1  0  0  0  0
 10 16  1  0  0  0  0
 10 17  1  0  0  0  0
 10 18  1  0  0  0  0
 19 20  1  0  0  0  0
 19 28  1  0  0  0  0
 19 29  1  0  0  0  0
 20 21  4  0  0  0  0
 20 25  4  0  0  0  0
 21 22  4  0  0  0  0
 21 30  1  0  0  0  0
 22 23  4  0  0  0  0
 22 27  1  0  0  0  0
 23 24  4  0  0  0  0
 23 26  1  0  0  0  0
 24 25  4  0  0  0  0
 24 31  1  0  0  0  0
 25 32  1  0  0  0  0
 26 33  1  0  0  0  0
 27 34  1  0  0  0  0
M  END
> <BCLConfClusterSize>
1

> <ConfClashScore>
0 

> <ConfOneFourInteractionScore>
-0.956443 

> <ConfScore>
0.204331 

> <ConfScorePBest>
0.00532753 

> <ConfTolerance>
0.449994 

> <RosettaParamsInstructions>
M  ROOT 3
M  POLY_N_BB 3
M  POLY_CA_BB 4
M  POLY_C_BB 2
M  POLY_O_BB 5
M  POLY_IGNORE 9 10 11 12 13 14 15 16 17 18 
M  POLY_UPPER 6
M  POLY_LOWER 8
M  POLY_CHG 0
M  POLY_PROPERTIES ALPHA_AA D_AA PROTEIN AROMATIC POLYMER 
M  END

$$$$



 34 34  0  0  0  0  0  0  0  0999 V2000
   -1.0322    0.4801   -1.3992 H   0  0  0  1  0  0  0  0  0  0  0  0
    0.7944    1.3076   -0.7466 C   0  0  0  1  0  0  0  0  0  0  0  0
   -0.0935    1.3576   -3.0214 N   0  0  0  1  0  0  0  0  0  0  0  0
   -0.4676    1.3666   -1.6000 C   0  0  0  1  0  0  0  0  0  0  0  0
    1.6870    2.1455   -0.8680 O   0  0  0  1  0  0  0  0  0  0  0  0
    0.8584    0.2937    0.1299 N   0  0  0  1  0  0  0  0  0  0  0  0
   -0.1590    2.2031   -3.5125 H   0  0  0  1  0  0  0  0  0  0  0  0
    0.3282    0.2857   -3.6929 C   0  0  0  1  0  0  0  0  0  0  0  0
    2.0683    0.0766    0.9089 C   0  0  0  1  0  0  0  0  0  0  0  0
    0.6042    0.4990   -5.1641 C   0  0  0  1  0  0  0  0  0  0  0  0
    0.4883   -0.8146   -3.1662 O   0  0  0  1  0  0  0  0  0  0  0  0
    0.0888   -0.3019    0.2457 H   0  0  0  1  0  0  0  0  0  0  0  0
    2.6097    0.9958    0.9916 H   0  0  0  1  0  0  0  0  0  0  0  0
    2.6795   -0.6544    0.4219 H   0  0  0  1  0  0  0  0  0  0  0  0
    1.8055   -0.2714    1.8860 H   0  0  0  1  0  0  0  0  0  0  0  0
    0.4520    1.5291   -5.4104 H   0  0  0  1  0  0  0  0  0  0  0  0
   -0.0602   -0.1079   -5.7430 H   0  0  0  1  0  0  0  0  0  0  0  0
    1.6162    0.2267   -5.3800 H   0  0  0  1  0  0  0  0  0  0  0  0
   -1.3615    2.5472   -1.3019 C   0  0  0  1  0  0  0  0  0  0  0  0
   -2.7562    2.5239   -1.8659 C   0  0  0  1  0  0  0  0  0  0  0  0
   -3.0210    3.1767   -3.0597 C   0  0  0  1  0  0  0  0  0  0  0  0
   -4.3156    3.2414   -3.5394 C   0  0  0  1  0  0  0  0  0  0  0  0
   -5.3484    2.6489   -2.8296 C   0  0  0  1  0  0  0  0  0  0  0  0
   -5.0842    1.9980   -1.6393 C   0  0  0  1  0  0  0  0  0  0  0  0
   -3.7858    1.9331   -1.1580 C   0  0  0  1  0  0  0  0  0  0  0  0
   -6.6324    2.6813   -3.2619 O   0  0  0  1  0  0  0  0  0  0  0  0
   -4.5500    3.8897   -4.7062 O   0  0  0  1  0  0  0  0  0  0  0  0
   -0.8762    3.4208   -1.6841 H   0  0  0  1  0  0  0  0  0  0  0  0
   -1.4476    2.6230   -0.2381 H   0  0  0  1  0  0  0  0  0  0  0  0
   -2.2457    3.6178   -3.5944 H   0  0  0  1  0  0  0  0  0  0  0  0
   -5.8595    1.5570   -1.1047 H   0  0  0  1  0  0  0  0  0  0  0  0
   -3.5865    1.4399   -0.2643 H   0  0  0  1  0  0  0  0  0  0  0  0
   -6.9405    1.7857   -3.4187 H   0  0  0  1  0  0  0  0  0  0  0  0
   -4.9358    3.2802   -5.3397 H   0  0  0  1  0  0  0  0  0  0  0  0
  1  4  1  0  0  0  0
  2  4  1  0  0  0  0
  2  5  2  0  0  0  0
  2  6  1  0  0  0  0
  3  4  1  0  0  0  0
  3  7  1  0  0  0  0
  3  8  1  0  0  0  0
  4 19  1  0  0  0  0
  6  9  1  0  0  0  0
  6 12  1  0  0  0  0
  8 10  1  0  0  0  0
  8 11  2  0  0  0  0
  9 13  1  0  0  0  0
  9 14  1  0  0  0  0
  9 15  1  0  0  0  0
 10 16  1  0  0  0  0
 10 17  1  0  0  0  0
 10 18  1  0  0  0  0
 19 20  1  0  0  0  0
 19 28  1  0  0  0  0
 19 29  1  0  0  0  0
 20 21  4  0  0  0  0
 20 25  4  0  0  0  0
 21 22  4  0  0  0  0
 21 30  1  0  0  0  0
 22 23  4  0  0  0  0
 22 27  1  0  0  0  0
 23 24  4  0  0  0  0
 23 26  1  0  0  0  0
 24 25  4  0  0  0  0
 24 31  1  0  0  0  0
 25 32  1  0  0  0  0
 26 33  1  0  0  0  0
 27 34  1  0  0  0  0
M  END
> <BCLConfClusterSize>
1

> <ConfClashScore>
0 

> <ConfOneFourInteractionScore>
-0.978127 

> <ConfScore>
0.206554 

> <ConfScorePBest>
0.00529905 

> <ConfTolerance>
0.363654 

> <RosettaParamsInstructions>
M  ROOT 3
M  POLY_N_BB 3
M  POLY_CA_BB 4
M  POLY_C_BB 2
M  POLY_O_BB 5
M  POLY_IGNORE 9 10 11 12 13 14 15 16 17 18 
M  POLY_UPPER 6
M  POLY_LOWER 8
M  POLY_CHG 0
M  POLY_PROPERTIES ALPHA_AA D_AA PROTEIN AROMATIC POLYMER 
M  END

$$$$



 34 34  0  0  0  0  0  0  0  0999 V2000
   -0.6262    1.2283   -2.7660 H   0  0  0  1  0  0  0  0  0  0  0  0
    1.0447    1.7710   -1.5926 C   0  0  0  1  0  0  0  0  0  0  0  0
   -0.1286    3.1751   -3.2661 N   0  0  0  1  0  0  0  0  0  0  0  0
   -0.2785    2.1102   -2.2697 C   0  0  0  1  0  0  0  0  0  0  0  0
    1.1220    0.8716   -0.7566 O   0  0  0  1  0  0  0  0  0  0  0  0
    2.0986    2.5115   -1.9684 N   0  0  0  1  0  0  0  0  0  0  0  0
   -0.4267    4.0807   -3.0390 H   0  0  0  1  0  0  0  0  0  0  0  0
    0.4026    2.9532   -4.4780 C   0  0  0  1  0  0  0  0  0  0  0  0
    3.4468    2.2440   -1.4904 C   0  0  0  1  0  0  0  0  0  0  0  0
    0.4137    4.1379   -5.4173 C   0  0  0  1  0  0  0  0  0  0  0  0
    0.8564    1.8622   -4.8209 O   0  0  0  1  0  0  0  0  0  0  0  0
    1.9554    3.2585   -2.5864 H   0  0  0  1  0  0  0  0  0  0  0  0
    3.4751    1.2831   -1.0205 H   0  0  0  1  0  0  0  0  0  0  0  0
    3.7297    2.9951   -0.7828 H   0  0  0  1  0  0  0  0  0  0  0  0
    4.1270    2.2570   -2.3163 H   0  0  0  1  0  0  0  0  0  0  0  0
   -0.4957    4.1555   -5.9808 H   0  0  0  1  0  0  0  0  0  0  0  0
    1.2455    4.0553   -6.0854 H   0  0  0  1  0  0  0  0  0  0  0  0
    0.4993    5.0414   -4.8504 H   0  0  0  1  0  0  0  0  0  0  0  0
   -1.3515    2.5324   -1.2747 C   0  0  0  1  0  0  0  0  0  0  0  0
   -2.7469    2.5255   -1.8675 C   0  0  0  1  0  0  0  0  0  0  0  0
   -3.0307    3.1662   -3.0636 C   0  0  0  1  0  0  0  0  0  0  0  0
   -4.3321    3.2218   -3.5258 C   0  0  0  1  0  0  0  0  0  0  0  0
   -5.3527    2.6325   -2.7960 C   0  0  0  1  0  0  0  0  0  0  0  0
   -5.0696    1.9939   -1.6035 C   0  0  0  1  0  0  0  0  0  0  0  0
   -3.7645    1.9379   -1.1398 C   0  0  0  1  0  0  0  0  0  0  0  0
   -6.6022    2.7222   -3.3131 O   0  0  0  1  0  0  0  0  0  0  0  0
   -4.5850    3.8583   -4.6952 O   0  0  0  1  0  0  0  0  0  0  0  0
   -1.1305    3.5228   -0.9353 H   0  0  0  1  0  0  0  0  0  0  0  0
   -1.3308    1.8574   -0.4447 H   0  0  0  1  0  0  0  0  0  0  0  0
   -2.2645    3.6048   -3.6132 H   0  0  0  1  0  0  0  0  0  0  0  0
   -5.8359    1.5552   -1.0539 H   0  0  0  1  0  0  0  0  0  0  0  0
   -3.5510    1.4539   -0.2444 H   0  0  0  1  0  0  0  0  0  0  0  0
   -6.8929    1.8538   -3.6013 H   0  0  0  1  0  0  0  0  0  0  0  0
   -5.0435    3.2622   -5.2919 H   0  0  0  1  0  0  0  0  0  0  0  0
  1  4  1  0  0  0  0
  2  4  1  0  0  0  0
  2  5  2  0  0  0  0
  2  6  1  0  0  0  0
  3  4  1  0  0  0  0
  3  7  1  0  0  0  0
  3  8  1  0  0  0  0
  4 19  1  0  0  0  0
  6  9  1  0  0  0  0
  6 12  1  0  0  0  0
  8 10  1  0  0  0  0
  8 11  2  0  0  0  0
  9 13  1  0  0  0  0
  9 14  1  0  0  0  0
  9 15  1  0  0  0  0
 10 16  1  0  0  0  0
 10 17  1  0  0  0  0
 10 18  1  0  0  0  0
 19 20  1  0  0  0  0
 19 28  1  0  0  0  0
 19 29  1  0  0  0  0
 20 21  4  0  0  0  0
 20 25  4  0  0  0  0
 21 22  4  0  0  0  0
 21 30  1  0  0  0  0
 22 23  4  0  0  0  0
 22 27  1  0  0  0  0
 23 24  4  0  0  0  0
 23 26  1  0  0  0  0
 24 25  4  0  0  0  0
 24 31  1  0  0  0  0
 25 32  1  0  0  0  0
 26 33  1  0  0  0  0
 27 34  1  0  0  0  0
M  END
> <BCLConfClusterSize>
1

> <ConfClashScore>
0 

> <ConfOneFourInteractionScore>
-0.956443 

> <ConfScore>
0.207178 

> <ConfScorePBest>
0.00527057 

> <ConfTolerance>
0.589107 

> <RosettaParamsInstructions>
M  ROOT 3
M  POLY_N_BB 3
M  POLY_CA_BB 4
M  POLY_C_BB 2
M  POLY_O_BB 5
M  POLY_IGNORE 9 10 11 12 13 14 15 16 17 18 
M  POLY_UPPER 6
M  POLY_LOWER 8
M  POLY_CHG 0
M  POLY_PROPERTIES ALPHA_AA D_AA PROTEIN AROMATIC POLYMER 
M  END

$$$$



 34 34  0  0  0  0  0  0  0  0999 V2000
   -0.1161    3.7415   -0.1151 H   0  0  0  1  0  0  0  0  0  0  0  0
   -2.1476    4.0190    0.4657 C   0  0  0  1  0  0  0  0  0  0  0  0
   -1.0613    4.9474   -1.5223 N   0  0  0  1  0  0  0  0  0  0  0  0
   -1.0681    3.8245   -0.5966 C   0  0  0  1  0  0  0  0  0  0  0  0
   -1.9944    3.5946    1.6103 O   0  0  0  1  0  0  0  0  0  0  0  0
   -3.2760    4.6014    0.0302 N   0  0  0  1  0  0  0  0  0  0  0  0
   -1.6158    4.8987   -2.3289 H   0  0  0  1  0  0  0  0  0  0  0  0
   -0.3181    6.0530   -1.3088 C   0  0  0  1  0  0  0  0  0  0  0  0
   -4.4735    4.7708    0.8397 C   0  0  0  1  0  0  0  0  0  0  0  0
   -0.3130    7.1232   -2.3768 C   0  0  0  1  0  0  0  0  0  0  0  0
    0.3370    6.1888   -0.2764 O   0  0  0  1  0  0  0  0  0  0  0  0
   -3.2946    4.9337   -0.8916 H   0  0  0  1  0  0  0  0  0  0  0  0
   -4.5950    3.9220    1.4796 H   0  0  0  1  0  0  0  0  0  0  0  0
   -5.3265    4.8600    0.1999 H   0  0  0  1  0  0  0  0  0  0  0  0
   -4.3793    5.6552    1.4347 H   0  0  0  1  0  0  0  0  0  0  0  0
    0.5550    7.0097   -2.9921 H   0  0  0  1  0  0  0  0  0  0  0  0
   -0.2985    8.0880   -1.9145 H   0  0  0  1  0  0  0  0  0  0  0  0
   -1.1920    7.0292   -2.9797 H   0  0  0  1  0  0  0  0  0  0  0  0
   -1.3529    2.5383   -1.3610 C   0  0  0  1  0  0  0  0  0  0  0  0
   -2.7635    2.4733   -1.9079 C   0  0  0  1  0  0  0  0  0  0  0  0
   -3.0252    2.9550   -3.1811 C   0  0  0  1  0  0  0  0  0  0  0  0
   -4.3233    2.9867   -3.6546 C   0  0  0  1  0  0  0  0  0  0  0  0
   -5.3629    2.5318   -2.8584 C   0  0  0  1  0  0  0  0  0  0  0  0
   -5.1018    2.0515   -1.5891 C   0  0  0  1  0  0  0  0  0  0  0  0
   -3.8000    2.0197   -1.1140 C   0  0  0  1  0  0  0  0  0  0  0  0
   -6.6264    2.5681   -3.3472 O   0  0  0  1  0  0  0  0  0  0  0  0
   -4.5544    3.4670   -4.9006 O   0  0  0  1  0  0  0  0  0  0  0  0
   -1.2052    1.7097   -0.7004 H   0  0  0  1  0  0  0  0  0  0  0  0
   -0.6669    2.4695   -2.1793 H   0  0  0  1  0  0  0  0  0  0  0  0
   -2.2448    3.2926   -3.7800 H   0  0  0  1  0  0  0  0  0  0  0  0
   -5.8822    1.7139   -0.9902 H   0  0  0  1  0  0  0  0  0  0  0  0
   -3.6031    1.6545   -0.1603 H   0  0  0  1  0  0  0  0  0  0  0  0
   -6.9781    1.6760   -3.3931 H   0  0  0  1  0  0  0  0  0  0  0  0
   -4.8045    4.3922   -4.8461 H   0  0  0  1  0  0  0  0  0  0  0  0
  1  4  1  0  0  0  0
  2  4  1  0  0  0  0
  2  5  2  0  0  0  0
  2  6  1  0  0  0  0
  3  4  1  0  0  0  0
  3  7  1  0  0  0  0
  3  8  1  0  0  0  0
  4 19  1  0  0  0  0
  6  9  1  0  0  0  0
  6 12  1  0  0  0  0
  8 10  1  0  0  0  0
  8 11  2  0  0  0  0
  9 13  1  0  0  0  0
  9 14  1  0  0  0  0
  9 15  1  0  0  0  0
 10 16  1  0  0  0  0
 10 17  1  0  0  0  0
 10 18  1  0  0  0  0
 19 20  1  0  0  0  0
 19 28  1  0  0  0  0
 19 29  1  0  0  0  0
 20 21  4  0  0  0  0
 20 25  4  0  0  0  0
 21 22  4  0  0  0  0
 21 30  1  0  0  0  0
 22 23  4  0  0  0  0
 22 27  1  0  0  0  0
 23 24  4  0  0  0  0
 23 26  1  0  0  0  0
 24 25  4  0  0  0  0
 24 31  1  0  0  0  0
 25 32  1  0  0  0  0
 26 33  1  0  0  0  0
 27 34  1  0  0  0  0
M  END
> <BCLConfClusterSize>
1

> <ConfClashScore>
0 

> <ConfOneFourInteractionScore>
-0.957074 

> <ConfScore>
0.207895 

> <ConfScorePBest>
0.00524209 

> <ConfTolerance>
0.521791 

> <RosettaParamsInstructions>
M  ROOT 3
M  POLY_N_BB 3
M  POLY_CA_BB 4
M  POLY_C_BB 2
M  POLY_O_BB 5
M  POLY_IGNORE 9 10 11 12 13 14 15 16 17 18 
M  POLY_UPPER 6
M  POLY_LOWER 8
M  POLY_CHG 0
M  POLY_PROPERTIES ALPHA_AA D_AA PROTEIN AROMATIC POLYMER 
M  END

$$$$



 34 34  0  0  0  0  0  0  0  0999 V2000
   -0.1650    3.6896   -0.0272 H   0  0  0  1  0  0  0  0  0  0  0  0
   -1.9953    3.3607    0.9658 C   0  0  0  1  0  0  0  0  0  0  0  0
   -1.5740    4.9265   -0.9045 N   0  0  0  1  0  0  0  0  0  0  0  0
   -1.1996    3.6460   -0.2968 C   0  0  0  1  0  0  0  0  0  0  0  0
   -2.3908    4.2788    1.6651 O   0  0  0  1  0  0  0  0  0  0  0  0
   -2.1551    2.0730    1.3102 N   0  0  0  1  0  0  0  0  0  0  0  0
   -2.3783    5.3959   -0.5994 H   0  0  0  1  0  0  0  0  0  0  0  0
   -0.8210    5.4548   -1.8735 C   0  0  0  1  0  0  0  0  0  0  0  0
   -2.9508    1.7729    2.4912 C   0  0  0  1  0  0  0  0  0  0  0  0
   -1.3762    6.7021   -2.5331 C   0  0  0  1  0  0  0  0  0  0  0  0
    0.2547    4.9749   -2.2213 O   0  0  0  1  0  0  0  0  0  0  0  0
   -1.7475    1.3556    0.7815 H   0  0  0  1  0  0  0  0  0  0  0  0
   -2.3018    1.5861    3.3212 H   0  0  0  1  0  0  0  0  0  0  0  0
   -3.5508    0.9065    2.3059 H   0  0  0  1  0  0  0  0  0  0  0  0
   -3.5849    2.6053    2.7148 H   0  0  0  1  0  0  0  0  0  0  0  0
   -2.4415    6.6273   -2.5989 H   0  0  0  1  0  0  0  0  0  0  0  0
   -0.9643    6.7990   -3.5159 H   0  0  0  1  0  0  0  0  0  0  0  0
   -1.1145    7.5603   -1.9500 H   0  0  0  1  0  0  0  0  0  0  0  0
   -1.3585    2.5511   -1.3475 C   0  0  0  1  0  0  0  0  0  0  0  0
   -2.7714    2.5344   -1.8971 C   0  0  0  1  0  0  0  0  0  0  0  0
   -3.0970    3.1753   -3.0824 C   0  0  0  1  0  0  0  0  0  0  0  0
   -4.4124    3.2216   -3.5040 C   0  0  0  1  0  0  0  0  0  0  0  0
   -5.4054    2.6226   -2.7445 C   0  0  0  1  0  0  0  0  0  0  0  0
   -5.0806    1.9837   -1.5628 C   0  0  0  1  0  0  0  0  0  0  0  0
   -3.7614    1.9372   -1.1397 C   0  0  0  1  0  0  0  0  0  0  0  0
   -6.7183    2.6130   -3.0804 O   0  0  0  1  0  0  0  0  0  0  0  0
   -4.6565    3.8694   -4.6691 O   0  0  0  1  0  0  0  0  0  0  0  0
   -1.1445    1.6026   -0.9009 H   0  0  0  1  0  0  0  0  0  0  0  0
   -0.6726    2.7315   -2.1487 H   0  0  0  1  0  0  0  0  0  0  0  0
   -2.3515    3.6212   -3.6543 H   0  0  0  1  0  0  0  0  0  0  0  0
   -5.8261    1.5378   -0.9910 H   0  0  0  1  0  0  0  0  0  0  0  0
   -3.5166    1.4529   -0.2525 H   0  0  0  1  0  0  0  0  0  0  0  0
   -6.8706    1.9513   -3.7591 H   0  0  0  1  0  0  0  0  0  0  0  0
   -4.5968    3.2491   -5.3993 H   0  0  0  1  0  0  0  0  0  0  0  0
  1  4  1  0  0  0  0
  2  4  1  0  0  0  0
  2  5  2  0  0  0  0
  2  6  1  0  0  0  0
  3  4  1  0  0  0  0
  3  7  1  0  0  0  0
  3  8  1  0  0  0  0
  4 19  1  0  0  0  0
  6  9  1  0  0  0  0
  6 12  1  0  0  0  0
  8 10  1  0  0  0  0
  8 11  2  0  0  0  0
  9 13  1  0  0  0  0
  9 14  1  0  0  0  0
  9 15  1  0  0  0  0
 10 16  1  0  0  0  0
 10 17  1  0  0  0  0
 10 18  1  0  0  0  0
 19 20  1  0  0  0  0
 19 28  1  0  0  0  0
 19 29  1  0  0  0  0
 20 21  4  0  0  0  0
 20 25  4  0  0  0  0
 21 22  4  0  0  0  0
 21 30  1  0  0  0  0
 22 23  4  0  0  0  0
 22 27  1  0  0  0  0
 23 24  4  0  0  0  0
 23 26  1  0  0  0  0
 24 25  4  0  0  0  0
 24 31  1  0  0  0  0
 25 32  1  0  0  0  0
 26 33  1  0  0  0  0
 27 34  1  0  0  0  0
M  END
> <BCLConfClusterSize>
1

> <ConfClashScore>
0 

> <ConfOneFourInteractionScore>
-0.927466 

> <ConfScore>
0.208273 

> <ConfScorePBest>
0.00521361 

> <ConfTolerance>
0.452672 

> <RosettaParamsInstructions>
M  ROOT 3
M  POLY_N_BB 3
M  POLY_CA_BB 4
M  POLY_C_BB 2
M  POLY_O_BB 5
M  POLY_IGNORE 9 10 11 12 13 14 15 16 17 18 
M  POLY_UPPER 6
M  POLY_LOWER 8
M  POLY_CHG 0
M  POLY_PROPERTIES ALPHA_AA D_AA PROTEIN AROMATIC POLYMER 
M  END

$$$$



 34 34  0  0  0  0  0  0  0  0999 V2000
   -1.4950    4.5211   -0.5497 H   0  0  0  1  0  0  0  0  0  0  0  0
    0.2233    3.6778    0.3327 C   0  0  0  1  0  0  0  0  0  0  0  0
   -2.1362    3.2749    0.9607 N   0  0  0  1  0  0  0  0  0  0  0  0
   -1.2231    3.5719   -0.1374 C   0  0  0  1  0  0  0  0  0  0  0  0
    0.6513    2.8006    1.0817 O   0  0  0  1  0  0  0  0  0  0  0  0
    0.9477    4.7116   -0.0903 N   0  0  0  1  0  0  0  0  0  0  0  0
   -2.2632    2.3337    1.2024 H   0  0  0  1  0  0  0  0  0  0  0  0
   -2.8111    4.1875    1.6603 C   0  0  0  1  0  0  0  0  0  0  0  0
    2.3337    4.9629    0.2752 C   0  0  0  1  0  0  0  0  0  0  0  0
   -3.8201    3.6404    2.6617 C   0  0  0  1  0  0  0  0  0  0  0  0
   -2.6447    5.3872    1.5210 O   0  0  0  1  0  0  0  0  0  0  0  0
    0.5149    5.3516   -0.6932 H   0  0  0  1  0  0  0  0  0  0  0  0
    2.8561    4.0326    0.3561 H   0  0  0  1  0  0  0  0  0  0  0  0
    2.3676    5.4735    1.2149 H   0  0  0  1  0  0  0  0  0  0  0  0
    2.7966    5.5673   -0.4766 H   0  0  0  1  0  0  0  0  0  0  0  0
   -4.7145    4.2265    2.6241 H   0  0  0  1  0  0  0  0  0  0  0  0
   -3.4052    3.6862    3.6470 H   0  0  0  1  0  0  0  0  0  0  0  0
   -4.0494    2.6242    2.4177 H   0  0  0  1  0  0  0  0  0  0  0  0
   -1.3741    2.5356   -1.2433 C   0  0  0  1  0  0  0  0  0  0  0  0
   -2.7550    2.5321   -1.8693 C   0  0  0  1  0  0  0  0  0  0  0  0
   -3.0119    3.1853   -3.0647 C   0  0  0  1  0  0  0  0  0  0  0  0
   -4.3020    3.2430   -3.5572 C   0  0  0  1  0  0  0  0  0  0  0  0
   -5.3382    2.6432   -2.8586 C   0  0  0  1  0  0  0  0  0  0  0  0
   -5.0819    1.9919   -1.6668 C   0  0  0  1  0  0  0  0  0  0  0  0
   -3.7881    1.9339   -1.1727 C   0  0  0  1  0  0  0  0  0  0  0  0
   -6.6180    2.6687   -3.3036 O   0  0  0  1  0  0  0  0  0  0  0  0
   -4.5286    3.8919   -4.7252 O   0  0  0  1  0  0  0  0  0  0  0  0
   -1.1849    1.5668   -0.8304 H   0  0  0  1  0  0  0  0  0  0  0  0
   -0.6545    2.7452   -2.0069 H   0  0  0  1  0  0  0  0  0  0  0  0
   -2.2339    3.6319   -3.5909 H   0  0  0  1  0  0  0  0  0  0  0  0
   -5.8599    1.5453   -1.1406 H   0  0  0  1  0  0  0  0  0  0  0  0
   -3.5947    1.4404   -0.2779 H   0  0  0  1  0  0  0  0  0  0  0  0
   -6.9883    1.7838   -3.2653 H   0  0  0  1  0  0  0  0  0  0  0  0
   -4.9485    3.2938   -5.3478 H   0  0  0  1  0  0  0  0  0  0  0  0
  1  4  1  0  0  0  0
  2  4  1  0  0  0  0
  2  5  2  0  0  0  0
  2  6  1  0  0  0  0
  3  4  1  0  0  0  0
  3  7  1  0  0  0  0
  3  8  1  0  0  0  0
  4 19  1  0  0  0  0
  6  9  1  0  0  0  0
  6 12  1  0  0  0  0
  8 10  1  0  0  0  0
  8 11  2  0  0  0  0
  9 13  1  0  0  0  0
  9 14  1  0  0  0  0
  9 15  1  0  0  0  0
 10 16  1  0  0  0  0
 10 17  1  0  0  0  0
 10 18  1  0  0  0  0
 19 20  1  0  0  0  0
 19 28  1  0  0  0  0
 19 29  1  0  0  0  0
 20 21  4  0  0  0  0
 20 25  4  0  0  0  0
 21 22  4  0  0  0  0
 21 30  1  0  0  0  0
 22 23  4  0  0  0  0
 22 27  1  0  0  0  0
 23 24  4  0  0  0  0
 23 26  1  0  0  0  0
 24 25  4  0  0  0  0
 24 31  1  0  0  0  0
 25 32  1  0  0  0  0
 26 33  1  0  0  0  0
 27 34  1  0  0  0  0
M  END
> <BCLConfClusterSize>
1

> <ConfClashScore>
0 

> <ConfOneFourInteractionScore>
-0.985807 

> <ConfScore>
0.212368 

> <ConfScorePBest>
0.00518512 

> <ConfTolerance>
0.40478 

> <RosettaParamsInstructions>
M  ROOT 3
M  POLY_N_BB 3
M  POLY_CA_BB 4
M  POLY_C_BB 2
M  POLY_O_BB 5
M  POLY_IGNORE 9 10 11 12 13 14 15 16 17 18 
M  POLY_UPPER 6
M  POLY_LOWER 8
M  POLY_CHG 0
M  POLY_PROPERTIES ALPHA_AA D_AA PROTEIN AROMATIC POLYMER 
M  END

$$$$



 34 34  0  0  0  0  0  0  0  0999 V2000
   -0.0527    4.3077   -0.6373 H   0  0  0  1  0  0  0  0  0  0  0  0
   -2.0046    5.0575   -0.4312 C   0  0  0  1  0  0  0  0  0  0  0  0
   -0.7496    4.7276   -2.5271 N   0  0  0  1  0  0  0  0  0  0  0  0
   -0.9736    4.2328   -1.1769 C   0  0  0  1  0  0  0  0  0  0  0  0
   -1.9761    5.1586    0.7924 O   0  0  0  1  0  0  0  0  0  0  0  0
   -2.9332    5.6574   -1.1928 N   0  0  0  1  0  0  0  0  0  0  0  0
   -1.3113    5.4572   -2.8626 H   0  0  0  1  0  0  0  0  0  0  0  0
    0.2044    4.2169   -3.3328 C   0  0  0  1  0  0  0  0  0  0  0  0
   -4.0533    6.3479   -0.5711 C   0  0  0  1  0  0  0  0  0  0  0  0
    0.4627    4.9057   -4.6537 C   0  0  0  1  0  0  0  0  0  0  0  0
    0.8466    3.2201   -3.0048 O   0  0  0  1  0  0  0  0  0  0  0  0
   -2.8566    5.6304   -2.1694 H   0  0  0  1  0  0  0  0  0  0  0  0
   -4.6246    5.6526    0.0078 H   0  0  0  1  0  0  0  0  0  0  0  0
   -4.6747    6.7747   -1.3305 H   0  0  0  1  0  0  0  0  0  0  0  0
   -3.6842    7.1239    0.0664 H   0  0  0  1  0  0  0  0  0  0  0  0
   -0.4018    4.8170   -5.2779 H   0  0  0  1  0  0  0  0  0  0  0  0
    1.2999    4.4471   -5.1371 H   0  0  0  1  0  0  0  0  0  0  0  0
    0.6729    5.9406   -4.4809 H   0  0  0  1  0  0  0  0  0  0  0  0
   -1.3596    2.7598   -1.2127 C   0  0  0  1  0  0  0  0  0  0  0  0
   -2.7396    2.5803   -1.8146 C   0  0  0  1  0  0  0  0  0  0  0  0
   -3.0248    3.1433   -3.0489 C   0  0  0  1  0  0  0  0  0  0  0  0
   -4.3049    3.0659   -3.5643 C   0  0  0  1  0  0  0  0  0  0  0  0
   -5.3022    2.4208   -2.8497 C   0  0  0  1  0  0  0  0  0  0  0  0
   -5.0176    1.8595   -1.6192 C   0  0  0  1  0  0  0  0  0  0  0  0
   -3.7339    1.9370   -1.1020 C   0  0  0  1  0  0  0  0  0  0  0  0
   -6.5818    2.2914   -3.2768 O   0  0  0  1  0  0  0  0  0  0  0  0
   -4.6333    3.6051   -4.7635 O   0  0  0  1  0  0  0  0  0  0  0  0
   -1.3589    2.3726   -0.2152 H   0  0  0  1  0  0  0  0  0  0  0  0
   -0.6465    2.2246   -1.8042 H   0  0  0  1  0  0  0  0  0  0  0  0
   -2.2756    3.6238   -3.5869 H   0  0  0  1  0  0  0  0  0  0  0  0
   -5.7668    1.3790   -1.0811 H   0  0  0  1  0  0  0  0  0  0  0  0
   -3.5189    1.5111   -0.1779 H   0  0  0  1  0  0  0  0  0  0  0  0
   -6.8116    3.0401   -3.8320 H   0  0  0  1  0  0  0  0  0  0  0  0
   -5.3525    3.1035   -5.1542 H   0  0  0  1  0  0  0  0  0  0  0  0
  1  4  1  0  0  0  0
  2  4  1  0  0  0  0
  2  5  2  0  0  0  0
  2  6  1  0  0  0  0
  3  4  1  0  0  0  0
  3  7  1  0  0  0  0
  3  8  1  0  0  0  0
  4 19  1  0  0  0  0
  6  9  1  0  0  0  0
  6 12  1  0  0  0  0
  8 10  1  0  0  0  0
  8 11  2  0  0  0  0
  9 13  1  0  0  0  0
  9 14  1  0  0  0  0
  9 15  1  0  0  0  0
 10 16  1  0  0  0  0
 10 17  1  0  0  0  0
 10 18  1  0  0  0  0
 19 20  1  0  0  0  0
 19 28  1  0  0  0  0
 19 29  1  0  0  0  0
 20 21  4  0  0  0  0
 20 25  4  0  0  0  0
 21 22  4  0  0  0  0
 21 30  1  0  0  0  0
 22 23  4  0  0  0  0
 22 27  1  0  0  0  0
 23 24  4  0  0  0  0
 23 26  1  0  0  0  0
 24 25  4  0  0  0  0
 24 31  1  0  0  0  0
 25 32  1  0  0  0  0
 26 33  1  0  0  0  0
 27 34  1  0  0  0  0
M  END
> <BCLConfClusterSize>
1

> <ConfClashScore>
0 

> <ConfOneFourInteractionScore>
-0.959103 

> <ConfScore>
0.213802 

> <ConfScorePBest>
0.00515664 

> <ConfTolerance>
0.669354 

> <RosettaParamsInstructions>
M  ROOT 3
M  POLY_N_BB 3
M  POLY_CA_BB 4
M  POLY_C_BB 2
M  POLY_O_BB 5
M  POLY_IGNORE 9 10 11 12 13 14 15 16 17 18 
M  POLY_UPPER 6
M  POLY_LOWER 8
M  POLY_CHG 0
M  POLY_PROPERTIES ALPHA_AA D_AA PROTEIN AROMATIC POLYMER 
M  END

$$$$



 34 34  0  0  0  0  0  0  0  0999 V2000
    0.0128    3.5671   -0.1885 H   0  0  0  1  0  0  0  0  0  0  0  0
   -1.7374    3.2507    0.9581 C   0  0  0  1  0  0  0  0  0  0  0  0
   -1.4336    4.8870   -0.8628 N   0  0  0  1  0  0  0  0  0  0  0  0
   -1.0438    3.5755   -0.3572 C   0  0  0  1  0  0  0  0  0  0  0  0
   -1.2115    2.5034    1.7806 O   0  0  0  1  0  0  0  0  0  0  0  0
   -2.9323    3.8012    1.1907 N   0  0  0  1  0  0  0  0  0  0  0  0
   -2.3681    5.1689   -0.7755 H   0  0  0  1  0  0  0  0  0  0  0  0
   -0.5610    5.7173   -1.4409 C   0  0  0  1  0  0  0  0  0  0  0  0
   -3.7434    3.4401    2.3438 C   0  0  0  1  0  0  0  0  0  0  0  0
   -1.1531    6.9683   -2.0601 C   0  0  0  1  0  0  0  0  0  0  0  0
    0.6490    5.4976   -1.4782 O   0  0  0  1  0  0  0  0  0  0  0  0
   -3.2746    4.4714    0.5629 H   0  0  0  1  0  0  0  0  0  0  0  0
   -3.5272    2.4323    2.6311 H   0  0  0  1  0  0  0  0  0  0  0  0
   -4.7797    3.5242    2.0910 H   0  0  0  1  0  0  0  0  0  0  0  0
   -3.5196    4.0984    3.1571 H   0  0  0  1  0  0  0  0  0  0  0  0
   -1.5061    6.7464   -3.0456 H   0  0  0  1  0  0  0  0  0  0  0  0
   -0.4026    7.7292   -2.1133 H   0  0  0  1  0  0  0  0  0  0  0  0
   -1.9684    7.3122   -1.4585 H   0  0  0  1  0  0  0  0  0  0  0  0
   -1.3613    2.5203   -1.3904 C   0  0  0  1  0  0  0  0  0  0  0  0
   -2.7753    2.4762   -1.9359 C   0  0  0  1  0  0  0  0  0  0  0  0
   -3.0821    2.9619   -3.1975 C   0  0  0  1  0  0  0  0  0  0  0  0
   -4.3963    2.9942   -3.6245 C   0  0  0  1  0  0  0  0  0  0  0  0
   -5.4067    2.5361   -2.7935 C   0  0  0  1  0  0  0  0  0  0  0  0
   -5.1006    2.0519   -1.5358 C   0  0  0  1  0  0  0  0  0  0  0  0
   -3.7827    2.0193   -1.1072 C   0  0  0  1  0  0  0  0  0  0  0  0
   -6.7087    2.5429   -3.1697 O   0  0  0  1  0  0  0  0  0  0  0  0
   -4.7461    3.4645   -4.8464 O   0  0  0  1  0  0  0  0  0  0  0  0
   -1.1592    1.5675   -0.9474 H   0  0  0  1  0  0  0  0  0  0  0  0
   -0.7030    2.6755   -2.2195 H   0  0  0  1  0  0  0  0  0  0  0  0
   -2.3237    3.3019   -3.8225 H   0  0  0  1  0  0  0  0  0  0  0  0
   -5.8591    1.7118   -0.9107 H   0  0  0  1  0  0  0  0  0  0  0  0
   -3.5520    1.6512   -0.1623 H   0  0  0  1  0  0  0  0  0  0  0  0
   -6.9119    1.7286   -3.6357 H   0  0  0  1  0  0  0  0  0  0  0  0
   -4.4166    4.3600   -4.9516 H   0  0  0  1  0  0  0  0  0  0  0  0
  1  4  1  0  0  0  0
  2  4  1  0  0  0  0
  2  5  2  0  0  0  0
  2  6  1  0  0  0  0
  3  4  1  0  0  0  0
  3  7  1  0  0  0  0
  3  8  1  0  0  0  0
  4 19  1  0  0  0  0
  6  9  1  0  0  0  0
  6 12  1  0  0  0  0
  8 10  1  0  0  0  0
  8 11  2  0  0  0  0
  9 13  1  0  0  0  0
  9 14  1  0  0  0  0
  9 15  1  0  0  0  0
 10 16  1  0  0  0  0
 10 17  1  0  0  0  0
 10 18  1  0  0  0  0
 19 20  1  0  0  0  0
 19 28  1  0  0  0  0
 19 29  1  0  0  0  0
 20 21  4  0  0  0  0
 20 25  4  0  0  0  0
 21 22  4  0  0  0  0
 21 30  1  0  0  0  0
 22 23  4  0  0  0  0
 22 27  1  0  0  0  0
 23 24  4  0  0  0  0
 23 26  1  0  0  0  0
 24 25  4  0  0  0  0
 24 31  1  0  0  0  0
 25 32  1  0  0  0  0
 26 33  1  0  0  0  0
 27 34  1  0  0  0  0
M  END
> <BCLConfClusterSize>
1

> <ConfClashScore>
0 

> <ConfOneFourInteractionScore>
-0.9553 

> <ConfScore>
0.216299 

> <ConfScorePBest>
0.00512816 

> <ConfTolerance>
0.559554 

> <RosettaParamsInstructions>
M  ROOT 3
M  POLY_N_BB 3
M  POLY_CA_BB 4
M  POLY_C_BB 2
M  POLY_O_BB 5
M  POLY_IGNORE 9 10 11 12 13 14 15 16 17 18 
M  POLY_UPPER 6
M  POLY_LOWER 8
M  POLY_CHG 0
M  POLY_PROPERTIES ALPHA_AA D_AA PROTEIN AROMATIC POLYMER 
M  END

$$$$



 34 34  0  0  0  0  0  0  0  0999 V2000
    0.4498    1.9533   -1.1621 H   0  0  0  1  0  0  0  0  0  0  0  0
   -0.3568    1.0800   -2.8710 C   0  0  0  1  0  0  0  0  0  0  0  0
   -0.9045    0.5640   -0.5072 N   0  0  0  1  0  0  0  0  0  0  0  0
   -0.5197    1.6134   -1.4610 C   0  0  0  1  0  0  0  0  0  0  0  0
   -0.6576    1.7615   -3.8502 O   0  0  0  1  0  0  0  0  0  0  0  0
    0.1307   -0.1668   -2.9701 N   0  0  0  1  0  0  0  0  0  0  0  0
   -0.4000    0.4763    0.3284 H   0  0  0  1  0  0  0  0  0  0  0  0
   -1.9268   -0.2817   -0.7413 C   0  0  0  1  0  0  0  0  0  0  0  0
    0.2415   -0.9042   -4.2199 C   0  0  0  1  0  0  0  0  0  0  0  0
   -2.3476   -1.0869    0.4814 C   0  0  0  1  0  0  0  0  0  0  0  0
   -2.4854   -0.4150   -1.8183 O   0  0  0  1  0  0  0  0  0  0  0  0
    0.4311   -0.6087   -2.1486 H   0  0  0  1  0  0  0  0  0  0  0  0
   -0.1544   -0.3135   -5.0194 H   0  0  0  1  0  0  0  0  0  0  0  0
   -0.3104   -1.8179   -4.1447 H   0  0  0  1  0  0  0  0  0  0  0  0
    1.2705   -1.1235   -4.4144 H   0  0  0  1  0  0  0  0  0  0  0  0
   -1.6205   -1.8475    0.6757 H   0  0  0  1  0  0  0  0  0  0  0  0
   -3.2988   -1.5416    0.2987 H   0  0  0  1  0  0  0  0  0  0  0  0
   -2.4191   -0.4373    1.3286 H   0  0  0  1  0  0  0  0  0  0  0  0
   -1.4385    2.8242   -1.3454 C   0  0  0  1  0  0  0  0  0  0  0  0
   -2.8133    2.5768   -1.9063 C   0  0  0  1  0  0  0  0  0  0  0  0
   -3.1277    3.0424   -3.1736 C   0  0  0  1  0  0  0  0  0  0  0  0
   -4.4134    2.9034   -3.6614 C   0  0  0  1  0  0  0  0  0  0  0  0
   -5.3871    2.2938   -2.8856 C   0  0  0  1  0  0  0  0  0  0  0  0
   -5.0735    1.8298   -1.6221 C   0  0  0  1  0  0  0  0  0  0  0  0
   -3.7841    1.9690   -1.1327 C   0  0  0  1  0  0  0  0  0  0  0  0
   -6.6391    2.1647   -3.3883 O   0  0  0  1  0  0  0  0  0  0  0  0
   -4.6975    3.3712   -4.9012 O   0  0  0  1  0  0  0  0  0  0  0  0
   -0.9954    3.6400   -1.8773 H   0  0  0  1  0  0  0  0  0  0  0  0
   -1.5339    3.0818   -0.3112 H   0  0  0  1  0  0  0  0  0  0  0  0
   -2.3962    3.4961   -3.7573 H   0  0  0  1  0  0  0  0  0  0  0  0
   -5.8050    1.3760   -1.0385 H   0  0  0  1  0  0  0  0  0  0  0  0
   -3.5472    1.6162   -0.1835 H   0  0  0  1  0  0  0  0  0  0  0  0
   -7.2241    2.7913   -2.9562 H   0  0  0  1  0  0  0  0  0  0  0  0
   -4.0762    4.0658   -5.1318 H   0  0  0  1  0  0  0  0  0  0  0  0
  1  4  1  0  0  0  0
  2  4  1  0  0  0  0
  2  5  2  0  0  0  0
  2  6  1  0  0  0  0
  3  4  1  0  0  0  0
  3  7  1  0  0  0  0
  3  8  1  0  0  0  0
  4 19  1  0  0  0  0
  6  9  1  0  0  0  0
  6 12  1  0  0  0  0
  8 10  1  0  0  0  0
  8 11  2  0  0  0  0
  9 13  1  0  0  0  0
  9 14  1  0  0  0  0
  9 15  1  0  0  0  0
 10 16  1  0  0  0  0
 10 17  1  0  0  0  0
 10 18  1  0  0  0  0
 19 20  1  0  0  0  0
 19 28  1  0  0  0  0
 19 29  1  0  0  0  0
 20 21  4  0  0  0  0
 20 25  4  0  0  0  0
 21 22  4  0  0  0  0
 21 30  1  0  0  0  0
 22 23  4  0  0  0  0
 22 27  1  0  0  0  0
 23 24  4  0  0  0  0
 23 26  1  0  0  0  0
 24 25  4  0  0  0  0
 24 31  1  0  0  0  0
 25 32  1  0  0  0  0
 26 33  1  0  0  0  0
 27 34  1  0  0  0  0
M  END
> <BCLConfClusterSize>
1

> <ConfClashScore>
0 

> <ConfOneFourInteractionScore>
-0.95412 

> <ConfScore>
0.216893 

> <ConfScorePBest>
0.00509968 

> <ConfTolerance>
0.376394 

> <RosettaParamsInstructions>
M  ROOT 3
M  POLY_N_BB 3
M  POLY_CA_BB 4
M  POLY_C_BB 2
M  POLY_O_BB 5
M  POLY_IGNORE 9 10 11 12 13 14 15 16 17 18 
M  POLY_UPPER 6
M  POLY_LOWER 8
M  POLY_CHG 0
M  POLY_PROPERTIES ALPHA_AA D_AA PROTEIN AROMATIC POLYMER 
M  END

$$$$



 34 34  0  0  0  0  0  0  0  0999 V2000
   -0.9883    4.6083   -1.2219 H   0  0  0  1  0  0  0  0  0  0  0  0
    0.3301    3.7414    0.1664 C   0  0  0  1  0  0  0  0  0  0  0  0
   -2.0974    4.0932    0.4365 N   0  0  0  1  0  0  0  0  0  0  0  0
   -1.0249    3.8098   -0.5106 C   0  0  0  1  0  0  0  0  0  0  0  0
    1.3543    3.5959   -0.4803 O   0  0  0  1  0  0  0  0  0  0  0  0
    0.3198    3.8505    1.5037 N   0  0  0  1  0  0  0  0  0  0  0  0
   -2.4488    5.0062    0.4938 H   0  0  0  1  0  0  0  0  0  0  0  0
   -2.6174    3.1513    1.2287 C   0  0  0  1  0  0  0  0  0  0  0  0
    1.5293    3.7254    2.3032 C   0  0  0  1  0  0  0  0  0  0  0  0
   -3.7476    3.6019    2.1335 C   0  0  0  1  0  0  0  0  0  0  0  0
   -2.2209    1.9970    1.2373 O   0  0  0  1  0  0  0  0  0  0  0  0
   -0.5319    4.0204    1.9577 H   0  0  0  1  0  0  0  0  0  0  0  0
    1.8189    2.6966    2.3542 H   0  0  0  1  0  0  0  0  0  0  0  0
    1.3432    4.0926    3.2908 H   0  0  0  1  0  0  0  0  0  0  0  0
    2.3150    4.2949    1.8525 H   0  0  0  1  0  0  0  0  0  0  0  0
   -4.6651    3.1588    1.8067 H   0  0  0  1  0  0  0  0  0  0  0  0
   -3.8327    4.6678    2.0938 H   0  0  0  1  0  0  0  0  0  0  0  0
   -3.5427    3.2972    3.1385 H   0  0  0  1  0  0  0  0  0  0  0  0
   -1.3286    2.5236   -1.2861 C   0  0  0  1  0  0  0  0  0  0  0  0
   -2.7233    2.4914   -1.8516 C   0  0  0  1  0  0  0  0  0  0  0  0
   -2.9696    3.0551   -3.0938 C   0  0  0  1  0  0  0  0  0  0  0  0
   -4.2615    3.1146   -3.5816 C   0  0  0  1  0  0  0  0  0  0  0  0
   -5.3100    2.6058   -2.8311 C   0  0  0  1  0  0  0  0  0  0  0  0
   -5.0641    2.0437   -1.5926 C   0  0  0  1  0  0  0  0  0  0  0  0
   -3.7686    1.9840   -1.1032 C   0  0  0  1  0  0  0  0  0  0  0  0
   -6.5921    2.6366   -3.2691 O   0  0  0  1  0  0  0  0  0  0  0  0
   -4.5527    3.6605   -4.7873 O   0  0  0  1  0  0  0  0  0  0  0  0
   -1.2100    1.6910   -0.6246 H   0  0  0  1  0  0  0  0  0  0  0  0
   -0.6316    2.4403   -2.0937 H   0  0  0  1  0  0  0  0  0  0  0  0
   -2.1825    3.4333   -3.6587 H   0  0  0  1  0  0  0  0  0  0  0  0
   -5.8513    1.6656   -1.0278 H   0  0  0  1  0  0  0  0  0  0  0  0
   -3.5832    1.5574   -0.1730 H   0  0  0  1  0  0  0  0  0  0  0  0
   -6.7345    1.9220   -3.8941 H   0  0  0  1  0  0  0  0  0  0  0  0
   -5.5010    3.6273   -4.9335 H   0  0  0  1  0  0  0  0  0  0  0  0
  1  4  1  0  0  0  0
  2  4  1  0  0  0  0
  2  5  2  0  0  0  0
  2  6  1  0  0  0  0
  3  4  1  0  0  0  0
  3  7  1  0  0  0  0
  3  8  1  0  0  0  0
  4 19  1  0  0  0  0
  6  9  1  0  0  0  0
  6 12  1  0  0  0  0
  8 10  1  0  0  0  0
  8 11  2  0  0  0  0
  9 13  1  0  0  0  0
  9 14  1  0  0  0  0
  9 15  1  0  0  0  0
 10 16  1  0  0  0  0
 10 17  1  0  0  0  0
 10 18  1  0  0  0  0
 19 20  1  0  0  0  0
 19 28  1  0  0  0  0
 19 29  1  0  0  0  0
 20 21  4  0  0  0  0
 20 25  4  0  0  0  0
 21 22  4  0  0  0  0
 21 30  1  0  0  0  0
 22 23  4  0  0  0  0
 22 27  1  0  0  0  0
 23 24  4  0  0  0  0
 23 26  1  0  0  0  0
 24 25  4  0  0  0  0
 24 31  1  0  0  0  0
 25 32  1  0  0  0  0
 26 33  1  0  0  0  0
 27 34  1  0  0  0  0
M  END
> <BCLConfClusterSize>
1

> <ConfClashScore>
0 

> <ConfOneFourInteractionScore>
-0.940043 

> <ConfScore>
0.217808 

> <ConfScorePBest>
0.0050712 

> <ConfTolerance>
0.426338 

> <RosettaParamsInstructions>
M  ROOT 3
M  POLY_N_BB 3
M  POLY_CA_BB 4
M  POLY_C_BB 2
M  POLY_O_BB 5
M  POLY_IGNORE 9 10 11 12 13 14 15 16 17 18 
M  POLY_UPPER 6
M  POLY_LOWER 8
M  POLY_CHG 0
M  POLY_PROPERTIES ALPHA_AA D_AA PROTEIN AROMATIC POLYMER 
M  END

$$$$



 34 34  0  0  0  0  0  0  0  0999 V2000
   -0.9389    0.4895   -0.8733 H   0  0  0  1  0  0  0  0  0  0  0  0
    0.9060    1.4920   -0.9601 C   0  0  0  1  0  0  0  0  0  0  0  0
   -0.5603    0.9000   -2.8701 N   0  0  0  1  0  0  0  0  0  0  0  0
   -0.5143    1.2852   -1.4490 C   0  0  0  1  0  0  0  0  0  0  0  0
    1.1952    1.0774    0.1616 O   0  0  0  1  0  0  0  0  0  0  0  0
    1.7651    2.1101   -1.7677 N   0  0  0  1  0  0  0  0  0  0  0  0
    0.2334    1.0469   -3.4259 H   0  0  0  1  0  0  0  0  0  0  0  0
   -1.6632    0.3489   -3.4363 C   0  0  0  1  0  0  0  0  0  0  0  0
    3.1259    2.4260   -1.3598 C   0  0  0  1  0  0  0  0  0  0  0  0
   -1.5693    0.0670   -4.9232 C   0  0  0  1  0  0  0  0  0  0  0  0
   -2.6747    0.0897   -2.8054 O   0  0  0  1  0  0  0  0  0  0  0  0
    1.4709    2.3610   -2.6682 H   0  0  0  1  0  0  0  0  0  0  0  0
    3.1683    2.5127   -0.2942 H   0  0  0  1  0  0  0  0  0  0  0  0
    3.4255    3.3518   -1.8049 H   0  0  0  1  0  0  0  0  0  0  0  0
    3.7843    1.6459   -1.6804 H   0  0  0  1  0  0  0  0  0  0  0  0
   -0.6810   -0.4943   -5.1249 H   0  0  0  1  0  0  0  0  0  0  0  0
   -1.5361    0.9920   -5.4599 H   0  0  0  1  0  0  0  0  0  0  0  0
   -2.4247   -0.4957   -5.2340 H   0  0  0  1  0  0  0  0  0  0  0  0
   -1.3686    2.5197   -1.2108 C   0  0  0  1  0  0  0  0  0  0  0  0
   -2.7364    2.4995   -1.8646 C   0  0  0  1  0  0  0  0  0  0  0  0
   -2.9524    3.0613   -3.1134 C   0  0  0  1  0  0  0  0  0  0  0  0
   -4.2306    3.1106   -3.6369 C   0  0  0  1  0  0  0  0  0  0  0  0
   -5.2956    2.5937   -2.9158 C   0  0  0  1  0  0  0  0  0  0  0  0
   -5.0800    2.0337   -1.6708 C   0  0  0  1  0  0  0  0  0  0  0  0
   -3.7982    1.9840   -1.1455 C   0  0  0  1  0  0  0  0  0  0  0  0
   -6.5653    2.6145   -3.3894 O   0  0  0  1  0  0  0  0  0  0  0  0
   -4.4171    3.6695   -4.8574 O   0  0  0  1  0  0  0  0  0  0  0  0
   -0.8354    3.3677   -1.5869 H   0  0  0  1  0  0  0  0  0  0  0  0
   -1.5088    2.6254   -0.1553 H   0  0  0  1  0  0  0  0  0  0  0  0
   -2.1529    3.4455   -3.6562 H   0  0  0  1  0  0  0  0  0  0  0  0
   -5.8796    1.6494   -1.1280 H   0  0  0  1  0  0  0  0  0  0  0  0
   -3.6355    1.5590   -0.2104 H   0  0  0  1  0  0  0  0  0  0  0  0
   -6.9585    1.7444   -3.2905 H   0  0  0  1  0  0  0  0  0  0  0  0
   -5.3527    3.8358   -4.9941 H   0  0  0  1  0  0  0  0  0  0  0  0
  1  4  1  0  0  0  0
  2  4  1  0  0  0  0
  2  5  2  0  0  0  0
  2  6  1  0  0  0  0
  3  4  1  0  0  0  0
  3  7  1  0  0  0  0
  3  8  1  0  0  0  0
  4 19  1  0  0  0  0
  6  9  1  0  0  0  0
  6 12  1  0  0  0  0
  8 10  1  0  0  0  0
  8 11  2  0  0  0  0
  9 13  1  0  0  0  0
  9 14  1  0  0  0  0
  9 15  1  0  0  0  0
 10 16  1  0  0  0  0
 10 17  1  0  0  0  0
 10 18  1  0  0  0  0
 19 20  1  0  0  0  0
 19 28  1  0  0  0  0
 19 29  1  0  0  0  0
 20 21  4  0  0  0  0
 20 25  4  0  0  0  0
 21 22  4  0  0  0  0
 21 30  1  0  0  0  0
 22 23  4  0  0  0  0
 22 27  1  0  0  0  0
 23 24  4  0  0  0  0
 23 26  1  0  0  0  0
 24 25  4  0  0  0  0
 24 31  1  0  0  0  0
 25 32  1  0  0  0  0
 26 33  1  0  0  0  0
 27 34  1  0  0  0  0
M  END
> <BCLConfClusterSize>
1

> <ConfClashScore>
0 

> <ConfOneFourInteractionScore>
-0.965014 

> <ConfScore>
0.222048 

> <ConfScorePBest>
0.00504272 

> <ConfTolerance>
0.586029 

> <RosettaParamsInstructions>
M  ROOT 3
M  POLY_N_BB 3
M  POLY_CA_BB 4
M  POLY_C_BB 2
M  POLY_O_BB 5
M  POLY_IGNORE 9 10 11 12 13 14 15 16 17 18 
M  POLY_UPPER 6
M  POLY_LOWER 8
M  POLY_CHG 0
M  POLY_PROPERTIES ALPHA_AA D_AA PROTEIN AROMATIC POLYMER 
M  END

$$$$



 34 34  0  0  0  0  0  0  0  0999 V2000
   -0.2331    2.0639   -2.8506 H   0  0  0  1  0  0  0  0  0  0  0  0
   -0.9856    0.4217   -1.7682 C   0  0  0  1  0  0  0  0  0  0  0  0
    0.8885    1.9484   -1.1334 N   0  0  0  1  0  0  0  0  0  0  0  0
   -0.3894    1.8268   -1.8190 C   0  0  0  1  0  0  0  0  0  0  0  0
   -2.0727    0.1717   -2.2819 O   0  0  0  1  0  0  0  0  0  0  0  0
   -0.2481   -0.5018   -1.1330 N   0  0  0  1  0  0  0  0  0  0  0  0
    0.8934    2.1479   -0.1739 H   0  0  0  1  0  0  0  0  0  0  0  0
    2.0553    1.7975   -1.7665 C   0  0  0  1  0  0  0  0  0  0  0  0
   -0.6528   -1.8817   -0.9094 C   0  0  0  1  0  0  0  0  0  0  0  0
    3.2958    1.9738   -0.9125 C   0  0  0  1  0  0  0  0  0  0  0  0
    2.1376    1.5328   -2.9630 O   0  0  0  1  0  0  0  0  0  0  0  0
    0.6292   -0.2263   -0.7940 H   0  0  0  1  0  0  0  0  0  0  0  0
   -1.7046   -1.9186   -0.7164 H   0  0  0  1  0  0  0  0  0  0  0  0
   -0.1221   -2.2770   -0.0686 H   0  0  0  1  0  0  0  0  0  0  0  0
   -0.4293   -2.4640   -1.7788 H   0  0  0  1  0  0  0  0  0  0  0  0
    3.0089    2.1270    0.1068 H   0  0  0  1  0  0  0  0  0  0  0  0
    3.8490    2.8218   -1.2584 H   0  0  0  1  0  0  0  0  0  0  0  0
    3.9049    1.0969   -0.9834 H   0  0  0  1  0  0  0  0  0  0  0  0
   -1.4197    2.8150   -1.2884 C   0  0  0  1  0  0  0  0  0  0  0  0
   -2.7996    2.6061   -1.8762 C   0  0  0  1  0  0  0  0  0  0  0  0
   -3.1596    3.1559   -3.0968 C   0  0  0  1  0  0  0  0  0  0  0  0
   -4.4562    3.0261   -3.5575 C   0  0  0  1  0  0  0  0  0  0  0  0
   -5.3952    2.3416   -2.8017 C   0  0  0  1  0  0  0  0  0  0  0  0
   -5.0361    1.7936   -1.5848 C   0  0  0  1  0  0  0  0  0  0  0  0
   -3.7358    1.9236   -1.1225 C   0  0  0  1  0  0  0  0  0  0  0  0
   -6.6587    2.2233   -3.2774 O   0  0  0  1  0  0  0  0  0  0  0  0
   -4.8568    3.5503   -4.7413 O   0  0  0  1  0  0  0  0  0  0  0  0
   -1.0948    3.8063   -1.5261 H   0  0  0  1  0  0  0  0  0  0  0  0
   -1.4819    2.7046   -0.2259 H   0  0  0  1  0  0  0  0  0  0  0  0
   -2.4541    3.6660   -3.6657 H   0  0  0  1  0  0  0  0  0  0  0  0
   -5.7416    1.2835   -1.0158 H   0  0  0  1  0  0  0  0  0  0  0  0
   -3.4647    1.5077   -0.2087 H   0  0  0  1  0  0  0  0  0  0  0  0
   -7.0286    3.0968   -3.4252 H   0  0  0  1  0  0  0  0  0  0  0  0
   -4.2163    3.3313   -5.4219 H   0  0  0  1  0  0  0  0  0  0  0  0
  1  4  1  0  0  0  0
  2  4  1  0  0  0  0
  2  5  2  0  0  0  0
  2  6  1  0  0  0  0
  3  4  1  0  0  0  0
  3  7  1  0  0  0  0
  3  8  1  0  0  0  0
  4 19  1  0  0  0  0
  6  9  1  0  0  0  0
  6 12  1  0  0  0  0
  8 10  1  0  0  0  0
  8 11  2  0  0  0  0
  9 13  1  0  0  0  0
  9 14  1  0  0  0  0
  9 15  1  0  0  0  0
 10 16  1  0  0  0  0
 10 17  1  0  0  0  0
 10 18  1  0  0  0  0
 19 20  1  0  0  0  0
 19 28  1  0  0  0  0
 19 29  1  0  0  0  0
 20 21  4  0  0  0  0
 20 25  4  0  0  0  0
 21 22  4  0  0  0  0
 21 30  1  0  0  0  0
 22 23  4  0  0  0  0
 22 27  1  0  0  0  0
 23 24  4  0  0  0  0
 23 26  1  0  0  0  0
 24 25  4  0  0  0  0
 24 31  1  0  0  0  0
 25 32  1  0  0  0  0
 26 33  1  0  0  0  0
 27 34  1  0  0  0  0
M  END
> <BCLConfClusterSize>
1

> <ConfClashScore>
0 

> <ConfOneFourInteractionScore>
-0.960318 

> <ConfScore>
0.222626 

> <ConfScorePBest>
0.00501424 

> <ConfTolerance>
0.460708 

> <RosettaParamsInstructions>
M  ROOT 3
M  POLY_N_BB 3
M  POLY_CA_BB 4
M  POLY_C_BB 2
M  POLY_O_BB 5
M  POLY_IGNORE 9 10 11 12 13 14 15 16 17 18 
M  POLY_UPPER 6
M  POLY_LOWER 8
M  POLY_CHG 0
M  POLY_PROPERTIES ALPHA_AA D_AA PROTEIN AROMATIC POLYMER 
M  END

$$$$



 34 34  0  0  0  0  0  0  0  0999 V2000
   -1.5286    1.0095    0.1216 H   0  0  0  1  0  0  0  0  0  0  0  0
    0.5491    1.2766   -0.2500 C   0  0  0  1  0  0  0  0  0  0  0  0
   -1.0476    0.2205   -1.7512 N   0  0  0  1  0  0  0  0  0  0  0  0
   -0.9042    1.2515   -0.7129 C   0  0  0  1  0  0  0  0  0  0  0  0
    1.2161    0.2445   -0.1959 O   0  0  0  1  0  0  0  0  0  0  0  0
    1.0718    2.4847    0.0035 N   0  0  0  1  0  0  0  0  0  0  0  0
   -1.3437    0.4884   -2.6461 H   0  0  0  1  0  0  0  0  0  0  0  0
   -0.7861   -1.0799   -1.5150 C   0  0  0  1  0  0  0  0  0  0  0  0
    2.4370    2.6574    0.4768 C   0  0  0  1  0  0  0  0  0  0  0  0
   -0.8884   -1.9620   -2.7573 C   0  0  0  1  0  0  0  0  0  0  0  0
   -0.4923   -1.5425   -0.4244 O   0  0  0  1  0  0  0  0  0  0  0  0
    0.5151    3.2793   -0.1347 H   0  0  0  1  0  0  0  0  0  0  0  0
    2.8261    3.5858    0.1141 H   0  0  0  1  0  0  0  0  0  0  0  0
    3.0433    1.8522    0.1176 H   0  0  0  1  0  0  0  0  0  0  0  0
    2.4455    2.6611    1.5468 H   0  0  0  1  0  0  0  0  0  0  0  0
   -0.1864   -2.7661   -2.6832 H   0  0  0  1  0  0  0  0  0  0  0  0
   -0.6713   -1.3785   -3.6276 H   0  0  0  1  0  0  0  0  0  0  0  0
   -1.8791   -2.3593   -2.8317 H   0  0  0  1  0  0  0  0  0  0  0  0
   -1.3355    2.6125   -1.2727 C   0  0  0  1  0  0  0  0  0  0  0  0
   -2.7361    2.5375   -1.8483 C   0  0  0  1  0  0  0  0  0  0  0  0
   -3.0517    3.1161   -3.0678 C   0  0  0  1  0  0  0  0  0  0  0  0
   -4.3590    3.1122   -3.5167 C   0  0  0  1  0  0  0  0  0  0  0  0
   -5.3534    2.5250   -2.7501 C   0  0  0  1  0  0  0  0  0  0  0  0
   -5.0386    1.9481   -1.5343 C   0  0  0  1  0  0  0  0  0  0  0  0
   -3.7276    1.9520   -1.0839 C   0  0  0  1  0  0  0  0  0  0  0  0
   -6.6267    2.5292   -3.2143 O   0  0  0  1  0  0  0  0  0  0  0  0
   -4.6433    3.6888   -4.7098 O   0  0  0  1  0  0  0  0  0  0  0  0
   -0.6545    2.9064   -2.0439 H   0  0  0  1  0  0  0  0  0  0  0  0
   -1.3180    3.3371   -0.4856 H   0  0  0  1  0  0  0  0  0  0  0  0
   -2.3050    3.5532   -3.6449 H   0  0  0  1  0  0  0  0  0  0  0  0
   -5.7853    1.5111   -0.9572 H   0  0  0  1  0  0  0  0  0  0  0  0
   -3.4901    1.5143   -0.1708 H   0  0  0  1  0  0  0  0  0  0  0  0
   -6.6179    2.5160   -4.1742 H   0  0  0  1  0  0  0  0  0  0  0  0
   -5.3527    3.2047   -5.1387 H   0  0  0  1  0  0  0  0  0  0  0  0
  1  4  1  0  0  0  0
  2  4  1  0  0  0  0
  2  5  2  0  0  0  0
  2  6  1  0  0  0  0
  3  4  1  0  0  0  0
  3  7  1  0  0  0  0
  3  8  1  0  0  0  0
  4 19  1  0  0  0  0
  6  9  1  0  0  0  0
  6 12  1  0  0  0  0
  8 10  1  0  0  0  0
  8 11  2  0  0  0  0
  9 13  1  0  0  0  0
  9 14  1  0  0  0  0
  9 15  1  0  0  0  0
 10 16  1  0  0  0  0
 10 17  1  0  0  0  0
 10 18  1  0  0  0  0
 19 20  1  0  0  0  0
 19 28  1  0  0  0  0
 19 29  1  0  0  0  0
 20 21  4  0  0  0  0
 20 25  4  0  0  0  0
 21 22  4  0  0  0  0
 21 30  1  0  0  0  0
 22 23  4  0  0  0  0
 22 27  1  0  0  0  0
 23 24  4  0  0  0  0
 23 26  1  0  0  0  0
 24 25  4  0  0  0  0
 24 31  1  0  0  0  0
 25 32  1  0  0  0  0
 26 33  1  0  0  0  0
 27 34  1  0  0  0  0
M  END
> <BCLConfClusterSize>
1

> <ConfClashScore>
0 

> <ConfOneFourInteractionScore>
-0.958855 

> <ConfScore>
0.223543 

> <ConfScorePBest>
0.00498576 

> <ConfTolerance>
0.60765 

> <RosettaParamsInstructions>
M  ROOT 3
M  POLY_N_BB 3
M  POLY_CA_BB 4
M  POLY_C_BB 2
M  POLY_O_BB 5
M  POLY_IGNORE 9 10 11 12 13 14 15 16 17 18 
M  POLY_UPPER 6
M  POLY_LOWER 8
M  POLY_CHG 0
M  POLY_PROPERTIES ALPHA_AA D_AA PROTEIN AROMATIC POLYMER 
M  END

$$$$



 34 34  0  0  0  0  0  0  0  0999 V2000
   -0.6529    0.9414   -2.1187 H   0  0  0  1  0  0  0  0  0  0  0  0
   -1.2565    0.4639   -0.1669 C   0  0  0  1  0  0  0  0  0  0  0  0
    0.7729    1.6836   -0.8356 N   0  0  0  1  0  0  0  0  0  0  0  0
   -0.6186    1.4110   -1.1578 C   0  0  0  1  0  0  0  0  0  0  0  0
   -2.3701   -0.0145   -0.3783 O   0  0  0  1  0  0  0  0  0  0  0  0
   -0.5768    0.1638    0.9402 N   0  0  0  1  0  0  0  0  0  0  0  0
    1.0722    2.5922   -0.6227 H   0  0  0  1  0  0  0  0  0  0  0  0
    1.6354    0.6558   -0.8379 C   0  0  0  1  0  0  0  0  0  0  0  0
   -1.1089   -0.6336    2.0352 C   0  0  0  1  0  0  0  0  0  0  0  0
    3.0886    1.0795   -0.7478 C   0  0  0  1  0  0  0  0  0  0  0  0
    1.3128   -0.5273   -0.9055 O   0  0  0  1  0  0  0  0  0  0  0  0
    0.3394    0.5017    1.0218 H   0  0  0  1  0  0  0  0  0  0  0  0
   -1.8909   -0.0915    2.5247 H   0  0  0  1  0  0  0  0  0  0  0  0
   -0.3279   -0.8432    2.7358 H   0  0  0  1  0  0  0  0  0  0  0  0
   -1.4993   -1.5524    1.6501 H   0  0  0  1  0  0  0  0  0  0  0  0
    3.6537    0.3150   -0.2567 H   0  0  0  1  0  0  0  0  0  0  0  0
    3.1605    1.9898   -0.1900 H   0  0  0  1  0  0  0  0  0  0  0  0
    3.4769    1.2326   -1.7330 H   0  0  0  1  0  0  0  0  0  0  0  0
   -1.4043    2.7212   -1.2647 C   0  0  0  1  0  0  0  0  0  0  0  0
   -2.7841    2.5427   -1.9039 C   0  0  0  1  0  0  0  0  0  0  0  0
   -3.0545    2.9958   -3.1858 C   0  0  0  1  0  0  0  0  0  0  0  0
   -4.3362    2.9046   -3.6948 C   0  0  0  1  0  0  0  0  0  0  0  0
   -5.3501    2.3551   -2.9257 C   0  0  0  1  0  0  0  0  0  0  0  0
   -5.0804    1.9034   -1.6476 C   0  0  0  1  0  0  0  0  0  0  0  0
   -3.7949    1.9948   -1.1369 C   0  0  0  1  0  0  0  0  0  0  0  0
   -6.5610    2.3142   -3.5329 O   0  0  0  1  0  0  0  0  0  0  0  0
   -4.5767    3.3592   -4.9487 O   0  0  0  1  0  0  0  0  0  0  0  0
   -0.8401    3.4092   -1.8591 H   0  0  0  1  0  0  0  0  0  0  0  0
   -1.5339    3.1219   -0.2811 H   0  0  0  1  0  0  0  0  0  0  0  0
   -2.2930    3.4044   -3.7644 H   0  0  0  1  0  0  0  0  0  0  0  0
   -5.8419    1.4949   -1.0690 H   0  0  0  1  0  0  0  0  0  0  0  0
   -3.5912    1.6512   -0.1767 H   0  0  0  1  0  0  0  0  0  0  0  0
   -7.2537    2.3629   -2.8700 H   0  0  0  1  0  0  0  0  0  0  0  0
   -4.5010    4.3161   -4.9626 H   0  0  0  1  0  0  0  0  0  0  0  0
  1  4  1  0  0  0  0
  2  4  1  0  0  0  0
  2  5  2  0  0  0  0
  2  6  1  0  0  0  0
  3  4  1  0  0  0  0
  3  7  1  0  0  0  0
  3  8  1  0  0  0  0
  4 19  1  0  0  0  0
  6  9  1  0  0  0  0
  6 12  1  0  0  0  0
  8 10  1  0  0  0  0
  8 11  2  0  0  0  0
  9 13  1  0  0  0  0
  9 14  1  0  0  0  0
  9 15  1  0  0  0  0
 10 16  1  0  0  0  0
 10 17  1  0  0  0  0
 10 18  1  0  0  0  0
 19 20  1  0  0  0  0
 19 28  1  0  0  0  0
 19 29  1  0  0  0  0
 20 21  4  0  0  0  0
 20 25  4  0  0  0  0
 21 22  4  0  0  0  0
 21 30  1  0  0  0  0
 22 23  4  0  0  0  0
 22 27  1  0  0  0  0
 23 24  4  0  0  0  0
 23 26  1  0  0  0  0
 24 25  4  0  0  0  0
 24 31  1  0  0  0  0
 25 32  1  0  0  0  0
 26 33  1  0  0  0  0
 27 34  1  0  0  0  0
M  END
> <BCLConfClusterSize>
1

> <ConfClashScore>
0 

> <ConfOneFourInteractionScore>
-0.960318 

> <ConfScore>
0.226514 

> <ConfScorePBest>
0.00495728 

> <ConfTolerance>
0.568785 

> <RosettaParamsInstructions>
M  ROOT 3
M  POLY_N_BB 3
M  POLY_CA_BB 4
M  POLY_C_BB 2
M  POLY_O_BB 5
M  POLY_IGNORE 9 10 11 12 13 14 15 16 17 18 
M  POLY_UPPER 6
M  POLY_LOWER 8
M  POLY_CHG 0
M  POLY_PROPERTIES ALPHA_AA D_AA PROTEIN AROMATIC POLYMER 
M  END

$$$$



 34 34  0  0  0  0  0  0  0  0999 V2000
   -1.8186    2.1060    0.5440 H   0  0  0  1  0  0  0  0  0  0  0  0
   -1.8546    4.2100    0.3704 C   0  0  0  1  0  0  0  0  0  0  0  0
    0.1365    2.7698    0.4419 N   0  0  0  1  0  0  0  0  0  0  0  0
   -1.2559    2.8585    0.0322 C   0  0  0  1  0  0  0  0  0  0  0  0
   -2.0989    4.5173    1.5342 O   0  0  0  1  0  0  0  0  0  0  0  0
   -2.1088    5.0580   -0.6387 N   0  0  0  1  0  0  0  0  0  0  0  0
    0.8046    2.6060   -0.2561 H   0  0  0  1  0  0  0  0  0  0  0  0
    0.5736    2.8948    1.6982 C   0  0  0  1  0  0  0  0  0  0  0  0
   -2.7991    6.3230   -0.4359 C   0  0  0  1  0  0  0  0  0  0  0  0
    2.0629    2.6940    1.9006 C   0  0  0  1  0  0  0  0  0  0  0  0
   -0.1683    3.1554    2.6416 O   0  0  0  1  0  0  0  0  0  0  0  0
   -1.8195    4.8168   -1.5434 H   0  0  0  1  0  0  0  0  0  0  0  0
   -2.1083    7.0515   -0.0658 H   0  0  0  1  0  0  0  0  0  0  0  0
   -3.5890    6.1883    0.2732 H   0  0  0  1  0  0  0  0  0  0  0  0
   -3.2075    6.6593   -1.3659 H   0  0  0  1  0  0  0  0  0  0  0  0
    2.6032    3.3198    1.2214 H   0  0  0  1  0  0  0  0  0  0  0  0
    2.3126    1.6699    1.7170 H   0  0  0  1  0  0  0  0  0  0  0  0
    2.3238    2.9506    2.9060 H   0  0  0  1  0  0  0  0  0  0  0  0
   -1.3660    2.5913   -1.4725 C   0  0  0  1  0  0  0  0  0  0  0  0
   -2.7983    2.4990   -1.9554 C   0  0  0  1  0  0  0  0  0  0  0  0
   -3.1756    2.9706   -3.2031 C   0  0  0  1  0  0  0  0  0  0  0  0
   -4.5073    2.9583   -3.5727 C   0  0  0  1  0  0  0  0  0  0  0  0
   -5.4650    2.4694   -2.6979 C   0  0  0  1  0  0  0  0  0  0  0  0
   -5.0887    1.9992   -1.4539 C   0  0  0  1  0  0  0  0  0  0  0  0
   -3.7531    2.0115   -1.0831 C   0  0  0  1  0  0  0  0  0  0  0  0
   -6.7637    2.4629   -3.0854 O   0  0  0  1  0  0  0  0  0  0  0  0
   -4.7543    3.4486   -4.8118 O   0  0  0  1  0  0  0  0  0  0  0  0
   -0.8726    1.6674   -1.6913 H   0  0  0  1  0  0  0  0  0  0  0  0
   -0.8806    3.3881   -1.9964 H   0  0  0  1  0  0  0  0  0  0  0  0
   -2.4566    3.3337   -3.8611 H   0  0  0  1  0  0  0  0  0  0  0  0
   -5.8077    1.6361   -0.7960 H   0  0  0  1  0  0  0  0  0  0  0  0
   -3.4695    1.6540   -0.1485 H   0  0  0  1  0  0  0  0  0  0  0  0
   -6.8339    2.0838   -3.9646 H   0  0  0  1  0  0  0  0  0  0  0  0
   -4.1834    4.2023   -4.9778 H   0  0  0  1  0  0  0  0  0  0  0  0
  1  4  1  0  0  0  0
  2  4  1  0  0  0  0
  2  5  2  0  0  0  0
  2  6  1  0  0  0  0
  3  4  1  0  0  0  0
  3  7  1  0  0  0  0
  3  8  1  0  0  0  0
  4 19  1  0  0  0  0
  6  9  1  0  0  0  0
  6 12  1  0  0  0  0
  8 10  1  0  0  0  0
  8 11  2  0  0  0  0
  9 13  1  0  0  0  0
  9 14  1  0  0  0  0
  9 15  1  0  0  0  0
 10 16  1  0  0  0  0
 10 17  1  0  0  0  0
 10 18  1  0  0  0  0
 19 20  1  0  0  0  0
 19 28  1  0  0  0  0
 19 29  1  0  0  0  0
 20 21  4  0  0  0  0
 20 25  4  0  0  0  0
 21 22  4  0  0  0  0
 21 30  1  0  0  0  0
 22 23  4  0  0  0  0
 22 27  1  0  0  0  0
 23 24  4  0  0  0  0
 23 26  1  0  0  0  0
 24 25  4  0  0  0  0
 24 31  1  0  0  0  0
 25 32  1  0  0  0  0
 26 33  1  0  0  0  0
 27 34  1  0  0  0  0
M  END
> <BCLConfClusterSize>
1

> <ConfClashScore>
0 

> <ConfOneFourInteractionScore>
-0.9451 

> <ConfScore>
0.226689 

> <ConfScorePBest>
0.0049288 

> <ConfTolerance>
0.676779 

> <RosettaParamsInstructions>
M  ROOT 3
M  POLY_N_BB 3
M  POLY_CA_BB 4
M  POLY_C_BB 2
M  POLY_O_BB 5
M  POLY_IGNORE 9 10 11 12 13 14 15 16 17 18 
M  POLY_UPPER 6
M  POLY_LOWER 8
M  POLY_CHG 0
M  POLY_PROPERTIES ALPHA_AA D_AA PROTEIN AROMATIC POLYMER 
M  END

$$$$



 34 34  0  0  0  0  0  0  0  0999 V2000
   -2.0197    4.2026    0.2412 H   0  0  0  1  0  0  0  0  0  0  0  0
   -1.2821    5.3704   -1.3458 C   0  0  0  1  0  0  0  0  0  0  0  0
    0.0409    4.1193    0.2657 N   0  0  0  1  0  0  0  0  0  0  0  0
   -1.2226    4.1309   -0.4690 C   0  0  0  1  0  0  0  0  0  0  0  0
   -1.7986    5.3331   -2.4618 O   0  0  0  1  0  0  0  0  0  0  0  0
   -0.6664    6.4526   -0.8438 N   0  0  0  1  0  0  0  0  0  0  0  0
    0.0451    3.8066    1.1944 H   0  0  0  1  0  0  0  0  0  0  0  0
    1.1885    4.5195   -0.2841 C   0  0  0  1  0  0  0  0  0  0  0  0
   -0.5521    7.7004   -1.5903 C   0  0  0  1  0  0  0  0  0  0  0  0
    2.4130    4.4258    0.6054 C   0  0  0  1  0  0  0  0  0  0  0  0
    1.2677    4.9398   -1.4353 O   0  0  0  1  0  0  0  0  0  0  0  0
   -0.2803    6.4024    0.0555 H   0  0  0  1  0  0  0  0  0  0  0  0
   -1.2343    7.6873   -2.4145 H   0  0  0  1  0  0  0  0  0  0  0  0
    0.4476    7.8061   -1.9569 H   0  0  0  1  0  0  0  0  0  0  0  0
   -0.7857    8.5231   -0.9473 H   0  0  0  1  0  0  0  0  0  0  0  0
    2.2473    4.9866    1.5014 H   0  0  0  1  0  0  0  0  0  0  0  0
    3.2608    4.8233    0.0877 H   0  0  0  1  0  0  0  0  0  0  0  0
    2.5948    3.4012    0.8547 H   0  0  0  1  0  0  0  0  0  0  0  0
   -1.4045    2.8219   -1.2260 C   0  0  0  1  0  0  0  0  0  0  0  0
   -2.7700    2.6052   -1.8214 C   0  0  0  1  0  0  0  0  0  0  0  0
   -3.0816    3.1815   -3.0430 C   0  0  0  1  0  0  0  0  0  0  0  0
   -4.3605    3.0674   -3.5546 C   0  0  0  1  0  0  0  0  0  0  0  0
   -5.3300    2.3722   -2.8488 C   0  0  0  1  0  0  0  0  0  0  0  0
   -5.0191    1.7977   -1.6308 C   0  0  0  1  0  0  0  0  0  0  0  0
   -3.7366    1.9120   -1.1175 C   0  0  0  1  0  0  0  0  0  0  0  0
   -6.5752    2.2698   -3.3738 O   0  0  0  1  0  0  0  0  0  0  0  0
   -4.5935    3.6604   -4.7507 O   0  0  0  1  0  0  0  0  0  0  0  0
   -1.2090    2.0182   -0.5473 H   0  0  0  1  0  0  0  0  0  0  0  0
   -0.6899    2.7989   -2.0221 H   0  0  0  1  0  0  0  0  0  0  0  0
   -2.3531    3.6997   -3.5745 H   0  0  0  1  0  0  0  0  0  0  0  0
   -5.7476    1.2796   -1.0993 H   0  0  0  1  0  0  0  0  0  0  0  0
   -3.5017    1.4763   -0.2029 H   0  0  0  1  0  0  0  0  0  0  0  0
   -6.9456    3.1473   -3.4939 H   0  0  0  1  0  0  0  0  0  0  0  0
   -5.0042    3.0296   -5.3466 H   0  0  0  1  0  0  0  0  0  0  0  0
  1  4  1  0  0  0  0
  2  4  1  0  0  0  0
  2  5  2  0  0  0  0
  2  6  1  0  0  0  0
  3  4  1  0  0  0  0
  3  7  1  0  0  0  0
  3  8  1  0  0  0  0
  4 19  1  0  0  0  0
  6  9  1  0  0  0  0
  6 12  1  0  0  0  0
  8 10  1  0  0  0  0
  8 11  2  0  0  0  0
  9 13  1  0  0  0  0
  9 14  1  0  0  0  0
  9 15  1  0  0  0  0
 10 16  1  0  0  0  0
 10 17  1  0  0  0  0
 10 18  1  0  0  0  0
 19 20  1  0  0  0  0
 19 28  1  0  0  0  0
 19 29  1  0  0  0  0
 20 21  4  0  0  0  0
 20 25  4  0  0  0  0
 21 22  4  0  0  0  0
 21 30  1  0  0  0  0
 22 23  4  0  0  0  0
 22 27  1  0  0  0  0
 23 24  4  0  0  0  0
 23 26  1  0  0  0  0
 24 25  4  0  0  0  0
 24 31  1  0  0  0  0
 25 32  1  0  0  0  0
 26 33  1  0  0  0  0
 27 34  1  0  0  0  0
M  END
> <BCLConfClusterSize>
1

> <ConfClashScore>
0 

> <ConfOneFourInteractionScore>
-0.957364 

> <ConfScore>
0.230456 

> <ConfScorePBest>
0.00490032 

> <ConfTolerance>
0.389072 

> <RosettaParamsInstructions>
M  ROOT 3
M  POLY_N_BB 3
M  POLY_CA_BB 4
M  POLY_C_BB 2
M  POLY_O_BB 5
M  POLY_IGNORE 9 10 11 12 13 14 15 16 17 18 
M  POLY_UPPER 6
M  POLY_LOWER 8
M  POLY_CHG 0
M  POLY_PROPERTIES ALPHA_AA D_AA PROTEIN AROMATIC POLYMER 
M  END

$$$$



 34 34  0  0  0  0  0  0  0  0999 V2000
   -0.0787    4.2037   -0.5462 H   0  0  0  1  0  0  0  0  0  0  0  0
   -1.8757    4.4352    0.5202 C   0  0  0  1  0  0  0  0  0  0  0  0
   -1.4401    5.1864   -1.7554 N   0  0  0  1  0  0  0  0  0  0  0  0
   -1.1246    4.1471   -0.7651 C   0  0  0  1  0  0  0  0  0  0  0  0
   -2.2151    3.5231    1.2694 O   0  0  0  1  0  0  0  0  0  0  0  0
   -2.1564    5.7085    0.8118 N   0  0  0  1  0  0  0  0  0  0  0  0
   -2.0637    5.8933   -1.4873 H   0  0  0  1  0  0  0  0  0  0  0  0
   -0.9220    5.2420   -3.0403 C   0  0  0  1  0  0  0  0  0  0  0  0
   -2.8828    6.0887    2.0141 C   0  0  0  1  0  0  0  0  0  0  0  0
   -1.4184    6.3001   -3.9818 C   0  0  0  1  0  0  0  0  0  0  0  0
   -0.0781    4.4273   -3.3630 O   0  0  0  1  0  0  0  0  0  0  0  0
   -1.8628    6.4108    0.1946 H   0  0  0  1  0  0  0  0  0  0  0  0
   -2.6525    5.4029    2.8025 H   0  0  0  1  0  0  0  0  0  0  0  0
   -3.9343    6.0656    1.8175 H   0  0  0  1  0  0  0  0  0  0  0  0
   -2.5957    7.0771    2.3064 H   0  0  0  1  0  0  0  0  0  0  0  0
   -1.5165    7.2275   -3.4572 H   0  0  0  1  0  0  0  0  0  0  0  0
   -2.3708    6.0100   -4.3739 H   0  0  0  1  0  0  0  0  0  0  0  0
   -0.7219    6.4173   -4.7856 H   0  0  0  1  0  0  0  0  0  0  0  0
   -1.3911    2.7682   -1.3463 C   0  0  0  1  0  0  0  0  0  0  0  0
   -2.7872    2.5539   -1.8973 C   0  0  0  1  0  0  0  0  0  0  0  0
   -3.1424    2.9897   -3.1644 C   0  0  0  1  0  0  0  0  0  0  0  0
   -4.4490    2.8640   -3.5972 C   0  0  0  1  0  0  0  0  0  0  0  0
   -5.4030    2.2973   -2.7665 C   0  0  0  1  0  0  0  0  0  0  0  0
   -5.0487    1.8628   -1.5032 C   0  0  0  1  0  0  0  0  0  0  0  0
   -3.7383    1.9888   -1.0689 C   0  0  0  1  0  0  0  0  0  0  0  0
   -6.6616    2.2018   -3.2599 O   0  0  0  1  0  0  0  0  0  0  0  0
   -4.8888    3.2655   -4.8147 O   0  0  0  1  0  0  0  0  0  0  0  0
   -1.2270    2.0468   -0.5732 H   0  0  0  1  0  0  0  0  0  0  0  0
   -0.6937    2.6047   -2.1412 H   0  0  0  1  0  0  0  0  0  0  0  0
   -2.4258    3.4113   -3.7893 H   0  0  0  1  0  0  0  0  0  0  0  0
   -5.7653    1.4413   -0.8784 H   0  0  0  1  0  0  0  0  0  0  0  0
   -3.4710    1.6582   -0.1198 H   0  0  0  1  0  0  0  0  0  0  0  0
   -6.8623    2.9836   -3.7795 H   0  0  0  1  0  0  0  0  0  0  0  0
   -4.3890    4.0345   -5.0983 H   0  0  0  1  0  0  0  0  0  0  0  0
  1  4  1  0  0  0  0
  2  4  1  0  0  0  0
  2  5  2  0  0  0  0
  2  6  1  0  0  0  0
  3  4  1  0  0  0  0
  3  7  1  0  0  0  0
  3  8  1  0  0  0  0
  4 19  1  0  0  0  0
  6  9  1  0  0  0  0
  6 12  1  0  0  0  0
  8 10  1  0  0  0  0
  8 11  2  0  0  0  0
  9 13  1  0  0  0  0
  9 14  1  0  0  0  0
  9 15  1  0  0  0  0
 10 16  1  0  0  0  0
 10 17  1  0  0  0  0
 10 18  1  0  0  0  0
 19 20  1  0  0  0  0
 19 28  1  0  0  0  0
 19 29  1  0  0  0  0
 20 21  4  0  0  0  0
 20 25  4  0  0  0  0
 21 22  4  0  0  0  0
 21 30  1  0  0  0  0
 22 23  4  0  0  0  0
 22 27  1  0  0  0  0
 23 24  4  0  0  0  0
 23 26  1  0  0  0  0
 24 25  4  0  0  0  0
 24 31  1  0  0  0  0
 25 32  1  0  0  0  0
 26 33  1  0  0  0  0
 27 34  1  0  0  0  0
M  END
> <BCLConfClusterSize>
1

> <ConfClashScore>
0 

> <ConfOneFourInteractionScore>
-0.950895 

> <ConfScore>
0.232151 

> <ConfScorePBest>
0.00487184 

> <ConfTolerance>
0.793288 

> <RosettaParamsInstructions>
M  ROOT 3
M  POLY_N_BB 3
M  POLY_CA_BB 4
M  POLY_C_BB 2
M  POLY_O_BB 5
M  POLY_IGNORE 9 10 11 12 13 14 15 16 17 18 
M  POLY_UPPER 6
M  POLY_LOWER 8
M  POLY_CHG 0
M  POLY_PROPERTIES ALPHA_AA D_AA PROTEIN AROMATIC POLYMER 
M  END

$$$$



 34 34  0  0  0  0  0  0  0  0999 V2000
   -1.7632    1.5194    0.4279 H   0  0  0  1  0  0  0  0  0  0  0  0
    0.3320    1.6309    0.2939 C   0  0  0  1  0  0  0  0  0  0  0  0
   -1.1692    0.1733   -1.0111 N   0  0  0  1  0  0  0  0  0  0  0  0
   -1.0314    1.4629   -0.3508 C   0  0  0  1  0  0  0  0  0  0  0  0
    0.6203    2.6057    0.9640 O   0  0  0  1  0  0  0  0  0  0  0  0
    1.2528    0.6780    0.1232 N   0  0  0  1  0  0  0  0  0  0  0  0
   -0.9080    0.0746   -1.9504 H   0  0  0  1  0  0  0  0  0  0  0  0
   -1.6531   -0.8807   -0.3364 C   0  0  0  1  0  0  0  0  0  0  0  0
    2.6323    0.8435    0.5562 C   0  0  0  1  0  0  0  0  0  0  0  0
   -1.7609   -2.1728   -1.1225 C   0  0  0  1  0  0  0  0  0  0  0  0
   -1.9921   -0.8217    0.8426 O   0  0  0  1  0  0  0  0  0  0  0  0
    0.9902   -0.1616   -0.3086 H   0  0  0  1  0  0  0  0  0  0  0  0
    2.8021    1.8652    0.8252 H   0  0  0  1  0  0  0  0  0  0  0  0
    3.2914    0.5707   -0.2414 H   0  0  0  1  0  0  0  0  0  0  0  0
    2.8178    0.2164    1.4031 H   0  0  0  1  0  0  0  0  0  0  0  0
   -2.5705   -2.7579   -0.7387 H   0  0  0  1  0  0  0  0  0  0  0  0
   -0.8481   -2.7234   -1.0301 H   0  0  0  1  0  0  0  0  0  0  0  0
   -1.9403   -1.9490   -2.1533 H   0  0  0  1  0  0  0  0  0  0  0  0
   -1.3278    2.5972   -1.3362 C   0  0  0  1  0  0  0  0  0  0  0  0
   -2.7324    2.4899   -1.8668 C   0  0  0  1  0  0  0  0  0  0  0  0
   -3.0167    2.9473   -3.1441 C   0  0  0  1  0  0  0  0  0  0  0  0
   -4.3191    2.9399   -3.6067 C   0  0  0  1  0  0  0  0  0  0  0  0
   -5.3402    2.4701   -2.7955 C   0  0  0  1  0  0  0  0  0  0  0  0
   -5.0566    2.0141   -1.5220 C   0  0  0  1  0  0  0  0  0  0  0  0
   -3.7505    2.0215   -1.0578 C   0  0  0  1  0  0  0  0  0  0  0  0
   -6.6313    2.4382   -3.2064 O   0  0  0  1  0  0  0  0  0  0  0  0
   -4.6470    3.3814   -4.8453 O   0  0  0  1  0  0  0  0  0  0  0  0
   -0.6390    2.5412   -2.1530 H   0  0  0  1  0  0  0  0  0  0  0  0
   -1.2126    3.5358   -0.8356 H   0  0  0  1  0  0  0  0  0  0  0  0
   -2.2501    3.2961   -3.7542 H   0  0  0  1  0  0  0  0  0  0  0  0
   -5.8233    1.6653   -0.9119 H   0  0  0  1  0  0  0  0  0  0  0  0
   -3.5366    1.6746   -0.1010 H   0  0  0  1  0  0  0  0  0  0  0  0
   -6.6615    2.3328   -4.1601 H   0  0  0  1  0  0  0  0  0  0  0  0
   -5.3301    4.0524   -4.7758 H   0  0  0  1  0  0  0  0  0  0  0  0
  1  4  1  0  0  0  0
  2  4  1  0  0  0  0
  2  5  2  0  0  0  0
  2  6  1  0  0  0  0
  3  4  1  0  0  0  0
  3  7  1  0  0  0  0
  3  8  1  0  0  0  0
  4 19  1  0  0  0  0
  6  9  1  0  0  0  0
  6 12  1  0  0  0  0
  8 10  1  0  0  0  0
  8 11  2  0  0  0  0
  9 13  1  0  0  0  0
  9 14  1  0  0  0  0
  9 15  1  0  0  0  0
 10 16  1  0  0  0  0
 10 17  1  0  0  0  0
 10 18  1  0  0  0  0
 19 20  1  0  0  0  0
 19 28  1  0  0  0  0
 19 29  1  0  0  0  0
 20 21  4  0  0  0  0
 20 25  4  0  0  0  0
 21 22  4  0  0  0  0
 21 30  1  0  0  0  0
 22 23  4  0  0  0  0
 22 27  1  0  0  0  0
 23 24  4  0  0  0  0
 23 26  1  0  0  0  0
 24 25  4  0  0  0  0
 24 31  1  0  0  0  0
 25 32  1  0  0  0  0
 26 33  1  0  0  0  0
 27 34  1  0  0  0  0
M  END
> <BCLConfClusterSize>
1

> <ConfClashScore>
0 

> <ConfOneFourInteractionScore>
-0.952877 

> <ConfScore>
0.232841 

> <ConfScorePBest>
0.00484336 

> <ConfTolerance>
0.494984 

> <RosettaParamsInstructions>
M  ROOT 3
M  POLY_N_BB 3
M  POLY_CA_BB 4
M  POLY_C_BB 2
M  POLY_O_BB 5
M  POLY_IGNORE 9 10 11 12 13 14 15 16 17 18 
M  POLY_UPPER 6
M  POLY_LOWER 8
M  POLY_CHG 0
M  POLY_PROPERTIES ALPHA_AA D_AA PROTEIN AROMATIC POLYMER 
M  END

$$$$



 34 34  0  0  0  0  0  0  0  0999 V2000
   -1.0152    4.6283   -1.2997 H   0  0  0  1  0  0  0  0  0  0  0  0
    0.1939    3.7714    0.2100 C   0  0  0  1  0  0  0  0  0  0  0  0
   -2.2348    4.1766    0.3081 N   0  0  0  1  0  0  0  0  0  0  0  0
   -1.1140    3.8579   -0.5638 C   0  0  0  1  0  0  0  0  0  0  0  0
    1.2830    3.6200   -0.3104 O   0  0  0  1  0  0  0  0  0  0  0  0
    0.0943    3.8726    1.5385 N   0  0  0  1  0  0  0  0  0  0  0  0
   -2.5182    3.5365    0.9939 H   0  0  0  1  0  0  0  0  0  0  0  0
   -2.8807    5.3450    0.1751 C   0  0  0  1  0  0  0  0  0  0  0  0
    1.2429    3.7156    2.4183 C   0  0  0  1  0  0  0  0  0  0  0  0
   -4.0851    5.5352    1.0691 C   0  0  0  1  0  0  0  0  0  0  0  0
   -2.5302    6.2178   -0.6181 O   0  0  0  1  0  0  0  0  0  0  0  0
   -0.7826    4.0590    1.9342 H   0  0  0  1  0  0  0  0  0  0  0  0
    0.9138    3.3758    3.3780 H   0  0  0  1  0  0  0  0  0  0  0  0
    1.7414    4.6563    2.5249 H   0  0  0  1  0  0  0  0  0  0  0  0
    1.9179    2.9991    1.9988 H   0  0  0  1  0  0  0  0  0  0  0  0
   -4.5924    4.6007    1.1885 H   0  0  0  1  0  0  0  0  0  0  0  0
   -4.7494    6.2472    0.6255 H   0  0  0  1  0  0  0  0  0  0  0  0
   -3.7660    5.8923    2.0259 H   0  0  0  1  0  0  0  0  0  0  0  0
   -1.3870    2.5450   -1.2860 C   0  0  0  1  0  0  0  0  0  0  0  0
   -2.7650    2.4874   -1.9113 C   0  0  0  1  0  0  0  0  0  0  0  0
   -3.0045    2.9750   -3.1867 C   0  0  0  1  0  0  0  0  0  0  0  0
   -4.2922    2.9943   -3.6884 C   0  0  0  1  0  0  0  0  0  0  0  0
   -5.3434    2.5213   -2.9185 C   0  0  0  1  0  0  0  0  0  0  0  0
   -5.1044    2.0352   -1.6470 C   0  0  0  1  0  0  0  0  0  0  0  0
   -3.8131    2.0157   -1.1435 C   0  0  0  1  0  0  0  0  0  0  0  0
   -6.6216    2.5150   -3.3688 O   0  0  0  1  0  0  0  0  0  0  0  0
   -4.5016    3.4806   -4.9359 O   0  0  0  1  0  0  0  0  0  0  0  0
   -1.2988    1.7442   -0.5819 H   0  0  0  1  0  0  0  0  0  0  0  0
   -0.6570    2.4233   -2.0588 H   0  0  0  1  0  0  0  0  0  0  0  0
   -2.2153    3.3262   -3.7659 H   0  0  0  1  0  0  0  0  0  0  0  0
   -5.8936    1.6840   -1.0678 H   0  0  0  1  0  0  0  0  0  0  0  0
   -3.6328    1.6462   -0.1882 H   0  0  0  1  0  0  0  0  0  0  0  0
   -7.0533    1.7019   -3.0966 H   0  0  0  1  0  0  0  0  0  0  0  0
   -4.7952    4.3929   -4.8792 H   0  0  0  1  0  0  0  0  0  0  0  0
  1  4  1  0  0  0  0
  2  4  1  0  0  0  0
  2  5  2  0  0  0  0
  2  6  1  0  0  0  0
  3  4  1  0  0  0  0
  3  7  1  0  0  0  0
  3  8  1  0  0  0  0
  4 19  1  0  0  0  0
  6  9  1  0  0  0  0
  6 12  1  0  0  0  0
  8 10  1  0  0  0  0
  8 11  2  0  0  0  0
  9 13  1  0  0  0  0
  9 14  1  0  0  0  0
  9 15  1  0  0  0  0
 10 16  1  0  0  0  0
 10 17  1  0  0  0  0
 10 18  1  0  0  0  0
 19 20  1  0  0  0  0
 19 28  1  0  0  0  0
 19 29  1  0  0  0  0
 20 21  4  0  0  0  0
 20 25  4  0  0  0  0
 21 22  4  0  0  0  0
 21 30  1  0  0  0  0
 22 23  4  0  0  0  0
 22 27  1  0  0  0  0
 23 24  4  0  0  0  0
 23 26  1  0  0  0  0
 24 25  4  0  0  0  0
 24 31  1  0  0  0  0
 25 32  1  0  0  0  0
 26 33  1  0  0  0  0
 27 34  1  0  0  0  0
M  END
> <BCLConfClusterSize>
1

> <ConfClashScore>
0 

> <ConfOneFourInteractionScore>
-0.94165 

> <ConfScore>
0.233605 

> <ConfScorePBest>
0.00481488 

> <ConfTolerance>
0.558103 

> <RosettaParamsInstructions>
M  ROOT 3
M  POLY_N_BB 3
M  POLY_CA_BB 4
M  POLY_C_BB 2
M  POLY_O_BB 5
M  POLY_IGNORE 9 10 11 12 13 14 15 16 17 18 
M  POLY_UPPER 6
M  POLY_LOWER 8
M  POLY_CHG 0
M  POLY_PROPERTIES ALPHA_AA D_AA PROTEIN AROMATIC POLYMER 
M  END

$$$$



 34 34  0  0  0  0  0  0  0  0999 V2000
   -1.4123    4.8397   -1.2044 H   0  0  0  1  0  0  0  0  0  0  0  0
    0.3010    4.1371   -0.1874 C   0  0  0  1  0  0  0  0  0  0  0  0
   -2.0279    4.0629    0.6150 N   0  0  0  1  0  0  0  0  0  0  0  0
   -1.1650    4.0205   -0.5621 C   0  0  0  1  0  0  0  0  0  0  0  0
    1.0999    4.7175   -0.9213 O   0  0  0  1  0  0  0  0  0  0  0  0
    0.6482    3.6546    1.0163 N   0  0  0  1  0  0  0  0  0  0  0  0
   -1.6038    3.9547    1.4918 H   0  0  0  1  0  0  0  0  0  0  0  0
   -3.3499    4.2378    0.5867 C   0  0  0  1  0  0  0  0  0  0  0  0
    2.0201    3.6876    1.5008 C   0  0  0  1  0  0  0  0  0  0  0  0
   -4.0431    4.2403    1.9353 C   0  0  0  1  0  0  0  0  0  0  0  0
   -3.9782    4.3878   -0.4483 O   0  0  0  1  0  0  0  0  0  0  0  0
   -0.0463    3.2668    1.5887 H   0  0  0  1  0  0  0  0  0  0  0  0
    2.6903    3.7668    0.6705 H   0  0  0  1  0  0  0  0  0  0  0  0
    2.2284    2.7886    2.0425 H   0  0  0  1  0  0  0  0  0  0  0  0
    2.1502    4.5314    2.1457 H   0  0  0  1  0  0  0  0  0  0  0  0
   -5.1009    4.1646    1.7934 H   0  0  0  1  0  0  0  0  0  0  0  0
   -3.8168    5.1502    2.4507 H   0  0  0  1  0  0  0  0  0  0  0  0
   -3.7006    3.4076    2.5135 H   0  0  0  1  0  0  0  0  0  0  0  0
   -1.4114    2.7307   -1.3275 C   0  0  0  1  0  0  0  0  0  0  0  0
   -2.8050    2.5705   -1.8978 C   0  0  0  1  0  0  0  0  0  0  0  0
   -3.1143    3.1508   -3.1182 C   0  0  0  1  0  0  0  0  0  0  0  0
   -4.4069    3.0907   -3.6039 C   0  0  0  1  0  0  0  0  0  0  0  0
   -5.3927    2.4456   -2.8735 C   0  0  0  1  0  0  0  0  0  0  0  0
   -5.0841    1.8671   -1.6568 C   0  0  0  1  0  0  0  0  0  0  0  0
   -3.7878    1.9272   -1.1694 C   0  0  0  1  0  0  0  0  0  0  0  0
   -6.6177    2.4471   -3.4531 O   0  0  0  1  0  0  0  0  0  0  0  0
   -4.7588    3.6472   -4.7885 O   0  0  0  1  0  0  0  0  0  0  0  0
   -1.2309    1.9124   -0.6621 H   0  0  0  1  0  0  0  0  0  0  0  0
   -0.7158    2.6908   -2.1396 H   0  0  0  1  0  0  0  0  0  0  0  0
   -2.3739    3.6313   -3.6681 H   0  0  0  1  0  0  0  0  0  0  0  0
   -5.8246    1.3866   -1.1069 H   0  0  0  1  0  0  0  0  0  0  0  0
   -3.5548    1.4884   -0.2558 H   0  0  0  1  0  0  0  0  0  0  0  0
   -7.2887    2.2896   -2.7849 H   0  0  0  1  0  0  0  0  0  0  0  0
   -4.0023    3.6481   -5.3794 H   0  0  0  1  0  0  0  0  0  0  0  0
  1  4  1  0  0  0  0
  2  4  1  0  0  0  0
  2  5  2  0  0  0  0
  2  6  1  0  0  0  0
  3  4  1  0  0  0  0
  3  7  1  0  0  0  0
  3  8  1  0  0  0  0
  4 19  1  0  0  0  0
  6  9  1  0  0  0  0
  6 12  1  0  0  0  0
  8 10  1  0  0  0  0
  8 11  2  0  0  0  0
  9 13  1  0  0  0  0
  9 14  1  0  0  0  0
  9 15  1  0  0  0  0
 10 16  1  0  0  0  0
 10 17  1  0  0  0  0
 10 18  1  0  0  0  0
 19 20  1  0  0  0  0
 19 28  1  0  0  0  0
 19 29  1  0  0  0  0
 20 21  4  0  0  0  0
 20 25  4  0  0  0  0
 21 22  4  0  0  0  0
 21 30  1  0  0  0  0
 22 23  4  0  0  0  0
 22 27  1  0  0  0  0
 23 24  4  0  0  0  0
 23 26  1  0  0  0  0
 24 25  4  0  0  0  0
 24 31  1  0  0  0  0
 25 32  1  0  0  0  0
 26 33  1  0  0  0  0
 27 34  1  0  0  0  0
M  END
> <BCLConfClusterSize>
1

> <ConfClashScore>
0 

> <ConfOneFourInteractionScore>
-0.965014 

> <ConfScore>
0.235288 

> <ConfScorePBest>
0.00478639 

> <ConfTolerance>
0.844771 

> <RosettaParamsInstructions>
M  ROOT 3
M  POLY_N_BB 3
M  POLY_CA_BB 4
M  POLY_C_BB 2
M  POLY_O_BB 5
M  POLY_IGNORE 9 10 11 12 13 14 15 16 17 18 
M  POLY_UPPER 6
M  POLY_LOWER 8
M  POLY_CHG 0
M  POLY_PROPERTIES ALPHA_AA D_AA PROTEIN AROMATIC POLYMER 
M  END

$$$$



 34 34  0  0  0  0  0  0  0  0999 V2000
   -1.5190    0.9769    0.0931 H   0  0  0  1  0  0  0  0  0  0  0  0
    0.5365    1.2822   -0.1980 C   0  0  0  1  0  0  0  0  0  0  0  0
   -1.0972    0.2748   -1.7949 N   0  0  0  1  0  0  0  0  0  0  0  0
   -0.8920    1.2595   -0.7266 C   0  0  0  1  0  0  0  0  0  0  0  0
    1.0415    0.2881    0.3168 O   0  0  0  1  0  0  0  0  0  0  0  0
    1.1902    2.4469   -0.3339 N   0  0  0  1  0  0  0  0  0  0  0  0
   -1.8292   -0.3710   -1.7087 H   0  0  0  1  0  0  0  0  0  0  0  0
   -0.3142    0.2277   -2.8904 C   0  0  0  1  0  0  0  0  0  0  0  0
    2.5474    2.5358    0.1836 C   0  0  0  1  0  0  0  0  0  0  0  0
   -0.5444   -0.9988   -3.7517 C   0  0  0  1  0  0  0  0  0  0  0  0
    0.5170    1.0798   -3.1927 O   0  0  0  1  0  0  0  0  0  0  0  0
    0.7654    3.2154   -0.7691 H   0  0  0  1  0  0  0  0  0  0  0  0
    2.7128    1.7488    0.8894 H   0  0  0  1  0  0  0  0  0  0  0  0
    2.6840    3.4813    0.6654 H   0  0  0  1  0  0  0  0  0  0  0  0
    3.2435    2.4425   -0.6238 H   0  0  0  1  0  0  0  0  0  0  0  0
   -0.1568   -1.8629   -3.2536 H   0  0  0  1  0  0  0  0  0  0  0  0
   -0.0451   -0.8743   -4.6899 H   0  0  0  1  0  0  0  0  0  0  0  0
   -1.5936   -1.1247   -3.9194 H   0  0  0  1  0  0  0  0  0  0  0  0
   -1.3929    2.6156   -1.2061 C   0  0  0  1  0  0  0  0  0  0  0  0
   -2.7556    2.5496   -1.8422 C   0  0  0  1  0  0  0  0  0  0  0  0
   -2.9795    3.1993   -3.0461 C   0  0  0  1  0  0  0  0  0  0  0  0
   -4.2489    3.2240   -3.5922 C   0  0  0  1  0  0  0  0  0  0  0  0
   -5.2971    2.5947   -2.9389 C   0  0  0  1  0  0  0  0  0  0  0  0
   -5.0737    1.9469   -1.7386 C   0  0  0  1  0  0  0  0  0  0  0  0
   -3.8006    1.9220   -1.1907 C   0  0  0  1  0  0  0  0  0  0  0  0
   -6.5573    2.5873   -3.4373 O   0  0  0  1  0  0  0  0  0  0  0  0
   -4.5181    3.8503   -4.7635 O   0  0  0  1  0  0  0  0  0  0  0  0
   -0.6998    2.9999   -1.9250 H   0  0  0  1  0  0  0  0  0  0  0  0
   -1.4406    3.2773   -0.3667 H   0  0  0  1  0  0  0  0  0  0  0  0
   -2.1924    3.6680   -3.5383 H   0  0  0  1  0  0  0  0  0  0  0  0
   -5.8608    1.4782   -1.2464 H   0  0  0  1  0  0  0  0  0  0  0  0
   -3.6318    1.4311   -0.2895 H   0  0  0  1  0  0  0  0  0  0  0  0
   -7.1045    1.9950   -2.9164 H   0  0  0  1  0  0  0  0  0  0  0  0
   -5.0100    3.2587   -5.3376 H   0  0  0  1  0  0  0  0  0  0  0  0
  1  4  1  0  0  0  0
  2  4  1  0  0  0  0
  2  5  2  0  0  0  0
  2  6  1  0  0  0  0
  3  4  1  0  0  0  0
  3  7  1  0  0  0  0
  3  8  1  0  0  0  0
  4 19  1  0  0  0  0
  6  9  1  0  0  0  0
  6 12  1  0  0  0  0
  8 10  1  0  0  0  0
  8 11  2  0  0  0  0
  9 13  1  0  0  0  0
  9 14  1  0  0  0  0
  9 15  1  0  0  0  0
 10 16  1  0  0  0  0
 10 17  1  0  0  0  0
 10 18  1  0  0  0  0
 19 20  1  0  0  0  0
 19 28  1  0  0  0  0
 19 29  1  0  0  0  0
 20 21  4  0  0  0  0
 20 25  4  0  0  0  0
 21 22  4  0  0  0  0
 21 30  1  0  0  0  0
 22 23  4  0  0  0  0
 22 27  1  0  0  0  0
 23 24  4  0  0  0  0
 23 26  1  0  0  0  0
 24 25  4  0  0  0  0
 24 31  1  0  0  0  0
 25 32  1  0  0  0  0
 26 33  1  0  0  0  0
 27 34  1  0  0  0  0
M  END
> <BCLConfClusterSize>
1

> <ConfClashScore>
0 

> <ConfOneFourInteractionScore>
-0.927621 

> <ConfScore>
0.235644 

> <ConfScorePBest>
0.00475791 

> <ConfTolerance>
0.73052 

> <RosettaParamsInstructions>
M  ROOT 3
M  POLY_N_BB 3
M  POLY_CA_BB 4
M  POLY_C_BB 2
M  POLY_O_BB 5
M  POLY_IGNORE 9 10 11 12 13 14 15 16 17 18 
M  POLY_UPPER 6
M  POLY_LOWER 8
M  POLY_CHG 0
M  POLY_PROPERTIES ALPHA_AA D_AA PROTEIN AROMATIC POLYMER 
M  END

$$$$



 34 34  0  0  0  0  0  0  0  0999 V2000
   -1.2209    4.5922   -1.0900 H   0  0  0  1  0  0  0  0  0  0  0  0
    0.3649    3.7900    0.0244 C   0  0  0  1  0  0  0  0  0  0  0  0
   -2.0156    3.8263    0.6450 N   0  0  0  1  0  0  0  0  0  0  0  0
   -1.0682    3.7445   -0.4551 C   0  0  0  1  0  0  0  0  0  0  0  0
    0.8695    2.8253    0.5974 O   0  0  0  1  0  0  0  0  0  0  0  0
    1.0682    4.9124   -0.1939 N   0  0  0  1  0  0  0  0  0  0  0  0
   -2.7796    4.4373    0.5880 H   0  0  0  1  0  0  0  0  0  0  0  0
   -1.8458    3.0669    1.7381 C   0  0  0  1  0  0  0  0  0  0  0  0
    2.4243    5.0893    0.3036 C   0  0  0  1  0  0  0  0  0  0  0  0
   -2.8018    3.3379    2.8834 C   0  0  0  1  0  0  0  0  0  0  0  0
   -0.9773    2.2028    1.8237 O   0  0  0  1  0  0  0  0  0  0  0  0
    0.6539    5.6380   -0.7061 H   0  0  0  1  0  0  0  0  0  0  0  0
    2.4004    5.2274    1.3643 H   0  0  0  1  0  0  0  0  0  0  0  0
    2.8640    5.9487   -0.1580 H   0  0  0  1  0  0  0  0  0  0  0  0
    3.0056    4.2218    0.0701 H   0  0  0  1  0  0  0  0  0  0  0  0
   -2.9664    4.3917    2.9696 H   0  0  0  1  0  0  0  0  0  0  0  0
   -2.3806    2.9673    3.7945 H   0  0  0  1  0  0  0  0  0  0  0  0
   -3.7331    2.8460    2.6944 H   0  0  0  1  0  0  0  0  0  0  0  0
   -1.3362    2.4991   -1.2900 C   0  0  0  1  0  0  0  0  0  0  0  0
   -2.7310    2.4710   -1.8837 C   0  0  0  1  0  0  0  0  0  0  0  0
   -2.9899    2.9650   -3.1528 C   0  0  0  1  0  0  0  0  0  0  0  0
   -4.2883    3.0117   -3.6243 C   0  0  0  1  0  0  0  0  0  0  0  0
   -5.3309    2.5598   -2.8305 C   0  0  0  1  0  0  0  0  0  0  0  0
   -5.0726    2.0673   -1.5653 C   0  0  0  1  0  0  0  0  0  0  0  0
   -3.7705    2.0203   -1.0921 C   0  0  0  1  0  0  0  0  0  0  0  0
   -6.5946    2.6111   -3.3174 O   0  0  0  1  0  0  0  0  0  0  0  0
   -4.5917    3.4906   -4.8554 O   0  0  0  1  0  0  0  0  0  0  0  0
   -1.2141    1.6383   -0.6663 H   0  0  0  1  0  0  0  0  0  0  0  0
   -0.6253    2.4652   -2.0889 H   0  0  0  1  0  0  0  0  0  0  0  0
   -2.2073    3.3003   -3.7500 H   0  0  0  1  0  0  0  0  0  0  0  0
   -5.8552    1.7319   -0.9681 H   0  0  0  1  0  0  0  0  0  0  0  0
   -3.5758    1.6460   -0.1415 H   0  0  0  1  0  0  0  0  0  0  0  0
   -6.7734    1.8185   -3.8288 H   0  0  0  1  0  0  0  0  0  0  0  0
   -5.3057    4.1282   -4.7841 H   0  0  0  1  0  0  0  0  0  0  0  0
  1  4  1  0  0  0  0
  2  4  1  0  0  0  0
  2  5  2  0  0  0  0
  2  6  1  0  0  0  0
  3  4  1  0  0  0  0
  3  7  1  0  0  0  0
  3  8  1  0  0  0  0
  4 19  1  0  0  0  0
  6  9  1  0  0  0  0
  6 12  1  0  0  0  0
  8 10  1  0  0  0  0
  8 11  2  0  0  0  0
  9 13  1  0  0  0  0
  9 14  1  0  0  0  0
  9 15  1  0  0  0  0
 10 16  1  0  0  0  0
 10 17  1  0  0  0  0
 10 18  1  0  0  0  0
 19 20  1  0  0  0  0
 19 28  1  0  0  0  0
 19 29  1  0  0  0  0
 20 21  4  0  0  0  0
 20 25  4  0  0  0  0
 21 22  4  0  0  0  0
 21 30  1  0  0  0  0
 22 23  4  0  0  0  0
 22 27  1  0  0  0  0
 23 24  4  0  0  0  0
 23 26  1  0  0  0  0
 24 25  4  0  0  0  0
 24 31  1  0  0  0  0
 25 32  1  0  0  0  0
 26 33  1  0  0  0  0
 27 34  1  0  0  0  0
M  END
> <BCLConfClusterSize>
1

> <ConfClashScore>
0 

> <ConfOneFourInteractionScore>
-0.976539 

> <ConfScore>
0.238324 

> <ConfScorePBest>
0.00472943 

> <ConfTolerance>
0.556748 

> <RosettaParamsInstructions>
M  ROOT 3
M  POLY_N_BB 3
M  POLY_CA_BB 4
M  POLY_C_BB 2
M  POLY_O_BB 5
M  POLY_IGNORE 9 10 11 12 13 14 15 16 17 18 
M  POLY_UPPER 6
M  POLY_LOWER 8
M  POLY_CHG 0
M  POLY_PROPERTIES ALPHA_AA D_AA PROTEIN AROMATIC POLYMER 
M  END

$$$$



 34 34  0  0  0  0  0  0  0  0999 V2000
   -0.5990    0.8730   -2.2536 H   0  0  0  1  0  0  0  0  0  0  0  0
   -1.6065    0.2453   -0.5121 C   0  0  0  1  0  0  0  0  0  0  0  0
    0.5937    1.3637   -0.6499 N   0  0  0  1  0  0  0  0  0  0  0  0
   -0.7234    1.2407   -1.2565 C   0  0  0  1  0  0  0  0  0  0  0  0
   -1.9532    0.4449    0.6513 O   0  0  0  1  0  0  0  0  0  0  0  0
   -1.9707   -0.8436   -1.2063 N   0  0  0  1  0  0  0  0  0  0  0  0
    0.9888    2.2438   -0.4774 H   0  0  0  1  0  0  0  0  0  0  0  0
    1.2517    0.2380   -0.3337 C   0  0  0  1  0  0  0  0  0  0  0  0
   -2.8639   -1.8528   -0.6573 C   0  0  0  1  0  0  0  0  0  0  0  0
    2.6099    0.3677    0.3177 C   0  0  0  1  0  0  0  0  0  0  0  0
    0.7663   -0.8684   -0.5659 O   0  0  0  1  0  0  0  0  0  0  0  0
   -1.6230   -0.9635   -2.1147 H   0  0  0  1  0  0  0  0  0  0  0  0
   -2.6374   -2.0055    0.3773 H   0  0  0  1  0  0  0  0  0  0  0  0
   -2.7338   -2.7717   -1.1899 H   0  0  0  1  0  0  0  0  0  0  0  0
   -3.8772   -1.5234   -0.7555 H   0  0  0  1  0  0  0  0  0  0  0  0
    2.9437   -0.5956    0.6427 H   0  0  0  1  0  0  0  0  0  0  0  0
    2.5400    1.0236    1.1601 H   0  0  0  1  0  0  0  0  0  0  0  0
    3.3074    0.7668   -0.3889 H   0  0  0  1  0  0  0  0  0  0  0  0
   -1.3877    2.6076   -1.3559 C   0  0  0  1  0  0  0  0  0  0  0  0
   -2.7969    2.5437   -1.9065 C   0  0  0  1  0  0  0  0  0  0  0  0
   -3.0949    3.1887   -3.0968 C   0  0  0  1  0  0  0  0  0  0  0  0
   -4.3965    3.2160   -3.5608 C   0  0  0  1  0  0  0  0  0  0  0  0
   -5.4031    2.5939   -2.8388 C   0  0  0  1  0  0  0  0  0  0  0  0
   -5.1058    1.9509   -1.6520 C   0  0  0  1  0  0  0  0  0  0  0  0
   -3.8005    1.9234   -1.1865 C   0  0  0  1  0  0  0  0  0  0  0  0
   -6.6822    2.6096   -3.2863 O   0  0  0  1  0  0  0  0  0  0  0  0
   -4.6636    3.8574   -4.7244 O   0  0  0  1  0  0  0  0  0  0  0  0
   -0.7983    3.2267   -1.9995 H   0  0  0  1  0  0  0  0  0  0  0  0
   -1.4234    3.0408   -0.3781 H   0  0  0  1  0  0  0  0  0  0  0  0
   -2.3391    3.6520   -3.6406 H   0  0  0  1  0  0  0  0  0  0  0  0
   -5.8617    1.4876   -1.1082 H   0  0  0  1  0  0  0  0  0  0  0  0
   -3.5762    1.4361   -0.2955 H   0  0  0  1  0  0  0  0  0  0  0  0
   -7.1346    1.8158   -2.9915 H   0  0  0  1  0  0  0  0  0  0  0  0
   -4.1802    3.4378   -5.4399 H   0  0  0  1  0  0  0  0  0  0  0  0
  1  4  1  0  0  0  0
  2  4  1  0  0  0  0
  2  5  2  0  0  0  0
  2  6  1  0  0  0  0
  3  4  1  0  0  0  0
  3  7  1  0  0  0  0
  3  8  1  0  0  0  0
  4 19  1  0  0  0  0
  6  9  1  0  0  0  0
  6 12  1  0  0  0  0
  8 10  1  0  0  0  0
  8 11  2  0  0  0  0
  9 13  1  0  0  0  0
  9 14  1  0  0  0  0
  9 15  1  0  0  0  0
 10 16  1  0  0  0  0
 10 17  1  0  0  0  0
 10 18  1  0  0  0  0
 19 20  1  0  0  0  0
 19 28  1  0  0  0  0
 19 29  1  0  0  0  0
 20 21  4  0  0  0  0
 20 25  4  0  0  0  0
 21 22  4  0  0  0  0
 21 30  1  0  0  0  0
 22 23  4  0  0  0  0
 22 27  1  0  0  0  0
 23 24  4  0  0  0  0
 23 26  1  0  0  0  0
 24 25  4  0  0  0  0
 24 31  1  0  0  0  0
 25 32  1  0  0  0  0
 26 33  1  0  0  0  0
 27 34  1  0  0  0  0
M  END
> <BCLConfClusterSize>
1

> <ConfClashScore>
0 

> <ConfOneFourInteractionScore>
-0.981931 

> <ConfScore>
0.238328 

> <ConfScorePBest>
0.00470095 

> <ConfTolerance>
0.60003 

> <RosettaParamsInstructions>
M  ROOT 3
M  POLY_N_BB 3
M  POLY_CA_BB 4
M  POLY_C_BB 2
M  POLY_O_BB 5
M  POLY_IGNORE 9 10 11 12 13 14 15 16 17 18 
M  POLY_UPPER 6
M  POLY_LOWER 8
M  POLY_CHG 0
M  POLY_PROPERTIES ALPHA_AA D_AA PROTEIN AROMATIC POLYMER 
M  END

$$$$



 34 34  0  0  0  0  0  0  0  0999 V2000
    0.4305    3.7663   -1.4086 H   0  0  0  1  0  0  0  0  0  0  0  0
   -0.9349    5.3075   -1.6860 C   0  0  0  1  0  0  0  0  0  0  0  0
   -0.2436    3.5428   -3.3276 N   0  0  0  1  0  0  0  0  0  0  0  0
   -0.5139    3.8568   -1.9035 C   0  0  0  1  0  0  0  0  0  0  0  0
   -0.7287    5.8850   -0.6219 O   0  0  0  1  0  0  0  0  0  0  0  0
   -1.5318    5.8582   -2.7469 N   0  0  0  1  0  0  0  0  0  0  0  0
   -0.8075    2.8706   -3.7642 H   0  0  0  1  0  0  0  0  0  0  0  0
    0.7175    4.1169   -4.0517 C   0  0  0  1  0  0  0  0  0  0  0  0
   -1.9310    7.2574   -2.7749 C   0  0  0  1  0  0  0  0  0  0  0  0
    0.8581    3.6162   -5.4714 C   0  0  0  1  0  0  0  0  0  0  0  0
    1.4527    4.9989   -3.6100 O   0  0  0  1  0  0  0  0  0  0  0  0
   -1.7069    5.3006   -3.5335 H   0  0  0  1  0  0  0  0  0  0  0  0
   -2.1924    7.5742   -1.7869 H   0  0  0  1  0  0  0  0  0  0  0  0
   -2.7754    7.3742   -3.4216 H   0  0  0  1  0  0  0  0  0  0  0  0
   -1.1189    7.8526   -3.1369 H   0  0  0  1  0  0  0  0  0  0  0  0
    1.5189    2.7749   -5.4897 H   0  0  0  1  0  0  0  0  0  0  0  0
    1.2566    4.3959   -6.0864 H   0  0  0  1  0  0  0  0  0  0  0  0
   -0.1017    3.3237   -5.8429 H   0  0  0  1  0  0  0  0  0  0  0  0
   -1.4082    2.8374   -1.2346 C   0  0  0  1  0  0  0  0  0  0  0  0
   -2.7824    2.6133   -1.8302 C   0  0  0  1  0  0  0  0  0  0  0  0
   -3.1055    3.2027   -3.0426 C   0  0  0  1  0  0  0  0  0  0  0  0
   -4.3855    3.0823   -3.5499 C   0  0  0  1  0  0  0  0  0  0  0  0
   -5.3446    2.3678   -2.8491 C   0  0  0  1  0  0  0  0  0  0  0  0
   -5.0223    1.7803   -1.6403 C   0  0  0  1  0  0  0  0  0  0  0  0
   -3.7386    1.9009   -1.1313 C   0  0  0  1  0  0  0  0  0  0  0  0
   -6.5757    2.2876   -3.4100 O   0  0  0  1  0  0  0  0  0  0  0  0
   -4.6785    3.6718   -4.7345 O   0  0  0  1  0  0  0  0  0  0  0  0
   -1.5458    3.1488   -0.2202 H   0  0  0  1  0  0  0  0  0  0  0  0
   -0.8942    1.8991   -1.2535 H   0  0  0  1  0  0  0  0  0  0  0  0
   -2.3849    3.7353   -3.5704 H   0  0  0  1  0  0  0  0  0  0  0  0
   -5.7429    1.2477   -1.1126 H   0  0  0  1  0  0  0  0  0  0  0  0
   -3.4950    1.4554   -0.2237 H   0  0  0  1  0  0  0  0  0  0  0  0
   -7.0178    3.1365   -3.3354 H   0  0  0  1  0  0  0  0  0  0  0  0
   -4.7411    3.0017   -5.4191 H   0  0  0  1  0  0  0  0  0  0  0  0
  1  4  1  0  0  0  0
  2  4  1  0  0  0  0
  2  5  2  0  0  0  0
  2  6  1  0  0  0  0
  3  4  1  0  0  0  0
  3  7  1  0  0  0  0
  3  8  1  0  0  0  0
  4 19  1  0  0  0  0
  6  9  1  0  0  0  0
  6 12  1  0  0  0  0
  8 10  1  0  0  0  0
  8 11  2  0  0  0  0
  9 13  1  0  0  0  0
  9 14  1  0  0  0  0
  9 15  1  0  0  0  0
 10 16  1  0  0  0  0
 10 17  1  0  0  0  0
 10 18  1  0  0  0  0
 19 20  1  0  0  0  0
 19 28  1  0  0  0  0
 19 29  1  0  0  0  0
 20 21  4  0  0  0  0
 20 25  4  0  0  0  0
 21 22  4  0  0  0  0
 21 30  1  0  0  0  0
 22 23  4  0  0  0  0
 22 27  1  0  0  0  0
 23 24  4  0  0  0  0
 23 26  1  0  0  0  0
 24 25  4  0  0  0  0
 24 31  1  0  0  0  0
 25 32  1  0  0  0  0
 26 33  1  0  0  0  0
 27 34  1  0  0  0  0
M  END
> <BCLConfClusterSize>
1

> <ConfClashScore>
0 

> <ConfOneFourInteractionScore>
-0.924495 

> <ConfScore>
0.238341 

> <ConfScorePBest>
0.00467247 

> <ConfTolerance>
0.582772 

> <RosettaParamsInstructions>
M  ROOT 3
M  POLY_N_BB 3
M  POLY_CA_BB 4
M  POLY_C_BB 2
M  POLY_O_BB 5
M  POLY_IGNORE 9 10 11 12 13 14 15 16 17 18 
M  POLY_UPPER 6
M  POLY_LOWER 8
M  POLY_CHG 0
M  POLY_PROPERTIES ALPHA_AA D_AA PROTEIN AROMATIC POLYMER 
M  END

$$$$



 34 34  0  0  0  0  0  0  0  0999 V2000
    0.0033    3.7720   -0.2145 H   0  0  0  1  0  0  0  0  0  0  0  0
   -1.7757    3.6940    0.9017 C   0  0  0  1  0  0  0  0  0  0  0  0
   -1.3668    4.9821   -1.1599 N   0  0  0  1  0  0  0  0  0  0  0  0
   -1.0457    3.7675   -0.4254 C   0  0  0  1  0  0  0  0  0  0  0  0
   -2.3025    4.6876    1.3951 O   0  0  0  1  0  0  0  0  0  0  0  0
   -1.8030    2.4858    1.4861 N   0  0  0  1  0  0  0  0  0  0  0  0
   -1.9820    4.9261   -1.9207 H   0  0  0  1  0  0  0  0  0  0  0  0
   -0.8540    6.1664   -0.8343 C   0  0  0  1  0  0  0  0  0  0  0  0
   -2.3123    2.2859    2.8346 C   0  0  0  1  0  0  0  0  0  0  0  0
   -1.3777    7.3828   -1.6083 C   0  0  0  1  0  0  0  0  0  0  0  0
   -0.0584    6.3245    0.0901 O   0  0  0  1  0  0  0  0  0  0  0  0
   -1.4683    1.7115    0.9873 H   0  0  0  1  0  0  0  0  0  0  0  0
   -1.8015    2.9400    3.5100 H   0  0  0  1  0  0  0  0  0  0  0  0
   -2.1494    1.2705    3.1302 H   0  0  0  1  0  0  0  0  0  0  0  0
   -3.3604    2.5001    2.8552 H   0  0  0  1  0  0  0  0  0  0  0  0
   -0.7735    7.5405   -2.4772 H   0  0  0  1  0  0  0  0  0  0  0  0
   -1.3345    8.2494   -0.9821 H   0  0  0  1  0  0  0  0  0  0  0  0
   -2.3905    7.2071   -1.9056 H   0  0  0  1  0  0  0  0  0  0  0  0
   -1.3302    2.5339   -1.2899 C   0  0  0  1  0  0  0  0  0  0  0  0
   -2.7364    2.5157   -1.8535 C   0  0  0  1  0  0  0  0  0  0  0  0
   -2.9988    3.1550   -3.0552 C   0  0  0  1  0  0  0  0  0  0  0  0
   -4.2942    3.2250   -3.5321 C   0  0  0  1  0  0  0  0  0  0  0  0
   -5.3302    2.6514   -2.8115 C   0  0  0  1  0  0  0  0  0  0  0  0
   -5.0684    2.0140   -1.6134 C   0  0  0  1  0  0  0  0  0  0  0  0
   -3.7693    1.9437   -1.1349 C   0  0  0  1  0  0  0  0  0  0  0  0
   -6.6151    2.6898   -3.2406 O   0  0  0  1  0  0  0  0  0  0  0  0
   -4.6460    3.8324   -4.6914 O   0  0  0  1  0  0  0  0  0  0  0  0
   -1.1923    1.6586   -0.6901 H   0  0  0  1  0  0  0  0  0  0  0  0
   -0.6366    2.5216   -2.1045 H   0  0  0  1  0  0  0  0  0  0  0  0
   -2.2211    3.5818   -3.5978 H   0  0  0  1  0  0  0  0  0  0  0  0
   -5.8462    1.5872   -1.0708 H   0  0  0  1  0  0  0  0  0  0  0  0
   -3.5719    1.4606   -0.2354 H   0  0  0  1  0  0  0  0  0  0  0  0
   -6.8092    1.8947   -3.7425 H   0  0  0  1  0  0  0  0  0  0  0  0
   -5.1860    3.2357   -5.2147 H   0  0  0  1  0  0  0  0  0  0  0  0
  1  4  1  0  0  0  0
  2  4  1  0  0  0  0
  2  5  2  0  0  0  0
  2  6  1  0  0  0  0
  3  4  1  0  0  0  0
  3  7  1  0  0  0  0
  3  8  1  0  0  0  0
  4 19  1  0  0  0  0
  6  9  1  0  0  0  0
  6 12  1  0  0  0  0
  8 10  1  0  0  0  0
  8 11  2  0  0  0  0
  9 13  1  0  0  0  0
  9 14  1  0  0  0  0
  9 15  1  0  0  0  0
 10 16  1  0  0  0  0
 10 17  1  0  0  0  0
 10 18  1  0  0  0  0
 19 20  1  0  0  0  0
 19 28  1  0  0  0  0
 19 29  1  0  0  0  0
 20 21  4  0  0  0  0
 20 25  4  0  0  0  0
 21 22  4  0  0  0  0
 21 30  1  0  0  0  0
 22 23  4  0  0  0  0
 22 27  1  0  0  0  0
 23 24  4  0  0  0  0
 23 26  1  0  0  0  0
 24 25  4  0  0  0  0
 24 31  1  0  0  0  0
 25 32  1  0  0  0  0
 26 33  1  0  0  0  0
 27 34  1  0  0  0  0
M  END
> <BCLConfClusterSize>
1

> <ConfClashScore>
0 

> <ConfOneFourInteractionScore>
-0.976093 

> <ConfScore>
0.238909 

> <ConfScorePBest>
0.00464399 

> <ConfTolerance>
0.551377 

> <RosettaParamsInstructions>
M  ROOT 3
M  POLY_N_BB 3
M  POLY_CA_BB 4
M  POLY_C_BB 2
M  POLY_O_BB 5
M  POLY_IGNORE 9 10 11 12 13 14 15 16 17 18 
M  POLY_UPPER 6
M  POLY_LOWER 8
M  POLY_CHG 0
M  POLY_PROPERTIES ALPHA_AA D_AA PROTEIN AROMATIC POLYMER 
M  END

$$$$



 34 34  0  0  0  0  0  0  0  0999 V2000
   -0.4631    1.1694   -2.3449 H   0  0  0  1  0  0  0  0  0  0  0  0
   -1.1575    0.2741   -0.5430 C   0  0  0  1  0  0  0  0  0  0  0  0
    0.7854    1.7233   -0.7652 N   0  0  0  1  0  0  0  0  0  0  0  0
   -0.5495    1.4434   -1.3142 C   0  0  0  1  0  0  0  0  0  0  0  0
   -1.3326    0.3395    0.6731 O   0  0  0  1  0  0  0  0  0  0  0  0
   -1.3982   -0.8259   -1.2738 N   0  0  0  1  0  0  0  0  0  0  0  0
    0.8673    1.9568    0.1831 H   0  0  0  1  0  0  0  0  0  0  0  0
    1.8905    1.6704   -1.5141 C   0  0  0  1  0  0  0  0  0  0  0  0
   -1.8551   -2.0717   -0.6763 C   0  0  0  1  0  0  0  0  0  0  0  0
    3.1715    2.0827   -0.8247 C   0  0  0  1  0  0  0  0  0  0  0  0
    1.8857    1.3119   -2.6909 O   0  0  0  1  0  0  0  0  0  0  0  0
   -1.2614   -0.7887   -2.2435 H   0  0  0  1  0  0  0  0  0  0  0  0
   -2.1357   -2.7567   -1.4490 H   0  0  0  1  0  0  0  0  0  0  0  0
   -2.6995   -1.8772   -0.0485 H   0  0  0  1  0  0  0  0  0  0  0  0
   -1.0661   -2.4972   -0.0920 H   0  0  0  1  0  0  0  0  0  0  0  0
    3.6968    1.2104   -0.4959 H   0  0  0  1  0  0  0  0  0  0  0  0
    2.9398    2.6984    0.0192 H   0  0  0  1  0  0  0  0  0  0  0  0
    3.7842    2.6309   -1.5094 H   0  0  0  1  0  0  0  0  0  0  0  0
   -1.4241    2.6959   -1.2090 C   0  0  0  1  0  0  0  0  0  0  0  0
   -2.7716    2.5379   -1.8859 C   0  0  0  1  0  0  0  0  0  0  0  0
   -2.9958    3.0000   -3.1734 C   0  0  0  1  0  0  0  0  0  0  0  0
   -4.2617    2.9261   -3.7234 C   0  0  0  1  0  0  0  0  0  0  0  0
   -5.3058    2.3850   -2.9895 C   0  0  0  1  0  0  0  0  0  0  0  0
   -5.0820    1.9243   -1.7058 C   0  0  0  1  0  0  0  0  0  0  0  0
   -3.8126    1.9984   -1.1541 C   0  0  0  1  0  0  0  0  0  0  0  0
   -6.5624    2.2865   -3.4875 O   0  0  0  1  0  0  0  0  0  0  0  0
   -4.5311    3.3693   -4.9754 O   0  0  0  1  0  0  0  0  0  0  0  0
   -0.9063    3.5123   -1.6674 H   0  0  0  1  0  0  0  0  0  0  0  0
   -1.5864    2.9120   -0.1737 H   0  0  0  1  0  0  0  0  0  0  0  0
   -2.2116    3.4023   -3.7256 H   0  0  0  1  0  0  0  0  0  0  0  0
   -5.8662    1.5220   -1.1537 H   0  0  0  1  0  0  0  0  0  0  0  0
   -3.6434    1.6480   -0.1896 H   0  0  0  1  0  0  0  0  0  0  0  0
   -7.1962    2.3236   -2.7674 H   0  0  0  1  0  0  0  0  0  0  0  0
   -4.7584    4.3014   -4.9435 H   0  0  0  1  0  0  0  0  0  0  0  0
  1  4  1  0  0  0  0
  2  4  1  0  0  0  0
  2  5  2  0  0  0  0
  2  6  1  0  0  0  0
  3  4  1  0  0  0  0
  3  7  1  0  0  0  0
  3  8  1  0  0  0  0
  4 19  1  0  0  0  0
  6  9  1  0  0  0  0
  6 12  1  0  0  0  0
  8 10  1  0  0  0  0
  8 11  2  0  0  0  0
  9 13  1  0  0  0  0
  9 14  1  0  0  0  0
  9 15  1  0  0  0  0
 10 16  1  0  0  0  0
 10 17  1  0  0  0  0
 10 18  1  0  0  0  0
 19 20  1  0  0  0  0
 19 28  1  0  0  0  0
 19 29  1  0  0  0  0
 20 21  4  0  0  0  0
 20 25  4  0  0  0  0
 21 22  4  0  0  0  0
 21 30  1  0  0  0  0
 22 23  4  0  0  0  0
 22 27  1  0  0  0  0
 23 24  4  0  0  0  0
 23 26  1  0  0  0  0
 24 25  4  0  0  0  0
 24 31  1  0  0  0  0
 25 32  1  0  0  0  0
 26 33  1  0  0  0  0
 27 34  1  0  0  0  0
M  END
> <BCLConfClusterSize>
1

> <ConfClashScore>
0 

> <ConfOneFourInteractionScore>
-0.982823 

> <ConfScore>
0.239756 

> <ConfScorePBest>
0.00461551 

> <ConfTolerance>
0.442611 

> <RosettaParamsInstructions>
M  ROOT 3
M  POLY_N_BB 3
M  POLY_CA_BB 4
M  POLY_C_BB 2
M  POLY_O_BB 5
M  POLY_IGNORE 9 10 11 12 13 14 15 16 17 18 
M  POLY_UPPER 6
M  POLY_LOWER 8
M  POLY_CHG 0
M  POLY_PROPERTIES ALPHA_AA D_AA PROTEIN AROMATIC POLYMER 
M  END

$$$$



 34 34  0  0  0  0  0  0  0  0999 V2000
   -1.3086    1.0210   -0.2522 H   0  0  0  1  0  0  0  0  0  0  0  0
    0.6152    1.8728   -0.1844 C   0  0  0  1  0  0  0  0  0  0  0  0
   -0.4919    0.7240   -2.1141 N   0  0  0  1  0  0  0  0  0  0  0  0
   -0.6755    1.5524   -0.9318 C   0  0  0  1  0  0  0  0  0  0  0  0
    1.5992    2.3132   -0.7767 O   0  0  0  1  0  0  0  0  0  0  0  0
    0.5813    1.7322    1.1483 N   0  0  0  1  0  0  0  0  0  0  0  0
   -0.7927    1.0654   -2.9821 H   0  0  0  1  0  0  0  0  0  0  0  0
    0.0765   -0.4946   -2.0570 C   0  0  0  1  0  0  0  0  0  0  0  0
    1.7610    1.9138    1.9788 C   0  0  0  1  0  0  0  0  0  0  0  0
    0.2898   -1.1887   -3.3961 C   0  0  0  1  0  0  0  0  0  0  0  0
    0.4087   -1.0288   -1.0022 O   0  0  0  1  0  0  0  0  0  0  0  0
   -0.2681    1.4989    1.5778 H   0  0  0  1  0  0  0  0  0  0  0  0
    2.6370    1.6780    1.4114 H   0  0  0  1  0  0  0  0  0  0  0  0
    1.7017    1.2663    2.8286 H   0  0  0  1  0  0  0  0  0  0  0  0
    1.8123    2.9308    2.3075 H   0  0  0  1  0  0  0  0  0  0  0  0
   -0.5901   -1.0854   -3.9961 H   0  0  0  1  0  0  0  0  0  0  0  0
    0.4891   -2.2271   -3.2316 H   0  0  0  1  0  0  0  0  0  0  0  0
    1.1202   -0.7413   -3.9012 H   0  0  0  1  0  0  0  0  0  0  0  0
   -1.4183    2.8152   -1.3365 C   0  0  0  1  0  0  0  0  0  0  0  0
   -2.8100    2.5988   -1.8980 C   0  0  0  1  0  0  0  0  0  0  0  0
   -3.1872    3.1221   -3.1249 C   0  0  0  1  0  0  0  0  0  0  0  0
   -4.4915    2.9875   -3.5619 C   0  0  0  1  0  0  0  0  0  0  0  0
   -5.4211    2.3247   -2.7757 C   0  0  0  1  0  0  0  0  0  0  0  0
   -5.0448    1.8029   -1.5525 C   0  0  0  1  0  0  0  0  0  0  0  0
   -3.7367    1.9378   -1.1141 C   0  0  0  1  0  0  0  0  0  0  0  0
   -6.6925    2.2011   -3.2284 O   0  0  0  1  0  0  0  0  0  0  0  0
   -4.8373    3.5123   -4.7626 O   0  0  0  1  0  0  0  0  0  0  0  0
   -0.8361    3.3163   -2.0813 H   0  0  0  1  0  0  0  0  0  0  0  0
   -1.5048    3.4389   -0.4714 H   0  0  0  1  0  0  0  0  0  0  0  0
   -2.4889    3.6159   -3.7166 H   0  0  0  1  0  0  0  0  0  0  0  0
   -5.7432    1.3091   -0.9609 H   0  0  0  1  0  0  0  0  0  0  0  0
   -3.4527    1.5417   -0.1954 H   0  0  0  1  0  0  0  0  0  0  0  0
   -7.0193    3.0605   -3.5046 H   0  0  0  1  0  0  0  0  0  0  0  0
   -4.0796    3.4911   -5.3517 H   0  0  0  1  0  0  0  0  0  0  0  0
  1  4  1  0  0  0  0
  2  4  1  0  0  0  0
  2  5  2  0  0  0  0
  2  6  1  0  0  0  0
  3  4  1  0  0  0  0
  3  7  1  0  0  0  0
  3  8  1  0  0  0  0
  4 19  1  0  0  0  0
  6  9  1  0  0  0  0
  6 12  1  0  0  0  0
  8 10  1  0  0  0  0
  8 11  2  0  0  0  0
  9 13  1  0  0  0  0
  9 14  1  0  0  0  0
  9 15  1  0  0  0  0
 10 16  1  0  0  0  0
 10 17  1  0  0  0  0
 10 18  1  0  0  0  0
 19 20  1  0  0  0  0
 19 28  1  0  0  0  0
 19 29  1  0  0  0  0
 20 21  4  0  0  0  0
 20 25  4  0  0  0  0
 21 22  4  0  0  0  0
 21 30  1  0  0  0  0
 22 23  4  0  0  0  0
 22 27  1  0  0  0  0
 23 24  4  0  0  0  0
 23 26  1  0  0  0  0
 24 25  4  0  0  0  0
 24 31  1  0  0  0  0
 25 32  1  0  0  0  0
 26 33  1  0  0  0  0
 27 34  1  0  0  0  0
M  END
> <BCLConfClusterSize>
1

> <ConfClashScore>
0 

> <ConfOneFourInteractionScore>
-0.985807 

> <ConfScore>
0.242459 

> <ConfScorePBest>
0.00458703 

> <ConfTolerance>
0.612764 

> <RosettaParamsInstructions>
M  ROOT 3
M  POLY_N_BB 3
M  POLY_CA_BB 4
M  POLY_C_BB 2
M  POLY_O_BB 5
M  POLY_IGNORE 9 10 11 12 13 14 15 16 17 18 
M  POLY_UPPER 6
M  POLY_LOWER 8
M  POLY_CHG 0
M  POLY_PROPERTIES ALPHA_AA D_AA PROTEIN AROMATIC POLYMER 
M  END

$$$$



 34 34  0  0  0  0  0  0  0  0999 V2000
   -1.7857    4.0926   -0.0149 H   0  0  0  1  0  0  0  0  0  0  0  0
   -0.9337    4.9704   -1.7247 C   0  0  0  1  0  0  0  0  0  0  0  0
    0.2454    3.7448    0.0682 N   0  0  0  1  0  0  0  0  0  0  0  0
   -0.9954    3.8562   -0.6963 C   0  0  0  1  0  0  0  0  0  0  0  0
   -1.8256    5.1631   -2.5308 O   0  0  0  1  0  0  0  0  0  0  0  0
    0.1352    5.7714   -1.7509 N   0  0  0  1  0  0  0  0  0  0  0  0
    0.9350    3.1195   -0.2381 H   0  0  0  1  0  0  0  0  0  0  0  0
    0.4737    4.4711    1.1780 C   0  0  0  1  0  0  0  0  0  0  0  0
    0.1746    6.9894   -2.5463 C   0  0  0  1  0  0  0  0  0  0  0  0
    1.7409    4.1315    1.9384 C   0  0  0  1  0  0  0  0  0  0  0  0
   -0.2793    5.3504    1.5631 O   0  0  0  1  0  0  0  0  0  0  0  0
    0.9201    5.5304   -1.2158 H   0  0  0  1  0  0  0  0  0  0  0  0
   -0.4871    6.8921   -3.3815 H   0  0  0  1  0  0  0  0  0  0  0  0
    1.1716    7.1529   -2.8987 H   0  0  0  1  0  0  0  0  0  0  0  0
   -0.1317    7.8188   -1.9437 H   0  0  0  1  0  0  0  0  0  0  0  0
    2.0978    5.0036    2.4453 H   0  0  0  1  0  0  0  0  0  0  0  0
    2.4867    3.7875    1.2526 H   0  0  0  1  0  0  0  0  0  0  0  0
    1.5322    3.3637    2.6539 H   0  0  0  1  0  0  0  0  0  0  0  0
   -1.3376    2.5205   -1.3432 C   0  0  0  1  0  0  0  0  0  0  0  0
   -2.7420    2.4692   -1.8826 C   0  0  0  1  0  0  0  0  0  0  0  0
   -3.0049    2.9628   -3.1510 C   0  0  0  1  0  0  0  0  0  0  0  0
   -4.3044    3.0065   -3.6197 C   0  0  0  1  0  0  0  0  0  0  0  0
   -5.3442    2.5519   -2.8237 C   0  0  0  1  0  0  0  0  0  0  0  0
   -5.0819    2.0598   -1.5591 C   0  0  0  1  0  0  0  0  0  0  0  0
   -3.7787    2.0158   -1.0888 C   0  0  0  1  0  0  0  0  0  0  0  0
   -6.5907    2.6205   -3.3512 O   0  0  0  1  0  0  0  0  0  0  0  0
   -4.5365    3.4983   -4.8610 O   0  0  0  1  0  0  0  0  0  0  0  0
   -1.2257    1.7487   -0.6106 H   0  0  0  1  0  0  0  0  0  0  0  0
   -0.6564    2.3485   -2.1502 H   0  0  0  1  0  0  0  0  0  0  0  0
   -2.2244    3.3002   -3.7498 H   0  0  0  1  0  0  0  0  0  0  0  0
   -5.8624    1.7224   -0.9603 H   0  0  0  1  0  0  0  0  0  0  0  0
   -3.5810    1.6418   -0.1387 H   0  0  0  1  0  0  0  0  0  0  0  0
   -6.8212    1.7734   -3.7398 H   0  0  0  1  0  0  0  0  0  0  0  0
   -5.2133    4.1777   -4.8152 H   0  0  0  1  0  0  0  0  0  0  0  0
  1  4  1  0  0  0  0
  2  4  1  0  0  0  0
  2  5  2  0  0  0  0
  2  6  1  0  0  0  0
  3  4  1  0  0  0  0
  3  7  1  0  0  0  0
  3  8  1  0  0  0  0
  4 19  1  0  0  0  0
  6  9  1  0  0  0  0
  6 12  1  0  0  0  0
  8 10  1  0  0  0  0
  8 11  2  0  0  0  0
  9 13  1  0  0  0  0
  9 14  1  0  0  0  0
  9 15  1  0  0  0  0
 10 16  1  0  0  0  0
 10 17  1  0  0  0  0
 10 18  1  0  0  0  0
 19 20  1  0  0  0  0
 19 28  1  0  0  0  0
 19 29  1  0  0  0  0
 20 21  4  0  0  0  0
 20 25  4  0  0  0  0
 21 22  4  0  0  0  0
 21 30  1  0  0  0  0
 22 23  4  0  0  0  0
 22 27  1  0  0  0  0
 23 24  4  0  0  0  0
 23 26  1  0  0  0  0
 24 25  4  0  0  0  0
 24 31  1  0  0  0  0
 25 32  1  0  0  0  0
 26 33  1  0  0  0  0
 27 34  1  0  0  0  0
M  END
> <BCLConfClusterSize>
1

> <ConfClashScore>
0 

> <ConfOneFourInteractionScore>
-0.960318 

> <ConfScore>
0.244123 

> <ConfScorePBest>
0.00455855 

> <ConfTolerance>
0.466996 

> <RosettaParamsInstructions>
M  ROOT 3
M  POLY_N_BB 3
M  POLY_CA_BB 4
M  POLY_C_BB 2
M  POLY_O_BB 5
M  POLY_IGNORE 9 10 11 12 13 14 15 16 17 18 
M  POLY_UPPER 6
M  POLY_LOWER 8
M  POLY_CHG 0
M  POLY_PROPERTIES ALPHA_AA D_AA PROTEIN AROMATIC POLYMER 
M  END

$$$$



 34 34  0  0  0  0  0  0  0  0999 V2000
   -0.4044    2.2182   -3.1467 H   0  0  0  1  0  0  0  0  0  0  0  0
    1.1020    2.7570   -1.7342 C   0  0  0  1  0  0  0  0  0  0  0  0
   -0.4725    4.2786   -2.8103 N   0  0  0  1  0  0  0  0  0  0  0  0
   -0.3052    2.8999   -2.3279 C   0  0  0  1  0  0  0  0  0  0  0  0
    2.0616    3.2803   -2.2990 O   0  0  0  1  0  0  0  0  0  0  0  0
    1.1996    2.1231   -0.5549 N   0  0  0  1  0  0  0  0  0  0  0  0
   -1.2495    4.7807   -2.4868 H   0  0  0  1  0  0  0  0  0  0  0  0
    0.3619    4.9039   -3.6636 C   0  0  0  1  0  0  0  0  0  0  0  0
    2.5044    1.9031    0.0507 C   0  0  0  1  0  0  0  0  0  0  0  0
   -0.0087    6.3501   -3.9285 C   0  0  0  1  0  0  0  0  0  0  0  0
    1.3388    4.3820   -4.1944 O   0  0  0  1  0  0  0  0  0  0  0  0
    0.3903    1.8079   -0.1008 H   0  0  0  1  0  0  0  0  0  0  0  0
    3.2581    1.9201   -0.7087 H   0  0  0  1  0  0  0  0  0  0  0  0
    2.5140    0.9522    0.5411 H   0  0  0  1  0  0  0  0  0  0  0  0
    2.7007    2.6753    0.7649 H   0  0  0  1  0  0  0  0  0  0  0  0
   -0.5887    6.4117   -4.8255 H   0  0  0  1  0  0  0  0  0  0  0  0
    0.8825    6.9318   -4.0396 H   0  0  0  1  0  0  0  0  0  0  0  0
   -0.5814    6.7275   -3.1071 H   0  0  0  1  0  0  0  0  0  0  0  0
   -1.3780    2.5837   -1.2941 C   0  0  0  1  0  0  0  0  0  0  0  0
   -2.7592    2.4947   -1.8860 C   0  0  0  1  0  0  0  0  0  0  0  0
   -2.9893    2.9898   -3.1602 C   0  0  0  1  0  0  0  0  0  0  0  0
   -4.2712    2.9984   -3.6770 C   0  0  0  1  0  0  0  0  0  0  0  0
   -5.3258    2.5071   -2.9234 C   0  0  0  1  0  0  0  0  0  0  0  0
   -5.0962    2.0135   -1.6531 C   0  0  0  1  0  0  0  0  0  0  0  0
   -3.8107    2.0048   -1.1345 C   0  0  0  1  0  0  0  0  0  0  0  0
   -6.5727    2.5215   -3.4543 O   0  0  0  1  0  0  0  0  0  0  0  0
   -4.4213    3.5019   -4.9263 O   0  0  0  1  0  0  0  0  0  0  0  0
   -1.3744    3.3551   -0.5526 H   0  0  0  1  0  0  0  0  0  0  0  0
   -1.1431    1.6461   -0.8353 H   0  0  0  1  0  0  0  0  0  0  0  0
   -2.1975    3.3547   -3.7272 H   0  0  0  1  0  0  0  0  0  0  0  0
   -5.8880    1.6486   -1.0861 H   0  0  0  1  0  0  0  0  0  0  0  0
   -3.6374    1.6297   -0.1801 H   0  0  0  1  0  0  0  0  0  0  0  0
   -7.0855    1.7976   -3.0874 H   0  0  0  1  0  0  0  0  0  0  0  0
   -4.9900    4.2747   -4.8941 H   0  0  0  1  0  0  0  0  0  0  0  0
  1  4  1  0  0  0  0
  2  4  1  0  0  0  0
  2  5  2  0  0  0  0
  2  6  1  0  0  0  0
  3  4  1  0  0  0  0
  3  7  1  0  0  0  0
  3  8  1  0  0  0  0
  4 19  1  0  0  0  0
  6  9  1  0  0  0  0
  6 12  1  0  0  0  0
  8 10  1  0  0  0  0
  8 11  2  0  0  0  0
  9 13  1  0  0  0  0
  9 14  1  0  0  0  0
  9 15  1  0  0  0  0
 10 16  1  0  0  0  0
 10 17  1  0  0  0  0
 10 18  1  0  0  0  0
 19 20  1  0  0  0  0
 19 28  1  0  0  0  0
 19 29  1  0  0  0  0
 20 21  4  0  0  0  0
 20 25  4  0  0  0  0
 21 22  4  0  0  0  0
 21 30  1  0  0  0  0
 22 23  4  0  0  0  0
 22 27  1  0  0  0  0
 23 24  4  0  0  0  0
 23 26  1  0  0  0  0
 24 25  4  0  0  0  0
 24 31  1  0  0  0  0
 25 32  1  0  0  0  0
 26 33  1  0  0  0  0
 27 34  1  0  0  0  0
M  END
> <BCLConfClusterSize>
1

> <ConfClashScore>
0 

> <ConfOneFourInteractionScore>
-0.947538 

> <ConfScore>
0.244932 

> <ConfScorePBest>
0.00453007 

> <ConfTolerance>
0.697331 

> <RosettaParamsInstructions>
M  ROOT 3
M  POLY_N_BB 3
M  POLY_CA_BB 4
M  POLY_C_BB 2
M  POLY_O_BB 5
M  POLY_IGNORE 9 10 11 12 13 14 15 16 17 18 
M  POLY_UPPER 6
M  POLY_LOWER 8
M  POLY_CHG 0
M  POLY_PROPERTIES ALPHA_AA D_AA PROTEIN AROMATIC POLYMER 
M  END

$$$$



 34 34  0  0  0  0  0  0  0  0999 V2000
   -1.2025    1.0498   -0.2133 H   0  0  0  1  0  0  0  0  0  0  0  0
    0.6842    1.9699   -0.3629 C   0  0  0  1  0  0  0  0  0  0  0  0
   -0.5684    0.7276   -2.1476 N   0  0  0  1  0  0  0  0  0  0  0  0
   -0.6493    1.5724   -0.9654 C   0  0  0  1  0  0  0  0  0  0  0  0
    0.7672    2.8405    0.4994 O   0  0  0  1  0  0  0  0  0  0  0  0
    1.7266    1.2864   -0.8612 N   0  0  0  1  0  0  0  0  0  0  0  0
   -1.0121   -0.1461   -2.1358 H   0  0  0  1  0  0  0  0  0  0  0  0
    0.0898    1.1017   -3.2485 C   0  0  0  1  0  0  0  0  0  0  0  0
    3.0968    1.5455   -0.4448 C   0  0  0  1  0  0  0  0  0  0  0  0
    0.0775    0.1074   -4.3932 C   0  0  0  1  0  0  0  0  0  0  0  0
    0.6733    2.1781   -3.3454 O   0  0  0  1  0  0  0  0  0  0  0  0
    1.5591    0.5887   -1.5287 H   0  0  0  1  0  0  0  0  0  0  0  0
    3.1575    2.5172   -0.0010 H   0  0  0  1  0  0  0  0  0  0  0  0
    3.7426    1.5018   -1.2968 H   0  0  0  1  0  0  0  0  0  0  0  0
    3.3977    0.8079    0.2696 H   0  0  0  1  0  0  0  0  0  0  0  0
    0.0304   -0.8873   -4.0018 H   0  0  0  1  0  0  0  0  0  0  0  0
    0.9696    0.2204   -4.9730 H   0  0  0  1  0  0  0  0  0  0  0  0
   -0.7763    0.2876   -5.0125 H   0  0  0  1  0  0  0  0  0  0  0  0
   -1.4307    2.8294   -1.3110 C   0  0  0  1  0  0  0  0  0  0  0  0
   -2.8127    2.5973   -1.8851 C   0  0  0  1  0  0  0  0  0  0  0  0
   -3.1392    3.1379   -3.1191 C   0  0  0  1  0  0  0  0  0  0  0  0
   -4.4250    3.0119   -3.6101 C   0  0  0  1  0  0  0  0  0  0  0  0
   -5.3866    2.3404   -2.8712 C   0  0  0  1  0  0  0  0  0  0  0  0
   -5.0609    1.8015   -1.6409 C   0  0  0  1  0  0  0  0  0  0  0  0
   -3.7714    1.9278   -1.1482 C   0  0  0  1  0  0  0  0  0  0  0  0
   -6.6389    2.2256   -3.3766 O   0  0  0  1  0  0  0  0  0  0  0  0
   -4.7933    3.5276   -4.8081 O   0  0  0  1  0  0  0  0  0  0  0  0
   -0.8637    3.3835   -2.0296 H   0  0  0  1  0  0  0  0  0  0  0  0
   -1.5375    3.4079   -0.4173 H   0  0  0  1  0  0  0  0  0  0  0  0
   -2.4168    3.6382   -3.6753 H   0  0  0  1  0  0  0  0  0  0  0  0
   -5.7834    1.3012   -1.0847 H   0  0  0  1  0  0  0  0  0  0  0  0
   -3.5253    1.5187   -0.2242 H   0  0  0  1  0  0  0  0  0  0  0  0
   -7.2156    2.8651   -2.9522 H   0  0  0  1  0  0  0  0  0  0  0  0
   -4.0232    3.5981   -5.3770 H   0  0  0  1  0  0  0  0  0  0  0  0
  1  4  1  0  0  0  0
  2  4  1  0  0  0  0
  2  5  2  0  0  0  0
  2  6  1  0  0  0  0
  3  4  1  0  0  0  0
  3  7  1  0  0  0  0
  3  8  1  0  0  0  0
  4 19  1  0  0  0  0
  6  9  1  0  0  0  0
  6 12  1  0  0  0  0
  8 10  1  0  0  0  0
  8 11  2  0  0  0  0
  9 13  1  0  0  0  0
  9 14  1  0  0  0  0
  9 15  1  0  0  0  0
 10 16  1  0  0  0  0
 10 17  1  0  0  0  0
 10 18  1  0  0  0  0
 19 20  1  0  0  0  0
 19 28  1  0  0  0  0
 19 29  1  0  0  0  0
 20 21  4  0  0  0  0
 20 25  4  0  0  0  0
 21 22  4  0  0  0  0
 21 30  1  0  0  0  0
 22 23  4  0  0  0  0
 22 27  1  0  0  0  0
 23 24  4  0  0  0  0
 23 26  1  0  0  0  0
 24 25  4  0  0  0  0
 24 31  1  0  0  0  0
 25 32  1  0  0  0  0
 26 33  1  0  0  0  0
 27 34  1  0  0  0  0
M  END
> <BCLConfClusterSize>
1

> <ConfClashScore>
0 

> <ConfOneFourInteractionScore>
-0.95733 

> <ConfScore>
0.247473 

> <ConfScorePBest>
0.00450159 

> <ConfTolerance>
0.361578 

> <RosettaParamsInstructions>
M  ROOT 3
M  POLY_N_BB 3
M  POLY_CA_BB 4
M  POLY_C_BB 2
M  POLY_O_BB 5
M  POLY_IGNORE 9 10 11 12 13 14 15 16 17 18 
M  POLY_UPPER 6
M  POLY_LOWER 8
M  POLY_CHG 0
M  POLY_PROPERTIES ALPHA_AA D_AA PROTEIN AROMATIC POLYMER 
M  END

$$$$



 34 34  0  0  0  0  0  0  0  0999 V2000
   -2.1102    3.7536    0.2595 H   0  0  0  1  0  0  0  0  0  0  0  0
   -0.6435    4.8736   -0.7754 C   0  0  0  1  0  0  0  0  0  0  0  0
   -0.2503    3.0491    0.8395 N   0  0  0  1  0  0  0  0  0  0  0  0
   -1.1541    3.5677   -0.1833 C   0  0  0  1  0  0  0  0  0  0  0  0
   -0.2055    5.7752   -0.0842 O   0  0  0  1  0  0  0  0  0  0  0  0
   -0.6750    5.0426   -2.1061 N   0  0  0  1  0  0  0  0  0  0  0  0
    0.1276    2.1521    0.7259 H   0  0  0  1  0  0  0  0  0  0  0  0
    0.0825    3.7619    1.9355 C   0  0  0  1  0  0  0  0  0  0  0  0
   -0.1759    6.2748   -2.6982 C   0  0  0  1  0  0  0  0  0  0  0  0
    1.0287    3.1290    2.9373 C   0  0  0  1  0  0  0  0  0  0  0  0
   -0.3670    4.8924    2.1192 O   0  0  0  1  0  0  0  0  0  0  0  0
   -1.0349    4.3349   -2.6805 H   0  0  0  1  0  0  0  0  0  0  0  0
   -0.6958    6.4675   -3.6133 H   0  0  0  1  0  0  0  0  0  0  0  0
    0.8708    6.1763   -2.8968 H   0  0  0  1  0  0  0  0  0  0  0  0
   -0.3359    7.0866   -2.0197 H   0  0  0  1  0  0  0  0  0  0  0  0
    0.6280    2.1924    3.2646 H   0  0  0  1  0  0  0  0  0  0  0  0
    1.1452    3.7803    3.7782 H   0  0  0  1  0  0  0  0  0  0  0  0
    1.9805    2.9677    2.4758 H   0  0  0  1  0  0  0  0  0  0  0  0
   -1.3343    2.5255   -1.2811 C   0  0  0  1  0  0  0  0  0  0  0  0
   -2.7280    2.5028   -1.8496 C   0  0  0  1  0  0  0  0  0  0  0  0
   -2.9765    3.1062   -3.0726 C   0  0  0  1  0  0  0  0  0  0  0  0
   -4.2681    3.1732   -3.5601 C   0  0  0  1  0  0  0  0  0  0  0  0
   -5.3141    2.6325   -2.8287 C   0  0  0  1  0  0  0  0  0  0  0  0
   -5.0661    2.0309   -1.6094 C   0  0  0  1  0  0  0  0  0  0  0  0
   -3.7708    1.9636   -1.1202 C   0  0  0  1  0  0  0  0  0  0  0  0
   -6.5958    2.6693   -3.2674 O   0  0  0  1  0  0  0  0  0  0  0  0
   -4.5614    3.7573   -4.7473 O   0  0  0  1  0  0  0  0  0  0  0  0
   -1.1170    1.5604   -0.8734 H   0  0  0  1  0  0  0  0  0  0  0  0
   -0.6472    2.7419   -2.0723 H   0  0  0  1  0  0  0  0  0  0  0  0
   -2.1913    3.5084   -3.6232 H   0  0  0  1  0  0  0  0  0  0  0  0
   -5.8514    1.6287   -1.0588 H   0  0  0  1  0  0  0  0  0  0  0  0
   -3.5838    1.5073   -0.2046 H   0  0  0  1  0  0  0  0  0  0  0  0
   -6.7770    1.8872   -3.7938 H   0  0  0  1  0  0  0  0  0  0  0  0
   -5.4046    3.4278   -5.0669 H   0  0  0  1  0  0  0  0  0  0  0  0
  1  4  1  0  0  0  0
  2  4  1  0  0  0  0
  2  5  2  0  0  0  0
  2  6  1  0  0  0  0
  3  4  1  0  0  0  0
  3  7  1  0  0  0  0
  3  8  1  0  0  0  0
  4 19  1  0  0  0  0
  6  9  1  0  0  0  0
  6 12  1  0  0  0  0
  8 10  1  0  0  0  0
  8 11  2  0  0  0  0
  9 13  1  0  0  0  0
  9 14  1  0  0  0  0
  9 15  1  0  0  0  0
 10 16  1  0  0  0  0
 10 17  1  0  0  0  0
 10 18  1  0  0  0  0
 19 20  1  0  0  0  0
 19 28  1  0  0  0  0
 19 29  1  0  0  0  0
 20 21  4  0  0  0  0
 20 25  4  0  0  0  0
 21 22  4  0  0  0  0
 21 30  1  0  0  0  0
 22 23  4  0  0  0  0
 22 27  1  0  0  0  0
 23 24  4  0  0  0  0
 23 26  1  0  0  0  0
 24 25  4  0  0  0  0
 24 31  1  0  0  0  0
 25 32  1  0  0  0  0
 26 33  1  0  0  0  0
 27 34  1  0  0  0  0
M  END
> <BCLConfClusterSize>
1

> <ConfClashScore>
0 

> <ConfOneFourInteractionScore>
-0.941057 

> <ConfScore>
0.248551 

> <ConfScorePBest>
0.00447311 

> <ConfTolerance>
0.47316 

> <RosettaParamsInstructions>
M  ROOT 3
M  POLY_N_BB 3
M  POLY_CA_BB 4
M  POLY_C_BB 2
M  POLY_O_BB 5
M  POLY_IGNORE 9 10 11 12 13 14 15 16 17 18 
M  POLY_UPPER 6
M  POLY_LOWER 8
M  POLY_CHG 0
M  POLY_PROPERTIES ALPHA_AA D_AA PROTEIN AROMATIC POLYMER 
M  END

$$$$



 34 34  0  0  0  0  0  0  0  0999 V2000
    0.3793    1.5711   -1.0128 H   0  0  0  1  0  0  0  0  0  0  0  0
   -0.2173    1.2010   -2.9987 C   0  0  0  1  0  0  0  0  0  0  0  0
   -1.2027    0.2382   -0.9844 N   0  0  0  1  0  0  0  0  0  0  0  0
   -0.5467    1.4344   -1.5311 C   0  0  0  1  0  0  0  0  0  0  0  0
   -0.0659    2.1275   -3.7739 O   0  0  0  1  0  0  0  0  0  0  0  0
   -0.1168   -0.0900   -3.3277 N   0  0  0  1  0  0  0  0  0  0  0  0
   -1.5971   -0.4101   -1.6046 H   0  0  0  1  0  0  0  0  0  0  0  0
   -1.2809    0.0016    0.3415 C   0  0  0  1  0  0  0  0  0  0  0  0
    0.1389   -0.5269   -4.6921 C   0  0  0  1  0  0  0  0  0  0  0  0
   -1.7158   -1.3741    0.7936 C   0  0  0  1  0  0  0  0  0  0  0  0
   -1.0068    0.8776    1.1607 O   0  0  0  1  0  0  0  0  0  0  0  0
   -0.2187   -0.7663   -2.6258 H   0  0  0  1  0  0  0  0  0  0  0  0
    0.5709   -1.5057   -4.6787 H   0  0  0  1  0  0  0  0  0  0  0  0
    0.8154    0.1549   -5.1638 H   0  0  0  1  0  0  0  0  0  0  0  0
   -0.7816   -0.5510   -5.2370 H   0  0  0  1  0  0  0  0  0  0  0  0
   -2.7174   -1.5579    0.4651 H   0  0  0  1  0  0  0  0  0  0  0  0
   -1.6756   -1.4276    1.8615 H   0  0  0  1  0  0  0  0  0  0  0  0
   -1.0623   -2.1103    0.3742 H   0  0  0  1  0  0  0  0  0  0  0  0
   -1.4004    2.6689   -1.2721 C   0  0  0  1  0  0  0  0  0  0  0  0
   -2.7798    2.5672   -1.8662 C   0  0  0  1  0  0  0  0  0  0  0  0
   -3.0588    3.2150   -3.0595 C   0  0  0  1  0  0  0  0  0  0  0  0
   -4.3447    3.2064   -3.5661 C   0  0  0  1  0  0  0  0  0  0  0  0
   -5.3542    2.5454   -2.8838 C   0  0  0  1  0  0  0  0  0  0  0  0
   -5.0758    1.8996   -1.6940 C   0  0  0  1  0  0  0  0  0  0  0  0
   -3.7862    1.9082   -1.1857 C   0  0  0  1  0  0  0  0  0  0  0  0
   -6.5884    2.5747   -3.4429 O   0  0  0  1  0  0  0  0  0  0  0  0
   -4.6673    3.8294   -4.7256 O   0  0  0  1  0  0  0  0  0  0  0  0
   -0.9083    3.5186   -1.6972 H   0  0  0  1  0  0  0  0  0  0  0  0
   -1.4940    2.8024   -0.2146 H   0  0  0  1  0  0  0  0  0  0  0  0
   -2.3006    3.7075   -3.5736 H   0  0  0  1  0  0  0  0  0  0  0  0
   -5.8340    1.4071   -1.1800 H   0  0  0  1  0  0  0  0  0  0  0  0
   -3.5760    1.4188   -0.2925 H   0  0  0  1  0  0  0  0  0  0  0  0
   -7.2086    2.1120   -2.8748 H   0  0  0  1  0  0  0  0  0  0  0  0
   -4.4482    3.2603   -5.4670 H   0  0  0  1  0  0  0  0  0  0  0  0
  1  4  1  0  0  0  0
  2  4  1  0  0  0  0
  2  5  2  0  0  0  0
  2  6  1  0  0  0  0
  3  4  1  0  0  0  0
  3  7  1  0  0  0  0
  3  8  1  0  0  0  0
  4 19  1  0  0  0  0
  6  9  1  0  0  0  0
  6 12  1  0  0  0  0
  8 10  1  0  0  0  0
  8 11  2  0  0  0  0
  9 13  1  0  0  0  0
  9 14  1  0  0  0  0
  9 15  1  0  0  0  0
 10 16  1  0  0  0  0
 10 17  1  0  0  0  0
 10 18  1  0  0  0  0
 19 20  1  0  0  0  0
 19 28  1  0  0  0  0
 19 29  1  0  0  0  0
 20 21  4  0  0  0  0
 20 25  4  0  0  0  0
 21 22  4  0  0  0  0
 21 30  1  0  0  0  0
 22 23  4  0  0  0  0
 22 27  1  0  0  0  0
 23 24  4  0  0  0  0
 23 26  1  0  0  0  0
 24 25  4  0  0  0  0
 24 31  1  0  0  0  0
 25 32  1  0  0  0  0
 26 33  1  0  0  0  0
 27 34  1  0  0  0  0
M  END
> <BCLConfClusterSize>
1

> <ConfClashScore>
0 

> <ConfOneFourInteractionScore>
-0.932585 

> <ConfScore>
0.249399 

> <ConfScorePBest>
0.00444463 

> <ConfTolerance>
0.654118 

> <RosettaParamsInstructions>
M  ROOT 3
M  POLY_N_BB 3
M  POLY_CA_BB 4
M  POLY_C_BB 2
M  POLY_O_BB 5
M  POLY_IGNORE 9 10 11 12 13 14 15 16 17 18 
M  POLY_UPPER 6
M  POLY_LOWER 8
M  POLY_CHG 0
M  POLY_PROPERTIES ALPHA_AA D_AA PROTEIN AROMATIC POLYMER 
M  END

$$$$



 34 34  0  0  0  0  0  0  0  0999 V2000
   -2.0690    3.3133    0.6016 H   0  0  0  1  0  0  0  0  0  0  0  0
    0.0248    3.1632    0.7181 C   0  0  0  1  0  0  0  0  0  0  0  0
   -1.5505    1.3108    0.5727 N   0  0  0  1  0  0  0  0  0  0  0  0
   -1.3089    2.7014    0.1626 C   0  0  0  1  0  0  0  0  0  0  0  0
    0.3746    4.3366    0.6225 O   0  0  0  1  0  0  0  0  0  0  0  0
    0.8086    2.2527    1.3155 N   0  0  0  1  0  0  0  0  0  0  0  0
   -1.3204    0.5880   -0.0477 H   0  0  0  1  0  0  0  0  0  0  0  0
   -2.0730    0.9980    1.7619 C   0  0  0  1  0  0  0  0  0  0  0  0
    2.1227    2.5857    1.8448 C   0  0  0  1  0  0  0  0  0  0  0  0
   -2.1927   -0.4908    2.0611 C   0  0  0  1  0  0  0  0  0  0  0  0
   -2.4396    1.8443    2.5761 O   0  0  0  1  0  0  0  0  0  0  0  0
    0.4848    1.3314    1.3983 H   0  0  0  1  0  0  0  0  0  0  0  0
    2.3848    3.5804    1.5502 H   0  0  0  1  0  0  0  0  0  0  0  0
    2.8465    1.8977    1.4604 H   0  0  0  1  0  0  0  0  0  0  0  0
    2.1029    2.5237    2.9128 H   0  0  0  1  0  0  0  0  0  0  0  0
   -1.6292   -0.7249    2.9401 H   0  0  0  1  0  0  0  0  0  0  0  0
   -1.8121   -1.0524    1.2337 H   0  0  0  1  0  0  0  0  0  0  0  0
   -3.2209   -0.7410    2.2197 H   0  0  0  1  0  0  0  0  0  0  0  0
   -1.4351    2.8350   -1.3521 C   0  0  0  1  0  0  0  0  0  0  0  0
   -2.8181    2.5790   -1.9133 C   0  0  0  1  0  0  0  0  0  0  0  0
   -3.1340    3.0327   -3.1845 C   0  0  0  1  0  0  0  0  0  0  0  0
   -4.4198    2.8874   -3.6703 C   0  0  0  1  0  0  0  0  0  0  0  0
   -5.3921    2.2833   -2.8885 C   0  0  0  1  0  0  0  0  0  0  0  0
   -5.0770    1.8310   -1.6211 C   0  0  0  1  0  0  0  0  0  0  0  0
   -3.7875    1.9766   -1.1337 C   0  0  0  1  0  0  0  0  0  0  0  0
   -6.6749    2.0934   -3.2821 O   0  0  0  1  0  0  0  0  0  0  0  0
   -4.6566    3.3591   -4.9185 O   0  0  0  1  0  0  0  0  0  0  0  0
   -0.7616    2.1361   -1.8023 H   0  0  0  1  0  0  0  0  0  0  0  0
   -1.1490    3.8305   -1.6206 H   0  0  0  1  0  0  0  0  0  0  0  0
   -2.4036    3.4824   -3.7726 H   0  0  0  1  0  0  0  0  0  0  0  0
   -5.8074    1.3814   -1.0330 H   0  0  0  1  0  0  0  0  0  0  0  0
   -3.5495    1.6326   -0.1815 H   0  0  0  1  0  0  0  0  0  0  0  0
   -7.2032    2.8547   -3.0308 H   0  0  0  1  0  0  0  0  0  0  0  0
   -4.0643    4.0920   -5.1019 H   0  0  0  1  0  0  0  0  0  0  0  0
  1  4  1  0  0  0  0
  2  4  1  0  0  0  0
  2  5  2  0  0  0  0
  2  6  1  0  0  0  0
  3  4  1  0  0  0  0
  3  7  1  0  0  0  0
  3  8  1  0  0  0  0
  4 19  1  0  0  0  0
  6  9  1  0  0  0  0
  6 12  1  0  0  0  0
  8 10  1  0  0  0  0
  8 11  2  0  0  0  0
  9 13  1  0  0  0  0
  9 14  1  0  0  0  0
  9 15  1  0  0  0  0
 10 16  1  0  0  0  0
 10 17  1  0  0  0  0
 10 18  1  0  0  0  0
 19 20  1  0  0  0  0
 19 28  1  0  0  0  0
 19 29  1  0  0  0  0
 20 21  4  0  0  0  0
 20 25  4  0  0  0  0
 21 22  4  0  0  0  0
 21 30  1  0  0  0  0
 22 23  4  0  0  0  0
 22 27  1  0  0  0  0
 23 24  4  0  0  0  0
 23 26  1  0  0  0  0
 24 25  4  0  0  0  0
 24 31  1  0  0  0  0
 25 32  1  0  0  0  0
 26 33  1  0  0  0  0
 27 34  1  0  0  0  0
M  END
> <BCLConfClusterSize>
1

> <ConfClashScore>
0 

> <ConfOneFourInteractionScore>
-0.949001 

> <ConfScore>
0.249493 

> <ConfScorePBest>
0.00441614 

> <ConfTolerance>
0.614066 

> <RosettaParamsInstructions>
M  ROOT 3
M  POLY_N_BB 3
M  POLY_CA_BB 4
M  POLY_C_BB 2
M  POLY_O_BB 5
M  POLY_IGNORE 9 10 11 12 13 14 15 16 17 18 
M  POLY_UPPER 6
M  POLY_LOWER 8
M  POLY_CHG 0
M  POLY_PROPERTIES ALPHA_AA D_AA PROTEIN AROMATIC POLYMER 
M  END

$$$$



 34 34  0  0  0  0  0  0  0  0999 V2000
    0.5592    2.1420   -1.3942 H   0  0  0  1  0  0  0  0  0  0  0  0
   -0.0253    2.2401   -3.4015 C   0  0  0  1  0  0  0  0  0  0  0  0
   -0.6257    0.5047   -1.7758 N   0  0  0  1  0  0  0  0  0  0  0  0
   -0.3313    1.9308   -1.9485 C   0  0  0  1  0  0  0  0  0  0  0  0
   -0.4572    3.2465   -3.9391 O   0  0  0  1  0  0  0  0  0  0  0  0
    0.7376    1.3461   -4.0370 N   0  0  0  1  0  0  0  0  0  0  0  0
   -0.2311    0.0448   -1.0056 H   0  0  0  1  0  0  0  0  0  0  0  0
   -1.4268   -0.2346   -2.6327 C   0  0  0  1  0  0  0  0  0  0  0  0
    1.2050    1.6140   -5.3889 C   0  0  0  1  0  0  0  0  0  0  0  0
   -1.7087   -1.6748   -2.3086 C   0  0  0  1  0  0  0  0  0  0  0  0
   -1.8772    0.3105   -3.6239 O   0  0  0  1  0  0  0  0  0  0  0  0
    0.9830    0.5083   -3.5918 H   0  0  0  1  0  0  0  0  0  0  0  0
    1.1375    2.6630   -5.5889 H   0  0  0  1  0  0  0  0  0  0  0  0
    0.5983    1.0780   -6.0886 H   0  0  0  1  0  0  0  0  0  0  0  0
    2.2229    1.2980   -5.4833 H   0  0  0  1  0  0  0  0  0  0  0  0
   -0.8422   -2.1169   -1.8630 H   0  0  0  1  0  0  0  0  0  0  0  0
   -1.9549   -2.2008   -3.2073 H   0  0  0  1  0  0  0  0  0  0  0  0
   -2.5298   -1.7321   -1.6249 H   0  0  0  1  0  0  0  0  0  0  0  0
   -1.4169    2.8335   -1.3858 C   0  0  0  1  0  0  0  0  0  0  0  0
   -2.8132    2.5753   -1.9120 C   0  0  0  1  0  0  0  0  0  0  0  0
   -3.1588    3.0202   -3.1786 C   0  0  0  1  0  0  0  0  0  0  0  0
   -4.4560    2.8731   -3.6325 C   0  0  0  1  0  0  0  0  0  0  0  0
   -5.4100    2.2759   -2.8234 C   0  0  0  1  0  0  0  0  0  0  0  0
   -5.0653    1.8324   -1.5606 C   0  0  0  1  0  0  0  0  0  0  0  0
   -3.7644    1.9798   -1.1052 C   0  0  0  1  0  0  0  0  0  0  0  0
   -6.6927    2.1049   -3.2262 O   0  0  0  1  0  0  0  0  0  0  0  0
   -4.7219    3.3360   -4.8781 O   0  0  0  1  0  0  0  0  0  0  0  0
   -1.1583    3.8454   -1.6186 H   0  0  0  1  0  0  0  0  0  0  0  0
   -1.4354    2.7050   -0.3237 H   0  0  0  1  0  0  0  0  0  0  0  0
   -2.4421    3.4647   -3.7872 H   0  0  0  1  0  0  0  0  0  0  0  0
   -5.7820    1.3879   -0.9520 H   0  0  0  1  0  0  0  0  0  0  0  0
   -3.5041    1.6424   -0.1565 H   0  0  0  1  0  0  0  0  0  0  0  0
   -7.0955    2.9617   -3.3852 H   0  0  0  1  0  0  0  0  0  0  0  0
   -4.1002    4.0329   -5.1005 H   0  0  0  1  0  0  0  0  0  0  0  0
  1  4  1  0  0  0  0
  2  4  1  0  0  0  0
  2  5  2  0  0  0  0
  2  6  1  0  0  0  0
  3  4  1  0  0  0  0
  3  7  1  0  0  0  0
  3  8  1  0  0  0  0
  4 19  1  0  0  0  0
  6  9  1  0  0  0  0
  6 12  1  0  0  0  0
  8 10  1  0  0  0  0
  8 11  2  0  0  0  0
  9 13  1  0  0  0  0
  9 14  1  0  0  0  0
  9 15  1  0  0  0  0
 10 16  1  0  0  0  0
 10 17  1  0  0  0  0
 10 18  1  0  0  0  0
 19 20  1  0  0  0  0
 19 28  1  0  0  0  0
 19 29  1  0  0  0  0
 20 21  4  0  0  0  0
 20 25  4  0  0  0  0
 21 22  4  0  0  0  0
 21 30  1  0  0  0  0
 22 23  4  0  0  0  0
 22 27  1  0  0  0  0
 23 24  4  0  0  0  0
 23 26  1  0  0  0  0
 24 25  4  0  0  0  0
 24 31  1  0  0  0  0
 25 32  1  0  0  0  0
 26 33  1  0  0  0  0
 27 34  1  0  0  0  0
M  END
> <BCLConfClusterSize>
1

> <ConfClashScore>
0 

> <ConfOneFourInteractionScore>
-0.966825 

> <ConfScore>
0.250272 

> <ConfScorePBest>
0.00438766 

> <ConfTolerance>
0.389144 

> <RosettaParamsInstructions>
M  ROOT 3
M  POLY_N_BB 3
M  POLY_CA_BB 4
M  POLY_C_BB 2
M  POLY_O_BB 5
M  POLY_IGNORE 9 10 11 12 13 14 15 16 17 18 
M  POLY_UPPER 6
M  POLY_LOWER 8
M  POLY_CHG 0
M  POLY_PROPERTIES ALPHA_AA D_AA PROTEIN AROMATIC POLYMER 
M  END

$$$$



 34 34  0  0  0  0  0  0  0  0999 V2000
    0.2822    1.6351   -0.5997 H   0  0  0  1  0  0  0  0  0  0  0  0
   -0.7492    0.6217   -2.1554 C   0  0  0  1  0  0  0  0  0  0  0  0
   -1.4024    0.7216    0.1895 N   0  0  0  1  0  0  0  0  0  0  0  0
   -0.7356    1.4535   -0.8754 C   0  0  0  1  0  0  0  0  0  0  0  0
    0.2284    0.5688   -2.9006 O   0  0  0  1  0  0  0  0  0  0  0  0
   -1.9070   -0.0222   -2.3679 N   0  0  0  1  0  0  0  0  0  0  0  0
   -2.1324    1.1568    0.6774 H   0  0  0  1  0  0  0  0  0  0  0  0
   -1.0544   -0.5237    0.5261 C   0  0  0  1  0  0  0  0  0  0  0  0
   -2.1527   -0.8032   -3.5710 C   0  0  0  1  0  0  0  0  0  0  0  0
   -1.8663   -1.1560    1.6338 C   0  0  0  1  0  0  0  0  0  0  0  0
   -0.1350   -1.1329   -0.0192 O   0  0  0  1  0  0  0  0  0  0  0  0
   -2.6116    0.0354   -1.6893 H   0  0  0  1  0  0  0  0  0  0  0  0
   -2.6470   -0.1932   -4.2980 H   0  0  0  1  0  0  0  0  0  0  0  0
   -2.7708   -1.6429   -3.3308 H   0  0  0  1  0  0  0  0  0  0  0  0
   -1.2211   -1.1477   -3.9689 H   0  0  0  1  0  0  0  0  0  0  0  0
   -1.9604   -0.4660    2.4461 H   0  0  0  1  0  0  0  0  0  0  0  0
   -1.3742   -2.0429    1.9747 H   0  0  0  1  0  0  0  0  0  0  0  0
   -2.8388   -1.4065    1.2644 H   0  0  0  1  0  0  0  0  0  0  0  0
   -1.4126    2.7925   -1.1370 C   0  0  0  1  0  0  0  0  0  0  0  0
   -2.7529    2.5935   -1.8173 C   0  0  0  1  0  0  0  0  0  0  0  0
   -3.0178    3.1265   -3.0692 C   0  0  0  1  0  0  0  0  0  0  0  0
   -4.2810    3.0078   -3.6174 C   0  0  0  1  0  0  0  0  0  0  0  0
   -5.2814    2.3512   -2.9178 C   0  0  0  1  0  0  0  0  0  0  0  0
   -5.0171    1.8199   -1.6696 C   0  0  0  1  0  0  0  0  0  0  0  0
   -3.7503    1.9388   -1.1196 C   0  0  0  1  0  0  0  0  0  0  0  0
   -6.4929    2.2688   -3.5197 O   0  0  0  1  0  0  0  0  0  0  0  0
   -4.4680    3.5575   -4.8419 O   0  0  0  1  0  0  0  0  0  0  0  0
   -0.7840    3.3862   -1.7673 H   0  0  0  1  0  0  0  0  0  0  0  0
   -1.5634    3.2972   -0.2056 H   0  0  0  1  0  0  0  0  0  0  0  0
   -2.2662    3.6156   -3.5959 H   0  0  0  1  0  0  0  0  0  0  0  0
   -5.7688    1.3308   -1.1429 H   0  0  0  1  0  0  0  0  0  0  0  0
   -3.5504    1.5355   -0.1820 H   0  0  0  1  0  0  0  0  0  0  0  0
   -7.0161    3.0415   -3.2940 H   0  0  0  1  0  0  0  0  0  0  0  0
   -5.3477    3.3408   -5.1595 H   0  0  0  1  0  0  0  0  0  0  0  0
  1  4  1  0  0  0  0
  2  4  1  0  0  0  0
  2  5  2  0  0  0  0
  2  6  1  0  0  0  0
  3  4  1  0  0  0  0
  3  7  1  0  0  0  0
  3  8  1  0  0  0  0
  4 19  1  0  0  0  0
  6  9  1  0  0  0  0
  6 12  1  0  0  0  0
  8 10  1  0  0  0  0
  8 11  2  0  0  0  0
  9 13  1  0  0  0  0
  9 14  1  0  0  0  0
  9 15  1  0  0  0  0
 10 16  1  0  0  0  0
 10 17  1  0  0  0  0
 10 18  1  0  0  0  0
 19 20  1  0  0  0  0
 19 28  1  0  0  0  0
 19 29  1  0  0  0  0
 20 21  4  0  0  0  0
 20 25  4  0  0  0  0
 21 22  4  0  0  0  0
 21 30  1  0  0  0  0
 22 23  4  0  0  0  0
 22 27  1  0  0  0  0
 23 24  4  0  0  0  0
 23 26  1  0  0  0  0
 24 25  4  0  0  0  0
 24 31  1  0  0  0  0
 25 32  1  0  0  0  0
 26 33  1  0  0  0  0
 27 34  1  0  0  0  0
M  END
> <BCLConfClusterSize>
1

> <ConfClashScore>
0 

> <ConfOneFourInteractionScore>
-0.957074 

> <ConfScore>
0.254383 

> <ConfScorePBest>
0.00435918 

> <ConfTolerance>
0.612249 

> <RosettaParamsInstructions>
M  ROOT 3
M  POLY_N_BB 3
M  POLY_CA_BB 4
M  POLY_C_BB 2
M  POLY_O_BB 5
M  POLY_IGNORE 9 10 11 12 13 14 15 16 17 18 
M  POLY_UPPER 6
M  POLY_LOWER 8
M  POLY_CHG 0
M  POLY_PROPERTIES ALPHA_AA D_AA PROTEIN AROMATIC POLYMER 
M  END

$$$$



 34 34  0  0  0  0  0  0  0  0999 V2000
    0.3840    1.3859   -1.4486 H   0  0  0  1  0  0  0  0  0  0  0  0
   -0.4434    1.2641   -3.3827 C   0  0  0  1  0  0  0  0  0  0  0  0
   -1.2567    0.1277   -1.3414 N   0  0  0  1  0  0  0  0  0  0  0  0
   -0.5958    1.3230   -1.8739 C   0  0  0  1  0  0  0  0  0  0  0  0
   -0.2506    0.2379   -4.0071 O   0  0  0  1  0  0  0  0  0  0  0  0
   -0.5328    2.4303   -4.0239 N   0  0  0  1  0  0  0  0  0  0  0  0
   -2.2366    0.1143   -1.3402 H   0  0  0  1  0  0  0  0  0  0  0  0
   -0.6247   -0.9430   -0.8583 C   0  0  0  1  0  0  0  0  0  0  0  0
   -0.3451    2.6104   -5.4557 C   0  0  0  1  0  0  0  0  0  0  0  0
   -1.5185   -2.0435   -0.3009 C   0  0  0  1  0  0  0  0  0  0  0  0
    0.6007   -1.0526   -0.8546 O   0  0  0  1  0  0  0  0  0  0  0  0
   -0.7406    3.2258   -3.4906 H   0  0  0  1  0  0  0  0  0  0  0  0
   -0.8613    3.4914   -5.7756 H   0  0  0  1  0  0  0  0  0  0  0  0
   -0.7345    1.7604   -5.9760 H   0  0  0  1  0  0  0  0  0  0  0  0
    0.6987    2.7120   -5.6683 H   0  0  0  1  0  0  0  0  0  0  0  0
   -0.9116   -2.8422    0.0714 H   0  0  0  1  0  0  0  0  0  0  0  0
   -2.1560   -2.4122   -1.0771 H   0  0  0  1  0  0  0  0  0  0  0  0
   -2.1156   -1.6490    0.4945 H   0  0  0  1  0  0  0  0  0  0  0  0
   -1.3825    2.5571   -1.4103 C   0  0  0  1  0  0  0  0  0  0  0  0
   -2.8013    2.5218   -1.9439 C   0  0  0  1  0  0  0  0  0  0  0  0
   -3.1387    3.1178   -3.1491 C   0  0  0  1  0  0  0  0  0  0  0  0
   -4.4585    3.1501   -3.5583 C   0  0  0  1  0  0  0  0  0  0  0  0
   -5.4440    2.5820   -2.7661 C   0  0  0  1  0  0  0  0  0  0  0  0
   -5.1074    1.9879   -1.5645 C   0  0  0  1  0  0  0  0  0  0  0  0
   -3.7838    1.9553   -1.1539 C   0  0  0  1  0  0  0  0  0  0  0  0
   -6.7301    2.6218   -3.1916 O   0  0  0  1  0  0  0  0  0  0  0  0
   -4.7639    3.7431   -4.7380 O   0  0  0  1  0  0  0  0  0  0  0  0
   -0.8947    3.4393   -1.7690 H   0  0  0  1  0  0  0  0  0  0  0  0
   -1.4103    2.5741   -0.3408 H   0  0  0  1  0  0  0  0  0  0  0  0
   -2.3988    3.5405   -3.7454 H   0  0  0  1  0  0  0  0  0  0  0  0
   -5.8473    1.5652   -0.9683 H   0  0  0  1  0  0  0  0  0  0  0  0
   -3.5302    1.5047   -0.2516 H   0  0  0  1  0  0  0  0  0  0  0  0
   -7.0472    1.7276   -3.3376 H   0  0  0  1  0  0  0  0  0  0  0  0
   -3.9894    3.7458   -5.3053 H   0  0  0  1  0  0  0  0  0  0  0  0
  1  4  1  0  0  0  0
  2  4  1  0  0  0  0
  2  5  2  0  0  0  0
  2  6  1  0  0  0  0
  3  4  1  0  0  0  0
  3  7  1  0  0  0  0
  3  8  1  0  0  0  0
  4 19  1  0  0  0  0
  6  9  1  0  0  0  0
  6 12  1  0  0  0  0
  8 10  1  0  0  0  0
  8 11  2  0  0  0  0
  9 13  1  0  0  0  0
  9 14  1  0  0  0  0
  9 15  1  0  0  0  0
 10 16  1  0  0  0  0
 10 17  1  0  0  0  0
 10 18  1  0  0  0  0
 19 20  1  0  0  0  0
 19 28  1  0  0  0  0
 19 29  1  0  0  0  0
 20 21  4  0  0  0  0
 20 25  4  0  0  0  0
 21 22  4  0  0  0  0
 21 30  1  0  0  0  0
 22 23  4  0  0  0  0
 22 27  1  0  0  0  0
 23 24  4  0  0  0  0
 23 26  1  0  0  0  0
 24 25  4  0  0  0  0
 24 31  1  0  0  0  0
 25 32  1  0  0  0  0
 26 33  1  0  0  0  0
 27 34  1  0  0  0  0
M  END
> <BCLConfClusterSize>
1

> <ConfClashScore>
0 

> <ConfOneFourInteractionScore>
-0.949142 

> <ConfScore>
0.256378 

> <ConfScorePBest>
0.0043307 

> <ConfTolerance>
0.700822 

> <RosettaParamsInstructions>
M  ROOT 3
M  POLY_N_BB 3
M  POLY_CA_BB 4
M  POLY_C_BB 2
M  POLY_O_BB 5
M  POLY_IGNORE 9 10 11 12 13 14 15 16 17 18 
M  POLY_UPPER 6
M  POLY_LOWER 8
M  POLY_CHG 0
M  POLY_PROPERTIES ALPHA_AA D_AA PROTEIN AROMATIC POLYMER 
M  END

$$$$



 34 34  0  0  0  0  0  0  0  0999 V2000
   -1.3125    4.8201   -1.1042 H   0  0  0  1  0  0  0  0  0  0  0  0
    0.2299    3.9098    0.0531 C   0  0  0  1  0  0  0  0  0  0  0  0
   -2.1029    3.8985    0.5868 N   0  0  0  1  0  0  0  0  0  0  0  0
   -1.1779    3.9242   -0.5349 C   0  0  0  1  0  0  0  0  0  0  0  0
    0.4813    3.2685    1.0699 O   0  0  0  1  0  0  0  0  0  0  0  0
    1.1828    4.6179   -0.5736 N   0  0  0  1  0  0  0  0  0  0  0  0
   -2.7965    3.2066    0.6121 H   0  0  0  1  0  0  0  0  0  0  0  0
   -2.0398    4.7891    1.5883 C   0  0  0  1  0  0  0  0  0  0  0  0
    2.5521    4.6813   -0.0849 C   0  0  0  1  0  0  0  0  0  0  0  0
   -3.0442    4.6130    2.7342 C   0  0  0  1  0  0  0  0  0  0  0  0
   -1.1805    5.6664    1.6560 O   0  0  0  1  0  0  0  0  0  0  0  0
    0.9482    5.1091   -1.3885 H   0  0  0  1  0  0  0  0  0  0  0  0
    2.5557    4.5878    0.9809 H   0  0  0  1  0  0  0  0  0  0  0  0
    2.9863    5.6192   -0.3619 H   0  0  0  1  0  0  0  0  0  0  0  0
    3.1212    3.8836   -0.5146 H   0  0  0  1  0  0  0  0  0  0  0  0
   -3.8720    4.0251    2.3965 H   0  0  0  1  0  0  0  0  0  0  0  0
   -3.3947    5.5729    3.0516 H   0  0  0  1  0  0  0  0  0  0  0  0
   -2.5666    4.1183    3.5539 H   0  0  0  1  0  0  0  0  0  0  0  0
   -1.3656    2.7206   -1.4492 C   0  0  0  1  0  0  0  0  0  0  0  0
   -2.7977    2.5413   -1.9075 C   0  0  0  1  0  0  0  0  0  0  0  0
   -3.1861    3.0346   -3.1433 C   0  0  0  1  0  0  0  0  0  0  0  0
   -4.5104    2.9598   -3.5319 C   0  0  0  1  0  0  0  0  0  0  0  0
   -5.4491    2.3866   -2.6883 C   0  0  0  1  0  0  0  0  0  0  0  0
   -5.0617    1.8947   -1.4562 C   0  0  0  1  0  0  0  0  0  0  0  0
   -3.7336    1.9697   -1.0662 C   0  0  0  1  0  0  0  0  0  0  0  0
   -6.7268    2.3430   -3.1381 O   0  0  0  1  0  0  0  0  0  0  0  0
   -4.9390    3.4327   -4.7275 O   0  0  0  1  0  0  0  0  0  0  0  0
   -1.0646    1.8407   -0.9200 H   0  0  0  1  0  0  0  0  0  0  0  0
   -0.7454    2.8482   -2.3118 H   0  0  0  1  0  0  0  0  0  0  0  0
   -2.4812    3.4611   -3.7780 H   0  0  0  1  0  0  0  0  0  0  0  0
   -5.7667    1.4683   -0.8216 H   0  0  0  1  0  0  0  0  0  0  0  0
   -3.4415    1.5959   -0.1407 H   0  0  0  1  0  0  0  0  0  0  0  0
   -6.7706    2.7274   -4.0167 H   0  0  0  1  0  0  0  0  0  0  0  0
   -4.1932    3.7850   -5.2188 H   0  0  0  1  0  0  0  0  0  0  0  0
  1  4  1  0  0  0  0
  2  4  1  0  0  0  0
  2  5  2  0  0  0  0
  2  6  1  0  0  0  0
  3  4  1  0  0  0  0
  3  7  1  0  0  0  0
  3  8  1  0  0  0  0
  4 19  1  0  0  0  0
  6  9  1  0  0  0  0
  6 12  1  0  0  0  0
  8 10  1  0  0  0  0
  8 11  2  0  0  0  0
  9 13  1  0  0  0  0
  9 14  1  0  0  0  0
  9 15  1  0  0  0  0
 10 16  1  0  0  0  0
 10 17  1  0  0  0  0
 10 18  1  0  0  0  0
 19 20  1  0  0  0  0
 19 28  1  0  0  0  0
 19 29  1  0  0  0  0
 20 21  4  0  0  0  0
 20 25  4  0  0  0  0
 21 22  4  0  0  0  0
 21 30  1  0  0  0  0
 22 23  4  0  0  0  0
 22 27  1  0  0  0  0
 23 24  4  0  0  0  0
 23 26  1  0  0  0  0
 24 25  4  0  0  0  0
 24 31  1  0  0  0  0
 25 32  1  0  0  0  0
 26 33  1  0  0  0  0
 27 34  1  0  0  0  0
M  END
> <BCLConfClusterSize>
1

> <ConfClashScore>
0 

> <ConfOneFourInteractionScore>
-0.987695 

> <ConfScore>
0.256718 

> <ConfScorePBest>
0.00430222 

> <ConfTolerance>
0.502373 

> <RosettaParamsInstructions>
M  ROOT 3
M  POLY_N_BB 3
M  POLY_CA_BB 4
M  POLY_C_BB 2
M  POLY_O_BB 5
M  POLY_IGNORE 9 10 11 12 13 14 15 16 17 18 
M  POLY_UPPER 6
M  POLY_LOWER 8
M  POLY_CHG 0
M  POLY_PROPERTIES ALPHA_AA D_AA PROTEIN AROMATIC POLYMER 
M  END

$$$$



 34 34  0  0  0  0  0  0  0  0999 V2000
   -1.8079    4.0992    0.0062 H   0  0  0  1  0  0  0  0  0  0  0  0
   -1.1635    5.0932   -1.7294 C   0  0  0  1  0  0  0  0  0  0  0  0
    0.2366    3.9065   -0.0875 N   0  0  0  1  0  0  0  0  0  0  0  0
   -1.0590    3.9467   -0.7427 C   0  0  0  1  0  0  0  0  0  0  0  0
   -0.3164    5.2619   -2.6025 O   0  0  0  1  0  0  0  0  0  0  0  0
   -2.2294    5.8945   -1.5811 N   0  0  0  1  0  0  0  0  0  0  0  0
    1.0181    3.5645   -0.5700 H   0  0  0  1  0  0  0  0  0  0  0  0
    0.3693    4.3483    1.2113 C   0  0  0  1  0  0  0  0  0  0  0  0
   -2.4210    7.0906   -2.3877 C   0  0  0  1  0  0  0  0  0  0  0  0
    1.7665    4.3647    1.7593 C   0  0  0  1  0  0  0  0  0  0  0  0
   -0.6122    4.6951    1.8410 O   0  0  0  1  0  0  0  0  0  0  0  0
   -2.9023    5.6665   -0.9061 H   0  0  0  1  0  0  0  0  0  0  0  0
   -2.1586    7.9545   -1.8134 H   0  0  0  1  0  0  0  0  0  0  0  0
   -3.4463    7.1589   -2.6859 H   0  0  0  1  0  0  0  0  0  0  0  0
   -1.7990    7.0379   -3.2567 H   0  0  0  1  0  0  0  0  0  0  0  0
    1.9801    5.3318    2.1642 H   0  0  0  1  0  0  0  0  0  0  0  0
    2.4598    4.1458    0.9743 H   0  0  0  1  0  0  0  0  0  0  0  0
    1.8556    3.6280    2.5302 H   0  0  0  1  0  0  0  0  0  0  0  0
   -1.3553    2.6023   -1.4139 C   0  0  0  1  0  0  0  0  0  0  0  0
   -2.7772    2.4966   -1.9295 C   0  0  0  1  0  0  0  0  0  0  0  0
   -3.1258    2.9438   -3.1945 C   0  0  0  1  0  0  0  0  0  0  0  0
   -4.4484    2.9205   -3.5953 C   0  0  0  1  0  0  0  0  0  0  0  0
   -5.4254    2.4451   -2.7345 C   0  0  0  1  0  0  0  0  0  0  0  0
   -5.0776    1.9993   -1.4734 C   0  0  0  1  0  0  0  0  0  0  0  0
   -3.7513    2.0226   -1.0712 C   0  0  0  1  0  0  0  0  0  0  0  0
   -6.7339    2.3978   -3.0842 O   0  0  0  1  0  0  0  0  0  0  0  0
   -4.7649    3.3678   -4.8348 O   0  0  0  1  0  0  0  0  0  0  0  0
   -1.1931    1.8221   -0.6999 H   0  0  0  1  0  0  0  0  0  0  0  0
   -0.6841    2.4778   -2.2378 H   0  0  0  1  0  0  0  0  0  0  0  0
   -2.3923    3.2967   -3.8418 H   0  0  0  1  0  0  0  0  0  0  0  0
   -5.8111    1.6463   -0.8261 H   0  0  0  1  0  0  0  0  0  0  0  0
   -3.4891    1.6834   -0.1236 H   0  0  0  1  0  0  0  0  0  0  0  0
   -6.8080    2.2250   -4.0256 H   0  0  0  1  0  0  0  0  0  0  0  0
   -4.4628    4.2735   -4.9354 H   0  0  0  1  0  0  0  0  0  0  0  0
  1  4  1  0  0  0  0
  2  4  1  0  0  0  0
  2  5  2  0  0  0  0
  2  6  1  0  0  0  0
  3  4  1  0  0  0  0
  3  7  1  0  0  0  0
  3  8  1  0  0  0  0
  4 19  1  0  0  0  0
  6  9  1  0  0  0  0
  6 12  1  0  0  0  0
  8 10  1  0  0  0  0
  8 11  2  0  0  0  0
  9 13  1  0  0  0  0
  9 14  1  0  0  0  0
  9 15  1  0  0  0  0
 10 16  1  0  0  0  0
 10 17  1  0  0  0  0
 10 18  1  0  0  0  0
 19 20  1  0  0  0  0
 19 28  1  0  0  0  0
 19 29  1  0  0  0  0
 20 21  4  0  0  0  0
 20 25  4  0  0  0  0
 21 22  4  0  0  0  0
 21 30  1  0  0  0  0
 22 23  4  0  0  0  0
 22 27  1  0  0  0  0
 23 24  4  0  0  0  0
 23 26  1  0  0  0  0
 24 25  4  0  0  0  0
 24 31  1  0  0  0  0
 25 32  1  0  0  0  0
 26 33  1  0  0  0  0
 27 34  1  0  0  0  0
M  END
> <BCLConfClusterSize>
1

> <ConfClashScore>
0 

> <ConfOneFourInteractionScore>
-0.978127 

> <ConfScore>
0.257057 

> <ConfScorePBest>
0.00427374 

> <ConfTolerance>
0.449311 

> <RosettaParamsInstructions>
M  ROOT 3
M  POLY_N_BB 3
M  POLY_CA_BB 4
M  POLY_C_BB 2
M  POLY_O_BB 5
M  POLY_IGNORE 9 10 11 12 13 14 15 16 17 18 
M  POLY_UPPER 6
M  POLY_LOWER 8
M  POLY_CHG 0
M  POLY_PROPERTIES ALPHA_AA D_AA PROTEIN AROMATIC POLYMER 
M  END

$$$$



 34 34  0  0  0  0  0  0  0  0999 V2000
   -1.3560    4.5681   -0.6171 H   0  0  0  1  0  0  0  0  0  0  0  0
   -0.7634    4.7085   -2.6578 C   0  0  0  1  0  0  0  0  0  0  0  0
    0.6165    3.9117   -0.8164 N   0  0  0  1  0  0  0  0  0  0  0  0
   -0.7676    3.9975   -1.3050 C   0  0  0  1  0  0  0  0  0  0  0  0
   -0.1470    4.2494   -3.6184 O   0  0  0  1  0  0  0  0  0  0  0  0
   -1.4686    5.8491   -2.7193 N   0  0  0  1  0  0  0  0  0  0  0  0
    0.9942    3.0294   -0.6182 H   0  0  0  1  0  0  0  0  0  0  0  0
    1.3759    4.9930   -0.6336 C   0  0  0  1  0  0  0  0  0  0  0  0
   -1.5546    6.6453   -3.9345 C   0  0  0  1  0  0  0  0  0  0  0  0
    2.7949    4.7303   -0.1681 C   0  0  0  1  0  0  0  0  0  0  0  0
    0.9719    6.1284   -0.8237 O   0  0  0  1  0  0  0  0  0  0  0  0
   -1.9419    6.1564   -1.9181 H   0  0  0  1  0  0  0  0  0  0  0  0
   -2.5734    6.6943   -4.2580 H   0  0  0  1  0  0  0  0  0  0  0  0
   -0.9590    6.1931   -4.6997 H   0  0  0  1  0  0  0  0  0  0  0  0
   -1.1948    7.6338   -3.7391 H   0  0  0  1  0  0  0  0  0  0  0  0
    2.7738    4.1749    0.7462 H   0  0  0  1  0  0  0  0  0  0  0  0
    3.2956    5.6622   -0.0076 H   0  0  0  1  0  0  0  0  0  0  0  0
    3.3166    4.1685   -0.9145 H   0  0  0  1  0  0  0  0  0  0  0  0
   -1.3597    2.6020   -1.4149 C   0  0  0  1  0  0  0  0  0  0  0  0
   -2.7891    2.5402   -1.9166 C   0  0  0  1  0  0  0  0  0  0  0  0
   -3.1674    3.1418   -3.1068 C   0  0  0  1  0  0  0  0  0  0  0  0
   -4.4966    3.1485   -3.4857 C   0  0  0  1  0  0  0  0  0  0  0  0
   -5.4506    2.5490   -2.6782 C   0  0  0  1  0  0  0  0  0  0  0  0
   -5.0733    1.9493   -1.4916 C   0  0  0  1  0  0  0  0  0  0  0  0
   -3.7403    1.9424   -1.1114 C   0  0  0  1  0  0  0  0  0  0  0  0
   -6.7467    2.5641   -3.0740 O   0  0  0  1  0  0  0  0  0  0  0  0
   -4.7929    3.7593   -4.6586 O   0  0  0  1  0  0  0  0  0  0  0  0
   -1.3312    2.1539   -0.4436 H   0  0  0  1  0  0  0  0  0  0  0  0
   -0.7491    2.0364   -2.0873 H   0  0  0  1  0  0  0  0  0  0  0  0
   -2.4511    3.5881   -3.7146 H   0  0  0  1  0  0  0  0  0  0  0  0
   -5.7896    1.5030   -0.8839 H   0  0  0  1  0  0  0  0  0  0  0  0
   -3.4559    1.4876   -0.2205 H   0  0  0  1  0  0  0  0  0  0  0  0
   -6.8160    2.1968   -3.9583 H   0  0  0  1  0  0  0  0  0  0  0  0
   -4.2942    3.3487   -5.3687 H   0  0  0  1  0  0  0  0  0  0  0  0
  1  4  1  0  0  0  0
  2  4  1  0  0  0  0
  2  5  2  0  0  0  0
  2  6  1  0  0  0  0
  3  4  1  0  0  0  0
  3  7  1  0  0  0  0
  3  8  1  0  0  0  0
  4 19  1  0  0  0  0
  6  9  1  0  0  0  0
  6 12  1  0  0  0  0
  8 10  1  0  0  0  0
  8 11  2  0  0  0  0
  9 13  1  0  0  0  0
  9 14  1  0  0  0  0
  9 15  1  0  0  0  0
 10 16  1  0  0  0  0
 10 17  1  0  0  0  0
 10 18  1  0  0  0  0
 19 20  1  0  0  0  0
 19 28  1  0  0  0  0
 19 29  1  0  0  0  0
 20 21  4  0  0  0  0
 20 25  4  0  0  0  0
 21 22  4  0  0  0  0
 21 30  1  0  0  0  0
 22 23  4  0  0  0  0
 22 27  1  0  0  0  0
 23 24  4  0  0  0  0
 23 26  1  0  0  0  0
 24 25  4  0  0  0  0
 24 31  1  0  0  0  0
 25 32  1  0  0  0  0
 26 33  1  0  0  0  0
 27 34  1  0  0  0  0
M  END
> <BCLConfClusterSize>
1

> <ConfClashScore>
0 

> <ConfOneFourInteractionScore>
-0.981931 

> <ConfScore>
0.257843 

> <ConfScorePBest>
0.00424526 

> <ConfTolerance>
0.810998 

> <RosettaParamsInstructions>
M  ROOT 3
M  POLY_N_BB 3
M  POLY_CA_BB 4
M  POLY_C_BB 2
M  POLY_O_BB 5
M  POLY_IGNORE 9 10 11 12 13 14 15 16 17 18 
M  POLY_UPPER 6
M  POLY_LOWER 8
M  POLY_CHG 0
M  POLY_PROPERTIES ALPHA_AA D_AA PROTEIN AROMATIC POLYMER 
M  END

$$$$



 34 34  0  0  0  0  0  0  0  0999 V2000
   -1.0098    0.4863   -1.5745 H   0  0  0  1  0  0  0  0  0  0  0  0
    0.8898    1.3692   -1.4035 C   0  0  0  1  0  0  0  0  0  0  0  0
   -0.4969    1.3043   -3.3956 N   0  0  0  1  0  0  0  0  0  0  0  0
   -0.5298    1.3711   -1.9374 C   0  0  0  1  0  0  0  0  0  0  0  0
    1.2139    2.1368   -0.4989 O   0  0  0  1  0  0  0  0  0  0  0  0
    1.7686    0.5744   -2.0162 N   0  0  0  1  0  0  0  0  0  0  0  0
   -0.6710    0.4538   -3.8502 H   0  0  0  1  0  0  0  0  0  0  0  0
   -0.2308    2.3967   -4.1090 C   0  0  0  1  0  0  0  0  0  0  0  0
    3.1722    0.6043   -1.6327 C   0  0  0  1  0  0  0  0  0  0  0  0
   -0.1784    2.2188   -5.6288 C   0  0  0  1  0  0  0  0  0  0  0  0
   -0.0263    3.5221   -3.6560 O   0  0  0  1  0  0  0  0  0  0  0  0
    1.4685   -0.0308   -2.7261 H   0  0  0  1  0  0  0  0  0  0  0  0
    3.7791    0.3616   -2.4798 H   0  0  0  1  0  0  0  0  0  0  0  0
    3.3443   -0.1098   -0.8546 H   0  0  0  1  0  0  0  0  0  0  0  0
    3.4250    1.5829   -1.2816 H   0  0  0  1  0  0  0  0  0  0  0  0
   -1.0912    1.7756   -5.9682 H   0  0  0  1  0  0  0  0  0  0  0  0
    0.6433    1.5833   -5.8851 H   0  0  0  1  0  0  0  0  0  0  0  0
   -0.0507    3.1734   -6.0951 H   0  0  0  1  0  0  0  0  0  0  0  0
   -1.3658    2.5603   -1.4827 C   0  0  0  1  0  0  0  0  0  0  0  0
   -2.8028    2.4904   -1.9551 C   0  0  0  1  0  0  0  0  0  0  0  0
   -3.1383    3.0015   -3.1993 C   0  0  0  1  0  0  0  0  0  0  0  0
   -4.4602    3.0279   -3.6018 C   0  0  0  1  0  0  0  0  0  0  0  0
   -5.4500    2.5386   -2.7637 C   0  0  0  1  0  0  0  0  0  0  0  0
   -5.1154    2.0291   -1.5233 C   0  0  0  1  0  0  0  0  0  0  0  0
   -3.7896    2.0025   -1.1194 C   0  0  0  1  0  0  0  0  0  0  0  0
   -6.7689    2.5189   -3.0747 O   0  0  0  1  0  0  0  0  0  0  0  0
   -4.7137    3.5464   -4.8280 O   0  0  0  1  0  0  0  0  0  0  0  0
   -0.9235    3.4549   -1.8685 H   0  0  0  1  0  0  0  0  0  0  0  0
   -1.3600    2.5915   -0.4132 H   0  0  0  1  0  0  0  0  0  0  0  0
   -2.3953    3.3649   -3.8297 H   0  0  0  1  0  0  0  0  0  0  0  0
   -5.8584    1.6657   -0.8928 H   0  0  0  1  0  0  0  0  0  0  0  0
   -3.5375    1.6154   -0.1876 H   0  0  0  1  0  0  0  0  0  0  0  0
   -6.9638    1.7362   -3.5952 H   0  0  0  1  0  0  0  0  0  0  0  0
   -4.0634    4.2229   -5.0305 H   0  0  0  1  0  0  0  0  0  0  0  0
  1  4  1  0  0  0  0
  2  4  1  0  0  0  0
  2  5  2  0  0  0  0
  2  6  1  0  0  0  0
  3  4  1  0  0  0  0
  3  7  1  0  0  0  0
  3  8  1  0  0  0  0
  4 19  1  0  0  0  0
  6  9  1  0  0  0  0
  6 12  1  0  0  0  0
  8 10  1  0  0  0  0
  8 11  2  0  0  0  0
  9 13  1  0  0  0  0
  9 14  1  0  0  0  0
  9 15  1  0  0  0  0
 10 16  1  0  0  0  0
 10 17  1  0  0  0  0
 10 18  1  0  0  0  0
 19 20  1  0  0  0  0
 19 28  1  0  0  0  0
 19 29  1  0  0  0  0
 20 21  4  0  0  0  0
 20 25  4  0  0  0  0
 21 22  4  0  0  0  0
 21 30  1  0  0  0  0
 22 23  4  0  0  0  0
 22 27  1  0  0  0  0
 23 24  4  0  0  0  0
 23 26  1  0  0  0  0
 24 25  4  0  0  0  0
 24 31  1  0  0  0  0
 25 32  1  0  0  0  0
 26 33  1  0  0  0  0
 27 34  1  0  0  0  0
M  END
> <BCLConfClusterSize>
1

> <ConfClashScore>
0 

> <ConfOneFourInteractionScore>
-0.956972 

> <ConfScore>
0.262104 

> <ConfScorePBest>
0.00421678 

> <ConfTolerance>
0.368899 

> <RosettaParamsInstructions>
M  ROOT 3
M  POLY_N_BB 3
M  POLY_CA_BB 4
M  POLY_C_BB 2
M  POLY_O_BB 5
M  POLY_IGNORE 9 10 11 12 13 14 15 16 17 18 
M  POLY_UPPER 6
M  POLY_LOWER 8
M  POLY_CHG 0
M  POLY_PROPERTIES ALPHA_AA D_AA PROTEIN AROMATIC POLYMER 
M  END

$$$$



 34 34  0  0  0  0  0  0  0  0999 V2000
   -0.8261    1.0321   -2.2448 H   0  0  0  1  0  0  0  0  0  0  0  0
   -0.3502    0.7282   -0.2236 C   0  0  0  1  0  0  0  0  0  0  0  0
    0.8872    2.1033   -1.8024 N   0  0  0  1  0  0  0  0  0  0  0  0
   -0.4536    1.6255   -1.4361 C   0  0  0  1  0  0  0  0  0  0  0  0
    0.6098   -0.0273   -0.0777 O   0  0  0  1  0  0  0  0  0  0  0  0
   -1.3294    0.7806    0.6807 N   0  0  0  1  0  0  0  0  0  0  0  0
    1.0927    3.0607   -1.7633 H   0  0  0  1  0  0  0  0  0  0  0  0
    1.8264    1.2351   -2.1887 C   0  0  0  1  0  0  0  0  0  0  0  0
   -1.4467   -0.0996    1.8337 C   0  0  0  1  0  0  0  0  0  0  0  0
    3.1318    1.8420   -2.6508 C   0  0  0  1  0  0  0  0  0  0  0  0
    1.6579    0.0164   -2.1762 O   0  0  0  1  0  0  0  0  0  0  0  0
   -2.0220    1.4633    0.5595 H   0  0  0  1  0  0  0  0  0  0  0  0
   -2.2472   -0.7915    1.6749 H   0  0  0  1  0  0  0  0  0  0  0  0
   -1.6477    0.4834    2.7081 H   0  0  0  1  0  0  0  0  0  0  0  0
   -0.5314   -0.6377    1.9658 H   0  0  0  1  0  0  0  0  0  0  0  0
    3.6016    2.3449   -1.8315 H   0  0  0  1  0  0  0  0  0  0  0  0
    2.9407    2.5426   -3.4367 H   0  0  0  1  0  0  0  0  0  0  0  0
    3.7768    1.0681   -3.0112 H   0  0  0  1  0  0  0  0  0  0  0  0
   -1.4044    2.8041   -1.2613 C   0  0  0  1  0  0  0  0  0  0  0  0
   -2.7647    2.5578   -1.8572 C   0  0  0  1  0  0  0  0  0  0  0  0
   -3.0291    2.9767   -3.1519 C   0  0  0  1  0  0  0  0  0  0  0  0
   -4.3006    2.8401   -3.6761 C   0  0  0  1  0  0  0  0  0  0  0  0
   -5.3101    2.2794   -2.9093 C   0  0  0  1  0  0  0  0  0  0  0  0
   -5.0463    1.8618   -1.6185 C   0  0  0  1  0  0  0  0  0  0  0  0
   -3.7711    1.9987   -1.0925 C   0  0  0  1  0  0  0  0  0  0  0  0
   -6.5595    2.1355   -3.4144 O   0  0  0  1  0  0  0  0  0  0  0  0
   -4.6088    3.2393   -4.9340 O   0  0  0  1  0  0  0  0  0  0  0  0
   -0.9749    3.6615   -1.7360 H   0  0  0  1  0  0  0  0  0  0  0  0
   -1.5206    2.9958   -0.2151 H   0  0  0  1  0  0  0  0  0  0  0  0
   -2.2708    3.3937   -3.7287 H   0  0  0  1  0  0  0  0  0  0  0  0
   -5.8046    1.4448   -1.0418 H   0  0  0  1  0  0  0  0  0  0  0  0
   -3.5717    1.6807   -0.1226 H   0  0  0  1  0  0  0  0  0  0  0  0
   -7.0235    2.9745   -3.3654 H   0  0  0  1  0  0  0  0  0  0  0  0
   -4.9578    4.1333   -4.9101 H   0  0  0  1  0  0  0  0  0  0  0  0
  1  4  1  0  0  0  0
  2  4  1  0  0  0  0
  2  5  2  0  0  0  0
  2  6  1  0  0  0  0
  3  4  1  0  0  0  0
  3  7  1  0  0  0  0
  3  8  1  0  0  0  0
  4 19  1  0  0  0  0
  6  9  1  0  0  0  0
  6 12  1  0  0  0  0
  8 10  1  0  0  0  0
  8 11  2  0  0  0  0
  9 13  1  0  0  0  0
  9 14  1  0  0  0  0
  9 15  1  0  0  0  0
 10 16  1  0  0  0  0
 10 17  1  0  0  0  0
 10 18  1  0  0  0  0
 19 20  1  0  0  0  0
 19 28  1  0  0  0  0
 19 29  1  0  0  0  0
 20 21  4  0  0  0  0
 20 25  4  0  0  0  0
 21 22  4  0  0  0  0
 21 30  1  0  0  0  0
 22 23  4  0  0  0  0
 22 27  1  0  0  0  0
 23 24  4  0  0  0  0
 23 26  1  0  0  0  0
 24 25  4  0  0  0  0
 24 31  1  0  0  0  0
 25 32  1  0  0  0  0
 26 33  1  0  0  0  0
 27 34  1  0  0  0  0
M  END
> <BCLConfClusterSize>
1

> <ConfClashScore>
0 

> <ConfOneFourInteractionScore>
-0.947371 

> <ConfScore>
0.262535 

> <ConfScorePBest>
0.0041883 

> <ConfTolerance>
0.590632 

> <RosettaParamsInstructions>
M  ROOT 3
M  POLY_N_BB 3
M  POLY_CA_BB 4
M  POLY_C_BB 2
M  POLY_O_BB 5
M  POLY_IGNORE 9 10 11 12 13 14 15 16 17 18 
M  POLY_UPPER 6
M  POLY_LOWER 8
M  POLY_CHG 0
M  POLY_PROPERTIES ALPHA_AA D_AA PROTEIN AROMATIC POLYMER 
M  END

$$$$



 34 34  0  0  0  0  0  0  0  0999 V2000
   -0.3631    4.1327   -0.1139 H   0  0  0  1  0  0  0  0  0  0  0  0
   -2.1033    3.6730    0.9738 C   0  0  0  1  0  0  0  0  0  0  0  0
   -1.9480    5.1695   -0.9379 N   0  0  0  1  0  0  0  0  0  0  0  0
   -1.3938    3.9533   -0.3382 C   0  0  0  1  0  0  0  0  0  0  0  0
   -3.2891    3.3460    1.0012 O   0  0  0  1  0  0  0  0  0  0  0  0
   -1.3559    3.8056    2.0810 N   0  0  0  1  0  0  0  0  0  0  0  0
   -2.0788    5.1541   -1.9090 H   0  0  0  1  0  0  0  0  0  0  0  0
   -2.2968    6.3021   -0.3088 C   0  0  0  1  0  0  0  0  0  0  0  0
   -1.8839    3.5429    3.4114 C   0  0  0  1  0  0  0  0  0  0  0  0
   -2.7475    7.4383   -1.2239 C   0  0  0  1  0  0  0  0  0  0  0  0
   -2.2002    6.4663    0.8963 O   0  0  0  1  0  0  0  0  0  0  0  0
   -0.4222    4.0891    1.9901 H   0  0  0  1  0  0  0  0  0  0  0  0
   -2.7025    2.8575    3.3419 H   0  0  0  1  0  0  0  0  0  0  0  0
   -2.2224    4.4594    3.8478 H   0  0  0  1  0  0  0  0  0  0  0  0
   -1.1149    3.1189    4.0227 H   0  0  0  1  0  0  0  0  0  0  0  0
   -1.9135    7.7888   -1.7954 H   0  0  0  1  0  0  0  0  0  0  0  0
   -3.1360    8.2403   -0.6316 H   0  0  0  1  0  0  0  0  0  0  0  0
   -3.5087    7.0820   -1.8861 H   0  0  0  1  0  0  0  0  0  0  0  0
   -1.4473    2.7961   -1.3400 C   0  0  0  1  0  0  0  0  0  0  0  0
   -2.8212    2.5769   -1.9148 C   0  0  0  1  0  0  0  0  0  0  0  0
   -3.1241    3.0793   -3.1708 C   0  0  0  1  0  0  0  0  0  0  0  0
   -4.4083    2.9656   -3.6690 C   0  0  0  1  0  0  0  0  0  0  0  0
   -5.3919    2.3444   -2.9153 C   0  0  0  1  0  0  0  0  0  0  0  0
   -5.0897    1.8436   -1.6631 C   0  0  0  1  0  0  0  0  0  0  0  0
   -3.8019    1.9575   -1.1632 C   0  0  0  1  0  0  0  0  0  0  0  0
   -6.6634    2.2045   -3.3631 O   0  0  0  1  0  0  0  0  0  0  0  0
   -4.6811    3.4693   -4.8973 O   0  0  0  1  0  0  0  0  0  0  0  0
   -1.1394    1.9003   -0.8424 H   0  0  0  1  0  0  0  0  0  0  0  0
   -0.7724    3.0090   -2.1425 H   0  0  0  1  0  0  0  0  0  0  0  0
   -2.3853    3.5418   -3.7380 H   0  0  0  1  0  0  0  0  0  0  0  0
   -5.8286    1.3811   -1.0959 H   0  0  0  1  0  0  0  0  0  0  0  0
   -3.5736    1.5770   -0.2226 H   0  0  0  1  0  0  0  0  0  0  0  0
   -7.2710    2.5917   -2.7287 H   0  0  0  1  0  0  0  0  0  0  0  0
   -3.9357    3.9920   -5.2020 H   0  0  0  1  0  0  0  0  0  0  0  0
  1  4  1  0  0  0  0
  2  4  1  0  0  0  0
  2  5  2  0  0  0  0
  2  6  1  0  0  0  0
  3  4  1  0  0  0  0
  3  7  1  0  0  0  0
  3  8  1  0  0  0  0
  4 19  1  0  0  0  0
  6  9  1  0  0  0  0
  6 12  1  0  0  0  0
  8 10  1  0  0  0  0
  8 11  2  0  0  0  0
  9 13  1  0  0  0  0
  9 14  1  0  0  0  0
  9 15  1  0  0  0  0
 10 16  1  0  0  0  0
 10 17  1  0  0  0  0
 10 18  1  0  0  0  0
 19 20  1  0  0  0  0
 19 28  1  0  0  0  0
 19 29  1  0  0  0  0
 20 21  4  0  0  0  0
 20 25  4  0  0  0  0
 21 22  4  0  0  0  0
 21 30  1  0  0  0  0
 22 23  4  0  0  0  0
 22 27  1  0  0  0  0
 23 24  4  0  0  0  0
 23 26  1  0  0  0  0
 24 25  4  0  0  0  0
 24 31  1  0  0  0  0
 25 32  1  0  0  0  0
 26 33  1  0  0  0  0
 27 34  1  0  0  0  0
M  END
> <BCLConfClusterSize>
1

> <ConfClashScore>
0 

> <ConfOneFourInteractionScore>
-0.976093 

> <ConfScore>
0.262789 

> <ConfScorePBest>
0.00415982 

> <ConfTolerance>
0.572834 

> <RosettaParamsInstructions>
M  ROOT 3
M  POLY_N_BB 3
M  POLY_CA_BB 4
M  POLY_C_BB 2
M  POLY_O_BB 5
M  POLY_IGNORE 9 10 11 12 13 14 15 16 17 18 
M  POLY_UPPER 6
M  POLY_LOWER 8
M  POLY_CHG 0
M  POLY_PROPERTIES ALPHA_AA D_AA PROTEIN AROMATIC POLYMER 
M  END

$$$$



 34 34  0  0  0  0  0  0  0  0999 V2000
    0.5338    1.7002   -1.2948 H   0  0  0  1  0  0  0  0  0  0  0  0
   -0.2385    1.4813   -3.2300 C   0  0  0  1  0  0  0  0  0  0  0  0
   -0.8694    0.1973   -1.2352 N   0  0  0  1  0  0  0  0  0  0  0  0
   -0.4279    1.5079   -1.7227 C   0  0  0  1  0  0  0  0  0  0  0  0
   -0.4712    2.4728   -3.9203 O   0  0  0  1  0  0  0  0  0  0  0  0
    0.1933    0.3184   -3.7431 N   0  0  0  1  0  0  0  0  0  0  0  0
   -1.8318    0.0492   -1.1250 H   0  0  0  1  0  0  0  0  0  0  0  0
   -0.0431   -0.8078   -0.9317 C   0  0  0  1  0  0  0  0  0  0  0  0
    0.3643    0.1159   -5.1741 C   0  0  0  1  0  0  0  0  0  0  0  0
   -0.7359   -2.0773   -0.4331 C   0  0  0  1  0  0  0  0  0  0  0  0
    1.1751   -0.7851   -1.1025 O   0  0  0  1  0  0  0  0  0  0  0  0
    0.4006   -0.4198   -3.1329 H   0  0  0  1  0  0  0  0  0  0  0  0
    0.6159    1.0462   -5.6390 H   0  0  0  1  0  0  0  0  0  0  0  0
   -0.5472   -0.2567   -5.5927 H   0  0  0  1  0  0  0  0  0  0  0  0
    1.1498   -0.5908   -5.3427 H   0  0  0  1  0  0  0  0  0  0  0  0
   -0.5616   -2.1905    0.6165 H   0  0  0  1  0  0  0  0  0  0  0  0
   -0.3427   -2.9256   -0.9533 H   0  0  0  1  0  0  0  0  0  0  0  0
   -1.7879   -2.0036   -0.6138 H   0  0  0  1  0  0  0  0  0  0  0  0
   -1.3427    2.6525   -1.2745 C   0  0  0  1  0  0  0  0  0  0  0  0
   -2.7435    2.5516   -1.8456 C   0  0  0  1  0  0  0  0  0  0  0  0
   -3.0754    3.1298   -3.0610 C   0  0  0  1  0  0  0  0  0  0  0  0
   -4.3838    3.1012   -3.5054 C   0  0  0  1  0  0  0  0  0  0  0  0
   -5.3632    2.4896   -2.7384 C   0  0  0  1  0  0  0  0  0  0  0  0
   -5.0322    1.9132   -1.5267 C   0  0  0  1  0  0  0  0  0  0  0  0
   -3.7200    1.9418   -1.0808 C   0  0  0  1  0  0  0  0  0  0  0  0
   -6.6223    2.4954   -3.2398 O   0  0  0  1  0  0  0  0  0  0  0  0
   -4.6843    3.6779   -4.6944 O   0  0  0  1  0  0  0  0  0  0  0  0
   -0.9109    3.5782   -1.5929 H   0  0  0  1  0  0  0  0  0  0  0  0
   -1.4085    2.6377   -0.2066 H   0  0  0  1  0  0  0  0  0  0  0  0
   -2.3399    3.5851   -3.6384 H   0  0  0  1  0  0  0  0  0  0  0  0
   -5.7677    1.4578   -0.9493 H   0  0  0  1  0  0  0  0  0  0  0  0
   -3.4703    1.5044   -0.1709 H   0  0  0  1  0  0  0  0  0  0  0  0
   -6.5938    2.7104   -4.1750 H   0  0  0  1  0  0  0  0  0  0  0  0
   -5.2840    3.1099   -5.1836 H   0  0  0  1  0  0  0  0  0  0  0  0
  1  4  1  0  0  0  0
  2  4  1  0  0  0  0
  2  5  2  0  0  0  0
  2  6  1  0  0  0  0
  3  4  1  0  0  0  0
  3  7  1  0  0  0  0
  3  8  1  0  0  0  0
  4 19  1  0  0  0  0
  6  9  1  0  0  0  0
  6 12  1  0  0  0  0
  8 10  1  0  0  0  0
  8 11  2  0  0  0  0
  9 13  1  0  0  0  0
  9 14  1  0  0  0  0
  9 15  1  0  0  0  0
 10 16  1  0  0  0  0
 10 17  1  0  0  0  0
 10 18  1  0  0  0  0
 19 20  1  0  0  0  0
 19 28  1  0  0  0  0
 19 29  1  0  0  0  0
 20 21  4  0  0  0  0
 20 25  4  0  0  0  0
 21 22  4  0  0  0  0
 21 30  1  0  0  0  0
 22 23  4  0  0  0  0
 22 27  1  0  0  0  0
 23 24  4  0  0  0  0
 23 26  1  0  0  0  0
 24 25  4  0  0  0  0
 24 31  1  0  0  0  0
 25 32  1  0  0  0  0
 26 33  1  0  0  0  0
 27 34  1  0  0  0  0
M  END
> <BCLConfClusterSize>
1

> <ConfClashScore>
0 

> <ConfOneFourInteractionScore>
-0.956715 

> <ConfScore>
0.263068 

> <ConfScorePBest>
0.00413134 

> <ConfTolerance>
0.621777 

> <RosettaParamsInstructions>
M  ROOT 3
M  POLY_N_BB 3
M  POLY_CA_BB 4
M  POLY_C_BB 2
M  POLY_O_BB 5
M  POLY_IGNORE 9 10 11 12 13 14 15 16 17 18 
M  POLY_UPPER 6
M  POLY_LOWER 8
M  POLY_CHG 0
M  POLY_PROPERTIES ALPHA_AA D_AA PROTEIN AROMATIC POLYMER 
M  END

$$$$



 34 34  0  0  0  0  0  0  0  0999 V2000
   -0.3148    1.8883   -2.8474 H   0  0  0  1  0  0  0  0  0  0  0  0
   -0.8575    0.2468   -1.6709 C   0  0  0  1  0  0  0  0  0  0  0  0
    0.9315    1.9096   -1.2264 N   0  0  0  1  0  0  0  0  0  0  0  0
   -0.3876    1.6864   -1.7991 C   0  0  0  1  0  0  0  0  0  0  0  0
   -2.0688    0.0432   -1.5993 O   0  0  0  1  0  0  0  0  0  0  0  0
    0.0935   -0.6848   -1.6467 N   0  0  0  1  0  0  0  0  0  0  0  0
    1.6130    2.3583   -1.7692 H   0  0  0  1  0  0  0  0  0  0  0  0
    1.2489    1.5203    0.0257 C   0  0  0  1  0  0  0  0  0  0  0  0
   -0.2116   -2.1052   -1.5623 C   0  0  0  1  0  0  0  0  0  0  0  0
    2.7056    1.5781    0.4426 C   0  0  0  1  0  0  0  0  0  0  0  0
    0.3837    1.1294    0.8082 O   0  0  0  1  0  0  0  0  0  0  0  0
    1.0316   -0.4041   -1.6872 H   0  0  0  1  0  0  0  0  0  0  0  0
   -1.2612   -2.2361   -1.4006 H   0  0  0  1  0  0  0  0  0  0  0  0
    0.3311   -2.5386   -0.7483 H   0  0  0  1  0  0  0  0  0  0  0  0
    0.0708   -2.5854   -2.4758 H   0  0  0  1  0  0  0  0  0  0  0  0
    3.0421    0.5962    0.7023 H   0  0  0  1  0  0  0  0  0  0  0  0
    2.8089    2.2255    1.2882 H   0  0  0  1  0  0  0  0  0  0  0  0
    3.2938    1.9535   -0.3686 H   0  0  0  1  0  0  0  0  0  0  0  0
   -1.4181    2.6603   -1.2515 C   0  0  0  1  0  0  0  0  0  0  0  0
   -2.7926    2.5768   -1.8859 C   0  0  0  1  0  0  0  0  0  0  0  0
   -3.0824    3.2219   -3.0781 C   0  0  0  1  0  0  0  0  0  0  0  0
   -4.3709    3.2041   -3.5779 C   0  0  0  1  0  0  0  0  0  0  0  0
   -5.3722    2.5368   -2.8897 C   0  0  0  1  0  0  0  0  0  0  0  0
   -5.0832    1.8937   -1.7010 C   0  0  0  1  0  0  0  0  0  0  0  0
   -3.7910    1.9114   -1.1996 C   0  0  0  1  0  0  0  0  0  0  0  0
   -6.6265    2.5293   -3.4029 O   0  0  0  1  0  0  0  0  0  0  0  0
   -4.5331    3.8726   -4.7456 O   0  0  0  1  0  0  0  0  0  0  0  0
   -1.0459    3.6525   -1.3997 H   0  0  0  1  0  0  0  0  0  0  0  0
   -1.5261    2.4721   -0.2038 H   0  0  0  1  0  0  0  0  0  0  0  0
   -2.3303    3.7192   -3.5965 H   0  0  0  1  0  0  0  0  0  0  0  0
   -5.8352    1.3965   -1.1827 H   0  0  0  1  0  0  0  0  0  0  0  0
   -3.5727    1.4241   -0.3072 H   0  0  0  1  0  0  0  0  0  0  0  0
   -7.2233    2.1020   -2.7842 H   0  0  0  1  0  0  0  0  0  0  0  0
   -4.3915    3.2720   -5.4810 H   0  0  0  1  0  0  0  0  0  0  0  0
  1  4  1  0  0  0  0
  2  4  1  0  0  0  0
  2  5  2  0  0  0  0
  2  6  1  0  0  0  0
  3  4  1  0  0  0  0
  3  7  1  0  0  0  0
  3  8  1  0  0  0  0
  4 19  1  0  0  0  0
  6  9  1  0  0  0  0
  6 12  1  0  0  0  0
  8 10  1  0  0  0  0
  8 11  2  0  0  0  0
  9 13  1  0  0  0  0
  9 14  1  0  0  0  0
  9 15  1  0  0  0  0
 10 16  1  0  0  0  0
 10 17  1  0  0  0  0
 10 18  1  0  0  0  0
 19 20  1  0  0  0  0
 19 28  1  0  0  0  0
 19 29  1  0  0  0  0
 20 21  4  0  0  0  0
 20 25  4  0  0  0  0
 21 22  4  0  0  0  0
 21 30  1  0  0  0  0
 22 23  4  0  0  0  0
 22 27  1  0  0  0  0
 23 24  4  0  0  0  0
 23 26  1  0  0  0  0
 24 25  4  0  0  0  0
 24 31  1  0  0  0  0
 25 32  1  0  0  0  0
 26 33  1  0  0  0  0
 27 34  1  0  0  0  0
M  END
> <BCLConfClusterSize>
1

> <ConfClashScore>
0 

> <ConfOneFourInteractionScore>
-0.957364 

> <ConfScore>
0.264638 

> <ConfScorePBest>
0.00410286 

> <ConfTolerance>
0.353278 

> <RosettaParamsInstructions>
M  ROOT 3
M  POLY_N_BB 3
M  POLY_CA_BB 4
M  POLY_C_BB 2
M  POLY_O_BB 5
M  POLY_IGNORE 9 10 11 12 13 14 15 16 17 18 
M  POLY_UPPER 6
M  POLY_LOWER 8
M  POLY_CHG 0
M  POLY_PROPERTIES ALPHA_AA D_AA PROTEIN AROMATIC POLYMER 
M  END

$$$$



 34 34  0  0  0  0  0  0  0  0999 V2000
   -0.9986    0.5262   -1.2058 H   0  0  0  1  0  0  0  0  0  0  0  0
    0.8960    1.4502   -1.2578 C   0  0  0  1  0  0  0  0  0  0  0  0
   -0.6272    1.0426   -3.1659 N   0  0  0  1  0  0  0  0  0  0  0  0
   -0.5469    1.3361   -1.7395 C   0  0  0  1  0  0  0  0  0  0  0  0
    1.8080    0.8508   -1.8257 O   0  0  0  1  0  0  0  0  0  0  0  0
    1.0935    2.2380   -0.1889 N   0  0  0  1  0  0  0  0  0  0  0  0
   -0.2845    1.7022   -3.8046 H   0  0  0  1  0  0  0  0  0  0  0  0
   -1.1517   -0.0943   -3.6322 C   0  0  0  1  0  0  0  0  0  0  0  0
    2.4168    2.4754    0.3680 C   0  0  0  1  0  0  0  0  0  0  0  0
   -1.1370   -0.2565   -5.1354 C   0  0  0  1  0  0  0  0  0  0  0  0
   -1.6205   -0.9634   -2.9020 O   0  0  0  1  0  0  0  0  0  0  0  0
    0.3195    2.6681    0.2310 H   0  0  0  1  0  0  0  0  0  0  0  0
    2.7796    1.5772    0.8225 H   0  0  0  1  0  0  0  0  0  0  0  0
    2.3600    3.2496    1.1044 H   0  0  0  1  0  0  0  0  0  0  0  0
    3.0840    2.7741   -0.4134 H   0  0  0  1  0  0  0  0  0  0  0  0
   -0.6431    0.5820   -5.5803 H   0  0  0  1  0  0  0  0  0  0  0  0
   -2.1423   -0.3115   -5.4978 H   0  0  0  1  0  0  0  0  0  0  0  0
   -0.6152   -1.1547   -5.3918 H   0  0  0  1  0  0  0  0  0  0  0  0
   -1.3461    2.5985   -1.4131 C   0  0  0  1  0  0  0  0  0  0  0  0
   -2.7736    2.5314   -1.8861 C   0  0  0  1  0  0  0  0  0  0  0  0
   -3.1300    3.1542   -3.0721 C   0  0  0  1  0  0  0  0  0  0  0  0
   -4.4538    3.1790   -3.4688 C   0  0  0  1  0  0  0  0  0  0  0  0
   -5.4242    2.5765   -2.6835 C   0  0  0  1  0  0  0  0  0  0  0  0
   -5.0687    1.9556   -1.5010 C   0  0  0  1  0  0  0  0  0  0  0  0
   -3.7411    1.9306   -1.1030 C   0  0  0  1  0  0  0  0  0  0  0  0
   -6.6834    2.6609   -3.1775 O   0  0  0  1  0  0  0  0  0  0  0  0
   -4.7780    3.7986   -4.6297 O   0  0  0  1  0  0  0  0  0  0  0  0
   -0.8705    3.4338   -1.8832 H   0  0  0  1  0  0  0  0  0  0  0  0
   -1.3451    2.7375   -0.3522 H   0  0  0  1  0  0  0  0  0  0  0  0
   -2.4015    3.6027   -3.6634 H   0  0  0  1  0  0  0  0  0  0  0  0
   -5.7973    1.5071   -0.9098 H   0  0  0  1  0  0  0  0  0  0  0  0
   -3.4732    1.4599   -0.2152 H   0  0  0  1  0  0  0  0  0  0  0  0
   -6.7417    2.1593   -3.9939 H   0  0  0  1  0  0  0  0  0  0  0  0
   -4.6104    3.2065   -5.3666 H   0  0  0  1  0  0  0  0  0  0  0  0
  1  4  1  0  0  0  0
  2  4  1  0  0  0  0
  2  5  2  0  0  0  0
  2  6  1  0  0  0  0
  3  4  1  0  0  0  0
  3  7  1  0  0  0  0
  3  8  1  0  0  0  0
  4 19  1  0  0  0  0
  6  9  1  0  0  0  0
  6 12  1  0  0  0  0
  8 10  1  0  0  0  0
  8 11  2  0  0  0  0
  9 13  1  0  0  0  0
  9 14  1  0  0  0  0
  9 15  1  0  0  0  0
 10 16  1  0  0  0  0
 10 17  1  0  0  0  0
 10 18  1  0  0  0  0
 19 20  1  0  0  0  0
 19 28  1  0  0  0  0
 19 29  1  0  0  0  0
 20 21  4  0  0  0  0
 20 25  4  0  0  0  0
 21 22  4  0  0  0  0
 21 30  1  0  0  0  0
 22 23  4  0  0  0  0
 22 27  1  0  0  0  0
 23 24  4  0  0  0  0
 23 26  1  0  0  0  0
 24 25  4  0  0  0  0
 24 31  1  0  0  0  0
 25 32  1  0  0  0  0
 26 33  1  0  0  0  0
 27 34  1  0  0  0  0
M  END
> <BCLConfClusterSize>
1

> <ConfClashScore>
0 

> <ConfOneFourInteractionScore>
-0.932483 

> <ConfScore>
0.26619 

> <ConfScorePBest>
0.00407438 

> <ConfTolerance>
0.842131 

> <RosettaParamsInstructions>
M  ROOT 3
M  POLY_N_BB 3
M  POLY_CA_BB 4
M  POLY_C_BB 2
M  POLY_O_BB 5
M  POLY_IGNORE 9 10 11 12 13 14 15 16 17 18 
M  POLY_UPPER 6
M  POLY_LOWER 8
M  POLY_CHG 0
M  POLY_PROPERTIES ALPHA_AA D_AA PROTEIN AROMATIC POLYMER 
M  END

$$$$



 34 34  0  0  0  0  0  0  0  0999 V2000
   -1.0338    0.7835   -1.2923 H   0  0  0  1  0  0  0  0  0  0  0  0
    0.7556    1.7076   -0.6901 C   0  0  0  1  0  0  0  0  0  0  0  0
   -0.1938    1.5683   -2.9974 N   0  0  0  1  0  0  0  0  0  0  0  0
   -0.4952    1.6662   -1.5672 C   0  0  0  1  0  0  0  0  0  0  0  0
    1.7802    2.2448   -1.0790 O   0  0  0  1  0  0  0  0  0  0  0  0
    0.6320    1.2068    0.5424 N   0  0  0  1  0  0  0  0  0  0  0  0
   -0.6730    0.9056   -3.5374 H   0  0  0  1  0  0  0  0  0  0  0  0
    0.7154    2.3544   -3.5938 C   0  0  0  1  0  0  0  0  0  0  0  0
    1.7446    1.1650    1.4796 C   0  0  0  1  0  0  0  0  0  0  0  0
    1.0793    1.9784   -5.0123 C   0  0  0  1  0  0  0  0  0  0  0  0
    1.2300    3.3216   -3.0388 O   0  0  0  1  0  0  0  0  0  0  0  0
   -0.2380    0.8555    0.8251 H   0  0  0  1  0  0  0  0  0  0  0  0
    1.9359    2.1500    1.8511 H   0  0  0  1  0  0  0  0  0  0  0  0
    2.6167    0.7963    0.9813 H   0  0  0  1  0  0  0  0  0  0  0  0
    1.4990    0.5178    2.2956 H   0  0  0  1  0  0  0  0  0  0  0  0
    1.0507    2.8506   -5.6315 H   0  0  0  1  0  0  0  0  0  0  0  0
    0.3800    1.2570   -5.3804 H   0  0  0  1  0  0  0  0  0  0  0  0
    2.0646    1.5616   -5.0289 H   0  0  0  1  0  0  0  0  0  0  0  0
   -1.4428    2.8376   -1.3443 C   0  0  0  1  0  0  0  0  0  0  0  0
   -2.8205    2.5957   -1.9006 C   0  0  0  1  0  0  0  0  0  0  0  0
   -3.1566    3.1141   -3.1415 C   0  0  0  1  0  0  0  0  0  0  0  0
   -4.4459    2.9784   -3.6207 C   0  0  0  1  0  0  0  0  0  0  0  0
   -5.4014    2.3194   -2.8629 C   0  0  0  1  0  0  0  0  0  0  0  0
   -5.0661    1.8027   -1.6257 C   0  0  0  1  0  0  0  0  0  0  0  0
   -3.7731    1.9386   -1.1449 C   0  0  0  1  0  0  0  0  0  0  0  0
   -6.6573    2.1947   -3.3568 O   0  0  0  1  0  0  0  0  0  0  0  0
   -4.7515    3.4983   -4.8344 O   0  0  0  1  0  0  0  0  0  0  0  0
   -1.0311    3.7037   -1.8190 H   0  0  0  1  0  0  0  0  0  0  0  0
   -1.5262    3.0127   -0.2921 H   0  0  0  1  0  0  0  0  0  0  0  0
   -2.4388    3.6050   -3.7118 H   0  0  0  1  0  0  0  0  0  0  0  0
   -5.7839    1.3118   -1.0554 H   0  0  0  1  0  0  0  0  0  0  0  0
   -3.5198    1.5462   -0.2156 H   0  0  0  1  0  0  0  0  0  0  0  0
   -7.2234    2.8642   -2.9657 H   0  0  0  1  0  0  0  0  0  0  0  0
   -3.9422    3.7139   -5.3036 H   0  0  0  1  0  0  0  0  0  0  0  0
  1  4  1  0  0  0  0
  2  4  1  0  0  0  0
  2  5  2  0  0  0  0
  2  6  1  0  0  0  0
  3  4  1  0  0  0  0
  3  7  1  0  0  0  0
  3  8  1  0  0  0  0
  4 19  1  0  0  0  0
  6  9  1  0  0  0  0
  6 12  1  0  0  0  0
  8 10  1  0  0  0  0
  8 11  2  0  0  0  0
  9 13  1  0  0  0  0
  9 14  1  0  0  0  0
  9 15  1  0  0  0  0
 10 16  1  0  0  0  0
 10 17  1  0  0  0  0
 10 18  1  0  0  0  0
 19 20  1  0  0  0  0
 19 28  1  0  0  0  0
 19 29  1  0  0  0  0
 20 21  4  0  0  0  0
 20 25  4  0  0  0  0
 21 22  4  0  0  0  0
 21 30  1  0  0  0  0
 22 23  4  0  0  0  0
 22 27  1  0  0  0  0
 23 24  4  0  0  0  0
 23 26  1  0  0  0  0
 24 25  4  0  0  0  0
 24 31  1  0  0  0  0
 25 32  1  0  0  0  0
 26 33  1  0  0  0  0
 27 34  1  0  0  0  0
M  END
> <BCLConfClusterSize>
1

> <ConfClashScore>
0 

> <ConfOneFourInteractionScore>
-0.987258 

> <ConfScore>
0.266221 

> <ConfScorePBest>
0.00404589 

> <ConfTolerance>
0.594788 

> <RosettaParamsInstructions>
M  ROOT 3
M  POLY_N_BB 3
M  POLY_CA_BB 4
M  POLY_C_BB 2
M  POLY_O_BB 5
M  POLY_IGNORE 9 10 11 12 13 14 15 16 17 18 
M  POLY_UPPER 6
M  POLY_LOWER 8
M  POLY_CHG 0
M  POLY_PROPERTIES ALPHA_AA D_AA PROTEIN AROMATIC POLYMER 
M  END

$$$$



 34 34  0  0  0  0  0  0  0  0999 V2000
   -2.0265    3.7581    0.2109 H   0  0  0  1  0  0  0  0  0  0  0  0
   -0.6887    4.9256   -0.9003 C   0  0  0  1  0  0  0  0  0  0  0  0
   -0.1495    3.0445    0.6433 N   0  0  0  1  0  0  0  0  0  0  0  0
   -1.1033    3.5986   -0.3060 C   0  0  0  1  0  0  0  0  0  0  0  0
   -0.2818    5.8386   -0.1831 O   0  0  0  1  0  0  0  0  0  0  0  0
   -0.7780    5.0764   -2.2313 N   0  0  0  1  0  0  0  0  0  0  0  0
   -0.4529    2.3560    1.2712 H   0  0  0  1  0  0  0  0  0  0  0  0
    1.1253    3.4418    0.6884 C   0  0  0  1  0  0  0  0  0  0  0  0
   -0.3173    6.3054   -2.8599 C   0  0  0  1  0  0  0  0  0  0  0  0
    1.9068    3.0099    1.9139 C   0  0  0  1  0  0  0  0  0  0  0  0
    1.6488    4.1153   -0.1980 O   0  0  0  1  0  0  0  0  0  0  0  0
   -1.1542    4.3574   -2.7807 H   0  0  0  1  0  0  0  0  0  0  0  0
   -0.5078    7.1328   -2.2087 H   0  0  0  1  0  0  0  0  0  0  0  0
   -0.8387    6.4508   -3.7829 H   0  0  0  1  0  0  0  0  0  0  0  0
    0.7334    6.2363   -3.0503 H   0  0  0  1  0  0  0  0  0  0  0  0
    1.3572    3.2643    2.7960 H   0  0  0  1  0  0  0  0  0  0  0  0
    2.8532    3.5090    1.9273 H   0  0  0  1  0  0  0  0  0  0  0  0
    2.0616    1.9516    1.8833 H   0  0  0  1  0  0  0  0  0  0  0  0
   -1.3725    2.5605   -1.3830 C   0  0  0  1  0  0  0  0  0  0  0  0
   -2.7899    2.5345   -1.9208 C   0  0  0  1  0  0  0  0  0  0  0  0
   -3.1286    3.1695   -3.1055 C   0  0  0  1  0  0  0  0  0  0  0  0
   -4.4477    3.2074   -3.5164 C   0  0  0  1  0  0  0  0  0  0  0  0
   -5.4312    2.6059   -2.7467 C   0  0  0  1  0  0  0  0  0  0  0  0
   -5.0933    1.9728   -1.5655 C   0  0  0  1  0  0  0  0  0  0  0  0
   -3.7704    1.9347   -1.1532 C   0  0  0  1  0  0  0  0  0  0  0  0
   -6.7010    2.6784   -3.2147 O   0  0  0  1  0  0  0  0  0  0  0  0
   -4.7048    3.8499   -4.6817 O   0  0  0  1  0  0  0  0  0  0  0  0
   -1.1574    1.5959   -0.9729 H   0  0  0  1  0  0  0  0  0  0  0  0
   -0.7123    2.7557   -2.2020 H   0  0  0  1  0  0  0  0  0  0  0  0
   -2.3903    3.6173   -3.6851 H   0  0  0  1  0  0  0  0  0  0  0  0
   -5.8316    1.5250   -0.9860 H   0  0  0  1  0  0  0  0  0  0  0  0
   -3.5157    1.4548   -0.2664 H   0  0  0  1  0  0  0  0  0  0  0  0
   -7.0027    1.8007   -3.4599 H   0  0  0  1  0  0  0  0  0  0  0  0
   -4.2435    3.4094   -5.3991 H   0  0  0  1  0  0  0  0  0  0  0  0
  1  4  1  0  0  0  0
  2  4  1  0  0  0  0
  2  5  2  0  0  0  0
  2  6  1  0  0  0  0
  3  4  1  0  0  0  0
  3  7  1  0  0  0  0
  3  8  1  0  0  0  0
  4 19  1  0  0  0  0
  6  9  1  0  0  0  0
  6 12  1  0  0  0  0
  8 10  1  0  0  0  0
  8 11  2  0  0  0  0
  9 13  1  0  0  0  0
  9 14  1  0  0  0  0
  9 15  1  0  0  0  0
 10 16  1  0  0  0  0
 10 17  1  0  0  0  0
 10 18  1  0  0  0  0
 19 20  1  0  0  0  0
 19 28  1  0  0  0  0
 19 29  1  0  0  0  0
 20 21  4  0  0  0  0
 20 25  4  0  0  0  0
 21 22  4  0  0  0  0
 21 30  1  0  0  0  0
 22 23  4  0  0  0  0
 22 27  1  0  0  0  0
 23 24  4  0  0  0  0
 23 26  1  0  0  0  0
 24 25  4  0  0  0  0
 24 31  1  0  0  0  0
 25 32  1  0  0  0  0
 26 33  1  0  0  0  0
 27 34  1  0  0  0  0
M  END
> <BCLConfClusterSize>
1

> <ConfClashScore>
0 

> <ConfOneFourInteractionScore>
-0.919941 

> <ConfScore>
0.266728 

> <ConfScorePBest>
0.00401741 

> <ConfTolerance>
0.476041 

> <RosettaParamsInstructions>
M  ROOT 3
M  POLY_N_BB 3
M  POLY_CA_BB 4
M  POLY_C_BB 2
M  POLY_O_BB 5
M  POLY_IGNORE 9 10 11 12 13 14 15 16 17 18 
M  POLY_UPPER 6
M  POLY_LOWER 8
M  POLY_CHG 0
M  POLY_PROPERTIES ALPHA_AA D_AA PROTEIN AROMATIC POLYMER 
M  END

$$$$



 34 34  0  0  0  0  0  0  0  0999 V2000
   -0.4755    1.2470   -2.7770 H   0  0  0  1  0  0  0  0  0  0  0  0
   -1.1893    0.0759   -1.1836 C   0  0  0  1  0  0  0  0  0  0  0  0
    0.8037    1.5265   -1.1904 N   0  0  0  1  0  0  0  0  0  0  0  0
   -0.5405    1.3414   -1.7131 C   0  0  0  1  0  0  0  0  0  0  0  0
   -1.2591   -0.8811   -1.9314 O   0  0  0  1  0  0  0  0  0  0  0  0
   -1.6339    0.1205    0.0732 N   0  0  0  1  0  0  0  0  0  0  0  0
    1.3328    2.2674   -1.5530 H   0  0  0  1  0  0  0  0  0  0  0  0
    1.3709    0.7636   -0.2546 C   0  0  0  1  0  0  0  0  0  0  0  0
   -2.2597   -1.0246    0.7175 C   0  0  0  1  0  0  0  0  0  0  0  0
    2.8786    0.9412   -0.0560 C   0  0  0  1  0  0  0  0  0  0  0  0
    0.7924   -0.0598    0.4531 O   0  0  0  1  0  0  0  0  0  0  0  0
   -1.5357    0.9533    0.5804 H   0  0  0  1  0  0  0  0  0  0  0  0
   -2.7236   -1.6418   -0.0232 H   0  0  0  1  0  0  0  0  0  0  0  0
   -2.9994   -0.6830    1.4111 H   0  0  0  1  0  0  0  0  0  0  0  0
   -1.5161   -1.5908    1.2385 H   0  0  0  1  0  0  0  0  0  0  0  0
    3.2024    0.3458    0.7719 H   0  0  0  1  0  0  0  0  0  0  0  0
    3.0935    1.9710    0.1398 H   0  0  0  1  0  0  0  0  0  0  0  0
    3.3937    0.6310   -0.9411 H   0  0  0  1  0  0  0  0  0  0  0  0
   -1.3919    2.5660   -1.4203 C   0  0  0  1  0  0  0  0  0  0  0  0
   -2.8041    2.5089   -1.9386 C   0  0  0  1  0  0  0  0  0  0  0  0
   -3.1059    3.0843   -3.1631 C   0  0  0  1  0  0  0  0  0  0  0  0
   -4.4147    3.1202   -3.6057 C   0  0  0  1  0  0  0  0  0  0  0  0
   -5.4248    2.5763   -2.8277 C   0  0  0  1  0  0  0  0  0  0  0  0
   -5.1237    2.0028   -1.6068 C   0  0  0  1  0  0  0  0  0  0  0  0
   -3.8111    1.9666   -1.1627 C   0  0  0  1  0  0  0  0  0  0  0  0
   -6.7330    2.5613   -3.1814 O   0  0  0  1  0  0  0  0  0  0  0  0
   -4.7597    3.6762   -4.7926 O   0  0  0  1  0  0  0  0  0  0  0  0
   -0.9124    3.4146   -1.8617 H   0  0  0  1  0  0  0  0  0  0  0  0
   -1.4347    2.6921   -0.3587 H   0  0  0  1  0  0  0  0  0  0  0  0
   -2.3475    3.4888   -3.7487 H   0  0  0  1  0  0  0  0  0  0  0  0
   -5.8821    1.5982   -1.0213 H   0  0  0  1  0  0  0  0  0  0  0  0
   -3.5841    1.5314   -0.2458 H   0  0  0  1  0  0  0  0  0  0  0  0
   -7.0711    1.6648   -3.1209 H   0  0  0  1  0  0  0  0  0  0  0  0
   -3.9693    3.9750   -5.2482 H   0  0  0  1  0  0  0  0  0  0  0  0
  1  4  1  0  0  0  0
  2  4  1  0  0  0  0
  2  5  2  0  0  0  0
  2  6  1  0  0  0  0
  3  4  1  0  0  0  0
  3  7  1  0  0  0  0
  3  8  1  0  0  0  0
  4 19  1  0  0  0  0
  6  9  1  0  0  0  0
  6 12  1  0  0  0  0
  8 10  1  0  0  0  0
  8 11  2  0  0  0  0
  9 13  1  0  0  0  0
  9 14  1  0  0  0  0
  9 15  1  0  0  0  0
 10 16  1  0  0  0  0
 10 17  1  0  0  0  0
 10 18  1  0  0  0  0
 19 20  1  0  0  0  0
 19 28  1  0  0  0  0
 19 29  1  0  0  0  0
 20 21  4  0  0  0  0
 20 25  4  0  0  0  0
 21 22  4  0  0  0  0
 21 30  1  0  0  0  0
 22 23  4  0  0  0  0
 22 27  1  0  0  0  0
 23 24  4  0  0  0  0
 23 26  1  0  0  0  0
 24 25  4  0  0  0  0
 24 31  1  0  0  0  0
 25 32  1  0  0  0  0
 26 33  1  0  0  0  0
 27 34  1  0  0  0  0
M  END
> <BCLConfClusterSize>
1

> <ConfClashScore>
0 

> <ConfOneFourInteractionScore>
-0.953993 

> <ConfScore>
0.267992 

> <ConfScorePBest>
0.00398893 

> <ConfTolerance>
0.54175 

> <RosettaParamsInstructions>
M  ROOT 3
M  POLY_N_BB 3
M  POLY_CA_BB 4
M  POLY_C_BB 2
M  POLY_O_BB 5
M  POLY_IGNORE 9 10 11 12 13 14 15 16 17 18 
M  POLY_UPPER 6
M  POLY_LOWER 8
M  POLY_CHG 0
M  POLY_PROPERTIES ALPHA_AA D_AA PROTEIN AROMATIC POLYMER 
M  END

$$$$



 34 34  0  0  0  0  0  0  0  0999 V2000
   -1.5853    4.5680   -0.7150 H   0  0  0  1  0  0  0  0  0  0  0  0
    0.2771    3.9496    0.0368 C   0  0  0  1  0  0  0  0  0  0  0  0
   -1.9506    3.3787    0.9243 N   0  0  0  1  0  0  0  0  0  0  0  0
   -1.1822    3.6802   -0.2743 C   0  0  0  1  0  0  0  0  0  0  0  0
    0.6638    4.1083    1.1917 O   0  0  0  1  0  0  0  0  0  0  0  0
    1.0995    4.0011   -1.0230 N   0  0  0  1  0  0  0  0  0  0  0  0
   -1.9491    2.4613    1.2687 H   0  0  0  1  0  0  0  0  0  0  0  0
   -2.6579    4.3093    1.5714 C   0  0  0  1  0  0  0  0  0  0  0  0
    2.5507    4.0809   -0.9483 C   0  0  0  1  0  0  0  0  0  0  0  0
   -3.4484    3.8209    2.7696 C   0  0  0  1  0  0  0  0  0  0  0  0
   -2.6787    5.4895    1.2322 O   0  0  0  1  0  0  0  0  0  0  0  0
    0.6920    3.9835   -1.9140 H   0  0  0  1  0  0  0  0  0  0  0  0
    2.9104    3.3782   -0.2260 H   0  0  0  1  0  0  0  0  0  0  0  0
    2.8388    5.0696   -0.6578 H   0  0  0  1  0  0  0  0  0  0  0  0
    2.9699    3.8536   -1.9062 H   0  0  0  1  0  0  0  0  0  0  0  0
   -4.2432    3.1857    2.4383 H   0  0  0  1  0  0  0  0  0  0  0  0
   -3.8573    4.6599    3.2929 H   0  0  0  1  0  0  0  0  0  0  0  0
   -2.8027    3.2725    3.4232 H   0  0  0  1  0  0  0  0  0  0  0  0
   -1.3366    2.5534   -1.3001 C   0  0  0  1  0  0  0  0  0  0  0  0
   -2.7433    2.5299   -1.8652 C   0  0  0  1  0  0  0  0  0  0  0  0
   -3.0560    3.1580   -3.0607 C   0  0  0  1  0  0  0  0  0  0  0  0
   -4.3667    3.1989   -3.4975 C   0  0  0  1  0  0  0  0  0  0  0  0
   -5.3677    2.6072   -2.7429 C   0  0  0  1  0  0  0  0  0  0  0  0
   -5.0557    1.9810   -1.5509 C   0  0  0  1  0  0  0  0  0  0  0  0
   -3.7413    1.9399   -1.1127 C   0  0  0  1  0  0  0  0  0  0  0  0
   -6.6444    2.6561   -3.1950 O   0  0  0  1  0  0  0  0  0  0  0  0
   -4.7222    3.8054   -4.6561 O   0  0  0  1  0  0  0  0  0  0  0  0
   -1.1336    1.6164   -0.8251 H   0  0  0  1  0  0  0  0  0  0  0  0
   -0.6406    2.7076   -2.0980 H   0  0  0  1  0  0  0  0  0  0  0  0
   -2.3045    3.5985   -3.6289 H   0  0  0  1  0  0  0  0  0  0  0  0
   -5.8073    1.5406   -0.9827 H   0  0  0  1  0  0  0  0  0  0  0  0
   -3.5061    1.4652   -0.2177 H   0  0  0  1  0  0  0  0  0  0  0  0
   -6.7194    2.1381   -3.9997 H   0  0  0  1  0  0  0  0  0  0  0  0
   -5.0518    3.1484   -5.2737 H   0  0  0  1  0  0  0  0  0  0  0  0
  1  4  1  0  0  0  0
  2  4  1  0  0  0  0
  2  5  2  0  0  0  0
  2  6  1  0  0  0  0
  3  4  1  0  0  0  0
  3  7  1  0  0  0  0
  3  8  1  0  0  0  0
  4 19  1  0  0  0  0
  6  9  1  0  0  0  0
  6 12  1  0  0  0  0
  8 10  1  0  0  0  0
  8 11  2  0  0  0  0
  9 13  1  0  0  0  0
  9 14  1  0  0  0  0
  9 15  1  0  0  0  0
 10 16  1  0  0  0  0
 10 17  1  0  0  0  0
 10 18  1  0  0  0  0
 19 20  1  0  0  0  0
 19 28  1  0  0  0  0
 19 29  1  0  0  0  0
 20 21  4  0  0  0  0
 20 25  4  0  0  0  0
 21 22  4  0  0  0  0
 21 30  1  0  0  0  0
 22 23  4  0  0  0  0
 22 27  1  0  0  0  0
 23 24  4  0  0  0  0
 23 26  1  0  0  0  0
 24 25  4  0  0  0  0
 24 31  1  0  0  0  0
 25 32  1  0  0  0  0
 26 33  1  0  0  0  0
 27 34  1  0  0  0  0
M  END
> <BCLConfClusterSize>
1

> <ConfClashScore>
0 

> <ConfOneFourInteractionScore>
-0.981931 

> <ConfScore>
0.271552 

> <ConfScorePBest>
0.00396045 

> <ConfTolerance>
0.835083 

> <RosettaParamsInstructions>
M  ROOT 3
M  POLY_N_BB 3
M  POLY_CA_BB 4
M  POLY_C_BB 2
M  POLY_O_BB 5
M  POLY_IGNORE 9 10 11 12 13 14 15 16 17 18 
M  POLY_UPPER 6
M  POLY_LOWER 8
M  POLY_CHG 0
M  POLY_PROPERTIES ALPHA_AA D_AA PROTEIN AROMATIC POLYMER 
M  END

$$$$



 34 34  0  0  0  0  0  0  0  0999 V2000
   -2.0264    4.0114    0.2882 H   0  0  0  1  0  0  0  0  0  0  0  0
   -1.6466    5.2538   -1.3496 C   0  0  0  1  0  0  0  0  0  0  0  0
    0.0095    4.2496    0.1683 N   0  0  0  1  0  0  0  0  0  0  0  0
   -1.2934    4.0427   -0.4907 C   0  0  0  1  0  0  0  0  0  0  0  0
   -2.1741    6.2620   -0.9192 O   0  0  0  1  0  0  0  0  0  0  0  0
   -1.3408    5.1591   -2.6467 N   0  0  0  1  0  0  0  0  0  0  0  0
    0.0991    4.0285    1.1188 H   0  0  0  1  0  0  0  0  0  0  0  0
    1.0765    4.7300   -0.4882 C   0  0  0  1  0  0  0  0  0  0  0  0
   -1.6798    6.2020   -3.6034 C   0  0  0  1  0  0  0  0  0  0  0  0
    2.3056    4.9972    0.3587 C   0  0  0  1  0  0  0  0  0  0  0  0
    1.0764    4.9457   -1.6972 O   0  0  0  1  0  0  0  0  0  0  0  0
   -0.8719    4.3595   -2.9649 H   0  0  0  1  0  0  0  0  0  0  0  0
   -1.7324    7.1448   -3.1003 H   0  0  0  1  0  0  0  0  0  0  0  0
   -2.6275    5.9824   -4.0491 H   0  0  0  1  0  0  0  0  0  0  0  0
   -0.9288    6.2454   -4.3644 H   0  0  0  1  0  0  0  0  0  0  0  0
    2.4701    4.1721    1.0198 H   0  0  0  1  0  0  0  0  0  0  0  0
    2.1568    5.8886    0.9315 H   0  0  0  1  0  0  0  0  0  0  0  0
    3.1571    5.1194   -0.2775 H   0  0  0  1  0  0  0  0  0  0  0  0
   -1.3892    2.7036   -1.2100 C   0  0  0  1  0  0  0  0  0  0  0  0
   -2.7519    2.5349   -1.8529 C   0  0  0  1  0  0  0  0  0  0  0  0
   -2.9651    3.0121   -3.1368 C   0  0  0  1  0  0  0  0  0  0  0  0
   -4.2269    2.9478   -3.6971 C   0  0  0  1  0  0  0  0  0  0  0  0
   -5.2780    2.4014   -2.9774 C   0  0  0  1  0  0  0  0  0  0  0  0
   -5.0654    1.9258   -1.6973 C   0  0  0  1  0  0  0  0  0  0  0  0
   -3.7999    1.9901   -1.1351 C   0  0  0  1  0  0  0  0  0  0  0  0
   -6.4851    2.3668   -3.5925 O   0  0  0  1  0  0  0  0  0  0  0  0
   -4.4856    3.4058   -4.9461 O   0  0  0  1  0  0  0  0  0  0  0  0
   -1.2341    1.9144   -0.5042 H   0  0  0  1  0  0  0  0  0  0  0  0
   -0.6356    2.6579   -1.9682 H   0  0  0  1  0  0  0  0  0  0  0  0
   -2.1756    3.4184   -3.6784 H   0  0  0  1  0  0  0  0  0  0  0  0
   -5.8548    1.5195   -1.1557 H   0  0  0  1  0  0  0  0  0  0  0  0
   -3.6391    1.6285   -0.1733 H   0  0  0  1  0  0  0  0  0  0  0  0
   -7.1811    2.3461   -2.9317 H   0  0  0  1  0  0  0  0  0  0  0  0
   -5.1253    4.1200   -4.8995 H   0  0  0  1  0  0  0  0  0  0  0  0
  1  4  1  0  0  0  0
  2  4  1  0  0  0  0
  2  5  2  0  0  0  0
  2  6  1  0  0  0  0
  3  4  1  0  0  0  0
  3  7  1  0  0  0  0
  3  8  1  0  0  0  0
  4 19  1  0  0  0  0
  6  9  1  0  0  0  0
  6 12  1  0  0  0  0
  8 10  1  0  0  0  0
  8 11  2  0  0  0  0
  9 13  1  0  0  0  0
  9 14  1  0  0  0  0
  9 15  1  0  0  0  0
 10 16  1  0  0  0  0
 10 17  1  0  0  0  0
 10 18  1  0  0  0  0
 19 20  1  0  0  0  0
 19 28  1  0  0  0  0
 19 29  1  0  0  0  0
 20 21  4  0  0  0  0
 20 25  4  0  0  0  0
 21 22  4  0  0  0  0
 21 30  1  0  0  0  0
 22 23  4  0  0  0  0
 22 27  1  0  0  0  0
 23 24  4  0  0  0  0
 23 26  1  0  0  0  0
 24 25  4  0  0  0  0
 24 31  1  0  0  0  0
 25 32  1  0  0  0  0
 26 33  1  0  0  0  0
 27 34  1  0  0  0  0
M  END
> <BCLConfClusterSize>
1

> <ConfClashScore>
0 

> <ConfOneFourInteractionScore>
-0.927621 

> <ConfScore>
0.271817 

> <ConfScorePBest>
0.00393197 

> <ConfTolerance>
0.568068 

> <RosettaParamsInstructions>
M  ROOT 3
M  POLY_N_BB 3
M  POLY_CA_BB 4
M  POLY_C_BB 2
M  POLY_O_BB 5
M  POLY_IGNORE 9 10 11 12 13 14 15 16 17 18 
M  POLY_UPPER 6
M  POLY_LOWER 8
M  POLY_CHG 0
M  POLY_PROPERTIES ALPHA_AA D_AA PROTEIN AROMATIC POLYMER 
M  END

$$$$



 34 34  0  0  0  0  0  0  0  0999 V2000
   -2.0263    3.2572    0.7611 H   0  0  0  1  0  0  0  0  0  0  0  0
   -1.9808    5.0238   -0.3643 C   0  0  0  1  0  0  0  0  0  0  0  0
   -0.0604    3.8424    0.6067 N   0  0  0  1  0  0  0  0  0  0  0  0
   -1.3893    3.6750    0.0098 C   0  0  0  1  0  0  0  0  0  0  0  0
   -2.7927    5.1302   -1.2687 O   0  0  0  1  0  0  0  0  0  0  0  0
   -1.5521    6.0696    0.3600 N   0  0  0  1  0  0  0  0  0  0  0  0
    0.1815    3.2957    1.3832 H   0  0  0  1  0  0  0  0  0  0  0  0
    0.8395    4.7215    0.1247 C   0  0  0  1  0  0  0  0  0  0  0  0
   -1.9841    7.4465    0.1716 C   0  0  0  1  0  0  0  0  0  0  0  0
    2.2168    4.5853    0.7443 C   0  0  0  1  0  0  0  0  0  0  0  0
    0.6024    5.5604   -0.7288 O   0  0  0  1  0  0  0  0  0  0  0  0
   -0.8991    5.8926    1.0690 H   0  0  0  1  0  0  0  0  0  0  0  0
   -3.0242    7.5301    0.4084 H   0  0  0  1  0  0  0  0  0  0  0  0
   -1.8263    7.7334   -0.8470 H   0  0  0  1  0  0  0  0  0  0  0  0
   -1.4194    8.0884    0.8150 H   0  0  0  1  0  0  0  0  0  0  0  0
    2.3749    3.5703    1.0437 H   0  0  0  1  0  0  0  0  0  0  0  0
    2.2876    5.2244    1.5995 H   0  0  0  1  0  0  0  0  0  0  0  0
    2.9596    4.8651    0.0268 H   0  0  0  1  0  0  0  0  0  0  0  0
   -1.3978    2.6936   -1.1659 C   0  0  0  1  0  0  0  0  0  0  0  0
   -2.7477    2.5693   -1.8205 C   0  0  0  1  0  0  0  0  0  0  0  0
   -2.9740    3.1856   -3.0414 C   0  0  0  1  0  0  0  0  0  0  0  0
   -4.2349    3.1569   -3.6066 C   0  0  0  1  0  0  0  0  0  0  0  0
   -5.2720    2.5073   -2.9553 C   0  0  0  1  0  0  0  0  0  0  0  0
   -5.0461    1.8929   -1.7381 C   0  0  0  1  0  0  0  0  0  0  0  0
   -3.7816    1.9215   -1.1711 C   0  0  0  1  0  0  0  0  0  0  0  0
   -6.4790    2.5156   -3.5716 O   0  0  0  1  0  0  0  0  0  0  0  0
   -4.5062    3.7492   -4.7950 O   0  0  0  1  0  0  0  0  0  0  0  0
   -1.1033    1.7296   -0.8070 H   0  0  0  1  0  0  0  0  0  0  0  0
   -0.6945    3.0326   -1.8976 H   0  0  0  1  0  0  0  0  0  0  0  0
   -2.1950    3.6696   -3.5319 H   0  0  0  1  0  0  0  0  0  0  0  0
   -5.8251    1.4090   -1.2476 H   0  0  0  1  0  0  0  0  0  0  0  0
   -3.6108    1.4557   -0.2570 H   0  0  0  1  0  0  0  0  0  0  0  0
   -7.1693    2.3463   -2.9264 H   0  0  0  1  0  0  0  0  0  0  0  0
   -5.1835    3.2482   -5.2554 H   0  0  0  1  0  0  0  0  0  0  0  0
  1  4  1  0  0  0  0
  2  4  1  0  0  0  0
  2  5  2  0  0  0  0
  2  6  1  0  0  0  0
  3  4  1  0  0  0  0
  3  7  1  0  0  0  0
  3  8  1  0  0  0  0
  4 19  1  0  0  0  0
  6  9  1  0  0  0  0
  6 12  1  0  0  0  0
  8 10  1  0  0  0  0
  8 11  2  0  0  0  0
  9 13  1  0  0  0  0
  9 14  1  0  0  0  0
  9 15  1  0  0  0  0
 10 16  1  0  0  0  0
 10 17  1  0  0  0  0
 10 18  1  0  0  0  0
 19 20  1  0  0  0  0
 19 28  1  0  0  0  0
 19 29  1  0  0  0  0
 20 21  4  0  0  0  0
 20 25  4  0  0  0  0
 21 22  4  0  0  0  0
 21 30  1  0  0  0  0
 22 23  4  0  0  0  0
 22 27  1  0  0  0  0
 23 24  4  0  0  0  0
 23 26  1  0  0  0  0
 24 25  4  0  0  0  0
 24 31  1  0  0  0  0
 25 32  1  0  0  0  0
 26 33  1  0  0  0  0
 27 34  1  0  0  0  0
M  END
> <BCLConfClusterSize>
1

> <ConfClashScore>
0 

> <ConfOneFourInteractionScore>
-0.938696 

> <ConfScore>
0.274336 

> <ConfScorePBest>
0.00390349 

> <ConfTolerance>
0.49406 

> <RosettaParamsInstructions>
M  ROOT 3
M  POLY_N_BB 3
M  POLY_CA_BB 4
M  POLY_C_BB 2
M  POLY_O_BB 5
M  POLY_IGNORE 9 10 11 12 13 14 15 16 17 18 
M  POLY_UPPER 6
M  POLY_LOWER 8
M  POLY_CHG 0
M  POLY_PROPERTIES ALPHA_AA D_AA PROTEIN AROMATIC POLYMER 
M  END

$$$$



 34 34  0  0  0  0  0  0  0  0999 V2000
   -0.3251    2.7383   -3.0329 H   0  0  0  1  0  0  0  0  0  0  0  0
   -0.4947    0.6959   -2.5572 C   0  0  0  1  0  0  0  0  0  0  0  0
    1.0156    2.3488   -1.5220 N   0  0  0  1  0  0  0  0  0  0  0  0
   -0.2821    2.1429   -2.1449 C   0  0  0  1  0  0  0  0  0  0  0  0
   -0.5672   -0.2025   -1.7197 O   0  0  0  1  0  0  0  0  0  0  0  0
   -0.5956    0.4745   -3.8773 N   0  0  0  1  0  0  0  0  0  0  0  0
    1.0504    2.6620   -0.5940 H   0  0  0  1  0  0  0  0  0  0  0  0
    2.1621    2.1258   -2.1707 C   0  0  0  1  0  0  0  0  0  0  0  0
   -0.8491   -0.8492   -4.4264 C   0  0  0  1  0  0  0  0  0  0  0  0
    3.4286    2.3893   -1.3797 C   0  0  0  1  0  0  0  0  0  0  0  0
    2.2071    1.7319   -3.3354 O   0  0  0  1  0  0  0  0  0  0  0  0
   -0.4951    1.2305   -4.4928 H   0  0  0  1  0  0  0  0  0  0  0  0
   -0.5849   -0.8624   -5.4632 H   0  0  0  1  0  0  0  0  0  0  0  0
   -1.8870   -1.0864   -4.3200 H   0  0  0  1  0  0  0  0  0  0  0  0
   -0.2617   -1.5720   -3.8997 H   0  0  0  1  0  0  0  0  0  0  0  0
    4.2180    2.6602   -2.0492 H   0  0  0  1  0  0  0  0  0  0  0  0
    3.7039    1.5056   -0.8429 H   0  0  0  1  0  0  0  0  0  0  0  0
    3.2575    3.1882   -0.6887 H   0  0  0  1  0  0  0  0  0  0  0  0
   -1.3988    2.6298   -1.2167 C   0  0  0  1  0  0  0  0  0  0  0  0
   -2.7637    2.5566   -1.8474 C   0  0  0  1  0  0  0  0  0  0  0  0
   -2.9985    3.2132   -3.0454 C   0  0  0  1  0  0  0  0  0  0  0  0
   -4.2705    3.2309   -3.5858 C   0  0  0  1  0  0  0  0  0  0  0  0
   -5.3102    2.5876   -2.9327 C   0  0  0  1  0  0  0  0  0  0  0  0
   -5.0759    1.9330   -1.7382 C   0  0  0  1  0  0  0  0  0  0  0  0
   -3.8003    1.9151   -1.1960 C   0  0  0  1  0  0  0  0  0  0  0  0
   -6.5725    2.5729   -3.4256 O   0  0  0  1  0  0  0  0  0  0  0  0
   -4.5502    3.8635   -4.7512 O   0  0  0  1  0  0  0  0  0  0  0  0
   -1.2008    3.6470   -0.9503 H   0  0  0  1  0  0  0  0  0  0  0  0
   -1.3979    2.0231   -0.3354 H   0  0  0  1  0  0  0  0  0  0  0  0
   -2.2176    3.6925   -3.5375 H   0  0  0  1  0  0  0  0  0  0  0  0
   -5.8568    1.4537   -1.2461 H   0  0  0  1  0  0  0  0  0  0  0  0
   -3.6232    1.4190   -0.2993 H   0  0  0  1  0  0  0  0  0  0  0  0
   -7.1297    2.0296   -2.8636 H   0  0  0  1  0  0  0  0  0  0  0  0
   -4.8554    3.2233   -5.3982 H   0  0  0  1  0  0  0  0  0  0  0  0
  1  4  1  0  0  0  0
  2  4  1  0  0  0  0
  2  5  2  0  0  0  0
  2  6  1  0  0  0  0
  3  4  1  0  0  0  0
  3  7  1  0  0  0  0
  3  8  1  0  0  0  0
  4 19  1  0  0  0  0
  6  9  1  0  0  0  0
  6 12  1  0  0  0  0
  8 10  1  0  0  0  0
  8 11  2  0  0  0  0
  9 13  1  0  0  0  0
  9 14  1  0  0  0  0
  9 15  1  0  0  0  0
 10 16  1  0  0  0  0
 10 17  1  0  0  0  0
 10 18  1  0  0  0  0
 19 20  1  0  0  0  0
 19 28  1  0  0  0  0
 19 29  1  0  0  0  0
 20 21  4  0  0  0  0
 20 25  4  0  0  0  0
 21 22  4  0  0  0  0
 21 30  1  0  0  0  0
 22 23  4  0  0  0  0
 22 27  1  0  0  0  0
 23 24  4  0  0  0  0
 23 26  1  0  0  0  0
 24 25  4  0  0  0  0
 24 31  1  0  0  0  0
 25 32  1  0  0  0  0
 26 33  1  0  0  0  0
 27 34  1  0  0  0  0
M  END
> <BCLConfClusterSize>
1

> <ConfClashScore>
0 

> <ConfOneFourInteractionScore>
-0.971454 

> <ConfScore>
0.28204 

> <ConfScorePBest>
0.00387501 

> <ConfTolerance>
0.751777 

> <RosettaParamsInstructions>
M  ROOT 3
M  POLY_N_BB 3
M  POLY_CA_BB 4
M  POLY_C_BB 2
M  POLY_O_BB 5
M  POLY_IGNORE 9 10 11 12 13 14 15 16 17 18 
M  POLY_UPPER 6
M  POLY_LOWER 8
M  POLY_CHG 0
M  POLY_PROPERTIES ALPHA_AA D_AA PROTEIN AROMATIC POLYMER 
M  END

$$$$



 34 34  0  0  0  0  0  0  0  0999 V2000
   -0.9186    0.7292   -1.1482 H   0  0  0  1  0  0  0  0  0  0  0  0
    0.8495    1.8578   -0.8109 C   0  0  0  1  0  0  0  0  0  0  0  0
   -0.1935    1.4104   -2.9684 N   0  0  0  1  0  0  0  0  0  0  0  0
   -0.4621    1.6090   -1.5513 C   0  0  0  1  0  0  0  0  0  0  0  0
    0.9221    2.7022    0.0674 O   0  0  0  1  0  0  0  0  0  0  0  0
    1.9178    1.1212   -1.1547 N   0  0  0  1  0  0  0  0  0  0  0  0
   -0.3028    2.1778   -3.5681 H   0  0  0  1  0  0  0  0  0  0  0  0
    0.1942    0.2437   -3.5057 C   0  0  0  1  0  0  0  0  0  0  0  0
    3.2252    1.3163   -0.5459 C   0  0  0  1  0  0  0  0  0  0  0  0
    0.5106    0.2738   -4.9977 C   0  0  0  1  0  0  0  0  0  0  0  0
    0.2939   -0.7942   -2.8527 O   0  0  0  1  0  0  0  0  0  0  0  0
    1.8137    0.4279   -1.8394 H   0  0  0  1  0  0  0  0  0  0  0  0
    3.5341    2.3318   -0.6810 H   0  0  0  1  0  0  0  0  0  0  0  0
    3.9350    0.6632   -1.0089 H   0  0  0  1  0  0  0  0  0  0  0  0
    3.1676    1.0975    0.4999 H   0  0  0  1  0  0  0  0  0  0  0  0
   -0.0396   -0.4974   -5.4951 H   0  0  0  1  0  0  0  0  0  0  0  0
    1.5586    0.1144   -5.1431 H   0  0  0  1  0  0  0  0  0  0  0  0
    0.2346    1.2255   -5.4014 H   0  0  0  1  0  0  0  0  0  0  0  0
   -1.4065    2.7938   -1.3225 C   0  0  0  1  0  0  0  0  0  0  0  0
   -2.7921    2.5681   -1.8952 C   0  0  0  1  0  0  0  0  0  0  0  0
   -3.1360    3.0158   -3.1613 C   0  0  0  1  0  0  0  0  0  0  0  0
   -4.4349    2.8783   -3.6135 C   0  0  0  1  0  0  0  0  0  0  0  0
   -5.3922    2.2880   -2.8032 C   0  0  0  1  0  0  0  0  0  0  0  0
   -5.0491    1.8418   -1.5410 C   0  0  0  1  0  0  0  0  0  0  0  0
   -3.7465    1.9795   -1.0872 C   0  0  0  1  0  0  0  0  0  0  0  0
   -6.6576    2.1599   -3.2712 O   0  0  0  1  0  0  0  0  0  0  0  0
   -4.8636    3.2899   -4.8314 O   0  0  0  1  0  0  0  0  0  0  0  0
   -0.9836    3.6608   -1.7856 H   0  0  0  1  0  0  0  0  0  0  0  0
   -1.4962    2.9594   -0.2692 H   0  0  0  1  0  0  0  0  0  0  0  0
   -2.4169    3.4550   -3.7708 H   0  0  0  1  0  0  0  0  0  0  0  0
   -5.7682    1.4025   -0.9315 H   0  0  0  1  0  0  0  0  0  0  0  0
   -3.4875    1.6401   -0.1389 H   0  0  0  1  0  0  0  0  0  0  0  0
   -6.9789    3.0156   -3.5647 H   0  0  0  1  0  0  0  0  0  0  0  0
   -4.2931    3.9924   -5.1515 H   0  0  0  1  0  0  0  0  0  0  0  0
  1  4  1  0  0  0  0
  2  4  1  0  0  0  0
  2  5  2  0  0  0  0
  2  6  1  0  0  0  0
  3  4  1  0  0  0  0
  3  7  1  0  0  0  0
  3  8  1  0  0  0  0
  4 19  1  0  0  0  0
  6  9  1  0  0  0  0
  6 12  1  0  0  0  0
  8 10  1  0  0  0  0
  8 11  2  0  0  0  0
  9 13  1  0  0  0  0
  9 14  1  0  0  0  0
  9 15  1  0  0  0  0
 10 16  1  0  0  0  0
 10 17  1  0  0  0  0
 10 18  1  0  0  0  0
 19 20  1  0  0  0  0
 19 28  1  0  0  0  0
 19 29  1  0  0  0  0
 20 21  4  0  0  0  0
 20 25  4  0  0  0  0
 21 22  4  0  0  0  0
 21 30  1  0  0  0  0
 22 23  4  0  0  0  0
 22 27  1  0  0  0  0
 23 24  4  0  0  0  0
 23 26  1  0  0  0  0
 24 25  4  0  0  0  0
 24 31  1  0  0  0  0
 25 32  1  0  0  0  0
 26 33  1  0  0  0  0
 27 34  1  0  0  0  0
M  END
> <BCLConfClusterSize>
1

> <ConfClashScore>
0 

> <ConfOneFourInteractionScore>
-0.95996 

> <ConfScore>
0.284837 

> <ConfScorePBest>
0.00384653 

> <ConfTolerance>
0.558462 

> <RosettaParamsInstructions>
M  ROOT 3
M  POLY_N_BB 3
M  POLY_CA_BB 4
M  POLY_C_BB 2
M  POLY_O_BB 5
M  POLY_IGNORE 9 10 11 12 13 14 15 16 17 18 
M  POLY_UPPER 6
M  POLY_LOWER 8
M  POLY_CHG 0
M  POLY_PROPERTIES ALPHA_AA D_AA PROTEIN AROMATIC POLYMER 
M  END

$$$$



 34 34  0  0  0  0  0  0  0  0999 V2000
   -2.2031    2.9745    0.7205 H   0  0  0  1  0  0  0  0  0  0  0  0
   -0.1196    3.0232    0.9315 C   0  0  0  1  0  0  0  0  0  0  0  0
   -1.5140    1.0533    0.5185 N   0  0  0  1  0  0  0  0  0  0  0  0
   -1.3714    2.4820    0.2615 C   0  0  0  1  0  0  0  0  0  0  0  0
    0.5150    2.3474    1.7370 O   0  0  0  1  0  0  0  0  0  0  0  0
    0.2329    4.2647    0.5862 N   0  0  0  1  0  0  0  0  0  0  0  0
   -2.3886    0.7073    0.7937 H   0  0  0  1  0  0  0  0  0  0  0  0
   -0.4937    0.2001    0.3918 C   0  0  0  1  0  0  0  0  0  0  0  0
    1.5259    4.7964    0.9906 C   0  0  0  1  0  0  0  0  0  0  0  0
   -0.7858   -1.2375    0.7755 C   0  0  0  1  0  0  0  0  0  0  0  0
    0.6185    0.5406   -0.0089 O   0  0  0  1  0  0  0  0  0  0  0  0
   -0.3804    4.8186    0.0594 H   0  0  0  1  0  0  0  0  0  0  0  0
    2.2344    3.9977    1.0605 H   0  0  0  1  0  0  0  0  0  0  0  0
    1.4325    5.2744    1.9433 H   0  0  0  1  0  0  0  0  0  0  0  0
    1.8613    5.5080    0.2653 H   0  0  0  1  0  0  0  0  0  0  0  0
   -1.5772   -1.6168    0.1634 H   0  0  0  1  0  0  0  0  0  0  0  0
   -1.0789   -1.2795    1.8037 H   0  0  0  1  0  0  0  0  0  0  0  0
    0.0928   -1.8307    0.6301 H   0  0  0  1  0  0  0  0  0  0  0  0
   -1.4263    2.8301   -1.2289 C   0  0  0  1  0  0  0  0  0  0  0  0
   -2.7872    2.6145   -1.8351 C   0  0  0  1  0  0  0  0  0  0  0  0
   -3.0985    3.2146   -3.0453 C   0  0  0  1  0  0  0  0  0  0  0  0
   -4.3740    3.1004   -3.5651 C   0  0  0  1  0  0  0  0  0  0  0  0
   -5.3405    2.3816   -2.8791 C   0  0  0  1  0  0  0  0  0  0  0  0
   -5.0299    1.7834   -1.6725 C   0  0  0  1  0  0  0  0  0  0  0  0
   -3.7507    1.8978   -1.1509 C   0  0  0  1  0  0  0  0  0  0  0  0
   -6.5666    2.3081   -3.4517 O   0  0  0  1  0  0  0  0  0  0  0  0
   -4.6554    3.7004   -4.7473 O   0  0  0  1  0  0  0  0  0  0  0  0
   -0.7209    2.2157   -1.7483 H   0  0  0  1  0  0  0  0  0  0  0  0
   -1.1594    3.8594   -1.3483 H   0  0  0  1  0  0  0  0  0  0  0  0
   -2.3723    3.7505   -3.5621 H   0  0  0  1  0  0  0  0  0  0  0  0
   -5.7561    1.2475   -1.1557 H   0  0  0  1  0  0  0  0  0  0  0  0
   -3.5160    1.4442   -0.2449 H   0  0  0  1  0  0  0  0  0  0  0  0
   -7.1301    2.9971   -3.0920 H   0  0  0  1  0  0  0  0  0  0  0  0
   -4.6194    3.0505   -5.4530 H   0  0  0  1  0  0  0  0  0  0  0  0
  1  4  1  0  0  0  0
  2  4  1  0  0  0  0
  2  5  2  0  0  0  0
  2  6  1  0  0  0  0
  3  4  1  0  0  0  0
  3  7  1  0  0  0  0
  3  8  1  0  0  0  0
  4 19  1  0  0  0  0
  6  9  1  0  0  0  0
  6 12  1  0  0  0  0
  8 10  1  0  0  0  0
  8 11  2  0  0  0  0
  9 13  1  0  0  0  0
  9 14  1  0  0  0  0
  9 15  1  0  0  0  0
 10 16  1  0  0  0  0
 10 17  1  0  0  0  0
 10 18  1  0  0  0  0
 19 20  1  0  0  0  0
 19 28  1  0  0  0  0
 19 29  1  0  0  0  0
 20 21  4  0  0  0  0
 20 25  4  0  0  0  0
 21 22  4  0  0  0  0
 21 30  1  0  0  0  0
 22 23  4  0  0  0  0
 22 27  1  0  0  0  0
 23 24  4  0  0  0  0
 23 26  1  0  0  0  0
 24 25  4  0  0  0  0
 24 31  1  0  0  0  0
 25 32  1  0  0  0  0
 26 33  1  0  0  0  0
 27 34  1  0  0  0  0
M  END
> <BCLConfClusterSize>
1

> <ConfClashScore>
0 

> <ConfOneFourInteractionScore>
-0.94957 

> <ConfScore>
0.289301 

> <ConfScorePBest>
0.00381805 

> <ConfTolerance>
0.933458 

> <RosettaParamsInstructions>
M  ROOT 3
M  POLY_N_BB 3
M  POLY_CA_BB 4
M  POLY_C_BB 2
M  POLY_O_BB 5
M  POLY_IGNORE 9 10 11 12 13 14 15 16 17 18 
M  POLY_UPPER 6
M  POLY_LOWER 8
M  POLY_CHG 0
M  POLY_PROPERTIES ALPHA_AA D_AA PROTEIN AROMATIC POLYMER 
M  END

$$$$



 34 34  0  0  0  0  0  0  0  0999 V2000
   -1.9193    3.8526    0.5335 H   0  0  0  1  0  0  0  0  0  0  0  0
   -1.7719    5.3452   -0.9311 C   0  0  0  1  0  0  0  0  0  0  0  0
    0.0886    4.1685    0.1810 N   0  0  0  1  0  0  0  0  0  0  0  0
   -1.2946    4.0382   -0.3152 C   0  0  0  1  0  0  0  0  0  0  0  0
   -2.9054    5.7706   -0.7247 O   0  0  0  1  0  0  0  0  0  0  0  0
   -0.8838    5.9837   -1.6983 N   0  0  0  1  0  0  0  0  0  0  0  0
    0.8302    4.0409   -0.4468 H   0  0  0  1  0  0  0  0  0  0  0  0
    0.3677    4.4568    1.4672 C   0  0  0  1  0  0  0  0  0  0  0  0
   -1.1872    7.2489   -2.3504 C   0  0  0  1  0  0  0  0  0  0  0  0
    1.8641    4.5620    1.7626 C   0  0  0  1  0  0  0  0  0  0  0  0
   -0.4695    4.6242    2.3386 O   0  0  0  1  0  0  0  0  0  0  0  0
    0.0028    5.5863   -1.8264 H   0  0  0  1  0  0  0  0  0  0  0  0
   -1.9545    7.0991   -3.0810 H   0  0  0  1  0  0  0  0  0  0  0  0
   -0.3067    7.6229   -2.8298 H   0  0  0  1  0  0  0  0  0  0  0  0
   -1.5233    7.9547   -1.6199 H   0  0  0  1  0  0  0  0  0  0  0  0
    2.4153    4.4765    0.8495 H   0  0  0  1  0  0  0  0  0  0  0  0
    2.1523    3.7751    2.4279 H   0  0  0  1  0  0  0  0  0  0  0  0
    2.0720    5.5081    2.2171 H   0  0  0  1  0  0  0  0  0  0  0  0
   -1.4231    2.8210   -1.2263 C   0  0  0  1  0  0  0  0  0  0  0  0
   -2.7907    2.6130   -1.8424 C   0  0  0  1  0  0  0  0  0  0  0  0
   -3.0934    3.2170   -3.0529 C   0  0  0  1  0  0  0  0  0  0  0  0
   -4.3674    3.1110   -3.5784 C   0  0  0  1  0  0  0  0  0  0  0  0
   -5.3408    2.3963   -2.8979 C   0  0  0  1  0  0  0  0  0  0  0  0
   -5.0388    1.7942   -1.6911 C   0  0  0  1  0  0  0  0  0  0  0  0
   -3.7612    1.9004   -1.1638 C   0  0  0  1  0  0  0  0  0  0  0  0
   -6.6018    2.2601   -3.3753 O   0  0  0  1  0  0  0  0  0  0  0  0
   -4.7124    3.6880   -4.7551 O   0  0  0  1  0  0  0  0  0  0  0  0
   -1.1847    1.9512   -0.6506 H   0  0  0  1  0  0  0  0  0  0  0  0
   -0.7155    2.9279   -2.0217 H   0  0  0  1  0  0  0  0  0  0  0  0
   -2.3620    3.7498   -3.5655 H   0  0  0  1  0  0  0  0  0  0  0  0
   -5.7702    1.2614   -1.1785 H   0  0  0  1  0  0  0  0  0  0  0  0
   -3.5330    1.4438   -0.2576 H   0  0  0  1  0  0  0  0  0  0  0  0
   -7.1564    2.9582   -3.0192 H   0  0  0  1  0  0  0  0  0  0  0  0
   -4.4717    3.1064   -5.4800 H   0  0  0  1  0  0  0  0  0  0  0  0
  1  4  1  0  0  0  0
  2  4  1  0  0  0  0
  2  5  2  0  0  0  0
  2  6  1  0  0  0  0
  3  4  1  0  0  0  0
  3  7  1  0  0  0  0
  3  8  1  0  0  0  0
  4 19  1  0  0  0  0
  6  9  1  0  0  0  0
  6 12  1  0  0  0  0
  8 10  1  0  0  0  0
  8 11  2  0  0  0  0
  9 13  1  0  0  0  0
  9 14  1  0  0  0  0
  9 15  1  0  0  0  0
 10 16  1  0  0  0  0
 10 17  1  0  0  0  0
 10 18  1  0  0  0  0
 19 20  1  0  0  0  0
 19 28  1  0  0  0  0
 19 29  1  0  0  0  0
 20 21  4  0  0  0  0
 20 25  4  0  0  0  0
 21 22  4  0  0  0  0
 21 30  1  0  0  0  0
 22 23  4  0  0  0  0
 22 27  1  0  0  0  0
 23 24  4  0  0  0  0
 23 26  1  0  0  0  0
 24 25  4  0  0  0  0
 24 31  1  0  0  0  0
 25 32  1  0  0  0  0
 26 33  1  0  0  0  0
 27 34  1  0  0  0  0
M  END
> <BCLConfClusterSize>
1

> <ConfClashScore>
0 

> <ConfOneFourInteractionScore>
-0.960318 

> <ConfScore>
0.290628 

> <ConfScorePBest>
0.00378957 

> <ConfTolerance>
0.630741 

> <RosettaParamsInstructions>
M  ROOT 3
M  POLY_N_BB 3
M  POLY_CA_BB 4
M  POLY_C_BB 2
M  POLY_O_BB 5
M  POLY_IGNORE 9 10 11 12 13 14 15 16 17 18 
M  POLY_UPPER 6
M  POLY_LOWER 8
M  POLY_CHG 0
M  POLY_PROPERTIES ALPHA_AA D_AA PROTEIN AROMATIC POLYMER 
M  END

$$$$



 34 34  0  0  0  0  0  0  0  0999 V2000
   -1.6704    4.4859   -0.6157 H   0  0  0  1  0  0  0  0  0  0  0  0
    0.3920    4.1825   -0.3981 C   0  0  0  1  0  0  0  0  0  0  0  0
   -1.4379    3.2524    1.0066 N   0  0  0  1  0  0  0  0  0  0  0  0
   -1.0384    3.6703   -0.3325 C   0  0  0  1  0  0  0  0  0  0  0  0
    0.7570    4.7320   -1.4362 O   0  0  0  1  0  0  0  0  0  0  0  0
    1.1396    3.9901    0.6897 N   0  0  0  1  0  0  0  0  0  0  0  0
   -1.4972    2.2901    1.1822 H   0  0  0  1  0  0  0  0  0  0  0  0
   -1.7288    4.0814    2.0103 C   0  0  0  1  0  0  0  0  0  0  0  0
    2.5541    4.3270    0.6724 C   0  0  0  1  0  0  0  0  0  0  0  0
   -2.2369    3.4261    3.2798 C   0  0  0  1  0  0  0  0  0  0  0  0
   -1.6005    5.2925    1.9304 O   0  0  0  1  0  0  0  0  0  0  0  0
    0.7348    3.6210    1.5023 H   0  0  0  1  0  0  0  0  0  0  0  0
    2.7137    5.1655    0.0272 H   0  0  0  1  0  0  0  0  0  0  0  0
    3.1155    3.4895    0.3141 H   0  0  0  1  0  0  0  0  0  0  0  0
    2.8738    4.5738    1.6632 H   0  0  0  1  0  0  0  0  0  0  0  0
   -3.1365    3.9110    3.5967 H   0  0  0  1  0  0  0  0  0  0  0  0
   -1.4960    3.5129    4.0469 H   0  0  0  1  0  0  0  0  0  0  0  0
   -2.4368    2.3919    3.0916 H   0  0  0  1  0  0  0  0  0  0  0  0
   -1.3320    2.5406   -1.3061 C   0  0  0  1  0  0  0  0  0  0  0  0
   -2.7421    2.5090   -1.8575 C   0  0  0  1  0  0  0  0  0  0  0  0
   -3.0140    3.1180   -3.0727 C   0  0  0  1  0  0  0  0  0  0  0  0
   -4.3131    3.1766   -3.5407 C   0  0  0  1  0  0  0  0  0  0  0  0
   -5.3434    2.6219   -2.7976 C   0  0  0  1  0  0  0  0  0  0  0  0
   -5.0721    2.0147   -1.5860 C   0  0  0  1  0  0  0  0  0  0  0  0
   -3.7693    1.9558   -1.1164 C   0  0  0  1  0  0  0  0  0  0  0  0
   -6.6318    2.6501   -3.2172 O   0  0  0  1  0  0  0  0  0  0  0  0
   -4.5041    3.7916   -4.7332 O   0  0  0  1  0  0  0  0  0  0  0  0
   -1.1544    1.6145   -0.8005 H   0  0  0  1  0  0  0  0  0  0  0  0
   -0.6570    2.6322   -2.1312 H   0  0  0  1  0  0  0  0  0  0  0  0
   -2.2405    3.5307   -3.6322 H   0  0  0  1  0  0  0  0  0  0  0  0
   -5.8456    1.6020   -1.0265 H   0  0  0  1  0  0  0  0  0  0  0  0
   -3.5647    1.4953   -0.2066 H   0  0  0  1  0  0  0  0  0  0  0  0
   -6.7910    1.9143   -3.8129 H   0  0  0  1  0  0  0  0  0  0  0  0
   -5.2594    3.4003   -5.1782 H   0  0  0  1  0  0  0  0  0  0  0  0
  1  4  1  0  0  0  0
  2  4  1  0  0  0  0
  2  5  2  0  0  0  0
  2  6  1  0  0  0  0
  3  4  1  0  0  0  0
  3  7  1  0  0  0  0
  3  8  1  0  0  0  0
  4 19  1  0  0  0  0
  6  9  1  0  0  0  0
  6 12  1  0  0  0  0
  8 10  1  0  0  0  0
  8 11  2  0  0  0  0
  9 13  1  0  0  0  0
  9 14  1  0  0  0  0
  9 15  1  0  0  0  0
 10 16  1  0  0  0  0
 10 17  1  0  0  0  0
 10 18  1  0  0  0  0
 19 20  1  0  0  0  0
 19 28  1  0  0  0  0
 19 29  1  0  0  0  0
 20 21  4  0  0  0  0
 20 25  4  0  0  0  0
 21 22  4  0  0  0  0
 21 30  1  0  0  0  0
 22 23  4  0  0  0  0
 22 27  1  0  0  0  0
 23 24  4  0  0  0  0
 23 26  1  0  0  0  0
 24 25  4  0  0  0  0
 24 31  1  0  0  0  0
 25 32  1  0  0  0  0
 26 33  1  0  0  0  0
 27 34  1  0  0  0  0
M  END
> <BCLConfClusterSize>
1

> <ConfClashScore>
0 

> <ConfOneFourInteractionScore>
-0.948834 

> <ConfScore>
0.294462 

> <ConfScorePBest>
0.00376109 

> <ConfTolerance>
0.740813 

> <RosettaParamsInstructions>
M  ROOT 3
M  POLY_N_BB 3
M  POLY_CA_BB 4
M  POLY_C_BB 2
M  POLY_O_BB 5
M  POLY_IGNORE 9 10 11 12 13 14 15 16 17 18 
M  POLY_UPPER 6
M  POLY_LOWER 8
M  POLY_CHG 0
M  POLY_PROPERTIES ALPHA_AA D_AA PROTEIN AROMATIC POLYMER 
M  END

$$$$



 34 34  0  0  0  0  0  0  0  0999 V2000
   -0.3179    3.9122    0.0045 H   0  0  0  1  0  0  0  0  0  0  0  0
   -1.7312    2.8218    1.0825 C   0  0  0  1  0  0  0  0  0  0  0  0
   -2.1068    4.8712   -0.2603 N   0  0  0  1  0  0  0  0  0  0  0  0
   -1.3426    3.6355   -0.1311 C   0  0  0  1  0  0  0  0  0  0  0  0
   -1.7155    1.5920    1.0490 O   0  0  0  1  0  0  0  0  0  0  0  0
   -2.0930    3.4804    2.1941 N   0  0  0  1  0  0  0  0  0  0  0  0
   -1.6730    5.6565   -0.6545 H   0  0  0  1  0  0  0  0  0  0  0  0
   -3.3830    4.9700    0.1419 C   0  0  0  1  0  0  0  0  0  0  0  0
   -2.3842    2.7460    3.4163 C   0  0  0  1  0  0  0  0  0  0  0  0
   -4.0671    6.2900   -0.1558 C   0  0  0  1  0  0  0  0  0  0  0  0
   -3.9757    4.0601    0.7157 O   0  0  0  1  0  0  0  0  0  0  0  0
   -2.1612    4.4579    2.1829 H   0  0  0  1  0  0  0  0  0  0  0  0
   -1.7693    1.8716    3.4628 H   0  0  0  1  0  0  0  0  0  0  0  0
   -3.4146    2.4578    3.4220 H   0  0  0  1  0  0  0  0  0  0  0  0
   -2.1828    3.3688    4.2628 H   0  0  0  1  0  0  0  0  0  0  0  0
   -4.3291    6.3308   -1.1924 H   0  0  0  1  0  0  0  0  0  0  0  0
   -3.4026    7.0961    0.0758 H   0  0  0  1  0  0  0  0  0  0  0  0
   -4.9524    6.3748    0.4392 H   0  0  0  1  0  0  0  0  0  0  0  0
   -1.3906    2.7995   -1.4033 C   0  0  0  1  0  0  0  0  0  0  0  0
   -2.8001    2.5570   -1.9010 C   0  0  0  1  0  0  0  0  0  0  0  0
   -3.1625    2.9941   -3.1656 C   0  0  0  1  0  0  0  0  0  0  0  0
   -4.4699    2.8620   -3.5939 C   0  0  0  1  0  0  0  0  0  0  0  0
   -5.4176    2.2876   -2.7612 C   0  0  0  1  0  0  0  0  0  0  0  0
   -5.0561    1.8519   -1.5004 C   0  0  0  1  0  0  0  0  0  0  0  0
   -3.7449    1.9843   -1.0706 C   0  0  0  1  0  0  0  0  0  0  0  0
   -6.6774    2.1861   -3.2502 O   0  0  0  1  0  0  0  0  0  0  0  0
   -4.8373    3.2903   -4.8261 O   0  0  0  1  0  0  0  0  0  0  0  0
   -0.9314    1.8533   -1.2066 H   0  0  0  1  0  0  0  0  0  0  0  0
   -0.8428    3.3104   -2.1674 H   0  0  0  1  0  0  0  0  0  0  0  0
   -2.4506    3.4214   -3.7919 H   0  0  0  1  0  0  0  0  0  0  0  0
   -5.7679    1.4246   -0.8741 H   0  0  0  1  0  0  0  0  0  0  0  0
   -3.4721    1.6527   -0.1233 H   0  0  0  1  0  0  0  0  0  0  0  0
   -6.9002    2.9869   -3.7306 H   0  0  0  1  0  0  0  0  0  0  0  0
   -4.2759    4.0223   -5.0916 H   0  0  0  1  0  0  0  0  0  0  0  0
  1  4  1  0  0  0  0
  2  4  1  0  0  0  0
  2  5  2  0  0  0  0
  2  6  1  0  0  0  0
  3  4  1  0  0  0  0
  3  7  1  0  0  0  0
  3  8  1  0  0  0  0
  4 19  1  0  0  0  0
  6  9  1  0  0  0  0
  6 12  1  0  0  0  0
  8 10  1  0  0  0  0
  8 11  2  0  0  0  0
  9 13  1  0  0  0  0
  9 14  1  0  0  0  0
  9 15  1  0  0  0  0
 10 16  1  0  0  0  0
 10 17  1  0  0  0  0
 10 18  1  0  0  0  0
 19 20  1  0  0  0  0
 19 28  1  0  0  0  0
 19 29  1  0  0  0  0
 20 21  4  0  0  0  0
 20 25  4  0  0  0  0
 21 22  4  0  0  0  0
 21 30  1  0  0  0  0
 22 23  4  0  0  0  0
 22 27  1  0  0  0  0
 23 24  4  0  0  0  0
 23 26  1  0  0  0  0
 24 25  4  0  0  0  0
 24 31  1  0  0  0  0
 25 32  1  0  0  0  0
 26 33  1  0  0  0  0
 27 34  1  0  0  0  0
M  END
> <BCLConfClusterSize>
1

> <ConfClashScore>
0 

> <ConfOneFourInteractionScore>
-0.947651 

> <ConfScore>
0.29835 

> <ConfScorePBest>
0.00373261 

> <ConfTolerance>
0.487017 

> <RosettaParamsInstructions>
M  ROOT 3
M  POLY_N_BB 3
M  POLY_CA_BB 4
M  POLY_C_BB 2
M  POLY_O_BB 5
M  POLY_IGNORE 9 10 11 12 13 14 15 16 17 18 
M  POLY_UPPER 6
M  POLY_LOWER 8
M  POLY_CHG 0
M  POLY_PROPERTIES ALPHA_AA D_AA PROTEIN AROMATIC POLYMER 
M  END

$$$$



 34 34  0  0  0  0  0  0  0  0999 V2000
    0.5795    2.0890   -2.0739 H   0  0  0  1  0  0  0  0  0  0  0  0
   -0.0234    3.8511   -3.0860 C   0  0  0  1  0  0  0  0  0  0  0  0
   -0.7674    1.5709   -3.5586 N   0  0  0  1  0  0  0  0  0  0  0  0
   -0.3248    2.4721   -2.4985 C   0  0  0  1  0  0  0  0  0  0  0  0
    0.1385    3.9361   -4.3026 O   0  0  0  1  0  0  0  0  0  0  0  0
    0.0484    4.8872   -2.2531 N   0  0  0  1  0  0  0  0  0  0  0  0
   -1.6017    1.0713   -3.4370 H   0  0  0  1  0  0  0  0  0  0  0  0
   -0.0746    1.4037   -4.6887 C   0  0  0  1  0  0  0  0  0  0  0  0
    0.4746    6.2081   -2.6904 C   0  0  0  1  0  0  0  0  0  0  0  0
   -0.7652    0.6034   -5.7963 C   0  0  0  1  0  0  0  0  0  0  0  0
    1.0472    1.8293   -4.9097 O   0  0  0  1  0  0  0  0  0  0  0  0
   -0.1942    4.7557   -1.3127 H   0  0  0  1  0  0  0  0  0  0  0  0
   -0.1176    6.5158   -3.5267 H   0  0  0  1  0  0  0  0  0  0  0  0
    1.5050    6.1735   -2.9768 H   0  0  0  1  0  0  0  0  0  0  0  0
    0.3498    6.9063   -1.8892 H   0  0  0  1  0  0  0  0  0  0  0  0
   -1.8202    0.7785   -5.7587 H   0  0  0  1  0  0  0  0  0  0  0  0
   -0.5718   -0.4396   -5.6560 H   0  0  0  1  0  0  0  0  0  0  0  0
   -0.3864    0.9121   -6.7482 H   0  0  0  1  0  0  0  0  0  0  0  0
   -1.3620    2.5594   -1.3866 C   0  0  0  1  0  0  0  0  0  0  0  0
   -2.7778    2.5272   -1.8970 C   0  0  0  1  0  0  0  0  0  0  0  0
   -3.0915    3.1751   -3.0817 C   0  0  0  1  0  0  0  0  0  0  0  0
   -4.4039    3.2316   -3.5116 C   0  0  0  1  0  0  0  0  0  0  0  0
   -5.4056    2.6359   -2.7611 C   0  0  0  1  0  0  0  0  0  0  0  0
   -5.0926    1.9901   -1.5800 C   0  0  0  1  0  0  0  0  0  0  0  0
   -3.7765    1.9332   -1.1486 C   0  0  0  1  0  0  0  0  0  0  0  0
   -6.7163    2.6361   -3.1055 O   0  0  0  1  0  0  0  0  0  0  0  0
   -4.6861    3.8752   -4.6704 O   0  0  0  1  0  0  0  0  0  0  0  0
   -1.2131    3.4748   -0.8530 H   0  0  0  1  0  0  0  0  0  0  0  0
   -1.2203    1.7320   -0.7230 H   0  0  0  1  0  0  0  0  0  0  0  0
   -2.3395    3.6185   -3.6468 H   0  0  0  1  0  0  0  0  0  0  0  0
   -5.8446    1.5466   -1.0149 H   0  0  0  1  0  0  0  0  0  0  0  0
   -3.5406    1.4437   -0.2618 H   0  0  0  1  0  0  0  0  0  0  0  0
   -6.9167    1.8407   -3.6043 H   0  0  0  1  0  0  0  0  0  0  0  0
   -4.4695    3.3073   -5.4134 H   0  0  0  1  0  0  0  0  0  0  0  0
  1  4  1  0  0  0  0
  2  4  1  0  0  0  0
  2  5  2  0  0  0  0
  2  6  1  0  0  0  0
  3  4  1  0  0  0  0
  3  7  1  0  0  0  0
  3  8  1  0  0  0  0
  4 19  1  0  0  0  0
  6  9  1  0  0  0  0
  6 12  1  0  0  0  0
  8 10  1  0  0  0  0
  8 11  2  0  0  0  0
  9 13  1  0  0  0  0
  9 14  1  0  0  0  0
  9 15  1  0  0  0  0
 10 16  1  0  0  0  0
 10 17  1  0  0  0  0
 10 18  1  0  0  0  0
 19 20  1  0  0  0  0
 19 28  1  0  0  0  0
 19 29  1  0  0  0  0
 20 21  4  0  0  0  0
 20 25  4  0  0  0  0
 21 22  4  0  0  0  0
 21 30  1  0  0  0  0
 22 23  4  0  0  0  0
 22 27  1  0  0  0  0
 23 24  4  0  0  0  0
 23 26  1  0  0  0  0
 24 25  4  0  0  0  0
 24 31  1  0  0  0  0
 25 32  1  0  0  0  0
 26 33  1  0  0  0  0
 27 34  1  0  0  0  0
M  END
> <BCLConfClusterSize>
1

> <ConfClashScore>
0 

> <ConfOneFourInteractionScore>
-0.966736 

> <ConfScore>
0.299742 

> <ConfScorePBest>
0.00370413 

> <ConfTolerance>
0.666974 

> <RosettaParamsInstructions>
M  ROOT 3
M  POLY_N_BB 3
M  POLY_CA_BB 4
M  POLY_C_BB 2
M  POLY_O_BB 5
M  POLY_IGNORE 9 10 11 12 13 14 15 16 17 18 
M  POLY_UPPER 6
M  POLY_LOWER 8
M  POLY_CHG 0
M  POLY_PROPERTIES ALPHA_AA D_AA PROTEIN AROMATIC POLYMER 
M  END

$$$$



 34 34  0  0  0  0  0  0  0  0999 V2000
   -1.4683    4.7995   -1.6859 H   0  0  0  1  0  0  0  0  0  0  0  0
    0.3522    4.4433   -0.7241 C   0  0  0  1  0  0  0  0  0  0  0  0
   -1.9170    4.4660    0.2941 N   0  0  0  1  0  0  0  0  0  0  0  0
   -1.1224    4.1600   -0.9009 C   0  0  0  1  0  0  0  0  0  0  0  0
    1.1760    4.0318   -1.5399 O   0  0  0  1  0  0  0  0  0  0  0  0
    0.7312    5.1511    0.3404 N   0  0  0  1  0  0  0  0  0  0  0  0
   -2.7160    5.0256    0.2003 H   0  0  0  1  0  0  0  0  0  0  0  0
   -1.5889    4.0083    1.5057 C   0  0  0  1  0  0  0  0  0  0  0  0
    2.1174    5.4422    0.6775 C   0  0  0  1  0  0  0  0  0  0  0  0
   -2.4908    4.4483    2.6425 C   0  0  0  1  0  0  0  0  0  0  0  0
   -0.6225    3.2772    1.7053 O   0  0  0  1  0  0  0  0  0  0  0  0
    0.0323    5.4974    0.9337 H   0  0  0  1  0  0  0  0  0  0  0  0
    2.7645    4.9658   -0.0291 H   0  0  0  1  0  0  0  0  0  0  0  0
    2.3301    5.0749    1.6597 H   0  0  0  1  0  0  0  0  0  0  0  0
    2.2764    6.5000    0.6496 H   0  0  0  1  0  0  0  0  0  0  0  0
   -3.3937    3.8744    2.6247 H   0  0  0  1  0  0  0  0  0  0  0  0
   -2.7258    5.4861    2.5298 H   0  0  0  1  0  0  0  0  0  0  0  0
   -1.9893    4.2948    3.5751 H   0  0  0  1  0  0  0  0  0  0  0  0
   -1.4272    2.7341   -1.3411 C   0  0  0  1  0  0  0  0  0  0  0  0
   -2.8130    2.5750   -1.9068 C   0  0  0  1  0  0  0  0  0  0  0  0
   -3.1256    3.1619   -3.1231 C   0  0  0  1  0  0  0  0  0  0  0  0
   -4.4188    3.1018   -3.6072 C   0  0  0  1  0  0  0  0  0  0  0  0
   -5.4020    2.4501   -2.8792 C   0  0  0  1  0  0  0  0  0  0  0  0
   -5.0902    1.8650   -1.6665 C   0  0  0  1  0  0  0  0  0  0  0  0
   -3.7933    1.9252   -1.1808 C   0  0  0  1  0  0  0  0  0  0  0  0
   -6.6451    2.4267   -3.4183 O   0  0  0  1  0  0  0  0  0  0  0  0
   -4.7007    3.6877   -4.7963 O   0  0  0  1  0  0  0  0  0  0  0  0
   -1.3289    2.0878   -0.4940 H   0  0  0  1  0  0  0  0  0  0  0  0
   -0.7186    2.4503   -2.0909 H   0  0  0  1  0  0  0  0  0  0  0  0
   -2.3871    3.6474   -3.6714 H   0  0  0  1  0  0  0  0  0  0  0  0
   -5.8287    1.3795   -1.1183 H   0  0  0  1  0  0  0  0  0  0  0  0
   -3.5578    1.4814   -0.2701 H   0  0  0  1  0  0  0  0  0  0  0  0
   -7.2920    2.2734   -2.7257 H   0  0  0  1  0  0  0  0  0  0  0  0
   -3.9417    3.6115   -5.3791 H   0  0  0  1  0  0  0  0  0  0  0  0
  1  4  1  0  0  0  0
  2  4  1  0  0  0  0
  2  5  2  0  0  0  0
  2  6  1  0  0  0  0
  3  4  1  0  0  0  0
  3  7  1  0  0  0  0
  3  8  1  0  0  0  0
  4 19  1  0  0  0  0
  6  9  1  0  0  0  0
  6 12  1  0  0  0  0
  8 10  1  0  0  0  0
  8 11  2  0  0  0  0
  9 13  1  0  0  0  0
  9 14  1  0  0  0  0
  9 15  1  0  0  0  0
 10 16  1  0  0  0  0
 10 17  1  0  0  0  0
 10 18  1  0  0  0  0
 19 20  1  0  0  0  0
 19 28  1  0  0  0  0
 19 29  1  0  0  0  0
 20 21  4  0  0  0  0
 20 25  4  0  0  0  0
 21 22  4  0  0  0  0
 21 30  1  0  0  0  0
 22 23  4  0  0  0  0
 22 27  1  0  0  0  0
 23 24  4  0  0  0  0
 23 26  1  0  0  0  0
 24 25  4  0  0  0  0
 24 31  1  0  0  0  0
 25 32  1  0  0  0  0
 26 33  1  0  0  0  0
 27 34  1  0  0  0  0
M  END
> <BCLConfClusterSize>
1

> <ConfClashScore>
0 

> <ConfOneFourInteractionScore>
-0.957723 

> <ConfScore>
0.300376 

> <ConfScorePBest>
0.00367564 

> <ConfTolerance>
0.549664 

> <RosettaParamsInstructions>
M  ROOT 3
M  POLY_N_BB 3
M  POLY_CA_BB 4
M  POLY_C_BB 2
M  POLY_O_BB 5
M  POLY_IGNORE 9 10 11 12 13 14 15 16 17 18 
M  POLY_UPPER 6
M  POLY_LOWER 8
M  POLY_CHG 0
M  POLY_PROPERTIES ALPHA_AA D_AA PROTEIN AROMATIC POLYMER 
M  END

$$$$



 34 34  0  0  0  0  0  0  0  0999 V2000
   -1.9385    2.6113    0.6434 H   0  0  0  1  0  0  0  0  0  0  0  0
   -1.7616    4.6047    0.0076 C   0  0  0  1  0  0  0  0  0  0  0  0
    0.0599    3.0720    0.6034 N   0  0  0  1  0  0  0  0  0  0  0  0
   -1.2707    3.1597    0.0124 C   0  0  0  1  0  0  0  0  0  0  0  0
   -1.0928    5.5034   -0.4958 O   0  0  0  1  0  0  0  0  0  0  0  0
   -2.9500    4.8159    0.5805 N   0  0  0  1  0  0  0  0  0  0  0  0
    0.8278    3.0852   -0.0053 H   0  0  0  1  0  0  0  0  0  0  0  0
    0.3103    2.9753    1.9100 C   0  0  0  1  0  0  0  0  0  0  0  0
   -3.5761    6.1193    0.7441 C   0  0  0  1  0  0  0  0  0  0  0  0
    1.7753    2.9296    2.2984 C   0  0  0  1  0  0  0  0  0  0  0  0
   -0.5704    2.9255    2.7536 O   0  0  0  1  0  0  0  0  0  0  0  0
   -3.4367    4.0341    0.9157 H   0  0  0  1  0  0  0  0  0  0  0  0
   -2.8194    6.8712    0.8269 H   0  0  0  1  0  0  0  0  0  0  0  0
   -4.1757    6.1179    1.6304 H   0  0  0  1  0  0  0  0  0  0  0  0
   -4.1937    6.3272   -0.1045 H   0  0  0  1  0  0  0  0  0  0  0  0
    2.2320    2.0629    1.8681 H   0  0  0  1  0  0  0  0  0  0  0  0
    1.8603    2.8852    3.3641 H   0  0  0  1  0  0  0  0  0  0  0  0
    2.2674    3.8083    1.9371 H   0  0  0  1  0  0  0  0  0  0  0  0
   -1.3527    2.5164   -1.3748 C   0  0  0  1  0  0  0  0  0  0  0  0
   -2.7646    2.4695   -1.9252 C   0  0  0  1  0  0  0  0  0  0  0  0
   -3.0648    2.9383   -3.1947 C   0  0  0  1  0  0  0  0  0  0  0  0
   -4.3772    2.9691   -3.6274 C   0  0  0  1  0  0  0  0  0  0  0  0
   -5.3925    2.5264   -2.7939 C   0  0  0  1  0  0  0  0  0  0  0  0
   -5.0929    2.0590   -1.5282 C   0  0  0  1  0  0  0  0  0  0  0  0
   -3.7769    2.0280   -1.0941 C   0  0  0  1  0  0  0  0  0  0  0  0
   -6.6707    2.5616   -3.2430 O   0  0  0  1  0  0  0  0  0  0  0  0
   -4.6459    3.4367   -4.8707 O   0  0  0  1  0  0  0  0  0  0  0  0
   -0.9795    1.5158   -1.3087 H   0  0  0  1  0  0  0  0  0  0  0  0
   -0.7430    3.0813   -2.0487 H   0  0  0  1  0  0  0  0  0  0  0  0
   -2.3027    3.2668   -3.8215 H   0  0  0  1  0  0  0  0  0  0  0  0
   -5.8551    1.7305   -0.9014 H   0  0  0  1  0  0  0  0  0  0  0  0
   -3.5512    1.6726   -0.1431 H   0  0  0  1  0  0  0  0  0  0  0  0
   -6.8653    1.7514   -3.7198 H   0  0  0  1  0  0  0  0  0  0  0  0
   -4.7107    4.3942   -4.8459 H   0  0  0  1  0  0  0  0  0  0  0  0
  1  4  1  0  0  0  0
  2  4  1  0  0  0  0
  2  5  2  0  0  0  0
  2  6  1  0  0  0  0
  3  4  1  0  0  0  0
  3  7  1  0  0  0  0
  3  8  1  0  0  0  0
  4 19  1  0  0  0  0
  6  9  1  0  0  0  0
  6 12  1  0  0  0  0
  8 10  1  0  0  0  0
  8 11  2  0  0  0  0
  9 13  1  0  0  0  0
  9 14  1  0  0  0  0
  9 15  1  0  0  0  0
 10 16  1  0  0  0  0
 10 17  1  0  0  0  0
 10 18  1  0  0  0  0
 19 20  1  0  0  0  0
 19 28  1  0  0  0  0
 19 29  1  0  0  0  0
 20 21  4  0  0  0  0
 20 25  4  0  0  0  0
 21 22  4  0  0  0  0
 21 30  1  0  0  0  0
 22 23  4  0  0  0  0
 22 27  1  0  0  0  0
 23 24  4  0  0  0  0
 23 26  1  0  0  0  0
 24 25  4  0  0  0  0
 24 31  1  0  0  0  0
 25 32  1  0  0  0  0
 26 33  1  0  0  0  0
 27 34  1  0  0  0  0
M  END
> <BCLConfClusterSize>
1

> <ConfClashScore>
0 

> <ConfOneFourInteractionScore>
-0.978127 

> <ConfScore>
0.301115 

> <ConfScorePBest>
0.00364716 

> <ConfTolerance>
0.759986 

> <RosettaParamsInstructions>
M  ROOT 3
M  POLY_N_BB 3
M  POLY_CA_BB 4
M  POLY_C_BB 2
M  POLY_O_BB 5
M  POLY_IGNORE 9 10 11 12 13 14 15 16 17 18 
M  POLY_UPPER 6
M  POLY_LOWER 8
M  POLY_CHG 0
M  POLY_PROPERTIES ALPHA_AA D_AA PROTEIN AROMATIC POLYMER 
M  END

$$$$



 34 34  0  0  0  0  0  0  0  0999 V2000
   -0.0441    4.2215   -0.5292 H   0  0  0  1  0  0  0  0  0  0  0  0
   -2.0191    4.8622   -0.1261 C   0  0  0  1  0  0  0  0  0  0  0  0
   -0.8627    4.9079   -2.3033 N   0  0  0  1  0  0  0  0  0  0  0  0
   -0.9889    4.2053   -1.0313 C   0  0  0  1  0  0  0  0  0  0  0  0
   -2.0785    4.5960    1.0636 O   0  0  0  1  0  0  0  0  0  0  0  0
   -2.8423    5.7394   -0.7203 N   0  0  0  1  0  0  0  0  0  0  0  0
   -0.8411    4.3664   -3.1198 H   0  0  0  1  0  0  0  0  0  0  0  0
   -0.7745    6.2319   -2.4389 C   0  0  0  1  0  0  0  0  0  0  0  0
   -3.7009    6.6827   -0.0197 C   0  0  0  1  0  0  0  0  0  0  0  0
   -0.6211    6.7384   -3.8552 C   0  0  0  1  0  0  0  0  0  0  0  0
   -0.8137    7.0071   -1.4843 O   0  0  0  1  0  0  0  0  0  0  0  0
   -2.8673    5.7453   -1.7000 H   0  0  0  1  0  0  0  0  0  0  0  0
   -4.6952    6.2907    0.0317 H   0  0  0  1  0  0  0  0  0  0  0  0
   -3.7118    7.6140   -0.5466 H   0  0  0  1  0  0  0  0  0  0  0  0
   -3.3270    6.8372    0.9709 H   0  0  0  1  0  0  0  0  0  0  0  0
   -1.5134    6.5302   -4.4076 H   0  0  0  1  0  0  0  0  0  0  0  0
    0.2088    6.2490   -4.3207 H   0  0  0  1  0  0  0  0  0  0  0  0
   -0.4499    7.7945   -3.8394 H   0  0  0  1  0  0  0  0  0  0  0  0
   -1.3649    2.7423   -1.2885 C   0  0  0  1  0  0  0  0  0  0  0  0
   -2.7575    2.5788   -1.8361 C   0  0  0  1  0  0  0  0  0  0  0  0
   -3.0880    3.1655   -3.0478 C   0  0  0  1  0  0  0  0  0  0  0  0
   -4.3872    3.1013   -3.5149 C   0  0  0  1  0  0  0  0  0  0  0  0
   -5.3585    2.4456   -2.7745 C   0  0  0  1  0  0  0  0  0  0  0  0
   -5.0288    1.8608   -1.5665 C   0  0  0  1  0  0  0  0  0  0  0  0
   -3.7259    1.9251   -1.0978 C   0  0  0  1  0  0  0  0  0  0  0  0
   -6.6440    2.3519   -3.1934 O   0  0  0  1  0  0  0  0  0  0  0  0
   -4.6868    3.6871   -4.6998 O   0  0  0  1  0  0  0  0  0  0  0  0
   -1.2969    2.2058   -0.3652 H   0  0  0  1  0  0  0  0  0  0  0  0
   -0.6717    2.3311   -1.9923 H   0  0  0  1  0  0  0  0  0  0  0  0
   -2.3585    3.6540   -3.6053 H   0  0  0  1  0  0  0  0  0  0  0  0
   -5.7584    1.3723   -1.0090 H   0  0  0  1  0  0  0  0  0  0  0  0
   -3.4770    1.4815   -0.1906 H   0  0  0  1  0  0  0  0  0  0  0  0
   -6.7788    2.9319   -3.9464 H   0  0  0  1  0  0  0  0  0  0  0  0
   -5.0089    3.0227   -5.3133 H   0  0  0  1  0  0  0  0  0  0  0  0
  1  4  1  0  0  0  0
  2  4  1  0  0  0  0
  2  5  2  0  0  0  0
  2  6  1  0  0  0  0
  3  4  1  0  0  0  0
  3  7  1  0  0  0  0
  3  8  1  0  0  0  0
  4 19  1  0  0  0  0
  6  9  1  0  0  0  0
  6 12  1  0  0  0  0
  8 10  1  0  0  0  0
  8 11  2  0  0  0  0
  9 13  1  0  0  0  0
  9 14  1  0  0  0  0
  9 15  1  0  0  0  0
 10 16  1  0  0  0  0
 10 17  1  0  0  0  0
 10 18  1  0  0  0  0
 19 20  1  0  0  0  0
 19 28  1  0  0  0  0
 19 29  1  0  0  0  0
 20 21  4  0  0  0  0
 20 25  4  0  0  0  0
 21 22  4  0  0  0  0
 21 30  1  0  0  0  0
 22 23  4  0  0  0  0
 22 27  1  0  0  0  0
 23 24  4  0  0  0  0
 23 26  1  0  0  0  0
 24 25  4  0  0  0  0
 24 31  1  0  0  0  0
 25 32  1  0  0  0  0
 26 33  1  0  0  0  0
 27 34  1  0  0  0  0
M  END
> <BCLConfClusterSize>
1

> <ConfClashScore>
0 

> <ConfOneFourInteractionScore>
-0.957074 

> <ConfScore>
0.302296 

> <ConfScorePBest>
0.00361868 

> <ConfTolerance>
0.543083 

> <RosettaParamsInstructions>
M  ROOT 3
M  POLY_N_BB 3
M  POLY_CA_BB 4
M  POLY_C_BB 2
M  POLY_O_BB 5
M  POLY_IGNORE 9 10 11 12 13 14 15 16 17 18 
M  POLY_UPPER 6
M  POLY_LOWER 8
M  POLY_CHG 0
M  POLY_PROPERTIES ALPHA_AA D_AA PROTEIN AROMATIC POLYMER 
M  END

$$$$



 34 34  0  0  0  0  0  0  0  0999 V2000
    0.3104    1.2938   -1.0951 H   0  0  0  1  0  0  0  0  0  0  0  0
    0.0080    1.2801   -3.1660 C   0  0  0  1  0  0  0  0  0  0  0  0
   -1.3340    0.1027   -1.4289 N   0  0  0  1  0  0  0  0  0  0  0  0
   -0.5354    1.2910   -1.7504 C   0  0  0  1  0  0  0  0  0  0  0  0
   -0.1849    0.3263   -3.9153 O   0  0  0  1  0  0  0  0  0  0  0  0
    0.7017    2.3685   -3.5324 N   0  0  0  1  0  0  0  0  0  0  0  0
   -1.3911   -0.6020   -2.1074 H   0  0  0  1  0  0  0  0  0  0  0  0
   -1.9881   -0.0905   -0.2825 C   0  0  0  1  0  0  0  0  0  0  0  0
    1.4116    2.3891   -4.8027 C   0  0  0  1  0  0  0  0  0  0  0  0
   -2.6946   -1.4409   -0.1089 C   0  0  0  1  0  0  0  0  0  0  0  0
   -1.9784    0.7198    0.6433 O   0  0  0  1  0  0  0  0  0  0  0  0
    0.7305    3.1512   -2.9435 H   0  0  0  1  0  0  0  0  0  0  0  0
    1.7061    1.3940   -5.0634 H   0  0  0  1  0  0  0  0  0  0  0  0
    2.2810    3.0067   -4.7151 H   0  0  0  1  0  0  0  0  0  0  0  0
    0.7697    2.7817   -5.5634 H   0  0  0  1  0  0  0  0  0  0  0  0
   -2.2122   -2.1772   -0.7172 H   0  0  0  1  0  0  0  0  0  0  0  0
   -3.7184   -1.3483   -0.4061 H   0  0  0  1  0  0  0  0  0  0  0  0
   -2.6462   -1.7391    0.9175 H   0  0  0  1  0  0  0  0  0  0  0  0
   -1.3474    2.5344   -1.4120 C   0  0  0  1  0  0  0  0  0  0  0  0
   -2.7644    2.4684   -1.9155 C   0  0  0  1  0  0  0  0  0  0  0  0
   -3.0601    2.9367   -3.1863 C   0  0  0  1  0  0  0  0  0  0  0  0
   -4.3709    2.9674   -3.6236 C   0  0  0  1  0  0  0  0  0  0  0  0
   -5.3892    2.5250   -2.7937 C   0  0  0  1  0  0  0  0  0  0  0  0
   -5.0942    2.0581   -1.5267 C   0  0  0  1  0  0  0  0  0  0  0  0
   -3.7797    2.0272   -1.0879 C   0  0  0  1  0  0  0  0  0  0  0  0
   -6.6883    2.5310   -3.1796 O   0  0  0  1  0  0  0  0  0  0  0  0
   -4.7099    3.4211   -4.8548 O   0  0  0  1  0  0  0  0  0  0  0  0
   -0.8687    3.3840   -1.8523 H   0  0  0  1  0  0  0  0  0  0  0  0
   -1.3688    2.6480   -0.3482 H   0  0  0  1  0  0  0  0  0  0  0  0
   -2.2958    3.2649   -3.8105 H   0  0  0  1  0  0  0  0  0  0  0  0
   -5.8586    1.7299   -0.9025 H   0  0  0  1  0  0  0  0  0  0  0  0
   -3.5574    1.6721   -0.1360 H   0  0  0  1  0  0  0  0  0  0  0  0
   -6.8454    1.8046   -3.7873 H   0  0  0  1  0  0  0  0  0  0  0  0
   -4.6620    4.3798   -4.8675 H   0  0  0  1  0  0  0  0  0  0  0  0
  1  4  1  0  0  0  0
  2  4  1  0  0  0  0
  2  5  2  0  0  0  0
  2  6  1  0  0  0  0
  3  4  1  0  0  0  0
  3  7  1  0  0  0  0
  3  8  1  0  0  0  0
  4 19  1  0  0  0  0
  6  9  1  0  0  0  0
  6 12  1  0  0  0  0
  8 10  1  0  0  0  0
  8 11  2  0  0  0  0
  9 13  1  0  0  0  0
  9 14  1  0  0  0  0
  9 15  1  0  0  0  0
 10 16  1  0  0  0  0
 10 17  1  0  0  0  0
 10 18  1  0  0  0  0
 19 20  1  0  0  0  0
 19 28  1  0  0  0  0
 19 29  1  0  0  0  0
 20 21  4  0  0  0  0
 20 25  4  0  0  0  0
 21 22  4  0  0  0  0
 21 30  1  0  0  0  0
 22 23  4  0  0  0  0
 22 27  1  0  0  0  0
 23 24  4  0  0  0  0
 23 26  1  0  0  0  0
 24 25  4  0  0  0  0
 24 31  1  0  0  0  0
 25 32  1  0  0  0  0
 26 33  1  0  0  0  0
 27 34  1  0  0  0  0
M  END
> <BCLConfClusterSize>
1

> <ConfClashScore>
0 

> <ConfOneFourInteractionScore>
-0.980011 

> <ConfScore>
0.304298 

> <ConfScorePBest>
0.0035902 

> <ConfTolerance>
0.801535 

> <RosettaParamsInstructions>
M  ROOT 3
M  POLY_N_BB 3
M  POLY_CA_BB 4
M  POLY_C_BB 2
M  POLY_O_BB 5
M  POLY_IGNORE 9 10 11 12 13 14 15 16 17 18 
M  POLY_UPPER 6
M  POLY_LOWER 8
M  POLY_CHG 0
M  POLY_PROPERTIES ALPHA_AA D_AA PROTEIN AROMATIC POLYMER 
M  END

$$$$



 34 34  0  0  0  0  0  0  0  0999 V2000
   -0.6888    4.3545   -2.0971 H   0  0  0  1  0  0  0  0  0  0  0  0
    0.6670    3.7742   -0.5943 C   0  0  0  1  0  0  0  0  0  0  0  0
   -1.6183    4.7444   -0.3074 N   0  0  0  1  0  0  0  0  0  0  0  0
   -0.7577    3.9057   -1.1283 C   0  0  0  1  0  0  0  0  0  0  0  0
    1.0541    2.7375   -0.0567 O   0  0  0  1  0  0  0  0  0  0  0  0
    1.4502    4.8521   -0.7516 N   0  0  0  1  0  0  0  0  0  0  0  0
   -2.3942    4.3384    0.1325 H   0  0  0  1  0  0  0  0  0  0  0  0
   -1.3873    6.0487   -0.1326 C   0  0  0  1  0  0  0  0  0  0  0  0
    2.7805    4.9383   -0.1679 C   0  0  0  1  0  0  0  0  0  0  0  0
   -2.2973    6.7522    0.8553 C   0  0  0  1  0  0  0  0  0  0  0  0
   -0.4978    6.6569   -0.7264 O   0  0  0  1  0  0  0  0  0  0  0  0
    1.1148    5.6077   -1.2779 H   0  0  0  1  0  0  0  0  0  0  0  0
    2.7706    5.6372    0.6422 H   0  0  0  1  0  0  0  0  0  0  0  0
    3.4759    5.2655   -0.9125 H   0  0  0  1  0  0  0  0  0  0  0  0
    3.0733    3.9755    0.1956 H   0  0  0  1  0  0  0  0  0  0  0  0
   -2.9939    7.3667    0.3243 H   0  0  0  1  0  0  0  0  0  0  0  0
   -1.7097    7.3626    1.5089 H   0  0  0  1  0  0  0  0  0  0  0  0
   -2.8303    6.0239    1.4300 H   0  0  0  1  0  0  0  0  0  0  0  0
   -1.3359    2.5138   -1.3247 C   0  0  0  1  0  0  0  0  0  0  0  0
   -2.7353    2.4686   -1.8777 C   0  0  0  1  0  0  0  0  0  0  0  0
   -2.9841    2.9655   -3.1476 C   0  0  0  1  0  0  0  0  0  0  0  0
   -4.2789    3.0148   -3.6287 C   0  0  0  1  0  0  0  0  0  0  0  0
   -5.3279    2.5624   -2.8437 C   0  0  0  1  0  0  0  0  0  0  0  0
   -5.0796    2.0670   -1.5776 C   0  0  0  1  0  0  0  0  0  0  0  0
   -3.7812    2.0175   -1.0948 C   0  0  0  1  0  0  0  0  0  0  0  0
   -6.5879    2.6163   -3.3398 O   0  0  0  1  0  0  0  0  0  0  0  0
   -4.5725    3.4966   -4.8610 O   0  0  0  1  0  0  0  0  0  0  0  0
   -1.3403    2.0211   -0.3749 H   0  0  0  1  0  0  0  0  0  0  0  0
   -0.6971    1.9832   -1.9994 H   0  0  0  1  0  0  0  0  0  0  0  0
   -2.1967    3.3012   -3.7382 H   0  0  0  1  0  0  0  0  0  0  0  0
   -5.8671    1.7313   -0.9869 H   0  0  0  1  0  0  0  0  0  0  0  0
   -3.5940    1.6409   -0.1436 H   0  0  0  1  0  0  0  0  0  0  0  0
   -6.8154    1.7689   -3.7293 H   0  0  0  1  0  0  0  0  0  0  0  0
   -5.2666    4.1560   -4.7902 H   0  0  0  1  0  0  0  0  0  0  0  0
  1  4  1  0  0  0  0
  2  4  1  0  0  0  0
  2  5  2  0  0  0  0
  2  6  1  0  0  0  0
  3  4  1  0  0  0  0
  3  7  1  0  0  0  0
  3  8  1  0  0  0  0
  4 19  1  0  0  0  0
  6  9  1  0  0  0  0
  6 12  1  0  0  0  0
  8 10  1  0  0  0  0
  8 11  2  0  0  0  0
  9 13  1  0  0  0  0
  9 14  1  0  0  0  0
  9 15  1  0  0  0  0
 10 16  1  0  0  0  0
 10 17  1  0  0  0  0
 10 18  1  0  0  0  0
 19 20  1  0  0  0  0
 19 28  1  0  0  0  0
 19 29  1  0  0  0  0
 20 21  4  0  0  0  0
 20 25  4  0  0  0  0
 21 22  4  0  0  0  0
 21 30  1  0  0  0  0
 22 23  4  0  0  0  0
 22 27  1  0  0  0  0
 23 24  4  0  0  0  0
 23 26  1  0  0  0  0
 24 25  4  0  0  0  0
 24 31  1  0  0  0  0
 25 32  1  0  0  0  0
 26 33  1  0  0  0  0
 27 34  1  0  0  0  0
M  END
> <BCLConfClusterSize>
1

> <ConfClashScore>
0 

> <ConfOneFourInteractionScore>
-0.979134 

> <ConfScore>
0.305175 

> <ConfScorePBest>
0.00356172 

> <ConfTolerance>
0.699592 

> <RosettaParamsInstructions>
M  ROOT 3
M  POLY_N_BB 3
M  POLY_CA_BB 4
M  POLY_C_BB 2
M  POLY_O_BB 5
M  POLY_IGNORE 9 10 11 12 13 14 15 16 17 18 
M  POLY_UPPER 6
M  POLY_LOWER 8
M  POLY_CHG 0
M  POLY_PROPERTIES ALPHA_AA D_AA PROTEIN AROMATIC POLYMER 
M  END

$$$$



 34 34  0  0  0  0  0  0  0  0999 V2000
   -0.5246    1.4880   -2.9752 H   0  0  0  1  0  0  0  0  0  0  0  0
   -1.1338    0.0446   -1.5729 C   0  0  0  1  0  0  0  0  0  0  0  0
    0.8444    1.5145   -1.4230 N   0  0  0  1  0  0  0  0  0  0  0  0
   -0.5329    1.3905   -1.9097 C   0  0  0  1  0  0  0  0  0  0  0  0
   -2.0688   -0.4112   -2.2299 O   0  0  0  1  0  0  0  0  0  0  0  0
   -0.6195   -0.6327   -0.5425 N   0  0  0  1  0  0  0  0  0  0  0  0
    1.1772    0.8605   -0.7735 H   0  0  0  1  0  0  0  0  0  0  0  0
    1.6655    2.4929   -1.8360 C   0  0  0  1  0  0  0  0  0  0  0  0
   -1.0443   -1.9846   -0.2111 C   0  0  0  1  0  0  0  0  0  0  0  0
    3.0953    2.4069   -1.3384 C   0  0  0  1  0  0  0  0  0  0  0  0
    1.3001    3.4073   -2.5700 O   0  0  0  1  0  0  0  0  0  0  0  0
    0.0677   -0.2043    0.0094 H   0  0  0  1  0  0  0  0  0  0  0  0
   -1.8717   -1.9432    0.4661 H   0  0  0  1  0  0  0  0  0  0  0  0
   -0.2336   -2.5104    0.2485 H   0  0  0  1  0  0  0  0  0  0  0  0
   -1.3400   -2.4943   -1.1043 H   0  0  0  1  0  0  0  0  0  0  0  0
    3.1679    2.8729   -0.3780 H   0  0  0  1  0  0  0  0  0  0  0  0
    3.7432    2.9074   -2.0274 H   0  0  0  1  0  0  0  0  0  0  0  0
    3.3837    1.3796   -1.2588 H   0  0  0  1  0  0  0  0  0  0  0  0
   -1.3505    2.5558   -1.3448 C   0  0  0  1  0  0  0  0  0  0  0  0
   -2.7640    2.5328   -1.8877 C   0  0  0  1  0  0  0  0  0  0  0  0
   -3.0966    3.1686   -3.0737 C   0  0  0  1  0  0  0  0  0  0  0  0
   -4.4139    3.2094   -3.4900 C   0  0  0  1  0  0  0  0  0  0  0  0
   -5.4018    2.6099   -2.7243 C   0  0  0  1  0  0  0  0  0  0  0  0
   -5.0700    1.9761   -1.5418 C   0  0  0  1  0  0  0  0  0  0  0  0
   -3.7489    1.9351   -1.1241 C   0  0  0  1  0  0  0  0  0  0  0  0
   -6.6854    2.6589   -3.1564 O   0  0  0  1  0  0  0  0  0  0  0  0
   -4.7146    3.8414   -4.6505 O   0  0  0  1  0  0  0  0  0  0  0  0
   -0.8837    3.4782   -1.6207 H   0  0  0  1  0  0  0  0  0  0  0  0
   -1.3830    2.4769   -0.2782 H   0  0  0  1  0  0  0  0  0  0  0  0
   -2.3549    3.6149   -3.6503 H   0  0  0  1  0  0  0  0  0  0  0  0
   -5.8117    1.5298   -0.9653 H   0  0  0  1  0  0  0  0  0  0  0  0
   -3.4988    1.4546   -0.2363 H   0  0  0  1  0  0  0  0  0  0  0  0
   -6.8088    2.0248   -3.8665 H   0  0  0  1  0  0  0  0  0  0  0  0
   -4.7032    3.2087   -5.3723 H   0  0  0  1  0  0  0  0  0  0  0  0
  1  4  1  0  0  0  0
  2  4  1  0  0  0  0
  2  5  2  0  0  0  0
  2  6  1  0  0  0  0
  3  4  1  0  0  0  0
  3  7  1  0  0  0  0
  3  8  1  0  0  0  0
  4 19  1  0  0  0  0
  6  9  1  0  0  0  0
  6 12  1  0  0  0  0
  8 10  1  0  0  0  0
  8 11  2  0  0  0  0
  9 13  1  0  0  0  0
  9 14  1  0  0  0  0
  9 15  1  0  0  0  0
 10 16  1  0  0  0  0
 10 17  1  0  0  0  0
 10 18  1  0  0  0  0
 19 20  1  0  0  0  0
 19 28  1  0  0  0  0
 19 29  1  0  0  0  0
 20 21  4  0  0  0  0
 20 25  4  0  0  0  0
 21 22  4  0  0  0  0
 21 30  1  0  0  0  0
 22 23  4  0  0  0  0
 22 27  1  0  0  0  0
 23 24  4  0  0  0  0
 23 26  1  0  0  0  0
 24 25  4  0  0  0  0
 24 31  1  0  0  0  0
 25 32  1  0  0  0  0
 26 33  1  0  0  0  0
 27 34  1  0  0  0  0
M  END
> <BCLConfClusterSize>
1

> <ConfClashScore>
0 

> <ConfOneFourInteractionScore>
-0.962347 

> <ConfScore>
0.313625 

> <ConfScorePBest>
0.00353324 

> <ConfTolerance>
0.647526 

> <RosettaParamsInstructions>
M  ROOT 3
M  POLY_N_BB 3
M  POLY_CA_BB 4
M  POLY_C_BB 2
M  POLY_O_BB 5
M  POLY_IGNORE 9 10 11 12 13 14 15 16 17 18 
M  POLY_UPPER 6
M  POLY_LOWER 8
M  POLY_CHG 0
M  POLY_PROPERTIES ALPHA_AA D_AA PROTEIN AROMATIC POLYMER 
M  END

$$$$



 34 34  0  0  0  0  0  0  0  0999 V2000
   -0.3101    1.4399   -2.5514 H   0  0  0  1  0  0  0  0  0  0  0  0
   -1.1482    0.2044   -1.0775 C   0  0  0  1  0  0  0  0  0  0  0  0
    0.7694    1.7357   -0.8181 N   0  0  0  1  0  0  0  0  0  0  0  0
   -0.5188    1.5239   -1.5053 C   0  0  0  1  0  0  0  0  0  0  0  0
   -1.7110    0.0908   -0.0004 O   0  0  0  1  0  0  0  0  0  0  0  0
   -1.0404   -0.8045   -1.9554 N   0  0  0  1  0  0  0  0  0  0  0  0
    1.5712    1.9939   -1.3189 H   0  0  0  1  0  0  0  0  0  0  0  0
    0.8120    1.5641    0.5161 C   0  0  0  1  0  0  0  0  0  0  0  0
   -1.6959   -2.0875   -1.7496 C   0  0  0  1  0  0  0  0  0  0  0  0
    2.1813    1.6693    1.1485 C   0  0  0  1  0  0  0  0  0  0  0  0
   -0.1869    1.3359    1.1933 O   0  0  0  1  0  0  0  0  0  0  0  0
   -0.5015   -0.6730   -2.7633 H   0  0  0  1  0  0  0  0  0  0  0  0
   -1.9183   -2.2123   -0.7104 H   0  0  0  1  0  0  0  0  0  0  0  0
   -1.0473   -2.8749   -2.0724 H   0  0  0  1  0  0  0  0  0  0  0  0
   -2.6040   -2.1184   -2.3146 H   0  0  0  1  0  0  0  0  0  0  0  0
    2.5589    2.6622    1.0197 H   0  0  0  1  0  0  0  0  0  0  0  0
    2.8446    0.9722    0.6804 H   0  0  0  1  0  0  0  0  0  0  0  0
    2.1096    1.4480    2.1929 H   0  0  0  1  0  0  0  0  0  0  0  0
   -1.4245    2.7483   -1.3370 C   0  0  0  1  0  0  0  0  0  0  0  0
   -2.8009    2.5472   -1.9124 C   0  0  0  1  0  0  0  0  0  0  0  0
   -3.0809    3.0070   -3.1898 C   0  0  0  1  0  0  0  0  0  0  0  0
   -4.3649    2.9116   -3.6924 C   0  0  0  1  0  0  0  0  0  0  0  0
   -5.3714    2.3514   -2.9213 C   0  0  0  1  0  0  0  0  0  0  0  0
   -5.0920    1.8930   -1.6477 C   0  0  0  1  0  0  0  0  0  0  0  0
   -3.8044    1.9886   -1.1435 C   0  0  0  1  0  0  0  0  0  0  0  0
   -6.6038    2.2862   -3.4814 O   0  0  0  1  0  0  0  0  0  0  0  0
   -4.5656    3.3863   -4.9459 O   0  0  0  1  0  0  0  0  0  0  0  0
   -0.9674    3.5805   -1.8304 H   0  0  0  1  0  0  0  0  0  0  0  0
   -1.5197    2.9606   -0.2926 H   0  0  0  1  0  0  0  0  0  0  0  0
   -2.3250    3.4237   -3.7699 H   0  0  0  1  0  0  0  0  0  0  0  0
   -5.8480    1.4764   -1.0676 H   0  0  0  1  0  0  0  0  0  0  0  0
   -3.5934    1.6399   -0.1866 H   0  0  0  1  0  0  0  0  0  0  0  0
   -7.2717    2.3604   -2.7958 H   0  0  0  1  0  0  0  0  0  0  0  0
   -4.2766    4.3006   -4.9923 H   0  0  0  1  0  0  0  0  0  0  0  0
  1  4  1  0  0  0  0
  2  4  1  0  0  0  0
  2  5  2  0  0  0  0
  2  6  1  0  0  0  0
  3  4  1  0  0  0  0
  3  7  1  0  0  0  0
  3  8  1  0  0  0  0
  4 19  1  0  0  0  0
  6  9  1  0  0  0  0
  6 12  1  0  0  0  0
  8 10  1  0  0  0  0
  8 11  2  0  0  0  0
  9 13  1  0  0  0  0
  9 14  1  0  0  0  0
  9 15  1  0  0  0  0
 10 16  1  0  0  0  0
 10 17  1  0  0  0  0
 10 18  1  0  0  0  0
 19 20  1  0  0  0  0
 19 28  1  0  0  0  0
 19 29  1  0  0  0  0
 20 21  4  0  0  0  0
 20 25  4  0  0  0  0
 21 22  4  0  0  0  0
 21 30  1  0  0  0  0
 22 23  4  0  0  0  0
 22 27  1  0  0  0  0
 23 24  4  0  0  0  0
 23 26  1  0  0  0  0
 24 25  4  0  0  0  0
 24 31  1  0  0  0  0
 25 32  1  0  0  0  0
 26 33  1  0  0  0  0
 27 34  1  0  0  0  0
M  END
> <BCLConfClusterSize>
1

> <ConfClashScore>
0 

> <ConfOneFourInteractionScore>
-0.96949 

> <ConfScore>
0.318154 

> <ConfScorePBest>
0.00350476 

> <ConfTolerance>
0.563613 

> <RosettaParamsInstructions>
M  ROOT 3
M  POLY_N_BB 3
M  POLY_CA_BB 4
M  POLY_C_BB 2
M  POLY_O_BB 5
M  POLY_IGNORE 9 10 11 12 13 14 15 16 17 18 
M  POLY_UPPER 6
M  POLY_LOWER 8
M  POLY_CHG 0
M  POLY_PROPERTIES ALPHA_AA D_AA PROTEIN AROMATIC POLYMER 
M  END

$$$$



 34 34  0  0  0  0  0  0  0  0999 V2000
   -0.1404    1.7791    0.1670 H   0  0  0  1  0  0  0  0  0  0  0  0
   -1.5675    0.3110   -0.3113 C   0  0  0  1  0  0  0  0  0  0  0  0
   -1.9313    2.3493    1.0338 N   0  0  0  1  0  0  0  0  0  0  0  0
   -1.1819    1.7540   -0.0767 C   0  0  0  1  0  0  0  0  0  0  0  0
   -1.1013   -0.3199   -1.2563 O   0  0  0  1  0  0  0  0  0  0  0  0
   -2.4324   -0.2576    0.5424 N   0  0  0  1  0  0  0  0  0  0  0  0
   -2.8123    2.7393    0.8547 H   0  0  0  1  0  0  0  0  0  0  0  0
   -1.4502    2.3790    2.2940 C   0  0  0  1  0  0  0  0  0  0  0  0
   -3.0646   -1.5397    0.2697 C   0  0  0  1  0  0  0  0  0  0  0  0
   -2.3127    3.0064    3.3717 C   0  0  0  1  0  0  0  0  0  0  0  0
   -0.3445    1.9115    2.5633 O   0  0  0  1  0  0  0  0  0  0  0  0
   -2.6458    0.2066    1.3787 H   0  0  0  1  0  0  0  0  0  0  0  0
   -3.7973   -1.7439    1.0223 H   0  0  0  1  0  0  0  0  0  0  0  0
   -2.3232   -2.3111    0.2756 H   0  0  0  1  0  0  0  0  0  0  0  0
   -3.5382   -1.5067   -0.6892 H   0  0  0  1  0  0  0  0  0  0  0  0
   -3.0825    2.3203    3.6576 H   0  0  0  1  0  0  0  0  0  0  0  0
   -2.7571    3.9039    2.9951 H   0  0  0  1  0  0  0  0  0  0  0  0
   -1.7073    3.2376    4.2231 H   0  0  0  1  0  0  0  0  0  0  0  0
   -1.3877    2.6248   -1.3179 C   0  0  0  1  0  0  0  0  0  0  0  0
   -2.7708    2.5047   -1.8997 C   0  0  0  1  0  0  0  0  0  0  0  0
   -3.0178    2.9818   -3.1776 C   0  0  0  1  0  0  0  0  0  0  0  0
   -4.3029    2.9619   -3.6860 C   0  0  0  1  0  0  0  0  0  0  0  0
   -5.3437    2.4600   -2.9204 C   0  0  0  1  0  0  0  0  0  0  0  0
   -5.0972    1.9844   -1.6464 C   0  0  0  1  0  0  0  0  0  0  0  0
   -3.8085    2.0042   -1.1362 C   0  0  0  1  0  0  0  0  0  0  0  0
   -6.5752    2.4673   -3.4860 O   0  0  0  1  0  0  0  0  0  0  0  0
   -4.5947    3.4218   -4.9270 O   0  0  0  1  0  0  0  0  0  0  0  0
   -0.6781    2.3295   -2.0624 H   0  0  0  1  0  0  0  0  0  0  0  0
   -1.2188    3.6465   -1.0489 H   0  0  0  1  0  0  0  0  0  0  0  0
   -2.2363    3.3547   -3.7536 H   0  0  0  1  0  0  0  0  0  0  0  0
   -5.8787    1.6115   -1.0703 H   0  0  0  1  0  0  0  0  0  0  0  0
   -3.6224    1.6425   -0.1790 H   0  0  0  1  0  0  0  0  0  0  0  0
   -7.1692    1.9196   -2.9676 H   0  0  0  1  0  0  0  0  0  0  0  0
   -4.6180    4.3815   -4.9159 H   0  0  0  1  0  0  0  0  0  0  0  0
  1  4  1  0  0  0  0
  2  4  1  0  0  0  0
  2  5  2  0  0  0  0
  2  6  1  0  0  0  0
  3  4  1  0  0  0  0
  3  7  1  0  0  0  0
  3  8  1  0  0  0  0
  4 19  1  0  0  0  0
  6  9  1  0  0  0  0
  6 12  1  0  0  0  0
  8 10  1  0  0  0  0
  8 11  2  0  0  0  0
  9 13  1  0  0  0  0
  9 14  1  0  0  0  0
  9 15  1  0  0  0  0
 10 16  1  0  0  0  0
 10 17  1  0  0  0  0
 10 18  1  0  0  0  0
 19 20  1  0  0  0  0
 19 28  1  0  0  0  0
 19 29  1  0  0  0  0
 20 21  4  0  0  0  0
 20 25  4  0  0  0  0
 21 22  4  0  0  0  0
 21 30  1  0  0  0  0
 22 23  4  0  0  0  0
 22 27  1  0  0  0  0
 23 24  4  0  0  0  0
 23 26  1  0  0  0  0
 24 25  4  0  0  0  0
 24 31  1  0  0  0  0
 25 32  1  0  0  0  0
 26 33  1  0  0  0  0
 27 34  1  0  0  0  0
M  END
> <BCLConfClusterSize>
1

> <ConfClashScore>
0 

> <ConfOneFourInteractionScore>
-0.949633 

> <ConfScore>
0.322561 

> <ConfScorePBest>
0.00347628 

> <ConfTolerance>
0.647217 

> <RosettaParamsInstructions>
M  ROOT 3
M  POLY_N_BB 3
M  POLY_CA_BB 4
M  POLY_C_BB 2
M  POLY_O_BB 5
M  POLY_IGNORE 9 10 11 12 13 14 15 16 17 18 
M  POLY_UPPER 6
M  POLY_LOWER 8
M  POLY_CHG 0
M  POLY_PROPERTIES ALPHA_AA D_AA PROTEIN AROMATIC POLYMER 
M  END

$$$$



 34 34  0  0  0  0  0  0  0  0999 V2000
   -1.9657    4.3654   -0.0237 H   0  0  0  1  0  0  0  0  0  0  0  0
   -1.0512    5.1316   -1.7587 C   0  0  0  1  0  0  0  0  0  0  0  0
    0.0619    4.0718    0.1753 N   0  0  0  1  0  0  0  0  0  0  0  0
   -1.1392    4.0955   -0.6473 C   0  0  0  1  0  0  0  0  0  0  0  0
   -1.9627    5.2761   -2.5691 O   0  0  0  1  0  0  0  0  0  0  0  0
    0.0748    5.8620   -1.7873 N   0  0  0  1  0  0  0  0  0  0  0  0
    0.0254    4.5062    1.0530 H   0  0  0  1  0  0  0  0  0  0  0  0
    1.2540    3.4738   -0.2040 C   0  0  0  1  0  0  0  0  0  0  0  0
    0.2846    6.9296   -2.7538 C   0  0  0  1  0  0  0  0  0  0  0  0
    2.4023    3.4544    0.7654 C   0  0  0  1  0  0  0  0  0  0  0  0
    1.3311    2.9808   -1.3178 O   0  0  0  1  0  0  0  0  0  0  0  0
    0.7800    5.6696   -1.1346 H   0  0  0  1  0  0  0  0  0  0  0  0
   -0.6521    7.2035   -3.1924 H   0  0  0  1  0  0  0  0  0  0  0  0
    0.9513    6.5913   -3.5193 H   0  0  0  1  0  0  0  0  0  0  0  0
    0.7090    7.7788   -2.2603 H   0  0  0  1  0  0  0  0  0  0  0  0
    2.0300    3.5652    1.7624 H   0  0  0  1  0  0  0  0  0  0  0  0
    3.0703    4.2601    0.5429 H   0  0  0  1  0  0  0  0  0  0  0  0
    2.9242    2.5241    0.6812 H   0  0  0  1  0  0  0  0  0  0  0  0
   -1.4250    2.7051   -1.2038 C   0  0  0  1  0  0  0  0  0  0  0  0
   -2.7706    2.5408   -1.8828 C   0  0  0  1  0  0  0  0  0  0  0  0
   -2.9946    3.0006   -3.1712 C   0  0  0  1  0  0  0  0  0  0  0  0
   -4.2592    2.9209   -3.7232 C   0  0  0  1  0  0  0  0  0  0  0  0
   -5.3023    2.3763   -2.9906 C   0  0  0  1  0  0  0  0  0  0  0  0
   -5.0789    1.9179   -1.7061 C   0  0  0  1  0  0  0  0  0  0  0  0
   -3.8107    1.9978   -1.1522 C   0  0  0  1  0  0  0  0  0  0  0  0
   -6.5576    2.2720   -3.4906 O   0  0  0  1  0  0  0  0  0  0  0  0
   -4.5283    3.3616   -4.9763 O   0  0  0  1  0  0  0  0  0  0  0  0
   -1.3774    2.0088   -0.3927 H   0  0  0  1  0  0  0  0  0  0  0  0
   -0.6638    2.4729   -1.9190 H   0  0  0  1  0  0  0  0  0  0  0  0
   -2.2111    3.4056   -3.7224 H   0  0  0  1  0  0  0  0  0  0  0  0
   -5.8623    1.5129   -1.1549 H   0  0  0  1  0  0  0  0  0  0  0  0
   -3.6417    1.6492   -0.1871 H   0  0  0  1  0  0  0  0  0  0  0  0
   -7.1951    2.3742   -2.7801 H   0  0  0  1  0  0  0  0  0  0  0  0
   -4.7856    4.2858   -4.9425 H   0  0  0  1  0  0  0  0  0  0  0  0
  1  4  1  0  0  0  0
  2  4  1  0  0  0  0
  2  5  2  0  0  0  0
  2  6  1  0  0  0  0
  3  4  1  0  0  0  0
  3  7  1  0  0  0  0
  3  8  1  0  0  0  0
  4 19  1  0  0  0  0
  6  9  1  0  0  0  0
  6 12  1  0  0  0  0
  8 10  1  0  0  0  0
  8 11  2  0  0  0  0
  9 13  1  0  0  0  0
  9 14  1  0  0  0  0
  9 15  1  0  0  0  0
 10 16  1  0  0  0  0
 10 17  1  0  0  0  0
 10 18  1  0  0  0  0
 19 20  1  0  0  0  0
 19 28  1  0  0  0  0
 19 29  1  0  0  0  0
 20 21  4  0  0  0  0
 20 25  4  0  0  0  0
 21 22  4  0  0  0  0
 21 30  1  0  0  0  0
 22 23  4  0  0  0  0
 22 27  1  0  0  0  0
 23 24  4  0  0  0  0
 23 26  1  0  0  0  0
 24 25  4  0  0  0  0
 24 31  1  0  0  0  0
 25 32  1  0  0  0  0
 26 33  1  0  0  0  0
 27 34  1  0  0  0  0
M  END
> <BCLConfClusterSize>
1

> <ConfClashScore>
0 

> <ConfOneFourInteractionScore>
-0.95733 

> <ConfScore>
0.324756 

> <ConfScorePBest>
0.0034478 

> <ConfTolerance>
0.792116 

> <RosettaParamsInstructions>
M  ROOT 3
M  POLY_N_BB 3
M  POLY_CA_BB 4
M  POLY_C_BB 2
M  POLY_O_BB 5
M  POLY_IGNORE 9 10 11 12 13 14 15 16 17 18 
M  POLY_UPPER 6
M  POLY_LOWER 8
M  POLY_CHG 0
M  POLY_PROPERTIES ALPHA_AA D_AA PROTEIN AROMATIC POLYMER 
M  END

$$$$



 34 34  0  0  0  0  0  0  0  0999 V2000
    0.0681    4.1686   -0.7330 H   0  0  0  1  0  0  0  0  0  0  0  0
   -1.7895    5.1199   -0.5148 C   0  0  0  1  0  0  0  0  0  0  0  0
   -0.6449    4.6608   -2.6110 N   0  0  0  1  0  0  0  0  0  0  0  0
   -0.8712    4.1665   -1.2454 C   0  0  0  1  0  0  0  0  0  0  0  0
   -2.7885    5.5804   -1.0657 O   0  0  0  1  0  0  0  0  0  0  0  0
   -1.4822    5.4473    0.7495 N   0  0  0  1  0  0  0  0  0  0  0  0
   -0.6647    4.0052   -3.3392 H   0  0  0  1  0  0  0  0  0  0  0  0
   -0.4120    5.9490   -2.9374 C   0  0  0  1  0  0  0  0  0  0  0  0
   -2.3611    6.3210    1.5124 C   0  0  0  1  0  0  0  0  0  0  0  0
   -0.1912    6.2840   -4.3952 C   0  0  0  1  0  0  0  0  0  0  0  0
   -0.3797    6.8270   -2.0763 O   0  0  0  1  0  0  0  0  0  0  0  0
   -0.6640    5.0974    1.1602 H   0  0  0  1  0  0  0  0  0  0  0  0
   -1.8261    6.7270    2.3453 H   0  0  0  1  0  0  0  0  0  0  0  0
   -3.2007    5.7604    1.8671 H   0  0  0  1  0  0  0  0  0  0  0  0
   -2.7030    7.1180    0.8856 H   0  0  0  1  0  0  0  0  0  0  0  0
    0.0210    5.3877   -4.9395 H   0  0  0  1  0  0  0  0  0  0  0  0
    0.6340    6.9593   -4.4847 H   0  0  0  1  0  0  0  0  0  0  0  0
   -1.0725    6.7423   -4.7929 H   0  0  0  1  0  0  0  0  0  0  0  0
   -1.3661    2.7298   -1.2810 C   0  0  0  1  0  0  0  0  0  0  0  0
   -2.7502    2.5336   -1.8679 C   0  0  0  1  0  0  0  0  0  0  0  0
   -3.0576    2.9442   -3.1557 C   0  0  0  1  0  0  0  0  0  0  0  0
   -4.3536    2.8375   -3.6241 C   0  0  0  1  0  0  0  0  0  0  0  0
   -5.3448    2.3149   -2.8080 C   0  0  0  1  0  0  0  0  0  0  0  0
   -5.0381    1.9056   -1.5241 C   0  0  0  1  0  0  0  0  0  0  0  0
   -3.7384    2.0125   -1.0541 C   0  0  0  1  0  0  0  0  0  0  0  0
   -6.5904    2.2357   -3.3362 O   0  0  0  1  0  0  0  0  0  0  0  0
   -4.7037    3.2301   -4.8731 O   0  0  0  1  0  0  0  0  0  0  0  0
   -1.3777    2.3597   -0.2771 H   0  0  0  1  0  0  0  0  0  0  0  0
   -0.6758    2.1573   -1.8647 H   0  0  0  1  0  0  0  0  0  0  0  0
   -2.3132    3.3325   -3.7694 H   0  0  0  1  0  0  0  0  0  0  0  0
   -5.7826    1.5173   -0.9104 H   0  0  0  1  0  0  0  0  0  0  0  0
   -3.5070    1.7007   -0.0894 H   0  0  0  1  0  0  0  0  0  0  0  0
   -6.7191    2.9519   -3.9624 H   0  0  0  1  0  0  0  0  0  0  0  0
   -5.1584    4.0744   -4.8279 H   0  0  0  1  0  0  0  0  0  0  0  0
  1  4  1  0  0  0  0
  2  4  1  0  0  0  0
  2  5  2  0  0  0  0
  2  6  1  0  0  0  0
  3  4  1  0  0  0  0
  3  7  1  0  0  0  0
  3  8  1  0  0  0  0
  4 19  1  0  0  0  0
  6  9  1  0  0  0  0
  6 12  1  0  0  0  0
  8 10  1  0  0  0  0
  8 11  2  0  0  0  0
  9 13  1  0  0  0  0
  9 14  1  0  0  0  0
  9 15  1  0  0  0  0
 10 16  1  0  0  0  0
 10 17  1  0  0  0  0
 10 18  1  0  0  0  0
 19 20  1  0  0  0  0
 19 28  1  0  0  0  0
 19 29  1  0  0  0  0
 20 21  4  0  0  0  0
 20 25  4  0  0  0  0
 21 22  4  0  0  0  0
 21 30  1  0  0  0  0
 22 23  4  0  0  0  0
 22 27  1  0  0  0  0
 23 24  4  0  0  0  0
 23 26  1  0  0  0  0
 24 25  4  0  0  0  0
 24 31  1  0  0  0  0
 25 32  1  0  0  0  0
 26 33  1  0  0  0  0
 27 34  1  0  0  0  0
M  END
> <BCLConfClusterSize>
1

> <ConfClashScore>
0 

> <ConfOneFourInteractionScore>
-0.982563 

> <ConfScore>
0.327535 

> <ConfScorePBest>
0.00341932 

> <ConfTolerance>
0.867897 

> <RosettaParamsInstructions>
M  ROOT 3
M  POLY_N_BB 3
M  POLY_CA_BB 4
M  POLY_C_BB 2
M  POLY_O_BB 5
M  POLY_IGNORE 9 10 11 12 13 14 15 16 17 18 
M  POLY_UPPER 6
M  POLY_LOWER 8
M  POLY_CHG 0
M  POLY_PROPERTIES ALPHA_AA D_AA PROTEIN AROMATIC POLYMER 
M  END

$$$$



 34 34  0  0  0  0  0  0  0  0999 V2000
    0.3674    1.8383   -0.8133 H   0  0  0  1  0  0  0  0  0  0  0  0
   -0.4757    0.6922   -2.3476 C   0  0  0  1  0  0  0  0  0  0  0  0
   -1.1703    0.7791    0.0353 N   0  0  0  1  0  0  0  0  0  0  0  0
   -0.6182    1.5261   -1.0892 C   0  0  0  1  0  0  0  0  0  0  0  0
   -1.4355    0.0894   -2.8262 O   0  0  0  1  0  0  0  0  0  0  0  0
    0.7510    0.6608   -2.8902 N   0  0  0  1  0  0  0  0  0  0  0  0
   -2.0193    1.0906    0.4130 H   0  0  0  1  0  0  0  0  0  0  0  0
   -0.6070   -0.2955    0.5882 C   0  0  0  1  0  0  0  0  0  0  0  0
    1.0143    0.0431   -4.1814 C   0  0  0  1  0  0  0  0  0  0  0  0
   -1.4642   -1.0455    1.5998 C   0  0  0  1  0  0  0  0  0  0  0  0
    0.5309   -0.6725    0.3115 O   0  0  0  1  0  0  0  0  0  0  0  0
    1.4956    1.0679   -2.4001 H   0  0  0  1  0  0  0  0  0  0  0  0
    0.7483   -0.9925   -4.1428 H   0  0  0  1  0  0  0  0  0  0  0  0
    2.0543    0.1356   -4.4152 H   0  0  0  1  0  0  0  0  0  0  0  0
    0.4338    0.5323   -4.9355 H   0  0  0  1  0  0  0  0  0  0  0  0
   -0.8490   -1.3864    2.4061 H   0  0  0  1  0  0  0  0  0  0  0  0
   -1.9250   -1.8854    1.1233 H   0  0  0  1  0  0  0  0  0  0  0  0
   -2.2206   -0.3914    1.9805 H   0  0  0  1  0  0  0  0  0  0  0  0
   -1.4326    2.7949   -1.2816 C   0  0  0  1  0  0  0  0  0  0  0  0
   -2.8035    2.5985   -1.8716 C   0  0  0  1  0  0  0  0  0  0  0  0
   -3.1153    3.1895   -3.0861 C   0  0  0  1  0  0  0  0  0  0  0  0
   -4.3980    3.0938   -3.5919 C   0  0  0  1  0  0  0  0  0  0  0  0
   -5.3713    2.4025   -2.8873 C   0  0  0  1  0  0  0  0  0  0  0  0
   -5.0602    1.8133   -1.6764 C   0  0  0  1  0  0  0  0  0  0  0  0
   -3.7738    1.9091   -1.1690 C   0  0  0  1  0  0  0  0  0  0  0  0
   -6.6043    2.3458   -3.4469 O   0  0  0  1  0  0  0  0  0  0  0  0
   -4.7521    3.6589   -4.7717 O   0  0  0  1  0  0  0  0  0  0  0  0
   -0.8836    3.4442   -1.9312 H   0  0  0  1  0  0  0  0  0  0  0  0
   -1.5485    3.2609   -0.3254 H   0  0  0  1  0  0  0  0  0  0  0  0
   -2.3842    3.7047   -3.6167 H   0  0  0  1  0  0  0  0  0  0  0  0
   -5.7913    1.2981   -1.1459 H   0  0  0  1  0  0  0  0  0  0  0  0
   -3.5388    1.4623   -0.2598 H   0  0  0  1  0  0  0  0  0  0  0  0
   -7.2554    2.6720   -2.8213 H   0  0  0  1  0  0  0  0  0  0  0  0
   -4.1424    3.3772   -5.4577 H   0  0  0  1  0  0  0  0  0  0  0  0
  1  4  1  0  0  0  0
  2  4  1  0  0  0  0
  2  5  2  0  0  0  0
  2  6  1  0  0  0  0
  3  4  1  0  0  0  0
  3  7  1  0  0  0  0
  3  8  1  0  0  0  0
  4 19  1  0  0  0  0
  6  9  1  0  0  0  0
  6 12  1  0  0  0  0
  8 10  1  0  0  0  0
  8 11  2  0  0  0  0
  9 13  1  0  0  0  0
  9 14  1  0  0  0  0
  9 15  1  0  0  0  0
 10 16  1  0  0  0  0
 10 17  1  0  0  0  0
 10 18  1  0  0  0  0
 19 20  1  0  0  0  0
 19 28  1  0  0  0  0
 19 29  1  0  0  0  0
 20 21  4  0  0  0  0
 20 25  4  0  0  0  0
 21 22  4  0  0  0  0
 21 30  1  0  0  0  0
 22 23  4  0  0  0  0
 22 27  1  0  0  0  0
 23 24  4  0  0  0  0
 23 26  1  0  0  0  0
 24 25  4  0  0  0  0
 24 31  1  0  0  0  0
 25 32  1  0  0  0  0
 26 33  1  0  0  0  0
 27 34  1  0  0  0  0
M  END
> <BCLConfClusterSize>
1

> <ConfClashScore>
0 

> <ConfOneFourInteractionScore>
-0.982563 

> <ConfScore>
0.328372 

> <ConfScorePBest>
0.00339084 

> <ConfTolerance>
0.821133 

> <RosettaParamsInstructions>
M  ROOT 3
M  POLY_N_BB 3
M  POLY_CA_BB 4
M  POLY_C_BB 2
M  POLY_O_BB 5
M  POLY_IGNORE 9 10 11 12 13 14 15 16 17 18 
M  POLY_UPPER 6
M  POLY_LOWER 8
M  POLY_CHG 0
M  POLY_PROPERTIES ALPHA_AA D_AA PROTEIN AROMATIC POLYMER 
M  END

$$$$



 34 34  0  0  0  0  0  0  0  0999 V2000
   -0.6485    4.1928   -2.7637 H   0  0  0  1  0  0  0  0  0  0  0  0
    0.6507    4.0985   -1.1020 C   0  0  0  1  0  0  0  0  0  0  0  0
   -1.6051    5.0742   -1.1570 N   0  0  0  1  0  0  0  0  0  0  0  0
   -0.7383    4.0448   -1.7078 C   0  0  0  1  0  0  0  0  0  0  0  0
    1.1200    5.1505   -0.6759 O   0  0  0  1  0  0  0  0  0  0  0  0
    1.3169    2.9336   -1.0664 N   0  0  0  1  0  0  0  0  0  0  0  0
   -1.8640    5.8419   -1.7084 H   0  0  0  1  0  0  0  0  0  0  0  0
   -2.0661    4.9719    0.1466 C   0  0  0  1  0  0  0  0  0  0  0  0
    2.6860    2.8355   -0.5830 C   0  0  0  1  0  0  0  0  0  0  0  0
   -2.9230    6.0722    0.7068 C   0  0  0  1  0  0  0  0  0  0  0  0
   -1.7597    3.9893    0.7971 O   0  0  0  1  0  0  0  0  0  0  0  0
    0.8655    2.1210   -1.3768 H   0  0  0  1  0  0  0  0  0  0  0  0
    3.2195    3.7274   -0.8375 H   0  0  0  1  0  0  0  0  0  0  0  0
    3.1645    1.9925   -1.0362 H   0  0  0  1  0  0  0  0  0  0  0  0
    2.6808    2.7144    0.4801 H   0  0  0  1  0  0  0  0  0  0  0  0
   -3.5936    6.4229   -0.0496 H   0  0  0  1  0  0  0  0  0  0  0  0
   -2.2998    6.8787    1.0324 H   0  0  0  1  0  0  0  0  0  0  0  0
   -3.4858    5.6983    1.5365 H   0  0  0  1  0  0  0  0  0  0  0  0
   -1.3608    2.6777   -1.4761 C   0  0  0  1  0  0  0  0  0  0  0  0
   -2.8014    2.5366   -1.9211 C   0  0  0  1  0  0  0  0  0  0  0  0
   -3.1945    3.0662   -3.1404 C   0  0  0  1  0  0  0  0  0  0  0  0
   -4.5243    3.0258   -3.5146 C   0  0  0  1  0  0  0  0  0  0  0  0
   -5.4642    2.4510   -2.6734 C   0  0  0  1  0  0  0  0  0  0  0  0
   -5.0721    1.9230   -1.4578 C   0  0  0  1  0  0  0  0  0  0  0  0
   -3.7384    1.9634   -1.0822 C   0  0  0  1  0  0  0  0  0  0  0  0
   -6.7611    2.4187   -3.0651 O   0  0  0  1  0  0  0  0  0  0  0  0
   -4.8847    3.5549   -4.7092 O   0  0  0  1  0  0  0  0  0  0  0  0
   -1.3173    2.4687   -0.4276 H   0  0  0  1  0  0  0  0  0  0  0  0
   -0.7785    1.9552   -2.0088 H   0  0  0  1  0  0  0  0  0  0  0  0
   -2.4888    3.4939   -3.7734 H   0  0  0  1  0  0  0  0  0  0  0  0
   -5.7778    1.4953   -0.8248 H   0  0  0  1  0  0  0  0  0  0  0  0
   -3.4428    1.5624   -0.1692 H   0  0  0  1  0  0  0  0  0  0  0  0
   -6.8083    2.4749   -4.0223 H   0  0  0  1  0  0  0  0  0  0  0  0
   -4.1040    3.6769   -5.2543 H   0  0  0  1  0  0  0  0  0  0  0  0
  1  4  1  0  0  0  0
  2  4  1  0  0  0  0
  2  5  2  0  0  0  0
  2  6  1  0  0  0  0
  3  4  1  0  0  0  0
  3  7  1  0  0  0  0
  3  8  1  0  0  0  0
  4 19  1  0  0  0  0
  6  9  1  0  0  0  0
  6 12  1  0  0  0  0
  8 10  1  0  0  0  0
  8 11  2  0  0  0  0
  9 13  1  0  0  0  0
  9 14  1  0  0  0  0
  9 15  1  0  0  0  0
 10 16  1  0  0  0  0
 10 17  1  0  0  0  0
 10 18  1  0  0  0  0
 19 20  1  0  0  0  0
 19 28  1  0  0  0  0
 19 29  1  0  0  0  0
 20 21  4  0  0  0  0
 20 25  4  0  0  0  0
 21 22  4  0  0  0  0
 21 30  1  0  0  0  0
 22 23  4  0  0  0  0
 22 27  1  0  0  0  0
 23 24  4  0  0  0  0
 23 26  1  0  0  0  0
 24 25  4  0  0  0  0
 24 31  1  0  0  0  0
 25 32  1  0  0  0  0
 26 33  1  0  0  0  0
 27 34  1  0  0  0  0
M  END
> <BCLConfClusterSize>
1

> <ConfClashScore>
0 

> <ConfOneFourInteractionScore>
-0.933542 

> <ConfScore>
0.328436 

> <ConfScorePBest>
0.00336236 

> <ConfTolerance>
0.83486 

> <RosettaParamsInstructions>
M  ROOT 3
M  POLY_N_BB 3
M  POLY_CA_BB 4
M  POLY_C_BB 2
M  POLY_O_BB 5
M  POLY_IGNORE 9 10 11 12 13 14 15 16 17 18 
M  POLY_UPPER 6
M  POLY_LOWER 8
M  POLY_CHG 0
M  POLY_PROPERTIES ALPHA_AA D_AA PROTEIN AROMATIC POLYMER 
M  END

$$$$



 34 34  0  0  0  0  0  0  0  0999 V2000
   -2.1598    2.8538    0.7720 H   0  0  0  1  0  0  0  0  0  0  0  0
   -0.0938    2.5510    1.0130 C   0  0  0  1  0  0  0  0  0  0  0  0
   -1.7537    0.8435    0.5017 N   0  0  0  1  0  0  0  0  0  0  0  0
   -1.4030    2.2575    0.3066 C   0  0  0  1  0  0  0  0  0  0  0  0
    0.5551    3.5278    0.6409 O   0  0  0  1  0  0  0  0  0  0  0  0
    0.2853    1.7387    1.9972 N   0  0  0  1  0  0  0  0  0  0  0  0
   -2.6591    0.6178    0.8013 H   0  0  0  1  0  0  0  0  0  0  0  0
   -0.8725   -0.1544    0.2827 C   0  0  0  1  0  0  0  0  0  0  0  0
    1.5714    1.8738    2.6648 C   0  0  0  1  0  0  0  0  0  0  0  0
   -1.3273   -1.5771    0.5441 C   0  0  0  1  0  0  0  0  0  0  0  0
    0.2651    0.0799   -0.1166 O   0  0  0  1  0  0  0  0  0  0  0  0
   -0.3228    1.0250    2.2821 H   0  0  0  1  0  0  0  0  0  0  0  0
    2.3149    2.1645    1.9524 H   0  0  0  1  0  0  0  0  0  0  0  0
    1.8452    0.9372    3.1037 H   0  0  0  1  0  0  0  0  0  0  0  0
    1.4996    2.6190    3.4293 H   0  0  0  1  0  0  0  0  0  0  0  0
   -2.3055   -1.7203    0.1346 H   0  0  0  1  0  0  0  0  0  0  0  0
   -1.3530   -1.7550    1.5989 H   0  0  0  1  0  0  0  0  0  0  0  0
   -0.6445   -2.2599    0.0832 H   0  0  0  1  0  0  0  0  0  0  0  0
   -1.4018    2.6006   -1.1773 C   0  0  0  1  0  0  0  0  0  0  0  0
   -2.7514    2.5217   -1.8637 C   0  0  0  1  0  0  0  0  0  0  0  0
   -2.9553    3.0538   -3.1274 C   0  0  0  1  0  0  0  0  0  0  0  0
   -4.2211    3.0498   -3.6826 C   0  0  0  1  0  0  0  0  0  0  0  0
   -5.2854    2.5090   -2.9782 C   0  0  0  1  0  0  0  0  0  0  0  0
   -5.0818    1.9786   -1.7183 C   0  0  0  1  0  0  0  0  0  0  0  0
   -3.8125    1.9825   -1.1612 C   0  0  0  1  0  0  0  0  0  0  0  0
   -6.5428    2.4777   -3.4828 O   0  0  0  1  0  0  0  0  0  0  0  0
   -4.3460    3.5914   -4.9187 O   0  0  0  1  0  0  0  0  0  0  0  0
   -0.7394    1.9216   -1.6726 H   0  0  0  1  0  0  0  0  0  0  0  0
   -1.0347    3.5999   -1.2847 H   0  0  0  1  0  0  0  0  0  0  0  0
   -2.1561    3.4559   -3.6576 H   0  0  0  1  0  0  0  0  0  0  0  0
   -5.8811    1.5765   -1.1882 H   0  0  0  1  0  0  0  0  0  0  0  0
   -3.6587    1.5797   -0.2148 H   0  0  0  1  0  0  0  0  0  0  0  0
   -7.1091    1.9660   -2.9004 H   0  0  0  1  0  0  0  0  0  0  0  0
   -5.2199    3.9775   -5.0125 H   0  0  0  1  0  0  0  0  0  0  0  0
  1  4  1  0  0  0  0
  2  4  1  0  0  0  0
  2  5  2  0  0  0  0
  2  6  1  0  0  0  0
  3  4  1  0  0  0  0
  3  7  1  0  0  0  0
  3  8  1  0  0  0  0
  4 19  1  0  0  0  0
  6  9  1  0  0  0  0
  6 12  1  0  0  0  0
  8 10  1  0  0  0  0
  8 11  2  0  0  0  0
  9 13  1  0  0  0  0
  9 14  1  0  0  0  0
  9 15  1  0  0  0  0
 10 16  1  0  0  0  0
 10 17  1  0  0  0  0
 10 18  1  0  0  0  0
 19 20  1  0  0  0  0
 19 28  1  0  0  0  0
 19 29  1  0  0  0  0
 20 21  4  0  0  0  0
 20 25  4  0  0  0  0
 21 22  4  0  0  0  0
 21 30  1  0  0  0  0
 22 23  4  0  0  0  0
 22 27  1  0  0  0  0
 23 24  4  0  0  0  0
 23 26  1  0  0  0  0
 24 25  4  0  0  0  0
 24 31  1  0  0  0  0
 25 32  1  0  0  0  0
 26 33  1  0  0  0  0
 27 34  1  0  0  0  0
M  END
> <BCLConfClusterSize>
1

> <ConfClashScore>
0 

> <ConfOneFourInteractionScore>
-0.946406 

> <ConfScore>
0.328709 

> <ConfScorePBest>
0.00333388 

> <ConfTolerance>
0.600389 

> <RosettaParamsInstructions>
M  ROOT 3
M  POLY_N_BB 3
M  POLY_CA_BB 4
M  POLY_C_BB 2
M  POLY_O_BB 5
M  POLY_IGNORE 9 10 11 12 13 14 15 16 17 18 
M  POLY_UPPER 6
M  POLY_LOWER 8
M  POLY_CHG 0
M  POLY_PROPERTIES ALPHA_AA D_AA PROTEIN AROMATIC POLYMER 
M  END

$$$$



 34 34  0  0  0  0  0  0  0  0999 V2000
    0.5569    2.0749   -1.4917 H   0  0  0  1  0  0  0  0  0  0  0  0
   -0.6722    0.8575   -2.6985 C   0  0  0  1  0  0  0  0  0  0  0  0
   -0.5146    0.7954   -0.2740 N   0  0  0  1  0  0  0  0  0  0  0  0
   -0.4299    1.6648   -1.4380 C   0  0  0  1  0  0  0  0  0  0  0  0
   -0.0958    1.1286   -3.7510 O   0  0  0  1  0  0  0  0  0  0  0  0
   -1.5456   -0.1555   -2.5833 N   0  0  0  1  0  0  0  0  0  0  0  0
   -0.7972   -0.1347   -0.3980 H   0  0  0  1  0  0  0  0  0  0  0  0
   -0.2184    1.2244    0.9668 C   0  0  0  1  0  0  0  0  0  0  0  0
   -2.0131   -0.9819   -3.6862 C   0  0  0  1  0  0  0  0  0  0  0  0
   -0.3713    0.1983    2.0726 C   0  0  0  1  0  0  0  0  0  0  0  0
    0.1542    2.3719    1.2077 O   0  0  0  1  0  0  0  0  0  0  0  0
   -1.8946   -0.3534   -1.6892 H   0  0  0  1  0  0  0  0  0  0  0  0
   -2.7442   -1.6760   -3.3275 H   0  0  0  1  0  0  0  0  0  0  0  0
   -1.1873   -1.5184   -4.1046 H   0  0  0  1  0  0  0  0  0  0  0  0
   -2.4517   -0.3588   -4.4375 H   0  0  0  1  0  0  0  0  0  0  0  0
    0.5747   -0.2631    2.2651 H   0  0  0  1  0  0  0  0  0  0  0  0
   -1.0769   -0.5476    1.7715 H   0  0  0  1  0  0  0  0  0  0  0  0
   -0.7197    0.6814    2.9615 H   0  0  0  1  0  0  0  0  0  0  0  0
   -1.4089    2.8221   -1.3272 C   0  0  0  1  0  0  0  0  0  0  0  0
   -2.7844    2.5588   -1.8792 C   0  0  0  1  0  0  0  0  0  0  0  0
   -3.0916    2.9632   -3.1690 C   0  0  0  1  0  0  0  0  0  0  0  0
   -4.3772    2.8110   -3.6531 C   0  0  0  1  0  0  0  0  0  0  0  0
   -5.3581    2.2491   -2.8508 C   0  0  0  1  0  0  0  0  0  0  0  0
   -5.0516    1.8459   -1.5649 C   0  0  0  1  0  0  0  0  0  0  0  0
   -3.7623    1.9985   -1.0791 C   0  0  0  1  0  0  0  0  0  0  0  0
   -6.5763    2.1468   -3.4357 O   0  0  0  1  0  0  0  0  0  0  0  0
   -4.6052    3.2336   -4.9204 O   0  0  0  1  0  0  0  0  0  0  0  0
   -0.9955    3.6559   -1.8551 H   0  0  0  1  0  0  0  0  0  0  0  0
   -1.5109    3.0701   -0.2913 H   0  0  0  1  0  0  0  0  0  0  0  0
   -2.3547    3.3811   -3.7723 H   0  0  0  1  0  0  0  0  0  0  0  0
   -5.7885    1.4280   -0.9615 H   0  0  0  1  0  0  0  0  0  0  0  0
   -3.5309    1.6914   -0.1128 H   0  0  0  1  0  0  0  0  0  0  0  0
   -7.0057    3.0054   -3.4341 H   0  0  0  1  0  0  0  0  0  0  0  0
   -4.7276    4.1857   -4.9236 H   0  0  0  1  0  0  0  0  0  0  0  0
  1  4  1  0  0  0  0
  2  4  1  0  0  0  0
  2  5  2  0  0  0  0
  2  6  1  0  0  0  0
  3  4  1  0  0  0  0
  3  7  1  0  0  0  0
  3  8  1  0  0  0  0
  4 19  1  0  0  0  0
  6  9  1  0  0  0  0
  6 12  1  0  0  0  0
  8 10  1  0  0  0  0
  8 11  2  0  0  0  0
  9 13  1  0  0  0  0
  9 14  1  0  0  0  0
  9 15  1  0  0  0  0
 10 16  1  0  0  0  0
 10 17  1  0  0  0  0
 10 18  1  0  0  0  0
 19 20  1  0  0  0  0
 19 28  1  0  0  0  0
 19 29  1  0  0  0  0
 20 21  4  0  0  0  0
 20 25  4  0  0  0  0
 21 22  4  0  0  0  0
 21 30  1  0  0  0  0
 22 23  4  0  0  0  0
 22 27  1  0  0  0  0
 23 24  4  0  0  0  0
 23 26  1  0  0  0  0
 24 25  4  0  0  0  0
 24 31  1  0  0  0  0
 25 32  1  0  0  0  0
 26 33  1  0  0  0  0
 27 34  1  0  0  0  0
M  END
> <BCLConfClusterSize>
1

> <ConfClashScore>
0 

> <ConfOneFourInteractionScore>
-0.951423 

> <ConfScore>
0.33345 

> <ConfScorePBest>
0.0033054 

> <ConfTolerance>
1.00198 

> <RosettaParamsInstructions>
M  ROOT 3
M  POLY_N_BB 3
M  POLY_CA_BB 4
M  POLY_C_BB 2
M  POLY_O_BB 5
M  POLY_IGNORE 9 10 11 12 13 14 15 16 17 18 
M  POLY_UPPER 6
M  POLY_LOWER 8
M  POLY_CHG 0
M  POLY_PROPERTIES ALPHA_AA D_AA PROTEIN AROMATIC POLYMER 
M  END

$$$$



 34 34  0  0  0  0  0  0  0  0999 V2000
    0.3722    1.3830   -1.2637 H   0  0  0  1  0  0  0  0  0  0  0  0
    0.3475    2.1177   -3.2371 C   0  0  0  1  0  0  0  0  0  0  0  0
   -1.0483    0.3301   -2.3377 N   0  0  0  1  0  0  0  0  0  0  0  0
   -0.3717    1.5914   -2.0040 C   0  0  0  1  0  0  0  0  0  0  0  0
    1.4180    2.7156   -3.1361 O   0  0  0  1  0  0  0  0  0  0  0  0
   -0.2178    1.9111   -4.4299 N   0  0  0  1  0  0  0  0  0  0  0  0
   -1.1393    0.0771   -3.2801 H   0  0  0  1  0  0  0  0  0  0  0  0
   -1.5485   -0.4916   -1.3917 C   0  0  0  1  0  0  0  0  0  0  0  0
    0.3192    2.4853   -5.6546 C   0  0  0  1  0  0  0  0  0  0  0  0
   -2.3321   -1.7028   -1.8445 C   0  0  0  1  0  0  0  0  0  0  0  0
   -1.3750   -0.2661   -0.2048 O   0  0  0  1  0  0  0  0  0  0  0  0
   -1.0221    1.3536   -4.4819 H   0  0  0  1  0  0  0  0  0  0  0  0
    0.7412    3.4456   -5.4437 H   0  0  0  1  0  0  0  0  0  0  0  0
   -0.4666    2.5912   -6.3730 H   0  0  0  1  0  0  0  0  0  0  0  0
    1.0778    1.8410   -6.0474 H   0  0  0  1  0  0  0  0  0  0  0  0
   -2.9953   -1.4237   -2.6364 H   0  0  0  1  0  0  0  0  0  0  0  0
   -2.8998   -2.0875   -1.0231 H   0  0  0  1  0  0  0  0  0  0  0  0
   -1.6557   -2.4545   -2.1943 H   0  0  0  1  0  0  0  0  0  0  0  0
   -1.3528    2.5664   -1.3966 C   0  0  0  1  0  0  0  0  0  0  0  0
   -2.7733    2.5248   -1.8929 C   0  0  0  1  0  0  0  0  0  0  0  0
   -3.1010    3.1615   -3.0798 C   0  0  0  1  0  0  0  0  0  0  0  0
   -4.4176    3.2096   -3.4974 C   0  0  0  1  0  0  0  0  0  0  0  0
   -5.4097    2.6166   -2.7322 C   0  0  0  1  0  0  0  0  0  0  0  0
   -5.0829    1.9819   -1.5488 C   0  0  0  1  0  0  0  0  0  0  0  0
   -3.7624    1.9335   -1.1298 C   0  0  0  1  0  0  0  0  0  0  0  0
   -6.6926    2.6727   -3.1656 O   0  0  0  1  0  0  0  0  0  0  0  0
   -4.7876    3.8245   -4.6471 O   0  0  0  1  0  0  0  0  0  0  0  0
   -0.9788    3.5523   -1.5788 H   0  0  0  1  0  0  0  0  0  0  0  0
   -1.3762    2.3824   -0.3428 H   0  0  0  1  0  0  0  0  0  0  0  0
   -2.3562    3.6029   -3.6560 H   0  0  0  1  0  0  0  0  0  0  0  0
   -5.8277    1.5405   -0.9726 H   0  0  0  1  0  0  0  0  0  0  0  0
   -3.5161    1.4524   -0.2413 H   0  0  0  1  0  0  0  0  0  0  0  0
   -6.8751    1.9146   -3.7256 H   0  0  0  1  0  0  0  0  0  0  0  0
   -4.4682    3.3190   -5.3981 H   0  0  0  1  0  0  0  0  0  0  0  0
  1  4  1  0  0  0  0
  2  4  1  0  0  0  0
  2  5  2  0  0  0  0
  2  6  1  0  0  0  0
  3  4  1  0  0  0  0
  3  7  1  0  0  0  0
  3  8  1  0  0  0  0
  4 19  1  0  0  0  0
  6  9  1  0  0  0  0
  6 12  1  0  0  0  0
  8 10  1  0  0  0  0
  8 11  2  0  0  0  0
  9 13  1  0  0  0  0
  9 14  1  0  0  0  0
  9 15  1  0  0  0  0
 10 16  1  0  0  0  0
 10 17  1  0  0  0  0
 10 18  1  0  0  0  0
 19 20  1  0  0  0  0
 19 28  1  0  0  0  0
 19 29  1  0  0  0  0
 20 21  4  0  0  0  0
 20 25  4  0  0  0  0
 21 22  4  0  0  0  0
 21 30  1  0  0  0  0
 22 23  4  0  0  0  0
 22 27  1  0  0  0  0
 23 24  4  0  0  0  0
 23 26  1  0  0  0  0
 24 25  4  0  0  0  0
 24 31  1  0  0  0  0
 25 32  1  0  0  0  0
 26 33  1  0  0  0  0
 27 34  1  0  0  0  0
M  END
> <BCLConfClusterSize>
1

> <ConfClashScore>
0 

> <ConfOneFourInteractionScore>
-0.930161 

> <ConfScore>
0.337695 

> <ConfScorePBest>
0.00327691 

> <ConfTolerance>
0.929545 

> <RosettaParamsInstructions>
M  ROOT 3
M  POLY_N_BB 3
M  POLY_CA_BB 4
M  POLY_C_BB 2
M  POLY_O_BB 5
M  POLY_IGNORE 9 10 11 12 13 14 15 16 17 18 
M  POLY_UPPER 6
M  POLY_LOWER 8
M  POLY_CHG 0
M  POLY_PROPERTIES ALPHA_AA D_AA PROTEIN AROMATIC POLYMER 
M  END

$$$$



 34 34  0  0  0  0  0  0  0  0999 V2000
   -1.8813    3.6893    0.3110 H   0  0  0  1  0  0  0  0  0  0  0  0
    0.1914    3.2820    0.4488 C   0  0  0  1  0  0  0  0  0  0  0  0
   -1.6310    1.7114    0.8629 N   0  0  0  1  0  0  0  0  0  0  0  0
   -1.2309    2.8727    0.0763 C   0  0  0  1  0  0  0  0  0  0  0  0
    1.1306    2.4989    0.3345 O   0  0  0  1  0  0  0  0  0  0  0  0
    0.3366    4.5312    0.8999 N   0  0  0  1  0  0  0  0  0  0  0  0
   -1.8834    0.8878    0.3957 H   0  0  0  1  0  0  0  0  0  0  0  0
   -1.6657    1.7316    2.2096 C   0  0  0  1  0  0  0  0  0  0  0  0
    1.6299    5.0704    1.2929 C   0  0  0  1  0  0  0  0  0  0  0  0
   -2.1068    0.4192    2.8277 C   0  0  0  1  0  0  0  0  0  0  0  0
   -1.3737    2.7051    2.9031 O   0  0  0  1  0  0  0  0  0  0  0  0
   -0.4554    5.1043    0.9686 H   0  0  0  1  0  0  0  0  0  0  0  0
    1.5043    6.0671    1.6614 H   0  0  0  1  0  0  0  0  0  0  0  0
    2.2831    5.0833    0.4455 H   0  0  0  1  0  0  0  0  0  0  0  0
    2.0533    4.4572    2.0608 H   0  0  0  1  0  0  0  0  0  0  0  0
   -3.1067    0.1969    2.5183 H   0  0  0  1  0  0  0  0  0  0  0  0
   -2.0730    0.4983    3.8942 H   0  0  0  1  0  0  0  0  0  0  0  0
   -1.4520   -0.3638    2.5067 H   0  0  0  1  0  0  0  0  0  0  0  0
   -1.3529    2.5896   -1.4217 C   0  0  0  1  0  0  0  0  0  0  0  0
   -2.7795    2.5308   -1.8961 C   0  0  0  1  0  0  0  0  0  0  0  0
   -3.1317    3.1595   -3.0803 C   0  0  0  1  0  0  0  0  0  0  0  0
   -4.4550    3.1919   -3.4782 C   0  0  0  1  0  0  0  0  0  0  0  0
   -5.4290    2.5912   -2.6960 C   0  0  0  1  0  0  0  0  0  0  0  0
   -5.0776    1.9644   -1.5154 C   0  0  0  1  0  0  0  0  0  0  0  0
   -3.7506    1.9318   -1.1161 C   0  0  0  1  0  0  0  0  0  0  0  0
   -6.7036    2.6580   -3.1517 O   0  0  0  1  0  0  0  0  0  0  0  0
   -4.7254    3.8283   -4.6438 O   0  0  0  1  0  0  0  0  0  0  0  0
   -0.8857    1.6497   -1.6298 H   0  0  0  1  0  0  0  0  0  0  0  0
   -0.8475    3.3659   -1.9573 H   0  0  0  1  0  0  0  0  0  0  0  0
   -2.4005    3.6067   -3.6693 H   0  0  0  1  0  0  0  0  0  0  0  0
   -5.8089    1.5172   -0.9265 H   0  0  0  1  0  0  0  0  0  0  0  0
   -3.4857    1.4567   -0.2297 H   0  0  0  1  0  0  0  0  0  0  0  0
   -6.8172    2.0404   -3.8778 H   0  0  0  1  0  0  0  0  0  0  0  0
   -4.5055    3.2541   -5.3810 H   0  0  0  1  0  0  0  0  0  0  0  0
  1  4  1  0  0  0  0
  2  4  1  0  0  0  0
  2  5  2  0  0  0  0
  2  6  1  0  0  0  0
  3  4  1  0  0  0  0
  3  7  1  0  0  0  0
  3  8  1  0  0  0  0
  4 19  1  0  0  0  0
  6  9  1  0  0  0  0
  6 12  1  0  0  0  0
  8 10  1  0  0  0  0
  8 11  2  0  0  0  0
  9 13  1  0  0  0  0
  9 14  1  0  0  0  0
  9 15  1  0  0  0  0
 10 16  1  0  0  0  0
 10 17  1  0  0  0  0
 10 18  1  0  0  0  0
 19 20  1  0  0  0  0
 19 28  1  0  0  0  0
 19 29  1  0  0  0  0
 20 21  4  0  0  0  0
 20 25  4  0  0  0  0
 21 22  4  0  0  0  0
 21 30  1  0  0  0  0
 22 23  4  0  0  0  0
 22 27  1  0  0  0  0
 23 24  4  0  0  0  0
 23 26  1  0  0  0  0
 24 25  4  0  0  0  0
 24 31  1  0  0  0  0
 25 32  1  0  0  0  0
 26 33  1  0  0  0  0
 27 34  1  0  0  0  0
M  END
> <BCLConfClusterSize>
1

> <ConfClashScore>
0 

> <ConfOneFourInteractionScore>
-0.974251 

> <ConfScore>
0.339974 

> <ConfScorePBest>
0.00324843 

> <ConfTolerance>
1.07589 

> <RosettaParamsInstructions>
M  ROOT 3
M  POLY_N_BB 3
M  POLY_CA_BB 4
M  POLY_C_BB 2
M  POLY_O_BB 5
M  POLY_IGNORE 9 10 11 12 13 14 15 16 17 18 
M  POLY_UPPER 6
M  POLY_LOWER 8
M  POLY_CHG 0
M  POLY_PROPERTIES ALPHA_AA D_AA PROTEIN AROMATIC POLYMER 
M  END

$$$$



 34 34  0  0  0  0  0  0  0  0999 V2000
   -1.5868    1.5629    0.4445 H   0  0  0  1  0  0  0  0  0  0  0  0
   -2.2564    3.5187    0.9474 C   0  0  0  1  0  0  0  0  0  0  0  0
    0.0643    2.8092    0.6621 N   0  0  0  1  0  0  0  0  0  0  0  0
   -1.3045    2.5725    0.2302 C   0  0  0  1  0  0  0  0  0  0  0  0
   -3.4223    3.1934    1.1680 O   0  0  0  1  0  0  0  0  0  0  0  0
   -1.7838    4.7222    1.3328 N   0  0  0  1  0  0  0  0  0  0  0  0
    0.2151    3.6078    1.2096 H   0  0  0  1  0  0  0  0  0  0  0  0
    1.1734    2.0377    0.3887 C   0  0  0  1  0  0  0  0  0  0  0  0
   -2.6733    5.6914    1.9551 C   0  0  0  1  0  0  0  0  0  0  0  0
    2.4800    2.5579    0.9131 C   0  0  0  1  0  0  0  0  0  0  0  0
    1.0569    1.0029   -0.2436 O   0  0  0  1  0  0  0  0  0  0  0  0
   -0.8395    4.9441    1.1934 H   0  0  0  1  0  0  0  0  0  0  0  0
   -3.6422    5.6270    1.5057 H   0  0  0  1  0  0  0  0  0  0  0  0
   -2.2804    6.6768    1.8155 H   0  0  0  1  0  0  0  0  0  0  0  0
   -2.7514    5.4829    3.0017 H   0  0  0  1  0  0  0  0  0  0  0  0
    2.3407    3.5441    1.3040 H   0  0  0  1  0  0  0  0  0  0  0  0
    3.1965    2.5871    0.1189 H   0  0  0  1  0  0  0  0  0  0  0  0
    2.8341    1.9132    1.6902 H   0  0  0  1  0  0  0  0  0  0  0  0
   -1.4107    2.8076   -1.2677 C   0  0  0  1  0  0  0  0  0  0  0  0
   -2.7786    2.5601   -1.8682 C   0  0  0  1  0  0  0  0  0  0  0  0
   -3.0449    2.9873   -3.1598 C   0  0  0  1  0  0  0  0  0  0  0  0
   -4.3163    2.8506   -3.6844 C   0  0  0  1  0  0  0  0  0  0  0  0
   -5.3238    2.2816   -2.9210 C   0  0  0  1  0  0  0  0  0  0  0  0
   -5.0581    1.8558   -1.6333 C   0  0  0  1  0  0  0  0  0  0  0  0
   -3.7831    1.9927   -1.1070 C   0  0  0  1  0  0  0  0  0  0  0  0
   -6.5432    2.1753   -3.5028 O   0  0  0  1  0  0  0  0  0  0  0  0
   -4.4564    3.3084   -4.9523 O   0  0  0  1  0  0  0  0  0  0  0  0
   -0.7140    2.1572   -1.7541 H   0  0  0  1  0  0  0  0  0  0  0  0
   -1.1443    3.8256   -1.4617 H   0  0  0  1  0  0  0  0  0  0  0  0
   -2.2881    3.4105   -3.7340 H   0  0  0  1  0  0  0  0  0  0  0  0
   -5.8149    1.4326   -1.0591 H   0  0  0  1  0  0  0  0  0  0  0  0
   -3.5823    1.6685   -0.1394 H   0  0  0  1  0  0  0  0  0  0  0  0
   -7.1395    2.8216   -3.1176 H   0  0  0  1  0  0  0  0  0  0  0  0
   -4.8834    4.1681   -4.9372 H   0  0  0  1  0  0  0  0  0  0  0  0
  1  4  1  0  0  0  0
  2  4  1  0  0  0  0
  2  5  2  0  0  0  0
  2  6  1  0  0  0  0
  3  4  1  0  0  0  0
  3  7  1  0  0  0  0
  3  8  1  0  0  0  0
  4 19  1  0  0  0  0
  6  9  1  0  0  0  0
  6 12  1  0  0  0  0
  8 10  1  0  0  0  0
  8 11  2  0  0  0  0
  9 13  1  0  0  0  0
  9 14  1  0  0  0  0
  9 15  1  0  0  0  0
 10 16  1  0  0  0  0
 10 17  1  0  0  0  0
 10 18  1  0  0  0  0
 19 20  1  0  0  0  0
 19 28  1  0  0  0  0
 19 29  1  0  0  0  0
 20 21  4  0  0  0  0
 20 25  4  0  0  0  0
 21 22  4  0  0  0  0
 21 30  1  0  0  0  0
 22 23  4  0  0  0  0
 22 27  1  0  0  0  0
 23 24  4  0  0  0  0
 23 26  1  0  0  0  0
 24 25  4  0  0  0  0
 24 31  1  0  0  0  0
 25 32  1  0  0  0  0
 26 33  1  0  0  0  0
 27 34  1  0  0  0  0
M  END
> <BCLConfClusterSize>
1

> <ConfClashScore>
0 

> <ConfOneFourInteractionScore>
-0.953697 

> <ConfScore>
0.341473 

> <ConfScorePBest>
0.00321995 

> <ConfTolerance>
0.875835 

> <RosettaParamsInstructions>
M  ROOT 3
M  POLY_N_BB 3
M  POLY_CA_BB 4
M  POLY_C_BB 2
M  POLY_O_BB 5
M  POLY_IGNORE 9 10 11 12 13 14 15 16 17 18 
M  POLY_UPPER 6
M  POLY_LOWER 8
M  POLY_CHG 0
M  POLY_PROPERTIES ALPHA_AA D_AA PROTEIN AROMATIC POLYMER 
M  END

$$$$



 34 34  0  0  0  0  0  0  0  0999 V2000
   -0.5802    3.5477    0.3575 H   0  0  0  1  0  0  0  0  0  0  0  0
   -2.5316    4.2953    0.1316 C   0  0  0  1  0  0  0  0  0  0  0  0
   -0.5232    4.9623   -1.1426 N   0  0  0  1  0  0  0  0  0  0  0  0
   -1.2007    3.8653   -0.4542 C   0  0  0  1  0  0  0  0  0  0  0  0
   -3.0291    3.7027    1.0755 O   0  0  0  1  0  0  0  0  0  0  0  0
   -3.1107    5.3549   -0.4532 N   0  0  0  1  0  0  0  0  0  0  0  0
   -1.0016    5.7872   -1.3688 H   0  0  0  1  0  0  0  0  0  0  0  0
    0.7794    4.8070   -1.4577 C   0  0  0  1  0  0  0  0  0  0  0  0
   -4.3093    5.9440    0.1249 C   0  0  0  1  0  0  0  0  0  0  0  0
    1.5149    5.9908   -2.0439 C   0  0  0  1  0  0  0  0  0  0  0  0
    1.3495    3.7432   -1.2760 O   0  0  0  1  0  0  0  0  0  0  0  0
   -2.7258    5.7330   -1.2713 H   0  0  0  1  0  0  0  0  0  0  0  0
   -4.5638    6.8345   -0.4110 H   0  0  0  1  0  0  0  0  0  0  0  0
   -4.1284    6.1853    1.1515 H   0  0  0  1  0  0  0  0  0  0  0  0
   -5.1171    5.2454    0.0592 H   0  0  0  1  0  0  0  0  0  0  0  0
    1.3319    6.8577   -1.4440 H   0  0  0  1  0  0  0  0  0  0  0  0
    1.1686    6.1676   -3.0407 H   0  0  0  1  0  0  0  0  0  0  0  0
    2.5648    5.7849   -2.0617 H   0  0  0  1  0  0  0  0  0  0  0  0
   -1.3647    2.6692   -1.3966 C   0  0  0  1  0  0  0  0  0  0  0  0
   -2.7790    2.5159   -1.9211 C   0  0  0  1  0  0  0  0  0  0  0  0
   -3.1315    2.9395   -3.1931 C   0  0  0  1  0  0  0  0  0  0  0  0
   -4.4497    2.8727   -3.6029 C   0  0  0  1  0  0  0  0  0  0  0  0
   -5.4185    2.3772   -2.7442 C   0  0  0  1  0  0  0  0  0  0  0  0
   -5.0669    1.9549   -1.4761 C   0  0  0  1  0  0  0  0  0  0  0  0
   -3.7448    2.0218   -1.0647 C   0  0  0  1  0  0  0  0  0  0  0  0
   -6.7224    2.2874   -3.1026 O   0  0  0  1  0  0  0  0  0  0  0  0
   -4.7209    3.3091   -4.8570 O   0  0  0  1  0  0  0  0  0  0  0  0
   -1.0999    1.7786   -0.8658 H   0  0  0  1  0  0  0  0  0  0  0  0
   -0.7049    2.7984   -2.2290 H   0  0  0  1  0  0  0  0  0  0  0  0
   -2.4040    3.3075   -3.8388 H   0  0  0  1  0  0  0  0  0  0  0  0
   -5.7943    1.5869   -0.8303 H   0  0  0  1  0  0  0  0  0  0  0  0
   -3.4797    1.7002   -0.1119 H   0  0  0  1  0  0  0  0  0  0  0  0
   -6.8184    2.5308   -4.0262 H   0  0  0  1  0  0  0  0  0  0  0  0
   -4.5283    4.2476   -4.9183 H   0  0  0  1  0  0  0  0  0  0  0  0
  1  4  1  0  0  0  0
  2  4  1  0  0  0  0
  2  5  2  0  0  0  0
  2  6  1  0  0  0  0
  3  4  1  0  0  0  0
  3  7  1  0  0  0  0
  3  8  1  0  0  0  0
  4 19  1  0  0  0  0
  6  9  1  0  0  0  0
  6 12  1  0  0  0  0
  8 10  1  0  0  0  0
  8 11  2  0  0  0  0
  9 13  1  0  0  0  0
  9 14  1  0  0  0  0
  9 15  1  0  0  0  0
 10 16  1  0  0  0  0
 10 17  1  0  0  0  0
 10 18  1  0  0  0  0
 19 20  1  0  0  0  0
 19 28  1  0  0  0  0
 19 29  1  0  0  0  0
 20 21  4  0  0  0  0
 20 25  4  0  0  0  0
 21 22  4  0  0  0  0
 21 30  1  0  0  0  0
 22 23  4  0  0  0  0
 22 27  1  0  0  0  0
 23 24  4  0  0  0  0
 23 26  1  0  0  0  0
 24 25  4  0  0  0  0
 24 31  1  0  0  0  0
 25 32  1  0  0  0  0
 26 33  1  0  0  0  0
 27 34  1  0  0  0  0
M  END
> <BCLConfClusterSize>
1

> <ConfClashScore>
0 

> <ConfOneFourInteractionScore>
-0.951423 

> <ConfScore>
0.341782 

> <ConfScorePBest>
0.00319147 

> <ConfTolerance>
0.999073 

> <RosettaParamsInstructions>
M  ROOT 3
M  POLY_N_BB 3
M  POLY_CA_BB 4
M  POLY_C_BB 2
M  POLY_O_BB 5
M  POLY_IGNORE 9 10 11 12 13 14 15 16 17 18 
M  POLY_UPPER 6
M  POLY_LOWER 8
M  POLY_CHG 0
M  POLY_PROPERTIES ALPHA_AA D_AA PROTEIN AROMATIC POLYMER 
M  END

$$$$



 34 34  0  0  0  0  0  0  0  0999 V2000
   -0.7972    4.5913   -2.2503 H   0  0  0  1  0  0  0  0  0  0  0  0
    0.3061    4.4217   -0.4718 C   0  0  0  1  0  0  0  0  0  0  0  0
   -2.0456    5.1261   -0.7010 N   0  0  0  1  0  0  0  0  0  0  0  0
   -0.9882    4.2810   -1.2443 C   0  0  0  1  0  0  0  0  0  0  0  0
    1.1079    3.4928   -0.3822 O   0  0  0  1  0  0  0  0  0  0  0  0
    0.4729    5.6262    0.0817 N   0  0  0  1  0  0  0  0  0  0  0  0
   -2.3878    5.8462   -1.2709 H   0  0  0  1  0  0  0  0  0  0  0  0
   -2.5820    4.9926    0.5130 C   0  0  0  1  0  0  0  0  0  0  0  0
    1.5994    5.9334    0.9503 C   0  0  0  1  0  0  0  0  0  0  0  0
   -3.7344    5.9256    0.8302 C   0  0  0  1  0  0  0  0  0  0  0  0
   -2.1839    4.1773    1.3294 O   0  0  0  1  0  0  0  0  0  0  0  0
   -0.1863    6.3273   -0.1036 H   0  0  0  1  0  0  0  0  0  0  0  0
    1.3251    5.7525    1.9685 H   0  0  0  1  0  0  0  0  0  0  0  0
    1.8710    6.9615    0.8316 H   0  0  0  1  0  0  0  0  0  0  0  0
    2.4305    5.3120    0.6893 H   0  0  0  1  0  0  0  0  0  0  0  0
   -4.5477    5.7282    0.1634 H   0  0  0  1  0  0  0  0  0  0  0  0
   -3.4148    6.9398    0.7120 H   0  0  0  1  0  0  0  0  0  0  0  0
   -4.0541    5.7670    1.8389 H   0  0  0  1  0  0  0  0  0  0  0  0
   -1.4476    2.8332   -1.2985 C   0  0  0  1  0  0  0  0  0  0  0  0
   -2.8171    2.6126   -1.8812 C   0  0  0  1  0  0  0  0  0  0  0  0
   -3.1433    3.1923   -3.0974 C   0  0  0  1  0  0  0  0  0  0  0  0
   -4.4266    3.0742   -3.5970 C   0  0  0  1  0  0  0  0  0  0  0  0
   -5.3859    2.3716   -2.8847 C   0  0  0  1  0  0  0  0  0  0  0  0
   -5.0605    1.7936   -1.6721 C   0  0  0  1  0  0  0  0  0  0  0  0
   -3.7736    1.9119   -1.1708 C   0  0  0  1  0  0  0  0  0  0  0  0
   -6.6653    2.1994   -3.2973 O   0  0  0  1  0  0  0  0  0  0  0  0
   -4.6740    3.6709   -4.7884 O   0  0  0  1  0  0  0  0  0  0  0  0
   -1.4482    2.4494   -0.2997 H   0  0  0  1  0  0  0  0  0  0  0  0
   -0.7447    2.2858   -1.8911 H   0  0  0  1  0  0  0  0  0  0  0  0
   -2.4225    3.7160   -3.6338 H   0  0  0  1  0  0  0  0  0  0  0  0
   -5.7814    1.2699   -1.1357 H   0  0  0  1  0  0  0  0  0  0  0  0
   -3.5278    1.4736   -0.2603 H   0  0  0  1  0  0  0  0  0  0  0  0
   -7.2204    2.8821   -2.9135 H   0  0  0  1  0  0  0  0  0  0  0  0
   -4.0770    3.3194   -5.4530 H   0  0  0  1  0  0  0  0  0  0  0  0
  1  4  1  0  0  0  0
  2  4  1  0  0  0  0
  2  5  2  0  0  0  0
  2  6  1  0  0  0  0
  3  4  1  0  0  0  0
  3  7  1  0  0  0  0
  3  8  1  0  0  0  0
  4 19  1  0  0  0  0
  6  9  1  0  0  0  0
  6 12  1  0  0  0  0
  8 10  1  0  0  0  0
  8 11  2  0  0  0  0
  9 13  1  0  0  0  0
  9 14  1  0  0  0  0
  9 15  1  0  0  0  0
 10 16  1  0  0  0  0
 10 17  1  0  0  0  0
 10 18  1  0  0  0  0
 19 20  1  0  0  0  0
 19 28  1  0  0  0  0
 19 29  1  0  0  0  0
 20 21  4  0  0  0  0
 20 25  4  0  0  0  0
 21 22  4  0  0  0  0
 21 30  1  0  0  0  0
 22 23  4  0  0  0  0
 22 27  1  0  0  0  0
 23 24  4  0  0  0  0
 23 26  1  0  0  0  0
 24 25  4  0  0  0  0
 24 31  1  0  0  0  0
 25 32  1  0  0  0  0
 26 33  1  0  0  0  0
 27 34  1  0  0  0  0
M  END
> <BCLConfClusterSize>
1

> <ConfClashScore>
0 

> <ConfOneFourInteractionScore>
-0.938304 

> <ConfScore>
0.344442 

> <ConfScorePBest>
0.00316299 

> <ConfTolerance>
0.893063 

> <RosettaParamsInstructions>
M  ROOT 3
M  POLY_N_BB 3
M  POLY_CA_BB 4
M  POLY_C_BB 2
M  POLY_O_BB 5
M  POLY_IGNORE 9 10 11 12 13 14 15 16 17 18 
M  POLY_UPPER 6
M  POLY_LOWER 8
M  POLY_CHG 0
M  POLY_PROPERTIES ALPHA_AA D_AA PROTEIN AROMATIC POLYMER 
M  END

$$$$



 34 34  0  0  0  0  0  0  0  0999 V2000
   -0.5556    1.0744   -2.1818 H   0  0  0  1  0  0  0  0  0  0  0  0
    0.9980    2.2174   -1.3119 C   0  0  0  1  0  0  0  0  0  0  0  0
   -0.2468    2.7358   -3.3731 N   0  0  0  1  0  0  0  0  0  0  0  0
   -0.3222    2.1118   -2.0619 C   0  0  0  1  0  0  0  0  0  0  0  0
    1.4721    3.3146   -1.0204 O   0  0  0  1  0  0  0  0  0  0  0  0
    1.6246    1.0848   -0.9806 N   0  0  0  1  0  0  0  0  0  0  0  0
   -0.4514    3.6890   -3.4735 H   0  0  0  1  0  0  0  0  0  0  0  0
    0.1041    2.0054   -4.4518 C   0  0  0  1  0  0  0  0  0  0  0  0
    2.9375    1.0777   -0.3529 C   0  0  0  1  0  0  0  0  0  0  0  0
   -0.0462    2.6969   -5.7929 C   0  0  0  1  0  0  0  0  0  0  0  0
    0.5206    0.8527   -4.3723 O   0  0  0  1  0  0  0  0  0  0  0  0
    1.1847    0.2291   -1.1669 H   0  0  0  1  0  0  0  0  0  0  0  0
    3.4240    0.1459   -0.5529 H   0  0  0  1  0  0  0  0  0  0  0  0
    2.8278    1.2028    0.7041 H   0  0  0  1  0  0  0  0  0  0  0  0
    3.5260    1.8791   -0.7482 H   0  0  0  1  0  0  0  0  0  0  0  0
    0.2015    2.0127   -6.5773 H   0  0  0  1  0  0  0  0  0  0  0  0
    0.6111    3.5402   -5.8346 H   0  0  0  1  0  0  0  0  0  0  0  0
   -1.0573    3.0259   -5.9129 H   0  0  0  1  0  0  0  0  0  0  0  0
   -1.4474    2.7604   -1.2489 C   0  0  0  1  0  0  0  0  0  0  0  0
   -2.8116    2.6019   -1.8911 C   0  0  0  1  0  0  0  0  0  0  0  0
   -3.1179    3.2020   -3.1026 C   0  0  0  1  0  0  0  0  0  0  0  0
   -4.4001    3.1163   -3.6115 C   0  0  0  1  0  0  0  0  0  0  0  0
   -5.3784    2.4259   -2.9131 C   0  0  0  1  0  0  0  0  0  0  0  0
   -5.0729    1.8276   -1.7053 C   0  0  0  1  0  0  0  0  0  0  0  0
   -3.7870    1.9134   -1.1947 C   0  0  0  1  0  0  0  0  0  0  0  0
   -6.6476    2.3101   -3.3738 O   0  0  0  1  0  0  0  0  0  0  0  0
   -4.6761    3.7157   -4.7952 O   0  0  0  1  0  0  0  0  0  0  0  0
   -1.2372    3.8048   -1.1493 H   0  0  0  1  0  0  0  0  0  0  0  0
   -1.4724    2.3072   -0.2799 H   0  0  0  1  0  0  0  0  0  0  0  0
   -2.3829    3.7166   -3.6286 H   0  0  0  1  0  0  0  0  0  0  0  0
   -5.8078    1.3130   -1.1794 H   0  0  0  1  0  0  0  0  0  0  0  0
   -3.5562    1.4598   -0.2878 H   0  0  0  1  0  0  0  0  0  0  0  0
   -7.2636    2.5683   -2.6842 H   0  0  0  1  0  0  0  0  0  0  0  0
   -4.0735    3.3898   -5.4677 H   0  0  0  1  0  0  0  0  0  0  0  0
  1  4  1  0  0  0  0
  2  4  1  0  0  0  0
  2  5  2  0  0  0  0
  2  6  1  0  0  0  0
  3  4  1  0  0  0  0
  3  7  1  0  0  0  0
  3  8  1  0  0  0  0
  4 19  1  0  0  0  0
  6  9  1  0  0  0  0
  6 12  1  0  0  0  0
  8 10  1  0  0  0  0
  8 11  2  0  0  0  0
  9 13  1  0  0  0  0
  9 14  1  0  0  0  0
  9 15  1  0  0  0  0
 10 16  1  0  0  0  0
 10 17  1  0  0  0  0
 10 18  1  0  0  0  0
 19 20  1  0  0  0  0
 19 28  1  0  0  0  0
 19 29  1  0  0  0  0
 20 21  4  0  0  0  0
 20 25  4  0  0  0  0
 21 22  4  0  0  0  0
 21 30  1  0  0  0  0
 22 23  4  0  0  0  0
 22 27  1  0  0  0  0
 23 24  4  0  0  0  0
 23 26  1  0  0  0  0
 24 25  4  0  0  0  0
 24 31  1  0  0  0  0
 25 32  1  0  0  0  0
 26 33  1  0  0  0  0
 27 34  1  0  0  0  0
M  END
> <BCLConfClusterSize>
1

> <ConfClashScore>
0 

> <ConfOneFourInteractionScore>
-0.981931 

> <ConfScore>
0.346243 

> <ConfScorePBest>
0.00313451 

> <ConfTolerance>
0.881374 

> <RosettaParamsInstructions>
M  ROOT 3
M  POLY_N_BB 3
M  POLY_CA_BB 4
M  POLY_C_BB 2
M  POLY_O_BB 5
M  POLY_IGNORE 9 10 11 12 13 14 15 16 17 18 
M  POLY_UPPER 6
M  POLY_LOWER 8
M  POLY_CHG 0
M  POLY_PROPERTIES ALPHA_AA D_AA PROTEIN AROMATIC POLYMER 
M  END

$$$$



 34 34  0  0  0  0  0  0  0  0999 V2000
   -1.8288    1.9205    0.5212 H   0  0  0  1  0  0  0  0  0  0  0  0
   -2.0783    4.0340    0.4280 C   0  0  0  1  0  0  0  0  0  0  0  0
    0.0422    2.8210    0.5507 N   0  0  0  1  0  0  0  0  0  0  0  0
   -1.3294    2.7469    0.0600 C   0  0  0  1  0  0  0  0  0  0  0  0
   -3.3044    4.0678    0.3652 O   0  0  0  1  0  0  0  0  0  0  0  0
   -1.3381    5.0529    0.8909 N   0  0  0  1  0  0  0  0  0  0  0  0
    0.7789    2.7131   -0.0865 H   0  0  0  1  0  0  0  0  0  0  0  0
    0.3286    3.0306    1.8365 C   0  0  0  1  0  0  0  0  0  0  0  0
   -1.9350    6.2747    1.4093 C   0  0  0  1  0  0  0  0  0  0  0  0
    1.8156    3.1408    2.1482 C   0  0  0  1  0  0  0  0  0  0  0  0
   -0.5109    3.2088    2.7180 O   0  0  0  1  0  0  0  0  0  0  0  0
   -0.3616    4.9715    0.8795 H   0  0  0  1  0  0  0  0  0  0  0  0
   -2.2147    6.1296    2.4319 H   0  0  0  1  0  0  0  0  0  0  0  0
   -2.8032    6.5194    0.8336 H   0  0  0  1  0  0  0  0  0  0  0  0
   -1.2261    7.0734    1.3436 H   0  0  0  1  0  0  0  0  0  0  0  0
    2.3301    3.5391    1.2987 H   0  0  0  1  0  0  0  0  0  0  0  0
    2.2045    2.1708    2.3778 H   0  0  0  1  0  0  0  0  0  0  0  0
    1.9568    3.7900    2.9869 H   0  0  0  1  0  0  0  0  0  0  0  0
   -1.3693    2.5537   -1.4566 C   0  0  0  1  0  0  0  0  0  0  0  0
   -2.8004    2.4859   -1.9524 C   0  0  0  1  0  0  0  0  0  0  0  0
   -3.1139    2.9907   -3.2048 C   0  0  0  1  0  0  0  0  0  0  0  0
   -4.4291    3.0191   -3.6289 C   0  0  0  1  0  0  0  0  0  0  0  0
   -5.4340    2.5380   -2.8041 C   0  0  0  1  0  0  0  0  0  0  0  0
   -5.1213    2.0348   -1.5555 C   0  0  0  1  0  0  0  0  0  0  0  0
   -3.8023    2.0061   -1.1300 C   0  0  0  1  0  0  0  0  0  0  0  0
   -6.7367    2.5402   -3.1777 O   0  0  0  1  0  0  0  0  0  0  0  0
   -4.6609    3.5313   -4.8620 O   0  0  0  1  0  0  0  0  0  0  0  0
   -0.8675    1.6426   -1.7075 H   0  0  0  1  0  0  0  0  0  0  0  0
   -0.8733    3.3763   -1.9281 H   0  0  0  1  0  0  0  0  0  0  0  0
   -2.3596    3.3479   -3.8253 H   0  0  0  1  0  0  0  0  0  0  0  0
   -5.8756    1.6775   -0.9351 H   0  0  0  1  0  0  0  0  0  0  0  0
   -3.5666    1.6237   -0.1920 H   0  0  0  1  0  0  0  0  0  0  0  0
   -7.0141    1.6433   -3.3783 H   0  0  0  1  0  0  0  0  0  0  0  0
   -4.1393    4.3284   -4.9812 H   0  0  0  1  0  0  0  0  0  0  0  0
  1  4  1  0  0  0  0
  2  4  1  0  0  0  0
  2  5  2  0  0  0  0
  2  6  1  0  0  0  0
  3  4  1  0  0  0  0
  3  7  1  0  0  0  0
  3  8  1  0  0  0  0
  4 19  1  0  0  0  0
  6  9  1  0  0  0  0
  6 12  1  0  0  0  0
  8 10  1  0  0  0  0
  8 11  2  0  0  0  0
  9 13  1  0  0  0  0
  9 14  1  0  0  0  0
  9 15  1  0  0  0  0
 10 16  1  0  0  0  0
 10 17  1  0  0  0  0
 10 18  1  0  0  0  0
 19 20  1  0  0  0  0
 19 28  1  0  0  0  0
 19 29  1  0  0  0  0
 20 21  4  0  0  0  0
 20 25  4  0  0  0  0
 21 22  4  0  0  0  0
 21 30  1  0  0  0  0
 22 23  4  0  0  0  0
 22 27  1  0  0  0  0
 23 24  4  0  0  0  0
 23 26  1  0  0  0  0
 24 25  4  0  0  0  0
 24 31  1  0  0  0  0
 25 32  1  0  0  0  0
 26 33  1  0  0  0  0
 27 34  1  0  0  0  0
M  END
> <BCLConfClusterSize>
1

> <ConfClashScore>
0 

> <ConfOneFourInteractionScore>
-0.934209 

> <ConfScore>
0.346457 

> <ConfScorePBest>
0.00310603 

> <ConfTolerance>
0.960289 

> <RosettaParamsInstructions>
M  ROOT 3
M  POLY_N_BB 3
M  POLY_CA_BB 4
M  POLY_C_BB 2
M  POLY_O_BB 5
M  POLY_IGNORE 9 10 11 12 13 14 15 16 17 18 
M  POLY_UPPER 6
M  POLY_LOWER 8
M  POLY_CHG 0
M  POLY_PROPERTIES ALPHA_AA D_AA PROTEIN AROMATIC POLYMER 
M  END

$$$$



 34 34  0  0  0  0  0  0  0  0999 V2000
   -0.0193    3.9168   -0.5442 H   0  0  0  1  0  0  0  0  0  0  0  0
   -1.5649    3.5341    0.9215 C   0  0  0  1  0  0  0  0  0  0  0  0
   -1.6587    4.9487   -1.1305 N   0  0  0  1  0  0  0  0  0  0  0  0
   -1.0805    3.7831   -0.5705 C   0  0  0  1  0  0  0  0  0  0  0  0
   -1.5596    4.4900    1.6960 O   0  0  0  1  0  0  0  0  0  0  0  0
   -1.9552    2.2958    1.2628 N   0  0  0  1  0  0  0  0  0  0  0  0
   -1.2404    5.3202   -1.9351 H   0  0  0  1  0  0  0  0  0  0  0  0
   -2.7801    5.6083   -0.6223 C   0  0  0  1  0  0  0  0  0  0  0  0
   -2.3501    1.9518    2.6206 C   0  0  0  1  0  0  0  0  0  0  0  0
   -3.1677    6.8909   -1.3321 C   0  0  0  1  0  0  0  0  0  0  0  0
   -3.4236    5.1913    0.3371 O   0  0  0  1  0  0  0  0  0  0  0  0
   -1.9749    1.5993    0.5737 H   0  0  0  1  0  0  0  0  0  0  0  0
   -2.2394    2.8081    3.2526 H   0  0  0  1  0  0  0  0  0  0  0  0
   -1.7291    1.1592    2.9824 H   0  0  0  1  0  0  0  0  0  0  0  0
   -3.3722    1.6352    2.6251 H   0  0  0  1  0  0  0  0  0  0  0  0
   -3.7987    6.6614   -2.1653 H   0  0  0  1  0  0  0  0  0  0  0  0
   -2.2854    7.3869   -1.6792 H   0  0  0  1  0  0  0  0  0  0  0  0
   -3.6926    7.5296   -0.6528 H   0  0  0  1  0  0  0  0  0  0  0  0
   -1.3637    2.5767   -1.4559 C   0  0  0  1  0  0  0  0  0  0  0  0
   -2.7923    2.5128   -1.9263 C   0  0  0  1  0  0  0  0  0  0  0  0
   -3.1382    3.0879   -3.1393 C   0  0  0  1  0  0  0  0  0  0  0  0
   -4.4614    3.1175   -3.5374 C   0  0  0  1  0  0  0  0  0  0  0  0
   -5.4419    2.5674   -2.7265 C   0  0  0  1  0  0  0  0  0  0  0  0
   -5.0968    1.9942   -1.5172 C   0  0  0  1  0  0  0  0  0  0  0  0
   -3.7698    1.9644   -1.1176 C   0  0  0  1  0  0  0  0  0  0  0  0
   -6.7611    2.5459   -3.0360 O   0  0  0  1  0  0  0  0  0  0  0  0
   -4.8490    3.6729   -4.7113 O   0  0  0  1  0  0  0  0  0  0  0  0
   -1.1482    1.6882   -0.9001 H   0  0  0  1  0  0  0  0  0  0  0  0
   -0.7249    2.6257   -2.3129 H   0  0  0  1  0  0  0  0  0  0  0  0
   -2.4021    3.4970   -3.7496 H   0  0  0  1  0  0  0  0  0  0  0  0
   -5.8328    1.5851   -0.9069 H   0  0  0  1  0  0  0  0  0  0  0  0
   -3.5097    1.5294   -0.2095 H   0  0  0  1  0  0  0  0  0  0  0  0
   -6.9121    1.9255   -3.7528 H   0  0  0  1  0  0  0  0  0  0  0  0
   -4.0921    3.7442   -5.2975 H   0  0  0  1  0  0  0  0  0  0  0  0
  1  4  1  0  0  0  0
  2  4  1  0  0  0  0
  2  5  2  0  0  0  0
  2  6  1  0  0  0  0
  3  4  1  0  0  0  0
  3  7  1  0  0  0  0
  3  8  1  0  0  0  0
  4 19  1  0  0  0  0
  6  9  1  0  0  0  0
  6 12  1  0  0  0  0
  8 10  1  0  0  0  0
  8 11  2  0  0  0  0
  9 13  1  0  0  0  0
  9 14  1  0  0  0  0
  9 15  1  0  0  0  0
 10 16  1  0  0  0  0
 10 17  1  0  0  0  0
 10 18  1  0  0  0  0
 19 20  1  0  0  0  0
 19 28  1  0  0  0  0
 19 29  1  0  0  0  0
 20 21  4  0  0  0  0
 20 25  4  0  0  0  0
 21 22  4  0  0  0  0
 21 30  1  0  0  0  0
 22 23  4  0  0  0  0
 22 27  1  0  0  0  0
 23 24  4  0  0  0  0
 23 26  1  0  0  0  0
 24 25  4  0  0  0  0
 24 31  1  0  0  0  0
 25 32  1  0  0  0  0
 26 33  1  0  0  0  0
 27 34  1  0  0  0  0
M  END
> <BCLConfClusterSize>
1

> <ConfClashScore>
0.000588439 

> <ConfOneFourInteractionScore>
-0.944279 

> <ConfScore>
0.350144 

> <ConfScorePBest>
0.00307755 

> <ConfTolerance>
0.462423 

> <RosettaParamsInstructions>
M  ROOT 3
M  POLY_N_BB 3
M  POLY_CA_BB 4
M  POLY_C_BB 2
M  POLY_O_BB 5
M  POLY_IGNORE 9 10 11 12 13 14 15 16 17 18 
M  POLY_UPPER 6
M  POLY_LOWER 8
M  POLY_CHG 0
M  POLY_PROPERTIES ALPHA_AA D_AA PROTEIN AROMATIC POLYMER 
M  END

$$$$



 34 34  0  0  0  0  0  0  0  0999 V2000
    0.0956    1.4349   -0.4363 H   0  0  0  1  0  0  0  0  0  0  0  0
    0.5492    1.6515   -2.4468 C   0  0  0  1  0  0  0  0  0  0  0  0
   -1.1988    0.1891   -1.4152 N   0  0  0  1  0  0  0  0  0  0  0  0
   -0.4769    1.4824   -1.3390 C   0  0  0  1  0  0  0  0  0  0  0  0
    1.4786    0.8714   -2.5734 O   0  0  0  1  0  0  0  0  0  0  0  0
    0.3613    2.7027   -3.2603 N   0  0  0  1  0  0  0  0  0  0  0  0
   -1.5799   -0.1666   -0.5854 H   0  0  0  1  0  0  0  0  0  0  0  0
   -1.3705   -0.5345   -2.5409 C   0  0  0  1  0  0  0  0  0  0  0  0
    1.3905    3.1702   -4.1768 C   0  0  0  1  0  0  0  0  0  0  0  0
   -1.9970   -1.9049   -2.4164 C   0  0  0  1  0  0  0  0  0  0  0  0
   -1.0281   -0.0946   -3.6376 O   0  0  0  1  0  0  0  0  0  0  0  0
   -0.4989    3.1716   -3.2362 H   0  0  0  1  0  0  0  0  0  0  0  0
    1.8977    4.0085   -3.7468 H   0  0  0  1  0  0  0  0  0  0  0  0
    0.9382    3.4631   -5.1013 H   0  0  0  1  0  0  0  0  0  0  0  0
    2.0924    2.3827   -4.3563 H   0  0  0  1  0  0  0  0  0  0  0  0
   -2.2717   -2.0808   -1.3973 H   0  0  0  1  0  0  0  0  0  0  0  0
   -1.2938   -2.6481   -2.7294 H   0  0  0  1  0  0  0  0  0  0  0  0
   -2.8691   -1.9555   -3.0343 H   0  0  0  1  0  0  0  0  0  0  0  0
   -1.4024    2.6641   -1.1558 C   0  0  0  1  0  0  0  0  0  0  0  0
   -2.7433    2.5440   -1.8292 C   0  0  0  1  0  0  0  0  0  0  0  0
   -2.9301    3.1033   -3.0837 C   0  0  0  1  0  0  0  0  0  0  0  0
   -4.1810    3.0807   -3.6710 C   0  0  0  1  0  0  0  0  0  0  0  0
   -5.2477    2.4942   -3.0079 C   0  0  0  1  0  0  0  0  0  0  0  0
   -5.0613    1.9366   -1.7571 C   0  0  0  1  0  0  0  0  0  0  0  0
   -3.8068    1.9591   -1.1679 C   0  0  0  1  0  0  0  0  0  0  0  0
   -6.4909    2.4432   -3.5449 O   0  0  0  1  0  0  0  0  0  0  0  0
   -4.4140    3.6188   -4.8928 O   0  0  0  1  0  0  0  0  0  0  0  0
   -0.9126    3.5309   -1.5480 H   0  0  0  1  0  0  0  0  0  0  0  0
   -1.5700    2.7926   -0.1069 H   0  0  0  1  0  0  0  0  0  0  0  0
   -2.1290    3.5398   -3.5830 H   0  0  0  1  0  0  0  0  0  0  0  0
   -5.8624    1.5001   -1.2578 H   0  0  0  1  0  0  0  0  0  0  0  0
   -3.6657    1.5359   -0.2284 H   0  0  0  1  0  0  0  0  0  0  0  0
   -7.1281    2.2322   -2.8585 H   0  0  0  1  0  0  0  0  0  0  0  0
   -5.3604    3.6687   -5.0458 H   0  0  0  1  0  0  0  0  0  0  0  0
  1  4  1  0  0  0  0
  2  4  1  0  0  0  0
  2  5  2  0  0  0  0
  2  6  1  0  0  0  0
  3  4  1  0  0  0  0
  3  7  1  0  0  0  0
  3  8  1  0  0  0  0
  4 19  1  0  0  0  0
  6  9  1  0  0  0  0
  6 12  1  0  0  0  0
  8 10  1  0  0  0  0
  8 11  2  0  0  0  0
  9 13  1  0  0  0  0
  9 14  1  0  0  0  0
  9 15  1  0  0  0  0
 10 16  1  0  0  0  0
 10 17  1  0  0  0  0
 10 18  1  0  0  0  0
 19 20  1  0  0  0  0
 19 28  1  0  0  0  0
 19 29  1  0  0  0  0
 20 21  4  0  0  0  0
 20 25  4  0  0  0  0
 21 22  4  0  0  0  0
 21 30  1  0  0  0  0
 22 23  4  0  0  0  0
 22 27  1  0  0  0  0
 23 24  4  0  0  0  0
 23 26  1  0  0  0  0
 24 25  4  0  0  0  0
 24 31  1  0  0  0  0
 25 32  1  0  0  0  0
 26 33  1  0  0  0  0
 27 34  1  0  0  0  0
M  END
> <BCLConfClusterSize>
1

> <ConfClashScore>
0 

> <ConfOneFourInteractionScore>
-0.90437 

> <ConfScore>
0.351079 

> <ConfScorePBest>
0.00304907 

> <ConfTolerance>
0.517822 

> <RosettaParamsInstructions>
M  ROOT 3
M  POLY_N_BB 3
M  POLY_CA_BB 4
M  POLY_C_BB 2
M  POLY_O_BB 5
M  POLY_IGNORE 9 10 11 12 13 14 15 16 17 18 
M  POLY_UPPER 6
M  POLY_LOWER 8
M  POLY_CHG 0
M  POLY_PROPERTIES ALPHA_AA D_AA PROTEIN AROMATIC POLYMER 
M  END

$$$$



 34 34  0  0  0  0  0  0  0  0999 V2000
   -2.0272    4.5421   -0.2605 H   0  0  0  1  0  0  0  0  0  0  0  0
   -1.0459    5.1498   -2.0053 C   0  0  0  1  0  0  0  0  0  0  0  0
   -0.0028    4.3156    0.0627 N   0  0  0  1  0  0  0  0  0  0  0  0
   -1.1787    4.2110   -0.8221 C   0  0  0  1  0  0  0  0  0  0  0  0
   -1.4852    6.2960   -1.9620 O   0  0  0  1  0  0  0  0  0  0  0  0
   -0.4248    4.6454   -3.0832 N   0  0  0  1  0  0  0  0  0  0  0  0
    0.2252    3.5336    0.6075 H   0  0  0  1  0  0  0  0  0  0  0  0
    0.7734    5.3944    0.1769 C   0  0  0  1  0  0  0  0  0  0  0  0
   -0.1697    5.4393   -4.2759 C   0  0  0  1  0  0  0  0  0  0  0  0
    1.9184    5.2789    1.1575 C   0  0  0  1  0  0  0  0  0  0  0  0
    0.5853    6.4257   -0.4660 O   0  0  0  1  0  0  0  0  0  0  0  0
   -0.1329    3.7100   -3.0663 H   0  0  0  1  0  0  0  0  0  0  0  0
   -0.4524    4.8809   -5.1438 H   0  0  0  1  0  0  0  0  0  0  0  0
    0.8720    5.6778   -4.3293 H   0  0  0  1  0  0  0  0  0  0  0  0
   -0.7412    6.3428   -4.2317 H   0  0  0  1  0  0  0  0  0  0  0  0
    2.4970    4.4080    0.9300 H   0  0  0  1  0  0  0  0  0  0  0  0
    1.5299    5.1991    2.1512 H   0  0  0  1  0  0  0  0  0  0  0  0
    2.5386    6.1478    1.0851 H   0  0  0  1  0  0  0  0  0  0  0  0
   -1.4409    2.7568   -1.1912 C   0  0  0  1  0  0  0  0  0  0  0  0
   -2.7935    2.6074   -1.8597 C   0  0  0  1  0  0  0  0  0  0  0  0
   -3.0807    3.2302   -3.0644 C   0  0  0  1  0  0  0  0  0  0  0  0
   -4.3537    3.1513   -3.5968 C   0  0  0  1  0  0  0  0  0  0  0  0
   -5.3419    2.4449   -2.9289 C   0  0  0  1  0  0  0  0  0  0  0  0
   -5.0554    1.8241   -1.7278 C   0  0  0  1  0  0  0  0  0  0  0  0
   -3.7787    1.9031   -1.1937 C   0  0  0  1  0  0  0  0  0  0  0  0
   -6.6028    2.3351   -3.4134 O   0  0  0  1  0  0  0  0  0  0  0  0
   -4.6112    3.7730   -4.7732 O   0  0  0  1  0  0  0  0  0  0  0  0
   -1.4207    2.1603   -0.3032 H   0  0  0  1  0  0  0  0  0  0  0  0
   -0.6785    2.4225   -1.8635 H   0  0  0  1  0  0  0  0  0  0  0  0
   -2.3383    3.7568   -3.5676 H   0  0  0  1  0  0  0  0  0  0  0  0
   -5.7978    1.2975   -1.2246 H   0  0  0  1  0  0  0  0  0  0  0  0
   -3.5622    1.4325   -0.2919 H   0  0  0  1  0  0  0  0  0  0  0  0
   -7.2281    2.6388   -2.7514 H   0  0  0  1  0  0  0  0  0  0  0  0
   -4.4378    3.1694   -5.4993 H   0  0  0  1  0  0  0  0  0  0  0  0
  1  4  1  0  0  0  0
  2  4  1  0  0  0  0
  2  5  2  0  0  0  0
  2  6  1  0  0  0  0
  3  4  1  0  0  0  0
  3  7  1  0  0  0  0
  3  8  1  0  0  0  0
  4 19  1  0  0  0  0
  6  9  1  0  0  0  0
  6 12  1  0  0  0  0
  8 10  1  0  0  0  0
  8 11  2  0  0  0  0
  9 13  1  0  0  0  0
  9 14  1  0  0  0  0
  9 15  1  0  0  0  0
 10 16  1  0  0  0  0
 10 17  1  0  0  0  0
 10 18  1  0  0  0  0
 19 20  1  0  0  0  0
 19 28  1  0  0  0  0
 19 29  1  0  0  0  0
 20 21  4  0  0  0  0
 20 25  4  0  0  0  0
 21 22  4  0  0  0  0
 21 30  1  0  0  0  0
 22 23  4  0  0  0  0
 22 27  1  0  0  0  0
 23 24  4  0  0  0  0
 23 26  1  0  0  0  0
 24 25  4  0  0  0  0
 24 31  1  0  0  0  0
 25 32  1  0  0  0  0
 26 33  1  0  0  0  0
 27 34  1  0  0  0  0
M  END
> <BCLConfClusterSize>
1

> <ConfClashScore>
0 

> <ConfOneFourInteractionScore>
-0.945493 

> <ConfScore>
0.353578 

> <ConfScorePBest>
0.00302059 

> <ConfTolerance>
0.768591 

> <RosettaParamsInstructions>
M  ROOT 3
M  POLY_N_BB 3
M  POLY_CA_BB 4
M  POLY_C_BB 2
M  POLY_O_BB 5
M  POLY_IGNORE 9 10 11 12 13 14 15 16 17 18 
M  POLY_UPPER 6
M  POLY_LOWER 8
M  POLY_CHG 0
M  POLY_PROPERTIES ALPHA_AA D_AA PROTEIN AROMATIC POLYMER 
M  END

$$$$



 34 34  0  0  0  0  0  0  0  0999 V2000
   -1.5595    4.5221   -0.7094 H   0  0  0  1  0  0  0  0  0  0  0  0
   -0.7214    4.6533   -2.6331 C   0  0  0  1  0  0  0  0  0  0  0  0
    0.4141    3.9591   -0.5571 N   0  0  0  1  0  0  0  0  0  0  0  0
   -0.8464    3.9691   -1.2844 C   0  0  0  1  0  0  0  0  0  0  0  0
   -1.6328    5.3512   -3.0478 O   0  0  0  1  0  0  0  0  0  0  0  0
    0.4426    4.5178   -3.2703 N   0  0  0  1  0  0  0  0  0  0  0  0
    1.2397    4.1757   -1.0387 H   0  0  0  1  0  0  0  0  0  0  0  0
    0.4853    3.6637    0.7497 C   0  0  0  1  0  0  0  0  0  0  0  0
    0.8330    5.1220   -4.5354 C   0  0  0  1  0  0  0  0  0  0  0  0
    1.8502    3.6389    1.3996 C   0  0  0  1  0  0  0  0  0  0  0  0
   -0.5288    3.4197    1.4023 O   0  0  0  1  0  0  0  0  0  0  0  0
    1.1109    3.9466   -2.8373 H   0  0  0  1  0  0  0  0  0  0  0  0
    1.5952    4.5279   -4.9948 H   0  0  0  1  0  0  0  0  0  0  0  0
    1.2081    6.1084   -4.3586 H   0  0  0  1  0  0  0  0  0  0  0  0
   -0.0172    5.1739   -5.1829 H   0  0  0  1  0  0  0  0  0  0  0  0
    2.2091    2.6316    1.4383 H   0  0  0  1  0  0  0  0  0  0  0  0
    1.7792    4.0304    2.3929 H   0  0  0  1  0  0  0  0  0  0  0  0
    2.5282    4.2372    0.8275 H   0  0  0  1  0  0  0  0  0  0  0  0
   -1.3864    2.5432   -1.4285 C   0  0  0  1  0  0  0  0  0  0  0  0
   -2.8040    2.4963   -1.9640 C   0  0  0  1  0  0  0  0  0  0  0  0
   -3.1283    3.0183   -3.2066 C   0  0  0  1  0  0  0  0  0  0  0  0
   -4.4462    3.0453   -3.6221 C   0  0  0  1  0  0  0  0  0  0  0  0
   -5.4431    2.5457   -2.7986 C   0  0  0  1  0  0  0  0  0  0  0  0
   -5.1196    2.0253   -1.5598 C   0  0  0  1  0  0  0  0  0  0  0  0
   -3.7979    1.9981   -1.1429 C   0  0  0  1  0  0  0  0  0  0  0  0
   -6.7481    2.5458   -3.1641 O   0  0  0  1  0  0  0  0  0  0  0  0
   -4.6887    3.5748   -4.8459 O   0  0  0  1  0  0  0  0  0  0  0  0
   -1.3699    2.0740   -0.4669 H   0  0  0  1  0  0  0  0  0  0  0  0
   -0.7507    2.0045   -2.0997 H   0  0  0  1  0  0  0  0  0  0  0  0
   -2.3800    3.3895   -3.8262 H   0  0  0  1  0  0  0  0  0  0  0  0
   -5.8680    1.6542   -0.9403 H   0  0  0  1  0  0  0  0  0  0  0  0
   -3.5541    1.6029   -0.2123 H   0  0  0  1  0  0  0  0  0  0  0  0
   -7.0355    1.6443   -3.3266 H   0  0  0  1  0  0  0  0  0  0  0  0
   -4.0232    4.2371   -5.0460 H   0  0  0  1  0  0  0  0  0  0  0  0
  1  4  1  0  0  0  0
  2  4  1  0  0  0  0
  2  5  2  0  0  0  0
  2  6  1  0  0  0  0
  3  4  1  0  0  0  0
  3  7  1  0  0  0  0
  3  8  1  0  0  0  0
  4 19  1  0  0  0  0
  6  9  1  0  0  0  0
  6 12  1  0  0  0  0
  8 10  1  0  0  0  0
  8 11  2  0  0  0  0
  9 13  1  0  0  0  0
  9 14  1  0  0  0  0
  9 15  1  0  0  0  0
 10 16  1  0  0  0  0
 10 17  1  0  0  0  0
 10 18  1  0  0  0  0
 19 20  1  0  0  0  0
 19 28  1  0  0  0  0
 19 29  1  0  0  0  0
 20 21  4  0  0  0  0
 20 25  4  0  0  0  0
 21 22  4  0  0  0  0
 21 30  1  0  0  0  0
 22 23  4  0  0  0  0
 22 27  1  0  0  0  0
 23 24  4  0  0  0  0
 23 26  1  0  0  0  0
 24 25  4  0  0  0  0
 24 31  1  0  0  0  0
 25 32  1  0  0  0  0
 26 33  1  0  0  0  0
 27 34  1  0  0  0  0
M  END
> <BCLConfClusterSize>
1

> <ConfClashScore>
0 

> <ConfOneFourInteractionScore>
-0.962347 

> <ConfScore>
0.353954 

> <ConfScorePBest>
0.00299211 

> <ConfTolerance>
0.913053 

> <RosettaParamsInstructions>
M  ROOT 3
M  POLY_N_BB 3
M  POLY_CA_BB 4
M  POLY_C_BB 2
M  POLY_O_BB 5
M  POLY_IGNORE 9 10 11 12 13 14 15 16 17 18 
M  POLY_UPPER 6
M  POLY_LOWER 8
M  POLY_CHG 0
M  POLY_PROPERTIES ALPHA_AA D_AA PROTEIN AROMATIC POLYMER 
M  END

$$$$



 34 34  0  0  0  0  0  0  0  0999 V2000
    0.5679    2.7559   -1.7811 H   0  0  0  1  0  0  0  0  0  0  0  0
   -0.2408    4.1903   -3.0466 C   0  0  0  1  0  0  0  0  0  0  0  0
   -0.4078    1.6969   -3.2354 N   0  0  0  1  0  0  0  0  0  0  0  0
   -0.3543    2.8580   -2.3141 C   0  0  0  1  0  0  0  0  0  0  0  0
    0.4828    4.3167   -4.0335 O   0  0  0  1  0  0  0  0  0  0  0  0
   -0.9744    5.1955   -2.5450 N   0  0  0  1  0  0  0  0  0  0  0  0
   -0.1657    0.8108   -2.8941 H   0  0  0  1  0  0  0  0  0  0  0  0
   -0.7746    1.8171   -4.5145 C   0  0  0  1  0  0  0  0  0  0  0  0
   -0.9696    6.5283   -3.1295 C   0  0  0  1  0  0  0  0  0  0  0  0
   -0.5296    0.5954   -5.3907 C   0  0  0  1  0  0  0  0  0  0  0  0
   -1.2748    2.8318   -4.9691 O   0  0  0  1  0  0  0  0  0  0  0  0
   -1.5328    5.0264   -1.7576 H   0  0  0  1  0  0  0  0  0  0  0  0
   -0.1533    7.0915   -2.7278 H   0  0  0  1  0  0  0  0  0  0  0  0
   -1.8906    7.0218   -2.8991 H   0  0  0  1  0  0  0  0  0  0  0  0
   -0.8613    6.4514   -4.1912 H   0  0  0  1  0  0  0  0  0  0  0  0
   -1.2523    0.5709   -6.1794 H   0  0  0  1  0  0  0  0  0  0  0  0
   -0.6180   -0.2914   -4.7986 H   0  0  0  1  0  0  0  0  0  0  0  0
    0.4535    0.6487   -5.8097 H   0  0  0  1  0  0  0  0  0  0  0  0
   -1.4340    2.8163   -1.2452 C   0  0  0  1  0  0  0  0  0  0  0  0
   -2.8008    2.6137   -1.8693 C   0  0  0  1  0  0  0  0  0  0  0  0
   -3.1351    3.1863   -3.0867 C   0  0  0  1  0  0  0  0  0  0  0  0
   -4.4203    3.0606   -3.5796 C   0  0  0  1  0  0  0  0  0  0  0  0
   -5.3734    2.3577   -2.8593 C   0  0  0  1  0  0  0  0  0  0  0  0
   -5.0399    1.7869   -1.6455 C   0  0  0  1  0  0  0  0  0  0  0  0
   -3.7511    1.9127   -1.1510 C   0  0  0  1  0  0  0  0  0  0  0  0
   -6.6251    2.2440   -3.3661 O   0  0  0  1  0  0  0  0  0  0  0  0
   -4.7959    3.6068   -4.7616 O   0  0  0  1  0  0  0  0  0  0  0  0
   -1.4286    3.7399   -0.7048 H   0  0  0  1  0  0  0  0  0  0  0  0
   -1.2318    2.0084   -0.5735 H   0  0  0  1  0  0  0  0  0  0  0  0
   -2.4190    3.7103   -3.6291 H   0  0  0  1  0  0  0  0  0  0  0  0
   -5.7560    1.2629   -1.1032 H   0  0  0  1  0  0  0  0  0  0  0  0
   -3.4992    1.4798   -0.2396 H   0  0  0  1  0  0  0  0  0  0  0  0
   -7.1531    2.9959   -3.0877 H   0  0  0  1  0  0  0  0  0  0  0  0
   -4.2202    3.2868   -5.4599 H   0  0  0  1  0  0  0  0  0  0  0  0
  1  4  1  0  0  0  0
  2  4  1  0  0  0  0
  2  5  2  0  0  0  0
  2  6  1  0  0  0  0
  3  4  1  0  0  0  0
  3  7  1  0  0  0  0
  3  8  1  0  0  0  0
  4 19  1  0  0  0  0
  6  9  1  0  0  0  0
  6 12  1  0  0  0  0
  8 10  1  0  0  0  0
  8 11  2  0  0  0  0
  9 13  1  0  0  0  0
  9 14  1  0  0  0  0
  9 15  1  0  0  0  0
 10 16  1  0  0  0  0
 10 17  1  0  0  0  0
 10 18  1  0  0  0  0
 19 20  1  0  0  0  0
 19 28  1  0  0  0  0
 19 29  1  0  0  0  0
 20 21  4  0  0  0  0
 20 25  4  0  0  0  0
 21 22  4  0  0  0  0
 21 30  1  0  0  0  0
 22 23  4  0  0  0  0
 22 27  1  0  0  0  0
 23 24  4  0  0  0  0
 23 26  1  0  0  0  0
 24 25  4  0  0  0  0
 24 31  1  0  0  0  0
 25 32  1  0  0  0  0
 26 33  1  0  0  0  0
 27 34  1  0  0  0  0
M  END
> <BCLConfClusterSize>
1

> <ConfClashScore>
0.00192702 

> <ConfOneFourInteractionScore>
-0.910466 

> <ConfScore>
0.354408 

> <ConfScorePBest>
0.00296363 

> <ConfTolerance>
0.860318 

> <RosettaParamsInstructions>
M  ROOT 3
M  POLY_N_BB 3
M  POLY_CA_BB 4
M  POLY_C_BB 2
M  POLY_O_BB 5
M  POLY_IGNORE 9 10 11 12 13 14 15 16 17 18 
M  POLY_UPPER 6
M  POLY_LOWER 8
M  POLY_CHG 0
M  POLY_PROPERTIES ALPHA_AA D_AA PROTEIN AROMATIC POLYMER 
M  END

$$$$



 34 34  0  0  0  0  0  0  0  0999 V2000
   -0.3399    3.7173    0.3009 H   0  0  0  1  0  0  0  0  0  0  0  0
   -1.8589    2.6624    1.2600 C   0  0  0  1  0  0  0  0  0  0  0  0
   -2.0751    4.7865    0.0530 N   0  0  0  1  0  0  0  0  0  0  0  0
   -1.3654    3.4943    0.0923 C   0  0  0  1  0  0  0  0  0  0  0  0
   -2.9293    2.9076    1.8100 O   0  0  0  1  0  0  0  0  0  0  0  0
   -1.0548    1.6572    1.6410 N   0  0  0  1  0  0  0  0  0  0  0  0
   -2.9213    4.8537    0.5428 H   0  0  0  1  0  0  0  0  0  0  0  0
   -1.6354    5.9134   -0.6247 C   0  0  0  1  0  0  0  0  0  0  0  0
   -1.4174    0.7317    2.7039 C   0  0  0  1  0  0  0  0  0  0  0  0
   -2.4781    7.1575   -0.5971 C   0  0  0  1  0  0  0  0  0  0  0  0
   -0.5761    5.8569   -1.2224 O   0  0  0  1  0  0  0  0  0  0  0  0
   -0.1936    1.5427    1.1875 H   0  0  0  1  0  0  0  0  0  0  0  0
   -1.8850    1.2698    3.5019 H   0  0  0  1  0  0  0  0  0  0  0  0
   -0.5368    0.2461    3.0695 H   0  0  0  1  0  0  0  0  0  0  0  0
   -2.0970   -0.0011    2.3219 H   0  0  0  1  0  0  0  0  0  0  0  0
   -3.4389    6.9291   -0.1854 H   0  0  0  1  0  0  0  0  0  0  0  0
   -2.5965    7.5299   -1.5932 H   0  0  0  1  0  0  0  0  0  0  0  0
   -1.9987    7.8993    0.0069 H   0  0  0  1  0  0  0  0  0  0  0  0
   -1.3703    2.7691   -1.2566 C   0  0  0  1  0  0  0  0  0  0  0  0
   -2.7530    2.5865   -1.8230 C   0  0  0  1  0  0  0  0  0  0  0  0
   -3.0747    3.1678   -3.0397 C   0  0  0  1  0  0  0  0  0  0  0  0
   -4.3665    3.0857   -3.5244 C   0  0  0  1  0  0  0  0  0  0  0  0
   -5.3389    2.4177   -2.7966 C   0  0  0  1  0  0  0  0  0  0  0  0
   -5.0179    1.8383   -1.5836 C   0  0  0  1  0  0  0  0  0  0  0  0
   -3.7224    1.9205   -1.0973 C   0  0  0  1  0  0  0  0  0  0  0  0
   -6.5970    2.3464   -3.2956 O   0  0  0  1  0  0  0  0  0  0  0  0
   -4.7304    3.6420   -4.7054 O   0  0  0  1  0  0  0  0  0  0  0  0
   -0.9255    1.8047   -1.1264 H   0  0  0  1  0  0  0  0  0  0  0  0
   -0.7900    3.3391   -1.9518 H   0  0  0  1  0  0  0  0  0  0  0  0
   -2.3443    3.6655   -3.5877 H   0  0  0  1  0  0  0  0  0  0  0  0
   -5.7484    1.3405   -1.0357 H   0  0  0  1  0  0  0  0  0  0  0  0
   -3.4800    1.4810   -0.1864 H   0  0  0  1  0  0  0  0  0  0  0  0
   -6.7499    3.0875   -3.8863 H   0  0  0  1  0  0  0  0  0  0  0  0
   -5.1295    2.9724   -5.2656 H   0  0  0  1  0  0  0  0  0  0  0  0
  1  4  1  0  0  0  0
  2  4  1  0  0  0  0
  2  5  2  0  0  0  0
  2  6  1  0  0  0  0
  3  4  1  0  0  0  0
  3  7  1  0  0  0  0
  3  8  1  0  0  0  0
  4 19  1  0  0  0  0
  6  9  1  0  0  0  0
  6 12  1  0  0  0  0
  8 10  1  0  0  0  0
  8 11  2  0  0  0  0
  9 13  1  0  0  0  0
  9 14  1  0  0  0  0
  9 15  1  0  0  0  0
 10 16  1  0  0  0  0
 10 17  1  0  0  0  0
 10 18  1  0  0  0  0
 19 20  1  0  0  0  0
 19 28  1  0  0  0  0
 19 29  1  0  0  0  0
 20 21  4  0  0  0  0
 20 25  4  0  0  0  0
 21 22  4  0  0  0  0
 21 30  1  0  0  0  0
 22 23  4  0  0  0  0
 22 27  1  0  0  0  0
 23 24  4  0  0  0  0
 23 26  1  0  0  0  0
 24 25  4  0  0  0  0
 24 31  1  0  0  0  0
 25 32  1  0  0  0  0
 26 33  1  0  0  0  0
 27 34  1  0  0  0  0
M  END
> <BCLConfClusterSize>
1

> <ConfClashScore>
0 

> <ConfOneFourInteractionScore>
-0.956306 

> <ConfScore>
0.35836 

> <ConfScorePBest>
0.00293515 

> <ConfTolerance>
0.861974 

> <RosettaParamsInstructions>
M  ROOT 3
M  POLY_N_BB 3
M  POLY_CA_BB 4
M  POLY_C_BB 2
M  POLY_O_BB 5
M  POLY_IGNORE 9 10 11 12 13 14 15 16 17 18 
M  POLY_UPPER 6
M  POLY_LOWER 8
M  POLY_CHG 0
M  POLY_PROPERTIES ALPHA_AA D_AA PROTEIN AROMATIC POLYMER 
M  END

$$$$



 34 34  0  0  0  0  0  0  0  0999 V2000
   -1.6381    1.5292    0.3387 H   0  0  0  1  0  0  0  0  0  0  0  0
   -2.0689    3.4804    0.9916 C   0  0  0  1  0  0  0  0  0  0  0  0
    0.1635    2.5112    0.5565 N   0  0  0  1  0  0  0  0  0  0  0  0
   -1.2520    2.5073    0.1410 C   0  0  0  1  0  0  0  0  0  0  0  0
   -2.1195    3.3458    2.2113 O   0  0  0  1  0  0  0  0  0  0  0  0
   -2.7848    4.4103    0.3398 N   0  0  0  1  0  0  0  0  0  0  0  0
    0.6346    1.6558    0.6388 H   0  0  0  1  0  0  0  0  0  0  0  0
    0.8256    3.6403    0.8246 C   0  0  0  1  0  0  0  0  0  0  0  0
   -3.5563    5.3937    1.0851 C   0  0  0  1  0  0  0  0  0  0  0  0
    2.1864    3.4684    1.4710 C   0  0  0  1  0  0  0  0  0  0  0  0
    0.3743    4.7610    0.5694 O   0  0  0  1  0  0  0  0  0  0  0  0
   -2.7879    4.4269   -0.6401 H   0  0  0  1  0  0  0  0  0  0  0  0
   -4.5651    5.0524    1.1887 H   0  0  0  1  0  0  0  0  0  0  0  0
   -3.5475    6.3260    0.5600 H   0  0  0  1  0  0  0  0  0  0  0  0
   -3.1234    5.5259    2.0547 H   0  0  0  1  0  0  0  0  0  0  0  0
    2.9463    3.5048    0.7186 H   0  0  0  1  0  0  0  0  0  0  0  0
    2.2261    2.5239    1.9723 H   0  0  0  1  0  0  0  0  0  0  0  0
    2.3469    4.2551    2.1782 H   0  0  0  1  0  0  0  0  0  0  0  0
   -1.3680    2.7268   -1.3681 C   0  0  0  1  0  0  0  0  0  0  0  0
   -2.7668    2.5273   -1.8872 C   0  0  0  1  0  0  0  0  0  0  0  0
   -3.0835    2.9393   -3.1723 C   0  0  0  1  0  0  0  0  0  0  0  0
   -4.3857    2.8468   -3.6263 C   0  0  0  1  0  0  0  0  0  0  0  0
   -5.3739    2.3371   -2.7986 C   0  0  0  1  0  0  0  0  0  0  0  0
   -5.0579    1.9264   -1.5173 C   0  0  0  1  0  0  0  0  0  0  0  0
   -3.7520    2.0191   -1.0618 C   0  0  0  1  0  0  0  0  0  0  0  0
   -6.6737    2.2043   -3.1584 O   0  0  0  1  0  0  0  0  0  0  0  0
   -4.6714    3.2609   -4.8847 O   0  0  0  1  0  0  0  0  0  0  0  0
   -0.7189    2.0354   -1.8636 H   0  0  0  1  0  0  0  0  0  0  0  0
   -1.0614    3.7273   -1.5913 H   0  0  0  1  0  0  0  0  0  0  0  0
   -2.3414    3.3179   -3.7948 H   0  0  0  1  0  0  0  0  0  0  0  0
   -5.8001    1.5477   -0.8948 H   0  0  0  1  0  0  0  0  0  0  0  0
   -3.5136    1.7062   -0.0990 H   0  0  0  1  0  0  0  0  0  0  0  0
   -6.8496    2.7470   -3.9304 H   0  0  0  1  0  0  0  0  0  0  0  0
   -4.7856    4.2140   -4.8902 H   0  0  0  1  0  0  0  0  0  0  0  0
  1  4  1  0  0  0  0
  2  4  1  0  0  0  0
  2  5  2  0  0  0  0
  2  6  1  0  0  0  0
  3  4  1  0  0  0  0
  3  7  1  0  0  0  0
  3  8  1  0  0  0  0
  4 19  1  0  0  0  0
  6  9  1  0  0  0  0
  6 12  1  0  0  0  0
  8 10  1  0  0  0  0
  8 11  2  0  0  0  0
  9 13  1  0  0  0  0
  9 14  1  0  0  0  0
  9 15  1  0  0  0  0
 10 16  1  0  0  0  0
 10 17  1  0  0  0  0
 10 18  1  0  0  0  0
 19 20  1  0  0  0  0
 19 28  1  0  0  0  0
 19 29  1  0  0  0  0
 20 21  4  0  0  0  0
 20 25  4  0  0  0  0
 21 22  4  0  0  0  0
 21 30  1  0  0  0  0
 22 23  4  0  0  0  0
 22 27  1  0  0  0  0
 23 24  4  0  0  0  0
 23 26  1  0  0  0  0
 24 25  4  0  0  0  0
 24 31  1  0  0  0  0
 25 32  1  0  0  0  0
 26 33  1  0  0  0  0
 27 34  1  0  0  0  0
M  END
> <BCLConfClusterSize>
1

> <ConfClashScore>
0 

> <ConfOneFourInteractionScore>
-0.92018 

> <ConfScore>
0.359099 

> <ConfScorePBest>
0.00290666 

> <ConfTolerance>
0.901342 

> <RosettaParamsInstructions>
M  ROOT 3
M  POLY_N_BB 3
M  POLY_CA_BB 4
M  POLY_C_BB 2
M  POLY_O_BB 5
M  POLY_IGNORE 9 10 11 12 13 14 15 16 17 18 
M  POLY_UPPER 6
M  POLY_LOWER 8
M  POLY_CHG 0
M  POLY_PROPERTIES ALPHA_AA D_AA PROTEIN AROMATIC POLYMER 
M  END

$$$$



 34 34  0  0  0  0  0  0  0  0999 V2000
   -0.8440    0.8155   -2.4312 H   0  0  0  1  0  0  0  0  0  0  0  0
    0.9545    1.4927   -1.5744 C   0  0  0  1  0  0  0  0  0  0  0  0
   -0.1720    2.4431   -3.5166 N   0  0  0  1  0  0  0  0  0  0  0  0
   -0.3884    1.7629   -2.2319 C   0  0  0  1  0  0  0  0  0  0  0  0
    1.0618    1.4586   -0.3493 O   0  0  0  1  0  0  0  0  0  0  0  0
    2.0176    1.2927   -2.3694 N   0  0  0  1  0  0  0  0  0  0  0  0
   -0.4226    1.9818   -4.3441 H   0  0  0  1  0  0  0  0  0  0  0  0
    0.3544    3.6685   -3.5956 C   0  0  0  1  0  0  0  0  0  0  0  0
    3.3901    1.0336   -1.9610 C   0  0  0  1  0  0  0  0  0  0  0  0
    0.4901    4.2383   -4.9942 C   0  0  0  1  0  0  0  0  0  0  0  0
    0.7091    4.3036   -2.6161 O   0  0  0  1  0  0  0  0  0  0  0  0
    1.8503    1.3250   -3.3345 H   0  0  0  1  0  0  0  0  0  0  0  0
    3.4169    0.1750   -1.3230 H   0  0  0  1  0  0  0  0  0  0  0  0
    3.7710    1.8823   -1.4324 H   0  0  0  1  0  0  0  0  0  0  0  0
    3.9917    0.8528   -2.8273 H   0  0  0  1  0  0  0  0  0  0  0  0
    1.4742    4.0426   -5.3658 H   0  0  0  1  0  0  0  0  0  0  0  0
    0.3232    5.2948   -4.9664 H   0  0  0  1  0  0  0  0  0  0  0  0
   -0.2315    3.7795   -5.6375 H   0  0  0  1  0  0  0  0  0  0  0  0
   -1.3541    2.5600   -1.3704 C   0  0  0  1  0  0  0  0  0  0  0  0
   -2.7684    2.5269   -1.8848 C   0  0  0  1  0  0  0  0  0  0  0  0
   -3.0792    3.1747   -3.0703 C   0  0  0  1  0  0  0  0  0  0  0  0
   -4.3904    3.2303   -3.5040 C   0  0  0  1  0  0  0  0  0  0  0  0
   -5.3938    2.6338   -2.7565 C   0  0  0  1  0  0  0  0  0  0  0  0
   -5.0837    1.9880   -1.5746 C   0  0  0  1  0  0  0  0  0  0  0  0
   -3.7688    1.9321   -1.1394 C   0  0  0  1  0  0  0  0  0  0  0  0
   -6.6925    2.6575   -3.1432 O   0  0  0  1  0  0  0  0  0  0  0  0
   -4.6698    3.8739   -4.6635 O   0  0  0  1  0  0  0  0  0  0  0  0
   -1.0255    3.5780   -1.3430 H   0  0  0  1  0  0  0  0  0  0  0  0
   -1.3422    2.1541   -0.3805 H   0  0  0  1  0  0  0  0  0  0  0  0
   -2.3260    3.6188   -3.6333 H   0  0  0  1  0  0  0  0  0  0  0  0
   -5.8371    1.5439   -1.0116 H   0  0  0  1  0  0  0  0  0  0  0  0
   -3.5351    1.4426   -0.2520 H   0  0  0  1  0  0  0  0  0  0  0  0
   -6.8784    1.8898   -3.6888 H   0  0  0  1  0  0  0  0  0  0  0  0
   -4.6458    3.2482   -5.3912 H   0  0  0  1  0  0  0  0  0  0  0  0
  1  4  1  0  0  0  0
  2  4  1  0  0  0  0
  2  5  2  0  0  0  0
  2  6  1  0  0  0  0
  3  4  1  0  0  0  0
  3  7  1  0  0  0  0
  3  8  1  0  0  0  0
  4 19  1  0  0  0  0
  6  9  1  0  0  0  0
  6 12  1  0  0  0  0
  8 10  1  0  0  0  0
  8 11  2  0  0  0  0
  9 13  1  0  0  0  0
  9 14  1  0  0  0  0
  9 15  1  0  0  0  0
 10 16  1  0  0  0  0
 10 17  1  0  0  0  0
 10 18  1  0  0  0  0
 19 20  1  0  0  0  0
 19 28  1  0  0  0  0
 19 29  1  0  0  0  0
 20 21  4  0  0  0  0
 20 25  4  0  0  0  0
 21 22  4  0  0  0  0
 21 30  1  0  0  0  0
 22 23  4  0  0  0  0
 22 27  1  0  0  0  0
 23 24  4  0  0  0  0
 23 26  1  0  0  0  0
 24 25  4  0  0  0  0
 24 31  1  0  0  0  0
 25 32  1  0  0  0  0
 26 33  1  0  0  0  0
 27 34  1  0  0  0  0
M  END
> <BCLConfClusterSize>
1

> <ConfClashScore>
0 

> <ConfOneFourInteractionScore>
-0.953096 

> <ConfScore>
0.360525 

> <ConfScorePBest>
0.00287818 

> <ConfTolerance>
0.737768 

> <RosettaParamsInstructions>
M  ROOT 3
M  POLY_N_BB 3
M  POLY_CA_BB 4
M  POLY_C_BB 2
M  POLY_O_BB 5
M  POLY_IGNORE 9 10 11 12 13 14 15 16 17 18 
M  POLY_UPPER 6
M  POLY_LOWER 8
M  POLY_CHG 0
M  POLY_PROPERTIES ALPHA_AA D_AA PROTEIN AROMATIC POLYMER 
M  END

$$$$



 34 34  0  0  0  0  0  0  0  0999 V2000
    0.7042    2.6649   -1.8240 H   0  0  0  1  0  0  0  0  0  0  0  0
   -0.3009    4.1107   -2.9708 C   0  0  0  1  0  0  0  0  0  0  0  0
   -0.2604    1.6746   -3.3479 N   0  0  0  1  0  0  0  0  0  0  0  0
   -0.2271    2.7303   -2.3467 C   0  0  0  1  0  0  0  0  0  0  0  0
    0.1992    4.3325   -4.0727 O   0  0  0  1  0  0  0  0  0  0  0  0
   -0.9272    5.0804   -2.2856 N   0  0  0  1  0  0  0  0  0  0  0  0
   -0.8793    1.7584   -4.1031 H   0  0  0  1  0  0  0  0  0  0  0  0
    0.5532    0.5545   -3.2705 C   0  0  0  1  0  0  0  0  0  0  0  0
   -1.0049    6.4499   -2.7718 C   0  0  0  1  0  0  0  0  0  0  0  0
    0.4648   -0.4884   -4.3491 C   0  0  0  1  0  0  0  0  0  0  0  0
    1.3173    0.4527   -2.3249 O   0  0  0  1  0  0  0  0  0  0  0  0
   -1.3467    4.8584   -1.4282 H   0  0  0  1  0  0  0  0  0  0  0  0
   -0.2408    6.6133   -3.5028 H   0  0  0  1  0  0  0  0  0  0  0  0
   -0.8669    7.1266   -1.9545 H   0  0  0  1  0  0  0  0  0  0  0  0
   -1.9641    6.6167   -3.2156 H   0  0  0  1  0  0  0  0  0  0  0  0
    1.0211   -1.3539   -4.0555 H   0  0  0  1  0  0  0  0  0  0  0  0
    0.8698   -0.0960   -5.2584 H   0  0  0  1  0  0  0  0  0  0  0  0
   -0.5595   -0.7578   -4.5013 H   0  0  0  1  0  0  0  0  0  0  0  0
   -1.3367    2.5221   -1.3243 C   0  0  0  1  0  0  0  0  0  0  0  0
   -2.7421    2.4748   -1.8910 C   0  0  0  1  0  0  0  0  0  0  0  0
   -3.0301    2.9550   -3.1591 C   0  0  0  1  0  0  0  0  0  0  0  0
   -4.3376    2.9847   -3.6062 C   0  0  0  1  0  0  0  0  0  0  0  0
   -5.3603    2.5295   -2.7887 C   0  0  0  1  0  0  0  0  0  0  0  0
   -5.0730    2.0508   -1.5244 C   0  0  0  1  0  0  0  0  0  0  0  0
   -3.7618    2.0209   -1.0758 C   0  0  0  1  0  0  0  0  0  0  0  0
   -6.6335    2.5639   -3.2518 O   0  0  0  1  0  0  0  0  0  0  0  0
   -4.5441    3.4719   -4.8539 O   0  0  0  1  0  0  0  0  0  0  0  0
   -1.2916    3.3263   -0.6199 H   0  0  0  1  0  0  0  0  0  0  0  0
   -1.1523    1.5959   -0.8211 H   0  0  0  1  0  0  0  0  0  0  0  0
   -2.2624    3.2928   -3.7740 H   0  0  0  1  0  0  0  0  0  0  0  0
   -5.8407    1.7130   -0.9095 H   0  0  0  1  0  0  0  0  0  0  0  0
   -3.5452    1.6569   -0.1259 H   0  0  0  1  0  0  0  0  0  0  0  0
   -6.7290    1.9383   -3.9736 H   0  0  0  1  0  0  0  0  0  0  0  0
   -5.2268    4.1462   -4.8256 H   0  0  0  1  0  0  0  0  0  0  0  0
  1  4  1  0  0  0  0
  2  4  1  0  0  0  0
  2  5  2  0  0  0  0
  2  6  1  0  0  0  0
  3  4  1  0  0  0  0
  3  7  1  0  0  0  0
  3  8  1  0  0  0  0
  4 19  1  0  0  0  0
  6  9  1  0  0  0  0
  6 12  1  0  0  0  0
  8 10  1  0  0  0  0
  8 11  2  0  0  0  0
  9 13  1  0  0  0  0
  9 14  1  0  0  0  0
  9 15  1  0  0  0  0
 10 16  1  0  0  0  0
 10 17  1  0  0  0  0
 10 18  1  0  0  0  0
 19 20  1  0  0  0  0
 19 28  1  0  0  0  0
 19 29  1  0  0  0  0
 20 21  4  0  0  0  0
 20 25  4  0  0  0  0
 21 22  4  0  0  0  0
 21 30  1  0  0  0  0
 22 23  4  0  0  0  0
 22 27  1  0  0  0  0
 23 24  4  0  0  0  0
 23 26  1  0  0  0  0
 24 25  4  0  0  0  0
 24 31  1  0  0  0  0
 25 32  1  0  0  0  0
 26 33  1  0  0  0  0
 27 34  1  0  0  0  0
M  END
> <BCLConfClusterSize>
1

> <ConfClashScore>
0 

> <ConfOneFourInteractionScore>
-0.920024 

> <ConfScore>
0.360873 

> <ConfScorePBest>
0.0028497 

> <ConfTolerance>
1.0964 

> <RosettaParamsInstructions>
M  ROOT 3
M  POLY_N_BB 3
M  POLY_CA_BB 4
M  POLY_C_BB 2
M  POLY_O_BB 5
M  POLY_IGNORE 9 10 11 12 13 14 15 16 17 18 
M  POLY_UPPER 6
M  POLY_LOWER 8
M  POLY_CHG 0
M  POLY_PROPERTIES ALPHA_AA D_AA PROTEIN AROMATIC POLYMER 
M  END

$$$$



 34 34  0  0  0  0  0  0  0  0999 V2000
   -0.3220    1.3051   -0.0270 H   0  0  0  1  0  0  0  0  0  0  0  0
    0.5459    1.3923   -1.9521 C   0  0  0  1  0  0  0  0  0  0  0  0
   -1.5732    0.3037   -1.3330 N   0  0  0  1  0  0  0  0  0  0  0  0
   -0.6661    1.4013   -1.0356 C   0  0  0  1  0  0  0  0  0  0  0  0
    0.8517    0.3981   -2.6051 O   0  0  0  1  0  0  0  0  0  0  0  0
    1.2170    2.5474   -1.9663 N   0  0  0  1  0  0  0  0  0  0  0  0
   -1.9547   -0.2092   -0.5901 H   0  0  0  1  0  0  0  0  0  0  0  0
   -1.9045   -0.0296   -2.5837 C   0  0  0  1  0  0  0  0  0  0  0  0
    2.4538    2.7188   -2.7138 C   0  0  0  1  0  0  0  0  0  0  0  0
   -2.7598   -1.2732   -2.7295 C   0  0  0  1  0  0  0  0  0  0  0  0
   -1.5508    0.6134   -3.5583 O   0  0  0  1  0  0  0  0  0  0  0  0
    0.8641    3.3057   -1.4555 H   0  0  0  1  0  0  0  0  0  0  0  0
    2.4140    2.1340   -3.6090 H   0  0  0  1  0  0  0  0  0  0  0  0
    3.2799    2.3975   -2.1145 H   0  0  0  1  0  0  0  0  0  0  0  0
    2.5767    3.7510   -2.9676 H   0  0  0  1  0  0  0  0  0  0  0  0
   -2.5902   -1.9229   -1.8964 H   0  0  0  1  0  0  0  0  0  0  0  0
   -2.5003   -1.7800   -3.6354 H   0  0  0  1  0  0  0  0  0  0  0  0
   -3.7923   -0.9941   -2.7594 H   0  0  0  1  0  0  0  0  0  0  0  0
   -1.4096    2.7249   -1.1579 C   0  0  0  1  0  0  0  0  0  0  0  0
   -2.7551    2.5865   -1.8186 C   0  0  0  1  0  0  0  0  0  0  0  0
   -2.9903    3.2208   -3.0285 C   0  0  0  1  0  0  0  0  0  0  0  0
   -4.2490    3.1781   -3.5978 C   0  0  0  1  0  0  0  0  0  0  0  0
   -5.2748    2.4966   -2.9616 C   0  0  0  1  0  0  0  0  0  0  0  0
   -5.0402    1.8642   -1.7553 C   0  0  0  1  0  0  0  0  0  0  0  0
   -3.7779    1.9069   -1.1842 C   0  0  0  1  0  0  0  0  0  0  0  0
   -6.4989    2.4647   -3.5425 O   0  0  0  1  0  0  0  0  0  0  0  0
   -4.6122    3.7572   -4.7680 O   0  0  0  1  0  0  0  0  0  0  0  0
   -0.8133    3.3982   -1.7374 H   0  0  0  1  0  0  0  0  0  0  0  0
   -1.5518    3.1276   -0.1768 H   0  0  0  1  0  0  0  0  0  0  0  0
   -2.2197    3.7287   -3.5078 H   0  0  0  1  0  0  0  0  0  0  0  0
   -5.8108    1.3563   -1.2760 H   0  0  0  1  0  0  0  0  0  0  0  0
   -3.6004    1.4276   -0.2784 H   0  0  0  1  0  0  0  0  0  0  0  0
   -7.1767    2.5108   -2.8643 H   0  0  0  1  0  0  0  0  0  0  0  0
   -5.0073    3.0976   -5.3429 H   0  0  0  1  0  0  0  0  0  0  0  0
  1  4  1  0  0  0  0
  2  4  1  0  0  0  0
  2  5  2  0  0  0  0
  2  6  1  0  0  0  0
  3  4  1  0  0  0  0
  3  7  1  0  0  0  0
  3  8  1  0  0  0  0
  4 19  1  0  0  0  0
  6  9  1  0  0  0  0
  6 12  1  0  0  0  0
  8 10  1  0  0  0  0
  8 11  2  0  0  0  0
  9 13  1  0  0  0  0
  9 14  1  0  0  0  0
  9 15  1  0  0  0  0
 10 16  1  0  0  0  0
 10 17  1  0  0  0  0
 10 18  1  0  0  0  0
 19 20  1  0  0  0  0
 19 28  1  0  0  0  0
 19 29  1  0  0  0  0
 20 21  4  0  0  0  0
 20 25  4  0  0  0  0
 21 22  4  0  0  0  0
 21 30  1  0  0  0  0
 22 23  4  0  0  0  0
 22 27  1  0  0  0  0
 23 24  4  0  0  0  0
 23 26  1  0  0  0  0
 24 25  4  0  0  0  0
 24 31  1  0  0  0  0
 25 32  1  0  0  0  0
 26 33  1  0  0  0  0
 27 34  1  0  0  0  0
M  END
> <BCLConfClusterSize>
1

> <ConfClashScore>
0 

> <ConfOneFourInteractionScore>
-0.910684 

> <ConfScore>
0.362107 

> <ConfScorePBest>
0.00282122 

> <ConfTolerance>
1.02579 

> <RosettaParamsInstructions>
M  ROOT 3
M  POLY_N_BB 3
M  POLY_CA_BB 4
M  POLY_C_BB 2
M  POLY_O_BB 5
M  POLY_IGNORE 9 10 11 12 13 14 15 16 17 18 
M  POLY_UPPER 6
M  POLY_LOWER 8
M  POLY_CHG 0
M  POLY_PROPERTIES ALPHA_AA D_AA PROTEIN AROMATIC POLYMER 
M  END

$$$$



 34 34  0  0  0  0  0  0  0  0999 V2000
   -0.5182    1.1998   -2.8196 H   0  0  0  1  0  0  0  0  0  0  0  0
   -1.2081    0.1099   -1.1551 C   0  0  0  1  0  0  0  0  0  0  0  0
    0.7944    1.5461   -1.2640 N   0  0  0  1  0  0  0  0  0  0  0  0
   -0.5619    1.3411   -1.7599 C   0  0  0  1  0  0  0  0  0  0  0  0
   -2.3248   -0.2615   -1.5064 O   0  0  0  1  0  0  0  0  0  0  0  0
   -0.4833   -0.5319   -0.2251 N   0  0  0  1  0  0  0  0  0  0  0  0
    1.5350    1.2649   -1.8408 H   0  0  0  1  0  0  0  0  0  0  0  0
    1.1026    2.0874   -0.0845 C   0  0  0  1  0  0  0  0  0  0  0  0
   -1.0003   -1.6766    0.5100 C   0  0  0  1  0  0  0  0  0  0  0  0
    2.5828    2.1810    0.2308 C   0  0  0  1  0  0  0  0  0  0  0  0
    0.2554    2.4899    0.7085 O   0  0  0  1  0  0  0  0  0  0  0  0
    0.4256   -0.2187   -0.0346 H   0  0  0  1  0  0  0  0  0  0  0  0
   -1.1879   -2.4819   -0.1690 H   0  0  0  1  0  0  0  0  0  0  0  0
   -1.9116   -1.4036    0.9997 H   0  0  0  1  0  0  0  0  0  0  0  0
   -0.2814   -1.9858    1.2397 H   0  0  0  1  0  0  0  0  0  0  0  0
    2.7786    1.7074    1.1701 H   0  0  0  1  0  0  0  0  0  0  0  0
    2.8717    3.2099    0.2834 H   0  0  0  1  0  0  0  0  0  0  0  0
    3.1427    1.6917   -0.5386 H   0  0  0  1  0  0  0  0  0  0  0  0
   -1.3645    2.6090   -1.4986 C   0  0  0  1  0  0  0  0  0  0  0  0
   -2.7983    2.5015   -1.9442 C   0  0  0  1  0  0  0  0  0  0  0  0
   -3.1647    2.9878   -3.1896 C   0  0  0  1  0  0  0  0  0  0  0  0
   -4.4931    2.9795   -3.5711 C   0  0  0  1  0  0  0  0  0  0  0  0
   -5.4583    2.4800   -2.7108 C   0  0  0  1  0  0  0  0  0  0  0  0
   -5.0929    1.9952   -1.4691 C   0  0  0  1  0  0  0  0  0  0  0  0
   -3.7607    2.0035   -1.0863 C   0  0  0  1  0  0  0  0  0  0  0  0
   -6.7720    2.4461   -3.0421 O   0  0  0  1  0  0  0  0  0  0  0  0
   -4.7773    3.4753   -4.8000 O   0  0  0  1  0  0  0  0  0  0  0  0
   -0.9038    3.4183   -2.0255 H   0  0  0  1  0  0  0  0  0  0  0  0
   -1.3486    2.8117   -0.4481 H   0  0  0  1  0  0  0  0  0  0  0  0
   -2.4400    3.3589   -3.8367 H   0  0  0  1  0  0  0  0  0  0  0  0
   -5.8176    1.6241   -0.8220 H   0  0  0  1  0  0  0  0  0  0  0  0
   -3.4853    1.6349   -0.1535 H   0  0  0  1  0  0  0  0  0  0  0  0
   -6.8705    2.0828   -3.9252 H   0  0  0  1  0  0  0  0  0  0  0  0
   -4.1278    4.1422   -5.0345 H   0  0  0  1  0  0  0  0  0  0  0  0
  1  4  1  0  0  0  0
  2  4  1  0  0  0  0
  2  5  2  0  0  0  0
  2  6  1  0  0  0  0
  3  4  1  0  0  0  0
  3  7  1  0  0  0  0
  3  8  1  0  0  0  0
  4 19  1  0  0  0  0
  6  9  1  0  0  0  0
  6 12  1  0  0  0  0
  8 10  1  0  0  0  0
  8 11  2  0  0  0  0
  9 13  1  0  0  0  0
  9 14  1  0  0  0  0
  9 15  1  0  0  0  0
 10 16  1  0  0  0  0
 10 17  1  0  0  0  0
 10 18  1  0  0  0  0
 19 20  1  0  0  0  0
 19 28  1  0  0  0  0
 19 29  1  0  0  0  0
 20 21  4  0  0  0  0
 20 25  4  0  0  0  0
 21 22  4  0  0  0  0
 21 30  1  0  0  0  0
 22 23  4  0  0  0  0
 22 27  1  0  0  0  0
 23 24  4  0  0  0  0
 23 26  1  0  0  0  0
 24 25  4  0  0  0  0
 24 31  1  0  0  0  0
 25 32  1  0  0  0  0
 26 33  1  0  0  0  0
 27 34  1  0  0  0  0
M  END
> <BCLConfClusterSize>
1

> <ConfClashScore>
0 

> <ConfOneFourInteractionScore>
-0.954835 

> <ConfScore>
0.364795 

> <ConfScorePBest>
0.00279274 

> <ConfTolerance>
0.670774 

> <RosettaParamsInstructions>
M  ROOT 3
M  POLY_N_BB 3
M  POLY_CA_BB 4
M  POLY_C_BB 2
M  POLY_O_BB 5
M  POLY_IGNORE 9 10 11 12 13 14 15 16 17 18 
M  POLY_UPPER 6
M  POLY_LOWER 8
M  POLY_CHG 0
M  POLY_PROPERTIES ALPHA_AA D_AA PROTEIN AROMATIC POLYMER 
M  END

$$$$



 34 34  0  0  0  0  0  0  0  0999 V2000
   -0.5321    2.8894   -3.3365 H   0  0  0  1  0  0  0  0  0  0  0  0
   -0.3551    0.8476   -2.8476 C   0  0  0  1  0  0  0  0  0  0  0  0
    1.0004    2.7150   -1.9558 N   0  0  0  1  0  0  0  0  0  0  0  0
   -0.3165    2.3144   -2.4602 C   0  0  0  1  0  0  0  0  0  0  0  0
   -1.4128    0.2236   -2.8285 O   0  0  0  1  0  0  0  0  0  0  0  0
    0.8135    0.3506   -3.2806 N   0  0  0  1  0  0  0  0  0  0  0  0
    1.3996    3.5290   -2.3277 H   0  0  0  1  0  0  0  0  0  0  0  0
    1.6972    2.0539   -1.0272 C   0  0  0  1  0  0  0  0  0  0  0  0
    0.9507   -1.0222   -3.7437 C   0  0  0  1  0  0  0  0  0  0  0  0
    3.1312    2.5284   -0.7598 C   0  0  0  1  0  0  0  0  0  0  0  0
    1.2588    1.0559   -0.4612 O   0  0  0  1  0  0  0  0  0  0  0  0
    1.6022    0.9323   -3.2852 H   0  0  0  1  0  0  0  0  0  0  0  0
    0.1217   -1.2715   -4.3726 H   0  0  0  1  0  0  0  0  0  0  0  0
    0.9703   -1.6821   -2.9017 H   0  0  0  1  0  0  0  0  0  0  0  0
    1.8608   -1.1223   -4.2973 H   0  0  0  1  0  0  0  0  0  0  0  0
    3.2245    3.5575   -1.0376 H   0  0  0  1  0  0  0  0  0  0  0  0
    3.8145    1.9403   -1.3360 H   0  0  0  1  0  0  0  0  0  0  0  0
    3.3548    2.4184    0.2808 H   0  0  0  1  0  0  0  0  0  0  0  0
   -1.3651    2.6693   -1.4039 C   0  0  0  1  0  0  0  0  0  0  0  0
   -2.7877    2.5374   -1.9115 C   0  0  0  1  0  0  0  0  0  0  0  0
   -3.1693    3.0471   -3.1428 C   0  0  0  1  0  0  0  0  0  0  0  0
   -4.4946    2.9944   -3.5317 C   0  0  0  1  0  0  0  0  0  0  0  0
   -5.4412    2.4271   -2.6928 C   0  0  0  1  0  0  0  0  0  0  0  0
   -5.0605    1.9190   -1.4652 C   0  0  0  1  0  0  0  0  0  0  0  0
   -3.7314    1.9717   -1.0750 C   0  0  0  1  0  0  0  0  0  0  0  0
   -6.7334    2.3825   -3.0989 O   0  0  0  1  0  0  0  0  0  0  0  0
   -4.9604    3.4709   -4.7118 O   0  0  0  1  0  0  0  0  0  0  0  0
   -1.2068    3.6808   -1.0932 H   0  0  0  1  0  0  0  0  0  0  0  0
   -1.2402    2.0148   -0.5667 H   0  0  0  1  0  0  0  0  0  0  0  0
   -2.4586    3.4691   -3.7739 H   0  0  0  1  0  0  0  0  0  0  0  0
   -5.7713    1.4970   -0.8341 H   0  0  0  1  0  0  0  0  0  0  0  0
   -3.4444    1.5857   -0.1530 H   0  0  0  1  0  0  0  0  0  0  0  0
   -6.7824    2.5893   -4.0350 H   0  0  0  1  0  0  0  0  0  0  0  0
   -4.2230    3.7602   -5.2541 H   0  0  0  1  0  0  0  0  0  0  0  0
  1  4  1  0  0  0  0
  2  4  1  0  0  0  0
  2  5  2  0  0  0  0
  2  6  1  0  0  0  0
  3  4  1  0  0  0  0
  3  7  1  0  0  0  0
  3  8  1  0  0  0  0
  4 19  1  0  0  0  0
  6  9  1  0  0  0  0
  6 12  1  0  0  0  0
  8 10  1  0  0  0  0
  8 11  2  0  0  0  0
  9 13  1  0  0  0  0
  9 14  1  0  0  0  0
  9 15  1  0  0  0  0
 10 16  1  0  0  0  0
 10 17  1  0  0  0  0
 10 18  1  0  0  0  0
 19 20  1  0  0  0  0
 19 28  1  0  0  0  0
 19 29  1  0  0  0  0
 20 21  4  0  0  0  0
 20 25  4  0  0  0  0
 21 22  4  0  0  0  0
 21 30  1  0  0  0  0
 22 23  4  0  0  0  0
 22 27  1  0  0  0  0
 23 24  4  0  0  0  0
 23 26  1  0  0  0  0
 24 25  4  0  0  0  0
 24 31  1  0  0  0  0
 25 32  1  0  0  0  0
 26 33  1  0  0  0  0
 27 34  1  0  0  0  0
M  END
> <BCLConfClusterSize>
1

> <ConfClashScore>
0 

> <ConfOneFourInteractionScore>
-0.957364 

> <ConfScore>
0.366926 

> <ConfScorePBest>
0.00276426 

> <ConfTolerance>
0.896149 

> <RosettaParamsInstructions>
M  ROOT 3
M  POLY_N_BB 3
M  POLY_CA_BB 4
M  POLY_C_BB 2
M  POLY_O_BB 5
M  POLY_IGNORE 9 10 11 12 13 14 15 16 17 18 
M  POLY_UPPER 6
M  POLY_LOWER 8
M  POLY_CHG 0
M  POLY_PROPERTIES ALPHA_AA D_AA PROTEIN AROMATIC POLYMER 
M  END

$$$$



 34 34  0  0  0  0  0  0  0  0999 V2000
   -0.2792    3.8342    0.0222 H   0  0  0  1  0  0  0  0  0  0  0  0
   -1.3322    2.4844    1.2254 C   0  0  0  1  0  0  0  0  0  0  0  0
   -2.2327    4.4552    0.0908 N   0  0  0  1  0  0  0  0  0  0  0  0
   -1.2488    3.3818    0.0061 C   0  0  0  1  0  0  0  0  0  0  0  0
   -0.3254    2.0677    1.7752 O   0  0  0  1  0  0  0  0  0  0  0  0
   -2.5709    2.1880    1.6473 N   0  0  0  1  0  0  0  0  0  0  0  0
   -2.9003    4.5231   -0.6234 H   0  0  0  1  0  0  0  0  0  0  0  0
   -2.2818    5.3518    1.0802 C   0  0  0  1  0  0  0  0  0  0  0  0
   -2.8158    1.3608    2.8194 C   0  0  0  1  0  0  0  0  0  0  0  0
   -3.3013    6.4562    0.9157 C   0  0  0  1  0  0  0  0  0  0  0  0
   -1.5523    5.2985    2.0694 O   0  0  0  1  0  0  0  0  0  0  0  0
   -3.3374    2.5408    1.1489 H   0  0  0  1  0  0  0  0  0  0  0  0
   -2.4474    0.3720    2.6420 H   0  0  0  1  0  0  0  0  0  0  0  0
   -3.8673    1.3199    3.0133 H   0  0  0  1  0  0  0  0  0  0  0  0
   -2.3129    1.7823    3.6645 H   0  0  0  1  0  0  0  0  0  0  0  0
   -3.1624    6.9322   -0.0324 H   0  0  0  1  0  0  0  0  0  0  0  0
   -3.1763    7.1759    1.6976 H   0  0  0  1  0  0  0  0  0  0  0  0
   -4.2866    6.0420    0.9657 H   0  0  0  1  0  0  0  0  0  0  0  0
   -1.3377    2.5946   -1.2947 C   0  0  0  1  0  0  0  0  0  0  0  0
   -2.7441    2.5351   -1.8580 C   0  0  0  1  0  0  0  0  0  0  0  0
   -3.0674    3.1295   -3.0679 C   0  0  0  1  0  0  0  0  0  0  0  0
   -4.3787    3.1389   -3.5044 C   0  0  0  1  0  0  0  0  0  0  0  0
   -5.3698    2.5495   -2.7351 C   0  0  0  1  0  0  0  0  0  0  0  0
   -5.0473    1.9570   -1.5289 C   0  0  0  1  0  0  0  0  0  0  0  0
   -3.7322    1.9473   -1.0908 C   0  0  0  1  0  0  0  0  0  0  0  0
   -6.6473    2.5671   -3.1873 O   0  0  0  1  0  0  0  0  0  0  0  0
   -4.6208    3.7423   -4.6936 O   0  0  0  1  0  0  0  0  0  0  0  0
   -1.0016    1.5953   -1.1117 H   0  0  0  1  0  0  0  0  0  0  0  0
   -0.7005    3.0589   -2.0181 H   0  0  0  1  0  0  0  0  0  0  0  0
   -2.3232    3.5682   -3.6470 H   0  0  0  1  0  0  0  0  0  0  0  0
   -5.7915    1.5182   -0.9498 H   0  0  0  1  0  0  0  0  0  0  0  0
   -3.4891    1.4979   -0.1850 H   0  0  0  1  0  0  0  0  0  0  0  0
   -6.6569    2.3766   -4.1281 H   0  0  0  1  0  0  0  0  0  0  0  0
   -5.2172    3.1986   -5.2133 H   0  0  0  1  0  0  0  0  0  0  0  0
  1  4  1  0  0  0  0
  2  4  1  0  0  0  0
  2  5  2  0  0  0  0
  2  6  1  0  0  0  0
  3  4  1  0  0  0  0
  3  7  1  0  0  0  0
  3  8  1  0  0  0  0
  4 19  1  0  0  0  0
  6  9  1  0  0  0  0
  6 12  1  0  0  0  0
  8 10  1  0  0  0  0
  8 11  2  0  0  0  0
  9 13  1  0  0  0  0
  9 14  1  0  0  0  0
  9 15  1  0  0  0  0
 10 16  1  0  0  0  0
 10 17  1  0  0  0  0
 10 18  1  0  0  0  0
 19 20  1  0  0  0  0
 19 28  1  0  0  0  0
 19 29  1  0  0  0  0
 20 21  4  0  0  0  0
 20 25  4  0  0  0  0
 21 22  4  0  0  0  0
 21 30  1  0  0  0  0
 22 23  4  0  0  0  0
 22 27  1  0  0  0  0
 23 24  4  0  0  0  0
 23 26  1  0  0  0  0
 24 25  4  0  0  0  0
 24 31  1  0  0  0  0
 25 32  1  0  0  0  0
 26 33  1  0  0  0  0
 27 34  1  0  0  0  0
M  END
> <BCLConfClusterSize>
1

> <ConfClashScore>
0 

> <ConfOneFourInteractionScore>
-0.928132 

> <ConfScore>
0.368833 

> <ConfScorePBest>
0.00273578 

> <ConfTolerance>
0.531875 

> <RosettaParamsInstructions>
M  ROOT 3
M  POLY_N_BB 3
M  POLY_CA_BB 4
M  POLY_C_BB 2
M  POLY_O_BB 5
M  POLY_IGNORE 9 10 11 12 13 14 15 16 17 18 
M  POLY_UPPER 6
M  POLY_LOWER 8
M  POLY_CHG 0
M  POLY_PROPERTIES ALPHA_AA D_AA PROTEIN AROMATIC POLYMER 
M  END

$$$$



 34 34  0  0  0  0  0  0  0  0999 V2000
    0.1284    3.9326   -0.8659 H   0  0  0  1  0  0  0  0  0  0  0  0
   -1.6912    4.6530   -0.1094 C   0  0  0  1  0  0  0  0  0  0  0  0
   -0.8881    4.7120   -2.4750 N   0  0  0  1  0  0  0  0  0  0  0  0
   -0.8838    3.9893   -1.2081 C   0  0  0  1  0  0  0  0  0  0  0  0
   -2.4691    4.0871    0.5688 O   0  0  0  1  0  0  0  0  0  0  0  0
   -1.4654    6.0226    0.0740 N   0  0  0  1  0  0  0  0  0  0  0  0
   -0.2076    4.4696   -3.1372 H   0  0  0  1  0  0  0  0  0  0  0  0
   -1.7557    5.6862   -2.8028 C   0  0  0  1  0  0  0  0  0  0  0  0
   -2.1249    6.8311    1.0885 C   0  0  0  1  0  0  0  0  0  0  0  0
   -1.5407    6.2551   -4.2123 C   0  0  0  1  0  0  0  0  0  0  0  0
   -2.6485    6.1054   -2.0674 O   0  0  0  1  0  0  0  0  0  0  0  0
   -0.8223    6.4649   -0.5185 H   0  0  0  1  0  0  0  0  0  0  0  0
   -3.1736    6.6182    1.0888 H   0  0  0  1  0  0  0  0  0  0  0  0
   -1.9718    7.8679    0.8730 H   0  0  0  1  0  0  0  0  0  0  0  0
   -1.7144    6.6016    2.0496 H   0  0  0  1  0  0  0  0  0  0  0  0
   -0.5698    6.7007   -4.2733 H   0  0  0  1  0  0  0  0  0  0  0  0
   -2.2860    6.9956   -4.4152 H   0  0  0  1  0  0  0  0  0  0  0  0
   -1.6165    5.4658   -4.9307 H   0  0  0  1  0  0  0  0  0  0  0  0
   -1.3505    2.5533   -1.4646 C   0  0  0  1  0  0  0  0  0  0  0  0
   -2.7796    2.4722   -1.9307 C   0  0  0  1  0  0  0  0  0  0  0  0
   -3.1129    2.9336   -3.1947 C   0  0  0  1  0  0  0  0  0  0  0  0
   -4.4348    2.9504   -3.5977 C   0  0  0  1  0  0  0  0  0  0  0  0
   -5.4268    2.5009   -2.7401 C   0  0  0  1  0  0  0  0  0  0  0  0
   -5.0943    2.0408   -1.4800 C   0  0  0  1  0  0  0  0  0  0  0  0
   -3.7686    2.0239   -1.0756 C   0  0  0  1  0  0  0  0  0  0  0  0
   -6.6991    2.5418   -3.2051 O   0  0  0  1  0  0  0  0  0  0  0  0
   -4.6861    3.4196   -4.8441 O   0  0  0  1  0  0  0  0  0  0  0  0
   -1.2568    1.9972   -0.5553 H   0  0  0  1  0  0  0  0  0  0  0  0
   -0.7225    2.1200   -2.2147 H   0  0  0  1  0  0  0  0  0  0  0  0
   -2.3683    3.2671   -3.8396 H   0  0  0  1  0  0  0  0  0  0  0  0
   -5.8389    1.7073   -0.8351 H   0  0  0  1  0  0  0  0  0  0  0  0
   -3.5181    1.6740   -0.1288 H   0  0  0  1  0  0  0  0  0  0  0  0
   -6.8154    1.8693   -3.8802 H   0  0  0  1  0  0  0  0  0  0  0  0
   -4.5297    4.3665   -4.8676 H   0  0  0  1  0  0  0  0  0  0  0  0
  1  4  1  0  0  0  0
  2  4  1  0  0  0  0
  2  5  2  0  0  0  0
  2  6  1  0  0  0  0
  3  4  1  0  0  0  0
  3  7  1  0  0  0  0
  3  8  1  0  0  0  0
  4 19  1  0  0  0  0
  6  9  1  0  0  0  0
  6 12  1  0  0  0  0
  8 10  1  0  0  0  0
  8 11  2  0  0  0  0
  9 13  1  0  0  0  0
  9 14  1  0  0  0  0
  9 15  1  0  0  0  0
 10 16  1  0  0  0  0
 10 17  1  0  0  0  0
 10 18  1  0  0  0  0
 19 20  1  0  0  0  0
 19 28  1  0  0  0  0
 19 29  1  0  0  0  0
 20 21  4  0  0  0  0
 20 25  4  0  0  0  0
 21 22  4  0  0  0  0
 21 30  1  0  0  0  0
 22 23  4  0  0  0  0
 22 27  1  0  0  0  0
 23 24  4  0  0  0  0
 23 26  1  0  0  0  0
 24 25  4  0  0  0  0
 24 31  1  0  0  0  0
 25 32  1  0  0  0  0
 26 33  1  0  0  0  0
 27 34  1  0  0  0  0
M  END
> <BCLConfClusterSize>
1

> <ConfClashScore>
0.000356656 

> <ConfOneFourInteractionScore>
-0.966825 

> <ConfScore>
0.370935 

> <ConfScorePBest>
0.0027073 

> <ConfTolerance>
0.593871 

> <RosettaParamsInstructions>
M  ROOT 3
M  POLY_N_BB 3
M  POLY_CA_BB 4
M  POLY_C_BB 2
M  POLY_O_BB 5
M  POLY_IGNORE 9 10 11 12 13 14 15 16 17 18 
M  POLY_UPPER 6
M  POLY_LOWER 8
M  POLY_CHG 0
M  POLY_PROPERTIES ALPHA_AA D_AA PROTEIN AROMATIC POLYMER 
M  END

$$$$



 34 34  0  0  0  0  0  0  0  0999 V2000
   -0.3595    1.1506   -2.6363 H   0  0  0  1  0  0  0  0  0  0  0  0
   -1.3841    0.0235   -1.1636 C   0  0  0  1  0  0  0  0  0  0  0  0
    0.7121    1.2918   -0.8725 N   0  0  0  1  0  0  0  0  0  0  0  0
   -0.5541    1.2316   -1.5873 C   0  0  0  1  0  0  0  0  0  0  0  0
   -1.0034   -0.6973   -0.2559 O   0  0  0  1  0  0  0  0  0  0  0  0
   -2.4759   -0.2480   -1.8841 N   0  0  0  1  0  0  0  0  0  0  0  0
    0.7295    1.1836    0.1013 H   0  0  0  1  0  0  0  0  0  0  0  0
    1.8509    1.4941   -1.5412 C   0  0  0  1  0  0  0  0  0  0  0  0
   -3.4635   -1.2633   -1.5498 C   0  0  0  1  0  0  0  0  0  0  0  0
    3.1227    1.3951   -0.7213 C   0  0  0  1  0  0  0  0  0  0  0  0
    1.8853    1.7454   -2.7429 O   0  0  0  1  0  0  0  0  0  0  0  0
   -2.6228    0.2760   -2.6991 H   0  0  0  1  0  0  0  0  0  0  0  0
   -4.2676   -0.8138   -1.0055 H   0  0  0  1  0  0  0  0  0  0  0  0
   -3.0061   -2.0213   -0.9489 H   0  0  0  1  0  0  0  0  0  0  0  0
   -3.8430   -1.7012   -2.4494 H   0  0  0  1  0  0  0  0  0  0  0  0
    3.2780    0.3789   -0.4244 H   0  0  0  1  0  0  0  0  0  0  0  0
    3.0345    2.0112    0.1490 H   0  0  0  1  0  0  0  0  0  0  0  0
    3.9529    1.7253   -1.3101 H   0  0  0  1  0  0  0  0  0  0  0  0
   -1.3401    2.5251   -1.3485 C   0  0  0  1  0  0  0  0  0  0  0  0
   -2.7450    2.4692   -1.8862 C   0  0  0  1  0  0  0  0  0  0  0  0
   -3.0101    2.9582   -3.1560 C   0  0  0  1  0  0  0  0  0  0  0  0
   -4.3102    2.9978   -3.6235 C   0  0  0  1  0  0  0  0  0  0  0  0
   -5.3482    2.5437   -2.8249 C   0  0  0  1  0  0  0  0  0  0  0  0
   -5.0837    2.0563   -1.5590 C   0  0  0  1  0  0  0  0  0  0  0  0
   -3.7799    2.0164   -1.0899 C   0  0  0  1  0  0  0  0  0  0  0  0
   -6.5760    2.6274   -3.3925 O   0  0  0  1  0  0  0  0  0  0  0  0
   -4.5446    3.4851   -4.8662 O   0  0  0  1  0  0  0  0  0  0  0  0
   -0.8238    3.3306   -1.8276 H   0  0  0  1  0  0  0  0  0  0  0  0
   -1.3856    2.7063   -0.2950 H   0  0  0  1  0  0  0  0  0  0  0  0
   -2.2309    3.2952   -3.7567 H   0  0  0  1  0  0  0  0  0  0  0  0
   -5.8629    1.7193   -0.9582 H   0  0  0  1  0  0  0  0  0  0  0  0
   -3.5805    1.6459   -0.1388 H   0  0  0  1  0  0  0  0  0  0  0  0
   -6.8595    1.7542   -3.6732 H   0  0  0  1  0  0  0  0  0  0  0  0
   -5.1514    4.2269   -4.8103 H   0  0  0  1  0  0  0  0  0  0  0  0
  1  4  1  0  0  0  0
  2  4  1  0  0  0  0
  2  5  2  0  0  0  0
  2  6  1  0  0  0  0
  3  4  1  0  0  0  0
  3  7  1  0  0  0  0
  3  8  1  0  0  0  0
  4 19  1  0  0  0  0
  6  9  1  0  0  0  0
  6 12  1  0  0  0  0
  8 10  1  0  0  0  0
  8 11  2  0  0  0  0
  9 13  1  0  0  0  0
  9 14  1  0  0  0  0
  9 15  1  0  0  0  0
 10 16  1  0  0  0  0
 10 17  1  0  0  0  0
 10 18  1  0  0  0  0
 19 20  1  0  0  0  0
 19 28  1  0  0  0  0
 19 29  1  0  0  0  0
 20 21  4  0  0  0  0
 20 25  4  0  0  0  0
 21 22  4  0  0  0  0
 21 30  1  0  0  0  0
 22 23  4  0  0  0  0
 22 27  1  0  0  0  0
 23 24  4  0  0  0  0
 23 26  1  0  0  0  0
 24 25  4  0  0  0  0
 24 31  1  0  0  0  0
 25 32  1  0  0  0  0
 26 33  1  0  0  0  0
 27 34  1  0  0  0  0
M  END
> <BCLConfClusterSize>
1

> <ConfClashScore>
0 

> <ConfOneFourInteractionScore>
-0.986627 

> <ConfScore>
0.376474 

> <ConfScorePBest>
0.00267882 

> <ConfTolerance>
1.0475 

> <RosettaParamsInstructions>
M  ROOT 3
M  POLY_N_BB 3
M  POLY_CA_BB 4
M  POLY_C_BB 2
M  POLY_O_BB 5
M  POLY_IGNORE 9 10 11 12 13 14 15 16 17 18 
M  POLY_UPPER 6
M  POLY_LOWER 8
M  POLY_CHG 0
M  POLY_PROPERTIES ALPHA_AA D_AA PROTEIN AROMATIC POLYMER 
M  END

$$$$



 34 34  0  0  0  0  0  0  0  0999 V2000
   -2.1717    3.8852    0.3605 H   0  0  0  1  0  0  0  0  0  0  0  0
   -1.6085    5.2825   -1.1351 C   0  0  0  1  0  0  0  0  0  0  0  0
   -0.0978    4.0345    0.3180 N   0  0  0  1  0  0  0  0  0  0  0  0
   -1.3865    3.9999   -0.3573 C   0  0  0  1  0  0  0  0  0  0  0  0
   -0.8579    5.6228   -2.0347 O   0  0  0  1  0  0  0  0  0  0  0  0
   -2.6861    5.9761   -0.7356 N   0  0  0  1  0  0  0  0  0  0  0  0
   -0.0773    4.0444    1.2977 H   0  0  0  1  0  0  0  0  0  0  0  0
    1.0583    4.0531   -0.3513 C   0  0  0  1  0  0  0  0  0  0  0  0
   -3.0556    7.2961   -1.2245 C   0  0  0  1  0  0  0  0  0  0  0  0
    2.3122    4.2165    0.4981 C   0  0  0  1  0  0  0  0  0  0  0  0
    1.1257    3.9465   -1.5752 O   0  0  0  1  0  0  0  0  0  0  0  0
   -3.2679    5.5625   -0.0641 H   0  0  0  1  0  0  0  0  0  0  0  0
   -2.3543    7.6104   -1.9690 H   0  0  0  1  0  0  0  0  0  0  0  0
   -3.0485    7.9921   -0.4118 H   0  0  0  1  0  0  0  0  0  0  0  0
   -4.0356    7.2563   -1.6522 H   0  0  0  1  0  0  0  0  0  0  0  0
    2.1009    3.9267    1.5062 H   0  0  0  1  0  0  0  0  0  0  0  0
    2.6245    5.2398    0.4794 H   0  0  0  1  0  0  0  0  0  0  0  0
    3.0919    3.5979    0.1054 H   0  0  0  1  0  0  0  0  0  0  0  0
   -1.4215    2.8233   -1.3238 C   0  0  0  1  0  0  0  0  0  0  0  0
   -2.7928    2.5646   -1.8883 C   0  0  0  1  0  0  0  0  0  0  0  0
   -3.0919    2.9846   -3.1751 C   0  0  0  1  0  0  0  0  0  0  0  0
   -4.3740    2.8363   -3.6697 C   0  0  0  1  0  0  0  0  0  0  0  0
   -5.3593    2.2628   -2.8812 C   0  0  0  1  0  0  0  0  0  0  0  0
   -5.0608    1.8441   -1.5983 C   0  0  0  1  0  0  0  0  0  0  0  0
   -3.7751    1.9927   -1.1020 C   0  0  0  1  0  0  0  0  0  0  0  0
   -6.6073    2.1235   -3.3907 O   0  0  0  1  0  0  0  0  0  0  0  0
   -4.6431    3.2595   -4.9288 O   0  0  0  1  0  0  0  0  0  0  0  0
   -1.0960    1.9462   -0.8045 H   0  0  0  1  0  0  0  0  0  0  0  0
   -0.7528    3.0278   -2.1337 H   0  0  0  1  0  0  0  0  0  0  0  0
   -2.3518    3.4113   -3.7681 H   0  0  0  1  0  0  0  0  0  0  0  0
   -5.8010    1.4174   -1.0053 H   0  0  0  1  0  0  0  0  0  0  0  0
   -3.5497    1.6739   -0.1381 H   0  0  0  1  0  0  0  0  0  0  0  0
   -7.1126    2.9225   -3.2238 H   0  0  0  1  0  0  0  0  0  0  0  0
   -4.4821    4.2039   -4.9907 H   0  0  0  1  0  0  0  0  0  0  0  0
  1  4  1  0  0  0  0
  2  4  1  0  0  0  0
  2  5  2  0  0  0  0
  2  6  1  0  0  0  0
  3  4  1  0  0  0  0
  3  7  1  0  0  0  0
  3  8  1  0  0  0  0
  4 19  1  0  0  0  0
  6  9  1  0  0  0  0
  6 12  1  0  0  0  0
  8 10  1  0  0  0  0
  8 11  2  0  0  0  0
  9 13  1  0  0  0  0
  9 14  1  0  0  0  0
  9 15  1  0  0  0  0
 10 16  1  0  0  0  0
 10 17  1  0  0  0  0
 10 18  1  0  0  0  0
 19 20  1  0  0  0  0
 19 28  1  0  0  0  0
 19 29  1  0  0  0  0
 20 21  4  0  0  0  0
 20 25  4  0  0  0  0
 21 22  4  0  0  0  0
 21 30  1  0  0  0  0
 22 23  4  0  0  0  0
 22 27  1  0  0  0  0
 23 24  4  0  0  0  0
 23 26  1  0  0  0  0
 24 25  4  0  0  0  0
 24 31  1  0  0  0  0
 25 32  1  0  0  0  0
 26 33  1  0  0  0  0
 27 34  1  0  0  0  0
M  END
> <BCLConfClusterSize>
1

> <ConfClashScore>
0 

> <ConfOneFourInteractionScore>
-0.984199 

> <ConfScore>
0.384164 

> <ConfScorePBest>
0.00265034 

> <ConfTolerance>
1.00041 

> <RosettaParamsInstructions>
M  ROOT 3
M  POLY_N_BB 3
M  POLY_CA_BB 4
M  POLY_C_BB 2
M  POLY_O_BB 5
M  POLY_IGNORE 9 10 11 12 13 14 15 16 17 18 
M  POLY_UPPER 6
M  POLY_LOWER 8
M  POLY_CHG 0
M  POLY_PROPERTIES ALPHA_AA D_AA PROTEIN AROMATIC POLYMER 
M  END

$$$$



 34 34  0  0  0  0  0  0  0  0999 V2000
   -0.6044    3.6519   -3.0096 H   0  0  0  1  0  0  0  0  0  0  0  0
    0.0654    1.6574   -2.9359 C   0  0  0  1  0  0  0  0  0  0  0  0
    0.8728    3.5570   -1.5802 N   0  0  0  1  0  0  0  0  0  0  0  0
   -0.2787    2.9717   -2.2506 C   0  0  0  1  0  0  0  0  0  0  0  0
   -0.5456    1.2788   -3.9317 O   0  0  0  1  0  0  0  0  0  0  0  0
    1.0607    0.9602   -2.3859 N   0  0  0  1  0  0  0  0  0  0  0  0
    0.7944    3.8051   -0.6353 H   0  0  0  1  0  0  0  0  0  0  0  0
    2.0331    3.7680   -2.2080 C   0  0  0  1  0  0  0  0  0  0  0  0
    1.5390   -0.2918   -2.9529 C   0  0  0  1  0  0  0  0  0  0  0  0
    3.1038    4.4594   -1.3947 C   0  0  0  1  0  0  0  0  0  0  0  0
    2.2358    3.4285   -3.3730 O   0  0  0  1  0  0  0  0  0  0  0  0
    1.4847    1.3030   -1.5715 H   0  0  0  1  0  0  0  0  0  0  0  0
    1.9582   -0.1087   -3.9202 H   0  0  0  1  0  0  0  0  0  0  0  0
    0.7224   -0.9775   -3.0424 H   0  0  0  1  0  0  0  0  0  0  0  0
    2.2879   -0.7098   -2.3132 H   0  0  0  1  0  0  0  0  0  0  0  0
    3.7025    5.0700   -2.0378 H   0  0  0  1  0  0  0  0  0  0  0  0
    3.7227    3.7251   -0.9227 H   0  0  0  1  0  0  0  0  0  0  0  0
    2.6440    5.0723   -0.6478 H   0  0  0  1  0  0  0  0  0  0  0  0
   -1.4303    2.8020   -1.2684 C   0  0  0  1  0  0  0  0  0  0  0  0
   -2.7905    2.5676   -1.8960 C   0  0  0  1  0  0  0  0  0  0  0  0
   -3.0780    2.9903   -3.1845 C   0  0  0  1  0  0  0  0  0  0  0  0
   -4.3565    2.8463   -3.6897 C   0  0  0  1  0  0  0  0  0  0  0  0
   -5.3497    2.2745   -2.9099 C   0  0  0  1  0  0  0  0  0  0  0  0
   -5.0628    1.8531   -1.6253 C   0  0  0  1  0  0  0  0  0  0  0  0
   -3.7807    1.9974   -1.1184 C   0  0  0  1  0  0  0  0  0  0  0  0
   -6.6274    2.0884   -3.3217 O   0  0  0  1  0  0  0  0  0  0  0  0
   -4.6142    3.2720   -4.9502 O   0  0  0  1  0  0  0  0  0  0  0  0
   -1.4899    3.6892   -0.6732 H   0  0  0  1  0  0  0  0  0  0  0  0
   -1.2079    1.9648   -0.6404 H   0  0  0  1  0  0  0  0  0  0  0  0
   -2.3319    3.4157   -3.7710 H   0  0  0  1  0  0  0  0  0  0  0  0
   -5.8089    1.4277   -1.0388 H   0  0  0  1  0  0  0  0  0  0  0  0
   -3.5639    1.6767   -0.1532 H   0  0  0  1  0  0  0  0  0  0  0  0
   -7.1361    2.8860   -3.1582 H   0  0  0  1  0  0  0  0  0  0  0  0
   -4.4923    4.2230   -4.9985 H   0  0  0  1  0  0  0  0  0  0  0  0
  1  4  1  0  0  0  0
  2  4  1  0  0  0  0
  2  5  2  0  0  0  0
  2  6  1  0  0  0  0
  3  4  1  0  0  0  0
  3  7  1  0  0  0  0
  3  8  1  0  0  0  0
  4 19  1  0  0  0  0
  6  9  1  0  0  0  0
  6 12  1  0  0  0  0
  8 10  1  0  0  0  0
  8 11  2  0  0  0  0
  9 13  1  0  0  0  0
  9 14  1  0  0  0  0
  9 15  1  0  0  0  0
 10 16  1  0  0  0  0
 10 17  1  0  0  0  0
 10 18  1  0  0  0  0
 19 20  1  0  0  0  0
 19 28  1  0  0  0  0
 19 29  1  0  0  0  0
 20 21  4  0  0  0  0
 20 25  4  0  0  0  0
 21 22  4  0  0  0  0
 21 30  1  0  0  0  0
 22 23  4  0  0  0  0
 22 27  1  0  0  0  0
 23 24  4  0  0  0  0
 23 26  1  0  0  0  0
 24 25  4  0  0  0  0
 24 31  1  0  0  0  0
 25 32  1  0  0  0  0
 26 33  1  0  0  0  0
 27 34  1  0  0  0  0
M  END
> <BCLConfClusterSize>
1

> <ConfClashScore>
0 

> <ConfOneFourInteractionScore>
-0.952877 

> <ConfScore>
0.38654 

> <ConfScorePBest>
0.00262186 

> <ConfTolerance>
1.12114 

> <RosettaParamsInstructions>
M  ROOT 3
M  POLY_N_BB 3
M  POLY_CA_BB 4
M  POLY_C_BB 2
M  POLY_O_BB 5
M  POLY_IGNORE 9 10 11 12 13 14 15 16 17 18 
M  POLY_UPPER 6
M  POLY_LOWER 8
M  POLY_CHG 0
M  POLY_PROPERTIES ALPHA_AA D_AA PROTEIN AROMATIC POLYMER 
M  END

$$$$



 34 34  0  0  0  0  0  0  0  0999 V2000
   -0.2629    3.6454    0.0159 H   0  0  0  1  0  0  0  0  0  0  0  0
   -1.2281    2.0546    0.9838 C   0  0  0  1  0  0  0  0  0  0  0  0
   -2.2261    4.1919    0.2935 N   0  0  0  1  0  0  0  0  0  0  0  0
   -1.2231    3.1773   -0.0453 C   0  0  0  1  0  0  0  0  0  0  0  0
   -0.2411    1.3816    1.2186 O   0  0  0  1  0  0  0  0  0  0  0  0
   -2.3515    1.7951    1.6546 N   0  0  0  1  0  0  0  0  0  0  0  0
   -2.8625    3.9791    1.0078 H   0  0  0  1  0  0  0  0  0  0  0  0
   -2.3389    5.3963   -0.3040 C   0  0  0  1  0  0  0  0  0  0  0  0
   -2.5073    0.7361    2.6406 C   0  0  0  1  0  0  0  0  0  0  0  0
   -3.4669    6.3083    0.1377 C   0  0  0  1  0  0  0  0  0  0  0  0
   -1.5524    5.7460   -1.1801 O   0  0  0  1  0  0  0  0  0  0  0  0
   -3.1305    2.3602    1.4696 H   0  0  0  1  0  0  0  0  0  0  0  0
   -3.5152    0.3773    2.6230 H   0  0  0  1  0  0  0  0  0  0  0  0
   -2.2824    1.1194    3.6139 H   0  0  0  1  0  0  0  0  0  0  0  0
   -1.8390   -0.0670    2.4097 H   0  0  0  1  0  0  0  0  0  0  0  0
   -3.0659    7.1266    0.6986 H   0  0  0  1  0  0  0  0  0  0  0  0
   -4.1512    5.7584    0.7493 H   0  0  0  1  0  0  0  0  0  0  0  0
   -3.9796    6.6837   -0.7232 H   0  0  0  1  0  0  0  0  0  0  0  0
   -1.3639    2.6536   -1.4686 C   0  0  0  1  0  0  0  0  0  0  0  0
   -2.7961    2.5373   -1.9149 C   0  0  0  1  0  0  0  0  0  0  0  0
   -3.1837    3.1013   -3.1204 C   0  0  0  1  0  0  0  0  0  0  0  0
   -4.5136    3.0821   -3.4963 C   0  0  0  1  0  0  0  0  0  0  0  0
   -5.4590    2.4942   -2.6704 C   0  0  0  1  0  0  0  0  0  0  0  0
   -5.0724    1.9319   -1.4685 C   0  0  0  1  0  0  0  0  0  0  0  0
   -3.7387    1.9511   -1.0914 C   0  0  0  1  0  0  0  0  0  0  0  0
   -6.7559    2.4833   -3.0635 O   0  0  0  1  0  0  0  0  0  0  0  0
   -4.8685    3.6446   -4.6771 O   0  0  0  1  0  0  0  0  0  0  0  0
   -0.9109    1.6857   -1.5217 H   0  0  0  1  0  0  0  0  0  0  0  0
   -0.8544    3.3232   -2.1298 H   0  0  0  1  0  0  0  0  0  0  0  0
   -2.4738    3.5388   -3.7420 H   0  0  0  1  0  0  0  0  0  0  0  0
   -5.7822    1.4944   -0.8470 H   0  0  0  1  0  0  0  0  0  0  0  0
   -3.4473    1.5244   -0.1888 H   0  0  0  1  0  0  0  0  0  0  0  0
   -6.8012    2.3715   -4.0159 H   0  0  0  1  0  0  0  0  0  0  0  0
   -4.1669    3.5123   -5.3188 H   0  0  0  1  0  0  0  0  0  0  0  0
  1  4  1  0  0  0  0
  2  4  1  0  0  0  0
  2  5  2  0  0  0  0
  2  6  1  0  0  0  0
  3  4  1  0  0  0  0
  3  7  1  0  0  0  0
  3  8  1  0  0  0  0
  4 19  1  0  0  0  0
  6  9  1  0  0  0  0
  6 12  1  0  0  0  0
  8 10  1  0  0  0  0
  8 11  2  0  0  0  0
  9 13  1  0  0  0  0
  9 14  1  0  0  0  0
  9 15  1  0  0  0  0
 10 16  1  0  0  0  0
 10 17  1  0  0  0  0
 10 18  1  0  0  0  0
 19 20  1  0  0  0  0
 19 28  1  0  0  0  0
 19 29  1  0  0  0  0
 20 21  4  0  0  0  0
 20 25  4  0  0  0  0
 21 22  4  0  0  0  0
 21 30  1  0  0  0  0
 22 23  4  0  0  0  0
 22 27  1  0  0  0  0
 23 24  4  0  0  0  0
 23 26  1  0  0  0  0
 24 25  4  0  0  0  0
 24 31  1  0  0  0  0
 25 32  1  0  0  0  0
 26 33  1  0  0  0  0
 27 34  1  0  0  0  0
M  END
> <BCLConfClusterSize>
1

> <ConfClashScore>
0 

> <ConfOneFourInteractionScore>
-0.930161 

> <ConfScore>
0.402271 

> <ConfScorePBest>
0.00259338 

> <ConfTolerance>
0.964216 

> <RosettaParamsInstructions>
M  ROOT 3
M  POLY_N_BB 3
M  POLY_CA_BB 4
M  POLY_C_BB 2
M  POLY_O_BB 5
M  POLY_IGNORE 9 10 11 12 13 14 15 16 17 18 
M  POLY_UPPER 6
M  POLY_LOWER 8
M  POLY_CHG 0
M  POLY_PROPERTIES ALPHA_AA D_AA PROTEIN AROMATIC POLYMER 
M  END

$$$$



 34 34  0  0  0  0  0  0  0  0999 V2000
   -1.6108    0.8990   -0.1539 H   0  0  0  1  0  0  0  0  0  0  0  0
   -1.8281    2.6271    1.0219 C   0  0  0  1  0  0  0  0  0  0  0  0
    0.2708    1.6707    0.1554 N   0  0  0  1  0  0  0  0  0  0  0  0
   -1.1483    1.8622   -0.0970 C   0  0  0  1  0  0  0  0  0  0  0  0
   -2.7343    3.4232    0.7909 O   0  0  0  1  0  0  0  0  0  0  0  0
   -1.3772    2.3758    2.2542 N   0  0  0  1  0  0  0  0  0  0  0  0
    0.6215    0.7699    0.3169 H   0  0  0  1  0  0  0  0  0  0  0  0
    1.1012    2.7245    0.1676 C   0  0  0  1  0  0  0  0  0  0  0  0
   -1.9175    3.1038    3.3926 C   0  0  0  1  0  0  0  0  0  0  0  0
    2.5664    2.3448    0.2574 C   0  0  0  1  0  0  0  0  0  0  0  0
    0.7418    3.8998    0.1126 O   0  0  0  1  0  0  0  0  0  0  0  0
   -0.6811    1.6999    2.3918 H   0  0  0  1  0  0  0  0  0  0  0  0
   -2.9756    3.2134    3.2770 H   0  0  0  1  0  0  0  0  0  0  0  0
   -1.4627    4.0709    3.4456 H   0  0  0  1  0  0  0  0  0  0  0  0
   -1.7114    2.5625    4.2923 H   0  0  0  1  0  0  0  0  0  0  0  0
    3.1631    3.2319    0.3023 H   0  0  0  1  0  0  0  0  0  0  0  0
    2.8403    1.7744   -0.6055 H   0  0  0  1  0  0  0  0  0  0  0  0
    2.7298    1.7604    1.1386 H   0  0  0  1  0  0  0  0  0  0  0  0
   -1.3584    2.5479   -1.4520 C   0  0  0  1  0  0  0  0  0  0  0  0
   -2.7821    2.4747   -1.9354 C   0  0  0  1  0  0  0  0  0  0  0  0
   -3.0990    2.9462   -3.1999 C   0  0  0  1  0  0  0  0  0  0  0  0
   -4.4160    2.9702   -3.6183 C   0  0  0  1  0  0  0  0  0  0  0  0
   -5.4195    2.5180   -2.7756 C   0  0  0  1  0  0  0  0  0  0  0  0
   -5.1034    2.0479   -1.5150 C   0  0  0  1  0  0  0  0  0  0  0  0
   -3.7825    2.0237   -1.0951 C   0  0  0  1  0  0  0  0  0  0  0  0
   -6.7240    2.5170   -3.1429 O   0  0  0  1  0  0  0  0  0  0  0  0
   -4.6511    3.4491   -4.8641 O   0  0  0  1  0  0  0  0  0  0  0  0
   -0.7284    2.0734   -2.1750 H   0  0  0  1  0  0  0  0  0  0  0  0
   -1.0828    3.5775   -1.3590 H   0  0  0  1  0  0  0  0  0  0  0  0
   -2.3458    3.2818   -3.8336 H   0  0  0  1  0  0  0  0  0  0  0  0
   -5.8566    1.7123   -0.8812 H   0  0  0  1  0  0  0  0  0  0  0  0
   -3.5443    1.6663   -0.1480 H   0  0  0  1  0  0  0  0  0  0  0  0
   -6.8903    1.7781   -3.7327 H   0  0  0  1  0  0  0  0  0  0  0  0
   -4.4501    4.3875   -4.8900 H   0  0  0  1  0  0  0  0  0  0  0  0
  1  4  1  0  0  0  0
  2  4  1  0  0  0  0
  2  5  2  0  0  0  0
  2  6  1  0  0  0  0
  3  4  1  0  0  0  0
  3  7  1  0  0  0  0
  3  8  1  0  0  0  0
  4 19  1  0  0  0  0
  6  9  1  0  0  0  0
  6 12  1  0  0  0  0
  8 10  1  0  0  0  0
  8 11  2  0  0  0  0
  9 13  1  0  0  0  0
  9 14  1  0  0  0  0
  9 15  1  0  0  0  0
 10 16  1  0  0  0  0
 10 17  1  0  0  0  0
 10 18  1  0  0  0  0
 19 20  1  0  0  0  0
 19 28  1  0  0  0  0
 19 29  1  0  0  0  0
 20 21  4  0  0  0  0
 20 25  4  0  0  0  0
 21 22  4  0  0  0  0
 21 30  1  0  0  0  0
 22 23  4  0  0  0  0
 22 27  1  0  0  0  0
 23 24  4  0  0  0  0
 23 26  1  0  0  0  0
 24 25  4  0  0  0  0
 24 31  1  0  0  0  0
 25 32  1  0  0  0  0
 26 33  1  0  0  0  0
 27 34  1  0  0  0  0
M  END
> <BCLConfClusterSize>
1

> <ConfClashScore>
0 

> <ConfOneFourInteractionScore>
-0.94953 

> <ConfScore>
0.402348 

> <ConfScorePBest>
0.0025649 

> <ConfTolerance>
0.994264 

> <RosettaParamsInstructions>
M  ROOT 3
M  POLY_N_BB 3
M  POLY_CA_BB 4
M  POLY_C_BB 2
M  POLY_O_BB 5
M  POLY_IGNORE 9 10 11 12 13 14 15 16 17 18 
M  POLY_UPPER 6
M  POLY_LOWER 8
M  POLY_CHG 0
M  POLY_PROPERTIES ALPHA_AA D_AA PROTEIN AROMATIC POLYMER 
M  END

$$$$



 34 34  0  0  0  0  0  0  0  0999 V2000
   -1.0612    0.7661   -1.8014 H   0  0  0  1  0  0  0  0  0  0  0  0
    0.3419    1.2405   -0.3148 C   0  0  0  1  0  0  0  0  0  0  0  0
    0.4621    1.8702   -2.6608 N   0  0  0  1  0  0  0  0  0  0  0  0
   -0.4572    1.6109   -1.5437 C   0  0  0  1  0  0  0  0  0  0  0  0
   -0.0608    0.3889    0.4753 O   0  0  0  1  0  0  0  0  0  0  0  0
    1.4973    1.8952   -0.1537 N   0  0  0  1  0  0  0  0  0  0  0  0
    1.3976    2.0852   -2.4633 H   0  0  0  1  0  0  0  0  0  0  0  0
    0.0629    1.8225   -3.9486 C   0  0  0  1  0  0  0  0  0  0  0  0
    2.4557    1.5376    0.8814 C   0  0  0  1  0  0  0  0  0  0  0  0
    1.1188    1.9352   -5.0248 C   0  0  0  1  0  0  0  0  0  0  0  0
   -1.1249    1.6912   -4.2414 O   0  0  0  1  0  0  0  0  0  0  0  0
    1.7055    2.6417   -0.7536 H   0  0  0  1  0  0  0  0  0  0  0  0
    3.1060    0.7703    0.5163 H   0  0  0  1  0  0  0  0  0  0  0  0
    1.9324    1.1808    1.7438 H   0  0  0  1  0  0  0  0  0  0  0  0
    3.0334    2.3988    1.1451 H   0  0  0  1  0  0  0  0  0  0  0  0
    0.6608    1.8350   -5.9866 H   0  0  0  1  0  0  0  0  0  0  0  0
    1.8455    1.1608   -4.8937 H   0  0  0  1  0  0  0  0  0  0  0  0
    1.5976    2.8896   -4.9558 H   0  0  0  1  0  0  0  0  0  0  0  0
   -1.3934    2.7957   -1.3453 C   0  0  0  1  0  0  0  0  0  0  0  0
   -2.7783    2.5491   -1.8813 C   0  0  0  1  0  0  0  0  0  0  0  0
   -3.0934    2.9511   -3.1700 C   0  0  0  1  0  0  0  0  0  0  0  0
   -4.3861    2.8147   -3.6397 C   0  0  0  1  0  0  0  0  0  0  0  0
   -5.3663    2.2711   -2.8241 C   0  0  0  1  0  0  0  0  0  0  0  0
   -5.0520    1.8704   -1.5392 C   0  0  0  1  0  0  0  0  0  0  0  0
   -3.7555    2.0071   -1.0680 C   0  0  0  1  0  0  0  0  0  0  0  0
   -6.6252    2.1429   -3.3093 O   0  0  0  1  0  0  0  0  0  0  0  0
   -4.6215    3.2338   -4.9068 O   0  0  0  1  0  0  0  0  0  0  0  0
   -0.9797    3.6447   -1.8483 H   0  0  0  1  0  0  0  0  0  0  0  0
   -1.4653    3.0013   -0.2977 H   0  0  0  1  0  0  0  0  0  0  0  0
   -2.3572    3.3553   -3.7834 H   0  0  0  1  0  0  0  0  0  0  0  0
   -5.7882    1.4662   -0.9259 H   0  0  0  1  0  0  0  0  0  0  0  0
   -3.5182    1.7018   -0.1025 H   0  0  0  1  0  0  0  0  0  0  0  0
   -6.9123    2.9803   -3.6807 H   0  0  0  1  0  0  0  0  0  0  0  0
   -4.7754    4.1814   -4.9076 H   0  0  0  1  0  0  0  0  0  0  0  0
  1  4  1  0  0  0  0
  2  4  1  0  0  0  0
  2  5  2  0  0  0  0
  2  6  1  0  0  0  0
  3  4  1  0  0  0  0
  3  7  1  0  0  0  0
  3  8  1  0  0  0  0
  4 19  1  0  0  0  0
  6  9  1  0  0  0  0
  6 12  1  0  0  0  0
  8 10  1  0  0  0  0
  8 11  2  0  0  0  0
  9 13  1  0  0  0  0
  9 14  1  0  0  0  0
  9 15  1  0  0  0  0
 10 16  1  0  0  0  0
 10 17  1  0  0  0  0
 10 18  1  0  0  0  0
 19 20  1  0  0  0  0
 19 28  1  0  0  0  0
 19 29  1  0  0  0  0
 20 21  4  0  0  0  0
 20 25  4  0  0  0  0
 21 22  4  0  0  0  0
 21 30  1  0  0  0  0
 22 23  4  0  0  0  0
 22 27  1  0  0  0  0
 23 24  4  0  0  0  0
 23 26  1  0  0  0  0
 24 25  4  0  0  0  0
 24 31  1  0  0  0  0
 25 32  1  0  0  0  0
 26 33  1  0  0  0  0
 27 34  1  0  0  0  0
M  END
> <BCLConfClusterSize>
1

> <ConfClashScore>
0 

> <ConfOneFourInteractionScore>
-0.953529 

> <ConfScore>
0.403816 

> <ConfScorePBest>
0.00253641 

> <ConfTolerance>
1.0382 

> <RosettaParamsInstructions>
M  ROOT 3
M  POLY_N_BB 3
M  POLY_CA_BB 4
M  POLY_C_BB 2
M  POLY_O_BB 5
M  POLY_IGNORE 9 10 11 12 13 14 15 16 17 18 
M  POLY_UPPER 6
M  POLY_LOWER 8
M  POLY_CHG 0
M  POLY_PROPERTIES ALPHA_AA D_AA PROTEIN AROMATIC POLYMER 
M  END

$$$$



 34 34  0  0  0  0  0  0  0  0999 V2000
   -0.8428    1.0223   -2.5011 H   0  0  0  1  0  0  0  0  0  0  0  0
   -0.4445    0.4907   -0.5164 C   0  0  0  1  0  0  0  0  0  0  0  0
    0.8896    2.0023   -1.9792 N   0  0  0  1  0  0  0  0  0  0  0  0
   -0.4507    1.5140   -1.6354 C   0  0  0  1  0  0  0  0  0  0  0  0
    0.3128   -0.4756   -0.5507 O   0  0  0  1  0  0  0  0  0  0  0  0
   -1.2899    0.6732    0.5103 N   0  0  0  1  0  0  0  0  0  0  0  0
    1.0308    2.4196   -2.8546 H   0  0  0  1  0  0  0  0  0  0  0  0
    1.9329    1.8970   -1.1333 C   0  0  0  1  0  0  0  0  0  0  0  0
   -1.3339   -0.2296    1.6509 C   0  0  0  1  0  0  0  0  0  0  0  0
    3.1683    2.6465   -1.5930 C   0  0  0  1  0  0  0  0  0  0  0  0
    1.9190    1.2626   -0.0818 O   0  0  0  1  0  0  0  0  0  0  0  0
   -1.8986    1.4410    0.4910 H   0  0  0  1  0  0  0  0  0  0  0  0
   -1.6652   -1.1950    1.3298 H   0  0  0  1  0  0  0  0  0  0  0  0
   -2.0126    0.1547    2.3835 H   0  0  0  1  0  0  0  0  0  0  0  0
   -0.3564   -0.3121    2.0781 H   0  0  0  1  0  0  0  0  0  0  0  0
    3.1740    2.7044   -2.6614 H   0  0  0  1  0  0  0  0  0  0  0  0
    4.0436    2.1293   -1.2595 H   0  0  0  1  0  0  0  0  0  0  0  0
    3.1591    3.6345   -1.1825 H   0  0  0  1  0  0  0  0  0  0  0  0
   -1.3542    2.7074   -1.3720 C   0  0  0  1  0  0  0  0  0  0  0  0
   -2.7774    2.5666   -1.8699 C   0  0  0  1  0  0  0  0  0  0  0  0
   -3.1440    3.1615   -3.0671 C   0  0  0  1  0  0  0  0  0  0  0  0
   -4.4608    3.1189   -3.4850 C   0  0  0  1  0  0  0  0  0  0  0  0
   -5.4137    2.4769   -2.7098 C   0  0  0  1  0  0  0  0  0  0  0  0
   -5.0480    1.8838   -1.5161 C   0  0  0  1  0  0  0  0  0  0  0  0
   -3.7275    1.9264   -1.0968 C   0  0  0  1  0  0  0  0  0  0  0  0
   -6.7069    2.4241   -3.1117 O   0  0  0  1  0  0  0  0  0  0  0  0
   -4.7464    3.7261   -4.6625 O   0  0  0  1  0  0  0  0  0  0  0  0
   -0.9206    3.5614   -1.8490 H   0  0  0  1  0  0  0  0  0  0  0  0
   -1.3889    2.8682   -0.3147 H   0  0  0  1  0  0  0  0  0  0  0  0
   -2.4283    3.6397   -3.6508 H   0  0  0  1  0  0  0  0  0  0  0  0
   -5.7637    1.4056   -0.9325 H   0  0  0  1  0  0  0  0  0  0  0  0
   -3.4517    1.4766   -0.2006 H   0  0  0  1  0  0  0  0  0  0  0  0
   -6.7697    2.7062   -4.0272 H   0  0  0  1  0  0  0  0  0  0  0  0
   -4.6308    3.1009   -5.3818 H   0  0  0  1  0  0  0  0  0  0  0  0
  1  4  1  0  0  0  0
  2  4  1  0  0  0  0
  2  5  2  0  0  0  0
  2  6  1  0  0  0  0
  3  4  1  0  0  0  0
  3  7  1  0  0  0  0
  3  8  1  0  0  0  0
  4 19  1  0  0  0  0
  6  9  1  0  0  0  0
  6 12  1  0  0  0  0
  8 10  1  0  0  0  0
  8 11  2  0  0  0  0
  9 13  1  0  0  0  0
  9 14  1  0  0  0  0
  9 15  1  0  0  0  0
 10 16  1  0  0  0  0
 10 17  1  0  0  0  0
 10 18  1  0  0  0  0
 19 20  1  0  0  0  0
 19 28  1  0  0  0  0
 19 29  1  0  0  0  0
 20 21  4  0  0  0  0
 20 25  4  0  0  0  0
 21 22  4  0  0  0  0
 21 30  1  0  0  0  0
 22 23  4  0  0  0  0
 22 27  1  0  0  0  0
 23 24  4  0  0  0  0
 23 26  1  0  0  0  0
 24 25  4  0  0  0  0
 24 31  1  0  0  0  0
 25 32  1  0  0  0  0
 26 33  1  0  0  0  0
 27 34  1  0  0  0  0
M  END
> <BCLConfClusterSize>
1

> <ConfClashScore>
0.00135414 

> <ConfOneFourInteractionScore>
-0.919941 

> <ConfScore>
0.409669 

> <ConfScorePBest>
0.00250793 

> <ConfTolerance>
1.01869 

> <RosettaParamsInstructions>
M  ROOT 3
M  POLY_N_BB 3
M  POLY_CA_BB 4
M  POLY_C_BB 2
M  POLY_O_BB 5
M  POLY_IGNORE 9 10 11 12 13 14 15 16 17 18 
M  POLY_UPPER 6
M  POLY_LOWER 8
M  POLY_CHG 0
M  POLY_PROPERTIES ALPHA_AA D_AA PROTEIN AROMATIC POLYMER 
M  END

$$$$



 34 34  0  0  0  0  0  0  0  0999 V2000
   -1.0924    3.7066    0.5641 H   0  0  0  1  0  0  0  0  0  0  0  0
   -2.5174    4.8112   -0.5099 C   0  0  0  1  0  0  0  0  0  0  0  0
   -0.0826    4.7363   -0.9139 N   0  0  0  1  0  0  0  0  0  0  0  0
   -1.2533    3.9836   -0.4568 C   0  0  0  1  0  0  0  0  0  0  0  0
   -2.7547    5.5397   -1.4725 O   0  0  0  1  0  0  0  0  0  0  0  0
   -3.3703    4.7270    0.5225 N   0  0  0  1  0  0  0  0  0  0  0  0
    0.4726    4.3039   -1.5960 H   0  0  0  1  0  0  0  0  0  0  0  0
    0.3159    5.9504   -0.5047 C   0  0  0  1  0  0  0  0  0  0  0  0
   -4.5590    5.5611    0.6189 C   0  0  0  1  0  0  0  0  0  0  0  0
    1.6244    6.4458   -1.0891 C   0  0  0  1  0  0  0  0  0  0  0  0
   -0.3260    6.6325    0.2930 O   0  0  0  1  0  0  0  0  0  0  0  0
   -3.1864    4.0814    1.2364 H   0  0  0  1  0  0  0  0  0  0  0  0
   -4.5906    6.2352   -0.2115 H   0  0  0  1  0  0  0  0  0  0  0  0
   -4.5292    6.1200    1.5308 H   0  0  0  1  0  0  0  0  0  0  0  0
   -5.4311    4.9412    0.6081 H   0  0  0  1  0  0  0  0  0  0  0  0
    1.4424    6.8935   -2.0438 H   0  0  0  1  0  0  0  0  0  0  0  0
    2.2978    5.6223   -1.2042 H   0  0  0  1  0  0  0  0  0  0  0  0
    2.0563    7.1713   -0.4318 H   0  0  0  1  0  0  0  0  0  0  0  0
   -1.3983    2.6888   -1.2620 C   0  0  0  1  0  0  0  0  0  0  0  0
   -2.7703    2.5263   -1.8819 C   0  0  0  1  0  0  0  0  0  0  0  0
   -2.9985    2.9925   -3.1672 C   0  0  0  1  0  0  0  0  0  0  0  0
   -4.2692    2.9341   -3.7079 C   0  0  0  1  0  0  0  0  0  0  0  0
   -5.3142    2.4045   -2.9671 C   0  0  0  1  0  0  0  0  0  0  0  0
   -5.0865    1.9397   -1.6855 C   0  0  0  1  0  0  0  0  0  0  0  0
   -3.8122    1.9982   -1.1431 C   0  0  0  1  0  0  0  0  0  0  0  0
   -6.5499    2.3533   -3.5212 O   0  0  0  1  0  0  0  0  0  0  0  0
   -4.5425    3.3819   -4.9575 O   0  0  0  1  0  0  0  0  0  0  0  0
   -1.2191    1.8601   -0.6094 H   0  0  0  1  0  0  0  0  0  0  0  0
   -0.6689    2.6912   -2.0449 H   0  0  0  1  0  0  0  0  0  0  0  0
   -2.2137    3.3862   -3.7247 H   0  0  0  1  0  0  0  0  0  0  0  0
   -5.8713    1.5460   -1.1282 H   0  0  0  1  0  0  0  0  0  0  0  0
   -3.6402    1.6447   -0.1802 H   0  0  0  1  0  0  0  0  0  0  0  0
   -7.2036    2.2067   -2.8336 H   0  0  0  1  0  0  0  0  0  0  0  0
   -4.7526    4.3180   -4.9237 H   0  0  0  1  0  0  0  0  0  0  0  0
  1  4  1  0  0  0  0
  2  4  1  0  0  0  0
  2  5  2  0  0  0  0
  2  6  1  0  0  0  0
  3  4  1  0  0  0  0
  3  7  1  0  0  0  0
  3  8  1  0  0  0  0
  4 19  1  0  0  0  0
  6  9  1  0  0  0  0
  6 12  1  0  0  0  0
  8 10  1  0  0  0  0
  8 11  2  0  0  0  0
  9 13  1  0  0  0  0
  9 14  1  0  0  0  0
  9 15  1  0  0  0  0
 10 16  1  0  0  0  0
 10 17  1  0  0  0  0
 10 18  1  0  0  0  0
 19 20  1  0  0  0  0
 19 28  1  0  0  0  0
 19 29  1  0  0  0  0
 20 21  4  0  0  0  0
 20 25  4  0  0  0  0
 21 22  4  0  0  0  0
 21 30  1  0  0  0  0
 22 23  4  0  0  0  0
 22 27  1  0  0  0  0
 23 24  4  0  0  0  0
 23 26  1  0  0  0  0
 24 25  4  0  0  0  0
 24 31  1  0  0  0  0
 25 32  1  0  0  0  0
 26 33  1  0  0  0  0
 27 34  1  0  0  0  0
M  END
> <BCLConfClusterSize>
1

> <ConfClashScore>
0 

> <ConfOneFourInteractionScore>
-0.967834 

> <ConfScore>
0.417901 

> <ConfScorePBest>
0.00247945 

> <ConfTolerance>
1.31185 

> <RosettaParamsInstructions>
M  ROOT 3
M  POLY_N_BB 3
M  POLY_CA_BB 4
M  POLY_C_BB 2
M  POLY_O_BB 5
M  POLY_IGNORE 9 10 11 12 13 14 15 16 17 18 
M  POLY_UPPER 6
M  POLY_LOWER 8
M  POLY_CHG 0
M  POLY_PROPERTIES ALPHA_AA D_AA PROTEIN AROMATIC POLYMER 
M  END

$$$$



 34 34  0  0  0  0  0  0  0  0999 V2000
   -0.6296    3.6685   -3.0199 H   0  0  0  1  0  0  0  0  0  0  0  0
    0.9027    3.7737   -1.5849 C   0  0  0  1  0  0  0  0  0  0  0  0
   -1.1570    5.1282   -1.6682 N   0  0  0  1  0  0  0  0  0  0  0  0
   -0.5654    3.8311   -1.9643 C   0  0  0  1  0  0  0  0  0  0  0  0
    1.2894    3.9562   -0.4422 O   0  0  0  1  0  0  0  0  0  0  0  0
    1.8086    3.5145   -2.5321 N   0  0  0  1  0  0  0  0  0  0  0  0
   -1.4898    5.3006   -0.7627 H   0  0  0  1  0  0  0  0  0  0  0  0
   -1.2623    6.0956   -2.5920 C   0  0  0  1  0  0  0  0  0  0  0  0
    3.2379    3.5029   -2.2586 C   0  0  0  1  0  0  0  0  0  0  0  0
   -2.0536    7.3203   -2.1760 C   0  0  0  1  0  0  0  0  0  0  0  0
   -0.7560    6.0120   -3.7101 O   0  0  0  1  0  0  0  0  0  0  0  0
    1.4997    3.3255   -3.4428 H   0  0  0  1  0  0  0  0  0  0  0  0
    3.7701    3.2452   -3.1504 H   0  0  0  1  0  0  0  0  0  0  0  0
    3.4491    2.7821   -1.4966 H   0  0  0  1  0  0  0  0  0  0  0  0
    3.5453    4.4729   -1.9278 H   0  0  0  1  0  0  0  0  0  0  0  0
   -1.3802    8.0959   -1.8763 H   0  0  0  1  0  0  0  0  0  0  0  0
   -2.6949    7.0690   -1.3571 H   0  0  0  1  0  0  0  0  0  0  0  0
   -2.6442    7.6601   -3.0009 H   0  0  0  1  0  0  0  0  0  0  0  0
   -1.3591    2.7225   -1.2854 C   0  0  0  1  0  0  0  0  0  0  0  0
   -2.7521    2.5726   -1.8359 C   0  0  0  1  0  0  0  0  0  0  0  0
   -3.0738    3.1605   -3.0494 C   0  0  0  1  0  0  0  0  0  0  0  0
   -4.3726    3.1089   -3.5193 C   0  0  0  1  0  0  0  0  0  0  0  0
   -5.3523    2.4648   -2.7799 C   0  0  0  1  0  0  0  0  0  0  0  0
   -5.0314    1.8787   -1.5700 C   0  0  0  1  0  0  0  0  0  0  0  0
   -3.7289    1.9303   -1.0985 C   0  0  0  1  0  0  0  0  0  0  0  0
   -6.6481    2.3597   -3.1625 O   0  0  0  1  0  0  0  0  0  0  0  0
   -4.6634    3.6956   -4.7058 O   0  0  0  1  0  0  0  0  0  0  0  0
   -1.4277    2.9434   -0.2407 H   0  0  0  1  0  0  0  0  0  0  0  0
   -0.8378    1.7980   -1.4215 H   0  0  0  1  0  0  0  0  0  0  0  0
   -2.3380    3.6403   -3.6061 H   0  0  0  1  0  0  0  0  0  0  0  0
   -5.7672    1.3989   -1.0133 H   0  0  0  1  0  0  0  0  0  0  0  0
   -3.4867    1.4858   -0.1900 H   0  0  0  1  0  0  0  0  0  0  0  0
   -6.7830    2.8513   -3.9759 H   0  0  0  1  0  0  0  0  0  0  0  0
   -5.0667    3.0509   -5.2918 H   0  0  0  1  0  0  0  0  0  0  0  0
  1  4  1  0  0  0  0
  2  4  1  0  0  0  0
  2  5  2  0  0  0  0
  2  6  1  0  0  0  0
  3  4  1  0  0  0  0
  3  7  1  0  0  0  0
  3  8  1  0  0  0  0
  4 19  1  0  0  0  0
  6  9  1  0  0  0  0
  6 12  1  0  0  0  0
  8 10  1  0  0  0  0
  8 11  2  0  0  0  0
  9 13  1  0  0  0  0
  9 14  1  0  0  0  0
  9 15  1  0  0  0  0
 10 16  1  0  0  0  0
 10 17  1  0  0  0  0
 10 18  1  0  0  0  0
 19 20  1  0  0  0  0
 19 28  1  0  0  0  0
 19 29  1  0  0  0  0
 20 21  4  0  0  0  0
 20 25  4  0  0  0  0
 21 22  4  0  0  0  0
 21 30  1  0  0  0  0
 22 23  4  0  0  0  0
 22 27  1  0  0  0  0
 23 24  4  0  0  0  0
 23 26  1  0  0  0  0
 24 25  4  0  0  0  0
 24 31  1  0  0  0  0
 25 32  1  0  0  0  0
 26 33  1  0  0  0  0
 27 34  1  0  0  0  0
M  END
> <BCLConfClusterSize>
1

> <ConfClashScore>
0 

> <ConfOneFourInteractionScore>
-0.97449 

> <ConfScore>
0.423333 

> <ConfScorePBest>
0.00245097 

> <ConfTolerance>
1.20015 

> <RosettaParamsInstructions>
M  ROOT 3
M  POLY_N_BB 3
M  POLY_CA_BB 4
M  POLY_C_BB 2
M  POLY_O_BB 5
M  POLY_IGNORE 9 10 11 12 13 14 15 16 17 18 
M  POLY_UPPER 6
M  POLY_LOWER 8
M  POLY_CHG 0
M  POLY_PROPERTIES ALPHA_AA D_AA PROTEIN AROMATIC POLYMER 
M  END

$$$$



 34 34  0  0  0  0  0  0  0  0999 V2000
   -1.4614    0.4031   -1.3370 H   0  0  0  1  0  0  0  0  0  0  0  0
   -1.2083    0.9999    0.6669 C   0  0  0  1  0  0  0  0  0  0  0  0
    0.5101    0.9599   -1.1110 N   0  0  0  1  0  0  0  0  0  0  0  0
   -0.9056    1.1549   -0.8167 C   0  0  0  1  0  0  0  0  0  0  0  0
   -2.0942    1.7006    1.1492 O   0  0  0  1  0  0  0  0  0  0  0  0
   -0.4965    0.1118    1.3665 N   0  0  0  1  0  0  0  0  0  0  0  0
    1.1437    1.6707   -0.8790 H   0  0  0  1  0  0  0  0  0  0  0  0
    0.9874   -0.1892   -1.7040 C   0  0  0  1  0  0  0  0  0  0  0  0
   -0.7907   -0.1147    2.7736 C   0  0  0  1  0  0  0  0  0  0  0  0
    2.4444   -0.1850   -2.0645 C   0  0  0  1  0  0  0  0  0  0  0  0
    0.2398   -1.1275   -1.9053 O   0  0  0  1  0  0  0  0  0  0  0  0
    0.2252   -0.3883    0.9312 H   0  0  0  1  0  0  0  0  0  0  0  0
   -0.1689   -0.9017    3.1464 H   0  0  0  1  0  0  0  0  0  0  0  0
   -1.8187   -0.3906    2.8829 H   0  0  0  1  0  0  0  0  0  0  0  0
   -0.6008    0.7816    3.3262 H   0  0  0  1  0  0  0  0  0  0  0  0
    3.0294   -0.3771   -1.1895 H   0  0  0  1  0  0  0  0  0  0  0  0
    2.7090    0.7701   -2.4676 H   0  0  0  1  0  0  0  0  0  0  0  0
    2.6333   -0.9452   -2.7935 H   0  0  0  1  0  0  0  0  0  0  0  0
   -1.3742    2.5143   -1.3441 C   0  0  0  1  0  0  0  0  0  0  0  0
   -2.7706    2.4745   -1.9287 C   0  0  0  1  0  0  0  0  0  0  0  0
   -3.0395    2.9575   -3.1999 C   0  0  0  1  0  0  0  0  0  0  0  0
   -4.3408    2.9940   -3.6641 C   0  0  0  1  0  0  0  0  0  0  0  0
   -5.3764    2.5427   -2.8608 C   0  0  0  1  0  0  0  0  0  0  0  0
   -5.1081    2.0611   -1.5934 C   0  0  0  1  0  0  0  0  0  0  0  0
   -3.8031    2.0244   -1.1276 C   0  0  0  1  0  0  0  0  0  0  0  0
   -6.6797    2.5355   -3.2324 O   0  0  0  1  0  0  0  0  0  0  0  0
   -4.5789    3.4756   -4.9084 O   0  0  0  1  0  0  0  0  0  0  0  0
   -0.6952    2.8366   -2.1057 H   0  0  0  1  0  0  0  0  0  0  0  0
   -1.3632    3.2154   -0.5358 H   0  0  0  1  0  0  0  0  0  0  0  0
   -2.2621    3.2925   -3.8042 H   0  0  0  1  0  0  0  0  0  0  0  0
   -5.8855    1.7262   -0.9892 H   0  0  0  1  0  0  0  0  0  0  0  0
   -3.6008    1.6583   -0.1754 H   0  0  0  1  0  0  0  0  0  0  0  0
   -6.9658    1.6311   -3.3802 H   0  0  0  1  0  0  0  0  0  0  0  0
   -4.6377    4.4332   -4.8755 H   0  0  0  1  0  0  0  0  0  0  0  0
  1  4  1  0  0  0  0
  2  4  1  0  0  0  0
  2  5  2  0  0  0  0
  2  6  1  0  0  0  0
  3  4  1  0  0  0  0
  3  7  1  0  0  0  0
  3  8  1  0  0  0  0
  4 19  1  0  0  0  0
  6  9  1  0  0  0  0
  6 12  1  0  0  0  0
  8 10  1  0  0  0  0
  8 11  2  0  0  0  0
  9 13  1  0  0  0  0
  9 14  1  0  0  0  0
  9 15  1  0  0  0  0
 10 16  1  0  0  0  0
 10 17  1  0  0  0  0
 10 18  1  0  0  0  0
 19 20  1  0  0  0  0
 19 28  1  0  0  0  0
 19 29  1  0  0  0  0
 20 21  4  0  0  0  0
 20 25  4  0  0  0  0
 21 22  4  0  0  0  0
 21 30  1  0  0  0  0
 22 23  4  0  0  0  0
 22 27  1  0  0  0  0
 23 24  4  0  0  0  0
 23 26  1  0  0  0  0
 24 25  4  0  0  0  0
 24 31  1  0  0  0  0
 25 32  1  0  0  0  0
 26 33  1  0  0  0  0
 27 34  1  0  0  0  0
M  END
> <BCLConfClusterSize>
1

> <ConfClashScore>
0 

> <ConfOneFourInteractionScore>
-0.948475 

> <ConfScore>
0.473446 

> <ConfScorePBest>
0.00242249 

> <ConfTolerance>
1.3921 

> <RosettaParamsInstructions>
M  ROOT 3
M  POLY_N_BB 3
M  POLY_CA_BB 4
M  POLY_C_BB 2
M  POLY_O_BB 5
M  POLY_IGNORE 9 10 11 12 13 14 15 16 17 18 
M  POLY_UPPER 6
M  POLY_LOWER 8
M  POLY_CHG 0
M  POLY_PROPERTIES ALPHA_AA D_AA PROTEIN AROMATIC POLYMER 
M  END

$$$$



 34 34  0  0  0  0  0  0  0  0999 V2000
    0.4433    1.4531   -1.1049 H   0  0  0  1  0  0  0  0  0  0  0  0
   -0.3581    1.1914   -3.0622 C   0  0  0  1  0  0  0  0  0  0  0  0
   -1.1751    0.1500   -1.0024 N   0  0  0  1  0  0  0  0  0  0  0  0
   -0.5218    1.3294   -1.5502 C   0  0  0  1  0  0  0  0  0  0  0  0
    0.3985    1.9479   -3.6680 O   0  0  0  1  0  0  0  0  0  0  0  0
   -0.9990    0.1754   -3.6470 N   0  0  0  1  0  0  0  0  0  0  0  0
   -2.1260    0.2006   -0.7710 H   0  0  0  1  0  0  0  0  0  0  0  0
   -0.5344   -0.9803   -0.8074 C   0  0  0  1  0  0  0  0  0  0  0  0
   -1.0083   -0.0104   -5.0903 C   0  0  0  1  0  0  0  0  0  0  0  0
    0.9244   -1.0721   -1.2733 C   0  0  0  1  0  0  0  0  0  0  0  0
   -1.0953   -1.9548   -0.2580 O   0  0  0  1  0  0  0  0  0  0  0  0
   -1.4796   -0.4671   -3.0843 H   0  0  0  1  0  0  0  0  0  0  0  0
   -1.8478   -0.6131   -5.3675 H   0  0  0  1  0  0  0  0  0  0  0  0
   -0.1047   -0.4971   -5.3928 H   0  0  0  1  0  0  0  0  0  0  0  0
   -1.0792    0.9425   -5.5718 H   0  0  0  1  0  0  0  0  0  0  0  0
    1.1397   -0.2595   -1.9352 H   0  0  0  1  0  0  0  0  0  0  0  0
    1.0773   -1.9991   -1.7855 H   0  0  0  1  0  0  0  0  0  0  0  0
    1.5735   -1.0219   -0.4242 H   0  0  0  1  0  0  0  0  0  0  0  0
   -1.3676    2.5611   -1.2549 C   0  0  0  1  0  0  0  0  0  0  0  0
   -2.7492    2.4936   -1.8710 C   0  0  0  1  0  0  0  0  0  0  0  0
   -2.9578    3.0142   -3.1387 C   0  0  0  1  0  0  0  0  0  0  0  0
   -4.2322    3.0424   -3.6729 C   0  0  0  1  0  0  0  0  0  0  0  0
   -5.3009    2.5454   -2.9433 C   0  0  0  1  0  0  0  0  0  0  0  0
   -5.0928    2.0264   -1.6794 C   0  0  0  1  0  0  0  0  0  0  0  0
   -3.8147    1.9979   -1.1435 C   0  0  0  1  0  0  0  0  0  0  0  0
   -6.5671    2.5467   -3.4265 O   0  0  0  1  0  0  0  0  0  0  0  0
   -4.4115    3.5611   -4.9121 O   0  0  0  1  0  0  0  0  0  0  0  0
   -0.8634    3.4215   -1.6428 H   0  0  0  1  0  0  0  0  0  0  0  0
   -1.4719    2.6563   -0.1943 H   0  0  0  1  0  0  0  0  0  0  0  0
   -2.1555    3.3834   -3.6878 H   0  0  0  1  0  0  0  0  0  0  0  0
   -5.8952    1.6571   -1.1304 H   0  0  0  1  0  0  0  0  0  0  0  0
   -3.6576    1.6037   -0.1940 H   0  0  0  1  0  0  0  0  0  0  0  0
   -7.0302    1.7660   -3.1141 H   0  0  0  1  0  0  0  0  0  0  0  0
   -5.1908    4.1217   -4.9152 H   0  0  0  1  0  0  0  0  0  0  0  0
  1  4  1  0  0  0  0
  2  4  1  0  0  0  0
  2  5  2  0  0  0  0
  2  6  1  0  0  0  0
  3  4  1  0  0  0  0
  3  7  1  0  0  0  0
  3  8  1  0  0  0  0
  4 19  1  0  0  0  0
  6  9  1  0  0  0  0
  6 12  1  0  0  0  0
  8 10  1  0  0  0  0
  8 11  2  0  0  0  0
  9 13  1  0  0  0  0
  9 14  1  0  0  0  0
  9 15  1  0  0  0  0
 10 16  1  0  0  0  0
 10 17  1  0  0  0  0
 10 18  1  0  0  0  0
 19 20  1  0  0  0  0
 19 28  1  0  0  0  0
 19 29  1  0  0  0  0
 20 21  4  0  0  0  0
 20 25  4  0  0  0  0
 21 22  4  0  0  0  0
 21 30  1  0  0  0  0
 22 23  4  0  0  0  0
 22 27  1  0  0  0  0
 23 24  4  0  0  0  0
 23 26  1  0  0  0  0
 24 25  4  0  0  0  0
 24 31  1  0  0  0  0
 25 32  1  0  0  0  0
 26 33  1  0  0  0  0
 27 34  1  0  0  0  0
M  END
> <BCLConfClusterSize>
1

> <ConfClashScore>
0 

> <ConfOneFourInteractionScore>
-0.950605 

> <ConfScore>
0.477499 

> <ConfScorePBest>
0.00239401 

> <ConfTolerance>
1.07569 

> <RosettaParamsInstructions>
M  ROOT 3
M  POLY_N_BB 3
M  POLY_CA_BB 4
M  POLY_C_BB 2
M  POLY_O_BB 5
M  POLY_IGNORE 9 10 11 12 13 14 15 16 17 18 
M  POLY_UPPER 6
M  POLY_LOWER 8
M  POLY_CHG 0
M  POLY_PROPERTIES ALPHA_AA D_AA PROTEIN AROMATIC POLYMER 
M  END

$$$$



 34 34  0  0  0  0  0  0  0  0999 V2000
    0.0700    4.0687   -1.5189 H   0  0  0  1  0  0  0  0  0  0  0  0
   -0.6245    4.0819    0.4691 C   0  0  0  1  0  0  0  0  0  0  0  0
   -1.8080    4.9262   -1.5237 N   0  0  0  1  0  0  0  0  0  0  0  0
   -0.8668    3.9321   -1.0203 C   0  0  0  1  0  0  0  0  0  0  0  0
   -0.1541    3.1586    1.1318 O   0  0  0  1  0  0  0  0  0  0  0  0
   -0.8666    5.2940    0.9929 N   0  0  0  1  0  0  0  0  0  0  0  0
   -1.5528    5.4258   -2.3272 H   0  0  0  1  0  0  0  0  0  0  0  0
   -2.9919    5.2070   -0.9718 C   0  0  0  1  0  0  0  0  0  0  0  0
   -0.5514    5.5634    2.3878 C   0  0  0  1  0  0  0  0  0  0  0  0
   -3.7535    6.4094   -1.5438 C   0  0  0  1  0  0  0  0  0  0  0  0
   -3.5120    4.5094   -0.1021 O   0  0  0  1  0  0  0  0  0  0  0  0
   -1.2564    5.9989    0.4347 H   0  0  0  1  0  0  0  0  0  0  0  0
    0.4996    5.4411    2.5466 H   0  0  0  1  0  0  0  0  0  0  0  0
   -1.0881    4.8806    3.0128 H   0  0  0  1  0  0  0  0  0  0  0  0
   -0.8341    6.5667    2.6298 H   0  0  0  1  0  0  0  0  0  0  0  0
   -4.6968    6.5036   -1.0477 H   0  0  0  1  0  0  0  0  0  0  0  0
   -3.9148    6.2635   -2.5915 H   0  0  0  1  0  0  0  0  0  0  0  0
   -3.1800    7.2998   -1.3913 H   0  0  0  1  0  0  0  0  0  0  0  0
   -1.3856    2.5521   -1.3898 C   0  0  0  1  0  0  0  0  0  0  0  0
   -2.7938    2.5127   -1.9200 C   0  0  0  1  0  0  0  0  0  0  0  0
   -3.0849    3.1217   -3.1308 C   0  0  0  1  0  0  0  0  0  0  0  0
   -4.3903    3.1730   -3.5822 C   0  0  0  1  0  0  0  0  0  0  0  0
   -5.4076    2.6109   -2.8268 C   0  0  0  1  0  0  0  0  0  0  0  0
   -5.1172    2.0038   -1.6197 C   0  0  0  1  0  0  0  0  0  0  0  0
   -3.8081    1.9522   -1.1668 C   0  0  0  1  0  0  0  0  0  0  0  0
   -6.7222    2.5883   -3.1552 O   0  0  0  1  0  0  0  0  0  0  0  0
   -4.8094    3.7401   -4.7395 O   0  0  0  1  0  0  0  0  0  0  0  0
   -1.3455    1.9390   -0.5137 H   0  0  0  1  0  0  0  0  0  0  0  0
   -0.7391    2.1462   -2.1396 H   0  0  0  1  0  0  0  0  0  0  0  0
   -2.3212    3.5399   -3.6995 H   0  0  0  1  0  0  0  0  0  0  0  0
   -5.8810    1.5856   -1.0510 H   0  0  0  1  0  0  0  0  0  0  0  0
   -3.5892    1.4918   -0.2603 H   0  0  0  1  0  0  0  0  0  0  0  0
   -7.0313    1.6797   -3.1779 H   0  0  0  1  0  0  0  0  0  0  0  0
   -4.0813    3.7688   -5.3645 H   0  0  0  1  0  0  0  0  0  0  0  0
  1  4  1  0  0  0  0
  2  4  1  0  0  0  0
  2  5  2  0  0  0  0
  2  6  1  0  0  0  0
  3  4  1  0  0  0  0
  3  7  1  0  0  0  0
  3  8  1  0  0  0  0
  4 19  1  0  0  0  0
  6  9  1  0  0  0  0
  6 12  1  0  0  0  0
  8 10  1  0  0  0  0
  8 11  2  0  0  0  0
  9 13  1  0  0  0  0
  9 14  1  0  0  0  0
  9 15  1  0  0  0  0
 10 16  1  0  0  0  0
 10 17  1  0  0  0  0
 10 18  1  0  0  0  0
 19 20  1  0  0  0  0
 19 28  1  0  0  0  0
 19 29  1  0  0  0  0
 20 21  4  0  0  0  0
 20 25  4  0  0  0  0
 21 22  4  0  0  0  0
 21 30  1  0  0  0  0
 22 23  4  0  0  0  0
 22 27  1  0  0  0  0
 23 24  4  0  0  0  0
 23 26  1  0  0  0  0
 24 25  4  0  0  0  0
 24 31  1  0  0  0  0
 25 32  1  0  0  0  0
 26 33  1  0  0  0  0
 27 34  1  0  0  0  0
M  END
> <BCLConfClusterSize>
1

> <ConfClashScore>
0 

> <ConfOneFourInteractionScore>
-0.934471 

> <ConfScore>
0.481627 

> <ConfScorePBest>
0.00236553 

> <ConfTolerance>
1.02926 

> <RosettaParamsInstructions>
M  ROOT 3
M  POLY_N_BB 3
M  POLY_CA_BB 4
M  POLY_C_BB 2
M  POLY_O_BB 5
M  POLY_IGNORE 9 10 11 12 13 14 15 16 17 18 
M  POLY_UPPER 6
M  POLY_LOWER 8
M  POLY_CHG 0
M  POLY_PROPERTIES ALPHA_AA D_AA PROTEIN AROMATIC POLYMER 
M  END

$$$$



 34 34  0  0  0  0  0  0  0  0999 V2000
   -0.7626    0.8540   -0.6919 H   0  0  0  1  0  0  0  0  0  0  0  0
    0.9618    1.8839   -1.2998 C   0  0  0  1  0  0  0  0  0  0  0  0
   -0.7460    0.8585   -2.7543 N   0  0  0  1  0  0  0  0  0  0  0  0
   -0.4967    1.5280   -1.4793 C   0  0  0  1  0  0  0  0  0  0  0  0
    1.3387    2.5748   -0.3542 O   0  0  0  1  0  0  0  0  0  0  0  0
    1.7986    1.3998   -2.2301 N   0  0  0  1  0  0  0  0  0  0  0  0
   -0.9087   -0.1077   -2.7346 H   0  0  0  1  0  0  0  0  0  0  0  0
   -0.7694    1.4783   -3.9719 C   0  0  0  1  0  0  0  0  0  0  0  0
    3.2329    1.6426   -2.1875 C   0  0  0  1  0  0  0  0  0  0  0  0
   -1.1682    0.5635   -5.1078 C   0  0  0  1  0  0  0  0  0  0  0  0
   -0.4912    2.6561   -4.1023 O   0  0  0  1  0  0  0  0  0  0  0  0
    1.4313    0.8640   -2.9639 H   0  0  0  1  0  0  0  0  0  0  0  0
    3.5501    2.0724   -3.1146 H   0  0  0  1  0  0  0  0  0  0  0  0
    3.7465    0.7173   -2.0294 H   0  0  0  1  0  0  0  0  0  0  0  0
    3.4566    2.3165   -1.3871 H   0  0  0  1  0  0  0  0  0  0  0  0
   -2.1137    0.1131   -4.8885 H   0  0  0  1  0  0  0  0  0  0  0  0
   -0.4286   -0.2004   -5.2266 H   0  0  0  1  0  0  0  0  0  0  0  0
   -1.2446    1.1305   -6.0120 H   0  0  0  1  0  0  0  0  0  0  0  0
   -1.3942    2.7616   -1.3440 C   0  0  0  1  0  0  0  0  0  0  0  0
   -2.7851    2.5489   -1.9086 C   0  0  0  1  0  0  0  0  0  0  0  0
   -3.1194    2.9603   -3.1894 C   0  0  0  1  0  0  0  0  0  0  0  0
   -4.4215    2.8379   -3.6366 C   0  0  0  1  0  0  0  0  0  0  0  0
   -5.3919    2.2989   -2.8063 C   0  0  0  1  0  0  0  0  0  0  0  0
   -5.0583    1.8888   -1.5293 C   0  0  0  1  0  0  0  0  0  0  0  0
   -3.7525    2.0115   -1.0806 C   0  0  0  1  0  0  0  0  0  0  0  0
   -6.6900    2.1357   -3.1596 O   0  0  0  1  0  0  0  0  0  0  0  0
   -4.6757    3.2655   -4.8973 O   0  0  0  1  0  0  0  0  0  0  0  0
   -0.9355    3.5753   -1.8659 H   0  0  0  1  0  0  0  0  0  0  0  0
   -1.4817    3.0069   -0.3062 H   0  0  0  1  0  0  0  0  0  0  0  0
   -2.3906    3.3610   -3.8138 H   0  0  0  1  0  0  0  0  0  0  0  0
   -5.7872    1.4881   -0.9050 H   0  0  0  1  0  0  0  0  0  0  0  0
   -3.5008    1.6992   -0.1211 H   0  0  0  1  0  0  0  0  0  0  0  0
   -6.9590    2.8566   -3.7336 H   0  0  0  1  0  0  0  0  0  0  0  0
   -4.4968    4.2067   -4.9585 H   0  0  0  1  0  0  0  0  0  0  0  0
  1  4  1  0  0  0  0
  2  4  1  0  0  0  0
  2  5  2  0  0  0  0
  2  6  1  0  0  0  0
  3  4  1  0  0  0  0
  3  7  1  0  0  0  0
  3  8  1  0  0  0  0
  4 19  1  0  0  0  0
  6  9  1  0  0  0  0
  6 12  1  0  0  0  0
  8 10  1  0  0  0  0
  8 11  2  0  0  0  0
  9 13  1  0  0  0  0
  9 14  1  0  0  0  0
  9 15  1  0  0  0  0
 10 16  1  0  0  0  0
 10 17  1  0  0  0  0
 10 18  1  0  0  0  0
 19 20  1  0  0  0  0
 19 28  1  0  0  0  0
 19 29  1  0  0  0  0
 20 21  4  0  0  0  0
 20 25  4  0  0  0  0
 21 22  4  0  0  0  0
 21 30  1  0  0  0  0
 22 23  4  0  0  0  0
 22 27  1  0  0  0  0
 23 24  4  0  0  0  0
 23 26  1  0  0  0  0
 24 25  4  0  0  0  0
 24 31  1  0  0  0  0
 25 32  1  0  0  0  0
 26 33  1  0  0  0  0
 27 34  1  0  0  0  0
M  END
> <BCLConfClusterSize>
1

> <ConfClashScore>
0 

> <ConfOneFourInteractionScore>
-0.925144 

> <ConfScore>
0.484897 

> <ConfScorePBest>
0.00233705 

> <ConfTolerance>
1.30593 

> <RosettaParamsInstructions>
M  ROOT 3
M  POLY_N_BB 3
M  POLY_CA_BB 4
M  POLY_C_BB 2
M  POLY_O_BB 5
M  POLY_IGNORE 9 10 11 12 13 14 15 16 17 18 
M  POLY_UPPER 6
M  POLY_LOWER 8
M  POLY_CHG 0
M  POLY_PROPERTIES ALPHA_AA D_AA PROTEIN AROMATIC POLYMER 
M  END

$$$$



 34 34  0  0  0  0  0  0  0  0999 V2000
   -2.1281    2.6697    0.6316 H   0  0  0  1  0  0  0  0  0  0  0  0
   -1.1457    4.5053    0.1499 C   0  0  0  1  0  0  0  0  0  0  0  0
   -0.0698    2.3673    0.6924 N   0  0  0  1  0  0  0  0  0  0  0  0
   -1.2515    2.9758    0.0997 C   0  0  0  1  0  0  0  0  0  0  0  0
   -0.3232    5.0378    0.8904 O   0  0  0  1  0  0  0  0  0  0  0  0
   -1.9170    5.1903   -0.6991 N   0  0  0  1  0  0  0  0  0  0  0  0
    0.6125    2.9480    1.0895 H   0  0  0  1  0  0  0  0  0  0  0  0
    0.1231    1.0027    0.7147 C   0  0  0  1  0  0  0  0  0  0  0  0
   -1.8443    6.6313   -0.8888 C   0  0  0  1  0  0  0  0  0  0  0  0
    1.4439    0.5355    1.2530 C   0  0  0  1  0  0  0  0  0  0  0  0
   -0.7498    0.2566    0.3131 O   0  0  0  1  0  0  0  0  0  0  0  0
   -2.5736    4.6905   -1.2279 H   0  0  0  1  0  0  0  0  0  0  0  0
   -1.5615    7.0988    0.0312 H   0  0  0  1  0  0  0  0  0  0  0  0
   -2.8010    6.9991   -1.1960 H   0  0  0  1  0  0  0  0  0  0  0  0
   -1.1171    6.8556   -1.6409 H   0  0  0  1  0  0  0  0  0  0  0  0
    2.1516    1.3368    1.2078 H   0  0  0  1  0  0  0  0  0  0  0  0
    1.7977   -0.2860    0.6656 H   0  0  0  1  0  0  0  0  0  0  0  0
    1.3241    0.2226    2.2691 H   0  0  0  1  0  0  0  0  0  0  0  0
   -1.3737    2.5371   -1.3504 C   0  0  0  1  0  0  0  0  0  0  0  0
   -2.7824    2.5313   -1.9111 C   0  0  0  1  0  0  0  0  0  0  0  0
   -3.0950    3.1804   -3.0954 C   0  0  0  1  0  0  0  0  0  0  0  0
   -4.4068    3.2364   -3.5271 C   0  0  0  1  0  0  0  0  0  0  0  0
   -5.4090    2.6390   -2.7787 C   0  0  0  1  0  0  0  0  0  0  0  0
   -5.0972    1.9919   -1.5980 C   0  0  0  1  0  0  0  0  0  0  0  0
   -3.7816    1.9356   -1.1648 C   0  0  0  1  0  0  0  0  0  0  0  0
   -6.7193    2.6385   -3.1250 O   0  0  0  1  0  0  0  0  0  0  0  0
   -4.6879    3.8812   -4.6855 O   0  0  0  1  0  0  0  0  0  0  0  0
   -0.9832    1.5440   -1.4288 H   0  0  0  1  0  0  0  0  0  0  0  0
   -0.7837    3.2010   -1.9469 H   0  0  0  1  0  0  0  0  0  0  0  0
   -2.3426    3.6251   -3.6590 H   0  0  0  1  0  0  0  0  0  0  0  0
   -5.8496    1.5472   -1.0344 H   0  0  0  1  0  0  0  0  0  0  0  0
   -3.5465    1.4452   -0.2783 H   0  0  0  1  0  0  0  0  0  0  0  0
   -6.9647    1.7690   -3.4493 H   0  0  0  1  0  0  0  0  0  0  0  0
   -4.3667    3.3628   -5.4269 H   0  0  0  1  0  0  0  0  0  0  0  0
  1  4  1  0  0  0  0
  2  4  1  0  0  0  0
  2  5  2  0  0  0  0
  2  6  1  0  0  0  0
  3  4  1  0  0  0  0
  3  7  1  0  0  0  0
  3  8  1  0  0  0  0
  4 19  1  0  0  0  0
  6  9  1  0  0  0  0
  6 12  1  0  0  0  0
  8 10  1  0  0  0  0
  8 11  2  0  0  0  0
  9 13  1  0  0  0  0
  9 14  1  0  0  0  0
  9 15  1  0  0  0  0
 10 16  1  0  0  0  0
 10 17  1  0  0  0  0
 10 18  1  0  0  0  0
 19 20  1  0  0  0  0
 19 28  1  0  0  0  0
 19 29  1  0  0  0  0
 20 21  4  0  0  0  0
 20 25  4  0  0  0  0
 21 22  4  0  0  0  0
 21 30  1  0  0  0  0
 22 23  4  0  0  0  0
 22 27  1  0  0  0  0
 23 24  4  0  0  0  0
 23 26  1  0  0  0  0
 24 25  4  0  0  0  0
 24 31  1  0  0  0  0
 25 32  1  0  0  0  0
 26 33  1  0  0  0  0
 27 34  1  0  0  0  0
M  END
> <BCLConfClusterSize>
1

> <ConfClashScore>
0 

> <ConfOneFourInteractionScore>
-0.929499 

> <ConfScore>
0.488108 

> <ConfScorePBest>
0.00230857 

> <ConfTolerance>
1.57146 

> <RosettaParamsInstructions>
M  ROOT 3
M  POLY_N_BB 3
M  POLY_CA_BB 4
M  POLY_C_BB 2
M  POLY_O_BB 5
M  POLY_IGNORE 9 10 11 12 13 14 15 16 17 18 
M  POLY_UPPER 6
M  POLY_LOWER 8
M  POLY_CHG 0
M  POLY_PROPERTIES ALPHA_AA D_AA PROTEIN AROMATIC POLYMER 
M  END

$$$$



 34 34  0  0  0  0  0  0  0  0999 V2000
    0.4609    1.6355   -1.6256 H   0  0  0  1  0  0  0  0  0  0  0  0
   -0.9290    0.5420   -2.7369 C   0  0  0  1  0  0  0  0  0  0  0  0
   -0.6768    0.5497   -0.2916 N   0  0  0  1  0  0  0  0  0  0  0  0
   -0.5678    1.3614   -1.5186 C   0  0  0  1  0  0  0  0  0  0  0  0
   -1.6802    0.9929   -3.6006 O   0  0  0  1  0  0  0  0  0  0  0  0
   -0.4034   -0.6957   -2.8474 N   0  0  0  1  0  0  0  0  0  0  0  0
   -0.0025    0.6373    0.4141 H   0  0  0  1  0  0  0  0  0  0  0  0
   -1.6972   -0.3082   -0.1398 C   0  0  0  1  0  0  0  0  0  0  0  0
   -0.7449   -1.5356   -3.9857 C   0  0  0  1  0  0  0  0  0  0  0  0
   -1.7833   -0.9975    1.2080 C   0  0  0  1  0  0  0  0  0  0  0  0
   -2.5187   -0.5336   -1.0245 O   0  0  0  1  0  0  0  0  0  0  0  0
    0.2095   -1.0298   -2.1596 H   0  0  0  1  0  0  0  0  0  0  0  0
   -1.3270   -0.9713   -4.6840 H   0  0  0  1  0  0  0  0  0  0  0  0
   -1.3109   -2.3790   -3.6493 H   0  0  0  1  0  0  0  0  0  0  0  0
    0.1521   -1.8740   -4.4608 H   0  0  0  1  0  0  0  0  0  0  0  0
   -1.2850   -0.4035    1.9455 H   0  0  0  1  0  0  0  0  0  0  0  0
   -1.3150   -1.9577    1.1479 H   0  0  0  1  0  0  0  0  0  0  0  0
   -2.8106   -1.1177    1.4819 H   0  0  0  1  0  0  0  0  0  0  0  0
   -1.3511    2.6593   -1.3710 C   0  0  0  1  0  0  0  0  0  0  0  0
   -2.7675    2.5532   -1.8695 C   0  0  0  1  0  0  0  0  0  0  0  0
   -3.1183    3.1619   -3.0645 C   0  0  0  1  0  0  0  0  0  0  0  0
   -4.4349    3.1506   -3.4851 C   0  0  0  1  0  0  0  0  0  0  0  0
   -5.4035    2.5262   -2.7148 C   0  0  0  1  0  0  0  0  0  0  0  0
   -5.0535    1.9194   -1.5234 C   0  0  0  1  0  0  0  0  0  0  0  0
   -3.7332    1.9306   -1.1013 C   0  0  0  1  0  0  0  0  0  0  0  0
   -6.7057    2.4845   -3.0879 O   0  0  0  1  0  0  0  0  0  0  0  0
   -4.7539    3.7570   -4.6544 O   0  0  0  1  0  0  0  0  0  0  0  0
   -0.8507    3.4242   -1.9273 H   0  0  0  1  0  0  0  0  0  0  0  0
   -1.3736    2.9276   -0.3355 H   0  0  0  1  0  0  0  0  0  0  0  0
   -2.3910    3.6269   -3.6444 H   0  0  0  1  0  0  0  0  0  0  0  0
   -5.7809    1.4544   -0.9434 H   0  0  0  1  0  0  0  0  0  0  0  0
   -3.4693    1.4705   -0.2067 H   0  0  0  1  0  0  0  0  0  0  0  0
   -6.7654    2.5048   -4.0458 H   0  0  0  1  0  0  0  0  0  0  0  0
   -4.6950    3.1214   -5.3715 H   0  0  0  1  0  0  0  0  0  0  0  0
  1  4  1  0  0  0  0
  2  4  1  0  0  0  0
  2  5  2  0  0  0  0
  2  6  1  0  0  0  0
  3  4  1  0  0  0  0
  3  7  1  0  0  0  0
  3  8  1  0  0  0  0
  4 19  1  0  0  0  0
  6  9  1  0  0  0  0
  6 12  1  0  0  0  0
  8 10  1  0  0  0  0
  8 11  2  0  0  0  0
  9 13  1  0  0  0  0
  9 14  1  0  0  0  0
  9 15  1  0  0  0  0
 10 16  1  0  0  0  0
 10 17  1  0  0  0  0
 10 18  1  0  0  0  0
 19 20  1  0  0  0  0
 19 28  1  0  0  0  0
 19 29  1  0  0  0  0
 20 21  4  0  0  0  0
 20 25  4  0  0  0  0
 21 22  4  0  0  0  0
 21 30  1  0  0  0  0
 22 23  4  0  0  0  0
 22 27  1  0  0  0  0
 23 24  4  0  0  0  0
 23 26  1  0  0  0  0
 24 25  4  0  0  0  0
 24 31  1  0  0  0  0
 25 32  1  0  0  0  0
 26 33  1  0  0  0  0
 27 34  1  0  0  0  0
M  END
> <BCLConfClusterSize>
1

> <ConfClashScore>
0 

> <ConfOneFourInteractionScore>
-0.958566 

> <ConfScore>
0.490661 

> <ConfScorePBest>
0.00228009 

> <ConfTolerance>
0.895791 

> <RosettaParamsInstructions>
M  ROOT 3
M  POLY_N_BB 3
M  POLY_CA_BB 4
M  POLY_C_BB 2
M  POLY_O_BB 5
M  POLY_IGNORE 9 10 11 12 13 14 15 16 17 18 
M  POLY_UPPER 6
M  POLY_LOWER 8
M  POLY_CHG 0
M  POLY_PROPERTIES ALPHA_AA D_AA PROTEIN AROMATIC POLYMER 
M  END

$$$$



 34 34  0  0  0  0  0  0  0  0999 V2000
   -0.2648    3.9977    0.0986 H   0  0  0  1  0  0  0  0  0  0  0  0
   -2.2142    3.9034    0.8694 C   0  0  0  1  0  0  0  0  0  0  0  0
   -1.4536    5.1875   -1.0913 N   0  0  0  1  0  0  0  0  0  0  0  0
   -1.2579    3.9784   -0.2994 C   0  0  0  1  0  0  0  0  0  0  0  0
   -2.4767    2.8307    1.4117 O   0  0  0  1  0  0  0  0  0  0  0  0
   -2.7454    5.0714    1.2641 N   0  0  0  1  0  0  0  0  0  0  0  0
   -2.3661    5.5365   -1.1674 H   0  0  0  1  0  0  0  0  0  0  0  0
   -0.4839    5.8540   -1.7197 C   0  0  0  1  0  0  0  0  0  0  0  0
   -3.6763    5.1648    2.3788 C   0  0  0  1  0  0  0  0  0  0  0  0
    0.9207    5.2895   -1.6692 C   0  0  0  1  0  0  0  0  0  0  0  0
   -0.6617    6.9019   -2.3393 O   0  0  0  1  0  0  0  0  0  0  0  0
   -2.4977    5.8896    0.7849 H   0  0  0  1  0  0  0  0  0  0  0  0
   -3.8843    4.1844    2.7535 H   0  0  0  1  0  0  0  0  0  0  0  0
   -4.5859    5.6197    2.0463 H   0  0  0  1  0  0  0  0  0  0  0  0
   -3.2430    5.7589    3.1561 H   0  0  0  1  0  0  0  0  0  0  0  0
    1.2308    5.0145   -2.6556 H   0  0  0  1  0  0  0  0  0  0  0  0
    0.9354    4.4262   -1.0372 H   0  0  0  1  0  0  0  0  0  0  0  0
    1.5883    6.0292   -1.2790 H   0  0  0  1  0  0  0  0  0  0  0  0
   -1.3659    2.7377   -1.1908 C   0  0  0  1  0  0  0  0  0  0  0  0
   -2.7352    2.5770   -1.8216 C   0  0  0  1  0  0  0  0  0  0  0  0
   -3.0326    3.1236   -3.0603 C   0  0  0  1  0  0  0  0  0  0  0  0
   -4.3179    3.0404   -3.5616 C   0  0  0  1  0  0  0  0  0  0  0  0
   -5.3083    2.4059   -2.8282 C   0  0  0  1  0  0  0  0  0  0  0  0
   -5.0117    1.8610   -1.5932 C   0  0  0  1  0  0  0  0  0  0  0  0
   -3.7227    1.9442   -1.0903 C   0  0  0  1  0  0  0  0  0  0  0  0
   -6.5597    2.3327   -3.3436 O   0  0  0  1  0  0  0  0  0  0  0  0
   -4.6581    3.5638   -4.7646 O   0  0  0  1  0  0  0  0  0  0  0  0
   -1.1612    1.8721   -0.5961 H   0  0  0  1  0  0  0  0  0  0  0  0
   -0.6382    2.8149   -1.9715 H   0  0  0  1  0  0  0  0  0  0  0  0
   -2.2886    3.5962   -3.6124 H   0  0  0  1  0  0  0  0  0  0  0  0
   -5.7557    1.3884   -1.0412 H   0  0  0  1  0  0  0  0  0  0  0  0
   -3.4986    1.5307   -0.1627 H   0  0  0  1  0  0  0  0  0  0  0  0
   -6.7085    3.0775   -3.9306 H   0  0  0  1  0  0  0  0  0  0  0  0
   -5.4596    3.1416   -5.0826 H   0  0  0  1  0  0  0  0  0  0  0  0
  1  4  1  0  0  0  0
  2  4  1  0  0  0  0
  2  5  2  0  0  0  0
  2  6  1  0  0  0  0
  3  4  1  0  0  0  0
  3  7  1  0  0  0  0
  3  8  1  0  0  0  0
  4 19  1  0  0  0  0
  6  9  1  0  0  0  0
  6 12  1  0  0  0  0
  8 10  1  0  0  0  0
  8 11  2  0  0  0  0
  9 13  1  0  0  0  0
  9 14  1  0  0  0  0
  9 15  1  0  0  0  0
 10 16  1  0  0  0  0
 10 17  1  0  0  0  0
 10 18  1  0  0  0  0
 19 20  1  0  0  0  0
 19 28  1  0  0  0  0
 19 29  1  0  0  0  0
 20 21  4  0  0  0  0
 20 25  4  0  0  0  0
 21 22  4  0  0  0  0
 21 30  1  0  0  0  0
 22 23  4  0  0  0  0
 22 27  1  0  0  0  0
 23 24  4  0  0  0  0
 23 26  1  0  0  0  0
 24 25  4  0  0  0  0
 24 31  1  0  0  0  0
 25 32  1  0  0  0  0
 26 33  1  0  0  0  0
 27 34  1  0  0  0  0
M  END
> <BCLConfClusterSize>
1

> <ConfClashScore>
0 

> <ConfOneFourInteractionScore>
-0.951253 

> <ConfScore>
0.512733 

> <ConfScorePBest>
0.00225161 

> <ConfTolerance>
1.30169 

> <RosettaParamsInstructions>
M  ROOT 3
M  POLY_N_BB 3
M  POLY_CA_BB 4
M  POLY_C_BB 2
M  POLY_O_BB 5
M  POLY_IGNORE 9 10 11 12 13 14 15 16 17 18 
M  POLY_UPPER 6
M  POLY_LOWER 8
M  POLY_CHG 0
M  POLY_PROPERTIES ALPHA_AA D_AA PROTEIN AROMATIC POLYMER 
M  END

$$$$



 34 34  0  0  0  0  0  0  0  0999 V2000
   -0.2367    3.8601   -0.0167 H   0  0  0  1  0  0  0  0  0  0  0  0
   -2.2306    4.2167    0.5627 C   0  0  0  1  0  0  0  0  0  0  0  0
   -1.0850    5.0916   -1.4402 N   0  0  0  1  0  0  0  0  0  0  0  0
   -1.1810    3.9752   -0.5065 C   0  0  0  1  0  0  0  0  0  0  0  0
   -2.9499    5.1990    0.5596 O   0  0  0  1  0  0  0  0  0  0  0  0
   -2.3747    3.3224    1.5448 N   0  0  0  1  0  0  0  0  0  0  0  0
   -0.1881    5.3918   -1.6969 H   0  0  0  1  0  0  0  0  0  0  0  0
   -2.1380    5.7422   -1.9771 C   0  0  0  1  0  0  0  0  0  0  0  0
   -1.5663    2.1147    1.6213 C   0  0  0  1  0  0  0  0  0  0  0  0
   -1.8576    6.8937   -2.9230 C   0  0  0  1  0  0  0  0  0  0  0  0
   -3.2926    5.4129   -1.7089 O   0  0  0  1  0  0  0  0  0  0  0  0
   -3.0482    3.4854    2.2378 H   0  0  0  1  0  0  0  0  0  0  0  0
   -1.4449    1.8304    2.6457 H   0  0  0  1  0  0  0  0  0  0  0  0
   -0.6063    2.3003    1.1867 H   0  0  0  1  0  0  0  0  0  0  0  0
   -2.0534    1.3254    1.0877 H   0  0  0  1  0  0  0  0  0  0  0  0
   -0.8100    7.1116   -2.9198 H   0  0  0  1  0  0  0  0  0  0  0  0
   -2.4022    7.7577   -2.6040 H   0  0  0  1  0  0  0  0  0  0  0  0
   -2.1626    6.6245   -3.9126 H   0  0  0  1  0  0  0  0  0  0  0  0
   -1.4403    2.7148   -1.2976 C   0  0  0  1  0  0  0  0  0  0  0  0
   -2.8094    2.5520   -1.9283 C   0  0  0  1  0  0  0  0  0  0  0  0
   -3.0875    3.0399   -3.1957 C   0  0  0  1  0  0  0  0  0  0  0  0
   -4.3717    2.9594   -3.7005 C   0  0  0  1  0  0  0  0  0  0  0  0
   -5.3802    2.3862   -2.9418 C   0  0  0  1  0  0  0  0  0  0  0  0
   -5.1028    1.8998   -1.6782 C   0  0  0  1  0  0  0  0  0  0  0  0
   -3.8150    1.9804   -1.1717 C   0  0  0  1  0  0  0  0  0  0  0  0
   -6.6528    2.2801   -3.3956 O   0  0  0  1  0  0  0  0  0  0  0  0
   -4.6197    3.4481   -4.9400 O   0  0  0  1  0  0  0  0  0  0  0  0
   -1.2914    1.8860   -0.6373 H   0  0  0  1  0  0  0  0  0  0  0  0
   -0.7181    2.6774   -2.0862 H   0  0  0  1  0  0  0  0  0  0  0  0
   -2.3300    3.4664   -3.7666 H   0  0  0  1  0  0  0  0  0  0  0  0
   -5.8603    1.4733   -1.1074 H   0  0  0  1  0  0  0  0  0  0  0  0
   -3.6054    1.6108   -0.2224 H   0  0  0  1  0  0  0  0  0  0  0  0
   -7.2591    2.2750   -2.6513 H   0  0  0  1  0  0  0  0  0  0  0  0
   -4.0889    4.2344   -5.0866 H   0  0  0  1  0  0  0  0  0  0  0  0
  1  4  1  0  0  0  0
  2  4  1  0  0  0  0
  2  5  2  0  0  0  0
  2  6  1  0  0  0  0
  3  4  1  0  0  0  0
  3  7  1  0  0  0  0
  3  8  1  0  0  0  0
  4 19  1  0  0  0  0
  6  9  1  0  0  0  0
  6 12  1  0  0  0  0
  8 10  1  0  0  0  0
  8 11  2  0  0  0  0
  9 13  1  0  0  0  0
  9 14  1  0  0  0  0
  9 15  1  0  0  0  0
 10 16  1  0  0  0  0
 10 17  1  0  0  0  0
 10 18  1  0  0  0  0
 19 20  1  0  0  0  0
 19 28  1  0  0  0  0
 19 29  1  0  0  0  0
 20 21  4  0  0  0  0
 20 25  4  0  0  0  0
 21 22  4  0  0  0  0
 21 30  1  0  0  0  0
 22 23  4  0  0  0  0
 22 27  1  0  0  0  0
 23 24  4  0  0  0  0
 23 26  1  0  0  0  0
 24 25  4  0  0  0  0
 24 31  1  0  0  0  0
 25 32  1  0  0  0  0
 26 33  1  0  0  0  0
 27 34  1  0  0  0  0
M  END
> <BCLConfClusterSize>
1

> <ConfClashScore>
0 

> <ConfOneFourInteractionScore>
-0.984014 

> <ConfScore>
0.54131 

> <ConfScorePBest>
0.00222313 

> <ConfTolerance>
1.41061 

> <RosettaParamsInstructions>
M  ROOT 3
M  POLY_N_BB 3
M  POLY_CA_BB 4
M  POLY_C_BB 2
M  POLY_O_BB 5
M  POLY_IGNORE 9 10 11 12 13 14 15 16 17 18 
M  POLY_UPPER 6
M  POLY_LOWER 8
M  POLY_CHG 0
M  POLY_PROPERTIES ALPHA_AA D_AA PROTEIN AROMATIC POLYMER 
M  END

$$$$



 34 34  0  0  0  0  0  0  0  0999 V2000
    0.4618    1.9097   -1.4340 H   0  0  0  1  0  0  0  0  0  0  0  0
    0.2092    2.9407   -3.2402 C   0  0  0  1  0  0  0  0  0  0  0  0
   -0.8371    0.7811   -2.6067 N   0  0  0  1  0  0  0  0  0  0  0  0
   -0.3369    2.0951   -2.1215 C   0  0  0  1  0  0  0  0  0  0  0  0
   -0.3739    3.9540   -3.6164 O   0  0  0  1  0  0  0  0  0  0  0  0
    1.3589    2.5137   -3.7861 N   0  0  0  1  0  0  0  0  0  0  0  0
   -1.8078    0.6552   -2.6539 H   0  0  0  1  0  0  0  0  0  0  0  0
   -0.0640   -0.2389   -2.9823 C   0  0  0  1  0  0  0  0  0  0  0  0
    1.9627    3.2496   -4.8870 C   0  0  0  1  0  0  0  0  0  0  0  0
   -0.7887   -1.4376   -3.5515 C   0  0  0  1  0  0  0  0  0  0  0  0
    1.1619   -0.2235   -2.8799 O   0  0  0  1  0  0  0  0  0  0  0  0
    1.7925    1.7048   -3.4427 H   0  0  0  1  0  0  0  0  0  0  0  0
    2.0651    2.6044   -5.7343 H   0  0  0  1  0  0  0  0  0  0  0  0
    2.9275    3.6053   -4.5912 H   0  0  0  1  0  0  0  0  0  0  0  0
    1.3394    4.0802   -5.1447 H   0  0  0  1  0  0  0  0  0  0  0  0
   -0.3846   -1.6757   -4.5133 H   0  0  0  1  0  0  0  0  0  0  0  0
   -1.8300   -1.2115   -3.6484 H   0  0  0  1  0  0  0  0  0  0  0  0
   -0.6642   -2.2738   -2.8957 H   0  0  0  1  0  0  0  0  0  0  0  0
   -1.4453    2.8346   -1.3463 C   0  0  0  1  0  0  0  0  0  0  0  0
   -2.8208    2.5898   -1.9069 C   0  0  0  1  0  0  0  0  0  0  0  0
   -3.1453    3.0846   -3.1605 C   0  0  0  1  0  0  0  0  0  0  0  0
   -4.4321    2.9470   -3.6457 C   0  0  0  1  0  0  0  0  0  0  0  0
   -5.3969    2.3097   -2.8811 C   0  0  0  1  0  0  0  0  0  0  0  0
   -5.0732    1.8165   -1.6312 C   0  0  0  1  0  0  0  0  0  0  0  0
   -3.7826    1.9544   -1.1444 C   0  0  0  1  0  0  0  0  0  0  0  0
   -6.6801    2.1245   -3.2756 O   0  0  0  1  0  0  0  0  0  0  0  0
   -4.7262    3.4436   -4.8719 O   0  0  0  1  0  0  0  0  0  0  0  0
   -1.2443    3.8849   -1.3836 H   0  0  0  1  0  0  0  0  0  0  0  0
   -1.4284    2.5036   -0.3289 H   0  0  0  1  0  0  0  0  0  0  0  0
   -2.4205    3.5592   -3.7359 H   0  0  0  1  0  0  0  0  0  0  0  0
   -5.7980    1.3420   -1.0559 H   0  0  0  1  0  0  0  0  0  0  0  0
   -3.5381    1.5797   -0.2056 H   0  0  0  1  0  0  0  0  0  0  0  0
   -7.2155    2.8655   -2.9827 H   0  0  0  1  0  0  0  0  0  0  0  0
   -3.9486    3.8695   -5.2401 H   0  0  0  1  0  0  0  0  0  0  0  0
  1  4  1  0  0  0  0
  2  4  1  0  0  0  0
  2  5  2  0  0  0  0
  2  6  1  0  0  0  0
  3  4  1  0  0  0  0
  3  7  1  0  0  0  0
  3  8  1  0  0  0  0
  4 19  1  0  0  0  0
  6  9  1  0  0  0  0
  6 12  1  0  0  0  0
  8 10  1  0  0  0  0
  8 11  2  0  0  0  0
  9 13  1  0  0  0  0
  9 14  1  0  0  0  0
  9 15  1  0  0  0  0
 10 16  1  0  0  0  0
 10 17  1  0  0  0  0
 10 18  1  0  0  0  0
 19 20  1  0  0  0  0
 19 28  1  0  0  0  0
 19 29  1  0  0  0  0
 20 21  4  0  0  0  0
 20 25  4  0  0  0  0
 21 22  4  0  0  0  0
 21 30  1  0  0  0  0
 22 23  4  0  0  0  0
 22 27  1  0  0  0  0
 23 24  4  0  0  0  0
 23 26  1  0  0  0  0
 24 25  4  0  0  0  0
 24 31  1  0  0  0  0
 25 32  1  0  0  0  0
 26 33  1  0  0  0  0
 27 34  1  0  0  0  0
M  END
> <BCLConfClusterSize>
1

> <ConfClashScore>
0 

> <ConfOneFourInteractionScore>
-0.955883 

> <ConfScore>
0.57581 

> <ConfScorePBest>
0.00219465 

> <ConfTolerance>
1.49032 

> <RosettaParamsInstructions>
M  ROOT 3
M  POLY_N_BB 3
M  POLY_CA_BB 4
M  POLY_C_BB 2
M  POLY_O_BB 5
M  POLY_IGNORE 9 10 11 12 13 14 15 16 17 18 
M  POLY_UPPER 6
M  POLY_LOWER 8
M  POLY_CHG 0
M  POLY_PROPERTIES ALPHA_AA D_AA PROTEIN AROMATIC POLYMER 
M  END

$$$$



 34 34  0  0  0  0  0  0  0  0999 V2000
    0.1807    1.7587   -0.4001 H   0  0  0  1  0  0  0  0  0  0  0  0
   -0.6149    0.3978   -1.7469 C   0  0  0  1  0  0  0  0  0  0  0  0
   -1.4764    0.9951    0.5257 N   0  0  0  1  0  0  0  0  0  0  0  0
   -0.8088    1.4873   -0.7038 C   0  0  0  1  0  0  0  0  0  0  0  0
   -0.9647   -0.7619   -1.5315 O   0  0  0  1  0  0  0  0  0  0  0  0
   -0.0449    0.7875   -2.8982 N   0  0  0  1  0  0  0  0  0  0  0  0
   -2.0033    0.1701    0.4799 H   0  0  0  1  0  0  0  0  0  0  0  0
   -1.3836    1.6428    1.7035 C   0  0  0  1  0  0  0  0  0  0  0  0
    0.2312   -0.1868   -3.9433 C   0  0  0  1  0  0  0  0  0  0  0  0
   -0.4558    2.8416    1.6683 C   0  0  0  1  0  0  0  0  0  0  0  0
   -1.9798    1.3200    2.7276 O   0  0  0  1  0  0  0  0  0  0  0  0
    0.1858    1.7301   -3.0350 H   0  0  0  1  0  0  0  0  0  0  0  0
    0.5888    0.3177   -4.8165 H   0  0  0  1  0  0  0  0  0  0  0  0
   -0.6664   -0.7183   -4.1812 H   0  0  0  1  0  0  0  0  0  0  0  0
    0.9743   -0.8762   -3.6006 H   0  0  0  1  0  0  0  0  0  0  0  0
    0.4493    2.5780    1.1622 H   0  0  0  1  0  0  0  0  0  0  0  0
   -0.2290    3.1463    2.6686 H   0  0  0  1  0  0  0  0  0  0  0  0
   -0.9329    3.6465    1.1493 H   0  0  0  1  0  0  0  0  0  0  0  0
   -1.4251    2.7727   -1.2401 C   0  0  0  1  0  0  0  0  0  0  0  0
   -2.7783    2.5577   -1.8849 C   0  0  0  1  0  0  0  0  0  0  0  0
   -3.0447    2.9899   -3.1748 C   0  0  0  1  0  0  0  0  0  0  0  0
   -4.3184    2.8636   -3.6965 C   0  0  0  1  0  0  0  0  0  0  0  0
   -5.3279    2.2998   -2.9320 C   0  0  0  1  0  0  0  0  0  0  0  0
   -5.0621    1.8690   -1.6460 C   0  0  0  1  0  0  0  0  0  0  0  0
   -3.7848    1.9956   -1.1225 C   0  0  0  1  0  0  0  0  0  0  0  0
   -6.5495    2.2035   -3.5110 O   0  0  0  1  0  0  0  0  0  0  0  0
   -4.5553    3.2983   -4.9581 O   0  0  0  1  0  0  0  0  0  0  0  0
   -0.7626    3.1895   -1.9696 H   0  0  0  1  0  0  0  0  0  0  0  0
   -1.5401    3.4599   -0.4280 H   0  0  0  1  0  0  0  0  0  0  0  0
   -2.2864    3.4092   -3.7498 H   0  0  0  1  0  0  0  0  0  0  0  0
   -5.8205    1.4497   -1.0710 H   0  0  0  1  0  0  0  0  0  0  0  0
   -3.5839    1.6677   -0.1562 H   0  0  0  1  0  0  0  0  0  0  0  0
   -7.1897    2.6962   -2.9923 H   0  0  0  1  0  0  0  0  0  0  0  0
   -4.6964    4.2478   -4.9486 H   0  0  0  1  0  0  0  0  0  0  0  0
  1  4  1  0  0  0  0
  2  4  1  0  0  0  0
  2  5  2  0  0  0  0
  2  6  1  0  0  0  0
  3  4  1  0  0  0  0
  3  7  1  0  0  0  0
  3  8  1  0  0  0  0
  4 19  1  0  0  0  0
  6  9  1  0  0  0  0
  6 12  1  0  0  0  0
  8 10  1  0  0  0  0
  8 11  2  0  0  0  0
  9 13  1  0  0  0  0
  9 14  1  0  0  0  0
  9 15  1  0  0  0  0
 10 16  1  0  0  0  0
 10 17  1  0  0  0  0
 10 18  1  0  0  0  0
 19 20  1  0  0  0  0
 19 28  1  0  0  0  0
 19 29  1  0  0  0  0
 20 21  4  0  0  0  0
 20 25  4  0  0  0  0
 21 22  4  0  0  0  0
 21 30  1  0  0  0  0
 22 23  4  0  0  0  0
 22 27  1  0  0  0  0
 23 24  4  0  0  0  0
 23 26  1  0  0  0  0
 24 25  4  0  0  0  0
 24 31  1  0  0  0  0
 25 32  1  0  0  0  0
 26 33  1  0  0  0  0
 27 34  1  0  0  0  0
M  END
> <BCLConfClusterSize>
1

> <ConfClashScore>
0 

> <ConfOneFourInteractionScore>
-0.960887 

> <ConfScore>
0.634817 

> <ConfScorePBest>
0.00216617 

> <ConfTolerance>
2.26543 

> <RosettaParamsInstructions>
M  ROOT 3
M  POLY_N_BB 3
M  POLY_CA_BB 4
M  POLY_C_BB 2
M  POLY_O_BB 5
M  POLY_IGNORE 9 10 11 12 13 14 15 16 17 18 
M  POLY_UPPER 6
M  POLY_LOWER 8
M  POLY_CHG 0
M  POLY_PROPERTIES ALPHA_AA D_AA PROTEIN AROMATIC POLYMER 
M  END

$$$$
