


 34 34  0  0  0  0  0  0  0  0999 V2000
   -0.1761    3.5703    2.7659 H   0  0  0  1  0  0  0  0  0  0  0  0
    1.0097    2.1580    1.7243 C   0  0  0  1  0  0  0  0  0  0  0  0
    0.3923    4.3954    0.9572 N   0  0  0  1  0  0  0  0  0  0  0  0
   -0.0478    3.2576    1.7507 C   0  0  0  1  0  0  0  0  0  0  0  0
    1.0970    1.2784    2.5601 O   0  0  0  1  0  0  0  0  0  0  0  0
    1.8719    2.2012    0.7047 N   0  0  0  1  0  0  0  0  0  0  0  0
   -0.2110    4.7921    0.2947 H   0  0  0  1  0  0  0  0  0  0  0  0
    1.6152    4.8994    1.1299 C   0  0  0  1  0  0  0  0  0  0  0  0
    2.9554    1.2402    0.5615 C   0  0  0  1  0  0  0  0  0  0  0  0
    1.9772    6.0703    0.2370 C   0  0  0  1  0  0  0  0  0  0  0  0
    2.4120    4.4560    1.9557 O   0  0  0  1  0  0  0  0  0  0  0  0
    1.7713    2.9045    0.0296 H   0  0  0  1  0  0  0  0  0  0  0  0
    2.6526    0.2975    0.9671 H   0  0  0  1  0  0  0  0  0  0  0  0
    3.8174    1.5941    1.0875 H   0  0  0  1  0  0  0  0  0  0  0  0
    3.1928    1.1226   -0.4751 H   0  0  0  1  0  0  0  0  0  0  0  0
    1.2112    6.8150    0.2964 H   0  0  0  1  0  0  0  0  0  0  0  0
    2.0683    5.7325   -0.7742 H   0  0  0  1  0  0  0  0  0  0  0  0
    2.9076    6.4896    0.5588 H   0  0  0  1  0  0  0  0  0  0  0  0
   -5.4326    6.7357    0.9719 N   0  3  0  1  0  0  0  0  0  0  0  0
   -6.1144    7.0712    1.8877 O   0  0  0  1  0  0  0  0  0  0  0  0
   -5.6050    7.3300   -0.2166 O   0  5  0  1  0  0  0  0  0  0  0  0
   -4.4375    5.7199    1.1022 C   0  0  0  1  0  0  0  0  0  0  0  0
   -3.6454    5.4642   -0.0012 C   0  0  0  1  0  0  0  0  0  0  0  0
   -2.6580    4.4934    0.0643 C   0  0  0  1  0  0  0  0  0  0  0  0
   -2.4693    3.7775    1.2314 C   0  0  0  1  0  0  0  0  0  0  0  0
   -3.2637    4.0338    2.3381 C   0  0  0  1  0  0  0  0  0  0  0  0
   -4.2481    5.0017    2.2726 C   0  0  0  1  0  0  0  0  0  0  0  0
   -1.3837    2.7274    1.2467 C   0  0  0  1  0  0  0  0  0  0  0  0
   -3.7901    6.0002   -0.8806 H   0  0  0  1  0  0  0  0  0  0  0  0
   -2.0593    4.3038   -0.7647 H   0  0  0  1  0  0  0  0  0  0  0  0
   -3.1190    3.4978    3.2175 H   0  0  0  1  0  0  0  0  0  0  0  0
   -4.8468    5.1913    3.1016 H   0  0  0  1  0  0  0  0  0  0  0  0
   -1.6942    1.9257    1.8838 H   0  0  0  1  0  0  0  0  0  0  0  0
   -1.2506    2.3607    0.2503 H   0  0  0  1  0  0  0  0  0  0  0  0
  1  4  1  0  0  0  0
  2  4  1  0  0  0  0
  2  5  2  0  0  0  0
  2  6  1  0  0  0  0
  3  4  1  0  0  0  0
  3  7  1  0  0  0  0
  3  8  1  0  0  0  0
  4 28  1  0  0  0  0
  6  9  1  0  0  0  0
  6 12  1  0  0  0  0
  8 10  1  0  0  0  0
  8 11  2  0  0  0  0
  9 13  1  0  0  0  0
  9 14  1  0  0  0  0
  9 15  1  0  0  0  0
 10 16  1  0  0  0  0
 10 17  1  0  0  0  0
 10 18  1  0  0  0  0
 19 20  2  0  0  0  0
 19 21  1  0  0  0  0
 19 22  1  0  0  0  0
 22 23  4  0  0  0  0
 22 27  4  0  0  0  0
 23 24  4  0  0  0  0
 23 29  1  0  0  0  0
 24 25  4  0  0  0  0
 24 30  1  0  0  0  0
 25 26  4  0  0  0  0
 25 28  1  0  0  0  0
 26 27  4  0  0  0  0
 26 31  1  0  0  0  0
 27 32  1  0  0  0  0
 28 33  1  0  0  0  0
 28 34  1  0  0  0  0
M  END
> <BCLConfClusterSize>
1

> <ConfClashScore>
0 

> <ConfOneFourInteractionScore>
-0.94165 

> <ConfScore>
-0.329323 

> <ConfScorePBest>
0.00783383 

> <ConfTolerance>
0.197488 

> <RosettaParamsInstructions>
M  ROOT 3
M  POLY_N_BB 3
M  POLY_CA_BB 4
M  POLY_C_BB 2
M  POLY_O_BB 5
M  POLY_IGNORE 9 10 11 12 13 14 15 16 17 18 
M  POLY_UPPER 6
M  POLY_LOWER 8
M  POLY_CHG 0
M  POLY_PROPERTIES ALPHA_AA L_AA PROTEIN AROMATIC POLYMER 
M  END

$$$$



 34 34  0  0  0  0  0  0  0  0999 V2000
   -2.1282    1.6428   -0.3781 H   0  0  0  1  0  0  0  0  0  0  0  0
   -0.5935    0.4794    0.5205 C   0  0  0  1  0  0  0  0  0  0  0  0
   -2.8441    0.7114    1.3348 N   0  0  0  1  0  0  0  0  0  0  0  0
   -1.7937    1.4130    0.6120 C   0  0  0  1  0  0  0  0  0  0  0  0
    0.0516    0.3458   -0.5034 O   0  0  0  1  0  0  0  0  0  0  0  0
   -0.2314   -0.2202    1.5996 N   0  0  0  1  0  0  0  0  0  0  0  0
   -3.0941    1.0554    2.2177 H   0  0  0  1  0  0  0  0  0  0  0  0
   -3.4939   -0.3677    0.8848 C   0  0  0  1  0  0  0  0  0  0  0  0
    0.7807   -1.2645    1.5454 C   0  0  0  1  0  0  0  0  0  0  0  0
   -4.7037   -0.8007    1.7031 C   0  0  0  1  0  0  0  0  0  0  0  0
   -3.1540   -0.9791   -0.1153 O   0  0  0  1  0  0  0  0  0  0  0  0
   -0.6622   -0.0232    2.4575 H   0  0  0  1  0  0  0  0  0  0  0  0
    0.9486   -1.5467    0.5270 H   0  0  0  1  0  0  0  0  0  0  0  0
    0.4448   -2.1155    2.1002 H   0  0  0  1  0  0  0  0  0  0  0  0
    1.6928   -0.8993    1.9691 H   0  0  0  1  0  0  0  0  0  0  0  0
   -4.3829   -1.1235    2.6714 H   0  0  0  1  0  0  0  0  0  0  0  0
   -5.2007   -1.6068    1.2051 H   0  0  0  1  0  0  0  0  0  0  0  0
   -5.3771    0.0242    1.8074 H   0  0  0  1  0  0  0  0  0  0  0  0
   -5.4510    6.7408    0.9858 N   0  3  0  1  0  0  0  0  0  0  0  0
   -6.1601    6.9053    1.9271 O   0  0  0  1  0  0  0  0  0  0  0  0
   -5.5517    7.4501   -0.1466 O   0  5  0  1  0  0  0  0  0  0  0  0
   -4.4322    5.7265    1.0690 C   0  0  0  1  0  0  0  0  0  0  0  0
   -3.6426    5.4506   -0.0313 C   0  0  0  1  0  0  0  0  0  0  0  0
   -2.6578    4.4783    0.0484 C   0  0  0  1  0  0  0  0  0  0  0  0
   -2.4691    3.7810    1.2267 C   0  0  0  1  0  0  0  0  0  0  0  0
   -3.2610    4.0576    2.3304 C   0  0  0  1  0  0  0  0  0  0  0  0
   -4.2428    5.0270    2.2507 C   0  0  0  1  0  0  0  0  0  0  0  0
   -1.4002    2.7173    1.3126 C   0  0  0  1  0  0  0  0  0  0  0  0
   -3.7874    5.9725   -0.9192 H   0  0  0  1  0  0  0  0  0  0  0  0
   -2.0610    4.2735   -0.7784 H   0  0  0  1  0  0  0  0  0  0  0  0
   -3.1162    3.5357    3.2182 H   0  0  0  1  0  0  0  0  0  0  0  0
   -4.8396    5.2318    3.0775 H   0  0  0  1  0  0  0  0  0  0  0  0
   -0.5082    3.0933    0.8565 H   0  0  0  1  0  0  0  0  0  0  0  0
   -1.2119    2.5062    2.3446 H   0  0  0  1  0  0  0  0  0  0  0  0
  1  4  1  0  0  0  0
  2  4  1  0  0  0  0
  2  5  2  0  0  0  0
  2  6  1  0  0  0  0
  3  4  1  0  0  0  0
  3  7  1  0  0  0  0
  3  8  1  0  0  0  0
  4 28  1  0  0  0  0
  6  9  1  0  0  0  0
  6 12  1  0  0  0  0
  8 10  1  0  0  0  0
  8 11  2  0  0  0  0
  9 13  1  0  0  0  0
  9 14  1  0  0  0  0
  9 15  1  0  0  0  0
 10 16  1  0  0  0  0
 10 17  1  0  0  0  0
 10 18  1  0  0  0  0
 19 20  2  0  0  0  0
 19 21  1  0  0  0  0
 19 22  1  0  0  0  0
 22 23  4  0  0  0  0
 22 27  4  0  0  0  0
 23 24  4  0  0  0  0
 23 29  1  0  0  0  0
 24 25  4  0  0  0  0
 24 30  1  0  0  0  0
 25 26  4  0  0  0  0
 25 28  1  0  0  0  0
 26 27  4  0  0  0  0
 26 31  1  0  0  0  0
 27 32  1  0  0  0  0
 28 33  1  0  0  0  0
 28 34  1  0  0  0  0
M  END
> <BCLConfClusterSize>
1

> <ConfClashScore>
0 

> <ConfOneFourInteractionScore>
-0.960318 

> <ConfScore>
-0.327396 

> <ConfScorePBest>
0.00780535 

> <ConfTolerance>
0.178782 

> <RosettaParamsInstructions>
M  ROOT 3
M  POLY_N_BB 3
M  POLY_CA_BB 4
M  POLY_C_BB 2
M  POLY_O_BB 5
M  POLY_IGNORE 9 10 11 12 13 14 15 16 17 18 
M  POLY_UPPER 6
M  POLY_LOWER 8
M  POLY_CHG 0
M  POLY_PROPERTIES ALPHA_AA L_AA PROTEIN AROMATIC POLYMER 
M  END

$$$$



 34 34  0  0  0  0  0  0  0  0999 V2000
   -2.0909    1.5634   -0.3432 H   0  0  0  1  0  0  0  0  0  0  0  0
   -0.9997    0.2620    0.8816 C   0  0  0  1  0  0  0  0  0  0  0  0
   -3.2755    1.0995    1.2675 N   0  0  0  1  0  0  0  0  0  0  0  0
   -1.9660    1.4177    0.7094 C   0  0  0  1  0  0  0  0  0  0  0  0
   -0.2672   -0.0916   -0.0277 O   0  0  0  1  0  0  0  0  0  0  0  0
   -1.0094   -0.3280    2.0772 N   0  0  0  1  0  0  0  0  0  0  0  0
   -3.6588    1.6661    1.9692 H   0  0  0  1  0  0  0  0  0  0  0  0
   -3.9565    0.0327    0.8221 C   0  0  0  1  0  0  0  0  0  0  0  0
   -0.1163   -1.4029    2.4832 C   0  0  0  1  0  0  0  0  0  0  0  0
   -5.2596   -0.3203    1.5124 C   0  0  0  1  0  0  0  0  0  0  0  0
   -3.5380   -0.6411   -0.1185 O   0  0  0  1  0  0  0  0  0  0  0  0
   -1.6676   -0.0141    2.7320 H   0  0  0  1  0  0  0  0  0  0  0  0
    0.7266   -1.4348    1.8248 H   0  0  0  1  0  0  0  0  0  0  0  0
   -0.6384   -2.3358    2.4393 H   0  0  0  1  0  0  0  0  0  0  0  0
    0.2197   -1.2283    3.4840 H   0  0  0  1  0  0  0  0  0  0  0  0
   -5.6333    0.5382    2.0303 H   0  0  0  1  0  0  0  0  0  0  0  0
   -5.0896   -1.1123    2.2114 H   0  0  0  1  0  0  0  0  0  0  0  0
   -5.9755   -0.6357    0.7824 H   0  0  0  1  0  0  0  0  0  0  0  0
   -5.4454    6.7463    0.9858 N   0  3  0  1  0  0  0  0  0  0  0  0
   -5.9898    7.0847    1.9884 O   0  0  0  1  0  0  0  0  0  0  0  0
   -5.7284    7.2628   -0.2178 O   0  5  0  1  0  0  0  0  0  0  0  0
   -4.4298    5.7290    1.0718 C   0  0  0  1  0  0  0  0  0  0  0  0
   -3.6199    5.4698   -0.0178 C   0  0  0  1  0  0  0  0  0  0  0  0
   -2.6382    4.4946    0.0646 C   0  0  0  1  0  0  0  0  0  0  0  0
   -2.4729    3.7778    1.2348 C   0  0  0  1  0  0  0  0  0  0  0  0
   -3.2851    4.0377    2.3275 C   0  0  0  1  0  0  0  0  0  0  0  0
   -4.2639    5.0100    2.2452 C   0  0  0  1  0  0  0  0  0  0  0  0
   -1.3924    2.7229    1.2687 C   0  0  0  1  0  0  0  0  0  0  0  0
   -3.7470    6.0065   -0.8995 H   0  0  0  1  0  0  0  0  0  0  0  0
   -2.0261    4.3024   -0.7539 H   0  0  0  1  0  0  0  0  0  0  0  0
   -3.1581    3.5010    3.2093 H   0  0  0  1  0  0  0  0  0  0  0  0
   -4.8759    5.2022    3.0637 H   0  0  0  1  0  0  0  0  0  0  0  0
   -0.5629    3.0374    0.6705 H   0  0  0  1  0  0  0  0  0  0  0  0
   -1.0685    2.5712    2.2771 H   0  0  0  1  0  0  0  0  0  0  0  0
  1  4  1  0  0  0  0
  2  4  1  0  0  0  0
  2  5  2  0  0  0  0
  2  6  1  0  0  0  0
  3  4  1  0  0  0  0
  3  7  1  0  0  0  0
  3  8  1  0  0  0  0
  4 28  1  0  0  0  0
  6  9  1  0  0  0  0
  6 12  1  0  0  0  0
  8 10  1  0  0  0  0
  8 11  2  0  0  0  0
  9 13  1  0  0  0  0
  9 14  1  0  0  0  0
  9 15  1  0  0  0  0
 10 16  1  0  0  0  0
 10 17  1  0  0  0  0
 10 18  1  0  0  0  0
 19 20  2  0  0  0  0
 19 21  1  0  0  0  0
 19 22  1  0  0  0  0
 22 23  4  0  0  0  0
 22 27  4  0  0  0  0
 23 24  4  0  0  0  0
 23 29  1  0  0  0  0
 24 25  4  0  0  0  0
 24 30  1  0  0  0  0
 25 26  4  0  0  0  0
 25 28  1  0  0  0  0
 26 27  4  0  0  0  0
 26 31  1  0  0  0  0
 27 32  1  0  0  0  0
 28 33  1  0  0  0  0
 28 34  1  0  0  0  0
M  END
> <BCLConfClusterSize>
1

> <ConfClashScore>
0 

> <ConfOneFourInteractionScore>
-0.950585 

> <ConfScore>
-0.313402 

> <ConfScorePBest>
0.00777687 

> <ConfTolerance>
0.213247 

> <RosettaParamsInstructions>
M  ROOT 3
M  POLY_N_BB 3
M  POLY_CA_BB 4
M  POLY_C_BB 2
M  POLY_O_BB 5
M  POLY_IGNORE 9 10 11 12 13 14 15 16 17 18 
M  POLY_UPPER 6
M  POLY_LOWER 8
M  POLY_CHG 0
M  POLY_PROPERTIES ALPHA_AA L_AA PROTEIN AROMATIC POLYMER 
M  END

$$$$



 34 34  0  0  0  0  0  0  0  0999 V2000
   -2.3867    1.0703    0.3203 H   0  0  0  1  0  0  0  0  0  0  0  0
   -0.8789    0.2625    1.5794 C   0  0  0  1  0  0  0  0  0  0  0  0
   -3.0777    1.0908    2.2788 N   0  0  0  1  0  0  0  0  0  0  0  0
   -2.0068    1.2474    1.3048 C   0  0  0  1  0  0  0  0  0  0  0  0
   -0.2323   -0.2399    0.6612 O   0  0  0  1  0  0  0  0  0  0  0  0
   -0.6476   -0.0109    2.8666 N   0  0  0  1  0  0  0  0  0  0  0  0
   -3.3033    1.8474    2.8594 H   0  0  0  1  0  0  0  0  0  0  0  0
   -3.7634   -0.0485    2.4086 C   0  0  0  1  0  0  0  0  0  0  0  0
    0.3941   -0.9020    3.3550 C   0  0  0  1  0  0  0  0  0  0  0  0
   -4.8908   -0.0942    3.4215 C   0  0  0  1  0  0  0  0  0  0  0  0
   -3.5351   -1.0653    1.7546 O   0  0  0  1  0  0  0  0  0  0  0  0
   -1.2228    0.4213    3.5320 H   0  0  0  1  0  0  0  0  0  0  0  0
    1.2245   -0.8842    2.6804 H   0  0  0  1  0  0  0  0  0  0  0  0
    0.0092   -1.8982    3.4202 H   0  0  0  1  0  0  0  0  0  0  0  0
    0.7146   -0.5788    4.3233 H   0  0  0  1  0  0  0  0  0  0  0  0
   -4.6739    0.5750    4.2278 H   0  0  0  1  0  0  0  0  0  0  0  0
   -4.9887   -1.0897    3.8012 H   0  0  0  1  0  0  0  0  0  0  0  0
   -5.8053    0.2000    2.9504 H   0  0  0  1  0  0  0  0  0  0  0  0
   -5.4431    6.7285    0.9321 N   0  3  0  1  0  0  0  0  0  0  0  0
   -5.6064    7.3252   -0.0845 O   0  0  0  1  0  0  0  0  0  0  0  0
   -6.2869    6.9974    1.9377 O   0  5  0  1  0  0  0  0  0  0  0  0
   -4.3823    5.7634    1.0621 C   0  0  0  1  0  0  0  0  0  0  0  0
   -3.5919    5.4746   -0.0343 C   0  0  0  1  0  0  0  0  0  0  0  0
   -2.6345    4.4753    0.0453 C   0  0  0  1  0  0  0  0  0  0  0  0
   -2.4739    3.7642    1.2195 C   0  0  0  1  0  0  0  0  0  0  0  0
   -3.2665    4.0538    2.3192 C   0  0  0  1  0  0  0  0  0  0  0  0
   -4.2211    5.0501    2.2397 C   0  0  0  1  0  0  0  0  0  0  0  0
   -1.4521    2.6613    1.3640 C   0  0  0  1  0  0  0  0  0  0  0  0
   -3.7156    6.0070   -0.9191 H   0  0  0  1  0  0  0  0  0  0  0  0
   -2.0370    4.2607   -0.7785 H   0  0  0  1  0  0  0  0  0  0  0  0
   -3.1429    3.5214    3.2040 H   0  0  0  1  0  0  0  0  0  0  0  0
   -4.8185    5.2647    3.0635 H   0  0  0  1  0  0  0  0  0  0  0  0
   -0.7369    2.7686    0.5755 H   0  0  0  1  0  0  0  0  0  0  0  0
   -0.9641    2.7851    2.3082 H   0  0  0  1  0  0  0  0  0  0  0  0
  1  4  1  0  0  0  0
  2  4  1  0  0  0  0
  2  5  2  0  0  0  0
  2  6  1  0  0  0  0
  3  4  1  0  0  0  0
  3  7  1  0  0  0  0
  3  8  1  0  0  0  0
  4 28  1  0  0  0  0
  6  9  1  0  0  0  0
  6 12  1  0  0  0  0
  8 10  1  0  0  0  0
  8 11  2  0  0  0  0
  9 13  1  0  0  0  0
  9 14  1  0  0  0  0
  9 15  1  0  0  0  0
 10 16  1  0  0  0  0
 10 17  1  0  0  0  0
 10 18  1  0  0  0  0
 19 20  2  0  0  0  0
 19 21  1  0  0  0  0
 19 22  1  0  0  0  0
 22 23  4  0  0  0  0
 22 27  4  0  0  0  0
 23 24  4  0  0  0  0
 23 29  1  0  0  0  0
 24 25  4  0  0  0  0
 24 30  1  0  0  0  0
 25 26  4  0  0  0  0
 25 28  1  0  0  0  0
 26 27  4  0  0  0  0
 26 31  1  0  0  0  0
 27 32  1  0  0  0  0
 28 33  1  0  0  0  0
 28 34  1  0  0  0  0
M  END
> <BCLConfClusterSize>
1

> <ConfClashScore>
0 

> <ConfOneFourInteractionScore>
-0.960318 

> <ConfScore>
-0.313302 

> <ConfScorePBest>
0.00774839 

> <ConfTolerance>
0.245556 

> <RosettaParamsInstructions>
M  ROOT 3
M  POLY_N_BB 3
M  POLY_CA_BB 4
M  POLY_C_BB 2
M  POLY_O_BB 5
M  POLY_IGNORE 9 10 11 12 13 14 15 16 17 18 
M  POLY_UPPER 6
M  POLY_LOWER 8
M  POLY_CHG 0
M  POLY_PROPERTIES ALPHA_AA L_AA PROTEIN AROMATIC POLYMER 
M  END

$$$$



 34 34  0  0  0  0  0  0  0  0999 V2000
   -2.3124    1.6296   -0.2336 H   0  0  0  1  0  0  0  0  0  0  0  0
   -0.8400    0.3442    0.5271 C   0  0  0  1  0  0  0  0  0  0  0  0
   -3.0115    0.8535    1.5519 N   0  0  0  1  0  0  0  0  0  0  0  0
   -1.9116    1.3974    0.7310 C   0  0  0  1  0  0  0  0  0  0  0  0
   -0.1308    0.3520   -0.4782 O   0  0  0  1  0  0  0  0  0  0  0  0
   -0.6893   -0.5945    1.4749 N   0  0  0  1  0  0  0  0  0  0  0  0
   -3.2097    1.2731    2.4150 H   0  0  0  1  0  0  0  0  0  0  0  0
   -3.7694   -0.2241    1.1465 C   0  0  0  1  0  0  0  0  0  0  0  0
    0.3379   -1.6223    1.3947 C   0  0  0  1  0  0  0  0  0  0  0  0
   -4.8131   -0.6944    2.1171 C   0  0  0  1  0  0  0  0  0  0  0  0
   -3.5721   -0.7343    0.0599 O   0  0  0  1  0  0  0  0  0  0  0  0
   -1.2919   -0.5874    2.2476 H   0  0  0  1  0  0  0  0  0  0  0  0
    0.5996   -1.7865    0.3703 H   0  0  0  1  0  0  0  0  0  0  0  0
   -0.0343   -2.5319    1.8177 H   0  0  0  1  0  0  0  0  0  0  0  0
    1.2036   -1.3041    1.9371 H   0  0  0  1  0  0  0  0  0  0  0  0
   -5.1530    0.1327    2.7047 H   0  0  0  1  0  0  0  0  0  0  0  0
   -4.3924   -1.4393    2.7598 H   0  0  0  1  0  0  0  0  0  0  0  0
   -5.6382   -1.1120    1.5787 H   0  0  0  1  0  0  0  0  0  0  0  0
   -5.4261    6.7629    0.9441 N   0  3  0  1  0  0  0  0  0  0  0  0
   -5.5639    7.3052   -0.1062 O   0  0  0  1  0  0  0  0  0  0  0  0
   -6.2068    6.9899    2.0092 O   0  5  0  1  0  0  0  0  0  0  0  0
   -4.4175    5.7399    1.0433 C   0  0  0  1  0  0  0  0  0  0  0  0
   -3.6166    5.4535   -0.0461 C   0  0  0  1  0  0  0  0  0  0  0  0
   -2.6416    4.4727    0.0491 C   0  0  0  1  0  0  0  0  0  0  0  0
   -2.4739    3.7777    1.2319 C   0  0  0  1  0  0  0  0  0  0  0  0
   -3.2771    4.0648    2.3246 C   0  0  0  1  0  0  0  0  0  0  0  0
   -4.2492    5.0426    2.2295 C   0  0  0  1  0  0  0  0  0  0  0  0
   -1.4156    2.7049    1.3346 C   0  0  0  1  0  0  0  0  0  0  0  0
   -3.7456    5.9738   -0.9373 H   0  0  0  1  0  0  0  0  0  0  0  0
   -2.0363    4.2600   -0.7695 H   0  0  0  1  0  0  0  0  0  0  0  0
   -3.1482    3.5445    3.2158 H   0  0  0  1  0  0  0  0  0  0  0  0
   -4.8545    5.2553    3.0480 H   0  0  0  1  0  0  0  0  0  0  0  0
   -0.5402    3.0242    0.8086 H   0  0  0  1  0  0  0  0  0  0  0  0
   -1.1753    2.5467    2.3652 H   0  0  0  1  0  0  0  0  0  0  0  0
  1  4  1  0  0  0  0
  2  4  1  0  0  0  0
  2  5  2  0  0  0  0
  2  6  1  0  0  0  0
  3  4  1  0  0  0  0
  3  7  1  0  0  0  0
  3  8  1  0  0  0  0
  4 28  1  0  0  0  0
  6  9  1  0  0  0  0
  6 12  1  0  0  0  0
  8 10  1  0  0  0  0
  8 11  2  0  0  0  0
  9 13  1  0  0  0  0
  9 14  1  0  0  0  0
  9 15  1  0  0  0  0
 10 16  1  0  0  0  0
 10 17  1  0  0  0  0
 10 18  1  0  0  0  0
 19 20  2  0  0  0  0
 19 21  1  0  0  0  0
 19 22  1  0  0  0  0
 22 23  4  0  0  0  0
 22 27  4  0  0  0  0
 23 24  4  0  0  0  0
 23 29  1  0  0  0  0
 24 25  4  0  0  0  0
 24 30  1  0  0  0  0
 25 26  4  0  0  0  0
 25 28  1  0  0  0  0
 26 27  4  0  0  0  0
 26 31  1  0  0  0  0
 27 32  1  0  0  0  0
 28 33  1  0  0  0  0
 28 34  1  0  0  0  0
M  END
> <BCLConfClusterSize>
1

> <ConfClashScore>
0 

> <ConfOneFourInteractionScore>
-0.960318 

> <ConfScore>
-0.312591 

> <ConfScorePBest>
0.00771991 

> <ConfTolerance>
0.17372 

> <RosettaParamsInstructions>
M  ROOT 3
M  POLY_N_BB 3
M  POLY_CA_BB 4
M  POLY_C_BB 2
M  POLY_O_BB 5
M  POLY_IGNORE 9 10 11 12 13 14 15 16 17 18 
M  POLY_UPPER 6
M  POLY_LOWER 8
M  POLY_CHG 0
M  POLY_PROPERTIES ALPHA_AA L_AA PROTEIN AROMATIC POLYMER 
M  END

$$$$



 34 34  0  0  0  0  0  0  0  0999 V2000
   -0.4685    3.6441    2.9839 H   0  0  0  1  0  0  0  0  0  0  0  0
    0.8582    2.1605    2.3138 C   0  0  0  1  0  0  0  0  0  0  0  0
    0.4367    4.3559    1.2874 N   0  0  0  1  0  0  0  0  0  0  0  0
   -0.1613    3.2591    2.0340 C   0  0  0  1  0  0  0  0  0  0  0  0
    1.8009    1.9427    1.5745 O   0  0  0  1  0  0  0  0  0  0  0  0
    0.7170    1.4069    3.4079 N   0  0  0  1  0  0  0  0  0  0  0  0
    0.7854    4.1813    0.3884 H   0  0  0  1  0  0  0  0  0  0  0  0
    0.5267    5.5925    1.7851 C   0  0  0  1  0  0  0  0  0  0  0  0
    1.5519    0.2425    3.6629 C   0  0  0  1  0  0  0  0  0  0  0  0
    1.3719    6.5610    0.9891 C   0  0  0  1  0  0  0  0  0  0  0  0
   -0.0352    5.9394    2.8232 O   0  0  0  1  0  0  0  0  0  0  0  0
    0.0271    1.6465    4.0614 H   0  0  0  1  0  0  0  0  0  0  0  0
    1.8531   -0.1917    2.7326 H   0  0  0  1  0  0  0  0  0  0  0  0
    0.9974   -0.4766    4.2289 H   0  0  0  1  0  0  0  0  0  0  0  0
    2.4190    0.5397    4.2148 H   0  0  0  1  0  0  0  0  0  0  0  0
    0.8799    6.7899    0.0669 H   0  0  0  1  0  0  0  0  0  0  0  0
    2.3242    6.1182    0.7847 H   0  0  0  1  0  0  0  0  0  0  0  0
    1.5095    7.4602    1.5524 H   0  0  0  1  0  0  0  0  0  0  0  0
   -5.4476    6.7443    0.9895 N   0  3  0  1  0  0  0  0  0  0  0  0
   -6.0265    7.0397    1.9863 O   0  0  0  1  0  0  0  0  0  0  0  0
   -5.6943    7.3072   -0.2012 O   0  5  0  1  0  0  0  0  0  0  0  0
   -4.4295    5.7290    1.0681 C   0  0  0  1  0  0  0  0  0  0  0  0
   -3.6272    5.4710   -0.0274 C   0  0  0  1  0  0  0  0  0  0  0  0
   -2.6430    4.4978    0.0480 C   0  0  0  1  0  0  0  0  0  0  0  0
   -2.4675    3.7817    1.2171 C   0  0  0  1  0  0  0  0  0  0  0  0
   -3.2720    4.0404    2.3159 C   0  0  0  1  0  0  0  0  0  0  0  0
   -4.2533    5.0107    2.2406 C   0  0  0  1  0  0  0  0  0  0  0  0
   -1.4163    2.7061    1.3568 C   0  0  0  1  0  0  0  0  0  0  0  0
   -3.7620    6.0070   -0.9083 H   0  0  0  1  0  0  0  0  0  0  0  0
   -2.0367    4.3064   -0.7750 H   0  0  0  1  0  0  0  0  0  0  0  0
   -3.1372    3.5043    3.1968 H   0  0  0  1  0  0  0  0  0  0  0  0
   -4.8595    5.2021    3.0636 H   0  0  0  1  0  0  0  0  0  0  0  0
   -1.8099    1.9056    1.9477 H   0  0  0  1  0  0  0  0  0  0  0  0
   -1.1582    2.3395    0.3853 H   0  0  0  1  0  0  0  0  0  0  0  0
  1  4  1  0  0  0  0
  2  4  1  0  0  0  0
  2  5  2  0  0  0  0
  2  6  1  0  0  0  0
  3  4  1  0  0  0  0
  3  7  1  0  0  0  0
  3  8  1  0  0  0  0
  4 28  1  0  0  0  0
  6  9  1  0  0  0  0
  6 12  1  0  0  0  0
  8 10  1  0  0  0  0
  8 11  2  0  0  0  0
  9 13  1  0  0  0  0
  9 14  1  0  0  0  0
  9 15  1  0  0  0  0
 10 16  1  0  0  0  0
 10 17  1  0  0  0  0
 10 18  1  0  0  0  0
 19 20  2  0  0  0  0
 19 21  1  0  0  0  0
 19 22  1  0  0  0  0
 22 23  4  0  0  0  0
 22 27  4  0  0  0  0
 23 24  4  0  0  0  0
 23 29  1  0  0  0  0
 24 25  4  0  0  0  0
 24 30  1  0  0  0  0
 25 26  4  0  0  0  0
 25 28  1  0  0  0  0
 26 27  4  0  0  0  0
 26 31  1  0  0  0  0
 27 32  1  0  0  0  0
 28 33  1  0  0  0  0
 28 34  1  0  0  0  0
M  END
> <BCLConfClusterSize>
1

> <ConfClashScore>
0 

> <ConfOneFourInteractionScore>
-0.990503 

> <ConfScore>
-0.311117 

> <ConfScorePBest>
0.00769143 

> <ConfTolerance>
0.18726 

> <RosettaParamsInstructions>
M  ROOT 3
M  POLY_N_BB 3
M  POLY_CA_BB 4
M  POLY_C_BB 2
M  POLY_O_BB 5
M  POLY_IGNORE 9 10 11 12 13 14 15 16 17 18 
M  POLY_UPPER 6
M  POLY_LOWER 8
M  POLY_CHG 0
M  POLY_PROPERTIES ALPHA_AA L_AA PROTEIN AROMATIC POLYMER 
M  END

$$$$



 34 34  0  0  0  0  0  0  0  0999 V2000
   -2.1988    1.4460   -0.1282 H   0  0  0  1  0  0  0  0  0  0  0  0
   -0.7105    0.3865    0.9394 C   0  0  0  1  0  0  0  0  0  0  0  0
   -3.0054    0.8124    1.6666 N   0  0  0  1  0  0  0  0  0  0  0  0
   -1.8941    1.3449    0.8925 C   0  0  0  1  0  0  0  0  0  0  0  0
   -0.4668   -0.2888    1.9384 O   0  0  0  1  0  0  0  0  0  0  0  0
    0.0069    0.3638   -0.1875 N   0  0  0  1  0  0  0  0  0  0  0  0
   -2.9096    0.7331    2.6387 H   0  0  0  1  0  0  0  0  0  0  0  0
   -4.1630    0.4241    1.0926 C   0  0  0  1  0  0  0  0  0  0  0  0
    1.2136   -0.4382   -0.3247 C   0  0  0  1  0  0  0  0  0  0  0  0
   -5.2698   -0.0864    1.9945 C   0  0  0  1  0  0  0  0  0  0  0  0
   -4.3185    0.4815   -0.1265 O   0  0  0  1  0  0  0  0  0  0  0  0
   -0.2897    0.9059   -0.9481 H   0  0  0  1  0  0  0  0  0  0  0  0
    1.6815   -0.5459    0.6315 H   0  0  0  1  0  0  0  0  0  0  0  0
    1.8884    0.0459   -0.9993 H   0  0  0  1  0  0  0  0  0  0  0  0
    0.9579   -1.4042   -0.7073 H   0  0  0  1  0  0  0  0  0  0  0  0
   -5.5655    0.6884    2.6707 H   0  0  0  1  0  0  0  0  0  0  0  0
   -4.9161   -0.9291    2.5509 H   0  0  0  1  0  0  0  0  0  0  0  0
   -6.1090   -0.3786    1.3985 H   0  0  0  1  0  0  0  0  0  0  0  0
   -5.4404    6.7564    0.9338 N   0  3  0  1  0  0  0  0  0  0  0  0
   -5.5887    7.3489   -0.0875 O   0  0  0  1  0  0  0  0  0  0  0  0
   -6.1226    6.9081    2.0771 O   0  5  0  1  0  0  0  0  0  0  0  0
   -4.4263    5.7387    1.0321 C   0  0  0  1  0  0  0  0  0  0  0  0
   -3.6248    5.4567   -0.0580 C   0  0  0  1  0  0  0  0  0  0  0  0
   -2.6445    4.4811    0.0362 C   0  0  0  1  0  0  0  0  0  0  0  0
   -2.4722    3.7868    1.2188 C   0  0  0  1  0  0  0  0  0  0  0  0
   -3.2760    4.0696    2.3122 C   0  0  0  1  0  0  0  0  0  0  0  0
   -4.2533    5.0422    2.2181 C   0  0  0  1  0  0  0  0  0  0  0  0
   -1.4254    2.7098    1.3794 C   0  0  0  1  0  0  0  0  0  0  0  0
   -3.7572    5.9764   -0.9490 H   0  0  0  1  0  0  0  0  0  0  0  0
   -2.0388    4.2717   -0.7828 H   0  0  0  1  0  0  0  0  0  0  0  0
   -3.1436    3.5499    3.2033 H   0  0  0  1  0  0  0  0  0  0  0  0
   -4.8590    5.2516    3.0371 H   0  0  0  1  0  0  0  0  0  0  0  0
   -0.5581    2.9917    0.8197 H   0  0  0  1  0  0  0  0  0  0  0  0
   -1.1720    2.6330    2.4161 H   0  0  0  1  0  0  0  0  0  0  0  0
  1  4  1  0  0  0  0
  2  4  1  0  0  0  0
  2  5  2  0  0  0  0
  2  6  1  0  0  0  0
  3  4  1  0  0  0  0
  3  7  1  0  0  0  0
  3  8  1  0  0  0  0
  4 28  1  0  0  0  0
  6  9  1  0  0  0  0
  6 12  1  0  0  0  0
  8 10  1  0  0  0  0
  8 11  2  0  0  0  0
  9 13  1  0  0  0  0
  9 14  1  0  0  0  0
  9 15  1  0  0  0  0
 10 16  1  0  0  0  0
 10 17  1  0  0  0  0
 10 18  1  0  0  0  0
 19 20  2  0  0  0  0
 19 21  1  0  0  0  0
 19 22  1  0  0  0  0
 22 23  4  0  0  0  0
 22 27  4  0  0  0  0
 23 24  4  0  0  0  0
 23 29  1  0  0  0  0
 24 25  4  0  0  0  0
 24 30  1  0  0  0  0
 25 26  4  0  0  0  0
 25 28  1  0  0  0  0
 26 27  4  0  0  0  0
 26 31  1  0  0  0  0
 27 32  1  0  0  0  0
 28 33  1  0  0  0  0
 28 34  1  0  0  0  0
M  END
> <BCLConfClusterSize>
1

> <ConfClashScore>
0 

> <ConfOneFourInteractionScore>
-0.985807 

> <ConfScore>
-0.311117 

> <ConfScorePBest>
0.00766295 

> <ConfTolerance>
0.195695 

> <RosettaParamsInstructions>
M  ROOT 3
M  POLY_N_BB 3
M  POLY_CA_BB 4
M  POLY_C_BB 2
M  POLY_O_BB 5
M  POLY_IGNORE 9 10 11 12 13 14 15 16 17 18 
M  POLY_UPPER 6
M  POLY_LOWER 8
M  POLY_CHG 0
M  POLY_PROPERTIES ALPHA_AA L_AA PROTEIN AROMATIC POLYMER 
M  END

$$$$



 34 34  0  0  0  0  0  0  0  0999 V2000
   -2.5672    1.2697    0.3670 H   0  0  0  1  0  0  0  0  0  0  0  0
   -0.9014    0.2459    1.0999 C   0  0  0  1  0  0  0  0  0  0  0  0
   -2.9089    1.0099    2.3635 N   0  0  0  1  0  0  0  0  0  0  0  0
   -1.9917    1.2902    1.2689 C   0  0  0  1  0  0  0  0  0  0  0  0
   -0.4616   -0.1123    0.0198 O   0  0  0  1  0  0  0  0  0  0  0  0
   -0.4231   -0.2870    2.2279 N   0  0  0  1  0  0  0  0  0  0  0  0
   -2.9659    1.6454    3.1073 H   0  0  0  1  0  0  0  0  0  0  0  0
   -3.7051   -0.1249    2.3905 C   0  0  0  1  0  0  0  0  0  0  0  0
    0.6289   -1.2926    2.2276 C   0  0  0  1  0  0  0  0  0  0  0  0
   -4.5894   -0.3686    3.5811 C   0  0  0  1  0  0  0  0  0  0  0  0
   -3.6610   -0.8898    1.4442 O   0  0  0  1  0  0  0  0  0  0  0  0
   -0.7936    0.0096    3.0853 H   0  0  0  1  0  0  0  0  0  0  0  0
    1.2694   -1.1392    1.3844 H   0  0  0  1  0  0  0  0  0  0  0  0
    0.1905   -2.2670    2.1696 H   0  0  0  1  0  0  0  0  0  0  0  0
    1.2001   -1.2111    3.1287 H   0  0  0  1  0  0  0  0  0  0  0  0
   -5.5592    0.0439    3.3961 H   0  0  0  1  0  0  0  0  0  0  0  0
   -4.1622    0.0983    4.4439 H   0  0  0  1  0  0  0  0  0  0  0  0
   -4.6764   -1.4215    3.7509 H   0  0  0  1  0  0  0  0  0  0  0  0
   -5.4548    6.7372    1.0070 N   0  3  0  1  0  0  0  0  0  0  0  0
   -6.1108    6.9075    1.9852 O   0  0  0  1  0  0  0  0  0  0  0  0
   -5.6253    7.4322   -0.1258 O   0  5  0  1  0  0  0  0  0  0  0  0
   -4.4247    5.7317    1.0439 C   0  0  0  1  0  0  0  0  0  0  0  0
   -3.6266    5.4530   -0.0496 C   0  0  0  1  0  0  0  0  0  0  0  0
   -2.6447    4.4786    0.0391 C   0  0  0  1  0  0  0  0  0  0  0  0
   -2.4674    3.7819    1.2196 C   0  0  0  1  0  0  0  0  0  0  0  0
   -3.2677    4.0613    2.3163 C   0  0  0  1  0  0  0  0  0  0  0  0
   -4.2466    5.0328    2.2277 C   0  0  0  1  0  0  0  0  0  0  0  0
   -1.4186    2.7060    1.3742 C   0  0  0  1  0  0  0  0  0  0  0  0
   -3.7628    5.9745   -0.9391 H   0  0  0  1  0  0  0  0  0  0  0  0
   -2.0415    4.2717   -0.7825 H   0  0  0  1  0  0  0  0  0  0  0  0
   -3.1315    3.5398    3.2058 H   0  0  0  1  0  0  0  0  0  0  0  0
   -4.8498    5.2397    3.0493 H   0  0  0  1  0  0  0  0  0  0  0  0
   -0.6838    2.8339    0.6069 H   0  0  0  1  0  0  0  0  0  0  0  0
   -0.9566    2.8160    2.3330 H   0  0  0  1  0  0  0  0  0  0  0  0
  1  4  1  0  0  0  0
  2  4  1  0  0  0  0
  2  5  2  0  0  0  0
  2  6  1  0  0  0  0
  3  4  1  0  0  0  0
  3  7  1  0  0  0  0
  3  8  1  0  0  0  0
  4 28  1  0  0  0  0
  6  9  1  0  0  0  0
  6 12  1  0  0  0  0
  8 10  1  0  0  0  0
  8 11  2  0  0  0  0
  9 13  1  0  0  0  0
  9 14  1  0  0  0  0
  9 15  1  0  0  0  0
 10 16  1  0  0  0  0
 10 17  1  0  0  0  0
 10 18  1  0  0  0  0
 19 20  2  0  0  0  0
 19 21  1  0  0  0  0
 19 22  1  0  0  0  0
 22 23  4  0  0  0  0
 22 27  4  0  0  0  0
 23 24  4  0  0  0  0
 23 29  1  0  0  0  0
 24 25  4  0  0  0  0
 24 30  1  0  0  0  0
 25 26  4  0  0  0  0
 25 28  1  0  0  0  0
 26 27  4  0  0  0  0
 26 31  1  0  0  0  0
 27 32  1  0  0  0  0
 28 33  1  0  0  0  0
 28 34  1  0  0  0  0
M  END
> <BCLConfClusterSize>
1

> <ConfClashScore>
0 

> <ConfOneFourInteractionScore>
-0.960318 

> <ConfScore>
-0.299057 

> <ConfScorePBest>
0.00763447 

> <ConfTolerance>
0.189447 

> <RosettaParamsInstructions>
M  ROOT 3
M  POLY_N_BB 3
M  POLY_CA_BB 4
M  POLY_C_BB 2
M  POLY_O_BB 5
M  POLY_IGNORE 9 10 11 12 13 14 15 16 17 18 
M  POLY_UPPER 6
M  POLY_LOWER 8
M  POLY_CHG 0
M  POLY_PROPERTIES ALPHA_AA L_AA PROTEIN AROMATIC POLYMER 
M  END

$$$$



 34 34  0  0  0  0  0  0  0  0999 V2000
   -2.2698    1.3703   -0.0641 H   0  0  0  1  0  0  0  0  0  0  0  0
   -0.7974    0.2885    0.9463 C   0  0  0  1  0  0  0  0  0  0  0  0
   -3.0419    0.9747    1.7841 N   0  0  0  1  0  0  0  0  0  0  0  0
   -1.9080    1.3251    0.9419 C   0  0  0  1  0  0  0  0  0  0  0  0
   -0.0968    0.0782   -0.0301 O   0  0  0  1  0  0  0  0  0  0  0  0
   -0.5757   -0.4209    2.0565 N   0  0  0  1  0  0  0  0  0  0  0  0
   -3.2229    1.5139    2.5822 H   0  0  0  1  0  0  0  0  0  0  0  0
   -3.8448   -0.0567    1.5072 C   0  0  0  1  0  0  0  0  0  0  0  0
    0.5374   -1.3508    2.1755 C   0  0  0  1  0  0  0  0  0  0  0  0
   -4.9550   -0.3143    2.5073 C   0  0  0  1  0  0  0  0  0  0  0  0
   -3.7088   -0.7574    0.5178 O   0  0  0  1  0  0  0  0  0  0  0  0
   -1.1838   -0.3113    2.8171 H   0  0  0  1  0  0  0  0  0  0  0  0
    0.7137   -1.8198    1.2301 H   0  0  0  1  0  0  0  0  0  0  0  0
    0.3019   -2.0971    2.9052 H   0  0  0  1  0  0  0  0  0  0  0  0
    1.4151   -0.8191    2.4788 H   0  0  0  1  0  0  0  0  0  0  0  0
   -4.8007   -1.2640    2.9755 H   0  0  0  1  0  0  0  0  0  0  0  0
   -5.8977   -0.3155    2.0010 H   0  0  0  1  0  0  0  0  0  0  0  0
   -4.9501    0.4548    3.2512 H   0  0  0  1  0  0  0  0  0  0  0  0
   -5.4382    6.7299    1.0071 N   0  3  0  1  0  0  0  0  0  0  0  0
   -6.1776    7.1776    1.8250 O   0  0  0  1  0  0  0  0  0  0  0  0
   -5.5497    7.2515   -0.2222 O   0  5  0  1  0  0  0  0  0  0  0  0
   -4.4391    5.7160    1.1201 C   0  0  0  1  0  0  0  0  0  0  0  0
   -3.6547    5.4732    0.0084 C   0  0  0  1  0  0  0  0  0  0  0  0
   -2.6639    4.5049    0.0571 C   0  0  0  1  0  0  0  0  0  0  0  0
   -2.4641    3.7786    1.2159 C   0  0  0  1  0  0  0  0  0  0  0  0
   -3.2507    4.0220    2.3309 C   0  0  0  1  0  0  0  0  0  0  0  0
   -4.2385    4.9874    2.2822 C   0  0  0  1  0  0  0  0  0  0  0  0
   -1.3886    2.7193    1.2679 C   0  0  0  1  0  0  0  0  0  0  0  0
   -3.8078    6.0170   -0.8648 H   0  0  0  1  0  0  0  0  0  0  0  0
   -2.0710    4.3250   -0.7782 H   0  0  0  1  0  0  0  0  0  0  0  0
   -3.0976    3.4782    3.2041 H   0  0  0  1  0  0  0  0  0  0  0  0
   -4.8314    5.1673    3.1175 H   0  0  0  1  0  0  0  0  0  0  0  0
   -0.6265    2.9727    0.5608 H   0  0  0  1  0  0  0  0  0  0  0  0
   -0.9714    2.7056    2.2531 H   0  0  0  1  0  0  0  0  0  0  0  0
  1  4  1  0  0  0  0
  2  4  1  0  0  0  0
  2  5  2  0  0  0  0
  2  6  1  0  0  0  0
  3  4  1  0  0  0  0
  3  7  1  0  0  0  0
  3  8  1  0  0  0  0
  4 28  1  0  0  0  0
  6  9  1  0  0  0  0
  6 12  1  0  0  0  0
  8 10  1  0  0  0  0
  8 11  2  0  0  0  0
  9 13  1  0  0  0  0
  9 14  1  0  0  0  0
  9 15  1  0  0  0  0
 10 16  1  0  0  0  0
 10 17  1  0  0  0  0
 10 18  1  0  0  0  0
 19 20  2  0  0  0  0
 19 21  1  0  0  0  0
 19 22  1  0  0  0  0
 22 23  4  0  0  0  0
 22 27  4  0  0  0  0
 23 24  4  0  0  0  0
 23 29  1  0  0  0  0
 24 25  4  0  0  0  0
 24 30  1  0  0  0  0
 25 26  4  0  0  0  0
 25 28  1  0  0  0  0
 26 27  4  0  0  0  0
 26 31  1  0  0  0  0
 27 32  1  0  0  0  0
 28 33  1  0  0  0  0
 28 34  1  0  0  0  0
M  END
> <BCLConfClusterSize>
1

> <ConfClashScore>
0 

> <ConfOneFourInteractionScore>
-0.960318 

> <ConfScore>
-0.297064 

> <ConfScorePBest>
0.00760599 

> <ConfTolerance>
0.220403 

> <RosettaParamsInstructions>
M  ROOT 3
M  POLY_N_BB 3
M  POLY_CA_BB 4
M  POLY_C_BB 2
M  POLY_O_BB 5
M  POLY_IGNORE 9 10 11 12 13 14 15 16 17 18 
M  POLY_UPPER 6
M  POLY_LOWER 8
M  POLY_CHG 0
M  POLY_PROPERTIES ALPHA_AA L_AA PROTEIN AROMATIC POLYMER 
M  END

$$$$



 34 34  0  0  0  0  0  0  0  0999 V2000
   -0.3153    3.6675    2.8270 H   0  0  0  1  0  0  0  0  0  0  0  0
    0.9456    2.2021    2.0126 C   0  0  0  1  0  0  0  0  0  0  0  0
    0.3591    4.3860    1.0211 N   0  0  0  1  0  0  0  0  0  0  0  0
   -0.0995    3.2828    1.8521 C   0  0  0  1  0  0  0  0  0  0  0  0
    1.6469    1.8565    1.0627 O   0  0  0  1  0  0  0  0  0  0  0  0
    1.0842    1.6327    3.2204 N   0  0  0  1  0  0  0  0  0  0  0  0
    0.6813    4.1716    0.1207 H   0  0  0  1  0  0  0  0  0  0  0  0
    0.3740    5.6691    1.3932 C   0  0  0  1  0  0  0  0  0  0  0  0
    2.0513    0.5753    3.4749 C   0  0  0  1  0  0  0  0  0  0  0  0
    0.9144    6.6463    0.3674 C   0  0  0  1  0  0  0  0  0  0  0  0
   -0.0180    6.0490    2.4843 O   0  0  0  1  0  0  0  0  0  0  0  0
    0.5144    1.9397    3.9562 H   0  0  0  1  0  0  0  0  0  0  0  0
    2.1301   -0.0520    2.6117 H   0  0  0  1  0  0  0  0  0  0  0  0
    1.7290   -0.0085    4.3117 H   0  0  0  1  0  0  0  0  0  0  0  0
    3.0058    1.0092    3.6885 H   0  0  0  1  0  0  0  0  0  0  0  0
    0.6224    6.3327   -0.6131 H   0  0  0  1  0  0  0  0  0  0  0  0
    1.9823    6.6739    0.4295 H   0  0  0  1  0  0  0  0  0  0  0  0
    0.5200    7.6217    0.5618 H   0  0  0  1  0  0  0  0  0  0  0  0
   -5.4233    6.7655    0.9446 N   0  3  0  1  0  0  0  0  0  0  0  0
   -5.4724    7.3958   -0.0636 O   0  0  0  1  0  0  0  0  0  0  0  0
   -6.2986    6.8978    1.9507 O   0  5  0  1  0  0  0  0  0  0  0  0
   -4.4168    5.7408    1.0466 C   0  0  0  1  0  0  0  0  0  0  0  0
   -3.6044    5.4623   -0.0364 C   0  0  0  1  0  0  0  0  0  0  0  0
   -2.6313    4.4799    0.0614 C   0  0  0  1  0  0  0  0  0  0  0  0
   -2.4771    3.7752    1.2404 C   0  0  0  1  0  0  0  0  0  0  0  0
   -3.2918    4.0544    2.3266 C   0  0  0  1  0  0  0  0  0  0  0  0
   -4.2619    5.0339    2.2289 C   0  0  0  1  0  0  0  0  0  0  0  0
   -1.4057    2.7117    1.2911 C   0  0  0  1  0  0  0  0  0  0  0  0
   -3.7232    5.9899   -0.9247 H   0  0  0  1  0  0  0  0  0  0  0  0
   -2.0174    4.2732   -0.7522 H   0  0  0  1  0  0  0  0  0  0  0  0
   -3.1730    3.5268    3.2150 H   0  0  0  1  0  0  0  0  0  0  0  0
   -4.8758    5.2406    3.0425 H   0  0  0  1  0  0  0  0  0  0  0  0
   -1.7362    1.9104    1.9184 H   0  0  0  1  0  0  0  0  0  0  0  0
   -1.2310    2.3424    0.3021 H   0  0  0  1  0  0  0  0  0  0  0  0
  1  4  1  0  0  0  0
  2  4  1  0  0  0  0
  2  5  2  0  0  0  0
  2  6  1  0  0  0  0
  3  4  1  0  0  0  0
  3  7  1  0  0  0  0
  3  8  1  0  0  0  0
  4 28  1  0  0  0  0
  6  9  1  0  0  0  0
  6 12  1  0  0  0  0
  8 10  1  0  0  0  0
  8 11  2  0  0  0  0
  9 13  1  0  0  0  0
  9 14  1  0  0  0  0
  9 15  1  0  0  0  0
 10 16  1  0  0  0  0
 10 17  1  0  0  0  0
 10 18  1  0  0  0  0
 19 20  2  0  0  0  0
 19 21  1  0  0  0  0
 19 22  1  0  0  0  0
 22 23  4  0  0  0  0
 22 27  4  0  0  0  0
 23 24  4  0  0  0  0
 23 29  1  0  0  0  0
 24 25  4  0  0  0  0
 24 30  1  0  0  0  0
 25 26  4  0  0  0  0
 25 28  1  0  0  0  0
 26 27  4  0  0  0  0
 26 31  1  0  0  0  0
 27 32  1  0  0  0  0
 28 33  1  0  0  0  0
 28 34  1  0  0  0  0
M  END
> <BCLConfClusterSize>
1

> <ConfClashScore>
0 

> <ConfOneFourInteractionScore>
-0.990503 

> <ConfScore>
-0.295197 

> <ConfScorePBest>
0.00757751 

> <ConfTolerance>
0.226375 

> <RosettaParamsInstructions>
M  ROOT 3
M  POLY_N_BB 3
M  POLY_CA_BB 4
M  POLY_C_BB 2
M  POLY_O_BB 5
M  POLY_IGNORE 9 10 11 12 13 14 15 16 17 18 
M  POLY_UPPER 6
M  POLY_LOWER 8
M  POLY_CHG 0
M  POLY_PROPERTIES ALPHA_AA L_AA PROTEIN AROMATIC POLYMER 
M  END

$$$$



 34 34  0  0  0  0  0  0  0  0999 V2000
   -2.2614    1.5561   -0.2105 H   0  0  0  1  0  0  0  0  0  0  0  0
   -0.6801    0.4275    0.6073 C   0  0  0  1  0  0  0  0  0  0  0  0
   -2.8911    0.6930    1.5434 N   0  0  0  1  0  0  0  0  0  0  0  0
   -1.8680    1.3795    0.7688 C   0  0  0  1  0  0  0  0  0  0  0  0
    0.1412    0.5842   -0.2952 O   0  0  0  1  0  0  0  0  0  0  0  0
   -0.5429   -0.5187    1.5497 N   0  0  0  1  0  0  0  0  0  0  0  0
   -3.2240    1.1390    2.3500 H   0  0  0  1  0  0  0  0  0  0  0  0
   -3.4106   -0.4993    1.2376 C   0  0  0  1  0  0  0  0  0  0  0  0
    0.4690   -1.5611    1.4632 C   0  0  0  1  0  0  0  0  0  0  0  0
   -4.5802   -0.9546    2.1046 C   0  0  0  1  0  0  0  0  0  0  0  0
   -2.9861   -1.1994    0.3193 O   0  0  0  1  0  0  0  0  0  0  0  0
   -1.1451   -0.5071    2.3227 H   0  0  0  1  0  0  0  0  0  0  0  0
    1.3056   -1.2010    0.9017 H   0  0  0  1  0  0  0  0  0  0  0  0
    0.0557   -2.4195    0.9760 H   0  0  0  1  0  0  0  0  0  0  0  0
    0.7896   -1.8292    2.4482 H   0  0  0  1  0  0  0  0  0  0  0  0
   -5.4297   -1.1504    1.4842 H   0  0  0  1  0  0  0  0  0  0  0  0
   -4.8224   -0.1860    2.8085 H   0  0  0  1  0  0  0  0  0  0  0  0
   -4.3088   -1.8468    2.6293 H   0  0  0  1  0  0  0  0  0  0  0  0
   -5.4056    6.7510    0.8873 N   0  3  0  1  0  0  0  0  0  0  0  0
   -5.4276    7.3659   -0.1313 O   0  0  0  1  0  0  0  0  0  0  0  0
   -6.2134    6.8900    1.9474 O   0  5  0  1  0  0  0  0  0  0  0  0
   -4.4412    5.7363    1.0763 C   0  0  0  1  0  0  0  0  0  0  0  0
   -3.6399    5.4735   -0.0187 C   0  0  0  1  0  0  0  0  0  0  0  0
   -2.6564    4.4997    0.0597 C   0  0  0  1  0  0  0  0  0  0  0  0
   -2.4808    3.7879    1.2314 C   0  0  0  1  0  0  0  0  0  0  0  0
   -3.2843    4.0515    2.3297 C   0  0  0  1  0  0  0  0  0  0  0  0
   -4.2648    5.0224    2.2513 C   0  0  0  1  0  0  0  0  0  0  0  0
   -1.4133    2.7227    1.3158 C   0  0  0  1  0  0  0  0  0  0  0  0
   -3.7748    6.0063   -0.9016 H   0  0  0  1  0  0  0  0  0  0  0  0
   -2.0509    4.3047   -0.7630 H   0  0  0  1  0  0  0  0  0  0  0  0
   -3.1494    3.5187    3.2126 H   0  0  0  1  0  0  0  0  0  0  0  0
   -4.8704    5.2174    3.0741 H   0  0  0  1  0  0  0  0  0  0  0  0
   -0.5621    3.0483    0.7550 H   0  0  0  1  0  0  0  0  0  0  0  0
   -1.1380    2.5969    2.3421 H   0  0  0  1  0  0  0  0  0  0  0  0
  1  4  1  0  0  0  0
  2  4  1  0  0  0  0
  2  5  2  0  0  0  0
  2  6  1  0  0  0  0
  3  4  1  0  0  0  0
  3  7  1  0  0  0  0
  3  8  1  0  0  0  0
  4 28  1  0  0  0  0
  6  9  1  0  0  0  0
  6 12  1  0  0  0  0
  8 10  1  0  0  0  0
  8 11  2  0  0  0  0
  9 13  1  0  0  0  0
  9 14  1  0  0  0  0
  9 15  1  0  0  0  0
 10 16  1  0  0  0  0
 10 17  1  0  0  0  0
 10 18  1  0  0  0  0
 19 20  2  0  0  0  0
 19 21  1  0  0  0  0
 19 22  1  0  0  0  0
 22 23  4  0  0  0  0
 22 27  4  0  0  0  0
 23 24  4  0  0  0  0
 23 29  1  0  0  0  0
 24 25  4  0  0  0  0
 24 30  1  0  0  0  0
 25 26  4  0  0  0  0
 25 28  1  0  0  0  0
 26 27  4  0  0  0  0
 26 31  1  0  0  0  0
 27 32  1  0  0  0  0
 28 33  1  0  0  0  0
 28 34  1  0  0  0  0
M  END
> <BCLConfClusterSize>
1

> <ConfClashScore>
0 

> <ConfOneFourInteractionScore>
-0.94165 

> <ConfScore>
-0.293745 

> <ConfScorePBest>
0.00754903 

> <ConfTolerance>
0.216436 

> <RosettaParamsInstructions>
M  ROOT 3
M  POLY_N_BB 3
M  POLY_CA_BB 4
M  POLY_C_BB 2
M  POLY_O_BB 5
M  POLY_IGNORE 9 10 11 12 13 14 15 16 17 18 
M  POLY_UPPER 6
M  POLY_LOWER 8
M  POLY_CHG 0
M  POLY_PROPERTIES ALPHA_AA L_AA PROTEIN AROMATIC POLYMER 
M  END

$$$$



 34 34  0  0  0  0  0  0  0  0999 V2000
   -0.0215    4.0404    2.2323 H   0  0  0  1  0  0  0  0  0  0  0  0
    0.9867    2.2104    1.9412 C   0  0  0  1  0  0  0  0  0  0  0  0
    0.5024    3.8762    0.2462 N   0  0  0  1  0  0  0  0  0  0  0  0
    0.0068    3.2815    1.4785 C   0  0  0  1  0  0  0  0  0  0  0  0
    1.7740    1.6757    1.1819 O   0  0  0  1  0  0  0  0  0  0  0  0
    0.9861    1.8410    3.2252 N   0  0  0  1  0  0  0  0  0  0  0  0
    0.6646    3.2775   -0.5126 H   0  0  0  1  0  0  0  0  0  0  0  0
    0.7526    5.1748    0.0716 C   0  0  0  1  0  0  0  0  0  0  0  0
    1.8279    0.7640    3.7246 C   0  0  0  1  0  0  0  0  0  0  0  0
    1.3000    5.5632   -1.2881 C   0  0  0  1  0  0  0  0  0  0  0  0
    0.5580    6.0180    0.9461 O   0  0  0  1  0  0  0  0  0  0  0  0
    0.3984    2.3116    3.8525 H   0  0  0  1  0  0  0  0  0  0  0  0
    1.6633   -0.1178    3.1413 H   0  0  0  1  0  0  0  0  0  0  0  0
    1.5836    0.5657    4.7473 H   0  0  0  1  0  0  0  0  0  0  0  0
    2.8558    1.0524    3.6523 H   0  0  0  1  0  0  0  0  0  0  0  0
    2.2968    5.1883   -1.3922 H   0  0  0  1  0  0  0  0  0  0  0  0
    1.3091    6.6294   -1.3773 H   0  0  0  1  0  0  0  0  0  0  0  0
    0.6805    5.1459   -2.0542 H   0  0  0  1  0  0  0  0  0  0  0  0
   -5.4434    6.7424    0.9616 N   0  3  0  1  0  0  0  0  0  0  0  0
   -5.6784    7.2705   -0.0785 O   0  0  0  1  0  0  0  0  0  0  0  0
   -6.1101    7.0648    2.0784 O   0  5  0  1  0  0  0  0  0  0  0  0
   -4.4174    5.7335    1.0181 C   0  0  0  1  0  0  0  0  0  0  0  0
   -3.6175    5.4335   -0.0684 C   0  0  0  1  0  0  0  0  0  0  0  0
   -2.6398    4.4567    0.0392 C   0  0  0  1  0  0  0  0  0  0  0  0
   -2.4686    3.7790    1.2316 C   0  0  0  1  0  0  0  0  0  0  0  0
   -3.2709    4.0797    2.3213 C   0  0  0  1  0  0  0  0  0  0  0  0
   -4.2456    5.0536    2.2138 C   0  0  0  1  0  0  0  0  0  0  0  0
   -1.4074    2.7104    1.3479 C   0  0  0  1  0  0  0  0  0  0  0  0
   -3.7490    5.9408   -0.9668 H   0  0  0  1  0  0  0  0  0  0  0  0
   -2.0352    4.2339   -0.7771 H   0  0  0  1  0  0  0  0  0  0  0  0
   -3.1393    3.5725    3.2196 H   0  0  0  1  0  0  0  0  0  0  0  0
   -4.8501    5.2765    3.0301 H   0  0  0  1  0  0  0  0  0  0  0  0
   -1.6159    2.1162    2.2130 H   0  0  0  1  0  0  0  0  0  0  0  0
   -1.4468    2.0948    0.4737 H   0  0  0  1  0  0  0  0  0  0  0  0
  1  4  1  0  0  0  0
  2  4  1  0  0  0  0
  2  5  2  0  0  0  0
  2  6  1  0  0  0  0
  3  4  1  0  0  0  0
  3  7  1  0  0  0  0
  3  8  1  0  0  0  0
  4 28  1  0  0  0  0
  6  9  1  0  0  0  0
  6 12  1  0  0  0  0
  8 10  1  0  0  0  0
  8 11  2  0  0  0  0
  9 13  1  0  0  0  0
  9 14  1  0  0  0  0
  9 15  1  0  0  0  0
 10 16  1  0  0  0  0
 10 17  1  0  0  0  0
 10 18  1  0  0  0  0
 19 20  2  0  0  0  0
 19 21  1  0  0  0  0
 19 22  1  0  0  0  0
 22 23  4  0  0  0  0
 22 27  4  0  0  0  0
 23 24  4  0  0  0  0
 23 29  1  0  0  0  0
 24 25  4  0  0  0  0
 24 30  1  0  0  0  0
 25 26  4  0  0  0  0
 25 28  1  0  0  0  0
 26 27  4  0  0  0  0
 26 31  1  0  0  0  0
 27 32  1  0  0  0  0
 28 33  1  0  0  0  0
 28 34  1  0  0  0  0
M  END
> <BCLConfClusterSize>
1

> <ConfClashScore>
0 

> <ConfOneFourInteractionScore>
-0.986627 

> <ConfScore>
-0.293238 

> <ConfScorePBest>
0.00752055 

> <ConfTolerance>
0.223608 

> <RosettaParamsInstructions>
M  ROOT 3
M  POLY_N_BB 3
M  POLY_CA_BB 4
M  POLY_C_BB 2
M  POLY_O_BB 5
M  POLY_IGNORE 9 10 11 12 13 14 15 16 17 18 
M  POLY_UPPER 6
M  POLY_LOWER 8
M  POLY_CHG 0
M  POLY_PROPERTIES ALPHA_AA L_AA PROTEIN AROMATIC POLYMER 
M  END

$$$$



 34 34  0  0  0  0  0  0  0  0999 V2000
   -1.0795    2.9169    3.4103 H   0  0  0  1  0  0  0  0  0  0  0  0
    0.5583    1.8580    2.5967 C   0  0  0  1  0  0  0  0  0  0  0  0
    0.1278    4.2944    2.4716 N   0  0  0  1  0  0  0  0  0  0  0  0
   -0.4815    2.9770    2.5250 C   0  0  0  1  0  0  0  0  0  0  0  0
    0.3814    0.8013    3.1730 O   0  0  0  1  0  0  0  0  0  0  0  0
    1.7169    2.0966    1.9756 N   0  0  0  1  0  0  0  0  0  0  0  0
    0.0542    4.7939    1.6316 H   0  0  0  1  0  0  0  0  0  0  0  0
    0.7801    4.8756    3.4796 C   0  0  0  1  0  0  0  0  0  0  0  0
    2.8312    1.1617    2.0228 C   0  0  0  1  0  0  0  0  0  0  0  0
    1.3015    6.2686    3.2082 C   0  0  0  1  0  0  0  0  0  0  0  0
    0.9559    4.3287    4.5675 O   0  0  0  1  0  0  0  0  0  0  0  0
    1.8199    2.9302    1.4707 H   0  0  0  1  0  0  0  0  0  0  0  0
    2.4578    0.1672    2.1511 H   0  0  0  1  0  0  0  0  0  0  0  0
    3.4710    1.4109    2.8434 H   0  0  0  1  0  0  0  0  0  0  0  0
    3.3840    1.2197    1.1085 H   0  0  0  1  0  0  0  0  0  0  0  0
    0.5435    6.8449    2.7201 H   0  0  0  1  0  0  0  0  0  0  0  0
    2.1650    6.2097    2.5791 H   0  0  0  1  0  0  0  0  0  0  0  0
    1.5650    6.7370    4.1335 H   0  0  0  1  0  0  0  0  0  0  0  0
   -5.4544    6.7377    1.0049 N   0  3  0  1  0  0  0  0  0  0  0  0
   -6.1110    6.9116    1.9820 O   0  0  0  1  0  0  0  0  0  0  0  0
   -5.6233    7.4296   -0.1301 O   0  5  0  1  0  0  0  0  0  0  0  0
   -4.4252    5.7314    1.0457 C   0  0  0  1  0  0  0  0  0  0  0  0
   -3.6251    5.4502   -0.0457 C   0  0  0  1  0  0  0  0  0  0  0  0
   -2.6442    4.4750    0.0467 C   0  0  0  1  0  0  0  0  0  0  0  0
   -2.4700    3.7803    1.2288 C   0  0  0  1  0  0  0  0  0  0  0  0
   -3.2723    4.0622    2.3234 C   0  0  0  1  0  0  0  0  0  0  0  0
   -4.2502    5.0345    2.2311 C   0  0  0  1  0  0  0  0  0  0  0  0
   -1.4053    2.7135    1.3285 C   0  0  0  1  0  0  0  0  0  0  0  0
   -3.7590    5.9702   -0.9364 H   0  0  0  1  0  0  0  0  0  0  0  0
   -2.0396    4.2662   -0.7732 H   0  0  0  1  0  0  0  0  0  0  0  0
   -3.1384    3.5422    3.2141 H   0  0  0  1  0  0  0  0  0  0  0  0
   -4.8549    5.2433    3.0511 H   0  0  0  1  0  0  0  0  0  0  0  0
   -1.8746    1.7598    1.4511 H   0  0  0  1  0  0  0  0  0  0  0  0
   -0.8241    2.7128    0.4301 H   0  0  0  1  0  0  0  0  0  0  0  0
  1  4  1  0  0  0  0
  2  4  1  0  0  0  0
  2  5  2  0  0  0  0
  2  6  1  0  0  0  0
  3  4  1  0  0  0  0
  3  7  1  0  0  0  0
  3  8  1  0  0  0  0
  4 28  1  0  0  0  0
  6  9  1  0  0  0  0
  6 12  1  0  0  0  0
  8 10  1  0  0  0  0
  8 11  2  0  0  0  0
  9 13  1  0  0  0  0
  9 14  1  0  0  0  0
  9 15  1  0  0  0  0
 10 16  1  0  0  0  0
 10 17  1  0  0  0  0
 10 18  1  0  0  0  0
 19 20  2  0  0  0  0
 19 21  1  0  0  0  0
 19 22  1  0  0  0  0
 22 23  4  0  0  0  0
 22 27  4  0  0  0  0
 23 24  4  0  0  0  0
 23 29  1  0  0  0  0
 24 25  4  0  0  0  0
 24 30  1  0  0  0  0
 25 26  4  0  0  0  0
 25 28  1  0  0  0  0
 26 27  4  0  0  0  0
 26 31  1  0  0  0  0
 27 32  1  0  0  0  0
 28 33  1  0  0  0  0
 28 34  1  0  0  0  0
M  END
> <BCLConfClusterSize>
1

> <ConfClashScore>
0 

> <ConfOneFourInteractionScore>
-0.960318 

> <ConfScore>
-0.292896 

> <ConfScorePBest>
0.00749207 

> <ConfTolerance>
0.180535 

> <RosettaParamsInstructions>
M  ROOT 3
M  POLY_N_BB 3
M  POLY_CA_BB 4
M  POLY_C_BB 2
M  POLY_O_BB 5
M  POLY_IGNORE 9 10 11 12 13 14 15 16 17 18 
M  POLY_UPPER 6
M  POLY_LOWER 8
M  POLY_CHG 0
M  POLY_PROPERTIES ALPHA_AA L_AA PROTEIN AROMATIC POLYMER 
M  END

$$$$



 34 34  0  0  0  0  0  0  0  0999 V2000
   -1.7284    1.9466   -0.6550 H   0  0  0  1  0  0  0  0  0  0  0  0
   -0.4543    0.6010    0.4049 C   0  0  0  1  0  0  0  0  0  0  0  0
   -2.8690    0.8949    0.7333 N   0  0  0  1  0  0  0  0  0  0  0  0
   -1.6398    1.5632    0.3400 C   0  0  0  1  0  0  0  0  0  0  0  0
    0.5768    0.8286   -0.2223 O   0  0  0  1  0  0  0  0  0  0  0  0
   -0.5744   -0.4973    1.1662 N   0  0  0  1  0  0  0  0  0  0  0  0
   -3.3646    1.2336    1.5079 H   0  0  0  1  0  0  0  0  0  0  0  0
   -3.3469   -0.1653    0.0754 C   0  0  0  1  0  0  0  0  0  0  0  0
    0.5280   -1.4249    1.3719 C   0  0  0  1  0  0  0  0  0  0  0  0
   -4.5989   -0.8451    0.6183 C   0  0  0  1  0  0  0  0  0  0  0  0
   -2.8368   -0.6273   -0.9443 O   0  0  0  1  0  0  0  0  0  0  0  0
   -1.4343   -0.6813    1.5988 H   0  0  0  1  0  0  0  0  0  0  0  0
    1.2520   -1.2972    0.5944 H   0  0  0  1  0  0  0  0  0  0  0  0
    0.1576   -2.4285    1.3527 H   0  0  0  1  0  0  0  0  0  0  0  0
    0.9849   -1.2308    2.3198 H   0  0  0  1  0  0  0  0  0  0  0  0
   -5.0874   -0.1928    1.3118 H   0  0  0  1  0  0  0  0  0  0  0  0
   -4.3250   -1.7524    1.1149 H   0  0  0  1  0  0  0  0  0  0  0  0
   -5.2632   -1.0671   -0.1906 H   0  0  0  1  0  0  0  0  0  0  0  0
   -5.4445    6.7447    0.9590 N   0  3  0  1  0  0  0  0  0  0  0  0
   -5.6619    7.2646   -0.0891 O   0  0  0  1  0  0  0  0  0  0  0  0
   -6.1037    7.0502    2.0849 O   0  5  0  1  0  0  0  0  0  0  0  0
   -4.4195    5.7350    1.0193 C   0  0  0  1  0  0  0  0  0  0  0  0
   -3.6174    5.4326   -0.0649 C   0  0  0  1  0  0  0  0  0  0  0  0
   -2.6408    4.4552    0.0464 C   0  0  0  1  0  0  0  0  0  0  0  0
   -2.4728    3.7793    1.2402 C   0  0  0  1  0  0  0  0  0  0  0  0
   -3.2772    4.0824    2.3277 C   0  0  0  1  0  0  0  0  0  0  0  0
   -4.2508    5.0569    2.2165 C   0  0  0  1  0  0  0  0  0  0  0  0
   -1.3981    2.7198    1.3054 C   0  0  0  1  0  0  0  0  0  0  0  0
   -3.7466    5.9385   -0.9644 H   0  0  0  1  0  0  0  0  0  0  0  0
   -2.0346    4.2305   -0.7682 H   0  0  0  1  0  0  0  0  0  0  0  0
   -3.1480    3.5765    3.2271 H   0  0  0  1  0  0  0  0  0  0  0  0
   -4.8570    5.2816    3.0311 H   0  0  0  1  0  0  0  0  0  0  0  0
   -0.4586    3.1726    1.0661 H   0  0  0  1  0  0  0  0  0  0  0  0
   -1.3637    2.3305    2.3015 H   0  0  0  1  0  0  0  0  0  0  0  0
  1  4  1  0  0  0  0
  2  4  1  0  0  0  0
  2  5  2  0  0  0  0
  2  6  1  0  0  0  0
  3  4  1  0  0  0  0
  3  7  1  0  0  0  0
  3  8  1  0  0  0  0
  4 28  1  0  0  0  0
  6  9  1  0  0  0  0
  6 12  1  0  0  0  0
  8 10  1  0  0  0  0
  8 11  2  0  0  0  0
  9 13  1  0  0  0  0
  9 14  1  0  0  0  0
  9 15  1  0  0  0  0
 10 16  1  0  0  0  0
 10 17  1  0  0  0  0
 10 18  1  0  0  0  0
 19 20  2  0  0  0  0
 19 21  1  0  0  0  0
 19 22  1  0  0  0  0
 22 23  4  0  0  0  0
 22 27  4  0  0  0  0
 23 24  4  0  0  0  0
 23 29  1  0  0  0  0
 24 25  4  0  0  0  0
 24 30  1  0  0  0  0
 25 26  4  0  0  0  0
 25 28  1  0  0  0  0
 26 27  4  0  0  0  0
 26 31  1  0  0  0  0
 27 32  1  0  0  0  0
 28 33  1  0  0  0  0
 28 34  1  0  0  0  0
M  END
> <BCLConfClusterSize>
1

> <ConfClashScore>
0 

> <ConfOneFourInteractionScore>
-0.960318 

> <ConfScore>
-0.292085 

> <ConfScorePBest>
0.00746359 

> <ConfTolerance>
0.15497 

> <RosettaParamsInstructions>
M  ROOT 3
M  POLY_N_BB 3
M  POLY_CA_BB 4
M  POLY_C_BB 2
M  POLY_O_BB 5
M  POLY_IGNORE 9 10 11 12 13 14 15 16 17 18 
M  POLY_UPPER 6
M  POLY_LOWER 8
M  POLY_CHG 0
M  POLY_PROPERTIES ALPHA_AA L_AA PROTEIN AROMATIC POLYMER 
M  END

$$$$



 34 34  0  0  0  0  0  0  0  0999 V2000
    0.0305    3.8857    2.3499 H   0  0  0  1  0  0  0  0  0  0  0  0
    0.9652    2.0781    1.7881 C   0  0  0  1  0  0  0  0  0  0  0  0
    0.4481    3.9584    0.3249 N   0  0  0  1  0  0  0  0  0  0  0  0
    0.0150    3.2259    1.5076 C   0  0  0  1  0  0  0  0  0  0  0  0
    1.1579    1.6850    2.9379 O   0  0  0  1  0  0  0  0  0  0  0  0
    1.5881    1.5054    0.7459 N   0  0  0  1  0  0  0  0  0  0  0  0
   -0.2252    4.1507   -0.3608 H   0  0  0  1  0  0  0  0  0  0  0  0
    1.6940    4.3876    0.1046 C   0  0  0  1  0  0  0  0  0  0  0  0
    2.4609    0.3600    0.9558 C   0  0  0  1  0  0  0  0  0  0  0  0
    1.9116    5.1403   -1.1936 C   0  0  0  1  0  0  0  0  0  0  0  0
    2.6184    4.1939    0.8930 O   0  0  0  1  0  0  0  0  0  0  0  0
    1.4547    1.8593   -0.1582 H   0  0  0  1  0  0  0  0  0  0  0  0
    2.9507    0.4529    1.9025 H   0  0  0  1  0  0  0  0  0  0  0  0
    3.1941    0.3232    0.1773 H   0  0  0  1  0  0  0  0  0  0  0  0
    1.8797   -0.5383    0.9418 H   0  0  0  1  0  0  0  0  0  0  0  0
    2.2615    4.4632   -1.9447 H   0  0  0  1  0  0  0  0  0  0  0  0
    2.6387    5.9104   -1.0414 H   0  0  0  1  0  0  0  0  0  0  0  0
    0.9883    5.5783   -1.5107 H   0  0  0  1  0  0  0  0  0  0  0  0
   -5.4395    6.7479    0.9376 N   0  3  0  1  0  0  0  0  0  0  0  0
   -5.6520    7.2263   -0.1311 O   0  0  0  1  0  0  0  0  0  0  0  0
   -6.0949    7.1066    2.0499 O   0  5  0  1  0  0  0  0  0  0  0  0
   -4.4251    5.7309    1.0395 C   0  0  0  1  0  0  0  0  0  0  0  0
   -3.6323    5.4361   -0.0536 C   0  0  0  1  0  0  0  0  0  0  0  0
   -2.6517    4.4611    0.0440 C   0  0  0  1  0  0  0  0  0  0  0  0
   -2.4704    3.7802    1.2331 C   0  0  0  1  0  0  0  0  0  0  0  0
   -3.2654    4.0759    2.3294 C   0  0  0  1  0  0  0  0  0  0  0  0
   -4.2430    5.0479    2.2319 C   0  0  0  1  0  0  0  0  0  0  0  0
   -1.4060    2.7137    1.3385 C   0  0  0  1  0  0  0  0  0  0  0  0
   -3.7715    5.9456   -0.9495 H   0  0  0  1  0  0  0  0  0  0  0  0
   -2.0525    4.2421   -0.7773 H   0  0  0  1  0  0  0  0  0  0  0  0
   -3.1262    3.5663    3.2253 H   0  0  0  1  0  0  0  0  0  0  0  0
   -4.8422    5.2670    3.0533 H   0  0  0  1  0  0  0  0  0  0  0  0
   -1.6377    2.0985    2.1827 H   0  0  0  1  0  0  0  0  0  0  0  0
   -1.4403    2.1238    0.4465 H   0  0  0  1  0  0  0  0  0  0  0  0
  1  4  1  0  0  0  0
  2  4  1  0  0  0  0
  2  5  2  0  0  0  0
  2  6  1  0  0  0  0
  3  4  1  0  0  0  0
  3  7  1  0  0  0  0
  3  8  1  0  0  0  0
  4 28  1  0  0  0  0
  6  9  1  0  0  0  0
  6 12  1  0  0  0  0
  8 10  1  0  0  0  0
  8 11  2  0  0  0  0
  9 13  1  0  0  0  0
  9 14  1  0  0  0  0
  9 15  1  0  0  0  0
 10 16  1  0  0  0  0
 10 17  1  0  0  0  0
 10 18  1  0  0  0  0
 19 20  2  0  0  0  0
 19 21  1  0  0  0  0
 19 22  1  0  0  0  0
 22 23  4  0  0  0  0
 22 27  4  0  0  0  0
 23 24  4  0  0  0  0
 23 29  1  0  0  0  0
 24 25  4  0  0  0  0
 24 30  1  0  0  0  0
 25 26  4  0  0  0  0
 25 28  1  0  0  0  0
 26 27  4  0  0  0  0
 26 31  1  0  0  0  0
 27 32  1  0  0  0  0
 28 33  1  0  0  0  0
 28 34  1  0  0  0  0
M  END
> <BCLConfClusterSize>
1

> <ConfClashScore>
0 

> <ConfOneFourInteractionScore>
-0.956443 

> <ConfScore>
-0.290515 

> <ConfScorePBest>
0.0074351 

> <ConfTolerance>
0.229363 

> <RosettaParamsInstructions>
M  ROOT 3
M  POLY_N_BB 3
M  POLY_CA_BB 4
M  POLY_C_BB 2
M  POLY_O_BB 5
M  POLY_IGNORE 9 10 11 12 13 14 15 16 17 18 
M  POLY_UPPER 6
M  POLY_LOWER 8
M  POLY_CHG 0
M  POLY_PROPERTIES ALPHA_AA L_AA PROTEIN AROMATIC POLYMER 
M  END

$$$$



 34 34  0  0  0  0  0  0  0  0999 V2000
   -0.3527    3.7624    2.8591 H   0  0  0  1  0  0  0  0  0  0  0  0
    0.7801    2.0294    2.4971 C   0  0  0  1  0  0  0  0  0  0  0  0
    0.5972    4.0336    1.0481 N   0  0  0  1  0  0  0  0  0  0  0  0
   -0.1005    3.1683    2.0056 C   0  0  0  1  0  0  0  0  0  0  0  0
    1.7984    1.7017    1.8895 O   0  0  0  1  0  0  0  0  0  0  0  0
    0.3736    1.4228    3.6160 N   0  0  0  1  0  0  0  0  0  0  0  0
    0.7036    3.7266    0.1235 H   0  0  0  1  0  0  0  0  0  0  0  0
    1.1083    5.2634    1.4036 C   0  0  0  1  0  0  0  0  0  0  0  0
    1.0871    0.2919    4.1904 C   0  0  0  1  0  0  0  0  0  0  0  0
    1.6570    6.0953    0.2814 C   0  0  0  1  0  0  0  0  0  0  0  0
    1.0962    5.6164    2.5714 O   0  0  0  1  0  0  0  0  0  0  0  0
   -0.4330    1.7508    4.0656 H   0  0  0  1  0  0  0  0  0  0  0  0
    1.4328   -0.3482    3.4057 H   0  0  0  1  0  0  0  0  0  0  0  0
    0.4295   -0.2553    4.8330 H   0  0  0  1  0  0  0  0  0  0  0  0
    1.9237    0.6476    4.7547 H   0  0  0  1  0  0  0  0  0  0  0  0
    2.4478    5.5629   -0.2043 H   0  0  0  1  0  0  0  0  0  0  0  0
    2.0352    7.0166    0.6726 H   0  0  0  1  0  0  0  0  0  0  0  0
    0.8790    6.2996   -0.4242 H   0  0  0  1  0  0  0  0  0  0  0  0
   -5.4276    6.7424    0.9138 N   0  3  0  1  0  0  0  0  0  0  0  0
   -5.6815    7.1259   -0.1837 O   0  0  0  1  0  0  0  0  0  0  0  0
   -6.0256    7.2135    2.0166 O   0  5  0  1  0  0  0  0  0  0  0  0
   -4.4339    5.7278    1.0622 C   0  0  0  1  0  0  0  0  0  0  0  0
   -3.6569    5.4360   -0.0429 C   0  0  0  1  0  0  0  0  0  0  0  0
   -2.6716    4.4644    0.0394 C   0  0  0  1  0  0  0  0  0  0  0  0
   -2.4699    3.7837    1.2252 C   0  0  0  1  0  0  0  0  0  0  0  0
   -3.2491    4.0762    2.3337 C   0  0  0  1  0  0  0  0  0  0  0  0
   -4.2314    5.0449    2.2515 C   0  0  0  1  0  0  0  0  0  0  0  0
   -1.4163    2.7116    1.3734 C   0  0  0  1  0  0  0  0  0  0  0  0
   -3.8114    5.9454   -0.9363 H   0  0  0  1  0  0  0  0  0  0  0  0
   -2.0842    4.2476   -0.7911 H   0  0  0  1  0  0  0  0  0  0  0  0
   -3.0946    3.5668    3.2271 H   0  0  0  1  0  0  0  0  0  0  0  0
   -4.8188    5.2617    3.0819 H   0  0  0  1  0  0  0  0  0  0  0  0
   -1.8223    1.9318    1.9834 H   0  0  0  1  0  0  0  0  0  0  0  0
   -1.1982    2.3262    0.3994 H   0  0  0  1  0  0  0  0  0  0  0  0
  1  4  1  0  0  0  0
  2  4  1  0  0  0  0
  2  5  2  0  0  0  0
  2  6  1  0  0  0  0
  3  4  1  0  0  0  0
  3  7  1  0  0  0  0
  3  8  1  0  0  0  0
  4 28  1  0  0  0  0
  6  9  1  0  0  0  0
  6 12  1  0  0  0  0
  8 10  1  0  0  0  0
  8 11  2  0  0  0  0
  9 13  1  0  0  0  0
  9 14  1  0  0  0  0
  9 15  1  0  0  0  0
 10 16  1  0  0  0  0
 10 17  1  0  0  0  0
 10 18  1  0  0  0  0
 19 20  2  0  0  0  0
 19 21  1  0  0  0  0
 19 22  1  0  0  0  0
 22 23  4  0  0  0  0
 22 27  4  0  0  0  0
 23 24  4  0  0  0  0
 23 29  1  0  0  0  0
 24 25  4  0  0  0  0
 24 30  1  0  0  0  0
 25 26  4  0  0  0  0
 25 28  1  0  0  0  0
 26 27  4  0  0  0  0
 26 31  1  0  0  0  0
 27 32  1  0  0  0  0
 28 33  1  0  0  0  0
 28 34  1  0  0  0  0
M  END
> <BCLConfClusterSize>
1

> <ConfClashScore>
0 

> <ConfOneFourInteractionScore>
-0.981931 

> <ConfScore>
-0.288132 

> <ConfScorePBest>
0.00740662 

> <ConfTolerance>
0.234245 

> <RosettaParamsInstructions>
M  ROOT 3
M  POLY_N_BB 3
M  POLY_CA_BB 4
M  POLY_C_BB 2
M  POLY_O_BB 5
M  POLY_IGNORE 9 10 11 12 13 14 15 16 17 18 
M  POLY_UPPER 6
M  POLY_LOWER 8
M  POLY_CHG 0
M  POLY_PROPERTIES ALPHA_AA L_AA PROTEIN AROMATIC POLYMER 
M  END

$$$$



 34 34  0  0  0  0  0  0  0  0999 V2000
   -0.1272    3.5909    2.6480 H   0  0  0  1  0  0  0  0  0  0  0  0
    0.8961    1.9112    1.8912 C   0  0  0  1  0  0  0  0  0  0  0  0
    0.5419    4.0136    0.7458 N   0  0  0  1  0  0  0  0  0  0  0  0
   -0.0462    3.0910    1.7054 C   0  0  0  1  0  0  0  0  0  0  0  0
    1.6343    1.5344    0.9820 O   0  0  0  1  0  0  0  0  0  0  0  0
    0.8632    1.3232    3.0968 N   0  0  0  1  0  0  0  0  0  0  0  0
    0.4767    3.8071   -0.2100 H   0  0  0  1  0  0  0  0  0  0  0  0
    1.1677    5.1323    1.1225 C   0  0  0  1  0  0  0  0  0  0  0  0
    1.5164    0.0493    3.3584 C   0  0  0  1  0  0  0  0  0  0  0  0
    1.6846    6.0085   -0.0019 C   0  0  0  1  0  0  0  0  0  0  0  0
    1.3241    5.4479    2.3013 O   0  0  0  1  0  0  0  0  0  0  0  0
    0.3826    1.7670    3.8265 H   0  0  0  1  0  0  0  0  0  0  0  0
    1.5759   -0.5146    2.4511 H   0  0  0  1  0  0  0  0  0  0  0  0
    0.9509   -0.4991    4.0825 H   0  0  0  1  0  0  0  0  0  0  0  0
    2.5027    0.2251    3.7341 H   0  0  0  1  0  0  0  0  0  0  0  0
    1.4173    5.5761   -0.9434 H   0  0  0  1  0  0  0  0  0  0  0  0
    2.7497    6.0842    0.0660 H   0  0  0  1  0  0  0  0  0  0  0  0
    1.2514    6.9837    0.0782 H   0  0  0  1  0  0  0  0  0  0  0  0
   -5.4524    6.7448    0.9305 N   0  3  0  1  0  0  0  0  0  0  0  0
   -5.4123    7.3928   -0.0668 O   0  0  0  1  0  0  0  0  0  0  0  0
   -6.2750    6.8665    1.9812 O   0  5  0  1  0  0  0  0  0  0  0  0
   -4.4316    5.7350    1.0393 C   0  0  0  1  0  0  0  0  0  0  0  0
   -3.6114    5.4649   -0.0398 C   0  0  0  1  0  0  0  0  0  0  0  0
   -2.6246    4.4969    0.0646 C   0  0  0  1  0  0  0  0  0  0  0  0
   -2.4647    3.7981    1.2463 C   0  0  0  1  0  0  0  0  0  0  0  0
   -3.2873    4.0688    2.3286 C   0  0  0  1  0  0  0  0  0  0  0  0
   -4.2710    5.0340    2.2243 C   0  0  0  1  0  0  0  0  0  0  0  0
   -1.4482    2.6815    1.2851 C   0  0  0  1  0  0  0  0  0  0  0  0
   -3.7344    5.9880   -0.9303 H   0  0  0  1  0  0  0  0  0  0  0  0
   -2.0048    4.2965   -0.7461 H   0  0  0  1  0  0  0  0  0  0  0  0
   -3.1642    3.5457    3.2190 H   0  0  0  1  0  0  0  0  0  0  0  0
   -4.8908    5.2343    3.0350 H   0  0  0  1  0  0  0  0  0  0  0  0
   -1.7968    1.9416    1.9751 H   0  0  0  1  0  0  0  0  0  0  0  0
   -1.3880    2.2558    0.3052 H   0  0  0  1  0  0  0  0  0  0  0  0
  1  4  1  0  0  0  0
  2  4  1  0  0  0  0
  2  5  2  0  0  0  0
  2  6  1  0  0  0  0
  3  4  1  0  0  0  0
  3  7  1  0  0  0  0
  3  8  1  0  0  0  0
  4 28  1  0  0  0  0
  6  9  1  0  0  0  0
  6 12  1  0  0  0  0
  8 10  1  0  0  0  0
  8 11  2  0  0  0  0
  9 13  1  0  0  0  0
  9 14  1  0  0  0  0
  9 15  1  0  0  0  0
 10 16  1  0  0  0  0
 10 17  1  0  0  0  0
 10 18  1  0  0  0  0
 19 20  2  0  0  0  0
 19 21  1  0  0  0  0
 19 22  1  0  0  0  0
 22 23  4  0  0  0  0
 22 27  4  0  0  0  0
 23 24  4  0  0  0  0
 23 29  1  0  0  0  0
 24 25  4  0  0  0  0
 24 30  1  0  0  0  0
 25 26  4  0  0  0  0
 25 28  1  0  0  0  0
 26 27  4  0  0  0  0
 26 31  1  0  0  0  0
 27 32  1  0  0  0  0
 28 33  1  0  0  0  0
 28 34  1  0  0  0  0
M  END
> <BCLConfClusterSize>
1

> <ConfClashScore>
0 

> <ConfOneFourInteractionScore>
-0.985807 

> <ConfScore>
-0.285123 

> <ConfScorePBest>
0.00737814 

> <ConfTolerance>
0.215432 

> <RosettaParamsInstructions>
M  ROOT 3
M  POLY_N_BB 3
M  POLY_CA_BB 4
M  POLY_C_BB 2
M  POLY_O_BB 5
M  POLY_IGNORE 9 10 11 12 13 14 15 16 17 18 
M  POLY_UPPER 6
M  POLY_LOWER 8
M  POLY_CHG 0
M  POLY_PROPERTIES ALPHA_AA L_AA PROTEIN AROMATIC POLYMER 
M  END

$$$$



 34 34  0  0  0  0  0  0  0  0999 V2000
   -0.2994    3.7736    2.8045 H   0  0  0  1  0  0  0  0  0  0  0  0
    0.8459    2.0790    2.2533 C   0  0  0  1  0  0  0  0  0  0  0  0
    0.5648    4.1346    0.9606 N   0  0  0  1  0  0  0  0  0  0  0  0
   -0.0845    3.2368    1.9042 C   0  0  0  1  0  0  0  0  0  0  0  0
    0.9099    1.6344    3.3986 O   0  0  0  1  0  0  0  0  0  0  0  0
    1.5705    1.5938    1.2446 N   0  0  0  1  0  0  0  0  0  0  0  0
    0.4743    3.9581    0.0009 H   0  0  0  1  0  0  0  0  0  0  0  0
    1.2800    5.1911    1.3573 C   0  0  0  1  0  0  0  0  0  0  0  0
    2.4986    0.4861    1.4165 C   0  0  0  1  0  0  0  0  0  0  0  0
    2.0213    5.9297    0.2659 C   0  0  0  1  0  0  0  0  0  0  0  0
    1.3434    5.5547    2.5309 O   0  0  0  1  0  0  0  0  0  0  0  0
    1.4749    1.9973    0.3567 H   0  0  0  1  0  0  0  0  0  0  0  0
    2.9621    0.5545    2.3785 H   0  0  0  1  0  0  0  0  0  0  0  0
    3.2494    0.5288    0.6554 H   0  0  0  1  0  0  0  0  0  0  0  0
    1.9667   -0.4393    1.3421 H   0  0  0  1  0  0  0  0  0  0  0  0
    1.3727    6.0717   -0.5732 H   0  0  0  1  0  0  0  0  0  0  0  0
    2.8741    5.3580   -0.0355 H   0  0  0  1  0  0  0  0  0  0  0  0
    2.3415    6.8819    0.6341 H   0  0  0  1  0  0  0  0  0  0  0  0
   -5.4372    6.7502    0.9384 N   0  3  0  1  0  0  0  0  0  0  0  0
   -5.5763    7.3043   -0.1055 O   0  0  0  1  0  0  0  0  0  0  0  0
   -6.1745    7.0246    2.0231 O   0  5  0  1  0  0  0  0  0  0  0  0
   -4.4238    5.7322    1.0399 C   0  0  0  1  0  0  0  0  0  0  0  0
   -3.6229    5.4458   -0.0495 C   0  0  0  1  0  0  0  0  0  0  0  0
   -2.6432    4.4699    0.0479 C   0  0  0  1  0  0  0  0  0  0  0  0
   -2.4710    3.7796    1.2328 C   0  0  0  1  0  0  0  0  0  0  0  0
   -3.2742    4.0668    2.3255 C   0  0  0  1  0  0  0  0  0  0  0  0
   -4.2509    5.0398    2.2282 C   0  0  0  1  0  0  0  0  0  0  0  0
   -1.4076    2.7121    1.3379 C   0  0  0  1  0  0  0  0  0  0  0  0
   -3.7552    5.9625   -0.9423 H   0  0  0  1  0  0  0  0  0  0  0  0
   -2.0379    4.2572   -0.7706 H   0  0  0  1  0  0  0  0  0  0  0  0
   -3.1419    3.5501    3.2183 H   0  0  0  1  0  0  0  0  0  0  0  0
   -4.8562    5.2525    3.0467 H   0  0  0  1  0  0  0  0  0  0  0  0
   -1.7678    1.9345    1.9787 H   0  0  0  1  0  0  0  0  0  0  0  0
   -1.2263    2.3147    0.3612 H   0  0  0  1  0  0  0  0  0  0  0  0
  1  4  1  0  0  0  0
  2  4  1  0  0  0  0
  2  5  2  0  0  0  0
  2  6  1  0  0  0  0
  3  4  1  0  0  0  0
  3  7  1  0  0  0  0
  3  8  1  0  0  0  0
  4 28  1  0  0  0  0
  6  9  1  0  0  0  0
  6 12  1  0  0  0  0
  8 10  1  0  0  0  0
  8 11  2  0  0  0  0
  9 13  1  0  0  0  0
  9 14  1  0  0  0  0
  9 15  1  0  0  0  0
 10 16  1  0  0  0  0
 10 17  1  0  0  0  0
 10 18  1  0  0  0  0
 19 20  2  0  0  0  0
 19 21  1  0  0  0  0
 19 22  1  0  0  0  0
 22 23  4  0  0  0  0
 22 27  4  0  0  0  0
 23 24  4  0  0  0  0
 23 29  1  0  0  0  0
 24 25  4  0  0  0  0
 24 30  1  0  0  0  0
 25 26  4  0  0  0  0
 25 28  1  0  0  0  0
 26 27  4  0  0  0  0
 26 31  1  0  0  0  0
 27 32  1  0  0  0  0
 28 33  1  0  0  0  0
 28 34  1  0  0  0  0
M  END
> <BCLConfClusterSize>
1

> <ConfClashScore>
0 

> <ConfOneFourInteractionScore>
-0.960318 

> <ConfScore>
-0.283977 

> <ConfScorePBest>
0.00734966 

> <ConfTolerance>
0.215003 

> <RosettaParamsInstructions>
M  ROOT 3
M  POLY_N_BB 3
M  POLY_CA_BB 4
M  POLY_C_BB 2
M  POLY_O_BB 5
M  POLY_IGNORE 9 10 11 12 13 14 15 16 17 18 
M  POLY_UPPER 6
M  POLY_LOWER 8
M  POLY_CHG 0
M  POLY_PROPERTIES ALPHA_AA L_AA PROTEIN AROMATIC POLYMER 
M  END

$$$$



 34 34  0  0  0  0  0  0  0  0999 V2000
   -2.3935    1.4902   -0.0991 H   0  0  0  1  0  0  0  0  0  0  0  0
   -0.8534    0.3107    0.7511 C   0  0  0  1  0  0  0  0  0  0  0  0
   -2.9836    0.9447    1.8063 N   0  0  0  1  0  0  0  0  0  0  0  0
   -1.9529    1.3621    0.8675 C   0  0  0  1  0  0  0  0  0  0  0  0
   -0.4425   -0.2956    1.7397 O   0  0  0  1  0  0  0  0  0  0  0  0
   -0.3796    0.1014   -0.4781 N   0  0  0  1  0  0  0  0  0  0  0  0
   -2.7829    1.0200    2.7626 H   0  0  0  1  0  0  0  0  0  0  0  0
   -4.1879    0.4644    1.4612 C   0  0  0  1  0  0  0  0  0  0  0  0
    0.6250   -0.9127   -0.7618 C   0  0  0  1  0  0  0  0  0  0  0  0
   -5.1273    0.1540    2.6103 C   0  0  0  1  0  0  0  0  0  0  0  0
   -4.5234    0.2826    0.3024 O   0  0  0  1  0  0  0  0  0  0  0  0
   -0.7198    0.6495   -1.2158 H   0  0  0  1  0  0  0  0  0  0  0  0
    1.1023   -1.2074    0.1493 H   0  0  0  1  0  0  0  0  0  0  0  0
    1.3555   -0.5126   -1.4336 H   0  0  0  1  0  0  0  0  0  0  0  0
    0.1558   -1.7636   -1.2099 H   0  0  0  1  0  0  0  0  0  0  0  0
   -4.9937   -0.8626    2.9162 H   0  0  0  1  0  0  0  0  0  0  0  0
   -6.1387    0.3010    2.2935 H   0  0  0  1  0  0  0  0  0  0  0  0
   -4.9123    0.8046    3.4321 H   0  0  0  1  0  0  0  0  0  0  0  0
   -5.3977    6.7420    0.8948 N   0  3  0  1  0  0  0  0  0  0  0  0
   -5.4174    7.4197   -0.0832 O   0  0  0  1  0  0  0  0  0  0  0  0
   -6.3186    6.9493    1.8459 O   0  5  0  1  0  0  0  0  0  0  0  0
   -4.4334    5.7268    1.0821 C   0  0  0  1  0  0  0  0  0  0  0  0
   -3.6285    5.4694   -0.0115 C   0  0  0  1  0  0  0  0  0  0  0  0
   -2.6449    4.4957    0.0655 C   0  0  0  1  0  0  0  0  0  0  0  0
   -2.4727    3.7785    1.2345 C   0  0  0  1  0  0  0  0  0  0  0  0
   -3.2800    4.0366    2.3314 C   0  0  0  1  0  0  0  0  0  0  0  0
   -4.2606    5.0075    2.2544 C   0  0  0  1  0  0  0  0  0  0  0  0
   -1.4051    2.7133    1.3173 C   0  0  0  1  0  0  0  0  0  0  0  0
   -3.7608    6.0063   -0.8924 H   0  0  0  1  0  0  0  0  0  0  0  0
   -2.0366    4.3047   -0.7561 H   0  0  0  1  0  0  0  0  0  0  0  0
   -3.1477    3.4997    3.2122 H   0  0  0  1  0  0  0  0  0  0  0  0
   -4.8689    5.1983    3.0760 H   0  0  0  1  0  0  0  0  0  0  0  0
   -0.5860    2.9876    0.6858 H   0  0  0  1  0  0  0  0  0  0  0  0
   -1.0654    2.6350    2.3290 H   0  0  0  1  0  0  0  0  0  0  0  0
  1  4  1  0  0  0  0
  2  4  1  0  0  0  0
  2  5  2  0  0  0  0
  2  6  1  0  0  0  0
  3  4  1  0  0  0  0
  3  7  1  0  0  0  0
  3  8  1  0  0  0  0
  4 28  1  0  0  0  0
  6  9  1  0  0  0  0
  6 12  1  0  0  0  0
  8 10  1  0  0  0  0
  8 11  2  0  0  0  0
  9 13  1  0  0  0  0
  9 14  1  0  0  0  0
  9 15  1  0  0  0  0
 10 16  1  0  0  0  0
 10 17  1  0  0  0  0
 10 18  1  0  0  0  0
 19 20  2  0  0  0  0
 19 21  1  0  0  0  0
 19 22  1  0  0  0  0
 22 23  4  0  0  0  0
 22 27  4  0  0  0  0
 23 24  4  0  0  0  0
 23 29  1  0  0  0  0
 24 25  4  0  0  0  0
 24 30  1  0  0  0  0
 25 26  4  0  0  0  0
 25 28  1  0  0  0  0
 26 27  4  0  0  0  0
 26 31  1  0  0  0  0
 27 32  1  0  0  0  0
 28 33  1  0  0  0  0
 28 34  1  0  0  0  0
M  END
> <BCLConfClusterSize>
1

> <ConfClashScore>
0 

> <ConfOneFourInteractionScore>
-0.981931 

> <ConfScore>
-0.280224 

> <ConfScorePBest>
0.00732118 

> <ConfTolerance>
0.237814 

> <RosettaParamsInstructions>
M  ROOT 3
M  POLY_N_BB 3
M  POLY_CA_BB 4
M  POLY_C_BB 2
M  POLY_O_BB 5
M  POLY_IGNORE 9 10 11 12 13 14 15 16 17 18 
M  POLY_UPPER 6
M  POLY_LOWER 8
M  POLY_CHG 0
M  POLY_PROPERTIES ALPHA_AA L_AA PROTEIN AROMATIC POLYMER 
M  END

$$$$



 34 34  0  0  0  0  0  0  0  0999 V2000
   -2.0625    1.3851   -0.2803 H   0  0  0  1  0  0  0  0  0  0  0  0
   -1.0776    0.1411    1.1002 C   0  0  0  1  0  0  0  0  0  0  0  0
   -3.3240    1.0071    1.3032 N   0  0  0  1  0  0  0  0  0  0  0  0
   -1.9972    1.3047    0.7846 C   0  0  0  1  0  0  0  0  0  0  0  0
   -1.3836   -0.7160    1.9249 O   0  0  0  1  0  0  0  0  0  0  0  0
    0.0681    0.1539    0.4006 N   0  0  0  1  0  0  0  0  0  0  0  0
   -3.4386    0.8881    2.2692 H   0  0  0  1  0  0  0  0  0  0  0  0
   -4.4318    0.8860    0.4780 C   0  0  0  1  0  0  0  0  0  0  0  0
    1.1319   -0.8115    0.6335 C   0  0  0  1  0  0  0  0  0  0  0  0
   -5.7973    0.7085    1.1024 C   0  0  0  1  0  0  0  0  0  0  0  0
   -4.2669    0.9269   -0.7276 O   0  0  0  1  0  0  0  0  0  0  0  0
    0.1924    0.8370   -0.2909 H   0  0  0  1  0  0  0  0  0  0  0  0
    1.7465   -0.8833   -0.2395 H   0  0  0  1  0  0  0  0  0  0  0  0
    0.7040   -1.7685    0.8478 H   0  0  0  1  0  0  0  0  0  0  0  0
    1.7273   -0.4925    1.4633 H   0  0  0  1  0  0  0  0  0  0  0  0
   -5.7613   -0.0838    1.8206 H   0  0  0  1  0  0  0  0  0  0  0  0
   -6.5088    0.4671    0.3407 H   0  0  0  1  0  0  0  0  0  0  0  0
   -6.0880    1.6167    1.5879 H   0  0  0  1  0  0  0  0  0  0  0  0
   -5.4563    6.7284    0.9338 N   0  3  0  1  0  0  0  0  0  0  0  0
   -5.6395    7.2404   -0.1246 O   0  0  0  1  0  0  0  0  0  0  0  0
   -6.1868    7.0038    2.0229 O   0  5  0  1  0  0  0  0  0  0  0  0
   -4.3942    5.7628    1.0491 C   0  0  0  1  0  0  0  0  0  0  0  0
   -3.6011    5.4670   -0.0435 C   0  0  0  1  0  0  0  0  0  0  0  0
   -2.6336    4.4785    0.0495 C   0  0  0  1  0  0  0  0  0  0  0  0
   -2.4659    3.7851    1.2333 C   0  0  0  1  0  0  0  0  0  0  0  0
   -3.2614    4.0817    2.3291 C   0  0  0  1  0  0  0  0  0  0  0  0
   -4.2258    5.0672    2.2362 C   0  0  0  1  0  0  0  0  0  0  0  0
   -1.4862    2.6384    1.3137 C   0  0  0  1  0  0  0  0  0  0  0  0
   -3.7300    5.9860   -0.9354 H   0  0  0  1  0  0  0  0  0  0  0  0
   -2.0341    4.2587   -0.7714 H   0  0  0  1  0  0  0  0  0  0  0  0
   -3.1324    3.5627    3.2211 H   0  0  0  1  0  0  0  0  0  0  0  0
   -4.8254    5.2870    3.0571 H   0  0  0  1  0  0  0  0  0  0  0  0
   -0.6175    2.9063    0.7493 H   0  0  0  1  0  0  0  0  0  0  0  0
   -1.2177    2.5050    2.3408 H   0  0  0  1  0  0  0  0  0  0  0  0
  1  4  1  0  0  0  0
  2  4  1  0  0  0  0
  2  5  2  0  0  0  0
  2  6  1  0  0  0  0
  3  4  1  0  0  0  0
  3  7  1  0  0  0  0
  3  8  1  0  0  0  0
  4 28  1  0  0  0  0
  6  9  1  0  0  0  0
  6 12  1  0  0  0  0
  8 10  1  0  0  0  0
  8 11  2  0  0  0  0
  9 13  1  0  0  0  0
  9 14  1  0  0  0  0
  9 15  1  0  0  0  0
 10 16  1  0  0  0  0
 10 17  1  0  0  0  0
 10 18  1  0  0  0  0
 19 20  2  0  0  0  0
 19 21  1  0  0  0  0
 19 22  1  0  0  0  0
 22 23  4  0  0  0  0
 22 27  4  0  0  0  0
 23 24  4  0  0  0  0
 23 29  1  0  0  0  0
 24 25  4  0  0  0  0
 24 30  1  0  0  0  0
 25 26  4  0  0  0  0
 25 28  1  0  0  0  0
 26 27  4  0  0  0  0
 26 31  1  0  0  0  0
 27 32  1  0  0  0  0
 28 33  1  0  0  0  0
 28 34  1  0  0  0  0
M  END
> <BCLConfClusterSize>
1

> <ConfClashScore>
0 

> <ConfOneFourInteractionScore>
-0.992391 

> <ConfScore>
-0.277364 

> <ConfScorePBest>
0.0072927 

> <ConfTolerance>
0.298176 

> <RosettaParamsInstructions>
M  ROOT 3
M  POLY_N_BB 3
M  POLY_CA_BB 4
M  POLY_C_BB 2
M  POLY_O_BB 5
M  POLY_IGNORE 9 10 11 12 13 14 15 16 17 18 
M  POLY_UPPER 6
M  POLY_LOWER 8
M  POLY_CHG 0
M  POLY_PROPERTIES ALPHA_AA L_AA PROTEIN AROMATIC POLYMER 
M  END

$$$$



 34 34  0  0  0  0  0  0  0  0999 V2000
   -2.4629    0.9872    1.8131 H   0  0  0  1  0  0  0  0  0  0  0  0
   -2.7171    1.1716   -0.2652 C   0  0  0  1  0  0  0  0  0  0  0  0
   -0.6960    0.4051    0.9083 N   0  0  0  1  0  0  0  0  0  0  0  0
   -1.8623    1.3067    0.9873 C   0  0  0  1  0  0  0  0  0  0  0  0
   -3.8972    1.5191   -0.2810 O   0  0  0  1  0  0  0  0  0  0  0  0
   -2.0635    0.6514   -1.3078 N   0  0  0  1  0  0  0  0  0  0  0  0
    0.1913    0.7992    1.0416 H   0  0  0  1  0  0  0  0  0  0  0  0
   -0.7591   -0.9078    0.6687 C   0  0  0  1  0  0  0  0  0  0  0  0
   -2.7328    0.3149   -2.5556 C   0  0  0  1  0  0  0  0  0  0  0  0
    0.5678   -1.6416    0.6673 C   0  0  0  1  0  0  0  0  0  0  0  0
   -1.8168   -1.5007    0.4604 O   0  0  0  1  0  0  0  0  0  0  0  0
   -1.0999    0.4907   -1.2297 H   0  0  0  1  0  0  0  0  0  0  0  0
   -3.2317    1.1807   -2.9380 H   0  0  0  1  0  0  0  0  0  0  0  0
   -3.4491   -0.4599   -2.3781 H   0  0  0  1  0  0  0  0  0  0  0  0
   -2.0096   -0.0235   -3.2679 H   0  0  0  1  0  0  0  0  0  0  0  0
    1.1730   -1.2838   -0.1393 H   0  0  0  1  0  0  0  0  0  0  0  0
    0.3950   -2.6905    0.5451 H   0  0  0  1  0  0  0  0  0  0  0  0
    1.0719   -1.4685    1.5951 H   0  0  0  1  0  0  0  0  0  0  0  0
   -5.4361    6.7401    0.9665 N   0  3  0  1  0  0  0  0  0  0  0  0
   -6.0941    7.0087    1.9210 O   0  0  0  1  0  0  0  0  0  0  0  0
   -5.5814    7.3407   -0.2225 O   0  5  0  1  0  0  0  0  0  0  0  0
   -4.4405    5.7248    1.0961 C   0  0  0  1  0  0  0  0  0  0  0  0
   -3.6502    5.4682   -0.0084 C   0  0  0  1  0  0  0  0  0  0  0  0
   -2.6623    4.4979    0.0563 C   0  0  0  1  0  0  0  0  0  0  0  0
   -2.4713    3.7832    1.2238 C   0  0  0  1  0  0  0  0  0  0  0  0
   -3.2639    4.0404    2.3316 C   0  0  0  1  0  0  0  0  0  0  0  0
   -4.2487    5.0079    2.2669 C   0  0  0  1  0  0  0  0  0  0  0  0
   -1.3991    2.7217    1.2933 C   0  0  0  1  0  0  0  0  0  0  0  0
   -3.7966    6.0033   -0.8881 H   0  0  0  1  0  0  0  0  0  0  0  0
   -2.0650    4.3077   -0.7735 H   0  0  0  1  0  0  0  0  0  0  0  0
   -3.1174    3.5053    3.2113 H   0  0  0  1  0  0  0  0  0  0  0  0
   -4.8460    5.1980    3.0967 H   0  0  0  1  0  0  0  0  0  0  0  0
   -0.6347    2.9781    0.5898 H   0  0  0  1  0  0  0  0  0  0  0  0
   -0.9911    2.7288    2.2824 H   0  0  0  1  0  0  0  0  0  0  0  0
  1  4  1  0  0  0  0
  2  4  1  0  0  0  0
  2  5  2  0  0  0  0
  2  6  1  0  0  0  0
  3  4  1  0  0  0  0
  3  7  1  0  0  0  0
  3  8  1  0  0  0  0
  4 28  1  0  0  0  0
  6  9  1  0  0  0  0
  6 12  1  0  0  0  0
  8 10  1  0  0  0  0
  8 11  2  0  0  0  0
  9 13  1  0  0  0  0
  9 14  1  0  0  0  0
  9 15  1  0  0  0  0
 10 16  1  0  0  0  0
 10 17  1  0  0  0  0
 10 18  1  0  0  0  0
 19 20  2  0  0  0  0
 19 21  1  0  0  0  0
 19 22  1  0  0  0  0
 22 23  4  0  0  0  0
 22 27  4  0  0  0  0
 23 24  4  0  0  0  0
 23 29  1  0  0  0  0
 24 25  4  0  0  0  0
 24 30  1  0  0  0  0
 25 26  4  0  0  0  0
 25 28  1  0  0  0  0
 26 27  4  0  0  0  0
 26 31  1  0  0  0  0
 27 32  1  0  0  0  0
 28 33  1  0  0  0  0
 28 34  1  0  0  0  0
M  END
> <BCLConfClusterSize>
1

> <ConfClashScore>
0 

> <ConfOneFourInteractionScore>
-0.960318 

> <ConfScore>
-0.271885 

> <ConfScorePBest>
0.00726422 

> <ConfTolerance>
0.231468 

> <RosettaParamsInstructions>
M  ROOT 3
M  POLY_N_BB 3
M  POLY_CA_BB 4
M  POLY_C_BB 2
M  POLY_O_BB 5
M  POLY_IGNORE 9 10 11 12 13 14 15 16 17 18 
M  POLY_UPPER 6
M  POLY_LOWER 8
M  POLY_CHG 0
M  POLY_PROPERTIES ALPHA_AA L_AA PROTEIN AROMATIC POLYMER 
M  END

$$$$



 34 34  0  0  0  0  0  0  0  0999 V2000
   -2.7235    1.1220    1.7167 H   0  0  0  1  0  0  0  0  0  0  0  0
   -2.6444    1.3435   -0.3774 C   0  0  0  1  0  0  0  0  0  0  0  0
   -0.9789    0.2750    1.0217 N   0  0  0  1  0  0  0  0  0  0  0  0
   -1.9715    1.3386    0.9870 C   0  0  0  1  0  0  0  0  0  0  0  0
   -3.8010    1.7433   -0.5038 O   0  0  0  1  0  0  0  0  0  0  0  0
   -1.8563    0.9724   -1.3904 N   0  0  0  1  0  0  0  0  0  0  0  0
   -0.0830    0.5018    1.3477 H   0  0  0  1  0  0  0  0  0  0  0  0
   -1.1991   -0.9998    0.6388 C   0  0  0  1  0  0  0  0  0  0  0  0
   -2.2775    1.0721   -2.7799 C   0  0  0  1  0  0  0  0  0  0  0  0
   -0.0386   -1.9676    0.6889 C   0  0  0  1  0  0  0  0  0  0  0  0
   -2.3106   -1.3665    0.2597 O   0  0  0  1  0  0  0  0  0  0  0  0
   -0.9636    0.6208   -1.1909 H   0  0  0  1  0  0  0  0  0  0  0  0
   -2.6738    2.0488   -2.9638 H   0  0  0  1  0  0  0  0  0  0  0  0
   -3.0312    0.3386   -2.9773 H   0  0  0  1  0  0  0  0  0  0  0  0
   -1.4372    0.9020   -3.4201 H   0  0  0  1  0  0  0  0  0  0  0  0
    0.7490   -1.6139    0.0568 H   0  0  0  1  0  0  0  0  0  0  0  0
   -0.3621   -2.9299    0.3507 H   0  0  0  1  0  0  0  0  0  0  0  0
    0.3186   -2.0440    1.6946 H   0  0  0  1  0  0  0  0  0  0  0  0
   -5.4427    6.7364    0.9833 N   0  3  0  1  0  0  0  0  0  0  0  0
   -6.1419    6.9810    1.9146 O   0  0  0  1  0  0  0  0  0  0  0  0
   -5.6485    7.4455   -0.1349 O   0  5  0  1  0  0  0  0  0  0  0  0
   -4.4248    5.7213    1.0678 C   0  0  0  1  0  0  0  0  0  0  0  0
   -3.6301    5.4489   -0.0297 C   0  0  0  1  0  0  0  0  0  0  0  0
   -2.6461    4.4759    0.0513 C   0  0  0  1  0  0  0  0  0  0  0  0
   -2.4635    3.7743    1.2281 C   0  0  0  1  0  0  0  0  0  0  0  0
   -3.2605    4.0474    2.3288 C   0  0  0  1  0  0  0  0  0  0  0  0
   -4.2414    5.0176    2.2479 C   0  0  0  1  0  0  0  0  0  0  0  0
   -1.3954    2.7098    1.3153 C   0  0  0  1  0  0  0  0  0  0  0  0
   -3.7702    5.9741   -0.9163 H   0  0  0  1  0  0  0  0  0  0  0  0
   -2.0454    4.2737   -0.7733 H   0  0  0  1  0  0  0  0  0  0  0  0
   -3.1203    3.5222    3.2155 H   0  0  0  1  0  0  0  0  0  0  0  0
   -4.8421    5.2197    3.0725 H   0  0  0  1  0  0  0  0  0  0  0  0
   -0.6149    2.9381    0.6199 H   0  0  0  1  0  0  0  0  0  0  0  0
   -0.9961    2.6940    2.3079 H   0  0  0  1  0  0  0  0  0  0  0  0
  1  4  1  0  0  0  0
  2  4  1  0  0  0  0
  2  5  2  0  0  0  0
  2  6  1  0  0  0  0
  3  4  1  0  0  0  0
  3  7  1  0  0  0  0
  3  8  1  0  0  0  0
  4 28  1  0  0  0  0
  6  9  1  0  0  0  0
  6 12  1  0  0  0  0
  8 10  1  0  0  0  0
  8 11  2  0  0  0  0
  9 13  1  0  0  0  0
  9 14  1  0  0  0  0
  9 15  1  0  0  0  0
 10 16  1  0  0  0  0
 10 17  1  0  0  0  0
 10 18  1  0  0  0  0
 19 20  2  0  0  0  0
 19 21  1  0  0  0  0
 19 22  1  0  0  0  0
 22 23  4  0  0  0  0
 22 27  4  0  0  0  0
 23 24  4  0  0  0  0
 23 29  1  0  0  0  0
 24 25  4  0  0  0  0
 24 30  1  0  0  0  0
 25 26  4  0  0  0  0
 25 28  1  0  0  0  0
 26 27  4  0  0  0  0
 26 31  1  0  0  0  0
 27 32  1  0  0  0  0
 28 33  1  0  0  0  0
 28 34  1  0  0  0  0
M  END
> <BCLConfClusterSize>
1

> <ConfClashScore>
0 

> <ConfOneFourInteractionScore>
-0.94165 

> <ConfScore>
-0.271885 

> <ConfScorePBest>
0.00723574 

> <ConfTolerance>
0.200394 

> <RosettaParamsInstructions>
M  ROOT 3
M  POLY_N_BB 3
M  POLY_CA_BB 4
M  POLY_C_BB 2
M  POLY_O_BB 5
M  POLY_IGNORE 9 10 11 12 13 14 15 16 17 18 
M  POLY_UPPER 6
M  POLY_LOWER 8
M  POLY_CHG 0
M  POLY_PROPERTIES ALPHA_AA L_AA PROTEIN AROMATIC POLYMER 
M  END

$$$$



 34 34  0  0  0  0  0  0  0  0999 V2000
   -2.7619    1.1556    1.6719 H   0  0  0  1  0  0  0  0  0  0  0  0
   -2.4833    1.2211   -0.3966 C   0  0  0  1  0  0  0  0  0  0  0  0
   -0.9652    0.2656    1.3067 N   0  0  0  1  0  0  0  0  0  0  0  0
   -1.9288    1.3179    1.0203 C   0  0  0  1  0  0  0  0  0  0  0  0
   -3.6635    1.4704   -0.6388 O   0  0  0  1  0  0  0  0  0  0  0  0
   -1.6059    0.8511   -1.3419 N   0  0  0  1  0  0  0  0  0  0  0  0
   -0.0628    0.5163    1.5953 H   0  0  0  1  0  0  0  0  0  0  0  0
   -1.2679   -1.0305    1.1899 C   0  0  0  1  0  0  0  0  0  0  0  0
   -1.9549    0.8127   -2.7542 C   0  0  0  1  0  0  0  0  0  0  0  0
   -0.1311   -1.9988    1.4528 C   0  0  0  1  0  0  0  0  0  0  0  0
   -2.3821   -1.4281    0.8918 O   0  0  0  1  0  0  0  0  0  0  0  0
   -0.6985    0.5979   -1.0719 H   0  0  0  1  0  0  0  0  0  0  0  0
   -2.5360    1.6763   -3.0021 H   0  0  0  1  0  0  0  0  0  0  0  0
   -2.5244   -0.0702   -2.9567 H   0  0  0  1  0  0  0  0  0  0  0  0
   -1.0610    0.8038   -3.3421 H   0  0  0  1  0  0  0  0  0  0  0  0
    0.5319   -1.5819    2.1819 H   0  0  0  1  0  0  0  0  0  0  0  0
    0.4045   -2.1749    0.5434 H   0  0  0  1  0  0  0  0  0  0  0  0
   -0.5274   -2.9229    1.8186 H   0  0  0  1  0  0  0  0  0  0  0  0
   -5.4446    6.7447    0.9615 N   0  3  0  1  0  0  0  0  0  0  0  0
   -5.6492    7.2823   -0.0803 O   0  0  0  1  0  0  0  0  0  0  0  0
   -6.1191    7.0299    2.0838 O   0  5  0  1  0  0  0  0  0  0  0  0
   -4.4189    5.7357    1.0179 C   0  0  0  1  0  0  0  0  0  0  0  0
   -3.6170    5.4378   -0.0677 C   0  0  0  1  0  0  0  0  0  0  0  0
   -2.6395    4.4607    0.0398 C   0  0  0  1  0  0  0  0  0  0  0  0
   -2.4705    3.7807    1.2312 C   0  0  0  1  0  0  0  0  0  0  0  0
   -3.2747    4.0794    2.3200 C   0  0  0  1  0  0  0  0  0  0  0  0
   -4.2492    5.0535    2.2126 C   0  0  0  1  0  0  0  0  0  0  0  0
   -1.4096    2.7119    1.3474 C   0  0  0  1  0  0  0  0  0  0  0  0
   -3.7469    5.9467   -0.9653 H   0  0  0  1  0  0  0  0  0  0  0  0
   -2.0334    4.2394   -0.7758 H   0  0  0  1  0  0  0  0  0  0  0  0
   -3.1448    3.5704    3.2176 H   0  0  0  1  0  0  0  0  0  0  0  0
   -4.8553    5.2748    3.0283 H   0  0  0  1  0  0  0  0  0  0  0  0
   -0.6143    2.9465    0.6712 H   0  0  0  1  0  0  0  0  0  0  0  0
   -1.0367    2.7098    2.3503 H   0  0  0  1  0  0  0  0  0  0  0  0
  1  4  1  0  0  0  0
  2  4  1  0  0  0  0
  2  5  2  0  0  0  0
  2  6  1  0  0  0  0
  3  4  1  0  0  0  0
  3  7  1  0  0  0  0
  3  8  1  0  0  0  0
  4 28  1  0  0  0  0
  6  9  1  0  0  0  0
  6 12  1  0  0  0  0
  8 10  1  0  0  0  0
  8 11  2  0  0  0  0
  9 13  1  0  0  0  0
  9 14  1  0  0  0  0
  9 15  1  0  0  0  0
 10 16  1  0  0  0  0
 10 17  1  0  0  0  0
 10 18  1  0  0  0  0
 19 20  2  0  0  0  0
 19 21  1  0  0  0  0
 19 22  1  0  0  0  0
 22 23  4  0  0  0  0
 22 27  4  0  0  0  0
 23 24  4  0  0  0  0
 23 29  1  0  0  0  0
 24 25  4  0  0  0  0
 24 30  1  0  0  0  0
 25 26  4  0  0  0  0
 25 28  1  0  0  0  0
 26 27  4  0  0  0  0
 26 31  1  0  0  0  0
 27 32  1  0  0  0  0
 28 33  1  0  0  0  0
 28 34  1  0  0  0  0
M  END
> <BCLConfClusterSize>
1

> <ConfClashScore>
0 

> <ConfOneFourInteractionScore>
-0.960318 

> <ConfScore>
-0.267318 

> <ConfScorePBest>
0.00720726 

> <ConfTolerance>
0.172918 

> <RosettaParamsInstructions>
M  ROOT 3
M  POLY_N_BB 3
M  POLY_CA_BB 4
M  POLY_C_BB 2
M  POLY_O_BB 5
M  POLY_IGNORE 9 10 11 12 13 14 15 16 17 18 
M  POLY_UPPER 6
M  POLY_LOWER 8
M  POLY_CHG 0
M  POLY_PROPERTIES ALPHA_AA L_AA PROTEIN AROMATIC POLYMER 
M  END

$$$$



 34 34  0  0  0  0  0  0  0  0999 V2000
   -2.9483    1.1863    1.5775 H   0  0  0  1  0  0  0  0  0  0  0  0
   -2.3132    1.1183   -0.4422 C   0  0  0  1  0  0  0  0  0  0  0  0
   -1.1115    0.2394    1.4967 N   0  0  0  1  0  0  0  0  0  0  0  0
   -2.0238    1.2803    1.0472 C   0  0  0  1  0  0  0  0  0  0  0  0
   -3.3998    1.3219   -0.9498 O   0  0  0  1  0  0  0  0  0  0  0  0
   -1.2848    0.7283   -1.1970 N   0  0  0  1  0  0  0  0  0  0  0  0
   -0.2692    0.5226    1.9099 H   0  0  0  1  0  0  0  0  0  0  0  0
   -1.3358   -1.0733    1.3884 C   0  0  0  1  0  0  0  0  0  0  0  0
   -1.3419    0.5110   -2.6348 C   0  0  0  1  0  0  0  0  0  0  0  0
   -0.2743   -2.0072    1.9833 C   0  0  0  1  0  0  0  0  0  0  0  0
   -2.3691   -1.5431    0.9138 O   0  0  0  1  0  0  0  0  0  0  0  0
   -0.4262    0.5767   -0.7495 H   0  0  0  1  0  0  0  0  0  0  0  0
   -2.1654    1.0566   -3.0461 H   0  0  0  1  0  0  0  0  0  0  0  0
   -1.4712   -0.5325   -2.8327 H   0  0  0  1  0  0  0  0  0  0  0  0
   -0.4310    0.8493   -3.0828 H   0  0  0  1  0  0  0  0  0  0  0  0
    0.3150   -1.4698    2.6966 H   0  0  0  1  0  0  0  0  0  0  0  0
    0.3581   -2.3721    1.2011 H   0  0  0  1  0  0  0  0  0  0  0  0
   -0.7555   -2.8314    2.4671 H   0  0  0  1  0  0  0  0  0  0  0  0
   -5.4618    6.7267    0.9783 N   0  3  0  1  0  0  0  0  0  0  0  0
   -6.0960    6.9805    1.9527 O   0  0  0  1  0  0  0  0  0  0  0  0
   -5.6881    7.2895   -0.2165 O   0  5  0  1  0  0  0  0  0  0  0  0
   -4.3962    5.7646    1.0902 C   0  0  0  1  0  0  0  0  0  0  0  0
   -3.6098    5.4942   -0.0138 C   0  0  0  1  0  0  0  0  0  0  0  0
   -2.6477    4.4982    0.0476 C   0  0  0  1  0  0  0  0  0  0  0  0
   -2.4784    3.7719    1.2113 C   0  0  0  1  0  0  0  0  0  0  0  0
   -3.2670    4.0430    2.3186 C   0  0  0  1  0  0  0  0  0  0  0  0
   -4.2262    5.0361    2.2572 C   0  0  0  1  0  0  0  0  0  0  0  0
   -1.4511    2.6717    1.3360 C   0  0  0  1  0  0  0  0  0  0  0  0
   -3.7400    6.0380   -0.8907 H   0  0  0  1  0  0  0  0  0  0  0  0
   -2.0533    4.2974   -0.7819 H   0  0  0  1  0  0  0  0  0  0  0  0
   -3.1368    3.4992    3.1955 H   0  0  0  1  0  0  0  0  0  0  0  0
   -4.8206    5.2369    3.0866 H   0  0  0  1  0  0  0  0  0  0  0  0
   -0.6594    2.8647    0.6425 H   0  0  0  1  0  0  0  0  0  0  0  0
   -1.0626    2.6798    2.3329 H   0  0  0  1  0  0  0  0  0  0  0  0
  1  4  1  0  0  0  0
  2  4  1  0  0  0  0
  2  5  2  0  0  0  0
  2  6  1  0  0  0  0
  3  4  1  0  0  0  0
  3  7  1  0  0  0  0
  3  8  1  0  0  0  0
  4 28  1  0  0  0  0
  6  9  1  0  0  0  0
  6 12  1  0  0  0  0
  8 10  1  0  0  0  0
  8 11  2  0  0  0  0
  9 13  1  0  0  0  0
  9 14  1  0  0  0  0
  9 15  1  0  0  0  0
 10 16  1  0  0  0  0
 10 17  1  0  0  0  0
 10 18  1  0  0  0  0
 19 20  2  0  0  0  0
 19 21  1  0  0  0  0
 19 22  1  0  0  0  0
 22 23  4  0  0  0  0
 22 27  4  0  0  0  0
 23 24  4  0  0  0  0
 23 29  1  0  0  0  0
 24 25  4  0  0  0  0
 24 30  1  0  0  0  0
 25 26  4  0  0  0  0
 25 28  1  0  0  0  0
 26 27  4  0  0  0  0
 26 31  1  0  0  0  0
 27 32  1  0  0  0  0
 28 33  1  0  0  0  0
 28 34  1  0  0  0  0
M  END
> <BCLConfClusterSize>
1

> <ConfClashScore>
0 

> <ConfOneFourInteractionScore>
-0.960318 

> <ConfScore>
-0.267318 

> <ConfScorePBest>
0.00717878 

> <ConfTolerance>
0.212481 

> <RosettaParamsInstructions>
M  ROOT 3
M  POLY_N_BB 3
M  POLY_CA_BB 4
M  POLY_C_BB 2
M  POLY_O_BB 5
M  POLY_IGNORE 9 10 11 12 13 14 15 16 17 18 
M  POLY_UPPER 6
M  POLY_LOWER 8
M  POLY_CHG 0
M  POLY_PROPERTIES ALPHA_AA L_AA PROTEIN AROMATIC POLYMER 
M  END

$$$$



 34 34  0  0  0  0  0  0  0  0999 V2000
   -1.6369    1.8052   -0.4760 H   0  0  0  1  0  0  0  0  0  0  0  0
   -0.4066    0.5751    0.7342 C   0  0  0  1  0  0  0  0  0  0  0  0
   -2.8275    0.8584    0.9367 N   0  0  0  1  0  0  0  0  0  0  0  0
   -1.5853    1.5114    0.5516 C   0  0  0  1  0  0  0  0  0  0  0  0
    0.5711    0.5503    0.0096 O   0  0  0  1  0  0  0  0  0  0  0  0
   -0.5319   -0.2423    1.7835 N   0  0  0  1  0  0  0  0  0  0  0  0
   -3.3332    1.2146    1.6969 H   0  0  0  1  0  0  0  0  0  0  0  0
   -3.3073   -0.2204    0.2837 C   0  0  0  1  0  0  0  0  0  0  0  0
    0.4782   -1.2340    2.1214 C   0  0  0  1  0  0  0  0  0  0  0  0
   -4.6477   -0.7795    0.7193 C   0  0  0  1  0  0  0  0  0  0  0  0
   -2.6776   -0.7370   -0.6384 O   0  0  0  1  0  0  0  0  0  0  0  0
   -1.3319   -0.1717    2.3452 H   0  0  0  1  0  0  0  0  0  0  0  0
    0.5673   -1.3048    3.1854 H   0  0  0  1  0  0  0  0  0  0  0  0
    1.4188   -0.9413    1.7037 H   0  0  0  1  0  0  0  0  0  0  0  0
    0.1911   -2.1849    1.7237 H   0  0  0  1  0  0  0  0  0  0  0  0
   -4.8683   -0.4461    1.7118 H   0  0  0  1  0  0  0  0  0  0  0  0
   -4.6103   -1.8487    0.7025 H   0  0  0  1  0  0  0  0  0  0  0  0
   -5.4104   -0.4383    0.0509 H   0  0  0  1  0  0  0  0  0  0  0  0
   -5.4068    6.7626    0.9279 N   0  3  0  1  0  0  0  0  0  0  0  0
   -5.7204    7.4479    0.0069 O   0  0  0  1  0  0  0  0  0  0  0  0
   -6.0207    7.0342    2.0876 O   0  5  0  1  0  0  0  0  0  0  0  0
   -4.4648    5.6761    1.0034 C   0  0  0  1  0  0  0  0  0  0  0  0
   -3.6521    5.4043   -0.0811 C   0  0  0  1  0  0  0  0  0  0  0  0
   -2.6398    4.4637    0.0298 C   0  0  0  1  0  0  0  0  0  0  0  0
   -2.4467    3.7940    1.2233 C   0  0  0  1  0  0  0  0  0  0  0  0
   -3.2616    4.0665    2.3109 C   0  0  0  1  0  0  0  0  0  0  0  0
   -4.2709    5.0043    2.2002 C   0  0  0  1  0  0  0  0  0  0  0  0
   -1.3646    2.7554    1.4021 C   0  0  0  1  0  0  0  0  0  0  0  0
   -3.8001    5.9054   -0.9803 H   0  0  0  1  0  0  0  0  0  0  0  0
   -2.0258    4.2621   -0.7850 H   0  0  0  1  0  0  0  0  0  0  0  0
   -3.1137    3.5654    3.2102 H   0  0  0  1  0  0  0  0  0  0  0  0
   -4.8849    5.2059    3.0151 H   0  0  0  1  0  0  0  0  0  0  0  0
   -0.4259    3.1914    1.1307 H   0  0  0  1  0  0  0  0  0  0  0  0
   -1.3389    2.4641    2.4314 H   0  0  0  1  0  0  0  0  0  0  0  0
  1  4  1  0  0  0  0
  2  4  1  0  0  0  0
  2  5  2  0  0  0  0
  2  6  1  0  0  0  0
  3  4  1  0  0  0  0
  3  7  1  0  0  0  0
  3  8  1  0  0  0  0
  4 28  1  0  0  0  0
  6  9  1  0  0  0  0
  6 12  1  0  0  0  0
  8 10  1  0  0  0  0
  8 11  2  0  0  0  0
  9 13  1  0  0  0  0
  9 14  1  0  0  0  0
  9 15  1  0  0  0  0
 10 16  1  0  0  0  0
 10 17  1  0  0  0  0
 10 18  1  0  0  0  0
 19 20  2  0  0  0  0
 19 21  1  0  0  0  0
 19 22  1  0  0  0  0
 22 23  4  0  0  0  0
 22 27  4  0  0  0  0
 23 24  4  0  0  0  0
 23 29  1  0  0  0  0
 24 25  4  0  0  0  0
 24 30  1  0  0  0  0
 25 26  4  0  0  0  0
 25 28  1  0  0  0  0
 26 27  4  0  0  0  0
 26 31  1  0  0  0  0
 27 32  1  0  0  0  0
 28 33  1  0  0  0  0
 28 34  1  0  0  0  0
M  END
> <BCLConfClusterSize>
1

> <ConfClashScore>
0 

> <ConfOneFourInteractionScore>
-0.960318 

> <ConfScore>
-0.264719 

> <ConfScorePBest>
0.0071503 

> <ConfTolerance>
0.228099 

> <RosettaParamsInstructions>
M  ROOT 3
M  POLY_N_BB 3
M  POLY_CA_BB 4
M  POLY_C_BB 2
M  POLY_O_BB 5
M  POLY_IGNORE 9 10 11 12 13 14 15 16 17 18 
M  POLY_UPPER 6
M  POLY_LOWER 8
M  POLY_CHG 0
M  POLY_PROPERTIES ALPHA_AA L_AA PROTEIN AROMATIC POLYMER 
M  END

$$$$



 34 34  0  0  0  0  0  0  0  0999 V2000
    0.1601    3.7979    0.5365 H   0  0  0  1  0  0  0  0  0  0  0  0
    0.0206    4.3692    2.5464 C   0  0  0  1  0  0  0  0  0  0  0  0
    0.9737    2.2589    1.6058 N   0  0  0  1  0  0  0  0  0  0  0  0
   -0.0372    3.2967    1.4610 C   0  0  0  1  0  0  0  0  0  0  0  0
   -0.4152    5.4967    2.3179 O   0  0  0  1  0  0  0  0  0  0  0  0
    0.4771    3.9902    3.7435 N   0  0  0  1  0  0  0  0  0  0  0  0
    0.6639    1.3460    1.7817 H   0  0  0  1  0  0  0  0  0  0  0  0
    2.2898    2.4572    1.5169 C   0  0  0  1  0  0  0  0  0  0  0  0
    0.5051    4.8915    4.8858 C   0  0  0  1  0  0  0  0  0  0  0  0
    3.1559    1.2280    1.7124 C   0  0  0  1  0  0  0  0  0  0  0  0
    2.7875    3.5595    1.2914 O   0  0  0  1  0  0  0  0  0  0  0  0
    0.8044    3.0734    3.8563 H   0  0  0  1  0  0  0  0  0  0  0  0
    1.0623    5.7697    4.6342 H   0  0  0  1  0  0  0  0  0  0  0  0
    0.9689    4.4007    5.7158 H   0  0  0  1  0  0  0  0  0  0  0  0
   -0.4953    5.1668    5.1472 H   0  0  0  1  0  0  0  0  0  0  0  0
    3.1435    0.9426    2.7436 H   0  0  0  1  0  0  0  0  0  0  0  0
    4.1600    1.4486    1.4157 H   0  0  0  1  0  0  0  0  0  0  0  0
    2.7753    0.4253    1.1159 H   0  0  0  1  0  0  0  0  0  0  0  0
   -5.4589    6.7354    0.9269 N   0  3  0  1  0  0  0  0  0  0  0  0
   -5.7517    7.1704   -0.1414 O   0  0  0  1  0  0  0  0  0  0  0  0
   -6.0047    7.0362    2.1131 O   0  5  0  1  0  0  0  0  0  0  0  0
   -4.4012    5.7650    1.0410 C   0  0  0  1  0  0  0  0  0  0  0  0
   -3.6206    5.4541   -0.0563 C   0  0  0  1  0  0  0  0  0  0  0  0
   -2.6578    4.4611    0.0367 C   0  0  0  1  0  0  0  0  0  0  0  0
   -2.4822    3.7783    1.2255 C   0  0  0  1  0  0  0  0  0  0  0  0
   -3.2651    4.0900    2.3262 C   0  0  0  1  0  0  0  0  0  0  0  0
   -4.2249    5.0800    2.2332 C   0  0  0  1  0  0  0  0  0  0  0  0
   -1.4374    2.6922    1.3261 C   0  0  0  1  0  0  0  0  0  0  0  0
   -3.7555    5.9651   -0.9520 H   0  0  0  1  0  0  0  0  0  0  0  0
   -2.0677    4.2299   -0.7879 H   0  0  0  1  0  0  0  0  0  0  0  0
   -3.1301    3.5789    3.2219 H   0  0  0  1  0  0  0  0  0  0  0  0
   -4.8150    5.3112    3.0578 H   0  0  0  1  0  0  0  0  0  0  0  0
   -1.6422    2.0866    2.1841 H   0  0  0  1  0  0  0  0  0  0  0  0
   -1.4747    2.0868    0.4446 H   0  0  0  1  0  0  0  0  0  0  0  0
  1  4  1  0  0  0  0
  2  4  1  0  0  0  0
  2  5  2  0  0  0  0
  2  6  1  0  0  0  0
  3  4  1  0  0  0  0
  3  7  1  0  0  0  0
  3  8  1  0  0  0  0
  4 28  1  0  0  0  0
  6  9  1  0  0  0  0
  6 12  1  0  0  0  0
  8 10  1  0  0  0  0
  8 11  2  0  0  0  0
  9 13  1  0  0  0  0
  9 14  1  0  0  0  0
  9 15  1  0  0  0  0
 10 16  1  0  0  0  0
 10 17  1  0  0  0  0
 10 18  1  0  0  0  0
 19 20  2  0  0  0  0
 19 21  1  0  0  0  0
 19 22  1  0  0  0  0
 22 23  4  0  0  0  0
 22 27  4  0  0  0  0
 23 24  4  0  0  0  0
 23 29  1  0  0  0  0
 24 25  4  0  0  0  0
 24 30  1  0  0  0  0
 25 26  4  0  0  0  0
 25 28  1  0  0  0  0
 26 27  4  0  0  0  0
 26 31  1  0  0  0  0
 27 32  1  0  0  0  0
 28 33  1  0  0  0  0
 28 34  1  0  0  0  0
M  END
> <BCLConfClusterSize>
1

> <ConfClashScore>
0 

> <ConfOneFourInteractionScore>
-0.960318 

> <ConfScore>
-0.264549 

> <ConfScorePBest>
0.00712182 

> <ConfTolerance>
0.221407 

> <RosettaParamsInstructions>
M  ROOT 3
M  POLY_N_BB 3
M  POLY_CA_BB 4
M  POLY_C_BB 2
M  POLY_O_BB 5
M  POLY_IGNORE 9 10 11 12 13 14 15 16 17 18 
M  POLY_UPPER 6
M  POLY_LOWER 8
M  POLY_CHG 0
M  POLY_PROPERTIES ALPHA_AA L_AA PROTEIN AROMATIC POLYMER 
M  END

$$$$



 34 34  0  0  0  0  0  0  0  0999 V2000
   -2.2236    1.3330   -0.0519 H   0  0  0  1  0  0  0  0  0  0  0  0
   -0.8959    0.2895    1.2242 C   0  0  0  1  0  0  0  0  0  0  0  0
   -3.1731    1.0036    1.7536 N   0  0  0  1  0  0  0  0  0  0  0  0
   -1.9808    1.3349    0.9901 C   0  0  0  1  0  0  0  0  0  0  0  0
    0.1566    0.3106    0.5915 O   0  0  0  1  0  0  0  0  0  0  0  0
   -1.1706   -0.6375    2.1545 N   0  0  0  1  0  0  0  0  0  0  0  0
   -3.2407    1.3101    2.6820 H   0  0  0  1  0  0  0  0  0  0  0  0
   -4.1799    0.2958    1.2335 C   0  0  0  1  0  0  0  0  0  0  0  0
   -0.3224   -1.8008    2.3670 C   0  0  0  1  0  0  0  0  0  0  0  0
   -5.3177   -0.0267    2.1825 C   0  0  0  1  0  0  0  0  0  0  0  0
   -4.1999   -0.0785    0.0639 O   0  0  0  1  0  0  0  0  0  0  0  0
   -1.9703   -0.5273    2.7102 H   0  0  0  1  0  0  0  0  0  0  0  0
    0.6603   -1.5991    1.9949 H   0  0  0  1  0  0  0  0  0  0  0  0
   -0.7341   -2.6415    1.8488 H   0  0  0  1  0  0  0  0  0  0  0  0
   -0.2698   -2.0171    3.4136 H   0  0  0  1  0  0  0  0  0  0  0  0
   -5.5873    0.8530    2.7288 H   0  0  0  1  0  0  0  0  0  0  0  0
   -5.0067   -0.7892    2.8657 H   0  0  0  1  0  0  0  0  0  0  0  0
   -6.1619   -0.3713    1.6227 H   0  0  0  1  0  0  0  0  0  0  0  0
   -5.4399    6.7475    0.9374 N   0  3  0  1  0  0  0  0  0  0  0  0
   -5.6660    7.2120   -0.1346 O   0  0  0  1  0  0  0  0  0  0  0  0
   -6.0802    7.1217    2.0535 O   0  5  0  1  0  0  0  0  0  0  0  0
   -4.4253    5.7307    1.0394 C   0  0  0  1  0  0  0  0  0  0  0  0
   -3.6340    5.4343   -0.0543 C   0  0  0  1  0  0  0  0  0  0  0  0
   -2.6533    4.4595    0.0433 C   0  0  0  1  0  0  0  0  0  0  0  0
   -2.4703    3.7804    1.2331 C   0  0  0  1  0  0  0  0  0  0  0  0
   -3.2638    4.0775    2.3301 C   0  0  0  1  0  0  0  0  0  0  0  0
   -4.2416    5.0494    2.2326 C   0  0  0  1  0  0  0  0  0  0  0  0
   -1.4057    2.7140    1.3386 C   0  0  0  1  0  0  0  0  0  0  0  0
   -3.7745    5.9426   -0.9507 H   0  0  0  1  0  0  0  0  0  0  0  0
   -2.0552    4.2393   -0.7785 H   0  0  0  1  0  0  0  0  0  0  0  0
   -3.1234    3.5692    3.2265 H   0  0  0  1  0  0  0  0  0  0  0  0
   -4.8396    5.2696    3.0544 H   0  0  0  1  0  0  0  0  0  0  0  0
   -0.6104    2.9440    0.6608 H   0  0  0  1  0  0  0  0  0  0  0  0
   -1.0275    2.6938    2.3393 H   0  0  0  1  0  0  0  0  0  0  0  0
  1  4  1  0  0  0  0
  2  4  1  0  0  0  0
  2  5  2  0  0  0  0
  2  6  1  0  0  0  0
  3  4  1  0  0  0  0
  3  7  1  0  0  0  0
  3  8  1  0  0  0  0
  4 28  1  0  0  0  0
  6  9  1  0  0  0  0
  6 12  1  0  0  0  0
  8 10  1  0  0  0  0
  8 11  2  0  0  0  0
  9 13  1  0  0  0  0
  9 14  1  0  0  0  0
  9 15  1  0  0  0  0
 10 16  1  0  0  0  0
 10 17  1  0  0  0  0
 10 18  1  0  0  0  0
 19 20  2  0  0  0  0
 19 21  1  0  0  0  0
 19 22  1  0  0  0  0
 22 23  4  0  0  0  0
 22 27  4  0  0  0  0
 23 24  4  0  0  0  0
 23 29  1  0  0  0  0
 24 25  4  0  0  0  0
 24 30  1  0  0  0  0
 25 26  4  0  0  0  0
 25 28  1  0  0  0  0
 26 27  4  0  0  0  0
 26 31  1  0  0  0  0
 27 32  1  0  0  0  0
 28 33  1  0  0  0  0
 28 34  1  0  0  0  0
M  END
> <BCLConfClusterSize>
1

> <ConfClashScore>
0 

> <ConfOneFourInteractionScore>
-0.94165 

> <ConfScore>
-0.261933 

> <ConfScorePBest>
0.00709334 

> <ConfTolerance>
0.228546 

> <RosettaParamsInstructions>
M  ROOT 3
M  POLY_N_BB 3
M  POLY_CA_BB 4
M  POLY_C_BB 2
M  POLY_O_BB 5
M  POLY_IGNORE 9 10 11 12 13 14 15 16 17 18 
M  POLY_UPPER 6
M  POLY_LOWER 8
M  POLY_CHG 0
M  POLY_PROPERTIES ALPHA_AA L_AA PROTEIN AROMATIC POLYMER 
M  END

$$$$



 34 34  0  0  0  0  0  0  0  0999 V2000
   -1.8973    2.0652   -0.6203 H   0  0  0  1  0  0  0  0  0  0  0  0
   -0.5913    0.6137    0.1521 C   0  0  0  1  0  0  0  0  0  0  0  0
   -2.9301    0.8588    0.6908 N   0  0  0  1  0  0  0  0  0  0  0  0
   -1.7287    1.5946    0.3258 C   0  0  0  1  0  0  0  0  0  0  0  0
    0.4023    0.9105   -0.5100 O   0  0  0  1  0  0  0  0  0  0  0  0
   -0.6986   -0.5879    0.7410 N   0  0  0  1  0  0  0  0  0  0  0  0
   -3.3964    1.0959    1.5195 H   0  0  0  1  0  0  0  0  0  0  0  0
   -3.4198   -0.1296   -0.0652 C   0  0  0  1  0  0  0  0  0  0  0  0
    0.3502   -1.5820    0.5693 C   0  0  0  1  0  0  0  0  0  0  0  0
   -4.7708   -0.7082    0.3492 C   0  0  0  1  0  0  0  0  0  0  0  0
   -2.8794   -0.5192   -1.0873 O   0  0  0  1  0  0  0  0  0  0  0  0
   -1.4848   -0.7960    1.2876 H   0  0  0  1  0  0  0  0  0  0  0  0
    1.0173   -1.5454    1.4050 H   0  0  0  1  0  0  0  0  0  0  0  0
    0.8931   -1.3758   -0.3294 H   0  0  0  1  0  0  0  0  0  0  0  0
   -0.0887   -2.5558    0.5059 H   0  0  0  1  0  0  0  0  0  0  0  0
   -5.4757    0.0866    0.4771 H   0  0  0  1  0  0  0  0  0  0  0  0
   -4.6628   -1.2406    1.2711 H   0  0  0  1  0  0  0  0  0  0  0  0
   -5.1205   -1.3761   -0.4101 H   0  0  0  1  0  0  0  0  0  0  0  0
   -5.4270    6.7588    0.9408 N   0  3  0  1  0  0  0  0  0  0  0  0
   -5.4722    7.4024   -0.0591 O   0  0  0  1  0  0  0  0  0  0  0  0
   -6.2372    6.9648    1.9881 O   0  5  0  1  0  0  0  0  0  0  0  0
   -4.4505    5.7041    1.0288 C   0  0  0  1  0  0  0  0  0  0  0  0
   -3.6297    5.4406   -0.0515 C   0  0  0  1  0  0  0  0  0  0  0  0
   -2.6264    4.4901    0.0558 C   0  0  0  1  0  0  0  0  0  0  0  0
   -2.4504    3.8021    1.2415 C   0  0  0  1  0  0  0  0  0  0  0  0
   -3.2736    4.0662    2.3250 C   0  0  0  1  0  0  0  0  0  0  0  0
   -4.2738    5.0139    2.2179 C   0  0  0  1  0  0  0  0  0  0  0  0
   -1.4284    2.6939    1.3362 C   0  0  0  1  0  0  0  0  0  0  0  0
   -3.7648    5.9555   -0.9449 H   0  0  0  1  0  0  0  0  0  0  0  0
   -2.0062    4.2947   -0.7559 H   0  0  0  1  0  0  0  0  0  0  0  0
   -3.1385    3.5514    3.2185 H   0  0  0  1  0  0  0  0  0  0  0  0
   -4.8940    5.2093    3.0296 H   0  0  0  1  0  0  0  0  0  0  0  0
   -0.4563    3.0954    1.1394 H   0  0  0  1  0  0  0  0  0  0  0  0
   -1.4507    2.2795    2.3225 H   0  0  0  1  0  0  0  0  0  0  0  0
  1  4  1  0  0  0  0
  2  4  1  0  0  0  0
  2  5  2  0  0  0  0
  2  6  1  0  0  0  0
  3  4  1  0  0  0  0
  3  7  1  0  0  0  0
  3  8  1  0  0  0  0
  4 28  1  0  0  0  0
  6  9  1  0  0  0  0
  6 12  1  0  0  0  0
  8 10  1  0  0  0  0
  8 11  2  0  0  0  0
  9 13  1  0  0  0  0
  9 14  1  0  0  0  0
  9 15  1  0  0  0  0
 10 16  1  0  0  0  0
 10 17  1  0  0  0  0
 10 18  1  0  0  0  0
 19 20  2  0  0  0  0
 19 21  1  0  0  0  0
 19 22  1  0  0  0  0
 22 23  4  0  0  0  0
 22 27  4  0  0  0  0
 23 24  4  0  0  0  0
 23 29  1  0  0  0  0
 24 25  4  0  0  0  0
 24 30  1  0  0  0  0
 25 26  4  0  0  0  0
 25 28  1  0  0  0  0
 26 27  4  0  0  0  0
 26 31  1  0  0  0  0
 27 32  1  0  0  0  0
 28 33  1  0  0  0  0
 28 34  1  0  0  0  0
M  END
> <BCLConfClusterSize>
1

> <ConfClashScore>
0 

> <ConfOneFourInteractionScore>
-0.960318 

> <ConfScore>
-0.261843 

> <ConfScorePBest>
0.00706485 

> <ConfTolerance>
0.241879 

> <RosettaParamsInstructions>
M  ROOT 3
M  POLY_N_BB 3
M  POLY_CA_BB 4
M  POLY_C_BB 2
M  POLY_O_BB 5
M  POLY_IGNORE 9 10 11 12 13 14 15 16 17 18 
M  POLY_UPPER 6
M  POLY_LOWER 8
M  POLY_CHG 0
M  POLY_PROPERTIES ALPHA_AA L_AA PROTEIN AROMATIC POLYMER 
M  END

$$$$



 34 34  0  0  0  0  0  0  0  0999 V2000
   -0.0959    3.8915    2.4832 H   0  0  0  1  0  0  0  0  0  0  0  0
    0.9929    2.1780    1.8808 C   0  0  0  1  0  0  0  0  0  0  0  0
    0.3828    4.1081    0.4832 N   0  0  0  1  0  0  0  0  0  0  0  0
   -0.0257    3.2799    1.6080 C   0  0  0  1  0  0  0  0  0  0  0  0
    1.1363    1.7059    3.0078 O   0  0  0  1  0  0  0  0  0  0  0  0
    1.7042    1.7711    0.8256 N   0  0  0  1  0  0  0  0  0  0  0  0
    0.0039    3.9242   -0.4017 H   0  0  0  1  0  0  0  0  0  0  0  0
    1.2563    5.1104    0.6151 C   0  0  0  1  0  0  0  0  0  0  0  0
    2.7306    0.7446    0.9292 C   0  0  0  1  0  0  0  0  0  0  0  0
    1.7089    5.8070   -0.6745 C   0  0  0  1  0  0  0  0  0  0  0  0
    1.6367    5.5318    1.7042 O   0  0  0  1  0  0  0  0  0  0  0  0
    1.5288    2.1780   -0.0485 H   0  0  0  1  0  0  0  0  0  0  0  0
    2.4635    0.0485    1.6966 H   0  0  0  1  0  0  0  0  0  0  0  0
    3.6676    1.2006    1.1721 H   0  0  0  1  0  0  0  0  0  0  0  0
    2.8155    0.2299   -0.0050 H   0  0  0  1  0  0  0  0  0  0  0  0
    1.3083    5.2881   -1.5202 H   0  0  0  1  0  0  0  0  0  0  0  0
    2.7776    5.8014   -0.7263 H   0  0  0  1  0  0  0  0  0  0  0  0
    1.3565    6.8173   -0.6764 H   0  0  0  1  0  0  0  0  0  0  0  0
   -5.4006    6.7480    0.8981 N   0  3  0  1  0  0  0  0  0  0  0  0
   -5.2828    7.4703   -0.0403 O   0  0  0  1  0  0  0  0  0  0  0  0
   -6.3986    6.8494    1.7865 O   0  5  0  1  0  0  0  0  0  0  0  0
   -4.4377    5.7313    1.0842 C   0  0  0  1  0  0  0  0  0  0  0  0
   -3.6229    5.4847   -0.0047 C   0  0  0  1  0  0  0  0  0  0  0  0
   -2.6397    4.5105    0.0717 C   0  0  0  1  0  0  0  0  0  0  0  0
   -2.4777    3.7821    1.2351 C   0  0  0  1  0  0  0  0  0  0  0  0
   -3.2948    4.0293    2.3272 C   0  0  0  1  0  0  0  0  0  0  0  0
   -4.2750    5.0006    2.2509 C   0  0  0  1  0  0  0  0  0  0  0  0
   -1.4105    2.7164    1.3171 C   0  0  0  1  0  0  0  0  0  0  0  0
   -3.7475    6.0301   -0.8814 H   0  0  0  1  0  0  0  0  0  0  0  0
   -2.0240    4.3277   -0.7463 H   0  0  0  1  0  0  0  0  0  0  0  0
   -3.1702    3.4839    3.2039 H   0  0  0  1  0  0  0  0  0  0  0  0
   -4.8907    5.1834    3.0689 H   0  0  0  1  0  0  0  0  0  0  0  0
   -1.6710    2.0329    2.0980 H   0  0  0  1  0  0  0  0  0  0  0  0
   -1.3769    2.1955    0.3831 H   0  0  0  1  0  0  0  0  0  0  0  0
  1  4  1  0  0  0  0
  2  4  1  0  0  0  0
  2  5  2  0  0  0  0
  2  6  1  0  0  0  0
  3  4  1  0  0  0  0
  3  7  1  0  0  0  0
  3  8  1  0  0  0  0
  4 28  1  0  0  0  0
  6  9  1  0  0  0  0
  6 12  1  0  0  0  0
  8 10  1  0  0  0  0
  8 11  2  0  0  0  0
  9 13  1  0  0  0  0
  9 14  1  0  0  0  0
  9 15  1  0  0  0  0
 10 16  1  0  0  0  0
 10 17  1  0  0  0  0
 10 18  1  0  0  0  0
 19 20  2  0  0  0  0
 19 21  1  0  0  0  0
 19 22  1  0  0  0  0
 22 23  4  0  0  0  0
 22 27  4  0  0  0  0
 23 24  4  0  0  0  0
 23 29  1  0  0  0  0
 24 25  4  0  0  0  0
 24 30  1  0  0  0  0
 25 26  4  0  0  0  0
 25 28  1  0  0  0  0
 26 27  4  0  0  0  0
 26 31  1  0  0  0  0
 27 32  1  0  0  0  0
 28 33  1  0  0  0  0
 28 34  1  0  0  0  0
M  END
> <BCLConfClusterSize>
1

> <ConfClashScore>
0 

> <ConfOneFourInteractionScore>
-0.956443 

> <ConfScore>
-0.25924 

> <ConfScorePBest>
0.00703637 

> <ConfTolerance>
0.256225 

> <RosettaParamsInstructions>
M  ROOT 3
M  POLY_N_BB 3
M  POLY_CA_BB 4
M  POLY_C_BB 2
M  POLY_O_BB 5
M  POLY_IGNORE 9 10 11 12 13 14 15 16 17 18 
M  POLY_UPPER 6
M  POLY_LOWER 8
M  POLY_CHG 0
M  POLY_PROPERTIES ALPHA_AA L_AA PROTEIN AROMATIC POLYMER 
M  END

$$$$



 34 34  0  0  0  0  0  0  0  0999 V2000
   -1.9854    1.5122   -0.2602 H   0  0  0  1  0  0  0  0  0  0  0  0
   -0.6153    0.3778    0.8758 C   0  0  0  1  0  0  0  0  0  0  0  0
   -2.9562    0.8463    1.4397 N   0  0  0  1  0  0  0  0  0  0  0  0
   -1.7663    1.3599    0.7760 C   0  0  0  1  0  0  0  0  0  0  0  0
    0.1289    0.1670   -0.0810 O   0  0  0  1  0  0  0  0  0  0  0  0
   -0.4716   -0.2300    2.0569 N   0  0  0  1  0  0  0  0  0  0  0  0
   -3.1181    1.0548    2.3834 H   0  0  0  1  0  0  0  0  0  0  0  0
   -3.8260    0.0930    0.7661 C   0  0  0  1  0  0  0  0  0  0  0  0
    0.5746   -1.2108    2.3042 C   0  0  0  1  0  0  0  0  0  0  0  0
   -5.0428   -0.3654    1.5461 C   0  0  0  1  0  0  0  0  0  0  0  0
   -3.6684   -0.2202   -0.4132 O   0  0  0  1  0  0  0  0  0  0  0  0
   -1.0924   -0.0075    2.7818 H   0  0  0  1  0  0  0  0  0  0  0  0
    1.0645   -1.4504    1.3836 H   0  0  0  1  0  0  0  0  0  0  0  0
    0.1414   -2.0971    2.7187 H   0  0  0  1  0  0  0  0  0  0  0  0
    1.2871   -0.8061    2.9923 H   0  0  0  1  0  0  0  0  0  0  0  0
   -4.7325   -0.9919    2.3561 H   0  0  0  1  0  0  0  0  0  0  0  0
   -5.6942   -0.9154    0.8995 H   0  0  0  1  0  0  0  0  0  0  0  0
   -5.5602    0.4874    1.9331 H   0  0  0  1  0  0  0  0  0  0  0  0
   -5.4419    6.7456    0.9397 N   0  3  0  1  0  0  0  0  0  0  0  0
   -5.7186    7.1632   -0.1397 O   0  0  0  1  0  0  0  0  0  0  0  0
   -6.0267    7.1714    2.0676 O   0  5  0  1  0  0  0  0  0  0  0  0
   -4.4256    5.7301    1.0376 C   0  0  0  1  0  0  0  0  0  0  0  0
   -3.6416    5.4313   -0.0607 C   0  0  0  1  0  0  0  0  0  0  0  0
   -2.6592    4.4578    0.0331 C   0  0  0  1  0  0  0  0  0  0  0  0
   -2.4674    3.7822    1.2235 C   0  0  0  1  0  0  0  0  0  0  0  0
   -3.2536    4.0819    2.3251 C   0  0  0  1  0  0  0  0  0  0  0  0
   -4.2331    5.0525    2.2315 C   0  0  0  1  0  0  0  0  0  0  0  0
   -1.4174    2.7084    1.3841 C   0  0  0  1  0  0  0  0  0  0  0  0
   -3.7888    5.9368   -0.9576 H   0  0  0  1  0  0  0  0  0  0  0  0
   -2.0666    4.2357   -0.7922 H   0  0  0  1  0  0  0  0  0  0  0  0
   -3.1065    3.5763    3.2220 H   0  0  0  1  0  0  0  0  0  0  0  0
   -4.8256    5.2745    3.0568 H   0  0  0  1  0  0  0  0  0  0  0  0
   -0.5168    3.0557    0.9223 H   0  0  0  1  0  0  0  0  0  0  0  0
   -1.2495    2.5649    2.4311 H   0  0  0  1  0  0  0  0  0  0  0  0
  1  4  1  0  0  0  0
  2  4  1  0  0  0  0
  2  5  2  0  0  0  0
  2  6  1  0  0  0  0
  3  4  1  0  0  0  0
  3  7  1  0  0  0  0
  3  8  1  0  0  0  0
  4 28  1  0  0  0  0
  6  9  1  0  0  0  0
  6 12  1  0  0  0  0
  8 10  1  0  0  0  0
  8 11  2  0  0  0  0
  9 13  1  0  0  0  0
  9 14  1  0  0  0  0
  9 15  1  0  0  0  0
 10 16  1  0  0  0  0
 10 17  1  0  0  0  0
 10 18  1  0  0  0  0
 19 20  2  0  0  0  0
 19 21  1  0  0  0  0
 19 22  1  0  0  0  0
 22 23  4  0  0  0  0
 22 27  4  0  0  0  0
 23 24  4  0  0  0  0
 23 29  1  0  0  0  0
 24 25  4  0  0  0  0
 24 30  1  0  0  0  0
 25 26  4  0  0  0  0
 25 28  1  0  0  0  0
 26 27  4  0  0  0  0
 26 31  1  0  0  0  0
 27 32  1  0  0  0  0
 28 33  1  0  0  0  0
 28 34  1  0  0  0  0
M  END
> <BCLConfClusterSize>
1

> <ConfClashScore>
0 

> <ConfOneFourInteractionScore>
-0.960318 

> <ConfScore>
-0.25637 

> <ConfScorePBest>
0.00700789 

> <ConfTolerance>
0.245844 

> <RosettaParamsInstructions>
M  ROOT 3
M  POLY_N_BB 3
M  POLY_CA_BB 4
M  POLY_C_BB 2
M  POLY_O_BB 5
M  POLY_IGNORE 9 10 11 12 13 14 15 16 17 18 
M  POLY_UPPER 6
M  POLY_LOWER 8
M  POLY_CHG 0
M  POLY_PROPERTIES ALPHA_AA L_AA PROTEIN AROMATIC POLYMER 
M  END

$$$$



 34 34  0  0  0  0  0  0  0  0999 V2000
   -0.3868    3.5514    3.0995 H   0  0  0  1  0  0  0  0  0  0  0  0
    1.0104    2.3121    2.1539 C   0  0  0  1  0  0  0  0  0  0  0  0
    0.3721    4.5894    1.5034 N   0  0  0  1  0  0  0  0  0  0  0  0
   -0.0990    3.3437    2.0900 C   0  0  0  1  0  0  0  0  0  0  0  0
    0.9657    1.3866    2.9633 O   0  0  0  1  0  0  0  0  0  0  0  0
    2.0403    2.4394    1.3023 N   0  0  0  1  0  0  0  0  0  0  0  0
    0.0709    4.8317    0.6028 H   0  0  0  1  0  0  0  0  0  0  0  0
    1.2009    5.4141    2.1498 C   0  0  0  1  0  0  0  0  0  0  0  0
    3.2361    1.6157    1.3998 C   0  0  0  1  0  0  0  0  0  0  0  0
    1.5573    6.7500    1.4854 C   0  0  0  1  0  0  0  0  0  0  0  0
    1.6969    5.1666    3.2481 O   0  0  0  1  0  0  0  0  0  0  0  0
    1.9850    3.1104    0.5902 H   0  0  0  1  0  0  0  0  0  0  0  0
    3.0006    0.7027    1.9056 H   0  0  0  1  0  0  0  0  0  0  0  0
    3.9885    2.1431    1.9482 H   0  0  0  1  0  0  0  0  0  0  0  0
    3.5985    1.3957    0.4174 H   0  0  0  1  0  0  0  0  0  0  0  0
    2.4952    7.0985    1.8645 H   0  0  0  1  0  0  0  0  0  0  0  0
    0.7958    7.4699    1.7016 H   0  0  0  1  0  0  0  0  0  0  0  0
    1.6294    6.6135    0.4266 H   0  0  0  1  0  0  0  0  0  0  0  0
   -5.4282    6.7611    1.0033 N   0  3  0  1  0  0  0  0  0  0  0  0
   -6.0749    6.9749    1.9792 O   0  0  0  1  0  0  0  0  0  0  0  0
   -5.5497    7.4644   -0.1308 O   0  5  0  1  0  0  0  0  0  0  0  0
   -4.4656    5.6910    1.0446 C   0  0  0  1  0  0  0  0  0  0  0  0
   -3.6638    5.4266   -0.0497 C   0  0  0  1  0  0  0  0  0  0  0  0
   -2.6632    4.4713    0.0386 C   0  0  0  1  0  0  0  0  0  0  0  0
   -2.4709    3.7794    1.2195 C   0  0  0  1  0  0  0  0  0  0  0  0
   -3.2750    4.0444    2.3171 C   0  0  0  1  0  0  0  0  0  0  0  0
   -4.2725    4.9969    2.2289 C   0  0  0  1  0  0  0  0  0  0  0  0
   -1.3344    2.7985    1.3855 C   0  0  0  1  0  0  0  0  0  0  0  0
   -3.8112    5.9445   -0.9395 H   0  0  0  1  0  0  0  0  0  0  0  0
   -2.0573    4.2753   -0.7836 H   0  0  0  1  0  0  0  0  0  0  0  0
   -3.1276    3.5266    3.2069 H   0  0  0  1  0  0  0  0  0  0  0  0
   -4.8784    5.1929    3.0511 H   0  0  0  1  0  0  0  0  0  0  0  0
   -1.6969    1.9660    1.9517 H   0  0  0  1  0  0  0  0  0  0  0  0
   -1.0397    2.4669    0.4118 H   0  0  0  1  0  0  0  0  0  0  0  0
  1  4  1  0  0  0  0
  2  4  1  0  0  0  0
  2  5  2  0  0  0  0
  2  6  1  0  0  0  0
  3  4  1  0  0  0  0
  3  7  1  0  0  0  0
  3  8  1  0  0  0  0
  4 28  1  0  0  0  0
  6  9  1  0  0  0  0
  6 12  1  0  0  0  0
  8 10  1  0  0  0  0
  8 11  2  0  0  0  0
  9 13  1  0  0  0  0
  9 14  1  0  0  0  0
  9 15  1  0  0  0  0
 10 16  1  0  0  0  0
 10 17  1  0  0  0  0
 10 18  1  0  0  0  0
 19 20  2  0  0  0  0
 19 21  1  0  0  0  0
 19 22  1  0  0  0  0
 22 23  4  0  0  0  0
 22 27  4  0  0  0  0
 23 24  4  0  0  0  0
 23 29  1  0  0  0  0
 24 25  4  0  0  0  0
 24 30  1  0  0  0  0
 25 26  4  0  0  0  0
 25 28  1  0  0  0  0
 26 27  4  0  0  0  0
 26 31  1  0  0  0  0
 27 32  1  0  0  0  0
 28 33  1  0  0  0  0
 28 34  1  0  0  0  0
M  END
> <BCLConfClusterSize>
1

> <ConfClashScore>
0 

> <ConfOneFourInteractionScore>
-0.94165 

> <ConfScore>
-0.256225 

> <ConfScorePBest>
0.00697941 

> <ConfTolerance>
0.291365 

> <RosettaParamsInstructions>
M  ROOT 3
M  POLY_N_BB 3
M  POLY_CA_BB 4
M  POLY_C_BB 2
M  POLY_O_BB 5
M  POLY_IGNORE 9 10 11 12 13 14 15 16 17 18 
M  POLY_UPPER 6
M  POLY_LOWER 8
M  POLY_CHG 0
M  POLY_PROPERTIES ALPHA_AA L_AA PROTEIN AROMATIC POLYMER 
M  END

$$$$



 34 34  0  0  0  0  0  0  0  0999 V2000
    0.2295    3.9523    0.6379 H   0  0  0  1  0  0  0  0  0  0  0  0
    0.0570    4.2048    2.7166 C   0  0  0  1  0  0  0  0  0  0  0  0
    1.0053    2.2615    1.5168 N   0  0  0  1  0  0  0  0  0  0  0  0
    0.0158    3.3280    1.4802 C   0  0  0  1  0  0  0  0  0  0  0  0
   -0.2372    5.3982    2.6631 O   0  0  0  1  0  0  0  0  0  0  0  0
    0.4310    3.5943    3.8522 N   0  0  0  1  0  0  0  0  0  0  0  0
    0.6834    1.3412    1.4180 H   0  0  0  1  0  0  0  0  0  0  0  0
    2.3195    2.4426    1.6752 C   0  0  0  1  0  0  0  0  0  0  0  0
    0.5404    4.2435    5.1500 C   0  0  0  1  0  0  0  0  0  0  0  0
    3.1664    1.1913    1.6193 C   0  0  0  1  0  0  0  0  0  0  0  0
    2.8263    3.5490    1.8559 O   0  0  0  1  0  0  0  0  0  0  0  0
    0.6467    2.6396    3.8035 H   0  0  0  1  0  0  0  0  0  0  0  0
    0.1229    5.2271    5.0937 H   0  0  0  1  0  0  0  0  0  0  0  0
    1.5710    4.3093    5.4300 H   0  0  0  1  0  0  0  0  0  0  0  0
    0.0076    3.6715    5.8807 H   0  0  0  1  0  0  0  0  0  0  0  0
    3.0455    0.7205    0.6661 H   0  0  0  1  0  0  0  0  0  0  0  0
    2.8582    0.5176    2.3912 H   0  0  0  1  0  0  0  0  0  0  0  0
    4.1948    1.4504    1.7609 H   0  0  0  1  0  0  0  0  0  0  0  0
   -5.4859    6.7161    1.0541 N   0  3  0  1  0  0  0  0  0  0  0  0
   -6.3980    7.0348    1.7487 O   0  0  0  1  0  0  0  0  0  0  0  0
   -5.2113    7.3414   -0.0988 O   0  5  0  1  0  0  0  0  0  0  0  0
   -4.4537    5.7134    1.1081 C   0  0  0  1  0  0  0  0  0  0  0  0
   -3.6882    5.4511   -0.0124 C   0  0  0  1  0  0  0  0  0  0  0  0
   -2.6905    4.4900    0.0392 C   0  0  0  1  0  0  0  0  0  0  0  0
   -2.4649    3.7905    1.2096 C   0  0  0  1  0  0  0  0  0  0  0  0
   -3.2326    4.0535    2.3334 C   0  0  0  1  0  0  0  0  0  0  0  0
   -4.2272    5.0117    2.2819 C   0  0  0  1  0  0  0  0  0  0  0  0
   -1.3819    2.7391    1.2649 C   0  0  0  1  0  0  0  0  0  0  0  0
   -3.8607    5.9747   -0.8942 H   0  0  0  1  0  0  0  0  0  0  0  0
   -2.1119    4.2955   -0.8028 H   0  0  0  1  0  0  0  0  0  0  0  0
   -3.0601    3.5299    3.2153 H   0  0  0  1  0  0  0  0  0  0  0  0
   -4.8059    5.2062    3.1239 H   0  0  0  1  0  0  0  0  0  0  0  0
   -1.5975    2.0701    2.0716 H   0  0  0  1  0  0  0  0  0  0  0  0
   -1.3850    2.1981    0.3417 H   0  0  0  1  0  0  0  0  0  0  0  0
  1  4  1  0  0  0  0
  2  4  1  0  0  0  0
  2  5  2  0  0  0  0
  2  6  1  0  0  0  0
  3  4  1  0  0  0  0
  3  7  1  0  0  0  0
  3  8  1  0  0  0  0
  4 28  1  0  0  0  0
  6  9  1  0  0  0  0
  6 12  1  0  0  0  0
  8 10  1  0  0  0  0
  8 11  2  0  0  0  0
  9 13  1  0  0  0  0
  9 14  1  0  0  0  0
  9 15  1  0  0  0  0
 10 16  1  0  0  0  0
 10 17  1  0  0  0  0
 10 18  1  0  0  0  0
 19 20  2  0  0  0  0
 19 21  1  0  0  0  0
 19 22  1  0  0  0  0
 22 23  4  0  0  0  0
 22 27  4  0  0  0  0
 23 24  4  0  0  0  0
 23 29  1  0  0  0  0
 24 25  4  0  0  0  0
 24 30  1  0  0  0  0
 25 26  4  0  0  0  0
 25 28  1  0  0  0  0
 26 27  4  0  0  0  0
 26 31  1  0  0  0  0
 27 32  1  0  0  0  0
 28 33  1  0  0  0  0
 28 34  1  0  0  0  0
M  END
> <BCLConfClusterSize>
1

> <ConfClashScore>
0 

> <ConfOneFourInteractionScore>
-0.960318 

> <ConfScore>
-0.255936 

> <ConfScorePBest>
0.00695093 

> <ConfTolerance>
0.265534 

> <RosettaParamsInstructions>
M  ROOT 3
M  POLY_N_BB 3
M  POLY_CA_BB 4
M  POLY_C_BB 2
M  POLY_O_BB 5
M  POLY_IGNORE 9 10 11 12 13 14 15 16 17 18 
M  POLY_UPPER 6
M  POLY_LOWER 8
M  POLY_CHG 0
M  POLY_PROPERTIES ALPHA_AA L_AA PROTEIN AROMATIC POLYMER 
M  END

$$$$



 34 34  0  0  0  0  0  0  0  0999 V2000
   -2.5973    0.9882    1.5278 H   0  0  0  1  0  0  0  0  0  0  0  0
   -2.1820    1.2205   -0.5340 C   0  0  0  1  0  0  0  0  0  0  0  0
   -0.6546    0.3956    1.1072 N   0  0  0  1  0  0  0  0  0  0  0  0
   -1.7746    1.3098    0.9239 C   0  0  0  1  0  0  0  0  0  0  0  0
   -3.3540    1.3651   -0.8794 O   0  0  0  1  0  0  0  0  0  0  0  0
   -1.1885    0.9767   -1.4033 N   0  0  0  1  0  0  0  0  0  0  0  0
    0.1893    0.7464    1.4611 H   0  0  0  1  0  0  0  0  0  0  0  0
   -0.7391   -0.9170    0.8067 C   0  0  0  1  0  0  0  0  0  0  0  0
   -1.3543    0.8485   -2.8434 C   0  0  0  1  0  0  0  0  0  0  0  0
    0.4987   -1.7674    0.9818 C   0  0  0  1  0  0  0  0  0  0  0  0
   -1.7912   -1.4099    0.4020 O   0  0  0  1  0  0  0  0  0  0  0  0
   -0.2835    0.8776   -1.0408 H   0  0  0  1  0  0  0  0  0  0  0  0
   -2.3616    1.0916   -3.1100 H   0  0  0  1  0  0  0  0  0  0  0  0
   -1.1404   -0.1575   -3.1386 H   0  0  0  1  0  0  0  0  0  0  0  0
   -0.6828    1.5171   -3.3404 H   0  0  0  1  0  0  0  0  0  0  0  0
    0.8641   -1.6646    1.9822 H   0  0  0  1  0  0  0  0  0  0  0  0
    1.2518   -1.4468    0.2926 H   0  0  0  1  0  0  0  0  0  0  0  0
    0.2563   -2.7926    0.7945 H   0  0  0  1  0  0  0  0  0  0  0  0
   -5.4402    6.7435    0.9375 N   0  3  0  1  0  0  0  0  0  0  0  0
   -5.7508    7.1445   -0.1390 O   0  0  0  1  0  0  0  0  0  0  0  0
   -6.0128    7.2150    2.0536 O   0  5  0  1  0  0  0  0  0  0  0  0
   -4.4247    5.7277    1.0397 C   0  0  0  1  0  0  0  0  0  0  0  0
   -3.6412    5.4234   -0.0575 C   0  0  0  1  0  0  0  0  0  0  0  0
   -2.6596    4.4496    0.0402 C   0  0  0  1  0  0  0  0  0  0  0  0
   -2.4680    3.7791    1.2336 C   0  0  0  1  0  0  0  0  0  0  0  0
   -3.2537    4.0841    2.3340 C   0  0  0  1  0  0  0  0  0  0  0  0
   -4.2324    5.0551    2.2364 C   0  0  0  1  0  0  0  0  0  0  0  0
   -1.4025    2.7137    1.3393 C   0  0  0  1  0  0  0  0  0  0  0  0
   -3.7881    5.9252   -0.9566 H   0  0  0  1  0  0  0  0  0  0  0  0
   -2.0673    4.2235   -0.7842 H   0  0  0  1  0  0  0  0  0  0  0  0
   -3.1068    3.5823    3.2331 H   0  0  0  1  0  0  0  0  0  0  0  0
   -4.8246    5.2811    3.0609 H   0  0  0  1  0  0  0  0  0  0  0  0
   -0.5804    3.0213    0.7274 H   0  0  0  1  0  0  0  0  0  0  0  0
   -1.0908    2.6730    2.3621 H   0  0  0  1  0  0  0  0  0  0  0  0
  1  4  1  0  0  0  0
  2  4  1  0  0  0  0
  2  5  2  0  0  0  0
  2  6  1  0  0  0  0
  3  4  1  0  0  0  0
  3  7  1  0  0  0  0
  3  8  1  0  0  0  0
  4 28  1  0  0  0  0
  6  9  1  0  0  0  0
  6 12  1  0  0  0  0
  8 10  1  0  0  0  0
  8 11  2  0  0  0  0
  9 13  1  0  0  0  0
  9 14  1  0  0  0  0
  9 15  1  0  0  0  0
 10 16  1  0  0  0  0
 10 17  1  0  0  0  0
 10 18  1  0  0  0  0
 19 20  2  0  0  0  0
 19 21  1  0  0  0  0
 19 22  1  0  0  0  0
 22 23  4  0  0  0  0
 22 27  4  0  0  0  0
 23 24  4  0  0  0  0
 23 29  1  0  0  0  0
 24 25  4  0  0  0  0
 24 30  1  0  0  0  0
 25 26  4  0  0  0  0
 25 28  1  0  0  0  0
 26 27  4  0  0  0  0
 26 31  1  0  0  0  0
 27 32  1  0  0  0  0
 28 33  1  0  0  0  0
 28 34  1  0  0  0  0
M  END
> <BCLConfClusterSize>
1

> <ConfClashScore>
0 

> <ConfOneFourInteractionScore>
-0.94165 

> <ConfScore>
-0.255936 

> <ConfScorePBest>
0.00692245 

> <ConfTolerance>
0.267961 

> <RosettaParamsInstructions>
M  ROOT 3
M  POLY_N_BB 3
M  POLY_CA_BB 4
M  POLY_C_BB 2
M  POLY_O_BB 5
M  POLY_IGNORE 9 10 11 12 13 14 15 16 17 18 
M  POLY_UPPER 6
M  POLY_LOWER 8
M  POLY_CHG 0
M  POLY_PROPERTIES ALPHA_AA L_AA PROTEIN AROMATIC POLYMER 
M  END

$$$$



 34 34  0  0  0  0  0  0  0  0999 V2000
   -2.1897    1.2365   -0.0154 H   0  0  0  1  0  0  0  0  0  0  0  0
   -0.8445    0.2763    1.3095 C   0  0  0  1  0  0  0  0  0  0  0  0
   -3.1031    1.0524    1.8309 N   0  0  0  1  0  0  0  0  0  0  0  0
   -1.9245    1.3140    1.0183 C   0  0  0  1  0  0  0  0  0  0  0  0
   -0.6506   -0.1281    2.4552 O   0  0  0  1  0  0  0  0  0  0  0  0
   -0.1178   -0.1786    0.2848 N   0  0  0  1  0  0  0  0  0  0  0  0
   -3.1289    1.4413    2.7301 H   0  0  0  1  0  0  0  0  0  0  0  0
   -4.1509    0.3232    1.4440 C   0  0  0  1  0  0  0  0  0  0  0  0
    0.9753   -1.1223    0.4652 C   0  0  0  1  0  0  0  0  0  0  0  0
   -5.2826    0.2122    2.4471 C   0  0  0  1  0  0  0  0  0  0  0  0
   -4.2130   -0.2312    0.3475 O   0  0  0  1  0  0  0  0  0  0  0  0
   -0.3281    0.1342   -0.6198 H   0  0  0  1  0  0  0  0  0  0  0  0
    0.7354   -1.7993    1.2583 H   0  0  0  1  0  0  0  0  0  0  0  0
    1.8699   -0.5888    0.7103 H   0  0  0  1  0  0  0  0  0  0  0  0
    1.1242   -1.6725   -0.4403 H   0  0  0  1  0  0  0  0  0  0  0  0
   -5.7141    1.1782    2.6070 H   0  0  0  1  0  0  0  0  0  0  0  0
   -4.9024   -0.1660    3.3730 H   0  0  0  1  0  0  0  0  0  0  0  0
   -6.0298   -0.4539    2.0691 H   0  0  0  1  0  0  0  0  0  0  0  0
   -5.4535    6.7442    0.9884 N   0  3  0  1  0  0  0  0  0  0  0  0
   -6.1247    6.9358    1.9522 O   0  0  0  1  0  0  0  0  0  0  0  0
   -5.5496    7.3856   -0.1843 O   0  5  0  1  0  0  0  0  0  0  0  0
   -4.4357    5.7291    1.0731 C   0  0  0  1  0  0  0  0  0  0  0  0
   -3.6414    5.4560   -0.0245 C   0  0  0  1  0  0  0  0  0  0  0  0
   -2.6574    4.4829    0.0567 C   0  0  0  1  0  0  0  0  0  0  0  0
   -2.4743    3.7822    1.2339 C   0  0  0  1  0  0  0  0  0  0  0  0
   -3.2708    4.0560    2.3348 C   0  0  0  1  0  0  0  0  0  0  0  0
   -4.2518    5.0262    2.2536 C   0  0  0  1  0  0  0  0  0  0  0  0
   -1.3922    2.7288    1.2663 C   0  0  0  1  0  0  0  0  0  0  0  0
   -3.7820    5.9805   -0.9115 H   0  0  0  1  0  0  0  0  0  0  0  0
   -2.0571    4.2802   -0.7680 H   0  0  0  1  0  0  0  0  0  0  0  0
   -3.1302    3.5315    3.2218 H   0  0  0  1  0  0  0  0  0  0  0  0
   -4.8521    5.2289    3.0784 H   0  0  0  1  0  0  0  0  0  0  0  0
   -0.6706    2.9585    0.5104 H   0  0  0  1  0  0  0  0  0  0  0  0
   -0.9226    2.7524    2.2274 H   0  0  0  1  0  0  0  0  0  0  0  0
  1  4  1  0  0  0  0
  2  4  1  0  0  0  0
  2  5  2  0  0  0  0
  2  6  1  0  0  0  0
  3  4  1  0  0  0  0
  3  7  1  0  0  0  0
  3  8  1  0  0  0  0
  4 28  1  0  0  0  0
  6  9  1  0  0  0  0
  6 12  1  0  0  0  0
  8 10  1  0  0  0  0
  8 11  2  0  0  0  0
  9 13  1  0  0  0  0
  9 14  1  0  0  0  0
  9 15  1  0  0  0  0
 10 16  1  0  0  0  0
 10 17  1  0  0  0  0
 10 18  1  0  0  0  0
 19 20  2  0  0  0  0
 19 21  1  0  0  0  0
 19 22  1  0  0  0  0
 22 23  4  0  0  0  0
 22 27  4  0  0  0  0
 23 24  4  0  0  0  0
 23 29  1  0  0  0  0
 24 25  4  0  0  0  0
 24 30  1  0  0  0  0
 25 26  4  0  0  0  0
 25 28  1  0  0  0  0
 26 27  4  0  0  0  0
 26 31  1  0  0  0  0
 27 32  1  0  0  0  0
 28 33  1  0  0  0  0
 28 34  1  0  0  0  0
M  END
> <BCLConfClusterSize>
1

> <ConfClashScore>
0 

> <ConfOneFourInteractionScore>
-0.987695 

> <ConfScore>
-0.25375 

> <ConfScorePBest>
0.00689397 

> <ConfTolerance>
0.285355 

> <RosettaParamsInstructions>
M  ROOT 3
M  POLY_N_BB 3
M  POLY_CA_BB 4
M  POLY_C_BB 2
M  POLY_O_BB 5
M  POLY_IGNORE 9 10 11 12 13 14 15 16 17 18 
M  POLY_UPPER 6
M  POLY_LOWER 8
M  POLY_CHG 0
M  POLY_PROPERTIES ALPHA_AA L_AA PROTEIN AROMATIC POLYMER 
M  END

$$$$



 34 34  0  0  0  0  0  0  0  0999 V2000
   -1.6449    2.1702   -0.6908 H   0  0  0  1  0  0  0  0  0  0  0  0
   -0.1109    0.9616    0.0410 C   0  0  0  1  0  0  0  0  0  0  0  0
   -2.5587    0.7320    0.4336 N   0  0  0  1  0  0  0  0  0  0  0  0
   -1.4494    1.6503    0.2237 C   0  0  0  1  0  0  0  0  0  0  0  0
    0.7572    1.4370   -0.6896 O   0  0  0  1  0  0  0  0  0  0  0  0
    0.0531   -0.1793    0.7200 N   0  0  0  1  0  0  0  0  0  0  0  0
   -3.0136    0.7304    1.3017 H   0  0  0  1  0  0  0  0  0  0  0  0
   -2.9784   -0.1091   -0.5158 C   0  0  0  1  0  0  0  0  0  0  0  0
    1.2854   -0.9509    0.6574 C   0  0  0  1  0  0  0  0  0  0  0  0
   -4.0500   -1.0959   -0.0949 C   0  0  0  1  0  0  0  0  0  0  0  0
   -2.5356   -0.0985   -1.6636 O   0  0  0  1  0  0  0  0  0  0  0  0
   -0.6822   -0.5068    1.2791 H   0  0  0  1  0  0  0  0  0  0  0  0
    1.9889   -0.4498    0.0259 H   0  0  0  1  0  0  0  0  0  0  0  0
    1.0778   -1.9222    0.2594 H   0  0  0  1  0  0  0  0  0  0  0  0
    1.6954   -1.0481    1.6409 H   0  0  0  1  0  0  0  0  0  0  0  0
   -4.9516   -0.5676    0.1350 H   0  0  0  1  0  0  0  0  0  0  0  0
   -3.7206   -1.6321    0.7705 H   0  0  0  1  0  0  0  0  0  0  0  0
   -4.2339   -1.7843   -0.8931 H   0  0  0  1  0  0  0  0  0  0  0  0
   -5.4470    6.7411    0.9861 N   0  3  0  1  0  0  0  0  0  0  0  0
   -6.0999    6.9858    1.9505 O   0  0  0  1  0  0  0  0  0  0  0  0
   -5.6374    7.3875   -0.1722 O   0  5  0  1  0  0  0  0  0  0  0  0
   -4.4292    5.7259    1.0692 C   0  0  0  1  0  0  0  0  0  0  0  0
   -3.6320    5.4576   -0.0274 C   0  0  0  1  0  0  0  0  0  0  0  0
   -2.6481    4.4843    0.0522 C   0  0  0  1  0  0  0  0  0  0  0  0
   -2.4679    3.7786    1.2269 C   0  0  0  1  0  0  0  0  0  0  0  0
   -3.2674    4.0476    2.3268 C   0  0  0  1  0  0  0  0  0  0  0  0
   -4.2483    5.0180    2.2472 C   0  0  0  1  0  0  0  0  0  0  0  0
   -1.3999    2.7140    1.3127 C   0  0  0  1  0  0  0  0  0  0  0  0
   -3.7703    5.9859   -0.9125 H   0  0  0  1  0  0  0  0  0  0  0  0
   -2.0455    4.2853   -0.7717 H   0  0  0  1  0  0  0  0  0  0  0  0
   -3.1291    3.5193    3.2119 H   0  0  0  1  0  0  0  0  0  0  0  0
   -4.8508    5.2170    3.0712 H   0  0  0  1  0  0  0  0  0  0  0  0
   -0.4469    3.1974    1.2588 H   0  0  0  1  0  0  0  0  0  0  0  0
   -1.4984    2.2230    2.2583 H   0  0  0  1  0  0  0  0  0  0  0  0
  1  4  1  0  0  0  0
  2  4  1  0  0  0  0
  2  5  2  0  0  0  0
  2  6  1  0  0  0  0
  3  4  1  0  0  0  0
  3  7  1  0  0  0  0
  3  8  1  0  0  0  0
  4 28  1  0  0  0  0
  6  9  1  0  0  0  0
  6 12  1  0  0  0  0
  8 10  1  0  0  0  0
  8 11  2  0  0  0  0
  9 13  1  0  0  0  0
  9 14  1  0  0  0  0
  9 15  1  0  0  0  0
 10 16  1  0  0  0  0
 10 17  1  0  0  0  0
 10 18  1  0  0  0  0
 19 20  2  0  0  0  0
 19 21  1  0  0  0  0
 19 22  1  0  0  0  0
 22 23  4  0  0  0  0
 22 27  4  0  0  0  0
 23 24  4  0  0  0  0
 23 29  1  0  0  0  0
 24 25  4  0  0  0  0
 24 30  1  0  0  0  0
 25 26  4  0  0  0  0
 25 28  1  0  0  0  0
 26 27  4  0  0  0  0
 26 31  1  0  0  0  0
 27 32  1  0  0  0  0
 28 33  1  0  0  0  0
 28 34  1  0  0  0  0
M  END
> <BCLConfClusterSize>
1

> <ConfClashScore>
0 

> <ConfOneFourInteractionScore>
-0.960318 

> <ConfScore>
-0.251334 

> <ConfScorePBest>
0.00686549 

> <ConfTolerance>
0.284836 

> <RosettaParamsInstructions>
M  ROOT 3
M  POLY_N_BB 3
M  POLY_CA_BB 4
M  POLY_C_BB 2
M  POLY_O_BB 5
M  POLY_IGNORE 9 10 11 12 13 14 15 16 17 18 
M  POLY_UPPER 6
M  POLY_LOWER 8
M  POLY_CHG 0
M  POLY_PROPERTIES ALPHA_AA L_AA PROTEIN AROMATIC POLYMER 
M  END

$$$$



 34 34  0  0  0  0  0  0  0  0999 V2000
   -0.1119    3.8985    2.4643 H   0  0  0  1  0  0  0  0  0  0  0  0
    1.0196    2.2146    1.9095 C   0  0  0  1  0  0  0  0  0  0  0  0
    0.4894    4.1097    0.5032 N   0  0  0  1  0  0  0  0  0  0  0  0
   -0.0102    3.2823    1.5955 C   0  0  0  1  0  0  0  0  0  0  0  0
    0.9313    1.5251    2.9121 O   0  0  0  1  0  0  0  0  0  0  0  0
    2.0100    2.0873    1.0259 N   0  0  0  1  0  0  0  0  0  0  0  0
    0.0783    4.0229   -0.3822 H   0  0  0  1  0  0  0  0  0  0  0  0
    1.4965    4.9892    0.6690 C   0  0  0  1  0  0  0  0  0  0  0  0
    3.1493    1.2322    1.3234 C   0  0  0  1  0  0  0  0  0  0  0  0
    1.7715    5.8442   -0.5614 C   0  0  0  1  0  0  0  0  0  0  0  0
    2.1523    5.1161    1.7022 O   0  0  0  1  0  0  0  0  0  0  0  0
    1.9706    2.5707    0.1743 H   0  0  0  1  0  0  0  0  0  0  0  0
    2.8365    0.4275    1.9555 H   0  0  0  1  0  0  0  0  0  0  0  0
    3.9039    1.8043    1.8216 H   0  0  0  1  0  0  0  0  0  0  0  0
    3.5452    0.8360    0.4117 H   0  0  0  1  0  0  0  0  0  0  0  0
    1.6785    5.2434   -1.4418 H   0  0  0  1  0  0  0  0  0  0  0  0
    2.7632    6.2421   -0.5045 H   0  0  0  1  0  0  0  0  0  0  0  0
    1.0661    6.6477   -0.6020 H   0  0  0  1  0  0  0  0  0  0  0  0
   -5.4384    6.7406    0.9827 N   0  3  0  1  0  0  0  0  0  0  0  0
   -6.0050    7.1251    1.9560 O   0  0  0  1  0  0  0  0  0  0  0  0
   -5.7893    7.2963   -0.1850 O   0  5  0  1  0  0  0  0  0  0  0  0
   -4.4232    5.7231    1.0702 C   0  0  0  1  0  0  0  0  0  0  0  0
   -3.6119    5.4634   -0.0182 C   0  0  0  1  0  0  0  0  0  0  0  0
   -2.6305    4.4880    0.0657 C   0  0  0  1  0  0  0  0  0  0  0  0
   -2.4669    3.7715    1.2363 C   0  0  0  1  0  0  0  0  0  0  0  0
   -3.2805    4.0318    2.3279 C   0  0  0  1  0  0  0  0  0  0  0  0
   -4.2589    5.0043    2.2440 C   0  0  0  1  0  0  0  0  0  0  0  0
   -1.3867    2.7163    1.2718 C   0  0  0  1  0  0  0  0  0  0  0  0
   -3.7377    5.9998   -0.9003 H   0  0  0  1  0  0  0  0  0  0  0  0
   -2.0174    4.2954   -0.7520 H   0  0  0  1  0  0  0  0  0  0  0  0
   -3.1546    3.4954    3.2100 H   0  0  0  1  0  0  0  0  0  0  0  0
   -4.8720    5.1969    3.0617 H   0  0  0  1  0  0  0  0  0  0  0  0
   -1.6416    1.9930    2.0180 H   0  0  0  1  0  0  0  0  0  0  0  0
   -1.3430    2.2412    0.3141 H   0  0  0  1  0  0  0  0  0  0  0  0
  1  4  1  0  0  0  0
  2  4  1  0  0  0  0
  2  5  2  0  0  0  0
  2  6  1  0  0  0  0
  3  4  1  0  0  0  0
  3  7  1  0  0  0  0
  3  8  1  0  0  0  0
  4 28  1  0  0  0  0
  6  9  1  0  0  0  0
  6 12  1  0  0  0  0
  8 10  1  0  0  0  0
  8 11  2  0  0  0  0
  9 13  1  0  0  0  0
  9 14  1  0  0  0  0
  9 15  1  0  0  0  0
 10 16  1  0  0  0  0
 10 17  1  0  0  0  0
 10 18  1  0  0  0  0
 19 20  2  0  0  0  0
 19 21  1  0  0  0  0
 19 22  1  0  0  0  0
 22 23  4  0  0  0  0
 22 27  4  0  0  0  0
 23 24  4  0  0  0  0
 23 29  1  0  0  0  0
 24 25  4  0  0  0  0
 24 30  1  0  0  0  0
 25 26  4  0  0  0  0
 25 28  1  0  0  0  0
 26 27  4  0  0  0  0
 26 31  1  0  0  0  0
 27 32  1  0  0  0  0
 28 33  1  0  0  0  0
 28 34  1  0  0  0  0
M  END
> <BCLConfClusterSize>
1

> <ConfClashScore>
0 

> <ConfOneFourInteractionScore>
-0.94165 

> <ConfScore>
-0.247109 

> <ConfScorePBest>
0.00683701 

> <ConfTolerance>
0.255201 

> <RosettaParamsInstructions>
M  ROOT 3
M  POLY_N_BB 3
M  POLY_CA_BB 4
M  POLY_C_BB 2
M  POLY_O_BB 5
M  POLY_IGNORE 9 10 11 12 13 14 15 16 17 18 
M  POLY_UPPER 6
M  POLY_LOWER 8
M  POLY_CHG 0
M  POLY_PROPERTIES ALPHA_AA L_AA PROTEIN AROMATIC POLYMER 
M  END

$$$$



 34 34  0  0  0  0  0  0  0  0999 V2000
   -0.3336    3.4756    2.7822 H   0  0  0  1  0  0  0  0  0  0  0  0
    0.6525    1.7833    2.0614 C   0  0  0  1  0  0  0  0  0  0  0  0
    0.5123    3.9855    0.9740 N   0  0  0  1  0  0  0  0  0  0  0  0
   -0.1494    3.0184    1.8325 C   0  0  0  1  0  0  0  0  0  0  0  0
    0.1767    0.8129    2.6492 O   0  0  0  1  0  0  0  0  0  0  0  0
    1.9004    1.8071    1.5908 N   0  0  0  1  0  0  0  0  0  0  0  0
    0.4837    3.8755    0.0007 H   0  0  0  1  0  0  0  0  0  0  0  0
    1.1599    5.0247    1.5087 C   0  0  0  1  0  0  0  0  0  0  0  0
    2.7651    0.6479    1.7539 C   0  0  0  1  0  0  0  0  0  0  0  0
    1.8837    5.9216    0.5301 C   0  0  0  1  0  0  0  0  0  0  0  0
    1.1773    5.2528    2.7153 O   0  0  0  1  0  0  0  0  0  0  0  0
    2.2357    2.6068    1.1342 H   0  0  0  1  0  0  0  0  0  0  0  0
    2.1709   -0.2418    1.7678 H   0  0  0  1  0  0  0  0  0  0  0  0
    3.3033    0.7316    2.6749 H   0  0  0  1  0  0  0  0  0  0  0  0
    3.4569    0.6018    0.9389 H   0  0  0  1  0  0  0  0  0  0  0  0
    1.7744    5.5313   -0.4602 H   0  0  0  1  0  0  0  0  0  0  0  0
    2.9222    5.9620    0.7846 H   0  0  0  1  0  0  0  0  0  0  0  0
    1.4667    6.9060    0.5733 H   0  0  0  1  0  0  0  0  0  0  0  0
   -5.4651    6.7222    0.9725 N   0  3  0  1  0  0  0  0  0  0  0  0
   -6.0627    7.0270    1.9554 O   0  0  0  1  0  0  0  0  0  0  0  0
   -5.7357    7.2231   -0.2406 O   0  5  0  1  0  0  0  0  0  0  0  0
   -4.3959    5.7653    1.0942 C   0  0  0  1  0  0  0  0  0  0  0  0
   -3.5982    5.4987   -0.0025 C   0  0  0  1  0  0  0  0  0  0  0  0
   -2.6318    4.5073    0.0678 C   0  0  0  1  0  0  0  0  0  0  0  0
   -2.4697    3.7819    1.2330 C   0  0  0  1  0  0  0  0  0  0  0  0
   -3.2697    4.0492    2.3330 C   0  0  0  1  0  0  0  0  0  0  0  0
   -4.2332    5.0376    2.2627 C   0  0  0  1  0  0  0  0  0  0  0  0
   -1.4780    2.6426    1.2344 C   0  0  0  1  0  0  0  0  0  0  0  0
   -3.7229    6.0419   -0.8806 H   0  0  0  1  0  0  0  0  0  0  0  0
   -2.0288    4.3094   -0.7561 H   0  0  0  1  0  0  0  0  0  0  0  0
   -3.1450    3.5060    3.2111 H   0  0  0  1  0  0  0  0  0  0  0  0
   -4.8361    5.2355    3.0867 H   0  0  0  1  0  0  0  0  0  0  0  0
   -1.8897    1.8334    1.8005 H   0  0  0  1  0  0  0  0  0  0  0  0
   -1.3197    2.3277    0.2241 H   0  0  0  1  0  0  0  0  0  0  0  0
  1  4  1  0  0  0  0
  2  4  1  0  0  0  0
  2  5  2  0  0  0  0
  2  6  1  0  0  0  0
  3  4  1  0  0  0  0
  3  7  1  0  0  0  0
  3  8  1  0  0  0  0
  4 28  1  0  0  0  0
  6  9  1  0  0  0  0
  6 12  1  0  0  0  0
  8 10  1  0  0  0  0
  8 11  2  0  0  0  0
  9 13  1  0  0  0  0
  9 14  1  0  0  0  0
  9 15  1  0  0  0  0
 10 16  1  0  0  0  0
 10 17  1  0  0  0  0
 10 18  1  0  0  0  0
 19 20  2  0  0  0  0
 19 21  1  0  0  0  0
 19 22  1  0  0  0  0
 22 23  4  0  0  0  0
 22 27  4  0  0  0  0
 23 24  4  0  0  0  0
 23 29  1  0  0  0  0
 24 25  4  0  0  0  0
 24 30  1  0  0  0  0
 25 26  4  0  0  0  0
 25 28  1  0  0  0  0
 26 27  4  0  0  0  0
 26 31  1  0  0  0  0
 27 32  1  0  0  0  0
 28 33  1  0  0  0  0
 28 34  1  0  0  0  0
M  END
> <BCLConfClusterSize>
1

> <ConfClashScore>
0 

> <ConfOneFourInteractionScore>
-0.960318 

> <ConfScore>
-0.241535 

> <ConfScorePBest>
0.00680853 

> <ConfTolerance>
0.250658 

> <RosettaParamsInstructions>
M  ROOT 3
M  POLY_N_BB 3
M  POLY_CA_BB 4
M  POLY_C_BB 2
M  POLY_O_BB 5
M  POLY_IGNORE 9 10 11 12 13 14 15 16 17 18 
M  POLY_UPPER 6
M  POLY_LOWER 8
M  POLY_CHG 0
M  POLY_PROPERTIES ALPHA_AA L_AA PROTEIN AROMATIC POLYMER 
M  END

$$$$



 34 34  0  0  0  0  0  0  0  0999 V2000
   -2.5526    0.9587    1.0833 H   0  0  0  1  0  0  0  0  0  0  0  0
   -2.4026    1.8202   -0.8406 C   0  0  0  1  0  0  0  0  0  0  0  0
   -0.6420    0.5723    0.4001 N   0  0  0  1  0  0  0  0  0  0  0  0
   -1.7974    1.4506    0.5066 C   0  0  0  1  0  0  0  0  0  0  0  0
   -3.6101    2.0379   -0.9311 O   0  0  0  1  0  0  0  0  0  0  0  0
   -1.5492    1.9743   -1.8653 N   0  0  0  1  0  0  0  0  0  0  0  0
    0.2387    0.9159    0.6584 H   0  0  0  1  0  0  0  0  0  0  0  0
   -0.7402   -0.6863   -0.0376 C   0  0  0  1  0  0  0  0  0  0  0  0
   -1.9971    2.3322   -3.2029 C   0  0  0  1  0  0  0  0  0  0  0  0
    0.5528   -1.4780   -0.0617 C   0  0  0  1  0  0  0  0  0  0  0  0
   -1.8010   -1.1870   -0.4011 O   0  0  0  1  0  0  0  0  0  0  0  0
   -0.5913    1.8411   -1.7072 H   0  0  0  1  0  0  0  0  0  0  0  0
   -2.7836    3.0546   -3.1349 H   0  0  0  1  0  0  0  0  0  0  0  0
   -2.3583    1.4583   -3.7036 H   0  0  0  1  0  0  0  0  0  0  0  0
   -1.1789    2.7470   -3.7537 H   0  0  0  1  0  0  0  0  0  0  0  0
    0.3321   -2.5239   -0.0132 H   0  0  0  1  0  0  0  0  0  0  0  0
    1.1557   -1.2016    0.7780 H   0  0  0  1  0  0  0  0  0  0  0  0
    1.0829   -1.2672   -0.9669 H   0  0  0  1  0  0  0  0  0  0  0  0
   -5.4314    6.7555    0.9656 N   0  3  0  1  0  0  0  0  0  0  0  0
   -6.0411    6.9943    1.9592 O   0  0  0  1  0  0  0  0  0  0  0  0
   -5.5882    7.2685   -0.2624 O   0  5  0  1  0  0  0  0  0  0  0  0
   -4.4409    5.7355    1.0980 C   0  0  0  1  0  0  0  0  0  0  0  0
   -3.6460    5.4780   -0.0031 C   0  0  0  1  0  0  0  0  0  0  0  0
   -2.6628    4.5031    0.0645 C   0  0  0  1  0  0  0  0  0  0  0  0
   -2.4810    3.7850    1.2313 C   0  0  0  1  0  0  0  0  0  0  0  0
   -3.2781    4.0431    2.3356 C   0  0  0  1  0  0  0  0  0  0  0  0
   -4.2583    5.0151    2.2681 C   0  0  0  1  0  0  0  0  0  0  0  0
   -1.3997    2.7305    1.2489 C   0  0  0  1  0  0  0  0  0  0  0  0
   -3.7856    6.0157   -0.8823 H   0  0  0  1  0  0  0  0  0  0  0  0
   -2.0621    4.3122   -0.7627 H   0  0  0  1  0  0  0  0  0  0  0  0
   -3.1385    3.5055    3.2148 H   0  0  0  1  0  0  0  0  0  0  0  0
   -4.8590    5.2061    3.0953 H   0  0  0  1  0  0  0  0  0  0  0  0
   -0.5231    3.1338    0.7866 H   0  0  0  1  0  0  0  0  0  0  0  0
   -1.1840    2.4808    2.2667 H   0  0  0  1  0  0  0  0  0  0  0  0
  1  4  1  0  0  0  0
  2  4  1  0  0  0  0
  2  5  2  0  0  0  0
  2  6  1  0  0  0  0
  3  4  1  0  0  0  0
  3  7  1  0  0  0  0
  3  8  1  0  0  0  0
  4 28  1  0  0  0  0
  6  9  1  0  0  0  0
  6 12  1  0  0  0  0
  8 10  1  0  0  0  0
  8 11  2  0  0  0  0
  9 13  1  0  0  0  0
  9 14  1  0  0  0  0
  9 15  1  0  0  0  0
 10 16  1  0  0  0  0
 10 17  1  0  0  0  0
 10 18  1  0  0  0  0
 19 20  2  0  0  0  0
 19 21  1  0  0  0  0
 19 22  1  0  0  0  0
 22 23  4  0  0  0  0
 22 27  4  0  0  0  0
 23 24  4  0  0  0  0
 23 29  1  0  0  0  0
 24 25  4  0  0  0  0
 24 30  1  0  0  0  0
 25 26  4  0  0  0  0
 25 28  1  0  0  0  0
 26 27  4  0  0  0  0
 26 31  1  0  0  0  0
 27 32  1  0  0  0  0
 28 33  1  0  0  0  0
 28 34  1  0  0  0  0
M  END
> <BCLConfClusterSize>
1

> <ConfClashScore>
0 

> <ConfOneFourInteractionScore>
-0.956443 

> <ConfScore>
-0.236255 

> <ConfScorePBest>
0.00678005 

> <ConfTolerance>
0.319961 

> <RosettaParamsInstructions>
M  ROOT 3
M  POLY_N_BB 3
M  POLY_CA_BB 4
M  POLY_C_BB 2
M  POLY_O_BB 5
M  POLY_IGNORE 9 10 11 12 13 14 15 16 17 18 
M  POLY_UPPER 6
M  POLY_LOWER 8
M  POLY_CHG 0
M  POLY_PROPERTIES ALPHA_AA L_AA PROTEIN AROMATIC POLYMER 
M  END

$$$$



 34 34  0  0  0  0  0  0  0  0999 V2000
   -2.4150    1.1778    0.1657 H   0  0  0  1  0  0  0  0  0  0  0  0
   -1.0983    0.1922    1.5223 C   0  0  0  1  0  0  0  0  0  0  0  0
   -3.2227    1.2179    2.0823 N   0  0  0  1  0  0  0  0  0  0  0  0
   -2.0872    1.3051    1.1762 C   0  0  0  1  0  0  0  0  0  0  0  0
   -0.7100    0.0301    2.6784 O   0  0  0  1  0  0  0  0  0  0  0  0
   -0.6676   -0.6010    0.5286 N   0  0  0  1  0  0  0  0  0  0  0  0
   -3.0575    1.2109    3.0483 H   0  0  0  1  0  0  0  0  0  0  0  0
   -4.4825    1.1472    1.6431 C   0  0  0  1  0  0  0  0  0  0  0  0
    0.3968   -1.5753    0.7173 C   0  0  0  1  0  0  0  0  0  0  0  0
   -5.5483    1.0304    2.7152 C   0  0  0  1  0  0  0  0  0  0  0  0
   -4.7781    1.1737    0.4491 O   0  0  0  1  0  0  0  0  0  0  0  0
   -1.0846   -0.5212   -0.3547 H   0  0  0  1  0  0  0  0  0  0  0  0
    1.2922   -1.0723    1.0176 H   0  0  0  1  0  0  0  0  0  0  0  0
    0.5710   -2.0953   -0.2015 H   0  0  0  1  0  0  0  0  0  0  0  0
    0.1097   -2.2746    1.4746 H   0  0  0  1  0  0  0  0  0  0  0  0
   -5.4701    0.0768    3.1942 H   0  0  0  1  0  0  0  0  0  0  0  0
   -6.5157    1.1265    2.2681 H   0  0  0  1  0  0  0  0  0  0  0  0
   -5.4113    1.8056    3.4399 H   0  0  0  1  0  0  0  0  0  0  0  0
   -5.4520    6.7313    0.9253 N   0  3  0  1  0  0  0  0  0  0  0  0
   -5.6668    7.1856   -0.1534 O   0  0  0  1  0  0  0  0  0  0  0  0
   -6.1463    7.0702    2.0201 O   0  5  0  1  0  0  0  0  0  0  0  0
   -4.3906    5.7676    1.0599 C   0  0  0  1  0  0  0  0  0  0  0  0
   -3.6093    5.4633   -0.0389 C   0  0  0  1  0  0  0  0  0  0  0  0
   -2.6517    4.4646    0.0465 C   0  0  0  1  0  0  0  0  0  0  0  0
   -2.4819    3.7696    1.2290 C   0  0  0  1  0  0  0  0  0  0  0  0
   -3.2653    4.0747    2.3311 C   0  0  0  1  0  0  0  0  0  0  0  0
   -4.2200    5.0704    2.2458 C   0  0  0  1  0  0  0  0  0  0  0  0
   -1.4426    2.6774    1.3211 C   0  0  0  1  0  0  0  0  0  0  0  0
   -3.7400    5.9835   -0.9299 H   0  0  0  1  0  0  0  0  0  0  0  0
   -2.0612    4.2384   -0.7792 H   0  0  0  1  0  0  0  0  0  0  0  0
   -3.1347    3.5544    3.2221 H   0  0  0  1  0  0  0  0  0  0  0  0
   -4.8106    5.2966    3.0714 H   0  0  0  1  0  0  0  0  0  0  0  0
   -0.7230    2.8112    0.5407 H   0  0  0  1  0  0  0  0  0  0  0  0
   -0.9543    2.7371    2.2713 H   0  0  0  1  0  0  0  0  0  0  0  0
  1  4  1  0  0  0  0
  2  4  1  0  0  0  0
  2  5  2  0  0  0  0
  2  6  1  0  0  0  0
  3  4  1  0  0  0  0
  3  7  1  0  0  0  0
  3  8  1  0  0  0  0
  4 28  1  0  0  0  0
  6  9  1  0  0  0  0
  6 12  1  0  0  0  0
  8 10  1  0  0  0  0
  8 11  2  0  0  0  0
  9 13  1  0  0  0  0
  9 14  1  0  0  0  0
  9 15  1  0  0  0  0
 10 16  1  0  0  0  0
 10 17  1  0  0  0  0
 10 18  1  0  0  0  0
 19 20  2  0  0  0  0
 19 21  1  0  0  0  0
 19 22  1  0  0  0  0
 22 23  4  0  0  0  0
 22 27  4  0  0  0  0
 23 24  4  0  0  0  0
 23 29  1  0  0  0  0
 24 25  4  0  0  0  0
 24 30  1  0  0  0  0
 25 26  4  0  0  0  0
 25 28  1  0  0  0  0
 26 27  4  0  0  0  0
 26 31  1  0  0  0  0
 27 32  1  0  0  0  0
 28 33  1  0  0  0  0
 28 34  1  0  0  0  0
M  END
> <BCLConfClusterSize>
1

> <ConfClashScore>
0 

> <ConfOneFourInteractionScore>
-0.976985 

> <ConfScore>
-0.224384 

> <ConfScorePBest>
0.00675157 

> <ConfTolerance>
0.313954 

> <RosettaParamsInstructions>
M  ROOT 3
M  POLY_N_BB 3
M  POLY_CA_BB 4
M  POLY_C_BB 2
M  POLY_O_BB 5
M  POLY_IGNORE 9 10 11 12 13 14 15 16 17 18 
M  POLY_UPPER 6
M  POLY_LOWER 8
M  POLY_CHG 0
M  POLY_PROPERTIES ALPHA_AA L_AA PROTEIN AROMATIC POLYMER 
M  END

$$$$



 34 34  0  0  0  0  0  0  0  0999 V2000
   -0.1886    4.1096    2.5967 H   0  0  0  1  0  0  0  0  0  0  0  0
    0.9718    2.3715    2.1859 C   0  0  0  1  0  0  0  0  0  0  0  0
    0.4751    4.1928    0.6237 N   0  0  0  1  0  0  0  0  0  0  0  0
   -0.0197    3.4487    1.7723 C   0  0  0  1  0  0  0  0  0  0  0  0
    1.7331    1.8566    1.3680 O   0  0  0  1  0  0  0  0  0  0  0  0
    0.9551    2.0325    3.4781 N   0  0  0  1  0  0  0  0  0  0  0  0
    0.1514    3.9021   -0.2544 H   0  0  0  1  0  0  0  0  0  0  0  0
    1.3205    5.2274    0.6304 C   0  0  0  1  0  0  0  0  0  0  0  0
    1.9606    1.1600    4.0660 C   0  0  0  1  0  0  0  0  0  0  0  0
    1.8311    5.6695   -0.7272 C   0  0  0  1  0  0  0  0  0  0  0  0
    1.6728    5.7965    1.6601 O   0  0  0  1  0  0  0  0  0  0  0  0
    0.2409    2.3836    4.0500 H   0  0  0  1  0  0  0  0  0  0  0  0
    2.2326    0.4026    3.3608 H   0  0  0  1  0  0  0  0  0  0  0  0
    1.5630    0.7007    4.9468 H   0  0  0  1  0  0  0  0  0  0  0  0
    2.8256    1.7352    4.3225 H   0  0  0  1  0  0  0  0  0  0  0  0
    2.8786    5.4635   -0.7992 H   0  0  0  1  0  0  0  0  0  0  0  0
    1.6655    6.7200   -0.8455 H   0  0  0  1  0  0  0  0  0  0  0  0
    1.3096    5.1370   -1.4949 H   0  0  0  1  0  0  0  0  0  0  0  0
   -5.4263    6.7637    0.9960 N   0  3  0  1  0  0  0  0  0  0  0  0
   -5.9522    7.1048    2.0075 O   0  0  0  1  0  0  0  0  0  0  0  0
   -5.6881    7.3187   -0.1952 O   0  5  0  1  0  0  0  0  0  0  0  0
   -4.4585    5.6991    1.0565 C   0  0  0  1  0  0  0  0  0  0  0  0
   -3.6472    5.4500   -0.0345 C   0  0  0  1  0  0  0  0  0  0  0  0
   -2.6515    4.4890    0.0471 C   0  0  0  1  0  0  0  0  0  0  0  0
   -2.4736    3.7762    1.2178 C   0  0  0  1  0  0  0  0  0  0  0  0
   -3.2871    4.0259    2.3120 C   0  0  0  1  0  0  0  0  0  0  0  0
   -4.2798    4.9841    2.2305 C   0  0  0  1  0  0  0  0  0  0  0  0
   -1.3429    2.7876    1.3779 C   0  0  0  1  0  0  0  0  0  0  0  0
   -3.7838    5.9836   -0.9166 H   0  0  0  1  0  0  0  0  0  0  0  0
   -2.0385    4.3043   -0.7725 H   0  0  0  1  0  0  0  0  0  0  0  0
   -3.1505    3.4923    3.1942 H   0  0  0  1  0  0  0  0  0  0  0  0
   -4.8928    5.1687    3.0501 H   0  0  0  1  0  0  0  0  0  0  0  0
   -1.6113    2.0832    2.1373 H   0  0  0  1  0  0  0  0  0  0  0  0
   -1.2041    2.2755    0.4487 H   0  0  0  1  0  0  0  0  0  0  0  0
  1  4  1  0  0  0  0
  2  4  1  0  0  0  0
  2  5  2  0  0  0  0
  2  6  1  0  0  0  0
  3  4  1  0  0  0  0
  3  7  1  0  0  0  0
  3  8  1  0  0  0  0
  4 28  1  0  0  0  0
  6  9  1  0  0  0  0
  6 12  1  0  0  0  0
  8 10  1  0  0  0  0
  8 11  2  0  0  0  0
  9 13  1  0  0  0  0
  9 14  1  0  0  0  0
  9 15  1  0  0  0  0
 10 16  1  0  0  0  0
 10 17  1  0  0  0  0
 10 18  1  0  0  0  0
 19 20  2  0  0  0  0
 19 21  1  0  0  0  0
 19 22  1  0  0  0  0
 22 23  4  0  0  0  0
 22 27  4  0  0  0  0
 23 24  4  0  0  0  0
 23 29  1  0  0  0  0
 24 25  4  0  0  0  0
 24 30  1  0  0  0  0
 25 26  4  0  0  0  0
 25 28  1  0  0  0  0
 26 27  4  0  0  0  0
 26 31  1  0  0  0  0
 27 32  1  0  0  0  0
 28 33  1  0  0  0  0
 28 34  1  0  0  0  0
M  END
> <BCLConfClusterSize>
1

> <ConfClashScore>
0 

> <ConfOneFourInteractionScore>
-0.981931 

> <ConfScore>
-0.221491 

> <ConfScorePBest>
0.00672309 

> <ConfTolerance>
0.241915 

> <RosettaParamsInstructions>
M  ROOT 3
M  POLY_N_BB 3
M  POLY_CA_BB 4
M  POLY_C_BB 2
M  POLY_O_BB 5
M  POLY_IGNORE 9 10 11 12 13 14 15 16 17 18 
M  POLY_UPPER 6
M  POLY_LOWER 8
M  POLY_CHG 0
M  POLY_PROPERTIES ALPHA_AA L_AA PROTEIN AROMATIC POLYMER 
M  END

$$$$



 34 34  0  0  0  0  0  0  0  0999 V2000
   -0.2588    3.7963    2.7282 H   0  0  0  1  0  0  0  0  0  0  0  0
    0.7265    1.9716    2.3258 C   0  0  0  1  0  0  0  0  0  0  0  0
    0.5973    3.9762    0.8572 N   0  0  0  1  0  0  0  0  0  0  0  0
   -0.0775    3.1807    1.8720 C   0  0  0  1  0  0  0  0  0  0  0  0
    0.7258    1.6158    3.5035 O   0  0  0  1  0  0  0  0  0  0  0  0
    1.4742    1.4004    1.3773 N   0  0  0  1  0  0  0  0  0  0  0  0
    0.3219    3.8813   -0.0786 H   0  0  0  1  0  0  0  0  0  0  0  0
    1.5791    4.8313    1.1568 C   0  0  0  1  0  0  0  0  0  0  0  0
    2.3537    0.2898    1.7103 C   0  0  0  1  0  0  0  0  0  0  0  0
    2.1120    5.6351   -0.0306 C   0  0  0  1  0  0  0  0  0  0  0  0
    1.9939    5.0459    2.2950 O   0  0  0  1  0  0  0  0  0  0  0  0
    1.4303    1.7299    0.4555 H   0  0  0  1  0  0  0  0  0  0  0  0
    3.2736    0.3890    1.1728 H   0  0  0  1  0  0  0  0  0  0  0  0
    1.8814   -0.6319    1.4414 H   0  0  0  1  0  0  0  0  0  0  0  0
    2.5529    0.2956    2.7616 H   0  0  0  1  0  0  0  0  0  0  0  0
    2.0355    5.0485   -0.9222 H   0  0  0  1  0  0  0  0  0  0  0  0
    3.1370    5.8890    0.1421 H   0  0  0  1  0  0  0  0  0  0  0  0
    1.5363    6.5301   -0.1424 H   0  0  0  1  0  0  0  0  0  0  0  0
   -5.4420    6.7335    1.0244 N   0  3  0  1  0  0  0  0  0  0  0  0
   -6.0824    6.7955    2.0255 O   0  0  0  1  0  0  0  0  0  0  0  0
   -5.5913    7.4232   -0.1147 O   0  5  0  1  0  0  0  0  0  0  0  0
   -4.4248    5.7488    1.0271 C   0  0  0  1  0  0  0  0  0  0  0  0
   -3.6232    5.4554   -0.0600 C   0  0  0  1  0  0  0  0  0  0  0  0
   -2.6482    4.4753    0.0421 C   0  0  0  1  0  0  0  0  0  0  0  0
   -2.4814    3.7878    1.2295 C   0  0  0  1  0  0  0  0  0  0  0  0
   -3.2853    4.0819    2.3197 C   0  0  0  1  0  0  0  0  0  0  0  0
   -4.2573    5.0591    2.2178 C   0  0  0  1  0  0  0  0  0  0  0  0
   -1.4231    2.7157    1.3397 C   0  0  0  1  0  0  0  0  0  0  0  0
   -3.7515    5.9700   -0.9546 H   0  0  0  1  0  0  0  0  0  0  0  0
   -2.0423    4.2574   -0.7746 H   0  0  0  1  0  0  0  0  0  0  0  0
   -3.1570    3.5673    3.2143 H   0  0  0  1  0  0  0  0  0  0  0  0
   -4.8631    5.2770    3.0345 H   0  0  0  1  0  0  0  0  0  0  0  0
   -1.7918    1.9541    1.9947 H   0  0  0  1  0  0  0  0  0  0  0  0
   -1.2678    2.3036    0.3645 H   0  0  0  1  0  0  0  0  0  0  0  0
  1  4  1  0  0  0  0
  2  4  1  0  0  0  0
  2  5  2  0  0  0  0
  2  6  1  0  0  0  0
  3  4  1  0  0  0  0
  3  7  1  0  0  0  0
  3  8  1  0  0  0  0
  4 28  1  0  0  0  0
  6  9  1  0  0  0  0
  6 12  1  0  0  0  0
  8 10  1  0  0  0  0
  8 11  2  0  0  0  0
  9 13  1  0  0  0  0
  9 14  1  0  0  0  0
  9 15  1  0  0  0  0
 10 16  1  0  0  0  0
 10 17  1  0  0  0  0
 10 18  1  0  0  0  0
 19 20  2  0  0  0  0
 19 21  1  0  0  0  0
 19 22  1  0  0  0  0
 22 23  4  0  0  0  0
 22 27  4  0  0  0  0
 23 24  4  0  0  0  0
 23 29  1  0  0  0  0
 24 25  4  0  0  0  0
 24 30  1  0  0  0  0
 25 26  4  0  0  0  0
 25 28  1  0  0  0  0
 26 27  4  0  0  0  0
 26 31  1  0  0  0  0
 27 32  1  0  0  0  0
 28 33  1  0  0  0  0
 28 34  1  0  0  0  0
M  END
> <BCLConfClusterSize>
1

> <ConfClashScore>
0 

> <ConfOneFourInteractionScore>
-0.956443 

> <ConfScore>
-0.218369 

> <ConfScorePBest>
0.0066946 

> <ConfTolerance>
0.315566 

> <RosettaParamsInstructions>
M  ROOT 3
M  POLY_N_BB 3
M  POLY_CA_BB 4
M  POLY_C_BB 2
M  POLY_O_BB 5
M  POLY_IGNORE 9 10 11 12 13 14 15 16 17 18 
M  POLY_UPPER 6
M  POLY_LOWER 8
M  POLY_CHG 0
M  POLY_PROPERTIES ALPHA_AA L_AA PROTEIN AROMATIC POLYMER 
M  END

$$$$



 34 34  0  0  0  0  0  0  0  0999 V2000
   -0.4876    3.3087    3.0855 H   0  0  0  1  0  0  0  0  0  0  0  0
    0.8236    1.9523    2.1221 C   0  0  0  1  0  0  0  0  0  0  0  0
    0.4204    4.2824    1.5030 N   0  0  0  1  0  0  0  0  0  0  0  0
   -0.1882    3.0936    2.0810 C   0  0  0  1  0  0  0  0  0  0  0  0
    1.6526    1.8014    1.2257 O   0  0  0  1  0  0  0  0  0  0  0  0
    0.7445    1.1456    3.1815 N   0  0  0  1  0  0  0  0  0  0  0  0
    0.1728    4.5451    0.5919 H   0  0  0  1  0  0  0  0  0  0  0  0
    1.3049    5.0281    2.1712 C   0  0  0  1  0  0  0  0  0  0  0  0
    1.7191    0.0945    3.4328 C   0  0  0  1  0  0  0  0  0  0  0  0
    1.9298    6.1674    1.3896 C   0  0  0  1  0  0  0  0  0  0  0  0
    1.6032    4.8208    3.3358 O   0  0  0  1  0  0  0  0  0  0  0  0
    0.0043    1.2649    3.8126 H   0  0  0  1  0  0  0  0  0  0  0  0
    1.5385   -0.3375    4.3949 H   0  0  0  1  0  0  0  0  0  0  0  0
    2.7051    0.5094    3.4079 H   0  0  0  1  0  0  0  0  0  0  0  0
    1.6304   -0.6611    2.6804 H   0  0  0  1  0  0  0  0  0  0  0  0
    2.3204    5.7947    0.4658 H   0  0  0  1  0  0  0  0  0  0  0  0
    2.7227    6.6002    1.9631 H   0  0  0  1  0  0  0  0  0  0  0  0
    1.1873    6.9111    1.1885 H   0  0  0  1  0  0  0  0  0  0  0  0
   -5.4613    6.7232    0.9744 N   0  3  0  1  0  0  0  0  0  0  0  0
   -6.1830    6.9014    1.9036 O   0  0  0  1  0  0  0  0  0  0  0  0
   -5.6177    7.3955   -0.1741 O   0  5  0  1  0  0  0  0  0  0  0  0
   -4.3958    5.7616    1.0904 C   0  0  0  1  0  0  0  0  0  0  0  0
   -3.6165    5.4782   -0.0155 C   0  0  0  1  0  0  0  0  0  0  0  0
   -2.6548    4.4821    0.0511 C   0  0  0  1  0  0  0  0  0  0  0  0
   -2.4788    3.7687    1.2217 C   0  0  0  1  0  0  0  0  0  0  0  0
   -3.2602    4.0528    2.3308 C   0  0  0  1  0  0  0  0  0  0  0  0
   -4.2191    5.0460    2.2643 C   0  0  0  1  0  0  0  0  0  0  0  0
   -1.4350    2.6793    1.2933 C   0  0  0  1  0  0  0  0  0  0  0  0
   -3.7518    6.0123   -0.8975 H   0  0  0  1  0  0  0  0  0  0  0  0
   -2.0657    4.2716   -0.7798 H   0  0  0  1  0  0  0  0  0  0  0  0
   -3.1250    3.5188    3.2129 H   0  0  0  1  0  0  0  0  0  0  0  0
   -4.8081    5.2564    3.0952 H   0  0  0  1  0  0  0  0  0  0  0  0
   -1.8682    1.8232    1.7668 H   0  0  0  1  0  0  0  0  0  0  0  0
   -1.1394    2.4250    0.2969 H   0  0  0  1  0  0  0  0  0  0  0  0
  1  4  1  0  0  0  0
  2  4  1  0  0  0  0
  2  5  2  0  0  0  0
  2  6  1  0  0  0  0
  3  4  1  0  0  0  0
  3  7  1  0  0  0  0
  3  8  1  0  0  0  0
  4 28  1  0  0  0  0
  6  9  1  0  0  0  0
  6 12  1  0  0  0  0
  8 10  1  0  0  0  0
  8 11  2  0  0  0  0
  9 13  1  0  0  0  0
  9 14  1  0  0  0  0
  9 15  1  0  0  0  0
 10 16  1  0  0  0  0
 10 17  1  0  0  0  0
 10 18  1  0  0  0  0
 19 20  2  0  0  0  0
 19 21  1  0  0  0  0
 19 22  1  0  0  0  0
 22 23  4  0  0  0  0
 22 27  4  0  0  0  0
 23 24  4  0  0  0  0
 23 29  1  0  0  0  0
 24 25  4  0  0  0  0
 24 30  1  0  0  0  0
 25 26  4  0  0  0  0
 25 28  1  0  0  0  0
 26 27  4  0  0  0  0
 26 31  1  0  0  0  0
 27 32  1  0  0  0  0
 28 33  1  0  0  0  0
 28 34  1  0  0  0  0
M  END
> <BCLConfClusterSize>
1

> <ConfClashScore>
0 

> <ConfOneFourInteractionScore>
-0.985807 

> <ConfScore>
-0.216786 

> <ConfScorePBest>
0.00666612 

> <ConfTolerance>
0.220057 

> <RosettaParamsInstructions>
M  ROOT 3
M  POLY_N_BB 3
M  POLY_CA_BB 4
M  POLY_C_BB 2
M  POLY_O_BB 5
M  POLY_IGNORE 9 10 11 12 13 14 15 16 17 18 
M  POLY_UPPER 6
M  POLY_LOWER 8
M  POLY_CHG 0
M  POLY_PROPERTIES ALPHA_AA L_AA PROTEIN AROMATIC POLYMER 
M  END

$$$$



 34 34  0  0  0  0  0  0  0  0999 V2000
   -1.8880    1.6229   -0.4447 H   0  0  0  1  0  0  0  0  0  0  0  0
   -0.7071    0.3564    0.7754 C   0  0  0  1  0  0  0  0  0  0  0  0
   -3.0659    0.9104    1.0986 N   0  0  0  1  0  0  0  0  0  0  0  0
   -1.7942    1.4126    0.6002 C   0  0  0  1  0  0  0  0  0  0  0  0
   -0.4591   -0.1277    1.8789 O   0  0  0  1  0  0  0  0  0  0  0  0
   -0.0536    0.0012   -0.3422 N   0  0  0  1  0  0  0  0  0  0  0  0
   -3.1668    0.7494    2.0600 H   0  0  0  1  0  0  0  0  0  0  0  0
   -4.1109    0.6587    0.2831 C   0  0  0  1  0  0  0  0  0  0  0  0
    1.0320   -0.9679   -0.3331 C   0  0  0  1  0  0  0  0  0  0  0  0
   -5.3614    0.0663    0.8924 C   0  0  0  1  0  0  0  0  0  0  0  0
   -4.0505    0.9031   -0.9211 O   0  0  0  1  0  0  0  0  0  0  0  0
   -0.3169    0.4086   -1.1937 H   0  0  0  1  0  0  0  0  0  0  0  0
    1.7881   -0.6637   -1.0264 H   0  0  0  1  0  0  0  0  0  0  0  0
    0.6548   -1.9284   -0.6160 H   0  0  0  1  0  0  0  0  0  0  0  0
    1.4514   -1.0241    0.6497 H   0  0  0  1  0  0  0  0  0  0  0  0
   -5.1651   -0.9379    1.2053 H   0  0  0  1  0  0  0  0  0  0  0  0
   -6.1464    0.0660    0.1653 H   0  0  0  1  0  0  0  0  0  0  0  0
   -5.6577    0.6516    1.7377 H   0  0  0  1  0  0  0  0  0  0  0  0
   -5.4435    6.7448    0.9872 N   0  3  0  1  0  0  0  0  0  0  0  0
   -5.9771    7.1115    1.9857 O   0  0  0  1  0  0  0  0  0  0  0  0
   -5.7664    7.2555   -0.2088 O   0  5  0  1  0  0  0  0  0  0  0  0
   -4.4272    5.7279    1.0698 C   0  0  0  1  0  0  0  0  0  0  0  0
   -3.6169    5.4730   -0.0204 C   0  0  0  1  0  0  0  0  0  0  0  0
   -2.6345    4.4983    0.0588 C   0  0  0  1  0  0  0  0  0  0  0  0
   -2.4688    3.7777    1.2265 C   0  0  0  1  0  0  0  0  0  0  0  0
   -3.2814    4.0332    2.3201 C   0  0  0  1  0  0  0  0  0  0  0  0
   -4.2609    5.0051    2.2409 C   0  0  0  1  0  0  0  0  0  0  0  0
   -1.4024    2.7114    1.3118 C   0  0  0  1  0  0  0  0  0  0  0  0
   -3.7443    6.0125   -0.9004 H   0  0  0  1  0  0  0  0  0  0  0  0
   -2.0221    4.3093   -0.7603 H   0  0  0  1  0  0  0  0  0  0  0  0
   -3.1540    3.4937    3.2000 H   0  0  0  1  0  0  0  0  0  0  0  0
   -4.8732    5.1941    3.0600 H   0  0  0  1  0  0  0  0  0  0  0  0
   -0.5071    3.0886    0.8635 H   0  0  0  1  0  0  0  0  0  0  0  0
   -1.2207    2.4931    2.3434 H   0  0  0  1  0  0  0  0  0  0  0  0
  1  4  1  0  0  0  0
  2  4  1  0  0  0  0
  2  5  2  0  0  0  0
  2  6  1  0  0  0  0
  3  4  1  0  0  0  0
  3  7  1  0  0  0  0
  3  8  1  0  0  0  0
  4 28  1  0  0  0  0
  6  9  1  0  0  0  0
  6 12  1  0  0  0  0
  8 10  1  0  0  0  0
  8 11  2  0  0  0  0
  9 13  1  0  0  0  0
  9 14  1  0  0  0  0
  9 15  1  0  0  0  0
 10 16  1  0  0  0  0
 10 17  1  0  0  0  0
 10 18  1  0  0  0  0
 19 20  2  0  0  0  0
 19 21  1  0  0  0  0
 19 22  1  0  0  0  0
 22 23  4  0  0  0  0
 22 27  4  0  0  0  0
 23 24  4  0  0  0  0
 23 29  1  0  0  0  0
 24 25  4  0  0  0  0
 24 30  1  0  0  0  0
 25 26  4  0  0  0  0
 25 28  1  0  0  0  0
 26 27  4  0  0  0  0
 26 31  1  0  0  0  0
 27 32  1  0  0  0  0
 28 33  1  0  0  0  0
 28 34  1  0  0  0  0
M  END
> <BCLConfClusterSize>
1

> <ConfClashScore>
0 

> <ConfOneFourInteractionScore>
-0.985807 

> <ConfScore>
-0.215393 

> <ConfScorePBest>
0.00663764 

> <ConfTolerance>
0.243972 

> <RosettaParamsInstructions>
M  ROOT 3
M  POLY_N_BB 3
M  POLY_CA_BB 4
M  POLY_C_BB 2
M  POLY_O_BB 5
M  POLY_IGNORE 9 10 11 12 13 14 15 16 17 18 
M  POLY_UPPER 6
M  POLY_LOWER 8
M  POLY_CHG 0
M  POLY_PROPERTIES ALPHA_AA L_AA PROTEIN AROMATIC POLYMER 
M  END

$$$$



 34 34  0  0  0  0  0  0  0  0999 V2000
   -2.3433    1.3760   -0.0081 H   0  0  0  1  0  0  0  0  0  0  0  0
   -0.9058    0.2669    1.0593 C   0  0  0  1  0  0  0  0  0  0  0  0
   -3.1049    1.0665    1.8777 N   0  0  0  1  0  0  0  0  0  0  0  0
   -1.9799    1.3458    0.9978 C   0  0  0  1  0  0  0  0  0  0  0  0
   -0.2350   -0.0240    0.0826 O   0  0  0  1  0  0  0  0  0  0  0  0
   -0.7862   -0.3040    2.2613 N   0  0  0  1  0  0  0  0  0  0  0  0
   -3.0450    1.3292    2.8200 H   0  0  0  1  0  0  0  0  0  0  0  0
   -4.2419    0.4507    1.4358 C   0  0  0  1  0  0  0  0  0  0  0  0
    0.2051   -1.3328    2.5382 C   0  0  0  1  0  0  0  0  0  0  0  0
   -5.2142    0.1047    2.5467 C   0  0  0  1  0  0  0  0  0  0  0  0
   -4.4315    0.2141    0.2570 O   0  0  0  1  0  0  0  0  0  0  0  0
   -1.3871   -0.0201    2.9816 H   0  0  0  1  0  0  0  0  0  0  0  0
    0.3809   -1.3849    3.5923 H   0  0  0  1  0  0  0  0  0  0  0  0
    1.1187   -1.0917    2.0360 H   0  0  0  1  0  0  0  0  0  0  0  0
   -0.1553   -2.2781    2.1897 H   0  0  0  1  0  0  0  0  0  0  0  0
   -6.2116    0.3302    2.2315 H   0  0  0  1  0  0  0  0  0  0  0  0
   -4.9777    0.6779    3.4187 H   0  0  0  1  0  0  0  0  0  0  0  0
   -5.1395   -0.9383    2.7737 H   0  0  0  1  0  0  0  0  0  0  0  0
   -5.4490    6.7428    0.9867 N   0  3  0  1  0  0  0  0  0  0  0  0
   -6.0940    6.9744    1.9596 O   0  0  0  1  0  0  0  0  0  0  0  0
   -5.6212    7.3775   -0.1808 O   0  5  0  1  0  0  0  0  0  0  0  0
   -4.4311    5.7276    1.0695 C   0  0  0  1  0  0  0  0  0  0  0  0
   -3.6342    5.4594   -0.0274 C   0  0  0  1  0  0  0  0  0  0  0  0
   -2.6502    4.4863    0.0520 C   0  0  0  1  0  0  0  0  0  0  0  0
   -2.4697    3.7804    1.2265 C   0  0  0  1  0  0  0  0  0  0  0  0
   -3.2689    4.0493    2.3267 C   0  0  0  1  0  0  0  0  0  0  0  0
   -4.2499    5.0196    2.2474 C   0  0  0  1  0  0  0  0  0  0  0  0
   -1.4016    2.7159    1.3120 C   0  0  0  1  0  0  0  0  0  0  0  0
   -3.7727    5.9878   -0.9124 H   0  0  0  1  0  0  0  0  0  0  0  0
   -2.0478    4.2873   -0.7722 H   0  0  0  1  0  0  0  0  0  0  0  0
   -3.1303    3.5209    3.2117 H   0  0  0  1  0  0  0  0  0  0  0  0
   -4.8522    5.2185    3.0715 H   0  0  0  1  0  0  0  0  0  0  0  0
   -0.6266    2.9392    0.6087 H   0  0  0  1  0  0  0  0  0  0  0  0
   -0.9942    2.7063    2.3013 H   0  0  0  1  0  0  0  0  0  0  0  0
  1  4  1  0  0  0  0
  2  4  1  0  0  0  0
  2  5  2  0  0  0  0
  2  6  1  0  0  0  0
  3  4  1  0  0  0  0
  3  7  1  0  0  0  0
  3  8  1  0  0  0  0
  4 28  1  0  0  0  0
  6  9  1  0  0  0  0
  6 12  1  0  0  0  0
  8 10  1  0  0  0  0
  8 11  2  0  0  0  0
  9 13  1  0  0  0  0
  9 14  1  0  0  0  0
  9 15  1  0  0  0  0
 10 16  1  0  0  0  0
 10 17  1  0  0  0  0
 10 18  1  0  0  0  0
 19 20  2  0  0  0  0
 19 21  1  0  0  0  0
 19 22  1  0  0  0  0
 22 23  4  0  0  0  0
 22 27  4  0  0  0  0
 23 24  4  0  0  0  0
 23 29  1  0  0  0  0
 24 25  4  0  0  0  0
 24 30  1  0  0  0  0
 25 26  4  0  0  0  0
 25 28  1  0  0  0  0
 26 27  4  0  0  0  0
 26 31  1  0  0  0  0
 27 32  1  0  0  0  0
 28 33  1  0  0  0  0
 28 34  1  0  0  0  0
M  END
> <BCLConfClusterSize>
1

> <ConfClashScore>
0 

> <ConfOneFourInteractionScore>
-0.960318 

> <ConfScore>
-0.209728 

> <ConfScorePBest>
0.00660916 

> <ConfTolerance>
0.244816 

> <RosettaParamsInstructions>
M  ROOT 3
M  POLY_N_BB 3
M  POLY_CA_BB 4
M  POLY_C_BB 2
M  POLY_O_BB 5
M  POLY_IGNORE 9 10 11 12 13 14 15 16 17 18 
M  POLY_UPPER 6
M  POLY_LOWER 8
M  POLY_CHG 0
M  POLY_PROPERTIES ALPHA_AA L_AA PROTEIN AROMATIC POLYMER 
M  END

$$$$



 34 34  0  0  0  0  0  0  0  0999 V2000
   -1.0949    2.5470    3.4072 H   0  0  0  1  0  0  0  0  0  0  0  0
    0.6779    1.9253    2.4128 C   0  0  0  1  0  0  0  0  0  0  0  0
   -0.0973    4.2324    2.7172 N   0  0  0  1  0  0  0  0  0  0  0  0
   -0.5253    2.8510    2.5540 C   0  0  0  1  0  0  0  0  0  0  0  0
    0.7279    0.8503    3.0045 O   0  0  0  1  0  0  0  0  0  0  0  0
    1.6594    2.3635    1.6097 N   0  0  0  1  0  0  0  0  0  0  0  0
   -0.1019    4.8243    1.9361 H   0  0  0  1  0  0  0  0  0  0  0  0
    0.3017    4.7216    3.8947 C   0  0  0  1  0  0  0  0  0  0  0  0
    2.8494    1.5524    1.4006 C   0  0  0  1  0  0  0  0  0  0  0  0
    0.8338    6.1487    3.8722 C   0  0  0  1  0  0  0  0  0  0  0  0
    0.2505    4.0812    4.9318 O   0  0  0  1  0  0  0  0  0  0  0  0
    1.5747    3.2316    1.1629 H   0  0  0  1  0  0  0  0  0  0  0  0
    2.6196    0.5250    1.5920 H   0  0  0  1  0  0  0  0  0  0  0  0
    3.6221    1.8748    2.0669 H   0  0  0  1  0  0  0  0  0  0  0  0
    3.1816    1.6609    0.3893 H   0  0  0  1  0  0  0  0  0  0  0  0
    1.3578    6.3202    2.9552 H   0  0  0  1  0  0  0  0  0  0  0  0
    1.5009    6.2934    4.6963 H   0  0  0  1  0  0  0  0  0  0  0  0
    0.0166    6.8351    3.9495 H   0  0  0  1  0  0  0  0  0  0  0  0
   -5.4529    6.7388    0.9846 N   0  3  0  1  0  0  0  0  0  0  0  0
   -6.2227    6.8391    1.8865 O   0  0  0  1  0  0  0  0  0  0  0  0
   -5.4859    7.5197   -0.1038 O   0  5  0  1  0  0  0  0  0  0  0  0
   -4.4333    5.7254    1.0684 C   0  0  0  1  0  0  0  0  0  0  0  0
   -3.6509    5.4418   -0.0352 C   0  0  0  1  0  0  0  0  0  0  0  0
   -2.6653    4.4703    0.0450 C   0  0  0  1  0  0  0  0  0  0  0  0
   -2.4686    3.7815    1.2270 C   0  0  0  1  0  0  0  0  0  0  0  0
   -3.2532    4.0658    2.3338 C   0  0  0  1  0  0  0  0  0  0  0  0
   -4.2358    5.0344    2.2538 C   0  0  0  1  0  0  0  0  0  0  0  0
   -1.3988    2.7188    1.3134 C   0  0  0  1  0  0  0  0  0  0  0  0
   -3.8017    5.9573   -0.9257 H   0  0  0  1  0  0  0  0  0  0  0  0
   -2.0740    4.2598   -0.7842 H   0  0  0  1  0  0  0  0  0  0  0  0
   -3.1025    3.5503    3.2244 H   0  0  0  1  0  0  0  0  0  0  0  0
   -4.8272    5.2449    3.0830 H   0  0  0  1  0  0  0  0  0  0  0  0
   -1.8724    1.7594    1.3310 H   0  0  0  1  0  0  0  0  0  0  0  0
   -0.7744    2.7930    0.4477 H   0  0  0  1  0  0  0  0  0  0  0  0
  1  4  1  0  0  0  0
  2  4  1  0  0  0  0
  2  5  2  0  0  0  0
  2  6  1  0  0  0  0
  3  4  1  0  0  0  0
  3  7  1  0  0  0  0
  3  8  1  0  0  0  0
  4 28  1  0  0  0  0
  6  9  1  0  0  0  0
  6 12  1  0  0  0  0
  8 10  1  0  0  0  0
  8 11  2  0  0  0  0
  9 13  1  0  0  0  0
  9 14  1  0  0  0  0
  9 15  1  0  0  0  0
 10 16  1  0  0  0  0
 10 17  1  0  0  0  0
 10 18  1  0  0  0  0
 19 20  2  0  0  0  0
 19 21  1  0  0  0  0
 19 22  1  0  0  0  0
 22 23  4  0  0  0  0
 22 27  4  0  0  0  0
 23 24  4  0  0  0  0
 23 29  1  0  0  0  0
 24 25  4  0  0  0  0
 24 30  1  0  0  0  0
 25 26  4  0  0  0  0
 25 28  1  0  0  0  0
 26 27  4  0  0  0  0
 26 31  1  0  0  0  0
 27 32  1  0  0  0  0
 28 33  1  0  0  0  0
 28 34  1  0  0  0  0
M  END
> <BCLConfClusterSize>
1

> <ConfClashScore>
0 

> <ConfOneFourInteractionScore>
-0.9468 

> <ConfScore>
-0.204885 

> <ConfScorePBest>
0.00658068 

> <ConfTolerance>
0.31147 

> <RosettaParamsInstructions>
M  ROOT 3
M  POLY_N_BB 3
M  POLY_CA_BB 4
M  POLY_C_BB 2
M  POLY_O_BB 5
M  POLY_IGNORE 9 10 11 12 13 14 15 16 17 18 
M  POLY_UPPER 6
M  POLY_LOWER 8
M  POLY_CHG 0
M  POLY_PROPERTIES ALPHA_AA L_AA PROTEIN AROMATIC POLYMER 
M  END

$$$$



 34 34  0  0  0  0  0  0  0  0999 V2000
   -2.5660    1.4324    0.0239 H   0  0  0  1  0  0  0  0  0  0  0  0
   -0.9627    0.2754    0.7747 C   0  0  0  1  0  0  0  0  0  0  0  0
   -3.0079    0.8734    1.9651 N   0  0  0  1  0  0  0  0  0  0  0  0
   -2.0562    1.3172    0.9576 C   0  0  0  1  0  0  0  0  0  0  0  0
   -0.4741   -0.3033    1.7442 O   0  0  0  1  0  0  0  0  0  0  0  0
   -0.5505    0.0091   -0.4680 N   0  0  0  1  0  0  0  0  0  0  0  0
   -3.1842    1.4516    2.7365 H   0  0  0  1  0  0  0  0  0  0  0  0
   -3.6496   -0.2950    1.8751 C   0  0  0  1  0  0  0  0  0  0  0  0
    0.4132   -1.0419   -0.7588 C   0  0  0  1  0  0  0  0  0  0  0  0
   -4.5918   -0.6189    3.0182 C   0  0  0  1  0  0  0  0  0  0  0  0
   -3.4997   -1.0650    0.9407 O   0  0  0  1  0  0  0  0  0  0  0  0
   -0.9097    0.5398   -1.2094 H   0  0  0  1  0  0  0  0  0  0  0  0
    0.0684   -1.9669   -0.3460 H   0  0  0  1  0  0  0  0  0  0  0  0
    1.3583   -0.7886   -0.3258 H   0  0  0  1  0  0  0  0  0  0  0  0
    0.5215   -1.1429   -1.8185 H   0  0  0  1  0  0  0  0  0  0  0  0
   -4.9454    0.2902    3.4580 H   0  0  0  1  0  0  0  0  0  0  0  0
   -4.0724   -1.1935    3.7563 H   0  0  0  1  0  0  0  0  0  0  0  0
   -5.4225   -1.1818    2.6467 H   0  0  0  1  0  0  0  0  0  0  0  0
   -5.4626    6.7258    0.9779 N   0  3  0  1  0  0  0  0  0  0  0  0
   -6.1217    6.9507    1.9428 O   0  0  0  1  0  0  0  0  0  0  0  0
   -5.6611    7.3209   -0.2062 O   0  5  0  1  0  0  0  0  0  0  0  0
   -4.3965    5.7642    1.0897 C   0  0  0  1  0  0  0  0  0  0  0  0
   -3.6131    5.4906   -0.0156 C   0  0  0  1  0  0  0  0  0  0  0  0
   -2.6507    4.4949    0.0462 C   0  0  0  1  0  0  0  0  0  0  0  0
   -2.4782    3.7720    1.2116 C   0  0  0  1  0  0  0  0  0  0  0  0
   -3.2639    4.0463    2.3202 C   0  0  0  1  0  0  0  0  0  0  0  0
   -4.2234    5.0392    2.2584 C   0  0  0  1  0  0  0  0  0  0  0  0
   -1.4505    2.6722    1.3367 C   0  0  0  1  0  0  0  0  0  0  0  0
   -3.7457    6.0318   -0.8937 H   0  0  0  1  0  0  0  0  0  0  0  0
   -2.0585    4.2917   -0.7843 H   0  0  0  1  0  0  0  0  0  0  0  0
   -3.1313    3.5051    3.1983 H   0  0  0  1  0  0  0  0  0  0  0  0
   -4.8156    5.2423    3.0889 H   0  0  0  1  0  0  0  0  0  0  0  0
   -0.6289    2.8840    0.6847 H   0  0  0  1  0  0  0  0  0  0  0  0
   -1.1027    2.6305    2.3477 H   0  0  0  1  0  0  0  0  0  0  0  0
  1  4  1  0  0  0  0
  2  4  1  0  0  0  0
  2  5  2  0  0  0  0
  2  6  1  0  0  0  0
  3  4  1  0  0  0  0
  3  7  1  0  0  0  0
  3  8  1  0  0  0  0
  4 28  1  0  0  0  0
  6  9  1  0  0  0  0
  6 12  1  0  0  0  0
  8 10  1  0  0  0  0
  8 11  2  0  0  0  0
  9 13  1  0  0  0  0
  9 14  1  0  0  0  0
  9 15  1  0  0  0  0
 10 16  1  0  0  0  0
 10 17  1  0  0  0  0
 10 18  1  0  0  0  0
 19 20  2  0  0  0  0
 19 21  1  0  0  0  0
 19 22  1  0  0  0  0
 22 23  4  0  0  0  0
 22 27  4  0  0  0  0
 23 24  4  0  0  0  0
 23 29  1  0  0  0  0
 24 25  4  0  0  0  0
 24 30  1  0  0  0  0
 25 26  4  0  0  0  0
 25 28  1  0  0  0  0
 26 27  4  0  0  0  0
 26 31  1  0  0  0  0
 27 32  1  0  0  0  0
 28 33  1  0  0  0  0
 28 34  1  0  0  0  0
M  END
> <BCLConfClusterSize>
1

> <ConfClashScore>
0 

> <ConfOneFourInteractionScore>
-0.985807 

> <ConfScore>
-0.203875 

> <ConfScorePBest>
0.0065522 

> <ConfTolerance>
0.218882 

> <RosettaParamsInstructions>
M  ROOT 3
M  POLY_N_BB 3
M  POLY_CA_BB 4
M  POLY_C_BB 2
M  POLY_O_BB 5
M  POLY_IGNORE 9 10 11 12 13 14 15 16 17 18 
M  POLY_UPPER 6
M  POLY_LOWER 8
M  POLY_CHG 0
M  POLY_PROPERTIES ALPHA_AA L_AA PROTEIN AROMATIC POLYMER 
M  END

$$$$



 34 34  0  0  0  0  0  0  0  0999 V2000
   -2.6427    1.3855    0.1090 H   0  0  0  1  0  0  0  0  0  0  0  0
   -0.9579    0.2522    0.6588 C   0  0  0  1  0  0  0  0  0  0  0  0
   -2.8438    0.7889    2.0705 N   0  0  0  1  0  0  0  0  0  0  0  0
   -2.0231    1.2839    0.9754 C   0  0  0  1  0  0  0  0  0  0  0  0
   -0.2659   -0.2398    1.5490 O   0  0  0  1  0  0  0  0  0  0  0  0
   -0.8800   -0.1502   -0.6196 N   0  0  0  1  0  0  0  0  0  0  0  0
   -2.4052    0.5062    2.9000 H   0  0  0  1  0  0  0  0  0  0  0  0
   -4.1876    0.7058    1.9835 C   0  0  0  1  0  0  0  0  0  0  0  0
    0.0097   -1.2205   -1.0447 C   0  0  0  1  0  0  0  0  0  0  0  0
   -4.9488    0.2103    3.1922 C   0  0  0  1  0  0  0  0  0  0  0  0
   -4.7786    1.0233    0.9522 O   0  0  0  1  0  0  0  0  0  0  0  0
   -1.4417    0.2922   -1.2897 H   0  0  0  1  0  0  0  0  0  0  0  0
    0.0730   -1.9598   -0.2738 H   0  0  0  1  0  0  0  0  0  0  0  0
    0.9835   -0.8200   -1.2352 H   0  0  0  1  0  0  0  0  0  0  0  0
   -0.3732   -1.6686   -1.9377 H   0  0  0  1  0  0  0  0  0  0  0  0
   -4.4480    0.5254    4.0837 H   0  0  0  1  0  0  0  0  0  0  0  0
   -4.9972   -0.8584    3.1694 H   0  0  0  1  0  0  0  0  0  0  0  0
   -5.9400    0.6130    3.1789 H   0  0  0  1  0  0  0  0  0  0  0  0
   -5.4710    6.7150    0.9790 N   0  3  0  1  0  0  0  0  0  0  0  0
   -6.2186    6.8176    1.8991 O   0  0  0  1  0  0  0  0  0  0  0  0
   -5.5891    7.4264   -0.1504 O   0  5  0  1  0  0  0  0  0  0  0  0
   -4.3834    5.7773    1.0859 C   0  0  0  1  0  0  0  0  0  0  0  0
   -3.6102    5.4814   -0.0209 C   0  0  0  1  0  0  0  0  0  0  0  0
   -2.6576    4.4767    0.0476 C   0  0  0  1  0  0  0  0  0  0  0  0
   -2.4846    3.7673    1.2211 C   0  0  0  1  0  0  0  0  0  0  0  0
   -3.2600    4.0640    2.3312 C   0  0  0  1  0  0  0  0  0  0  0  0
   -4.2098    5.0657    2.2628 C   0  0  0  1  0  0  0  0  0  0  0  0
   -1.4509    2.6686    1.2947 C   0  0  0  1  0  0  0  0  0  0  0  0
   -3.7432    6.0125   -0.9051 H   0  0  0  1  0  0  0  0  0  0  0  0
   -2.0731    4.2567   -0.7840 H   0  0  0  1  0  0  0  0  0  0  0  0
   -3.1270    3.5329    3.2154 H   0  0  0  1  0  0  0  0  0  0  0  0
   -4.7943    5.2857    3.0944 H   0  0  0  1  0  0  0  0  0  0  0  0
   -0.6727    2.8856    0.5931 H   0  0  0  1  0  0  0  0  0  0  0  0
   -1.0443    2.6491    2.2843 H   0  0  0  1  0  0  0  0  0  0  0  0
  1  4  1  0  0  0  0
  2  4  1  0  0  0  0
  2  5  2  0  0  0  0
  2  6  1  0  0  0  0
  3  4  1  0  0  0  0
  3  7  1  0  0  0  0
  3  8  1  0  0  0  0
  4 28  1  0  0  0  0
  6  9  1  0  0  0  0
  6 12  1  0  0  0  0
  8 10  1  0  0  0  0
  8 11  2  0  0  0  0
  9 13  1  0  0  0  0
  9 14  1  0  0  0  0
  9 15  1  0  0  0  0
 10 16  1  0  0  0  0
 10 17  1  0  0  0  0
 10 18  1  0  0  0  0
 19 20  2  0  0  0  0
 19 21  1  0  0  0  0
 19 22  1  0  0  0  0
 22 23  4  0  0  0  0
 22 27  4  0  0  0  0
 23 24  4  0  0  0  0
 23 29  1  0  0  0  0
 24 25  4  0  0  0  0
 24 30  1  0  0  0  0
 25 26  4  0  0  0  0
 25 28  1  0  0  0  0
 26 27  4  0  0  0  0
 26 31  1  0  0  0  0
 27 32  1  0  0  0  0
 28 33  1  0  0  0  0
 28 34  1  0  0  0  0
M  END
> <BCLConfClusterSize>
1

> <ConfClashScore>
0 

> <ConfOneFourInteractionScore>
-0.978947 

> <ConfScore>
-0.201114 

> <ConfScorePBest>
0.00652372 

> <ConfTolerance>
0.26285 

> <RosettaParamsInstructions>
M  ROOT 3
M  POLY_N_BB 3
M  POLY_CA_BB 4
M  POLY_C_BB 2
M  POLY_O_BB 5
M  POLY_IGNORE 9 10 11 12 13 14 15 16 17 18 
M  POLY_UPPER 6
M  POLY_LOWER 8
M  POLY_CHG 0
M  POLY_PROPERTIES ALPHA_AA L_AA PROTEIN AROMATIC POLYMER 
M  END

$$$$



 34 34  0  0  0  0  0  0  0  0999 V2000
   -2.7550    1.2105    1.9936 H   0  0  0  1  0  0  0  0  0  0  0  0
   -2.5176    1.0426   -0.1165 C   0  0  0  1  0  0  0  0  0  0  0  0
   -0.9260    0.3145    1.5487 N   0  0  0  1  0  0  0  0  0  0  0  0
   -1.9655    1.2959    1.2765 C   0  0  0  1  0  0  0  0  0  0  0  0
   -3.7148    1.0820   -0.3467 O   0  0  0  1  0  0  0  0  0  0  0  0
   -1.5763    0.7812   -1.0278 N   0  0  0  1  0  0  0  0  0  0  0  0
    0.0103    0.6038    1.5447 H   0  0  0  1  0  0  0  0  0  0  0  0
   -1.2065   -0.9798    1.8064 C   0  0  0  1  0  0  0  0  0  0  0  0
   -1.8961    0.5233   -2.4239 C   0  0  0  1  0  0  0  0  0  0  0  0
   -0.0497   -1.9420    1.9543 C   0  0  0  1  0  0  0  0  0  0  0  0
   -2.3685   -1.3682    1.9182 O   0  0  0  1  0  0  0  0  0  0  0  0
   -0.6377    0.7625   -0.7464 H   0  0  0  1  0  0  0  0  0  0  0  0
   -2.0895   -0.5203   -2.5592 H   0  0  0  1  0  0  0  0  0  0  0  0
   -1.0704    0.8154   -3.0386 H   0  0  0  1  0  0  0  0  0  0  0  0
   -2.7637    1.0853   -2.7005 H   0  0  0  1  0  0  0  0  0  0  0  0
   -0.4235   -2.9423    2.0217 H   0  0  0  1  0  0  0  0  0  0  0  0
    0.4990   -1.7059    2.8421 H   0  0  0  1  0  0  0  0  0  0  0  0
    0.5942   -1.8586    1.1038 H   0  0  0  1  0  0  0  0  0  0  0  0
   -5.4504    6.7414    0.9861 N   0  3  0  1  0  0  0  0  0  0  0  0
   -6.1387    6.9278    1.9388 O   0  0  0  1  0  0  0  0  0  0  0  0
   -5.5742    7.4265   -0.1589 O   0  5  0  1  0  0  0  0  0  0  0  0
   -4.4319    5.7268    1.0692 C   0  0  0  1  0  0  0  0  0  0  0  0
   -3.6399    5.4535   -0.0300 C   0  0  0  1  0  0  0  0  0  0  0  0
   -2.6553    4.4809    0.0496 C   0  0  0  1  0  0  0  0  0  0  0  0
   -2.4693    3.7808    1.2267 C   0  0  0  1  0  0  0  0  0  0  0  0
   -3.2636    4.0549    2.3292 C   0  0  0  1  0  0  0  0  0  0  0  0
   -4.2451    5.0246    2.2496 C   0  0  0  1  0  0  0  0  0  0  0  0
   -1.4006    2.7169    1.3124 C   0  0  0  1  0  0  0  0  0  0  0  0
   -3.7826    5.9775   -0.9169 H   0  0  0  1  0  0  0  0  0  0  0  0
   -2.0567    4.2780   -0.7764 H   0  0  0  1  0  0  0  0  0  0  0  0
   -3.1209    3.5308    3.2161 H   0  0  0  1  0  0  0  0  0  0  0  0
   -4.8437    5.2274    3.0756 H   0  0  0  1  0  0  0  0  0  0  0  0
   -0.7319    2.8385    0.4860 H   0  0  0  1  0  0  0  0  0  0  0  0
   -0.8635    2.8467    2.2287 H   0  0  0  1  0  0  0  0  0  0  0  0
  1  4  1  0  0  0  0
  2  4  1  0  0  0  0
  2  5  2  0  0  0  0
  2  6  1  0  0  0  0
  3  4  1  0  0  0  0
  3  7  1  0  0  0  0
  3  8  1  0  0  0  0
  4 28  1  0  0  0  0
  6  9  1  0  0  0  0
  6 12  1  0  0  0  0
  8 10  1  0  0  0  0
  8 11  2  0  0  0  0
  9 13  1  0  0  0  0
  9 14  1  0  0  0  0
  9 15  1  0  0  0  0
 10 16  1  0  0  0  0
 10 17  1  0  0  0  0
 10 18  1  0  0  0  0
 19 20  2  0  0  0  0
 19 21  1  0  0  0  0
 19 22  1  0  0  0  0
 22 23  4  0  0  0  0
 22 27  4  0  0  0  0
 23 24  4  0  0  0  0
 23 29  1  0  0  0  0
 24 25  4  0  0  0  0
 24 30  1  0  0  0  0
 25 26  4  0  0  0  0
 25 28  1  0  0  0  0
 26 27  4  0  0  0  0
 26 31  1  0  0  0  0
 27 32  1  0  0  0  0
 28 33  1  0  0  0  0
 28 34  1  0  0  0  0
M  END
> <BCLConfClusterSize>
1

> <ConfClashScore>
0 

> <ConfOneFourInteractionScore>
-0.960318 

> <ConfScore>
-0.197473 

> <ConfScorePBest>
0.00649524 

> <ConfTolerance>
0.287441 

> <RosettaParamsInstructions>
M  ROOT 3
M  POLY_N_BB 3
M  POLY_CA_BB 4
M  POLY_C_BB 2
M  POLY_O_BB 5
M  POLY_IGNORE 9 10 11 12 13 14 15 16 17 18 
M  POLY_UPPER 6
M  POLY_LOWER 8
M  POLY_CHG 0
M  POLY_PROPERTIES ALPHA_AA L_AA PROTEIN AROMATIC POLYMER 
M  END

$$$$



 34 34  0  0  0  0  0  0  0  0999 V2000
   -0.9960    3.2059    3.3811 H   0  0  0  1  0  0  0  0  0  0  0  0
    0.5398    1.9095    2.7604 C   0  0  0  1  0  0  0  0  0  0  0  0
    0.3054    4.3184    2.2400 N   0  0  0  1  0  0  0  0  0  0  0  0
   -0.4019    3.0736    2.5011 C   0  0  0  1  0  0  0  0  0  0  0  0
    1.6209    1.8275    2.2063 O   0  0  0  1  0  0  0  0  0  0  0  0
    0.0647    1.0198    3.6325 N   0  0  0  1  0  0  0  0  0  0  0  0
    0.2461    4.7385    1.3566 H   0  0  0  1  0  0  0  0  0  0  0  0
    1.0343    4.8888    3.2006 C   0  0  0  1  0  0  0  0  0  0  0  0
    0.7343   -0.2256    3.9765 C   0  0  0  1  0  0  0  0  0  0  0  0
    1.6865    6.2084    2.8369 C   0  0  0  1  0  0  0  0  0  0  0  0
    1.1793    4.3918    4.3143 O   0  0  0  1  0  0  0  0  0  0  0  0
   -0.7899    1.2172    4.0696 H   0  0  0  1  0  0  0  0  0  0  0  0
    1.7759   -0.0392    4.1348 H   0  0  0  1  0  0  0  0  0  0  0  0
    0.6151   -0.9269    3.1772 H   0  0  0  1  0  0  0  0  0  0  0  0
    0.3040   -0.6264    4.8704 H   0  0  0  1  0  0  0  0  0  0  0  0
    2.2284    6.0985    1.9208 H   0  0  0  1  0  0  0  0  0  0  0  0
    2.3591    6.5003    3.6161 H   0  0  0  1  0  0  0  0  0  0  0  0
    0.9321    6.9577    2.7170 H   0  0  0  1  0  0  0  0  0  0  0  0
   -5.4346    6.7527    0.9394 N   0  3  0  1  0  0  0  0  0  0  0  0
   -5.6907    7.1876   -0.1382 O   0  0  0  1  0  0  0  0  0  0  0  0
   -6.0355    7.1659    2.0636 O   0  5  0  1  0  0  0  0  0  0  0  0
   -4.4264    5.7294    1.0394 C   0  0  0  1  0  0  0  0  0  0  0  0
   -3.6415    5.4256   -0.0569 C   0  0  0  1  0  0  0  0  0  0  0  0
   -2.6667    4.4446    0.0389 C   0  0  0  1  0  0  0  0  0  0  0  0
   -2.4835    3.7666    1.2293 C   0  0  0  1  0  0  0  0  0  0  0  0
   -3.2706    4.0712    2.3288 C   0  0  0  1  0  0  0  0  0  0  0  0
   -4.2424    5.0493    2.2332 C   0  0  0  1  0  0  0  0  0  0  0  0
   -1.3597    2.7645    1.3494 C   0  0  0  1  0  0  0  0  0  0  0  0
   -3.7821    5.9330   -0.9537 H   0  0  0  1  0  0  0  0  0  0  0  0
   -2.0734    4.2188   -0.7849 H   0  0  0  1  0  0  0  0  0  0  0  0
   -3.1300    3.5638    3.2257 H   0  0  0  1  0  0  0  0  0  0  0  0
   -4.8357    5.2751    3.0570 H   0  0  0  1  0  0  0  0  0  0  0  0
   -1.7835    1.7951    1.5098 H   0  0  0  1  0  0  0  0  0  0  0  0
   -0.8041    2.7645    0.4350 H   0  0  0  1  0  0  0  0  0  0  0  0
  1  4  1  0  0  0  0
  2  4  1  0  0  0  0
  2  5  2  0  0  0  0
  2  6  1  0  0  0  0
  3  4  1  0  0  0  0
  3  7  1  0  0  0  0
  3  8  1  0  0  0  0
  4 28  1  0  0  0  0
  6  9  1  0  0  0  0
  6 12  1  0  0  0  0
  8 10  1  0  0  0  0
  8 11  2  0  0  0  0
  9 13  1  0  0  0  0
  9 14  1  0  0  0  0
  9 15  1  0  0  0  0
 10 16  1  0  0  0  0
 10 17  1  0  0  0  0
 10 18  1  0  0  0  0
 19 20  2  0  0  0  0
 19 21  1  0  0  0  0
 19 22  1  0  0  0  0
 22 23  4  0  0  0  0
 22 27  4  0  0  0  0
 23 24  4  0  0  0  0
 23 29  1  0  0  0  0
 24 25  4  0  0  0  0
 24 30  1  0  0  0  0
 25 26  4  0  0  0  0
 25 28  1  0  0  0  0
 26 27  4  0  0  0  0
 26 31  1  0  0  0  0
 27 32  1  0  0  0  0
 28 33  1  0  0  0  0
 28 34  1  0  0  0  0
M  END
> <BCLConfClusterSize>
1

> <ConfClashScore>
0 

> <ConfOneFourInteractionScore>
-0.978127 

> <ConfScore>
-0.193053 

> <ConfScorePBest>
0.00646676 

> <ConfTolerance>
0.225796 

> <RosettaParamsInstructions>
M  ROOT 3
M  POLY_N_BB 3
M  POLY_CA_BB 4
M  POLY_C_BB 2
M  POLY_O_BB 5
M  POLY_IGNORE 9 10 11 12 13 14 15 16 17 18 
M  POLY_UPPER 6
M  POLY_LOWER 8
M  POLY_CHG 0
M  POLY_PROPERTIES ALPHA_AA L_AA PROTEIN AROMATIC POLYMER 
M  END

$$$$



 34 34  0  0  0  0  0  0  0  0999 V2000
   -2.2049    1.4814   -0.2203 H   0  0  0  1  0  0  0  0  0  0  0  0
   -0.6761    0.4061    0.7781 C   0  0  0  1  0  0  0  0  0  0  0  0
   -2.9348    0.8413    1.6170 N   0  0  0  1  0  0  0  0  0  0  0  0
   -1.8555    1.3590    0.7836 C   0  0  0  1  0  0  0  0  0  0  0  0
   -0.4794   -0.3583    1.7190 O   0  0  0  1  0  0  0  0  0  0  0  0
    0.1440    0.4236   -0.2837 N   0  0  0  1  0  0  0  0  0  0  0  0
   -3.1255    1.3117    2.4553 H   0  0  0  1  0  0  0  0  0  0  0  0
   -3.6818   -0.2243    1.3242 C   0  0  0  1  0  0  0  0  0  0  0  0
    1.3704   -0.3598   -0.2728 C   0  0  0  1  0  0  0  0  0  0  0  0
   -4.7657   -0.5651    2.3283 C   0  0  0  1  0  0  0  0  0  0  0  0
   -3.5171   -0.8984    0.3108 O   0  0  0  1  0  0  0  0  0  0  0  0
   -0.0834    0.9651   -1.0683 H   0  0  0  1  0  0  0  0  0  0  0  0
    1.4178   -0.9365    0.6272 H   0  0  0  1  0  0  0  0  0  0  0  0
    2.2135    0.2974   -0.3198 H   0  0  0  1  0  0  0  0  0  0  0  0
    1.3816   -1.0161   -1.1178 H   0  0  0  1  0  0  0  0  0  0  0  0
   -5.0806    0.3259    2.8301 H   0  0  0  1  0  0  0  0  0  0  0  0
   -4.3817   -1.2609    3.0448 H   0  0  0  1  0  0  0  0  0  0  0  0
   -5.5995   -1.0008    1.8186 H   0  0  0  1  0  0  0  0  0  0  0  0
   -5.4499    6.7340    0.9917 N   0  3  0  1  0  0  0  0  0  0  0  0
   -6.2219    6.9232    1.8772 O   0  0  0  1  0  0  0  0  0  0  0  0
   -5.5335    7.4873   -0.1134 O   0  5  0  1  0  0  0  0  0  0  0  0
   -4.4298    5.7208    1.0726 C   0  0  0  1  0  0  0  0  0  0  0  0
   -3.6447    5.4434   -0.0305 C   0  0  0  1  0  0  0  0  0  0  0  0
   -2.6586    4.4722    0.0470 C   0  0  0  1  0  0  0  0  0  0  0  0
   -2.4643    3.7775    1.2259 C   0  0  0  1  0  0  0  0  0  0  0  0
   -3.2517    4.0556    2.3323 C   0  0  0  1  0  0  0  0  0  0  0  0
   -4.2347    5.0239    2.2549 C   0  0  0  1  0  0  0  0  0  0  0  0
   -1.3940    2.7149    1.3094 C   0  0  0  1  0  0  0  0  0  0  0  0
   -3.7937    5.9634   -0.9188 H   0  0  0  1  0  0  0  0  0  0  0  0
   -2.0652    4.2663   -0.7819 H   0  0  0  1  0  0  0  0  0  0  0  0
   -3.1027    3.5356    3.2206 H   0  0  0  1  0  0  0  0  0  0  0  0
   -4.8282    5.2298    3.0838 H   0  0  0  1  0  0  0  0  0  0  0  0
   -0.5510    3.0347    0.7331 H   0  0  0  1  0  0  0  0  0  0  0  0
   -1.1047    2.6026    2.3334 H   0  0  0  1  0  0  0  0  0  0  0  0
  1  4  1  0  0  0  0
  2  4  1  0  0  0  0
  2  5  2  0  0  0  0
  2  6  1  0  0  0  0
  3  4  1  0  0  0  0
  3  7  1  0  0  0  0
  3  8  1  0  0  0  0
  4 28  1  0  0  0  0
  6  9  1  0  0  0  0
  6 12  1  0  0  0  0
  8 10  1  0  0  0  0
  8 11  2  0  0  0  0
  9 13  1  0  0  0  0
  9 14  1  0  0  0  0
  9 15  1  0  0  0  0
 10 16  1  0  0  0  0
 10 17  1  0  0  0  0
 10 18  1  0  0  0  0
 19 20  2  0  0  0  0
 19 21  1  0  0  0  0
 19 22  1  0  0  0  0
 22 23  4  0  0  0  0
 22 27  4  0  0  0  0
 23 24  4  0  0  0  0
 23 29  1  0  0  0  0
 24 25  4  0  0  0  0
 24 30  1  0  0  0  0
 25 26  4  0  0  0  0
 25 28  1  0  0  0  0
 26 27  4  0  0  0  0
 26 31  1  0  0  0  0
 27 32  1  0  0  0  0
 28 33  1  0  0  0  0
 28 34  1  0  0  0  0
M  END
> <BCLConfClusterSize>
1

> <ConfClashScore>
0 

> <ConfOneFourInteractionScore>
-0.985807 

> <ConfScore>
-0.18681 

> <ConfScorePBest>
0.00643828 

> <ConfTolerance>
0.272006 

> <RosettaParamsInstructions>
M  ROOT 3
M  POLY_N_BB 3
M  POLY_CA_BB 4
M  POLY_C_BB 2
M  POLY_O_BB 5
M  POLY_IGNORE 9 10 11 12 13 14 15 16 17 18 
M  POLY_UPPER 6
M  POLY_LOWER 8
M  POLY_CHG 0
M  POLY_PROPERTIES ALPHA_AA L_AA PROTEIN AROMATIC POLYMER 
M  END

$$$$



 34 34  0  0  0  0  0  0  0  0999 V2000
   -2.1948    1.9641    3.2033 H   0  0  0  1  0  0  0  0  0  0  0  0
   -0.2203    1.2281    3.0009 C   0  0  0  1  0  0  0  0  0  0  0  0
   -0.8744    3.4941    3.6396 N   0  0  0  1  0  0  0  0  0  0  0  0
   -1.2568    2.3354    2.8465 C   0  0  0  1  0  0  0  0  0  0  0  0
   -0.5461    0.0418    2.9852 O   0  0  0  1  0  0  0  0  0  0  0  0
    1.0419    1.6327    3.1513 N   0  0  0  1  0  0  0  0  0  0  0  0
   -0.7621    4.3582    3.1910 H   0  0  0  1  0  0  0  0  0  0  0  0
   -0.6701    3.4206    4.9636 C   0  0  0  1  0  0  0  0  0  0  0  0
    2.1375    0.6979    3.3820 C   0  0  0  1  0  0  0  0  0  0  0  0
   -0.3560    4.7328    5.6555 C   0  0  0  1  0  0  0  0  0  0  0  0
   -0.7291    2.3740    5.5878 O   0  0  0  1  0  0  0  0  0  0  0  0
    1.2399    2.5914    3.1051 H   0  0  0  1  0  0  0  0  0  0  0  0
    1.8550   -0.2753    3.0387 H   0  0  0  1  0  0  0  0  0  0  0  0
    2.3566    0.6570    4.4286 H   0  0  0  1  0  0  0  0  0  0  0  0
    3.0047    1.0264    2.8481 H   0  0  0  1  0  0  0  0  0  0  0  0
    0.3123    5.3061    5.0476 H   0  0  0  1  0  0  0  0  0  0  0  0
    0.1031    4.5359    6.6018 H   0  0  0  1  0  0  0  0  0  0  0  0
   -1.2617    5.2824    5.8055 H   0  0  0  1  0  0  0  0  0  0  0  0
   -5.4422    6.7544    0.9330 N   0  3  0  1  0  0  0  0  0  0  0  0
   -5.6310    7.3050   -0.1049 O   0  0  0  1  0  0  0  0  0  0  0  0
   -6.0765    6.9559    2.0961 O   0  5  0  1  0  0  0  0  0  0  0  0
   -4.4274    5.7376    1.0317 C   0  0  0  1  0  0  0  0  0  0  0  0
   -3.6306    5.4507   -0.0606 C   0  0  0  1  0  0  0  0  0  0  0  0
   -2.6495    4.4759    0.0339 C   0  0  0  1  0  0  0  0  0  0  0  0
   -2.4718    3.7872    1.2190 C   0  0  0  1  0  0  0  0  0  0  0  0
   -3.2709    4.0748    2.3145 C   0  0  0  1  0  0  0  0  0  0  0  0
   -4.2490    5.0467    2.2201 C   0  0  0  1  0  0  0  0  0  0  0  0
   -1.4239    2.7113    1.3800 C   0  0  0  1  0  0  0  0  0  0  0  0
   -3.7670    5.9662   -0.9535 H   0  0  0  1  0  0  0  0  0  0  0  0
   -2.0473    4.2629   -0.7867 H   0  0  0  1  0  0  0  0  0  0  0  0
   -3.1345    3.5593    3.2074 H   0  0  0  1  0  0  0  0  0  0  0  0
   -4.8512    5.2597    3.0408 H   0  0  0  1  0  0  0  0  0  0  0  0
   -1.7228    1.8451    0.8277 H   0  0  0  1  0  0  0  0  0  0  0  0
   -0.4902    3.0717    1.0017 H   0  0  0  1  0  0  0  0  0  0  0  0
  1  4  1  0  0  0  0
  2  4  1  0  0  0  0
  2  5  2  0  0  0  0
  2  6  1  0  0  0  0
  3  4  1  0  0  0  0
  3  7  1  0  0  0  0
  3  8  1  0  0  0  0
  4 28  1  0  0  0  0
  6  9  1  0  0  0  0
  6 12  1  0  0  0  0
  8 10  1  0  0  0  0
  8 11  2  0  0  0  0
  9 13  1  0  0  0  0
  9 14  1  0  0  0  0
  9 15  1  0  0  0  0
 10 16  1  0  0  0  0
 10 17  1  0  0  0  0
 10 18  1  0  0  0  0
 19 20  2  0  0  0  0
 19 21  1  0  0  0  0
 19 22  1  0  0  0  0
 22 23  4  0  0  0  0
 22 27  4  0  0  0  0
 23 24  4  0  0  0  0
 23 29  1  0  0  0  0
 24 25  4  0  0  0  0
 24 30  1  0  0  0  0
 25 26  4  0  0  0  0
 25 28  1  0  0  0  0
 26 27  4  0  0  0  0
 26 31  1  0  0  0  0
 27 32  1  0  0  0  0
 28 33  1  0  0  0  0
 28 34  1  0  0  0  0
M  END
> <BCLConfClusterSize>
1

> <ConfClashScore>
0 

> <ConfOneFourInteractionScore>
-0.949001 

> <ConfScore>
-0.186366 

> <ConfScorePBest>
0.0064098 

> <ConfTolerance>
0.232033 

> <RosettaParamsInstructions>
M  ROOT 3
M  POLY_N_BB 3
M  POLY_CA_BB 4
M  POLY_C_BB 2
M  POLY_O_BB 5
M  POLY_IGNORE 9 10 11 12 13 14 15 16 17 18 
M  POLY_UPPER 6
M  POLY_LOWER 8
M  POLY_CHG 0
M  POLY_PROPERTIES ALPHA_AA L_AA PROTEIN AROMATIC POLYMER 
M  END

$$$$



 34 34  0  0  0  0  0  0  0  0999 V2000
   -0.1084    3.7296   -0.0529 H   0  0  0  1  0  0  0  0  0  0  0  0
    0.5642    4.1788    1.9172 C   0  0  0  1  0  0  0  0  0  0  0  0
    0.8780    2.0819    0.7474 N   0  0  0  1  0  0  0  0  0  0  0  0
   -0.0179    3.2205    0.8838 C   0  0  0  1  0  0  0  0  0  0  0  0
    0.2171    5.3475    1.9632 O   0  0  0  1  0  0  0  0  0  0  0  0
    1.4637    3.6549    2.7513 N   0  0  0  1  0  0  0  0  0  0  0  0
    0.4979    1.1843    0.8486 H   0  0  0  1  0  0  0  0  0  0  0  0
    2.1831    2.1821    0.4935 C   0  0  0  1  0  0  0  0  0  0  0  0
    2.1034    4.4391    3.7971 C   0  0  0  1  0  0  0  0  0  0  0  0
    2.9545    0.8703    0.3875 C   0  0  0  1  0  0  0  0  0  0  0  0
    2.7318    3.2610    0.2735 O   0  0  0  1  0  0  0  0  0  0  0  0
    1.7021    2.7091    2.6566 H   0  0  0  1  0  0  0  0  0  0  0  0
    2.8067    3.8274    4.3226 H   0  0  0  1  0  0  0  0  0  0  0  0
    1.3608    4.7955    4.4801 H   0  0  0  1  0  0  0  0  0  0  0  0
    2.6131    5.2709    3.3576 H   0  0  0  1  0  0  0  0  0  0  0  0
    2.9298    0.3642    1.3299 H   0  0  0  1  0  0  0  0  0  0  0  0
    3.9700    1.0747    0.1191 H   0  0  0  1  0  0  0  0  0  0  0  0
    2.5048    0.2519   -0.3611 H   0  0  0  1  0  0  0  0  0  0  0  0
   -5.4519    6.7399    0.9853 N   0  3  0  1  0  0  0  0  0  0  0  0
   -6.1892    6.8747    1.9095 O   0  0  0  1  0  0  0  0  0  0  0  0
   -5.5211    7.4823   -0.1281 O   0  5  0  1  0  0  0  0  0  0  0  0
   -4.4327    5.7259    1.0687 C   0  0  0  1  0  0  0  0  0  0  0  0
   -3.6465    5.4465   -0.0331 C   0  0  0  1  0  0  0  0  0  0  0  0
   -2.6613    4.4746    0.0468 C   0  0  0  1  0  0  0  0  0  0  0  0
   -2.4689    3.7812    1.2269 C   0  0  0  1  0  0  0  0  0  0  0  0
   -3.2574    4.0614    2.3320 C   0  0  0  1  0  0  0  0  0  0  0  0
   -4.2396    5.0304    2.2521 C   0  0  0  1  0  0  0  0  0  0  0  0
   -1.3995    2.7180    1.3130 C   0  0  0  1  0  0  0  0  0  0  0  0
   -3.7940    5.9655   -0.9222 H   0  0  0  1  0  0  0  0  0  0  0  0
   -2.0670    4.2672   -0.7811 H   0  0  0  1  0  0  0  0  0  0  0  0
   -3.1099    3.5424    3.2211 H   0  0  0  1  0  0  0  0  0  0  0  0
   -4.8339    5.2378    3.0800 H   0  0  0  1  0  0  0  0  0  0  0  0
   -1.3387    2.3774    2.3255 H   0  0  0  1  0  0  0  0  0  0  0  0
   -1.6778    1.9029    0.6781 H   0  0  0  1  0  0  0  0  0  0  0  0
  1  4  1  0  0  0  0
  2  4  1  0  0  0  0
  2  5  2  0  0  0  0
  2  6  1  0  0  0  0
  3  4  1  0  0  0  0
  3  7  1  0  0  0  0
  3  8  1  0  0  0  0
  4 28  1  0  0  0  0
  6  9  1  0  0  0  0
  6 12  1  0  0  0  0
  8 10  1  0  0  0  0
  8 11  2  0  0  0  0
  9 13  1  0  0  0  0
  9 14  1  0  0  0  0
  9 15  1  0  0  0  0
 10 16  1  0  0  0  0
 10 17  1  0  0  0  0
 10 18  1  0  0  0  0
 19 20  2  0  0  0  0
 19 21  1  0  0  0  0
 19 22  1  0  0  0  0
 22 23  4  0  0  0  0
 22 27  4  0  0  0  0
 23 24  4  0  0  0  0
 23 29  1  0  0  0  0
 24 25  4  0  0  0  0
 24 30  1  0  0  0  0
 25 26  4  0  0  0  0
 25 28  1  0  0  0  0
 26 27  4  0  0  0  0
 26 31  1  0  0  0  0
 27 32  1  0  0  0  0
 28 33  1  0  0  0  0
 28 34  1  0  0  0  0
M  END
> <BCLConfClusterSize>
1

> <ConfClashScore>
0 

> <ConfOneFourInteractionScore>
-0.960318 

> <ConfScore>
-0.186101 

> <ConfScorePBest>
0.00638132 

> <ConfTolerance>
0.342481 

> <RosettaParamsInstructions>
M  ROOT 3
M  POLY_N_BB 3
M  POLY_CA_BB 4
M  POLY_C_BB 2
M  POLY_O_BB 5
M  POLY_IGNORE 9 10 11 12 13 14 15 16 17 18 
M  POLY_UPPER 6
M  POLY_LOWER 8
M  POLY_CHG 0
M  POLY_PROPERTIES ALPHA_AA L_AA PROTEIN AROMATIC POLYMER 
M  END

$$$$



 34 34  0  0  0  0  0  0  0  0999 V2000
   -2.1992    1.3689   -0.0125 H   0  0  0  1  0  0  0  0  0  0  0  0
   -0.6392    0.3660    0.9734 C   0  0  0  1  0  0  0  0  0  0  0  0
   -2.8886    0.8505    1.8504 N   0  0  0  1  0  0  0  0  0  0  0  0
   -1.8174    1.3336    0.9864 C   0  0  0  1  0  0  0  0  0  0  0  0
    0.0205    0.1560   -0.0282 O   0  0  0  1  0  0  0  0  0  0  0  0
   -0.3146   -0.2771    2.0986 N   0  0  0  1  0  0  0  0  0  0  0  0
   -3.2343    1.4421    2.5511 H   0  0  0  1  0  0  0  0  0  0  0  0
   -3.4142   -0.3686    1.7201 C   0  0  0  1  0  0  0  0  0  0  0  0
    0.6956   -1.3241    2.1318 C   0  0  0  1  0  0  0  0  0  0  0  0
   -4.6667   -0.6361    2.5317 C   0  0  0  1  0  0  0  0  0  0  0  0
   -2.9278   -1.2335    0.9927 O   0  0  0  1  0  0  0  0  0  0  0  0
   -0.7728   -0.0354    2.9304 H   0  0  0  1  0  0  0  0  0  0  0  0
    1.3668   -1.1991    1.3079 H   0  0  0  1  0  0  0  0  0  0  0  0
    0.2204   -2.2803    2.0625 H   0  0  0  1  0  0  0  0  0  0  0  0
    1.2425   -1.2627    3.0494 H   0  0  0  1  0  0  0  0  0  0  0  0
   -4.4291   -0.6092    3.5746 H   0  0  0  1  0  0  0  0  0  0  0  0
   -5.0556   -1.6005    2.2795 H   0  0  0  1  0  0  0  0  0  0  0  0
   -5.3994    0.1126    2.3137 H   0  0  0  1  0  0  0  0  0  0  0  0
   -5.4385    6.7647    1.0090 N   0  3  0  1  0  0  0  0  0  0  0  0
   -5.8301    7.1216    2.0746 O   0  0  0  1  0  0  0  0  0  0  0  0
   -5.8544    7.1374   -0.2090 O   0  5  0  1  0  0  0  0  0  0  0  0
   -4.4215    5.7459    1.0465 C   0  0  0  1  0  0  0  0  0  0  0  0
   -3.5988    5.4851   -0.0331 C   0  0  0  1  0  0  0  0  0  0  0  0
   -2.6310    4.4966    0.0558 C   0  0  0  1  0  0  0  0  0  0  0  0
   -2.4924    3.7682    1.2222 C   0  0  0  1  0  0  0  0  0  0  0  0
   -3.3175    4.0297    2.3050 C   0  0  0  1  0  0  0  0  0  0  0  0
   -4.2823    5.0153    2.2162 C   0  0  0  1  0  0  0  0  0  0  0  0
   -1.3766    2.7569    1.3398 C   0  0  0  1  0  0  0  0  0  0  0  0
   -3.7058    6.0304   -0.9121 H   0  0  0  1  0  0  0  0  0  0  0  0
   -2.0093    4.3030   -0.7552 H   0  0  0  1  0  0  0  0  0  0  0  0
   -3.2105    3.4843    3.1840 H   0  0  0  1  0  0  0  0  0  0  0  0
   -4.9040    5.2088    3.0272 H   0  0  0  1  0  0  0  0  0  0  0  0
   -0.5864    3.0431    0.6776 H   0  0  0  1  0  0  0  0  0  0  0  0
   -1.0174    2.7619    2.3477 H   0  0  0  1  0  0  0  0  0  0  0  0
  1  4  1  0  0  0  0
  2  4  1  0  0  0  0
  2  5  2  0  0  0  0
  2  6  1  0  0  0  0
  3  4  1  0  0  0  0
  3  7  1  0  0  0  0
  3  8  1  0  0  0  0
  4 28  1  0  0  0  0
  6  9  1  0  0  0  0
  6 12  1  0  0  0  0
  8 10  1  0  0  0  0
  8 11  2  0  0  0  0
  9 13  1  0  0  0  0
  9 14  1  0  0  0  0
  9 15  1  0  0  0  0
 10 16  1  0  0  0  0
 10 17  1  0  0  0  0
 10 18  1  0  0  0  0
 19 20  2  0  0  0  0
 19 21  1  0  0  0  0
 19 22  1  0  0  0  0
 22 23  4  0  0  0  0
 22 27  4  0  0  0  0
 23 24  4  0  0  0  0
 23 29  1  0  0  0  0
 24 25  4  0  0  0  0
 24 30  1  0  0  0  0
 25 26  4  0  0  0  0
 25 28  1  0  0  0  0
 26 27  4  0  0  0  0
 26 31  1  0  0  0  0
 27 32  1  0  0  0  0
 28 33  1  0  0  0  0
 28 34  1  0  0  0  0
M  END
> <BCLConfClusterSize>
1

> <ConfClashScore>
0 

> <ConfOneFourInteractionScore>
-0.960318 

> <ConfScore>
-0.184186 

> <ConfScorePBest>
0.00635284 

> <ConfTolerance>
0.374091 

> <RosettaParamsInstructions>
M  ROOT 3
M  POLY_N_BB 3
M  POLY_CA_BB 4
M  POLY_C_BB 2
M  POLY_O_BB 5
M  POLY_IGNORE 9 10 11 12 13 14 15 16 17 18 
M  POLY_UPPER 6
M  POLY_LOWER 8
M  POLY_CHG 0
M  POLY_PROPERTIES ALPHA_AA L_AA PROTEIN AROMATIC POLYMER 
M  END

$$$$



 34 34  0  0  0  0  0  0  0  0999 V2000
   -1.3495    1.9340   -0.6497 H   0  0  0  1  0  0  0  0  0  0  0  0
   -0.3671    0.5698    0.6511 C   0  0  0  1  0  0  0  0  0  0  0  0
   -2.7870    0.9149    0.4486 N   0  0  0  1  0  0  0  0  0  0  0  0
   -1.4861    1.5585    0.3429 C   0  0  0  1  0  0  0  0  0  0  0  0
   -0.5412   -0.3706    1.4250 O   0  0  0  1  0  0  0  0  0  0  0  0
    0.7943    0.7958    0.0305 N   0  0  0  1  0  0  0  0  0  0  0  0
   -3.4364    1.2641    1.0942 H   0  0  0  1  0  0  0  0  0  0  0  0
   -3.1269   -0.1355   -0.3039 C   0  0  0  1  0  0  0  0  0  0  0  0
    1.9818   -0.0360    0.1563 C   0  0  0  1  0  0  0  0  0  0  0  0
   -4.4750   -0.7850   -0.0595 C   0  0  0  1  0  0  0  0  0  0  0  0
   -2.4107   -0.6088   -1.1852 O   0  0  0  1  0  0  0  0  0  0  0  0
    0.8508    1.5808   -0.5534 H   0  0  0  1  0  0  0  0  0  0  0  0
    1.7690   -1.0196   -0.2073 H   0  0  0  1  0  0  0  0  0  0  0  0
    2.2710   -0.0911    1.1850 H   0  0  0  1  0  0  0  0  0  0  0  0
    2.7784    0.3910   -0.4164 H   0  0  0  1  0  0  0  0  0  0  0  0
   -4.5171   -1.1540    0.9440 H   0  0  0  1  0  0  0  0  0  0  0  0
   -4.6087   -1.5968   -0.7435 H   0  0  0  1  0  0  0  0  0  0  0  0
   -5.2506   -0.0627   -0.2064 H   0  0  0  1  0  0  0  0  0  0  0  0
   -5.4466    6.7415    0.9862 N   0  3  0  1  0  0  0  0  0  0  0  0
   -6.0866    6.9995    1.9558 O   0  0  0  1  0  0  0  0  0  0  0  0
   -5.6513    7.3731   -0.1777 O   0  5  0  1  0  0  0  0  0  0  0  0
   -4.4290    5.7261    1.0693 C   0  0  0  1  0  0  0  0  0  0  0  0
   -3.6303    5.4593   -0.0267 C   0  0  0  1  0  0  0  0  0  0  0  0
   -2.6466    4.4859    0.0530 C   0  0  0  1  0  0  0  0  0  0  0  0
   -2.4680    3.7785    1.2268 C   0  0  0  1  0  0  0  0  0  0  0  0
   -3.2689    4.0460    2.3261 C   0  0  0  1  0  0  0  0  0  0  0  0
   -4.2497    5.0165    2.2465 C   0  0  0  1  0  0  0  0  0  0  0  0
   -1.4002    2.7137    1.3126 C   0  0  0  1  0  0  0  0  0  0  0  0
   -3.7674    5.9889   -0.9112 H   0  0  0  1  0  0  0  0  0  0  0  0
   -2.0429    4.2879   -0.7705 H   0  0  0  1  0  0  0  0  0  0  0  0
   -3.1319    3.5164    3.2106 H   0  0  0  1  0  0  0  0  0  0  0  0
   -4.8533    5.2144    3.0700 H   0  0  0  1  0  0  0  0  0  0  0  0
   -0.4565    3.1933    1.1564 H   0  0  0  1  0  0  0  0  0  0  0  0
   -1.4340    2.3052    2.3010 H   0  0  0  1  0  0  0  0  0  0  0  0
  1  4  1  0  0  0  0
  2  4  1  0  0  0  0
  2  5  2  0  0  0  0
  2  6  1  0  0  0  0
  3  4  1  0  0  0  0
  3  7  1  0  0  0  0
  3  8  1  0  0  0  0
  4 28  1  0  0  0  0
  6  9  1  0  0  0  0
  6 12  1  0  0  0  0
  8 10  1  0  0  0  0
  8 11  2  0  0  0  0
  9 13  1  0  0  0  0
  9 14  1  0  0  0  0
  9 15  1  0  0  0  0
 10 16  1  0  0  0  0
 10 17  1  0  0  0  0
 10 18  1  0  0  0  0
 19 20  2  0  0  0  0
 19 21  1  0  0  0  0
 19 22  1  0  0  0  0
 22 23  4  0  0  0  0
 22 27  4  0  0  0  0
 23 24  4  0  0  0  0
 23 29  1  0  0  0  0
 24 25  4  0  0  0  0
 24 30  1  0  0  0  0
 25 26  4  0  0  0  0
 25 28  1  0  0  0  0
 26 27  4  0  0  0  0
 26 31  1  0  0  0  0
 27 32  1  0  0  0  0
 28 33  1  0  0  0  0
 28 34  1  0  0  0  0
M  END
> <BCLConfClusterSize>
1

> <ConfClashScore>
0 

> <ConfOneFourInteractionScore>
-0.985807 

> <ConfScore>
-0.182816 

> <ConfScorePBest>
0.00632436 

> <ConfTolerance>
0.294056 

> <RosettaParamsInstructions>
M  ROOT 3
M  POLY_N_BB 3
M  POLY_CA_BB 4
M  POLY_C_BB 2
M  POLY_O_BB 5
M  POLY_IGNORE 9 10 11 12 13 14 15 16 17 18 
M  POLY_UPPER 6
M  POLY_LOWER 8
M  POLY_CHG 0
M  POLY_PROPERTIES ALPHA_AA L_AA PROTEIN AROMATIC POLYMER 
M  END

$$$$



 34 34  0  0  0  0  0  0  0  0999 V2000
   -1.3315    2.2894   -0.7351 H   0  0  0  1  0  0  0  0  0  0  0  0
   -0.4014    0.6557    0.1644 C   0  0  0  1  0  0  0  0  0  0  0  0
   -2.8209    1.1219    0.0780 N   0  0  0  1  0  0  0  0  0  0  0  0
   -1.4727    1.7227    0.1615 C   0  0  0  1  0  0  0  0  0  0  0  0
   -0.5532   -0.3891    0.7961 O   0  0  0  1  0  0  0  0  0  0  0  0
    0.7104    0.8814   -0.5372 N   0  0  0  1  0  0  0  0  0  0  0  0
   -3.1475    0.5508    0.8043 H   0  0  0  1  0  0  0  0  0  0  0  0
   -3.5982    1.3569   -0.9901 C   0  0  0  1  0  0  0  0  0  0  0  0
    1.8550   -0.0154   -0.5960 C   0  0  0  1  0  0  0  0  0  0  0  0
   -4.9743    0.7319   -0.9512 C   0  0  0  1  0  0  0  0  0  0  0  0
   -3.2318    2.0350   -1.9490 O   0  0  0  1  0  0  0  0  0  0  0  0
    0.7602    1.7139   -1.0519 H   0  0  0  1  0  0  0  0  0  0  0  0
    1.9006   -0.5955    0.3020 H   0  0  0  1  0  0  0  0  0  0  0  0
    2.7526    0.5584   -0.6957 H   0  0  0  1  0  0  0  0  0  0  0  0
    1.7532   -0.6685   -1.4374 H   0  0  0  1  0  0  0  0  0  0  0  0
   -5.3528    0.6392   -1.9478 H   0  0  0  1  0  0  0  0  0  0  0  0
   -5.6310    1.3513   -0.3768 H   0  0  0  1  0  0  0  0  0  0  0  0
   -4.9131   -0.2371   -0.5017 H   0  0  0  1  0  0  0  0  0  0  0  0
   -5.4348    6.7278    0.9803 N   0  3  0  1  0  0  0  0  0  0  0  0
   -5.6489    7.2951   -0.0437 O   0  0  0  1  0  0  0  0  0  0  0  0
   -6.1060    6.9732    2.1138 O   0  5  0  1  0  0  0  0  0  0  0  0
   -4.4181    5.7429    1.0008 C   0  0  0  1  0  0  0  0  0  0  0  0
   -3.6086    5.4378   -0.0772 C   0  0  0  1  0  0  0  0  0  0  0  0
   -2.6348    4.4585    0.0424 C   0  0  0  1  0  0  0  0  0  0  0  0
   -2.4769    3.7836    1.2382 C   0  0  0  1  0  0  0  0  0  0  0  0
   -3.2886    4.0895    2.3194 C   0  0  0  1  0  0  0  0  0  0  0  0
   -4.2595    5.0658    2.1999 C   0  0  0  1  0  0  0  0  0  0  0  0
   -1.4049    2.7221    1.3124 C   0  0  0  1  0  0  0  0  0  0  0  0
   -3.7302    5.9429   -0.9781 H   0  0  0  1  0  0  0  0  0  0  0  0
   -2.0230    4.2317   -0.7675 H   0  0  0  1  0  0  0  0  0  0  0  0
   -3.1671    3.5844    3.2203 H   0  0  0  1  0  0  0  0  0  0  0  0
   -4.8712    5.2926    3.0099 H   0  0  0  1  0  0  0  0  0  0  0  0
   -0.4486    3.2017    1.2911 H   0  0  0  1  0  0  0  0  0  0  0  0
   -1.5166    2.1890    2.2334 H   0  0  0  1  0  0  0  0  0  0  0  0
  1  4  1  0  0  0  0
  2  4  1  0  0  0  0
  2  5  2  0  0  0  0
  2  6  1  0  0  0  0
  3  4  1  0  0  0  0
  3  7  1  0  0  0  0
  3  8  1  0  0  0  0
  4 28  1  0  0  0  0
  6  9  1  0  0  0  0
  6 12  1  0  0  0  0
  8 10  1  0  0  0  0
  8 11  2  0  0  0  0
  9 13  1  0  0  0  0
  9 14  1  0  0  0  0
  9 15  1  0  0  0  0
 10 16  1  0  0  0  0
 10 17  1  0  0  0  0
 10 18  1  0  0  0  0
 19 20  2  0  0  0  0
 19 21  1  0  0  0  0
 19 22  1  0  0  0  0
 22 23  4  0  0  0  0
 22 27  4  0  0  0  0
 23 24  4  0  0  0  0
 23 29  1  0  0  0  0
 24 25  4  0  0  0  0
 24 30  1  0  0  0  0
 25 26  4  0  0  0  0
 25 28  1  0  0  0  0
 26 27  4  0  0  0  0
 26 31  1  0  0  0  0
 27 32  1  0  0  0  0
 28 33  1  0  0  0  0
 28 34  1  0  0  0  0
M  END
> <BCLConfClusterSize>
1

> <ConfClashScore>
0 

> <ConfOneFourInteractionScore>
-0.990503 

> <ConfScore>
-0.181699 

> <ConfScorePBest>
0.00629587 

> <ConfTolerance>
0.29308 

> <RosettaParamsInstructions>
M  ROOT 3
M  POLY_N_BB 3
M  POLY_CA_BB 4
M  POLY_C_BB 2
M  POLY_O_BB 5
M  POLY_IGNORE 9 10 11 12 13 14 15 16 17 18 
M  POLY_UPPER 6
M  POLY_LOWER 8
M  POLY_CHG 0
M  POLY_PROPERTIES ALPHA_AA L_AA PROTEIN AROMATIC POLYMER 
M  END

$$$$



 34 34  0  0  0  0  0  0  0  0999 V2000
   -0.6200    3.1552    3.2337 H   0  0  0  1  0  0  0  0  0  0  0  0
    0.7908    1.8977    2.3773 C   0  0  0  1  0  0  0  0  0  0  0  0
    0.4081    4.3007    1.8860 N   0  0  0  1  0  0  0  0  0  0  0  0
   -0.2241    3.0170    2.2493 C   0  0  0  1  0  0  0  0  0  0  0  0
    1.8551    1.9376    1.7614 O   0  0  0  1  0  0  0  0  0  0  0  0
    0.4930    0.8646    3.1811 N   0  0  0  1  0  0  0  0  0  0  0  0
    0.5691    4.4974    0.9396 H   0  0  0  1  0  0  0  0  0  0  0  0
    0.7683    5.2035    2.8026 C   0  0  0  1  0  0  0  0  0  0  0  0
    1.2739   -0.3586    3.2897 C   0  0  0  1  0  0  0  0  0  0  0  0
    1.3723    6.4853    2.2629 C   0  0  0  1  0  0  0  0  0  0  0  0
    0.6271    5.0242    4.0094 O   0  0  0  1  0  0  0  0  0  0  0  0
   -0.3108    0.9398    3.7366 H   0  0  0  1  0  0  0  0  0  0  0  0
    2.3146   -0.1273    3.1981 H   0  0  0  1  0  0  0  0  0  0  0  0
    0.9889   -1.0338    2.5101 H   0  0  0  1  0  0  0  0  0  0  0  0
    1.0924   -0.8140    4.2408 H   0  0  0  1  0  0  0  0  0  0  0  0
    2.4363    6.4518    2.3707 H   0  0  0  1  0  0  0  0  0  0  0  0
    0.9848    7.3196    2.8094 H   0  0  0  1  0  0  0  0  0  0  0  0
    1.1220    6.5890    1.2278 H   0  0  0  1  0  0  0  0  0  0  0  0
   -5.4374    6.7503    0.9411 N   0  3  0  1  0  0  0  0  0  0  0  0
   -5.5615    7.3246   -0.0937 O   0  0  0  1  0  0  0  0  0  0  0  0
   -6.1922    7.0014    2.0194 O   0  5  0  1  0  0  0  0  0  0  0  0
   -4.4230    5.7328    1.0384 C   0  0  0  1  0  0  0  0  0  0  0  0
   -3.6221    5.4514   -0.0523 C   0  0  0  1  0  0  0  0  0  0  0  0
   -2.6415    4.4760    0.0410 C   0  0  0  1  0  0  0  0  0  0  0  0
   -2.4684    3.7812    1.2232 C   0  0  0  1  0  0  0  0  0  0  0  0
   -3.2716    4.0633    2.3171 C   0  0  0  1  0  0  0  0  0  0  0  0
   -4.2492    5.0358    2.2240 C   0  0  0  1  0  0  0  0  0  0  0  0
   -1.4213    2.7044    1.3827 C   0  0  0  1  0  0  0  0  0  0  0  0
   -3.7551    5.9715   -0.9430 H   0  0  0  1  0  0  0  0  0  0  0  0
   -2.0362    4.2671   -0.7785 H   0  0  0  1  0  0  0  0  0  0  0  0
   -3.1386    3.5433    3.2079 H   0  0  0  1  0  0  0  0  0  0  0  0
   -4.8545    5.2447    3.0435 H   0  0  0  1  0  0  0  0  0  0  0  0
   -1.9050    1.8470    1.8021 H   0  0  0  1  0  0  0  0  0  0  0  0
   -1.0558    2.4660    0.4057 H   0  0  0  1  0  0  0  0  0  0  0  0
  1  4  1  0  0  0  0
  2  4  1  0  0  0  0
  2  5  2  0  0  0  0
  2  6  1  0  0  0  0
  3  4  1  0  0  0  0
  3  7  1  0  0  0  0
  3  8  1  0  0  0  0
  4 28  1  0  0  0  0
  6  9  1  0  0  0  0
  6 12  1  0  0  0  0
  8 10  1  0  0  0  0
  8 11  2  0  0  0  0
  9 13  1  0  0  0  0
  9 14  1  0  0  0  0
  9 15  1  0  0  0  0
 10 16  1  0  0  0  0
 10 17  1  0  0  0  0
 10 18  1  0  0  0  0
 19 20  2  0  0  0  0
 19 21  1  0  0  0  0
 19 22  1  0  0  0  0
 22 23  4  0  0  0  0
 22 27  4  0  0  0  0
 23 24  4  0  0  0  0
 23 29  1  0  0  0  0
 24 25  4  0  0  0  0
 24 30  1  0  0  0  0
 25 26  4  0  0  0  0
 25 28  1  0  0  0  0
 26 27  4  0  0  0  0
 26 31  1  0  0  0  0
 27 32  1  0  0  0  0
 28 33  1  0  0  0  0
 28 34  1  0  0  0  0
M  END
> <BCLConfClusterSize>
1

> <ConfClashScore>
0 

> <ConfOneFourInteractionScore>
-0.987695 

> <ConfScore>
-0.181377 

> <ConfScorePBest>
0.00626739 

> <ConfTolerance>
0.276295 

> <RosettaParamsInstructions>
M  ROOT 3
M  POLY_N_BB 3
M  POLY_CA_BB 4
M  POLY_C_BB 2
M  POLY_O_BB 5
M  POLY_IGNORE 9 10 11 12 13 14 15 16 17 18 
M  POLY_UPPER 6
M  POLY_LOWER 8
M  POLY_CHG 0
M  POLY_PROPERTIES ALPHA_AA L_AA PROTEIN AROMATIC POLYMER 
M  END

$$$$



 34 34  0  0  0  0  0  0  0  0999 V2000
   -1.2076    2.6798    3.4369 H   0  0  0  1  0  0  0  0  0  0  0  0
    0.5243    1.7468    2.6141 C   0  0  0  1  0  0  0  0  0  0  0  0
    0.0351    4.1562    2.6889 N   0  0  0  1  0  0  0  0  0  0  0  0
   -0.5692    2.8322    2.5918 C   0  0  0  1  0  0  0  0  0  0  0  0
    0.3366    0.6254    2.3468 O   0  0  0  1  0  0  0  0  0  0  0  0
    1.7893    2.1704    2.9784 N   0  0  0  1  0  0  0  0  0  0  0  0
    0.4215    4.5599    1.8839 H   0  0  0  1  0  0  0  0  0  0  0  0
    0.0803    4.8376    3.8372 C   0  0  0  1  0  0  0  0  0  0  0  0
    2.9040    1.2475    3.1318 C   0  0  0  1  0  0  0  0  0  0  0  0
    0.9009    6.1073    3.8157 C   0  0  0  1  0  0  0  0  0  0  0  0
   -0.5021    4.4710    4.8571 O   0  0  0  1  0  0  0  0  0  0  0  0
    1.9404    3.1253    3.1387 H   0  0  0  1  0  0  0  0  0  0  0  0
    2.6607    0.3136    2.6697 H   0  0  0  1  0  0  0  0  0  0  0  0
    3.0962    1.0907    4.1727 H   0  0  0  1  0  0  0  0  0  0  0  0
    3.7746    1.6596    2.6659 H   0  0  0  1  0  0  0  0  0  0  0  0
    1.9417    5.8596    3.7996 H   0  0  0  1  0  0  0  0  0  0  0  0
    0.6856    6.6857    4.6898 H   0  0  0  1  0  0  0  0  0  0  0  0
    0.6561    6.6751    2.9425 H   0  0  0  1  0  0  0  0  0  0  0  0
   -5.4332    6.7637    0.9352 N   0  3  0  1  0  0  0  0  0  0  0  0
   -5.4409    7.4998    0.0001 O   0  0  0  1  0  0  0  0  0  0  0  0
   -6.2809    6.7462    1.9728 O   0  5  0  1  0  0  0  0  0  0  0  0
   -4.4231    5.7424    1.0360 C   0  0  0  1  0  0  0  0  0  0  0  0
   -3.6032    5.4748   -0.0441 C   0  0  0  1  0  0  0  0  0  0  0  0
   -2.6267    4.4957    0.0527 C   0  0  0  1  0  0  0  0  0  0  0  0
   -2.4765    3.7834    1.2276 C   0  0  0  1  0  0  0  0  0  0  0  0
   -3.2987    4.0517    2.3109 C   0  0  0  1  0  0  0  0  0  0  0  0
   -4.2723    5.0279    2.2142 C   0  0  0  1  0  0  0  0  0  0  0  0
   -1.4166    2.7124    1.3319 C   0  0  0  1  0  0  0  0  0  0  0  0
   -3.7189    6.0080   -0.9294 H   0  0  0  1  0  0  0  0  0  0  0  0
   -2.0071    4.2971   -0.7587 H   0  0  0  1  0  0  0  0  0  0  0  0
   -3.1830    3.5185    3.1962 H   0  0  0  1  0  0  0  0  0  0  0  0
   -4.8918    5.2265    3.0256 H   0  0  0  1  0  0  0  0  0  0  0  0
   -1.8974    1.7565    1.3345 H   0  0  0  1  0  0  0  0  0  0  0  0
   -0.7730    2.7861    0.4803 H   0  0  0  1  0  0  0  0  0  0  0  0
  1  4  1  0  0  0  0
  2  4  1  0  0  0  0
  2  5  2  0  0  0  0
  2  6  1  0  0  0  0
  3  4  1  0  0  0  0
  3  7  1  0  0  0  0
  3  8  1  0  0  0  0
  4 28  1  0  0  0  0
  6  9  1  0  0  0  0
  6 12  1  0  0  0  0
  8 10  1  0  0  0  0
  8 11  2  0  0  0  0
  9 13  1  0  0  0  0
  9 14  1  0  0  0  0
  9 15  1  0  0  0  0
 10 16  1  0  0  0  0
 10 17  1  0  0  0  0
 10 18  1  0  0  0  0
 19 20  2  0  0  0  0
 19 21  1  0  0  0  0
 19 22  1  0  0  0  0
 22 23  4  0  0  0  0
 22 27  4  0  0  0  0
 23 24  4  0  0  0  0
 23 29  1  0  0  0  0
 24 25  4  0  0  0  0
 24 30  1  0  0  0  0
 25 26  4  0  0  0  0
 25 28  1  0  0  0  0
 26 27  4  0  0  0  0
 26 31  1  0  0  0  0
 27 32  1  0  0  0  0
 28 33  1  0  0  0  0
 28 34  1  0  0  0  0
M  END
> <BCLConfClusterSize>
1

> <ConfClashScore>
0 

> <ConfOneFourInteractionScore>
-0.94165 

> <ConfScore>
-0.179655 

> <ConfScorePBest>
0.00623891 

> <ConfTolerance>
0.27753 

> <RosettaParamsInstructions>
M  ROOT 3
M  POLY_N_BB 3
M  POLY_CA_BB 4
M  POLY_C_BB 2
M  POLY_O_BB 5
M  POLY_IGNORE 9 10 11 12 13 14 15 16 17 18 
M  POLY_UPPER 6
M  POLY_LOWER 8
M  POLY_CHG 0
M  POLY_PROPERTIES ALPHA_AA L_AA PROTEIN AROMATIC POLYMER 
M  END

$$$$



 34 34  0  0  0  0  0  0  0  0999 V2000
   -2.4468    1.2964    0.2651 H   0  0  0  1  0  0  0  0  0  0  0  0
   -0.6179    0.4221    0.8567 C   0  0  0  1  0  0  0  0  0  0  0  0
   -2.5634    0.8130    2.2721 N   0  0  0  1  0  0  0  0  0  0  0  0
   -1.8152    1.3135    1.1286 C   0  0  0  1  0  0  0  0  0  0  0  0
    0.2310    0.2143    1.7196 O   0  0  0  1  0  0  0  0  0  0  0  0
   -0.5564   -0.1099   -0.3673 N   0  0  0  1  0  0  0  0  0  0  0  0
   -2.1916    0.9348    3.1706 H   0  0  0  1  0  0  0  0  0  0  0  0
   -3.7395    0.1932    2.1395 C   0  0  0  1  0  0  0  0  0  0  0  0
    0.5314   -0.9833   -0.7815 C   0  0  0  1  0  0  0  0  0  0  0  0
   -4.2899   -0.4588    3.4014 C   0  0  0  1  0  0  0  0  0  0  0  0
   -4.3534    0.1419    1.0746 O   0  0  0  1  0  0  0  0  0  0  0  0
   -1.2687    0.0951   -1.0084 H   0  0  0  1  0  0  0  0  0  0  0  0
    0.4965   -1.1188   -1.8424 H   0  0  0  1  0  0  0  0  0  0  0  0
    0.4306   -1.9323   -0.2976 H   0  0  0  1  0  0  0  0  0  0  0  0
    1.4669   -0.5411   -0.5092 H   0  0  0  1  0  0  0  0  0  0  0  0
   -3.5613   -1.1319    3.8026 H   0  0  0  1  0  0  0  0  0  0  0  0
   -5.1819   -0.9996    3.1632 H   0  0  0  1  0  0  0  0  0  0  0  0
   -4.5131    0.2973    4.1249 H   0  0  0  1  0  0  0  0  0  0  0  0
   -5.4215    6.7610    0.9526 N   0  3  0  1  0  0  0  0  0  0  0  0
   -5.5886    7.3271   -0.0806 O   0  0  0  1  0  0  0  0  0  0  0  0
   -6.1090    7.0934    2.0537 O   0  5  0  1  0  0  0  0  0  0  0  0
   -4.4568    5.6939    1.0177 C   0  0  0  1  0  0  0  0  0  0  0  0
   -3.6464    5.4143   -0.0664 C   0  0  0  1  0  0  0  0  0  0  0  0
   -2.6442    4.4629    0.0443 C   0  0  0  1  0  0  0  0  0  0  0  0
   -2.4591    3.7901    1.2373 C   0  0  0  1  0  0  0  0  0  0  0  0
   -3.2718    4.0704    2.3246 C   0  0  0  1  0  0  0  0  0  0  0  0
   -4.2709    5.0189    2.2141 C   0  0  0  1  0  0  0  0  0  0  0  0
   -1.3712    2.7491    1.3569 C   0  0  0  1  0  0  0  0  0  0  0  0
   -3.7884    5.9178   -0.9653 H   0  0  0  1  0  0  0  0  0  0  0  0
   -2.0318    4.2555   -0.7703 H   0  0  0  1  0  0  0  0  0  0  0  0
   -3.1298    3.5669    3.2235 H   0  0  0  1  0  0  0  0  0  0  0  0
   -4.8833    5.2264    3.0287 H   0  0  0  1  0  0  0  0  0  0  0  0
   -0.6139    2.9789    0.6368 H   0  0  0  1  0  0  0  0  0  0  0  0
   -0.9588    2.8144    2.3421 H   0  0  0  1  0  0  0  0  0  0  0  0
  1  4  1  0  0  0  0
  2  4  1  0  0  0  0
  2  5  2  0  0  0  0
  2  6  1  0  0  0  0
  3  4  1  0  0  0  0
  3  7  1  0  0  0  0
  3  8  1  0  0  0  0
  4 28  1  0  0  0  0
  6  9  1  0  0  0  0
  6 12  1  0  0  0  0
  8 10  1  0  0  0  0
  8 11  2  0  0  0  0
  9 13  1  0  0  0  0
  9 14  1  0  0  0  0
  9 15  1  0  0  0  0
 10 16  1  0  0  0  0
 10 17  1  0  0  0  0
 10 18  1  0  0  0  0
 19 20  2  0  0  0  0
 19 21  1  0  0  0  0
 19 22  1  0  0  0  0
 22 23  4  0  0  0  0
 22 27  4  0  0  0  0
 23 24  4  0  0  0  0
 23 29  1  0  0  0  0
 24 25  4  0  0  0  0
 24 30  1  0  0  0  0
 25 26  4  0  0  0  0
 25 28  1  0  0  0  0
 26 27  4  0  0  0  0
 26 31  1  0  0  0  0
 27 32  1  0  0  0  0
 28 33  1  0  0  0  0
 28 34  1  0  0  0  0
M  END
> <BCLConfClusterSize>
1

> <ConfClashScore>
0 

> <ConfOneFourInteractionScore>
-0.974251 

> <ConfScore>
-0.179246 

> <ConfScorePBest>
0.00621043 

> <ConfTolerance>
0.29678 

> <RosettaParamsInstructions>
M  ROOT 3
M  POLY_N_BB 3
M  POLY_CA_BB 4
M  POLY_C_BB 2
M  POLY_O_BB 5
M  POLY_IGNORE 9 10 11 12 13 14 15 16 17 18 
M  POLY_UPPER 6
M  POLY_LOWER 8
M  POLY_CHG 0
M  POLY_PROPERTIES ALPHA_AA L_AA PROTEIN AROMATIC POLYMER 
M  END

$$$$



 34 34  0  0  0  0  0  0  0  0999 V2000
   -0.1911    3.7300   -0.1212 H   0  0  0  1  0  0  0  0  0  0  0  0
    0.6954    1.8485    0.2985 C   0  0  0  1  0  0  0  0  0  0  0  0
   -1.2799    2.2521   -1.0893 N   0  0  0  1  0  0  0  0  0  0  0  0
   -0.5203    2.7274    0.0559 C   0  0  0  1  0  0  0  0  0  0  0  0
    1.7408    2.3251    0.7387 O   0  0  0  1  0  0  0  0  0  0  0  0
    0.5934    0.5330    0.0171 N   0  0  0  1  0  0  0  0  0  0  0  0
   -2.1486    1.8250   -0.9364 H   0  0  0  1  0  0  0  0  0  0  0  0
   -0.8348    2.3774   -2.3428 C   0  0  0  1  0  0  0  0  0  0  0  0
    1.7291   -0.3508    0.2336 C   0  0  0  1  0  0  0  0  0  0  0  0
   -1.7588    1.8432   -3.4297 C   0  0  0  1  0  0  0  0  0  0  0  0
    0.2492    2.8886   -2.6207 O   0  0  0  1  0  0  0  0  0  0  0  0
   -0.2473    0.1718   -0.3339 H   0  0  0  1  0  0  0  0  0  0  0  0
    1.6496   -1.1996   -0.4130 H   0  0  0  1  0  0  0  0  0  0  0  0
    1.7367   -0.6783    1.2523 H   0  0  0  1  0  0  0  0  0  0  0  0
    2.6360    0.1756    0.0209 H   0  0  0  1  0  0  0  0  0  0  0  0
   -2.6993    2.3510   -3.3803 H   0  0  0  1  0  0  0  0  0  0  0  0
   -1.9119    0.7944   -3.2835 H   0  0  0  1  0  0  0  0  0  0  0  0
   -1.3141    2.0090   -4.3887 H   0  0  0  1  0  0  0  0  0  0  0  0
   -5.4493    6.7425    0.9866 N   0  3  0  1  0  0  0  0  0  0  0  0
   -6.1038    6.9641    1.9554 O   0  0  0  1  0  0  0  0  0  0  0  0
   -5.6108    7.3883   -0.1764 O   0  5  0  1  0  0  0  0  0  0  0  0
   -4.4313    5.7274    1.0695 C   0  0  0  1  0  0  0  0  0  0  0  0
   -3.6354    5.4581   -0.0280 C   0  0  0  1  0  0  0  0  0  0  0  0
   -2.6513    4.4851    0.0514 C   0  0  0  1  0  0  0  0  0  0  0  0
   -2.4696    3.7805    1.2265 C   0  0  0  1  0  0  0  0  0  0  0  0
   -3.2677    4.0505    2.3272 C   0  0  0  1  0  0  0  0  0  0  0  0
   -4.2489    5.0207    2.2479 C   0  0  0  1  0  0  0  0  0  0  0  0
   -1.4014    2.7161    1.3120 C   0  0  0  1  0  0  0  0  0  0  0  0
   -3.7749    5.9856   -0.9134 H   0  0  0  1  0  0  0  0  0  0  0  0
   -2.0498    4.2853   -0.7731 H   0  0  0  1  0  0  0  0  0  0  0  0
   -3.1283    3.5231    3.2127 H   0  0  0  1  0  0  0  0  0  0  0  0
   -4.8504    5.2205    3.0724 H   0  0  0  1  0  0  0  0  0  0  0  0
   -0.7903    2.9005    2.1708 H   0  0  0  1  0  0  0  0  0  0  0  0
   -1.8678    1.7576    1.4048 H   0  0  0  1  0  0  0  0  0  0  0  0
  1  4  1  0  0  0  0
  2  4  1  0  0  0  0
  2  5  2  0  0  0  0
  2  6  1  0  0  0  0
  3  4  1  0  0  0  0
  3  7  1  0  0  0  0
  3  8  1  0  0  0  0
  4 28  1  0  0  0  0
  6  9  1  0  0  0  0
  6 12  1  0  0  0  0
  8 10  1  0  0  0  0
  8 11  2  0  0  0  0
  9 13  1  0  0  0  0
  9 14  1  0  0  0  0
  9 15  1  0  0  0  0
 10 16  1  0  0  0  0
 10 17  1  0  0  0  0
 10 18  1  0  0  0  0
 19 20  2  0  0  0  0
 19 21  1  0  0  0  0
 19 22  1  0  0  0  0
 22 23  4  0  0  0  0
 22 27  4  0  0  0  0
 23 24  4  0  0  0  0
 23 29  1  0  0  0  0
 24 25  4  0  0  0  0
 24 30  1  0  0  0  0
 25 26  4  0  0  0  0
 25 28  1  0  0  0  0
 26 27  4  0  0  0  0
 26 31  1  0  0  0  0
 27 32  1  0  0  0  0
 28 33  1  0  0  0  0
 28 34  1  0  0  0  0
M  END
> <BCLConfClusterSize>
1

> <ConfClashScore>
0 

> <ConfOneFourInteractionScore>
-0.949001 

> <ConfScore>
-0.175822 

> <ConfScorePBest>
0.00618195 

> <ConfTolerance>
0.254672 

> <RosettaParamsInstructions>
M  ROOT 3
M  POLY_N_BB 3
M  POLY_CA_BB 4
M  POLY_C_BB 2
M  POLY_O_BB 5
M  POLY_IGNORE 9 10 11 12 13 14 15 16 17 18 
M  POLY_UPPER 6
M  POLY_LOWER 8
M  POLY_CHG 0
M  POLY_PROPERTIES ALPHA_AA L_AA PROTEIN AROMATIC POLYMER 
M  END

$$$$



 34 34  0  0  0  0  0  0  0  0999 V2000
   -1.9775    2.0663   -0.7063 H   0  0  0  1  0  0  0  0  0  0  0  0
   -0.6277    0.6042   -0.0053 C   0  0  0  1  0  0  0  0  0  0  0  0
   -2.9765    0.7876    0.5636 N   0  0  0  1  0  0  0  0  0  0  0  0
   -1.7927    1.5621    0.2192 C   0  0  0  1  0  0  0  0  0  0  0  0
   -0.4958   -0.4114    0.6764 O   0  0  0  1  0  0  0  0  0  0  0  0
    0.2270    0.9445   -0.9829 N   0  0  0  1  0  0  0  0  0  0  0  0
   -2.9439    0.2349    1.3722 H   0  0  0  1  0  0  0  0  0  0  0  0
   -4.1027    0.7824   -0.1513 C   0  0  0  1  0  0  0  0  0  0  0  0
    1.4634    0.1987   -1.1649 C   0  0  0  1  0  0  0  0  0  0  0  0
   -5.2699   -0.0409    0.3575 C   0  0  0  1  0  0  0  0  0  0  0  0
   -4.2522    1.4067   -1.2008 O   0  0  0  1  0  0  0  0  0  0  0  0
    0.0180    1.6967   -1.5753 H   0  0  0  1  0  0  0  0  0  0  0  0
    1.7177   -0.2993   -0.2526 H   0  0  0  1  0  0  0  0  0  0  0  0
    2.2497    0.8725   -1.4343 H   0  0  0  1  0  0  0  0  0  0  0  0
    1.3317   -0.5254   -1.9416 H   0  0  0  1  0  0  0  0  0  0  0  0
   -4.9020   -0.9238    0.8371 H   0  0  0  1  0  0  0  0  0  0  0  0
   -5.8966   -0.3168   -0.4647 H   0  0  0  1  0  0  0  0  0  0  0  0
   -5.8347    0.5368    1.0590 H   0  0  0  1  0  0  0  0  0  0  0  0
   -5.4761    6.7154    0.9834 N   0  3  0  1  0  0  0  0  0  0  0  0
   -6.0631    6.9973    1.9794 O   0  0  0  1  0  0  0  0  0  0  0  0
   -5.7311    7.1837   -0.2459 O   0  5  0  1  0  0  0  0  0  0  0  0
   -4.3842    5.7829    1.0917 C   0  0  0  1  0  0  0  0  0  0  0  0
   -3.5901    5.5128   -0.0068 C   0  0  0  1  0  0  0  0  0  0  0  0
   -2.6320    4.5131    0.0593 C   0  0  0  1  0  0  0  0  0  0  0  0
   -2.4746    3.7830    1.2223 C   0  0  0  1  0  0  0  0  0  0  0  0
   -3.2709    4.0538    2.3241 C   0  0  0  1  0  0  0  0  0  0  0  0
   -4.2261    5.0504    2.2579 C   0  0  0  1  0  0  0  0  0  0  0  0
   -1.5055    2.6254    1.2711 C   0  0  0  1  0  0  0  0  0  0  0  0
   -3.7114    6.0595   -0.8832 H   0  0  0  1  0  0  0  0  0  0  0  0
   -2.0317    4.3126   -0.7659 H   0  0  0  1  0  0  0  0  0  0  0  0
   -3.1497    3.5070    3.2004 H   0  0  0  1  0  0  0  0  0  0  0  0
   -4.8264    5.2510    3.0832 H   0  0  0  1  0  0  0  0  0  0  0  0
   -0.5166    3.0022    1.1133 H   0  0  0  1  0  0  0  0  0  0  0  0
   -1.5649    2.1721    2.2386 H   0  0  0  1  0  0  0  0  0  0  0  0
  1  4  1  0  0  0  0
  2  4  1  0  0  0  0
  2  5  2  0  0  0  0
  2  6  1  0  0  0  0
  3  4  1  0  0  0  0
  3  7  1  0  0  0  0
  3  8  1  0  0  0  0
  4 28  1  0  0  0  0
  6  9  1  0  0  0  0
  6 12  1  0  0  0  0
  8 10  1  0  0  0  0
  8 11  2  0  0  0  0
  9 13  1  0  0  0  0
  9 14  1  0  0  0  0
  9 15  1  0  0  0  0
 10 16  1  0  0  0  0
 10 17  1  0  0  0  0
 10 18  1  0  0  0  0
 19 20  2  0  0  0  0
 19 21  1  0  0  0  0
 19 22  1  0  0  0  0
 22 23  4  0  0  0  0
 22 27  4  0  0  0  0
 23 24  4  0  0  0  0
 23 29  1  0  0  0  0
 24 25  4  0  0  0  0
 24 30  1  0  0  0  0
 25 26  4  0  0  0  0
 25 28  1  0  0  0  0
 26 27  4  0  0  0  0
 26 31  1  0  0  0  0
 27 32  1  0  0  0  0
 28 33  1  0  0  0  0
 28 34  1  0  0  0  0
M  END
> <BCLConfClusterSize>
1

> <ConfClashScore>
0 

> <ConfOneFourInteractionScore>
-0.982823 

> <ConfScore>
-0.171605 

> <ConfScorePBest>
0.00615347 

> <ConfTolerance>
0.318205 

> <RosettaParamsInstructions>
M  ROOT 3
M  POLY_N_BB 3
M  POLY_CA_BB 4
M  POLY_C_BB 2
M  POLY_O_BB 5
M  POLY_IGNORE 9 10 11 12 13 14 15 16 17 18 
M  POLY_UPPER 6
M  POLY_LOWER 8
M  POLY_CHG 0
M  POLY_PROPERTIES ALPHA_AA L_AA PROTEIN AROMATIC POLYMER 
M  END

$$$$



 34 34  0  0  0  0  0  0  0  0999 V2000
    0.1489    4.2291    1.5711 H   0  0  0  1  0  0  0  0  0  0  0  0
    1.0913    2.3332    1.5020 C   0  0  0  1  0  0  0  0  0  0  0  0
    0.1624    3.5717   -0.3897 N   0  0  0  1  0  0  0  0  0  0  0  0
    0.0183    3.3123    1.0350 C   0  0  0  1  0  0  0  0  0  0  0  0
    1.4532    2.3072    2.6776 O   0  0  0  1  0  0  0  0  0  0  0  0
    1.6245    1.5071    0.5973 N   0  0  0  1  0  0  0  0  0  0  0  0
   -0.5938    3.3827   -0.9837 H   0  0  0  1  0  0  0  0  0  0  0  0
    1.2897    4.0587   -0.9161 C   0  0  0  1  0  0  0  0  0  0  0  0
    2.6426    0.5270    0.9443 C   0  0  0  1  0  0  0  0  0  0  0  0
    1.3440    4.2784   -2.4238 C   0  0  0  1  0  0  0  0  0  0  0  0
    2.2891    4.3411   -0.2565 O   0  0  0  1  0  0  0  0  0  0  0  0
    1.3192    1.5633   -0.3323 H   0  0  0  1  0  0  0  0  0  0  0  0
    2.8479    0.5811    1.9930 H   0  0  0  1  0  0  0  0  0  0  0  0
    3.5374    0.7328    0.3949 H   0  0  0  1  0  0  0  0  0  0  0  0
    2.2912   -0.4537    0.7000 H   0  0  0  1  0  0  0  0  0  0  0  0
    1.1603    3.3520   -2.9267 H   0  0  0  1  0  0  0  0  0  0  0  0
    2.3114    4.6459   -2.6959 H   0  0  0  1  0  0  0  0  0  0  0  0
    0.5984    4.9916   -2.7071 H   0  0  0  1  0  0  0  0  0  0  0  0
   -5.4436    6.7539    0.9373 N   0  3  0  1  0  0  0  0  0  0  0  0
   -5.4927    7.3083   -0.1145 O   0  0  0  1  0  0  0  0  0  0  0  0
   -6.1548    6.9907    2.0480 O   0  5  0  1  0  0  0  0  0  0  0  0
   -4.4339    5.7321    1.0379 C   0  0  0  1  0  0  0  0  0  0  0  0
   -3.6322    5.4456   -0.0509 C   0  0  0  1  0  0  0  0  0  0  0  0
   -2.6561    4.4660    0.0456 C   0  0  0  1  0  0  0  0  0  0  0  0
   -2.4882    3.7722    1.2292 C   0  0  0  1  0  0  0  0  0  0  0  0
   -3.2921    4.0595    2.3212 C   0  0  0  1  0  0  0  0  0  0  0  0
   -4.2653    5.0362    2.2248 C   0  0  0  1  0  0  0  0  0  0  0  0
   -1.3682    2.7759    1.3514 C   0  0  0  1  0  0  0  0  0  0  0  0
   -3.7613    5.9649   -0.9426 H   0  0  0  1  0  0  0  0  0  0  0  0
   -2.0502    4.2532   -0.7724 H   0  0  0  1  0  0  0  0  0  0  0  0
   -3.1630    3.5402    3.2130 H   0  0  0  1  0  0  0  0  0  0  0  0
   -4.8712    5.2490    3.0429 H   0  0  0  1  0  0  0  0  0  0  0  0
   -1.3593    2.4111    2.3572 H   0  0  0  1  0  0  0  0  0  0  0  0
   -1.5706    1.9677    0.6800 H   0  0  0  1  0  0  0  0  0  0  0  0
  1  4  1  0  0  0  0
  2  4  1  0  0  0  0
  2  5  2  0  0  0  0
  2  6  1  0  0  0  0
  3  4  1  0  0  0  0
  3  7  1  0  0  0  0
  3  8  1  0  0  0  0
  4 28  1  0  0  0  0
  6  9  1  0  0  0  0
  6 12  1  0  0  0  0
  8 10  1  0  0  0  0
  8 11  2  0  0  0  0
  9 13  1  0  0  0  0
  9 14  1  0  0  0  0
  9 15  1  0  0  0  0
 10 16  1  0  0  0  0
 10 17  1  0  0  0  0
 10 18  1  0  0  0  0
 19 20  2  0  0  0  0
 19 21  1  0  0  0  0
 19 22  1  0  0  0  0
 22 23  4  0  0  0  0
 22 27  4  0  0  0  0
 23 24  4  0  0  0  0
 23 29  1  0  0  0  0
 24 25  4  0  0  0  0
 24 30  1  0  0  0  0
 25 26  4  0  0  0  0
 25 28  1  0  0  0  0
 26 27  4  0  0  0  0
 26 31  1  0  0  0  0
 27 32  1  0  0  0  0
 28 33  1  0  0  0  0
 28 34  1  0  0  0  0
M  END
> <BCLConfClusterSize>
1

> <ConfClashScore>
0 

> <ConfOneFourInteractionScore>
-0.956443 

> <ConfScore>
-0.157773 

> <ConfScorePBest>
0.00612499 

> <ConfTolerance>
0.203804 

> <RosettaParamsInstructions>
M  ROOT 3
M  POLY_N_BB 3
M  POLY_CA_BB 4
M  POLY_C_BB 2
M  POLY_O_BB 5
M  POLY_IGNORE 9 10 11 12 13 14 15 16 17 18 
M  POLY_UPPER 6
M  POLY_LOWER 8
M  POLY_CHG 0
M  POLY_PROPERTIES ALPHA_AA L_AA PROTEIN AROMATIC POLYMER 
M  END

$$$$



 34 34  0  0  0  0  0  0  0  0999 V2000
   -2.6848    1.2134    0.5577 H   0  0  0  1  0  0  0  0  0  0  0  0
   -1.5701    1.8237   -1.1147 C   0  0  0  1  0  0  0  0  0  0  0  0
   -0.7929    0.3922    0.7253 N   0  0  0  1  0  0  0  0  0  0  0  0
   -1.6769    1.5201    0.3706 C   0  0  0  1  0  0  0  0  0  0  0  0
   -2.5431    2.2405   -1.7214 O   0  0  0  1  0  0  0  0  0  0  0  0
   -0.3564    1.6928   -1.6732 N   0  0  0  1  0  0  0  0  0  0  0  0
   -0.0637    0.5689    1.3557 H   0  0  0  1  0  0  0  0  0  0  0  0
   -0.9122   -0.8513    0.2516 C   0  0  0  1  0  0  0  0  0  0  0  0
   -0.1331    1.8761   -3.0995 C   0  0  0  1  0  0  0  0  0  0  0  0
    0.0876   -1.8584    0.7858 C   0  0  0  1  0  0  0  0  0  0  0  0
   -1.7717   -1.1771   -0.5657 O   0  0  0  1  0  0  0  0  0  0  0  0
    0.4057    1.4658   -1.1004 H   0  0  0  1  0  0  0  0  0  0  0  0
   -0.9321    1.4220   -3.6474 H   0  0  0  1  0  0  0  0  0  0  0  0
    0.7939    1.4194   -3.3767 H   0  0  0  1  0  0  0  0  0  0  0  0
   -0.0970    2.9219   -3.3230 H   0  0  0  1  0  0  0  0  0  0  0  0
    1.0807   -1.4888    0.6377 H   0  0  0  1  0  0  0  0  0  0  0  0
   -0.0286   -2.7863    0.2657 H   0  0  0  1  0  0  0  0  0  0  0  0
   -0.0838   -2.0109    1.8309 H   0  0  0  1  0  0  0  0  0  0  0  0
   -5.4189    6.7546    0.9207 N   0  3  0  1  0  0  0  0  0  0  0  0
   -5.6431    7.5260    0.0427 O   0  0  0  1  0  0  0  0  0  0  0  0
   -6.2268    6.8390    1.9864 O   0  5  0  1  0  0  0  0  0  0  0  0
   -4.4104    5.7324    1.0288 C   0  0  0  1  0  0  0  0  0  0  0  0
   -3.5946    5.4519   -0.0511 C   0  0  0  1  0  0  0  0  0  0  0  0
   -2.6197    4.4720    0.0527 C   0  0  0  1  0  0  0  0  0  0  0  0
   -2.4670    3.7717    1.2345 C   0  0  0  1  0  0  0  0  0  0  0  0
   -3.2851    4.0529    2.3176 C   0  0  0  1  0  0  0  0  0  0  0  0
   -4.2571    5.0299    2.2139 C   0  0  0  1  0  0  0  0  0  0  0  0
   -1.3935    2.7107    1.2916 C   0  0  0  1  0  0  0  0  0  0  0  0
   -3.7122    5.9762   -0.9416 H   0  0  0  1  0  0  0  0  0  0  0  0
   -2.0031    4.2638   -0.7586 H   0  0  0  1  0  0  0  0  0  0  0  0
   -3.1675    3.5287    3.2081 H   0  0  0  1  0  0  0  0  0  0  0  0
   -4.8736    5.2381    3.0252 H   0  0  0  1  0  0  0  0  0  0  0  0
   -0.4629    3.1519    1.0014 H   0  0  0  1  0  0  0  0  0  0  0  0
   -1.3210    2.3534    2.2976 H   0  0  0  1  0  0  0  0  0  0  0  0
  1  4  1  0  0  0  0
  2  4  1  0  0  0  0
  2  5  2  0  0  0  0
  2  6  1  0  0  0  0
  3  4  1  0  0  0  0
  3  7  1  0  0  0  0
  3  8  1  0  0  0  0
  4 28  1  0  0  0  0
  6  9  1  0  0  0  0
  6 12  1  0  0  0  0
  8 10  1  0  0  0  0
  8 11  2  0  0  0  0
  9 13  1  0  0  0  0
  9 14  1  0  0  0  0
  9 15  1  0  0  0  0
 10 16  1  0  0  0  0
 10 17  1  0  0  0  0
 10 18  1  0  0  0  0
 19 20  2  0  0  0  0
 19 21  1  0  0  0  0
 19 22  1  0  0  0  0
 22 23  4  0  0  0  0
 22 27  4  0  0  0  0
 23 24  4  0  0  0  0
 23 29  1  0  0  0  0
 24 25  4  0  0  0  0
 24 30  1  0  0  0  0
 25 26  4  0  0  0  0
 25 28  1  0  0  0  0
 26 27  4  0  0  0  0
 26 31  1  0  0  0  0
 27 32  1  0  0  0  0
 28 33  1  0  0  0  0
 28 34  1  0  0  0  0
M  END
> <BCLConfClusterSize>
1

> <ConfClashScore>
0 

> <ConfOneFourInteractionScore>
-0.960318 

> <ConfScore>
-0.153974 

> <ConfScorePBest>
0.00609651 

> <ConfTolerance>
0.330162 

> <RosettaParamsInstructions>
M  ROOT 3
M  POLY_N_BB 3
M  POLY_CA_BB 4
M  POLY_C_BB 2
M  POLY_O_BB 5
M  POLY_IGNORE 9 10 11 12 13 14 15 16 17 18 
M  POLY_UPPER 6
M  POLY_LOWER 8
M  POLY_CHG 0
M  POLY_PROPERTIES ALPHA_AA L_AA PROTEIN AROMATIC POLYMER 
M  END

$$$$



 34 34  0  0  0  0  0  0  0  0999 V2000
   -1.2530    2.1553   -0.6775 H   0  0  0  1  0  0  0  0  0  0  0  0
   -0.3271    0.6348    0.4569 C   0  0  0  1  0  0  0  0  0  0  0  0
   -2.7384    1.0406    0.2365 N   0  0  0  1  0  0  0  0  0  0  0  0
   -1.4209    1.6661    0.2592 C   0  0  0  1  0  0  0  0  0  0  0  0
    0.8570    0.9251    0.3085 O   0  0  0  1  0  0  0  0  0  0  0  0
   -0.7387   -0.5897    0.7980 N   0  0  0  1  0  0  0  0  0  0  0  0
   -3.2329    0.9949    1.0814 H   0  0  0  1  0  0  0  0  0  0  0  0
   -3.3209    0.5261   -0.8476 C   0  0  0  1  0  0  0  0  0  0  0  0
    0.1153   -1.7659    0.8697 C   0  0  0  1  0  0  0  0  0  0  0  0
   -4.7637    0.0921   -0.6769 C   0  0  0  1  0  0  0  0  0  0  0  0
   -2.7455    0.4048   -1.9166 O   0  0  0  1  0  0  0  0  0  0  0  0
   -1.6872   -0.7045    1.0162 H   0  0  0  1  0  0  0  0  0  0  0  0
   -0.4913   -2.6469    0.8926 H   0  0  0  1  0  0  0  0  0  0  0  0
    0.7110   -1.7202    1.7574 H   0  0  0  1  0  0  0  0  0  0  0  0
    0.7543   -1.7952    0.0119 H   0  0  0  1  0  0  0  0  0  0  0  0
   -4.8306   -0.6201    0.1188 H   0  0  0  1  0  0  0  0  0  0  0  0
   -5.1114   -0.3544   -1.5851 H   0  0  0  1  0  0  0  0  0  0  0  0
   -5.3671    0.9444   -0.4441 H   0  0  0  1  0  0  0  0  0  0  0  0
   -5.4619    6.7382    0.9599 N   0  3  0  1  0  0  0  0  0  0  0  0
   -5.7211    7.1291   -0.1338 O   0  0  0  1  0  0  0  0  0  0  0  0
   -5.9532    7.1456    2.1381 O   0  5  0  1  0  0  0  0  0  0  0  0
   -4.4317    5.7337    1.0169 C   0  0  0  1  0  0  0  0  0  0  0  0
   -3.6423    5.4241   -0.0746 C   0  0  0  1  0  0  0  0  0  0  0  0
   -2.6599    4.4521    0.0338 C   0  0  0  1  0  0  0  0  0  0  0  0
   -2.4736    3.7887    1.2319 C   0  0  0  1  0  0  0  0  0  0  0  0
   -3.2652    4.0991    2.3266 C   0  0  0  1  0  0  0  0  0  0  0  0
   -4.2446    5.0682    2.2184 C   0  0  0  1  0  0  0  0  0  0  0  0
   -1.4073    2.7254    1.3492 C   0  0  0  1  0  0  0  0  0  0  0  0
   -3.7852    5.9205   -0.9772 H   0  0  0  1  0  0  0  0  0  0  0  0
   -2.0632    4.2220   -0.7863 H   0  0  0  1  0  0  0  0  0  0  0  0
   -3.1223    3.6027    3.2293 H   0  0  0  1  0  0  0  0  0  0  0  0
   -4.8413    5.2983    3.0386 H   0  0  0  1  0  0  0  0  0  0  0  0
   -0.4537    3.2102    1.3263 H   0  0  0  1  0  0  0  0  0  0  0  0
   -1.5349    2.2323    2.2902 H   0  0  0  1  0  0  0  0  0  0  0  0
  1  4  1  0  0  0  0
  2  4  1  0  0  0  0
  2  5  2  0  0  0  0
  2  6  1  0  0  0  0
  3  4  1  0  0  0  0
  3  7  1  0  0  0  0
  3  8  1  0  0  0  0
  4 28  1  0  0  0  0
  6  9  1  0  0  0  0
  6 12  1  0  0  0  0
  8 10  1  0  0  0  0
  8 11  2  0  0  0  0
  9 13  1  0  0  0  0
  9 14  1  0  0  0  0
  9 15  1  0  0  0  0
 10 16  1  0  0  0  0
 10 17  1  0  0  0  0
 10 18  1  0  0  0  0
 19 20  2  0  0  0  0
 19 21  1  0  0  0  0
 19 22  1  0  0  0  0
 22 23  4  0  0  0  0
 22 27  4  0  0  0  0
 23 24  4  0  0  0  0
 23 29  1  0  0  0  0
 24 25  4  0  0  0  0
 24 30  1  0  0  0  0
 25 26  4  0  0  0  0
 25 28  1  0  0  0  0
 26 27  4  0  0  0  0
 26 31  1  0  0  0  0
 27 32  1  0  0  0  0
 28 33  1  0  0  0  0
 28 34  1  0  0  0  0
M  END
> <BCLConfClusterSize>
1

> <ConfClashScore>
0 

> <ConfOneFourInteractionScore>
-0.94165 

> <ConfScore>
-0.151815 

> <ConfScorePBest>
0.00606803 

> <ConfTolerance>
0.296645 

> <RosettaParamsInstructions>
M  ROOT 3
M  POLY_N_BB 3
M  POLY_CA_BB 4
M  POLY_C_BB 2
M  POLY_O_BB 5
M  POLY_IGNORE 9 10 11 12 13 14 15 16 17 18 
M  POLY_UPPER 6
M  POLY_LOWER 8
M  POLY_CHG 0
M  POLY_PROPERTIES ALPHA_AA L_AA PROTEIN AROMATIC POLYMER 
M  END

$$$$



 34 34  0  0  0  0  0  0  0  0999 V2000
   -0.7067    3.5109    3.2132 H   0  0  0  1  0  0  0  0  0  0  0  0
    0.5330    1.8837    2.6595 C   0  0  0  1  0  0  0  0  0  0  0  0
    0.5462    4.1226    1.6750 N   0  0  0  1  0  0  0  0  0  0  0  0
   -0.2847    3.1130    2.3141 C   0  0  0  1  0  0  0  0  0  0  0  0
    0.1414    1.0707    3.4958 O   0  0  0  1  0  0  0  0  0  0  0  0
    1.6880    1.7511    2.0012 N   0  0  0  1  0  0  0  0  0  0  0  0
    0.8071    4.0184    0.7361 H   0  0  0  1  0  0  0  0  0  0  0  0
    0.9580    5.2017    2.3723 C   0  0  0  1  0  0  0  0  0  0  0  0
    2.5269    0.5693    2.1335 C   0  0  0  1  0  0  0  0  0  0  0  0
    1.9951    6.0665    1.6923 C   0  0  0  1  0  0  0  0  0  0  0  0
    0.5285    5.4802    3.4910 O   0  0  0  1  0  0  0  0  0  0  0  0
    1.9805    2.4748    1.4087 H   0  0  0  1  0  0  0  0  0  0  0  0
    2.2103   -0.1738    1.4317 H   0  0  0  1  0  0  0  0  0  0  0  0
    2.4415    0.1809    3.1268 H   0  0  0  1  0  0  0  0  0  0  0  0
    3.5458    0.8319    1.9390 H   0  0  0  1  0  0  0  0  0  0  0  0
    2.0959    6.9890    2.2251 H   0  0  0  1  0  0  0  0  0  0  0  0
    1.6882    6.2672    0.6871 H   0  0  0  1  0  0  0  0  0  0  0  0
    2.9351    5.5555    1.6835 H   0  0  0  1  0  0  0  0  0  0  0  0
   -5.4393    6.7483    0.9404 N   0  3  0  1  0  0  0  0  0  0  0  0
   -5.6287    7.2551   -0.1195 O   0  0  0  1  0  0  0  0  0  0  0  0
   -6.1214    7.0747    2.0466 O   0  5  0  1  0  0  0  0  0  0  0  0
   -4.4242    5.7316    1.0380 C   0  0  0  1  0  0  0  0  0  0  0  0
   -3.6306    5.4426   -0.0561 C   0  0  0  1  0  0  0  0  0  0  0  0
   -2.6492    4.4680    0.0375 C   0  0  0  1  0  0  0  0  0  0  0  0
   -2.4680    3.7816    1.2234 C   0  0  0  1  0  0  0  0  0  0  0  0
   -3.2638    4.0714    2.3207 C   0  0  0  1  0  0  0  0  0  0  0  0
   -4.2422    5.0431    2.2273 C   0  0  0  1  0  0  0  0  0  0  0  0
   -1.4196    2.7061    1.3834 C   0  0  0  1  0  0  0  0  0  0  0  0
   -3.7697    5.9563   -0.9496 H   0  0  0  1  0  0  0  0  0  0  0  0
   -2.0495    4.2533   -0.7846 H   0  0  0  1  0  0  0  0  0  0  0  0
   -3.1247    3.5577    3.2142 H   0  0  0  1  0  0  0  0  0  0  0  0
   -4.8419    5.2578    3.0493 H   0  0  0  1  0  0  0  0  0  0  0  0
   -1.8883    1.8301    1.7806 H   0  0  0  1  0  0  0  0  0  0  0  0
   -1.0081    2.4857    0.4206 H   0  0  0  1  0  0  0  0  0  0  0  0
  1  4  1  0  0  0  0
  2  4  1  0  0  0  0
  2  5  2  0  0  0  0
  2  6  1  0  0  0  0
  3  4  1  0  0  0  0
  3  7  1  0  0  0  0
  3  8  1  0  0  0  0
  4 28  1  0  0  0  0
  6  9  1  0  0  0  0
  6 12  1  0  0  0  0
  8 10  1  0  0  0  0
  8 11  2  0  0  0  0
  9 13  1  0  0  0  0
  9 14  1  0  0  0  0
  9 15  1  0  0  0  0
 10 16  1  0  0  0  0
 10 17  1  0  0  0  0
 10 18  1  0  0  0  0
 19 20  2  0  0  0  0
 19 21  1  0  0  0  0
 19 22  1  0  0  0  0
 22 23  4  0  0  0  0
 22 27  4  0  0  0  0
 23 24  4  0  0  0  0
 23 29  1  0  0  0  0
 24 25  4  0  0  0  0
 24 30  1  0  0  0  0
 25 26  4  0  0  0  0
 25 28  1  0  0  0  0
 26 27  4  0  0  0  0
 26 31  1  0  0  0  0
 27 32  1  0  0  0  0
 28 33  1  0  0  0  0
 28 34  1  0  0  0  0
M  END
> <BCLConfClusterSize>
1

> <ConfClashScore>
0 

> <ConfOneFourInteractionScore>
-0.956443 

> <ConfScore>
-0.140698 

> <ConfScorePBest>
0.00603955 

> <ConfTolerance>
0.333926 

> <RosettaParamsInstructions>
M  ROOT 3
M  POLY_N_BB 3
M  POLY_CA_BB 4
M  POLY_C_BB 2
M  POLY_O_BB 5
M  POLY_IGNORE 9 10 11 12 13 14 15 16 17 18 
M  POLY_UPPER 6
M  POLY_LOWER 8
M  POLY_CHG 0
M  POLY_PROPERTIES ALPHA_AA L_AA PROTEIN AROMATIC POLYMER 
M  END

$$$$



 34 34  0  0  0  0  0  0  0  0999 V2000
   -1.8104    2.0700    3.3061 H   0  0  0  1  0  0  0  0  0  0  0  0
   -0.0542    1.0684    2.6733 C   0  0  0  1  0  0  0  0  0  0  0  0
   -0.2633    3.4456    3.2838 N   0  0  0  1  0  0  0  0  0  0  0  0
   -0.9554    2.2995    2.7051 C   0  0  0  1  0  0  0  0  0  0  0  0
   -0.5709   -0.0277    2.8734 O   0  0  0  1  0  0  0  0  0  0  0  0
    1.2530    1.2463    2.4290 N   0  0  0  1  0  0  0  0  0  0  0  0
   -0.1324    4.2461    2.7340 H   0  0  0  1  0  0  0  0  0  0  0  0
    0.1986    3.4419    4.5375 C   0  0  0  1  0  0  0  0  0  0  0  0
    2.1600    0.1082    2.4401 C   0  0  0  1  0  0  0  0  0  0  0  0
    0.9195    4.7241    4.9575 C   0  0  0  1  0  0  0  0  0  0  0  0
    0.0096    2.5359    5.3475 O   0  0  0  1  0  0  0  0  0  0  0  0
    1.5978    2.1445    2.2427 H   0  0  0  1  0  0  0  0  0  0  0  0
    1.7306   -0.6851    3.0155 H   0  0  0  1  0  0  0  0  0  0  0  0
    3.0927    0.4001    2.8756 H   0  0  0  1  0  0  0  0  0  0  0  0
    2.3234   -0.2270    1.4372 H   0  0  0  1  0  0  0  0  0  0  0  0
    0.4793    5.5615    4.4576 H   0  0  0  1  0  0  0  0  0  0  0  0
    1.9539    4.6544    4.6929 H   0  0  0  1  0  0  0  0  0  0  0  0
    0.8295    4.8532    6.0159 H   0  0  0  1  0  0  0  0  0  0  0  0
   -5.4425    6.7447    0.9381 N   0  3  0  1  0  0  0  0  0  0  0  0
   -5.7314    7.1262   -0.1515 O   0  0  0  1  0  0  0  0  0  0  0  0
   -6.0926    7.1072    2.0523 O   0  5  0  1  0  0  0  0  0  0  0  0
   -4.3901    5.7682    1.0496 C   0  0  0  1  0  0  0  0  0  0  0  0
   -3.6119    5.4551   -0.0490 C   0  0  0  1  0  0  0  0  0  0  0  0
   -2.6546    4.4567    0.0415 C   0  0  0  1  0  0  0  0  0  0  0  0
   -2.4820    3.7706    1.2289 C   0  0  0  1  0  0  0  0  0  0  0  0
   -3.2623    4.0845    2.3307 C   0  0  0  1  0  0  0  0  0  0  0  0
   -4.2167    5.0800    2.2403 C   0  0  0  1  0  0  0  0  0  0  0  0
   -1.4431    2.6785    1.3265 C   0  0  0  1  0  0  0  0  0  0  0  0
   -3.7447    5.9687   -0.9435 H   0  0  0  1  0  0  0  0  0  0  0  0
   -2.0664    4.2238   -0.7839 H   0  0  0  1  0  0  0  0  0  0  0  0
   -3.1296    3.5709    3.2252 H   0  0  0  1  0  0  0  0  0  0  0  0
   -4.8050    5.3128    3.0658 H   0  0  0  1  0  0  0  0  0  0  0  0
   -1.8600    1.7993    0.8815 H   0  0  0  1  0  0  0  0  0  0  0  0
   -0.5914    2.9954    0.7616 H   0  0  0  1  0  0  0  0  0  0  0  0
  1  4  1  0  0  0  0
  2  4  1  0  0  0  0
  2  5  2  0  0  0  0
  2  6  1  0  0  0  0
  3  4  1  0  0  0  0
  3  7  1  0  0  0  0
  3  8  1  0  0  0  0
  4 28  1  0  0  0  0
  6  9  1  0  0  0  0
  6 12  1  0  0  0  0
  8 10  1  0  0  0  0
  8 11  2  0  0  0  0
  9 13  1  0  0  0  0
  9 14  1  0  0  0  0
  9 15  1  0  0  0  0
 10 16  1  0  0  0  0
 10 17  1  0  0  0  0
 10 18  1  0  0  0  0
 19 20  2  0  0  0  0
 19 21  1  0  0  0  0
 19 22  1  0  0  0  0
 22 23  4  0  0  0  0
 22 27  4  0  0  0  0
 23 24  4  0  0  0  0
 23 29  1  0  0  0  0
 24 25  4  0  0  0  0
 24 30  1  0  0  0  0
 25 26  4  0  0  0  0
 25 28  1  0  0  0  0
 26 27  4  0  0  0  0
 26 31  1  0  0  0  0
 27 32  1  0  0  0  0
 28 33  1  0  0  0  0
 28 34  1  0  0  0  0
M  END
> <BCLConfClusterSize>
1

> <ConfClashScore>
0 

> <ConfOneFourInteractionScore>
-0.949001 

> <ConfScore>
-0.138875 

> <ConfScorePBest>
0.00601107 

> <ConfTolerance>
0.35908 

> <RosettaParamsInstructions>
M  ROOT 3
M  POLY_N_BB 3
M  POLY_CA_BB 4
M  POLY_C_BB 2
M  POLY_O_BB 5
M  POLY_IGNORE 9 10 11 12 13 14 15 16 17 18 
M  POLY_UPPER 6
M  POLY_LOWER 8
M  POLY_CHG 0
M  POLY_PROPERTIES ALPHA_AA L_AA PROTEIN AROMATIC POLYMER 
M  END

$$$$



 34 34  0  0  0  0  0  0  0  0999 V2000
   -1.7889    2.0833   -0.6332 H   0  0  0  1  0  0  0  0  0  0  0  0
   -0.2848    0.8273    0.1041 C   0  0  0  1  0  0  0  0  0  0  0  0
   -2.6847    0.7102    0.5976 N   0  0  0  1  0  0  0  0  0  0  0  0
   -1.5740    1.6016    0.2977 C   0  0  0  1  0  0  0  0  0  0  0  0
    0.0287   -0.0792    0.8581 O   0  0  0  1  0  0  0  0  0  0  0  0
    0.4682    1.2038   -0.9334 N   0  0  0  1  0  0  0  0  0  0  0  0
   -3.2411    0.8955    1.3827 H   0  0  0  1  0  0  0  0  0  0  0  0
   -2.9749   -0.3623   -0.1677 C   0  0  0  1  0  0  0  0  0  0  0  0
    1.8003    0.6452   -1.1102 C   0  0  0  1  0  0  0  0  0  0  0  0
   -3.9983   -1.3530    0.3522 C   0  0  0  1  0  0  0  0  0  0  0  0
   -2.4267   -0.5337   -1.2557 O   0  0  0  1  0  0  0  0  0  0  0  0
    0.1227    1.8574   -1.5766 H   0  0  0  1  0  0  0  0  0  0  0  0
    2.0208   -0.0165   -0.2988 H   0  0  0  1  0  0  0  0  0  0  0  0
    2.5193    1.4374   -1.1295 H   0  0  0  1  0  0  0  0  0  0  0  0
    1.8403    0.1041   -2.0325 H   0  0  0  1  0  0  0  0  0  0  0  0
   -4.9003   -0.8356    0.6043 H   0  0  0  1  0  0  0  0  0  0  0  0
   -3.6120   -1.8408    1.2226 H   0  0  0  1  0  0  0  0  0  0  0  0
   -4.2048   -2.0818   -0.4036 H   0  0  0  1  0  0  0  0  0  0  0  0
   -5.4408    6.7235    1.0227 N   0  3  0  1  0  0  0  0  0  0  0  0
   -5.9687    6.9912    2.0551 O   0  0  0  1  0  0  0  0  0  0  0  0
   -5.7615    7.3034   -0.1419 O   0  5  0  1  0  0  0  0  0  0  0  0
   -4.4211    5.7414    1.0265 C   0  0  0  1  0  0  0  0  0  0  0  0
   -3.6031    5.4651   -0.0529 C   0  0  0  1  0  0  0  0  0  0  0  0
   -2.6271    4.4861    0.0497 C   0  0  0  1  0  0  0  0  0  0  0  0
   -2.4754    3.7827    1.2298 C   0  0  0  1  0  0  0  0  0  0  0  0
   -3.2957    4.0598    2.3123 C   0  0  0  1  0  0  0  0  0  0  0  0
   -4.2688    5.0358    2.2099 C   0  0  0  1  0  0  0  0  0  0  0  0
   -1.4160    2.7119    1.3405 C   0  0  0  1  0  0  0  0  0  0  0  0
   -3.7200    5.9917   -0.9421 H   0  0  0  1  0  0  0  0  0  0  0  0
   -2.0090    4.2810   -0.7611 H   0  0  0  1  0  0  0  0  0  0  0  0
   -3.1788    3.5332    3.2016 H   0  0  0  1  0  0  0  0  0  0  0  0
   -4.8869    5.2410    3.0207 H   0  0  0  1  0  0  0  0  0  0  0  0
   -0.4565    3.1673    1.2104 H   0  0  0  1  0  0  0  0  0  0  0  0
   -1.4744    2.2744    2.3153 H   0  0  0  1  0  0  0  0  0  0  0  0
  1  4  1  0  0  0  0
  2  4  1  0  0  0  0
  2  5  2  0  0  0  0
  2  6  1  0  0  0  0
  3  4  1  0  0  0  0
  3  7  1  0  0  0  0
  3  8  1  0  0  0  0
  4 28  1  0  0  0  0
  6  9  1  0  0  0  0
  6 12  1  0  0  0  0
  8 10  1  0  0  0  0
  8 11  2  0  0  0  0
  9 13  1  0  0  0  0
  9 14  1  0  0  0  0
  9 15  1  0  0  0  0
 10 16  1  0  0  0  0
 10 17  1  0  0  0  0
 10 18  1  0  0  0  0
 19 20  2  0  0  0  0
 19 21  1  0  0  0  0
 19 22  1  0  0  0  0
 22 23  4  0  0  0  0
 22 27  4  0  0  0  0
 23 24  4  0  0  0  0
 23 29  1  0  0  0  0
 24 25  4  0  0  0  0
 24 30  1  0  0  0  0
 25 26  4  0  0  0  0
 25 28  1  0  0  0  0
 26 27  4  0  0  0  0
 26 31  1  0  0  0  0
 27 32  1  0  0  0  0
 28 33  1  0  0  0  0
 28 34  1  0  0  0  0
M  END
> <BCLConfClusterSize>
1

> <ConfClashScore>
0 

> <ConfOneFourInteractionScore>
-0.978127 

> <ConfScore>
-0.136655 

> <ConfScorePBest>
0.00598259 

> <ConfTolerance>
0.341744 

> <RosettaParamsInstructions>
M  ROOT 3
M  POLY_N_BB 3
M  POLY_CA_BB 4
M  POLY_C_BB 2
M  POLY_O_BB 5
M  POLY_IGNORE 9 10 11 12 13 14 15 16 17 18 
M  POLY_UPPER 6
M  POLY_LOWER 8
M  POLY_CHG 0
M  POLY_PROPERTIES ALPHA_AA L_AA PROTEIN AROMATIC POLYMER 
M  END

$$$$



 34 34  0  0  0  0  0  0  0  0999 V2000
   -2.6750    1.2799    0.4174 H   0  0  0  1  0  0  0  0  0  0  0  0
   -1.0039    0.2374    1.1863 C   0  0  0  1  0  0  0  0  0  0  0  0
   -2.9133    1.0676    2.4600 N   0  0  0  1  0  0  0  0  0  0  0  0
   -2.0708    1.3160    1.2997 C   0  0  0  1  0  0  0  0  0  0  0  0
   -0.6037   -0.3715    2.1776 O   0  0  0  1  0  0  0  0  0  0  0  0
   -0.5425    0.0047   -0.0458 N   0  0  0  1  0  0  0  0  0  0  0  0
   -3.1530    1.8065    3.0575 H   0  0  0  1  0  0  0  0  0  0  0  0
   -3.3651   -0.1779    2.7150 C   0  0  0  1  0  0  0  0  0  0  0  0
    0.5066   -0.9481   -0.3764 C   0  0  0  1  0  0  0  0  0  0  0  0
   -4.0227   -0.4369    4.0565 C   0  0  0  1  0  0  0  0  0  0  0  0
   -3.2482   -1.0786    1.8851 O   0  0  0  1  0  0  0  0  0  0  0  0
   -0.9406    0.5140   -0.7824 H   0  0  0  1  0  0  0  0  0  0  0  0
    1.3530   -0.7813    0.2566 H   0  0  0  1  0  0  0  0  0  0  0  0
    0.7953   -0.8198   -1.3987 H   0  0  0  1  0  0  0  0  0  0  0  0
    0.1429   -1.9437   -0.2302 H   0  0  0  1  0  0  0  0  0  0  0  0
   -3.3784   -1.0424    4.6591 H   0  0  0  1  0  0  0  0  0  0  0  0
   -4.9517   -0.9459    3.9057 H   0  0  0  1  0  0  0  0  0  0  0  0
   -4.2020    0.4947    4.5513 H   0  0  0  1  0  0  0  0  0  0  0  0
   -5.4251    6.7642    0.9490 N   0  3  0  1  0  0  0  0  0  0  0  0
   -5.4928    7.3843   -0.0644 O   0  0  0  1  0  0  0  0  0  0  0  0
   -6.2822    6.9061    1.9693 O   0  5  0  1  0  0  0  0  0  0  0  0
   -4.4161    5.7412    1.0432 C   0  0  0  1  0  0  0  0  0  0  0  0
   -3.6091    5.4667   -0.0448 C   0  0  0  1  0  0  0  0  0  0  0  0
   -2.6336    4.4860    0.0455 C   0  0  0  1  0  0  0  0  0  0  0  0
   -2.4717    3.7789    1.2220 C   0  0  0  1  0  0  0  0  0  0  0  0
   -3.2810    4.0540    2.3132 C   0  0  0  1  0  0  0  0  0  0  0  0
   -4.2535    5.0319    2.2230 C   0  0  0  1  0  0  0  0  0  0  0  0
   -1.4305    2.6958    1.3780 C   0  0  0  1  0  0  0  0  0  0  0  0
   -3.7337    5.9961   -0.9313 H   0  0  0  1  0  0  0  0  0  0  0  0
   -2.0237    4.2822   -0.7719 H   0  0  0  1  0  0  0  0  0  0  0  0
   -3.1564    3.5247    3.1997 H   0  0  0  1  0  0  0  0  0  0  0  0
   -4.8634    5.2356    3.0404 H   0  0  0  1  0  0  0  0  0  0  0  0
   -0.7055    2.7909    0.5968 H   0  0  0  1  0  0  0  0  0  0  0  0
   -0.9493    2.8059    2.3273 H   0  0  0  1  0  0  0  0  0  0  0  0
  1  4  1  0  0  0  0
  2  4  1  0  0  0  0
  2  5  2  0  0  0  0
  2  6  1  0  0  0  0
  3  4  1  0  0  0  0
  3  7  1  0  0  0  0
  3  8  1  0  0  0  0
  4 28  1  0  0  0  0
  6  9  1  0  0  0  0
  6 12  1  0  0  0  0
  8 10  1  0  0  0  0
  8 11  2  0  0  0  0
  9 13  1  0  0  0  0
  9 14  1  0  0  0  0
  9 15  1  0  0  0  0
 10 16  1  0  0  0  0
 10 17  1  0  0  0  0
 10 18  1  0  0  0  0
 19 20  2  0  0  0  0
 19 21  1  0  0  0  0
 19 22  1  0  0  0  0
 22 23  4  0  0  0  0
 22 27  4  0  0  0  0
 23 24  4  0  0  0  0
 23 29  1  0  0  0  0
 24 25  4  0  0  0  0
 24 30  1  0  0  0  0
 25 26  4  0  0  0  0
 25 28  1  0  0  0  0
 26 27  4  0  0  0  0
 26 31  1  0  0  0  0
 27 32  1  0  0  0  0
 28 33  1  0  0  0  0
 28 34  1  0  0  0  0
M  END
> <BCLConfClusterSize>
1

> <ConfClashScore>
0 

> <ConfOneFourInteractionScore>
-0.981931 

> <ConfScore>
-0.131906 

> <ConfScorePBest>
0.00595411 

> <ConfTolerance>
0.292114 

> <RosettaParamsInstructions>
M  ROOT 3
M  POLY_N_BB 3
M  POLY_CA_BB 4
M  POLY_C_BB 2
M  POLY_O_BB 5
M  POLY_IGNORE 9 10 11 12 13 14 15 16 17 18 
M  POLY_UPPER 6
M  POLY_LOWER 8
M  POLY_CHG 0
M  POLY_PROPERTIES ALPHA_AA L_AA PROTEIN AROMATIC POLYMER 
M  END

$$$$



 34 34  0  0  0  0  0  0  0  0999 V2000
   -1.0122    0.7191    0.7426 H   0  0  0  1  0  0  0  0  0  0  0  0
   -3.0577    0.8245    1.2109 C   0  0  0  1  0  0  0  0  0  0  0  0
   -1.9450    1.6503   -0.8372 N   0  0  0  1  0  0  0  0  0  0  0  0
   -1.8073    1.4194    0.5930 C   0  0  0  1  0  0  0  0  0  0  0  0
   -4.1735    1.1181    0.7840 O   0  0  0  1  0  0  0  0  0  0  0  0
   -2.9108   -0.0261    2.2307 N   0  0  0  1  0  0  0  0  0  0  0  0
   -2.8310    1.8612   -1.1991 H   0  0  0  1  0  0  0  0  0  0  0  0
   -0.9056    1.5849   -1.6741 C   0  0  0  1  0  0  0  0  0  0  0  0
   -4.0406   -0.5032    3.0141 C   0  0  0  1  0  0  0  0  0  0  0  0
   -1.2280    1.7725   -3.1347 C   0  0  0  1  0  0  0  0  0  0  0  0
    0.2381    1.3868   -1.2985 O   0  0  0  1  0  0  0  0  0  0  0  0
   -2.0108   -0.3398    2.4590 H   0  0  0  1  0  0  0  0  0  0  0  0
   -4.5862    0.3327    3.3996 H   0  0  0  1  0  0  0  0  0  0  0  0
   -3.6839   -1.1013    3.8264 H   0  0  0  1  0  0  0  0  0  0  0  0
   -4.6825   -1.0916    2.3922 H   0  0  0  1  0  0  0  0  0  0  0  0
   -1.8004    2.6675   -3.2620 H   0  0  0  1  0  0  0  0  0  0  0  0
   -1.7937    0.9347   -3.4853 H   0  0  0  1  0  0  0  0  0  0  0  0
   -0.3187    1.8484   -3.6935 H   0  0  0  1  0  0  0  0  0  0  0  0
   -5.4385    6.7259    1.0214 N   0  3  0  1  0  0  0  0  0  0  0  0
   -5.9039    7.0623    2.0636 O   0  0  0  1  0  0  0  0  0  0  0  0
   -5.8284    7.2295   -0.1576 O   0  5  0  1  0  0  0  0  0  0  0  0
   -4.4201    5.7425    1.0285 C   0  0  0  1  0  0  0  0  0  0  0  0
   -3.5936    5.4705   -0.0454 C   0  0  0  1  0  0  0  0  0  0  0  0
   -2.6196    4.4898    0.0603 C   0  0  0  1  0  0  0  0  0  0  0  0
   -2.4786    3.7803    1.2381 C   0  0  0  1  0  0  0  0  0  0  0  0
   -3.3073    4.0530    2.3152 C   0  0  0  1  0  0  0  0  0  0  0  0
   -4.2784    5.0308    2.2096 C   0  0  0  1  0  0  0  0  0  0  0  0
   -1.4055    2.7189    1.2975 C   0  0  0  1  0  0  0  0  0  0  0  0
   -3.7025    6.0017   -0.9329 H   0  0  0  1  0  0  0  0  0  0  0  0
   -1.9951    4.2880   -0.7464 H   0  0  0  1  0  0  0  0  0  0  0  0
   -3.1985    3.5218    3.2027 H   0  0  0  1  0  0  0  0  0  0  0  0
   -4.9029    5.2326    3.0164 H   0  0  0  1  0  0  0  0  0  0  0  0
   -0.5223    3.1010    0.8296 H   0  0  0  1  0  0  0  0  0  0  0  0
   -1.1996    2.5000    2.3244 H   0  0  0  1  0  0  0  0  0  0  0  0
  1  4  1  0  0  0  0
  2  4  1  0  0  0  0
  2  5  2  0  0  0  0
  2  6  1  0  0  0  0
  3  4  1  0  0  0  0
  3  7  1  0  0  0  0
  3  8  1  0  0  0  0
  4 28  1  0  0  0  0
  6  9  1  0  0  0  0
  6 12  1  0  0  0  0
  8 10  1  0  0  0  0
  8 11  2  0  0  0  0
  9 13  1  0  0  0  0
  9 14  1  0  0  0  0
  9 15  1  0  0  0  0
 10 16  1  0  0  0  0
 10 17  1  0  0  0  0
 10 18  1  0  0  0  0
 19 20  2  0  0  0  0
 19 21  1  0  0  0  0
 19 22  1  0  0  0  0
 22 23  4  0  0  0  0
 22 27  4  0  0  0  0
 23 24  4  0  0  0  0
 23 29  1  0  0  0  0
 24 25  4  0  0  0  0
 24 30  1  0  0  0  0
 25 26  4  0  0  0  0
 25 28  1  0  0  0  0
 26 27  4  0  0  0  0
 26 31  1  0  0  0  0
 27 32  1  0  0  0  0
 28 33  1  0  0  0  0
 28 34  1  0  0  0  0
M  END
> <BCLConfClusterSize>
1

> <ConfClashScore>
0 

> <ConfOneFourInteractionScore>
-0.987258 

> <ConfScore>
-0.131577 

> <ConfScorePBest>
0.00592562 

> <ConfTolerance>
0.240246 

> <RosettaParamsInstructions>
M  ROOT 3
M  POLY_N_BB 3
M  POLY_CA_BB 4
M  POLY_C_BB 2
M  POLY_O_BB 5
M  POLY_IGNORE 9 10 11 12 13 14 15 16 17 18 
M  POLY_UPPER 6
M  POLY_LOWER 8
M  POLY_CHG 0
M  POLY_PROPERTIES ALPHA_AA L_AA PROTEIN AROMATIC POLYMER 
M  END

$$$$



 34 34  0  0  0  0  0  0  0  0999 V2000
   -0.9887    0.7078    1.0026 H   0  0  0  1  0  0  0  0  0  0  0  0
   -2.8909    0.8170    1.8933 C   0  0  0  1  0  0  0  0  0  0  0  0
   -2.2913    1.3761   -0.4427 N   0  0  0  1  0  0  0  0  0  0  0  0
   -1.8375    1.3563    0.9399 C   0  0  0  1  0  0  0  0  0  0  0  0
   -4.0785    0.8432    1.5730 O   0  0  0  1  0  0  0  0  0  0  0  0
   -2.4477    0.2501    3.0265 N   0  0  0  1  0  0  0  0  0  0  0  0
   -3.2506    1.3643   -0.6426 H   0  0  0  1  0  0  0  0  0  0  0  0
   -1.4028    1.4102   -1.4399 C   0  0  0  1  0  0  0  0  0  0  0  0
   -3.3502   -0.3260    4.0122 C   0  0  0  1  0  0  0  0  0  0  0  0
   -1.9848    1.4675   -2.8389 C   0  0  0  1  0  0  0  0  0  0  0  0
   -0.1867    1.3967   -1.2543 O   0  0  0  1  0  0  0  0  0  0  0  0
   -1.4828    0.2233    3.1960 H   0  0  0  1  0  0  0  0  0  0  0  0
   -3.9103    0.4547    4.4830 H   0  0  0  1  0  0  0  0  0  0  0  0
   -2.7824   -0.8525    4.7506 H   0  0  0  1  0  0  0  0  0  0  0  0
   -4.0215   -1.0038    3.5276 H   0  0  0  1  0  0  0  0  0  0  0  0
   -2.5088    2.3911   -2.9702 H   0  0  0  1  0  0  0  0  0  0  0  0
   -2.6620    0.6507   -2.9770 H   0  0  0  1  0  0  0  0  0  0  0  0
   -1.1941    1.4012   -3.5568 H   0  0  0  1  0  0  0  0  0  0  0  0
   -5.4184    6.7676    0.9543 N   0  3  0  1  0  0  0  0  0  0  0  0
   -5.4197    7.4686   -0.0074 O   0  0  0  1  0  0  0  0  0  0  0  0
   -6.2662    6.9215    1.9805 O   0  5  0  1  0  0  0  0  0  0  0  0
   -4.4554    5.6989    1.0172 C   0  0  0  1  0  0  0  0  0  0  0  0
   -3.6279    5.4365   -0.0583 C   0  0  0  1  0  0  0  0  0  0  0  0
   -2.6282    4.4827    0.0527 C   0  0  0  1  0  0  0  0  0  0  0  0
   -2.4623    3.7903    1.2374 C   0  0  0  1  0  0  0  0  0  0  0  0
   -3.2921    4.0534    2.3161 C   0  0  0  1  0  0  0  0  0  0  0  0
   -4.2888    5.0044    2.2053 C   0  0  0  1  0  0  0  0  0  0  0  0
   -1.3769    2.7468    1.3572 C   0  0  0  1  0  0  0  0  0  0  0  0
   -3.7554    5.9547   -0.9510 H   0  0  0  1  0  0  0  0  0  0  0  0
   -2.0030    4.2881   -0.7553 H   0  0  0  1  0  0  0  0  0  0  0  0
   -3.1646    3.5352    3.2088 H   0  0  0  1  0  0  0  0  0  0  0  0
   -4.9140    5.1990    3.0133 H   0  0  0  1  0  0  0  0  0  0  0  0
   -0.5567    3.0353    0.7336 H   0  0  0  1  0  0  0  0  0  0  0  0
   -1.0539    2.7069    2.3765 H   0  0  0  1  0  0  0  0  0  0  0  0
  1  4  1  0  0  0  0
  2  4  1  0  0  0  0
  2  5  2  0  0  0  0
  2  6  1  0  0  0  0
  3  4  1  0  0  0  0
  3  7  1  0  0  0  0
  3  8  1  0  0  0  0
  4 28  1  0  0  0  0
  6  9  1  0  0  0  0
  6 12  1  0  0  0  0
  8 10  1  0  0  0  0
  8 11  2  0  0  0  0
  9 13  1  0  0  0  0
  9 14  1  0  0  0  0
  9 15  1  0  0  0  0
 10 16  1  0  0  0  0
 10 17  1  0  0  0  0
 10 18  1  0  0  0  0
 19 20  2  0  0  0  0
 19 21  1  0  0  0  0
 19 22  1  0  0  0  0
 22 23  4  0  0  0  0
 22 27  4  0  0  0  0
 23 24  4  0  0  0  0
 23 29  1  0  0  0  0
 24 25  4  0  0  0  0
 24 30  1  0  0  0  0
 25 26  4  0  0  0  0
 25 28  1  0  0  0  0
 26 27  4  0  0  0  0
 26 31  1  0  0  0  0
 27 32  1  0  0  0  0
 28 33  1  0  0  0  0
 28 34  1  0  0  0  0
M  END
> <BCLConfClusterSize>
1

> <ConfClashScore>
0 

> <ConfOneFourInteractionScore>
-0.980789 

> <ConfScore>
-0.131577 

> <ConfScorePBest>
0.00589714 

> <ConfTolerance>
0.237033 

> <RosettaParamsInstructions>
M  ROOT 3
M  POLY_N_BB 3
M  POLY_CA_BB 4
M  POLY_C_BB 2
M  POLY_O_BB 5
M  POLY_IGNORE 9 10 11 12 13 14 15 16 17 18 
M  POLY_UPPER 6
M  POLY_LOWER 8
M  POLY_CHG 0
M  POLY_PROPERTIES ALPHA_AA L_AA PROTEIN AROMATIC POLYMER 
M  END

$$$$



 34 34  0  0  0  0  0  0  0  0999 V2000
   -1.0884    2.5001    3.3473 H   0  0  0  1  0  0  0  0  0  0  0  0
    0.6493    1.8080    2.3639 C   0  0  0  1  0  0  0  0  0  0  0  0
   -0.0244    4.1621    2.7550 N   0  0  0  1  0  0  0  0  0  0  0  0
   -0.4983    2.8082    2.5095 C   0  0  0  1  0  0  0  0  0  0  0  0
    1.7230    2.0724    1.8485 O   0  0  0  1  0  0  0  0  0  0  0  0
    0.4205    0.5841    2.8426 N   0  0  0  1  0  0  0  0  0  0  0  0
    0.0144    4.7927    2.0058 H   0  0  0  1  0  0  0  0  0  0  0  0
    0.3596    4.5752    3.9661 C   0  0  0  1  0  0  0  0  0  0  0  0
    1.4091   -0.4816    2.9120 C   0  0  0  1  0  0  0  0  0  0  0  0
    0.9753    5.9774    4.0551 C   0  0  0  1  0  0  0  0  0  0  0  0
    0.1700    3.9228    4.9918 O   0  0  0  1  0  0  0  0  0  0  0  0
   -0.4813    0.3879    3.1723 H   0  0  0  1  0  0  0  0  0  0  0  0
    2.1205   -0.2593    3.6797 H   0  0  0  1  0  0  0  0  0  0  0  0
    1.9130   -0.5621    1.9716 H   0  0  0  1  0  0  0  0  0  0  0  0
    0.9205   -1.4068    3.1359 H   0  0  0  1  0  0  0  0  0  0  0  0
    1.4051    6.2393    3.1109 H   0  0  0  1  0  0  0  0  0  0  0  0
    1.7360    5.9855    4.8075 H   0  0  0  1  0  0  0  0  0  0  0  0
    0.2142    6.6854    4.3089 H   0  0  0  1  0  0  0  0  0  0  0  0
   -5.4433    6.7406    0.9925 N   0  3  0  1  0  0  0  0  0  0  0  0
   -6.0575    7.0974    1.9472 O   0  0  0  1  0  0  0  0  0  0  0  0
   -5.7066    7.3027   -0.1951 O   0  5  0  1  0  0  0  0  0  0  0  0
   -4.4269    5.7240    1.0758 C   0  0  0  1  0  0  0  0  0  0  0  0
   -3.6218    5.4630   -0.0169 C   0  0  0  1  0  0  0  0  0  0  0  0
   -2.6392    4.4884    0.0630 C   0  0  0  1  0  0  0  0  0  0  0  0
   -2.4682    3.7741    1.2338 C   0  0  0  1  0  0  0  0  0  0  0  0
   -3.2756    4.0358    2.3298 C   0  0  0  1  0  0  0  0  0  0  0  0
   -4.2552    5.0074    2.2499 C   0  0  0  1  0  0  0  0  0  0  0  0
   -1.3870    2.7198    1.2650 C   0  0  0  1  0  0  0  0  0  0  0  0
   -3.7532    5.9977   -0.8991 H   0  0  0  1  0  0  0  0  0  0  0  0
   -2.0307    4.2948   -0.7579 H   0  0  0  1  0  0  0  0  0  0  0  0
   -3.1442    3.5010    3.2120 H   0  0  0  1  0  0  0  0  0  0  0  0
   -4.8636    5.2010    3.0709 H   0  0  0  1  0  0  0  0  0  0  0  0
   -1.8508    1.7557    1.2454 H   0  0  0  1  0  0  0  0  0  0  0  0
   -0.7714    2.8376    0.3978 H   0  0  0  1  0  0  0  0  0  0  0  0
  1  4  1  0  0  0  0
  2  4  1  0  0  0  0
  2  5  2  0  0  0  0
  2  6  1  0  0  0  0
  3  4  1  0  0  0  0
  3  7  1  0  0  0  0
  3  8  1  0  0  0  0
  4 28  1  0  0  0  0
  6  9  1  0  0  0  0
  6 12  1  0  0  0  0
  8 10  1  0  0  0  0
  8 11  2  0  0  0  0
  9 13  1  0  0  0  0
  9 14  1  0  0  0  0
  9 15  1  0  0  0  0
 10 16  1  0  0  0  0
 10 17  1  0  0  0  0
 10 18  1  0  0  0  0
 19 20  2  0  0  0  0
 19 21  1  0  0  0  0
 19 22  1  0  0  0  0
 22 23  4  0  0  0  0
 22 27  4  0  0  0  0
 23 24  4  0  0  0  0
 23 29  1  0  0  0  0
 24 25  4  0  0  0  0
 24 30  1  0  0  0  0
 25 26  4  0  0  0  0
 25 28  1  0  0  0  0
 26 27  4  0  0  0  0
 26 31  1  0  0  0  0
 27 32  1  0  0  0  0
 28 33  1  0  0  0  0
 28 34  1  0  0  0  0
M  END
> <BCLConfClusterSize>
1

> <ConfClashScore>
0 

> <ConfOneFourInteractionScore>
-0.985807 

> <ConfScore>
-0.130729 

> <ConfScorePBest>
0.00586866 

> <ConfTolerance>
0.309463 

> <RosettaParamsInstructions>
M  ROOT 3
M  POLY_N_BB 3
M  POLY_CA_BB 4
M  POLY_C_BB 2
M  POLY_O_BB 5
M  POLY_IGNORE 9 10 11 12 13 14 15 16 17 18 
M  POLY_UPPER 6
M  POLY_LOWER 8
M  POLY_CHG 0
M  POLY_PROPERTIES ALPHA_AA L_AA PROTEIN AROMATIC POLYMER 
M  END

$$$$



 34 34  0  0  0  0  0  0  0  0999 V2000
    0.6066    2.3411    1.7893 H   0  0  0  1  0  0  0  0  0  0  0  0
    0.5667    4.2188    0.8561 C   0  0  0  1  0  0  0  0  0  0  0  0
   -0.0845    3.6932    3.1662 N   0  0  0  1  0  0  0  0  0  0  0  0
   -0.0412    3.1927    1.8004 C   0  0  0  1  0  0  0  0  0  0  0  0
    1.1826    3.8734   -0.1514 O   0  0  0  1  0  0  0  0  0  0  0  0
    0.3859    5.4984    1.1952 N   0  0  0  1  0  0  0  0  0  0  0  0
   -0.9243    3.7082    3.6711 H   0  0  0  1  0  0  0  0  0  0  0  0
    1.0533    4.1318    3.7123 C   0  0  0  1  0  0  0  0  0  0  0  0
    0.8576    6.5967    0.3650 C   0  0  0  1  0  0  0  0  0  0  0  0
    0.9665    4.5537    5.1661 C   0  0  0  1  0  0  0  0  0  0  0  0
    2.1044    4.1956    3.0962 O   0  0  0  1  0  0  0  0  0  0  0  0
   -0.0806    5.7046    2.0320 H   0  0  0  1  0  0  0  0  0  0  0  0
    0.6769    6.3692   -0.6648 H   0  0  0  1  0  0  0  0  0  0  0  0
    1.9070    6.7358    0.5205 H   0  0  0  1  0  0  0  0  0  0  0  0
    0.3355    7.4927    0.6289 H   0  0  0  1  0  0  0  0  0  0  0  0
    0.3976    5.4567    5.2426 H   0  0  0  1  0  0  0  0  0  0  0  0
    1.9519    4.7199    5.5485 H   0  0  0  1  0  0  0  0  0  0  0  0
    0.4887    3.7823    5.7332 H   0  0  0  1  0  0  0  0  0  0  0  0
   -5.4479    6.7440    0.9872 N   0  3  0  1  0  0  0  0  0  0  0  0
   -6.0558    7.0138    1.9740 O   0  0  0  1  0  0  0  0  0  0  0  0
   -5.6613    7.3361   -0.1958 O   0  5  0  1  0  0  0  0  0  0  0  0
   -4.4305    5.7283    1.0698 C   0  0  0  1  0  0  0  0  0  0  0  0
   -3.6294    5.4644   -0.0252 C   0  0  0  1  0  0  0  0  0  0  0  0
   -2.6458    4.4907    0.0540 C   0  0  0  1  0  0  0  0  0  0  0  0
   -2.4700    3.7801    1.2264 C   0  0  0  1  0  0  0  0  0  0  0  0
   -3.2733    4.0447    2.3246 C   0  0  0  1  0  0  0  0  0  0  0  0
   -4.2539    5.0155    2.2455 C   0  0  0  1  0  0  0  0  0  0  0  0
   -1.4024    2.7150    1.3116 C   0  0  0  1  0  0  0  0  0  0  0  0
   -3.7645    5.9964   -0.9085 H   0  0  0  1  0  0  0  0  0  0  0  0
   -2.0404    4.2950   -0.7686 H   0  0  0  1  0  0  0  0  0  0  0  0
   -3.1383    3.5127    3.2080 H   0  0  0  1  0  0  0  0  0  0  0  0
   -4.8593    5.2112    3.0681 H   0  0  0  1  0  0  0  0  0  0  0  0
   -1.7463    1.9559    1.9827 H   0  0  0  1  0  0  0  0  0  0  0  0
   -1.2743    2.2971    0.3350 H   0  0  0  1  0  0  0  0  0  0  0  0
  1  4  1  0  0  0  0
  2  4  1  0  0  0  0
  2  5  2  0  0  0  0
  2  6  1  0  0  0  0
  3  4  1  0  0  0  0
  3  7  1  0  0  0  0
  3  8  1  0  0  0  0
  4 28  1  0  0  0  0
  6  9  1  0  0  0  0
  6 12  1  0  0  0  0
  8 10  1  0  0  0  0
  8 11  2  0  0  0  0
  9 13  1  0  0  0  0
  9 14  1  0  0  0  0
  9 15  1  0  0  0  0
 10 16  1  0  0  0  0
 10 17  1  0  0  0  0
 10 18  1  0  0  0  0
 19 20  2  0  0  0  0
 19 21  1  0  0  0  0
 19 22  1  0  0  0  0
 22 23  4  0  0  0  0
 22 27  4  0  0  0  0
 23 24  4  0  0  0  0
 23 29  1  0  0  0  0
 24 25  4  0  0  0  0
 24 30  1  0  0  0  0
 25 26  4  0  0  0  0
 25 28  1  0  0  0  0
 26 27  4  0  0  0  0
 26 31  1  0  0  0  0
 27 32  1  0  0  0  0
 28 33  1  0  0  0  0
 28 34  1  0  0  0  0
M  END
> <BCLConfClusterSize>
1

> <ConfClashScore>
0 

> <ConfOneFourInteractionScore>
-0.950605 

> <ConfScore>
-0.122855 

> <ConfScorePBest>
0.00584018 

> <ConfTolerance>
0.219439 

> <RosettaParamsInstructions>
M  ROOT 3
M  POLY_N_BB 3
M  POLY_CA_BB 4
M  POLY_C_BB 2
M  POLY_O_BB 5
M  POLY_IGNORE 9 10 11 12 13 14 15 16 17 18 
M  POLY_UPPER 6
M  POLY_LOWER 8
M  POLY_CHG 0
M  POLY_PROPERTIES ALPHA_AA L_AA PROTEIN AROMATIC POLYMER 
M  END

$$$$



 34 34  0  0  0  0  0  0  0  0999 V2000
    0.7291    2.6642    1.3945 H   0  0  0  1  0  0  0  0  0  0  0  0
    0.2762    4.5477    0.5843 C   0  0  0  1  0  0  0  0  0  0  0  0
    0.1017    3.8574    2.9389 N   0  0  0  1  0  0  0  0  0  0  0  0
   -0.0180    3.4123    1.5585 C   0  0  0  1  0  0  0  0  0  0  0  0
   -0.0140    5.7123    0.8547 O   0  0  0  1  0  0  0  0  0  0  0  0
    0.8611    4.1913   -0.5628 N   0  0  0  1  0  0  0  0  0  0  0  0
   -0.1265    4.7848    3.1582 H   0  0  0  1  0  0  0  0  0  0  0  0
    0.5250    3.0198    3.9484 C   0  0  0  1  0  0  0  0  0  0  0  0
    1.1365    5.1473   -1.6248 C   0  0  0  1  0  0  0  0  0  0  0  0
    0.7111    3.6568    5.2947 C   0  0  0  1  0  0  0  0  0  0  0  0
    0.7249    1.8383    3.7196 O   0  0  0  1  0  0  0  0  0  0  0  0
    1.1136    3.2534   -0.6935 H   0  0  0  1  0  0  0  0  0  0  0  0
    2.0897    4.9322   -2.0608 H   0  0  0  1  0  0  0  0  0  0  0  0
    1.1453    6.1376   -1.2195 H   0  0  0  1  0  0  0  0  0  0  0  0
    0.3770    5.0752   -2.3750 H   0  0  0  1  0  0  0  0  0  0  0  0
   -0.2231    4.0523    5.6349 H   0  0  0  1  0  0  0  0  0  0  0  0
    1.4268    4.4485    5.2185 H   0  0  0  1  0  0  0  0  0  0  0  0
    1.0623    2.9236    5.9904 H   0  0  0  1  0  0  0  0  0  0  0  0
   -5.4571    6.7444    1.0669 N   0  3  0  1  0  0  0  0  0  0  0  0
   -6.2281    7.2129    1.8428 O   0  0  0  1  0  0  0  0  0  0  0  0
   -5.3492    7.1893   -0.1925 O   0  5  0  1  0  0  0  0  0  0  0  0
   -4.4740    5.6928    1.1019 C   0  0  0  1  0  0  0  0  0  0  0  0
   -3.6852    5.4572   -0.0083 C   0  0  0  1  0  0  0  0  0  0  0  0
   -2.6751    4.5094    0.0475 C   0  0  0  1  0  0  0  0  0  0  0  0
   -2.4604    3.7963    1.2118 C   0  0  0  1  0  0  0  0  0  0  0  0
   -3.2514    4.0325    2.3253 C   0  0  0  1  0  0  0  0  0  0  0  0
   -4.2585    4.9774    2.2695 C   0  0  0  1  0  0  0  0  0  0  0  0
   -1.3638    2.7593    1.2716 C   0  0  0  1  0  0  0  0  0  0  0  0
   -3.8494    5.9910   -0.8856 H   0  0  0  1  0  0  0  0  0  0  0  0
   -2.0789    4.3350   -0.7866 H   0  0  0  1  0  0  0  0  0  0  0  0
   -3.0872    3.4986    3.2026 H   0  0  0  1  0  0  0  0  0  0  0  0
   -4.8546    5.1518    3.1037 H   0  0  0  1  0  0  0  0  0  0  0  0
   -1.5861    2.0580    2.0485 H   0  0  0  1  0  0  0  0  0  0  0  0
   -1.3127    2.2482    0.3330 H   0  0  0  1  0  0  0  0  0  0  0  0
  1  4  1  0  0  0  0
  2  4  1  0  0  0  0
  2  5  2  0  0  0  0
  2  6  1  0  0  0  0
  3  4  1  0  0  0  0
  3  7  1  0  0  0  0
  3  8  1  0  0  0  0
  4 28  1  0  0  0  0
  6  9  1  0  0  0  0
  6 12  1  0  0  0  0
  8 10  1  0  0  0  0
  8 11  2  0  0  0  0
  9 13  1  0  0  0  0
  9 14  1  0  0  0  0
  9 15  1  0  0  0  0
 10 16  1  0  0  0  0
 10 17  1  0  0  0  0
 10 18  1  0  0  0  0
 19 20  2  0  0  0  0
 19 21  1  0  0  0  0
 19 22  1  0  0  0  0
 22 23  4  0  0  0  0
 22 27  4  0  0  0  0
 23 24  4  0  0  0  0
 23 29  1  0  0  0  0
 24 25  4  0  0  0  0
 24 30  1  0  0  0  0
 25 26  4  0  0  0  0
 25 28  1  0  0  0  0
 26 27  4  0  0  0  0
 26 31  1  0  0  0  0
 27 32  1  0  0  0  0
 28 33  1  0  0  0  0
 28 34  1  0  0  0  0
M  END
> <BCLConfClusterSize>
1

> <ConfClashScore>
0 

> <ConfOneFourInteractionScore>
-0.987258 

> <ConfScore>
-0.121075 

> <ConfScorePBest>
0.0058117 

> <ConfTolerance>
0.311527 

> <RosettaParamsInstructions>
M  ROOT 3
M  POLY_N_BB 3
M  POLY_CA_BB 4
M  POLY_C_BB 2
M  POLY_O_BB 5
M  POLY_IGNORE 9 10 11 12 13 14 15 16 17 18 
M  POLY_UPPER 6
M  POLY_LOWER 8
M  POLY_CHG 0
M  POLY_PROPERTIES ALPHA_AA L_AA PROTEIN AROMATIC POLYMER 
M  END

$$$$



 34 34  0  0  0  0  0  0  0  0999 V2000
   -0.2002    3.2609    2.7366 H   0  0  0  1  0  0  0  0  0  0  0  0
    0.8490    1.8362    1.5911 C   0  0  0  1  0  0  0  0  0  0  0  0
    0.3425    4.1870    0.9814 N   0  0  0  1  0  0  0  0  0  0  0  0
   -0.1208    3.0091    1.6997 C   0  0  0  1  0  0  0  0  0  0  0  0
    1.0902    1.1155    2.5585 O   0  0  0  1  0  0  0  0  0  0  0  0
    1.4090    1.6522    0.3849 N   0  0  0  1  0  0  0  0  0  0  0  0
   -0.1675    4.4983    0.2047 H   0  0  0  1  0  0  0  0  0  0  0  0
    1.4443    4.8618    1.3459 C   0  0  0  1  0  0  0  0  0  0  0  0
    2.2608    0.5287    0.0245 C   0  0  0  1  0  0  0  0  0  0  0  0
    1.8449    6.0083    0.4380 C   0  0  0  1  0  0  0  0  0  0  0  0
    2.0987    4.5830    2.3471 O   0  0  0  1  0  0  0  0  0  0  0  0
    1.2307    2.3252   -0.3048 H   0  0  0  1  0  0  0  0  0  0  0  0
    2.0510   -0.2996    0.6685 H   0  0  0  1  0  0  0  0  0  0  0  0
    3.2873    0.8114    0.1303 H   0  0  0  1  0  0  0  0  0  0  0  0
    2.0704    0.2483   -0.9904 H   0  0  0  1  0  0  0  0  0  0  0  0
    2.9120    6.0610    0.3789 H   0  0  0  1  0  0  0  0  0  0  0  0
    1.4641    6.9265    0.8341 H   0  0  0  1  0  0  0  0  0  0  0  0
    1.4414    5.8465   -0.5397 H   0  0  0  1  0  0  0  0  0  0  0  0
   -5.4085    6.7826    0.9321 N   0  3  0  1  0  0  0  0  0  0  0  0
   -5.5037    7.8615    0.4391 O   0  0  0  1  0  0  0  0  0  0  0  0
   -6.4338    6.1883    1.5576 O   0  5  0  1  0  0  0  0  0  0  0  0
   -4.3627    5.8017    1.0654 C   0  0  0  1  0  0  0  0  0  0  0  0
   -3.5241    5.5567   -0.0055 C   0  0  0  1  0  0  0  0  0  0  0  0
   -2.5795    4.5451    0.0710 C   0  0  0  1  0  0  0  0  0  0  0  0
   -2.4799    3.7780    1.2164 C   0  0  0  1  0  0  0  0  0  0  0  0
   -3.3209    4.0236    2.2906 C   0  0  0  1  0  0  0  0  0  0  0  0
   -4.2627    5.0323    2.2141 C   0  0  0  1  0  0  0  0  0  0  0  0
   -1.5097    2.6204    1.2200 C   0  0  0  1  0  0  0  0  0  0  0  0
   -3.6018    6.1313   -0.8689 H   0  0  0  1  0  0  0  0  0  0  0  0
   -1.9458    4.3633   -0.7334 H   0  0  0  1  0  0  0  0  0  0  0  0
   -3.2433    3.4490    3.1539 H   0  0  0  1  0  0  0  0  0  0  0  0
   -4.8964    5.2140    3.0185 H   0  0  0  1  0  0  0  0  0  0  0  0
   -1.8919    1.8576    1.8658 H   0  0  0  1  0  0  0  0  0  0  0  0
   -1.4314    2.2385    0.2236 H   0  0  0  1  0  0  0  0  0  0  0  0
  1  4  1  0  0  0  0
  2  4  1  0  0  0  0
  2  5  2  0  0  0  0
  2  6  1  0  0  0  0
  3  4  1  0  0  0  0
  3  7  1  0  0  0  0
  3  8  1  0  0  0  0
  4 28  1  0  0  0  0
  6  9  1  0  0  0  0
  6 12  1  0  0  0  0
  8 10  1  0  0  0  0
  8 11  2  0  0  0  0
  9 13  1  0  0  0  0
  9 14  1  0  0  0  0
  9 15  1  0  0  0  0
 10 16  1  0  0  0  0
 10 17  1  0  0  0  0
 10 18  1  0  0  0  0
 19 20  2  0  0  0  0
 19 21  1  0  0  0  0
 19 22  1  0  0  0  0
 22 23  4  0  0  0  0
 22 27  4  0  0  0  0
 23 24  4  0  0  0  0
 23 29  1  0  0  0  0
 24 25  4  0  0  0  0
 24 30  1  0  0  0  0
 25 26  4  0  0  0  0
 25 28  1  0  0  0  0
 26 27  4  0  0  0  0
 26 31  1  0  0  0  0
 27 32  1  0  0  0  0
 28 33  1  0  0  0  0
 28 34  1  0  0  0  0
M  END
> <BCLConfClusterSize>
1

> <ConfClashScore>
0 

> <ConfOneFourInteractionScore>
-0.960318 

> <ConfScore>
-0.120031 

> <ConfScorePBest>
0.00578322 

> <ConfTolerance>
0.401769 

> <RosettaParamsInstructions>
M  ROOT 3
M  POLY_N_BB 3
M  POLY_CA_BB 4
M  POLY_C_BB 2
M  POLY_O_BB 5
M  POLY_IGNORE 9 10 11 12 13 14 15 16 17 18 
M  POLY_UPPER 6
M  POLY_LOWER 8
M  POLY_CHG 0
M  POLY_PROPERTIES ALPHA_AA L_AA PROTEIN AROMATIC POLYMER 
M  END

$$$$



 34 34  0  0  0  0  0  0  0  0999 V2000
   -1.9604    1.9085   -0.5588 H   0  0  0  1  0  0  0  0  0  0  0  0
   -0.4296    0.6685    0.2108 C   0  0  0  1  0  0  0  0  0  0  0  0
   -2.7684    0.7592    0.9582 N   0  0  0  1  0  0  0  0  0  0  0  0
   -1.6689    1.5315    0.3992 C   0  0  0  1  0  0  0  0  0  0  0  0
    0.2169    0.2630    1.1730 O   0  0  0  1  0  0  0  0  0  0  0  0
   -0.1036    0.3905   -1.0524 N   0  0  0  1  0  0  0  0  0  0  0  0
   -2.7167    0.4713    1.8935 H   0  0  0  1  0  0  0  0  0  0  0  0
   -3.8801    0.4185    0.2179 C   0  0  0  1  0  0  0  0  0  0  0  0
    1.0784   -0.3522   -1.4637 C   0  0  0  1  0  0  0  0  0  0  0  0
   -4.8545   -0.5075    0.8855 C   0  0  0  1  0  0  0  0  0  0  0  0
   -4.0249    0.8634   -0.9051 O   0  0  0  1  0  0  0  0  0  0  0  0
   -0.7054    0.7105   -1.7566 H   0  0  0  1  0  0  0  0  0  0  0  0
    1.7754   -0.3918   -0.6528 H   0  0  0  1  0  0  0  0  0  0  0  0
    1.5326    0.1359   -2.3006 H   0  0  0  1  0  0  0  0  0  0  0  0
    0.7962   -1.3466   -1.7401 H   0  0  0  1  0  0  0  0  0  0  0  0
   -4.3380   -1.1164    1.5978 H   0  0  0  1  0  0  0  0  0  0  0  0
   -5.3141   -1.1327    0.1488 H   0  0  0  1  0  0  0  0  0  0  0  0
   -5.6062    0.0666    1.3859 H   0  0  0  1  0  0  0  0  0  0  0  0
   -5.4571    6.7407    0.9886 N   0  3  0  1  0  0  0  0  0  0  0  0
   -6.2133    6.8387    1.9022 O   0  0  0  1  0  0  0  0  0  0  0  0
   -5.4578    7.4873   -0.1241 O   0  5  0  1  0  0  0  0  0  0  0  0
   -4.4369    5.7277    1.0705 C   0  0  0  1  0  0  0  0  0  0  0  0
   -3.6547    5.4463   -0.0336 C   0  0  0  1  0  0  0  0  0  0  0  0
   -2.6686    4.4752    0.0447 C   0  0  0  1  0  0  0  0  0  0  0  0
   -2.4712    3.7846    1.2256 C   0  0  0  1  0  0  0  0  0  0  0  0
   -3.2557    4.0668    2.3331 C   0  0  0  1  0  0  0  0  0  0  0  0
   -4.2388    5.0350    2.2548 C   0  0  0  1  0  0  0  0  0  0  0  0
   -1.4008    2.7223    1.3101 C   0  0  0  1  0  0  0  0  0  0  0  0
   -3.8059    5.9631   -0.9233 H   0  0  0  1  0  0  0  0  0  0  0  0
   -2.0773    4.2663   -0.7849 H   0  0  0  1  0  0  0  0  0  0  0  0
   -3.1045    3.5499    3.2228 H   0  0  0  1  0  0  0  0  0  0  0  0
   -4.8301    5.2439    3.0845 H   0  0  0  1  0  0  0  0  0  0  0  0
   -0.4645    3.1595    1.0325 H   0  0  0  1  0  0  0  0  0  0  0  0
   -1.3465    2.3731    2.3200 H   0  0  0  1  0  0  0  0  0  0  0  0
  1  4  1  0  0  0  0
  2  4  1  0  0  0  0
  2  5  2  0  0  0  0
  2  6  1  0  0  0  0
  3  4  1  0  0  0  0
  3  7  1  0  0  0  0
  3  8  1  0  0  0  0
  4 28  1  0  0  0  0
  6  9  1  0  0  0  0
  6 12  1  0  0  0  0
  8 10  1  0  0  0  0
  8 11  2  0  0  0  0
  9 13  1  0  0  0  0
  9 14  1  0  0  0  0
  9 15  1  0  0  0  0
 10 16  1  0  0  0  0
 10 17  1  0  0  0  0
 10 18  1  0  0  0  0
 19 20  2  0  0  0  0
 19 21  1  0  0  0  0
 19 22  1  0  0  0  0
 22 23  4  0  0  0  0
 22 27  4  0  0  0  0
 23 24  4  0  0  0  0
 23 29  1  0  0  0  0
 24 25  4  0  0  0  0
 24 30  1  0  0  0  0
 25 26  4  0  0  0  0
 25 28  1  0  0  0  0
 26 27  4  0  0  0  0
 26 31  1  0  0  0  0
 27 32  1  0  0  0  0
 28 33  1  0  0  0  0
 28 34  1  0  0  0  0
M  END
> <BCLConfClusterSize>
1

> <ConfClashScore>
0 

> <ConfOneFourInteractionScore>
-0.967579 

> <ConfScore>
-0.119665 

> <ConfScorePBest>
0.00575474 

> <ConfTolerance>
0.31885 

> <RosettaParamsInstructions>
M  ROOT 3
M  POLY_N_BB 3
M  POLY_CA_BB 4
M  POLY_C_BB 2
M  POLY_O_BB 5
M  POLY_IGNORE 9 10 11 12 13 14 15 16 17 18 
M  POLY_UPPER 6
M  POLY_LOWER 8
M  POLY_CHG 0
M  POLY_PROPERTIES ALPHA_AA L_AA PROTEIN AROMATIC POLYMER 
M  END

$$$$



 34 34  0  0  0  0  0  0  0  0999 V2000
   -1.7358    2.0509   -0.6362 H   0  0  0  1  0  0  0  0  0  0  0  0
   -0.2782    0.7815    0.1844 C   0  0  0  1  0  0  0  0  0  0  0  0
   -2.6870    0.8041    0.6850 N   0  0  0  1  0  0  0  0  0  0  0  0
   -1.5398    1.6257    0.3260 C   0  0  0  1  0  0  0  0  0  0  0  0
    0.6544    1.1171   -0.5228 O   0  0  0  1  0  0  0  0  0  0  0  0
   -0.1874   -0.3686    0.8583 N   0  0  0  1  0  0  0  0  0  0  0  0
   -3.1003    0.9276    1.5649 H   0  0  0  1  0  0  0  0  0  0  0  0
   -3.1958   -0.1123   -0.1436 C   0  0  0  1  0  0  0  0  0  0  0  0
    0.9354   -1.2796    0.6935 C   0  0  0  1  0  0  0  0  0  0  0  0
   -4.4858   -0.7602    0.3060 C   0  0  0  1  0  0  0  0  0  0  0  0
   -2.6629   -0.4222   -1.2082 O   0  0  0  1  0  0  0  0  0  0  0  0
   -0.9018   -0.6069    1.4854 H   0  0  0  1  0  0  0  0  0  0  0  0
    1.4569   -1.0439   -0.2106 H   0  0  0  1  0  0  0  0  0  0  0  0
    0.5739   -2.2855    0.6446 H   0  0  0  1  0  0  0  0  0  0  0  0
    1.6009   -1.1793    1.5253 H   0  0  0  1  0  0  0  0  0  0  0  0
   -5.2519   -0.0169    0.3802 H   0  0  0  1  0  0  0  0  0  0  0  0
   -4.3402   -1.2186    1.2618 H   0  0  0  1  0  0  0  0  0  0  0  0
   -4.7782   -1.5036   -0.4058 H   0  0  0  1  0  0  0  0  0  0  0  0
   -5.4403    6.7466    0.9780 N   0  3  0  1  0  0  0  0  0  0  0  0
   -6.5576    6.5378    1.3304 O   0  0  0  1  0  0  0  0  0  0  0  0
   -5.0213    7.9336    0.5187 O   0  5  0  1  0  0  0  0  0  0  0  0
   -4.4902    5.6669    1.0494 C   0  0  0  1  0  0  0  0  0  0  0  0
   -3.7410    5.3456   -0.0667 C   0  0  0  1  0  0  0  0  0  0  0  0
   -2.7193    4.4136    0.0289 C   0  0  0  1  0  0  0  0  0  0  0  0
   -2.4534    3.8016    1.2393 C   0  0  0  1  0  0  0  0  0  0  0  0
   -3.2047    4.1237    2.3588 C   0  0  0  1  0  0  0  0  0  0  0  0
   -4.2233    5.0530    2.2633 C   0  0  0  1  0  0  0  0  0  0  0  0
   -1.3333    2.7895    1.2866 C   0  0  0  1  0  0  0  0  0  0  0  0
   -3.9437    5.8032   -0.9784 H   0  0  0  1  0  0  0  0  0  0  0  0
   -2.1530    4.1748   -0.8101 H   0  0  0  1  0  0  0  0  0  0  0  0
   -3.0020    3.6662    3.2705 H   0  0  0  1  0  0  0  0  0  0  0  0
   -4.7896    5.2917    3.1023 H   0  0  0  1  0  0  0  0  0  0  0  0
   -0.4181    3.2823    1.0328 H   0  0  0  1  0  0  0  0  0  0  0  0
   -1.2663    2.4019    2.2817 H   0  0  0  1  0  0  0  0  0  0  0  0
  1  4  1  0  0  0  0
  2  4  1  0  0  0  0
  2  5  2  0  0  0  0
  2  6  1  0  0  0  0
  3  4  1  0  0  0  0
  3  7  1  0  0  0  0
  3  8  1  0  0  0  0
  4 28  1  0  0  0  0
  6  9  1  0  0  0  0
  6 12  1  0  0  0  0
  8 10  1  0  0  0  0
  8 11  2  0  0  0  0
  9 13  1  0  0  0  0
  9 14  1  0  0  0  0
  9 15  1  0  0  0  0
 10 16  1  0  0  0  0
 10 17  1  0  0  0  0
 10 18  1  0  0  0  0
 19 20  2  0  0  0  0
 19 21  1  0  0  0  0
 19 22  1  0  0  0  0
 22 23  4  0  0  0  0
 22 27  4  0  0  0  0
 23 24  4  0  0  0  0
 23 29  1  0  0  0  0
 24 25  4  0  0  0  0
 24 30  1  0  0  0  0
 25 26  4  0  0  0  0
 25 28  1  0  0  0  0
 26 27  4  0  0  0  0
 26 31  1  0  0  0  0
 27 32  1  0  0  0  0
 28 33  1  0  0  0  0
 28 34  1  0  0  0  0
M  END
> <BCLConfClusterSize>
1

> <ConfClashScore>
0 

> <ConfOneFourInteractionScore>
-0.960318 

> <ConfScore>
-0.118246 

> <ConfScorePBest>
0.00572626 

> <ConfTolerance>
0.458723 

> <RosettaParamsInstructions>
M  ROOT 3
M  POLY_N_BB 3
M  POLY_CA_BB 4
M  POLY_C_BB 2
M  POLY_O_BB 5
M  POLY_IGNORE 9 10 11 12 13 14 15 16 17 18 
M  POLY_UPPER 6
M  POLY_LOWER 8
M  POLY_CHG 0
M  POLY_PROPERTIES ALPHA_AA L_AA PROTEIN AROMATIC POLYMER 
M  END

$$$$



 34 34  0  0  0  0  0  0  0  0999 V2000
   -0.1340    3.5873    2.8215 H   0  0  0  1  0  0  0  0  0  0  0  0
    1.0003    2.1790    1.7092 C   0  0  0  1  0  0  0  0  0  0  0  0
    0.3343    4.4206    0.9784 N   0  0  0  1  0  0  0  0  0  0  0  0
   -0.0446    3.2809    1.8002 C   0  0  0  1  0  0  0  0  0  0  0  0
    1.5562    1.9192    0.6547 O   0  0  0  1  0  0  0  0  0  0  0  0
    1.2594    1.5294    2.8475 N   0  0  0  1  0  0  0  0  0  0  0  0
    0.4648    4.2645    0.0198 H   0  0  0  1  0  0  0  0  0  0  0  0
    0.5172    5.6617    1.4317 C   0  0  0  1  0  0  0  0  0  0  0  0
    2.1834    0.4067    2.9089 C   0  0  0  1  0  0  0  0  0  0  0  0
    0.7183    6.7272    0.3718 C   0  0  0  1  0  0  0  0  0  0  0  0
    0.5255    5.9430    2.6294 O   0  0  0  1  0  0  0  0  0  0  0  0
    0.8117    1.8190    3.6698 H   0  0  0  1  0  0  0  0  0  0  0  0
    2.8461    0.4432    2.0696 H   0  0  0  1  0  0  0  0  0  0  0  0
    1.6321   -0.5102    2.8881 H   0  0  0  1  0  0  0  0  0  0  0  0
    2.7512    0.4615    3.8141 H   0  0  0  1  0  0  0  0  0  0  0  0
    1.2998    6.3262   -0.4319 H   0  0  0  1  0  0  0  0  0  0  0  0
    1.2306    7.5635    0.7997 H   0  0  0  1  0  0  0  0  0  0  0  0
   -0.2336    7.0438   -0.0004 H   0  0  0  1  0  0  0  0  0  0  0  0
   -5.4665    6.7247    0.9931 N   0  3  0  1  0  0  0  0  0  0  0  0
   -6.5197    6.4704    1.4852 O   0  0  0  1  0  0  0  0  0  0  0  0
   -5.1925    7.8947    0.4001 O   0  5  0  1  0  0  0  0  0  0  0  0
   -4.4335    5.7224    1.0379 C   0  0  0  1  0  0  0  0  0  0  0  0
   -3.6857    5.3838   -0.0740 C   0  0  0  1  0  0  0  0  0  0  0  0
   -2.6986    4.4154    0.0231 C   0  0  0  1  0  0  0  0  0  0  0  0
   -2.4659    3.7846    1.2307 C   0  0  0  1  0  0  0  0  0  0  0  0
   -3.2159    4.1241    2.3459 C   0  0  0  1  0  0  0  0  0  0  0  0
   -4.2000    5.0897    2.2490 C   0  0  0  1  0  0  0  0  0  0  0  0
   -1.3945    2.7252    1.3359 C   0  0  0  1  0  0  0  0  0  0  0  0
   -3.8635    5.8556   -0.9836 H   0  0  0  1  0  0  0  0  0  0  0  0
   -2.1332    4.1635   -0.8127 H   0  0  0  1  0  0  0  0  0  0  0  0
   -3.0380    3.6523    3.2555 H   0  0  0  1  0  0  0  0  0  0  0  0
   -4.7653    5.3416    3.0847 H   0  0  0  1  0  0  0  0  0  0  0  0
   -1.7167    1.9834    2.0365 H   0  0  0  1  0  0  0  0  0  0  0  0
   -1.2648    2.2752    0.3738 H   0  0  0  1  0  0  0  0  0  0  0  0
  1  4  1  0  0  0  0
  2  4  1  0  0  0  0
  2  5  2  0  0  0  0
  2  6  1  0  0  0  0
  3  4  1  0  0  0  0
  3  7  1  0  0  0  0
  3  8  1  0  0  0  0
  4 28  1  0  0  0  0
  6  9  1  0  0  0  0
  6 12  1  0  0  0  0
  8 10  1  0  0  0  0
  8 11  2  0  0  0  0
  9 13  1  0  0  0  0
  9 14  1  0  0  0  0
  9 15  1  0  0  0  0
 10 16  1  0  0  0  0
 10 17  1  0  0  0  0
 10 18  1  0  0  0  0
 19 20  2  0  0  0  0
 19 21  1  0  0  0  0
 19 22  1  0  0  0  0
 22 23  4  0  0  0  0
 22 27  4  0  0  0  0
 23 24  4  0  0  0  0
 23 29  1  0  0  0  0
 24 25  4  0  0  0  0
 24 30  1  0  0  0  0
 25 26  4  0  0  0  0
 25 28  1  0  0  0  0
 26 27  4  0  0  0  0
 26 31  1  0  0  0  0
 27 32  1  0  0  0  0
 28 33  1  0  0  0  0
 28 34  1  0  0  0  0
M  END
> <BCLConfClusterSize>
1

> <ConfClashScore>
0 

> <ConfOneFourInteractionScore>
-0.990503 

> <ConfScore>
-0.106148 

> <ConfScorePBest>
0.00569778 

> <ConfTolerance>
0.367373 

> <RosettaParamsInstructions>
M  ROOT 3
M  POLY_N_BB 3
M  POLY_CA_BB 4
M  POLY_C_BB 2
M  POLY_O_BB 5
M  POLY_IGNORE 9 10 11 12 13 14 15 16 17 18 
M  POLY_UPPER 6
M  POLY_LOWER 8
M  POLY_CHG 0
M  POLY_PROPERTIES ALPHA_AA L_AA PROTEIN AROMATIC POLYMER 
M  END

$$$$



 34 34  0  0  0  0  0  0  0  0999 V2000
    0.6652    2.5137    1.5024 H   0  0  0  1  0  0  0  0  0  0  0  0
    0.2931    4.4019    0.6594 C   0  0  0  1  0  0  0  0  0  0  0  0
   -0.0072    3.7292    3.0189 N   0  0  0  1  0  0  0  0  0  0  0  0
   -0.0564    3.2929    1.6327 C   0  0  0  1  0  0  0  0  0  0  0  0
    1.0060    4.1900   -0.3207 O   0  0  0  1  0  0  0  0  0  0  0  0
   -0.2229    5.6088    0.9407 N   0  0  0  1  0  0  0  0  0  0  0  0
   -0.8162    3.6553    3.5670 H   0  0  0  1  0  0  0  0  0  0  0  0
    1.1136    4.2321    3.5768 C   0  0  0  1  0  0  0  0  0  0  0  0
    0.0335    6.7765    0.1108 C   0  0  0  1  0  0  0  0  0  0  0  0
    1.0307    4.7513    4.9991 C   0  0  0  1  0  0  0  0  0  0  0  0
    2.1710    4.2694    2.9533 O   0  0  0  1  0  0  0  0  0  0  0  0
   -0.7920    5.7070    1.7325 H   0  0  0  1  0  0  0  0  0  0  0  0
    1.0474    7.0921    0.2418 H   0  0  0  1  0  0  0  0  0  0  0  0
   -0.6263    7.5688    0.3969 H   0  0  0  1  0  0  0  0  0  0  0  0
   -0.1323    6.5270   -0.9164 H   0  0  0  1  0  0  0  0  0  0  0  0
    0.4449    5.6465    5.0189 H   0  0  0  1  0  0  0  0  0  0  0  0
    2.0159    4.9620    5.3595 H   0  0  0  1  0  0  0  0  0  0  0  0
    0.5729    4.0118    5.6223 H   0  0  0  1  0  0  0  0  0  0  0  0
   -5.4538    6.7346    0.8993 N   0  3  0  1  0  0  0  0  0  0  0  0
   -5.9335    7.3631    0.0099 O   0  0  0  1  0  0  0  0  0  0  0  0
   -5.8879    6.8358    2.1629 O   0  5  0  1  0  0  0  0  0  0  0  0
   -4.3960    5.7649    1.0192 C   0  0  0  1  0  0  0  0  0  0  0  0
   -3.6083    5.4555   -0.0736 C   0  0  0  1  0  0  0  0  0  0  0  0
   -2.6454    4.4632    0.0246 C   0  0  0  1  0  0  0  0  0  0  0  0
   -2.4766    3.7796    1.2139 C   0  0  0  1  0  0  0  0  0  0  0  0
   -3.2665    4.0898    2.3100 C   0  0  0  1  0  0  0  0  0  0  0  0
   -4.2265    5.0792    2.2119 C   0  0  0  1  0  0  0  0  0  0  0  0
   -1.4316    2.6942    1.3200 C   0  0  0  1  0  0  0  0  0  0  0  0
   -3.7381    5.9672   -0.9697 H   0  0  0  1  0  0  0  0  0  0  0  0
   -2.0500    4.2332   -0.7965 H   0  0  0  1  0  0  0  0  0  0  0  0
   -3.1367    3.5781    3.2060 H   0  0  0  1  0  0  0  0  0  0  0  0
   -4.8219    5.3092    3.0330 H   0  0  0  1  0  0  0  0  0  0  0  0
   -1.7060    2.0182    2.1027 H   0  0  0  1  0  0  0  0  0  0  0  0
   -1.3807    2.1643    0.3919 H   0  0  0  1  0  0  0  0  0  0  0  0
  1  4  1  0  0  0  0
  2  4  1  0  0  0  0
  2  5  2  0  0  0  0
  2  6  1  0  0  0  0
  3  4  1  0  0  0  0
  3  7  1  0  0  0  0
  3  8  1  0  0  0  0
  4 28  1  0  0  0  0
  6  9  1  0  0  0  0
  6 12  1  0  0  0  0
  8 10  1  0  0  0  0
  8 11  2  0  0  0  0
  9 13  1  0  0  0  0
  9 14  1  0  0  0  0
  9 15  1  0  0  0  0
 10 16  1  0  0  0  0
 10 17  1  0  0  0  0
 10 18  1  0  0  0  0
 19 20  2  0  0  0  0
 19 21  1  0  0  0  0
 19 22  1  0  0  0  0
 22 23  4  0  0  0  0
 22 27  4  0  0  0  0
 23 24  4  0  0  0  0
 23 29  1  0  0  0  0
 24 25  4  0  0  0  0
 24 30  1  0  0  0  0
 25 26  4  0  0  0  0
 25 28  1  0  0  0  0
 26 27  4  0  0  0  0
 26 31  1  0  0  0  0
 27 32  1  0  0  0  0
 28 33  1  0  0  0  0
 28 34  1  0  0  0  0
M  END
> <BCLConfClusterSize>
1

> <ConfClashScore>
0 

> <ConfOneFourInteractionScore>
-0.957074 

> <ConfScore>
-0.105281 

> <ConfScorePBest>
0.0056693 

> <ConfTolerance>
0.301311 

> <RosettaParamsInstructions>
M  ROOT 3
M  POLY_N_BB 3
M  POLY_CA_BB 4
M  POLY_C_BB 2
M  POLY_O_BB 5
M  POLY_IGNORE 9 10 11 12 13 14 15 16 17 18 
M  POLY_UPPER 6
M  POLY_LOWER 8
M  POLY_CHG 0
M  POLY_PROPERTIES ALPHA_AA L_AA PROTEIN AROMATIC POLYMER 
M  END

$$$$



 34 34  0  0  0  0  0  0  0  0999 V2000
   -0.1729    3.6048    2.7045 H   0  0  0  1  0  0  0  0  0  0  0  0
    0.8767    1.9952    1.8111 C   0  0  0  1  0  0  0  0  0  0  0  0
    0.4172    4.1721    0.7977 N   0  0  0  1  0  0  0  0  0  0  0  0
   -0.0761    3.1720    1.7308 C   0  0  0  1  0  0  0  0  0  0  0  0
    1.6247    1.7143    0.8755 O   0  0  0  1  0  0  0  0  0  0  0  0
    0.8447    1.2992    2.9511 N   0  0  0  1  0  0  0  0  0  0  0  0
    0.6131    3.9216   -0.1293 H   0  0  0  1  0  0  0  0  0  0  0  0
    0.6048    5.4373    1.2031 C   0  0  0  1  0  0  0  0  0  0  0  0
    1.6507    0.1048    3.1557 C   0  0  0  1  0  0  0  0  0  0  0  0
    0.9571    6.4324    0.1146 C   0  0  0  1  0  0  0  0  0  0  0  0
    0.5019    5.7864    2.3783 O   0  0  0  1  0  0  0  0  0  0  0  0
    0.2581    1.6035    3.6747 H   0  0  0  1  0  0  0  0  0  0  0  0
    1.5262   -0.5568    2.3241 H   0  0  0  1  0  0  0  0  0  0  0  0
    1.3374   -0.3872    4.0527 H   0  0  0  1  0  0  0  0  0  0  0  0
    2.6811    0.3805    3.2407 H   0  0  0  1  0  0  0  0  0  0  0  0
    0.6843    7.4179    0.4297 H   0  0  0  1  0  0  0  0  0  0  0  0
    0.4258    6.1846   -0.7805 H   0  0  0  1  0  0  0  0  0  0  0  0
    2.0098    6.3970   -0.0736 H   0  0  0  1  0  0  0  0  0  0  0  0
   -5.4473    6.7381    0.9771 N   0  3  0  1  0  0  0  0  0  0  0  0
   -5.6919    7.4429    1.9042 O   0  0  0  1  0  0  0  0  0  0  0  0
   -6.1328    6.8261   -0.1709 O   0  5  0  1  0  0  0  0  0  0  0  0
   -4.3890    5.7687    1.0952 C   0  0  0  1  0  0  0  0  0  0  0  0
   -3.5589    5.5379    0.0145 C   0  0  0  1  0  0  0  0  0  0  0  0
   -2.6020    4.5368    0.0766 C   0  0  0  1  0  0  0  0  0  0  0  0
   -2.4818    3.7660    1.2175 C   0  0  0  1  0  0  0  0  0  0  0  0
   -3.3142    3.9973    2.3015 C   0  0  0  1  0  0  0  0  0  0  0  0
   -4.2682    4.9954    2.2393 C   0  0  0  1  0  0  0  0  0  0  0  0
   -1.4433    2.6712    1.2839 C   0  0  0  1  0  0  0  0  0  0  0  0
   -3.6522    6.1153   -0.8454 H   0  0  0  1  0  0  0  0  0  0  0  0
   -1.9747    4.3659   -0.7351 H   0  0  0  1  0  0  0  0  0  0  0  0
   -3.2210    3.4199    3.1614 H   0  0  0  1  0  0  0  0  0  0  0  0
   -4.8955    5.1664    3.0510 H   0  0  0  1  0  0  0  0  0  0  0  0
   -1.7766    1.9271    1.9768 H   0  0  0  1  0  0  0  0  0  0  0  0
   -1.3452    2.2354    0.3116 H   0  0  0  1  0  0  0  0  0  0  0  0
  1  4  1  0  0  0  0
  2  4  1  0  0  0  0
  2  5  2  0  0  0  0
  2  6  1  0  0  0  0
  3  4  1  0  0  0  0
  3  7  1  0  0  0  0
  3  8  1  0  0  0  0
  4 28  1  0  0  0  0
  6  9  1  0  0  0  0
  6 12  1  0  0  0  0
  8 10  1  0  0  0  0
  8 11  2  0  0  0  0
  9 13  1  0  0  0  0
  9 14  1  0  0  0  0
  9 15  1  0  0  0  0
 10 16  1  0  0  0  0
 10 17  1  0  0  0  0
 10 18  1  0  0  0  0
 19 20  2  0  0  0  0
 19 21  1  0  0  0  0
 19 22  1  0  0  0  0
 22 23  4  0  0  0  0
 22 27  4  0  0  0  0
 23 24  4  0  0  0  0
 23 29  1  0  0  0  0
 24 25  4  0  0  0  0
 24 30  1  0  0  0  0
 25 26  4  0  0  0  0
 25 28  1  0  0  0  0
 26 27  4  0  0  0  0
 26 31  1  0  0  0  0
 27 32  1  0  0  0  0
 28 33  1  0  0  0  0
 28 34  1  0  0  0  0
M  END
> <BCLConfClusterSize>
1

> <ConfClashScore>
0 

> <ConfOneFourInteractionScore>
-0.990503 

> <ConfScore>
-0.10335 

> <ConfScorePBest>
0.00564082 

> <ConfTolerance>
0.417937 

> <RosettaParamsInstructions>
M  ROOT 3
M  POLY_N_BB 3
M  POLY_CA_BB 4
M  POLY_C_BB 2
M  POLY_O_BB 5
M  POLY_IGNORE 9 10 11 12 13 14 15 16 17 18 
M  POLY_UPPER 6
M  POLY_LOWER 8
M  POLY_CHG 0
M  POLY_PROPERTIES ALPHA_AA L_AA PROTEIN AROMATIC POLYMER 
M  END

$$$$



 34 34  0  0  0  0  0  0  0  0999 V2000
   -2.3130    1.3928   -0.0923 H   0  0  0  1  0  0  0  0  0  0  0  0
   -0.5607    0.4923    0.7273 C   0  0  0  1  0  0  0  0  0  0  0  0
   -2.7279    0.7512    1.8475 N   0  0  0  1  0  0  0  0  0  0  0  0
   -1.8286    1.3286    0.8596 C   0  0  0  1  0  0  0  0  0  0  0  0
    0.4368    0.9311    0.1563 O   0  0  0  1  0  0  0  0  0  0  0  0
   -0.6118   -0.7289    1.2668 N   0  0  0  1  0  0  0  0  0  0  0  0
   -2.3721    0.5943    2.7471 H   0  0  0  1  0  0  0  0  0  0  0  0
   -4.0019    0.4190    1.6205 C   0  0  0  1  0  0  0  0  0  0  0  0
    0.4608   -1.6981    1.0998 C   0  0  0  1  0  0  0  0  0  0  0  0
   -4.7412   -0.1615    2.8191 C   0  0  0  1  0  0  0  0  0  0  0  0
   -4.5380    0.4933    0.5271 O   0  0  0  1  0  0  0  0  0  0  0  0
   -1.3991   -0.9807    1.7934 H   0  0  0  1  0  0  0  0  0  0  0  0
    0.6359   -1.8609    0.0569 H   0  0  0  1  0  0  0  0  0  0  0  0
    0.1820   -2.6216    1.5628 H   0  0  0  1  0  0  0  0  0  0  0  0
    1.3531   -1.3245    1.5570 H   0  0  0  1  0  0  0  0  0  0  0  0
   -4.1916   -0.9923    3.2097 H   0  0  0  1  0  0  0  0  0  0  0  0
   -5.7131   -0.4889    2.5141 H   0  0  0  1  0  0  0  0  0  0  0  0
   -4.8383    0.5889    3.5757 H   0  0  0  1  0  0  0  0  0  0  0  0
   -5.4351    6.7520    0.9367 N   0  3  0  1  0  0  0  0  0  0  0  0
   -5.5261    7.3517   -0.0872 O   0  0  0  1  0  0  0  0  0  0  0  0
   -6.2249    6.9763    1.9957 O   0  5  0  1  0  0  0  0  0  0  0  0
   -4.4234    5.7327    1.0418 C   0  0  0  1  0  0  0  0  0  0  0  0
   -3.6154    5.4490   -0.0431 C   0  0  0  1  0  0  0  0  0  0  0  0
   -2.6373    4.4718    0.0578 C   0  0  0  1  0  0  0  0  0  0  0  0
   -2.4738    3.7776    1.2416 C   0  0  0  1  0  0  0  0  0  0  0  0
   -3.2841    4.0620    2.3297 C   0  0  0  1  0  0  0  0  0  0  0  0
   -4.2592    5.0363    2.2290 C   0  0  0  1  0  0  0  0  0  0  0  0
   -1.3974    2.7193    1.2955 C   0  0  0  1  0  0  0  0  0  0  0  0
   -3.7412    5.9687   -0.9351 H   0  0  0  1  0  0  0  0  0  0  0  0
   -2.0267    4.2612   -0.7573 H   0  0  0  1  0  0  0  0  0  0  0  0
   -3.1584    3.5423    3.2218 H   0  0  0  1  0  0  0  0  0  0  0  0
   -4.8698    5.2469    3.0441 H   0  0  0  1  0  0  0  0  0  0  0  0
   -0.5959    3.0311    0.6587 H   0  0  0  1  0  0  0  0  0  0  0  0
   -1.0476    2.6554    2.3046 H   0  0  0  1  0  0  0  0  0  0  0  0
  1  4  1  0  0  0  0
  2  4  1  0  0  0  0
  2  5  2  0  0  0  0
  2  6  1  0  0  0  0
  3  4  1  0  0  0  0
  3  7  1  0  0  0  0
  3  8  1  0  0  0  0
  4 28  1  0  0  0  0
  6  9  1  0  0  0  0
  6 12  1  0  0  0  0
  8 10  1  0  0  0  0
  8 11  2  0  0  0  0
  9 13  1  0  0  0  0
  9 14  1  0  0  0  0
  9 15  1  0  0  0  0
 10 16  1  0  0  0  0
 10 17  1  0  0  0  0
 10 18  1  0  0  0  0
 19 20  2  0  0  0  0
 19 21  1  0  0  0  0
 19 22  1  0  0  0  0
 22 23  4  0  0  0  0
 22 27  4  0  0  0  0
 23 24  4  0  0  0  0
 23 29  1  0  0  0  0
 24 25  4  0  0  0  0
 24 30  1  0  0  0  0
 25 26  4  0  0  0  0
 25 28  1  0  0  0  0
 26 27  4  0  0  0  0
 26 31  1  0  0  0  0
 27 32  1  0  0  0  0
 28 33  1  0  0  0  0
 28 34  1  0  0  0  0
M  END
> <BCLConfClusterSize>
1

> <ConfClashScore>
0 

> <ConfOneFourInteractionScore>
-0.961138 

> <ConfScore>
-0.10002 

> <ConfScorePBest>
0.00561234 

> <ConfTolerance>
0.275864 

> <RosettaParamsInstructions>
M  ROOT 3
M  POLY_N_BB 3
M  POLY_CA_BB 4
M  POLY_C_BB 2
M  POLY_O_BB 5
M  POLY_IGNORE 9 10 11 12 13 14 15 16 17 18 
M  POLY_UPPER 6
M  POLY_LOWER 8
M  POLY_CHG 0
M  POLY_PROPERTIES ALPHA_AA L_AA PROTEIN AROMATIC POLYMER 
M  END

$$$$



 34 34  0  0  0  0  0  0  0  0999 V2000
   -1.8097    1.7355   -0.4929 H   0  0  0  1  0  0  0  0  0  0  0  0
   -0.8067    0.3233    0.7390 C   0  0  0  1  0  0  0  0  0  0  0  0
   -3.0994    0.9918    0.9499 N   0  0  0  1  0  0  0  0  0  0  0  0
   -1.7890    1.4788    0.5457 C   0  0  0  1  0  0  0  0  0  0  0  0
    0.1282    0.1348   -0.0382 O   0  0  0  1  0  0  0  0  0  0  0  0
   -1.0707   -0.4351    1.8147 N   0  0  0  1  0  0  0  0  0  0  0  0
   -3.5458    1.4134    1.7137 H   0  0  0  1  0  0  0  0  0  0  0  0
   -3.7385   -0.0481    0.2919 C   0  0  0  1  0  0  0  0  0  0  0  0
   -0.2525   -1.6034    2.1038 C   0  0  0  1  0  0  0  0  0  0  0  0
   -5.0625   -0.5358    0.8094 C   0  0  0  1  0  0  0  0  0  0  0  0
   -3.2018   -0.5346   -0.6898 O   0  0  0  1  0  0  0  0  0  0  0  0
   -1.8161   -0.2016    2.4066 H   0  0  0  1  0  0  0  0  0  0  0  0
   -0.7339   -2.2009    2.8495 H   0  0  0  1  0  0  0  0  0  0  0  0
    0.7047   -1.2880    2.4631 H   0  0  0  1  0  0  0  0  0  0  0  0
   -0.1268   -2.1802    1.2114 H   0  0  0  1  0  0  0  0  0  0  0  0
   -4.9927   -1.5776    1.0434 H   0  0  0  1  0  0  0  0  0  0  0  0
   -5.8137   -0.3880    0.0619 H   0  0  0  1  0  0  0  0  0  0  0  0
   -5.3238    0.0109    1.6913 H   0  0  0  1  0  0  0  0  0  0  0  0
   -5.4512    6.7362    0.9379 N   0  3  0  1  0  0  0  0  0  0  0  0
   -6.0603    6.8212   -0.0808 O   0  0  0  1  0  0  0  0  0  0  0  0
   -5.6648    7.5330    1.9939 O   0  5  0  1  0  0  0  0  0  0  0  0
   -4.4317    5.7243    1.0400 C   0  0  0  1  0  0  0  0  0  0  0  0
   -3.6792    5.3895   -0.0699 C   0  0  0  1  0  0  0  0  0  0  0  0
   -2.6938    4.4194    0.0275 C   0  0  0  1  0  0  0  0  0  0  0  0
   -2.4675    3.7832    1.2335 C   0  0  0  1  0  0  0  0  0  0  0  0
   -3.2221    4.1189    2.3467 C   0  0  0  1  0  0  0  0  0  0  0  0
   -4.2046    5.0861    2.2494 C   0  0  0  1  0  0  0  0  0  0  0  0
   -1.3979    2.7220    1.3391 C   0  0  0  1  0  0  0  0  0  0  0  0
   -3.8523    5.8654   -0.9783 H   0  0  0  1  0  0  0  0  0  0  0  0
   -2.1248    4.1704   -0.8067 H   0  0  0  1  0  0  0  0  0  0  0  0
   -3.0491    3.6430    3.2551 H   0  0  0  1  0  0  0  0  0  0  0  0
   -4.7735    5.3351    3.0836 H   0  0  0  1  0  0  0  0  0  0  0  0
   -0.4789    3.1104    0.9522 H   0  0  0  1  0  0  0  0  0  0  0  0
   -1.2683    2.4556    2.3673 H   0  0  0  1  0  0  0  0  0  0  0  0
  1  4  1  0  0  0  0
  2  4  1  0  0  0  0
  2  5  2  0  0  0  0
  2  6  1  0  0  0  0
  3  4  1  0  0  0  0
  3  7  1  0  0  0  0
  3  8  1  0  0  0  0
  4 28  1  0  0  0  0
  6  9  1  0  0  0  0
  6 12  1  0  0  0  0
  8 10  1  0  0  0  0
  8 11  2  0  0  0  0
  9 13  1  0  0  0  0
  9 14  1  0  0  0  0
  9 15  1  0  0  0  0
 10 16  1  0  0  0  0
 10 17  1  0  0  0  0
 10 18  1  0  0  0  0
 19 20  2  0  0  0  0
 19 21  1  0  0  0  0
 19 22  1  0  0  0  0
 22 23  4  0  0  0  0
 22 27  4  0  0  0  0
 23 24  4  0  0  0  0
 23 29  1  0  0  0  0
 24 25  4  0  0  0  0
 24 30  1  0  0  0  0
 25 26  4  0  0  0  0
 25 28  1  0  0  0  0
 26 27  4  0  0  0  0
 26 31  1  0  0  0  0
 27 32  1  0  0  0  0
 28 33  1  0  0  0  0
 28 34  1  0  0  0  0
M  END
> <BCLConfClusterSize>
1

> <ConfClashScore>
0 

> <ConfOneFourInteractionScore>
-0.94165 

> <ConfScore>
-0.0997147 

> <ConfScorePBest>
0.00558386 

> <ConfTolerance>
0.487782 

> <RosettaParamsInstructions>
M  ROOT 3
M  POLY_N_BB 3
M  POLY_CA_BB 4
M  POLY_C_BB 2
M  POLY_O_BB 5
M  POLY_IGNORE 9 10 11 12 13 14 15 16 17 18 
M  POLY_UPPER 6
M  POLY_LOWER 8
M  POLY_CHG 0
M  POLY_PROPERTIES ALPHA_AA L_AA PROTEIN AROMATIC POLYMER 
M  END

$$$$



 34 34  0  0  0  0  0  0  0  0999 V2000
   -2.4846    0.9444    1.6426 H   0  0  0  1  0  0  0  0  0  0  0  0
   -2.5887    1.3069   -0.4236 C   0  0  0  1  0  0  0  0  0  0  0  0
   -0.6858    0.4280    0.7762 N   0  0  0  1  0  0  0  0  0  0  0  0
   -1.8315    1.3241    0.8849 C   0  0  0  1  0  0  0  0  0  0  0  0
   -2.0367    1.6203   -1.4750 O   0  0  0  1  0  0  0  0  0  0  0  0
   -3.8790    0.9396   -0.4009 N   0  0  0  1  0  0  0  0  0  0  0  0
    0.0358    0.6562    0.1535 H   0  0  0  1  0  0  0  0  0  0  0  0
   -0.5848   -0.7042    1.5029 C   0  0  0  1  0  0  0  0  0  0  0  0
   -4.7120    0.7497   -1.5789 C   0  0  0  1  0  0  0  0  0  0  0  0
    0.5714   -1.6398    1.2081 C   0  0  0  1  0  0  0  0  0  0  0  0
   -1.4051   -0.9718    2.3793 O   0  0  0  1  0  0  0  0  0  0  0  0
   -4.2915    0.7877    0.4750 H   0  0  0  1  0  0  0  0  0  0  0  0
   -4.0948    0.4990   -2.4162 H   0  0  0  1  0  0  0  0  0  0  0  0
   -5.2458    1.6533   -1.7875 H   0  0  0  1  0  0  0  0  0  0  0  0
   -5.4081   -0.0429   -1.3993 H   0  0  0  1  0  0  0  0  0  0  0  0
    1.1083   -1.2857    0.3530 H   0  0  0  1  0  0  0  0  0  0  0  0
    0.1941   -2.6215    1.0106 H   0  0  0  1  0  0  0  0  0  0  0  0
    1.2277   -1.6726    2.0526 H   0  0  0  1  0  0  0  0  0  0  0  0
   -5.4511    6.7407    0.9857 N   0  3  0  1  0  0  0  0  0  0  0  0
   -6.1625    6.9028    1.9258 O   0  0  0  1  0  0  0  0  0  0  0  0
   -5.5492    7.4527   -0.1452 O   0  5  0  1  0  0  0  0  0  0  0  0
   -4.4323    5.7264    1.0690 C   0  0  0  1  0  0  0  0  0  0  0  0
   -3.6430    5.4502   -0.0315 C   0  0  0  1  0  0  0  0  0  0  0  0
   -2.6581    4.4780    0.0483 C   0  0  0  1  0  0  0  0  0  0  0  0
   -2.4691    3.7810    1.2268 C   0  0  0  1  0  0  0  0  0  0  0  0
   -3.2607    4.0579    2.3305 C   0  0  0  1  0  0  0  0  0  0  0  0
   -4.2425    5.0273    2.2508 C   0  0  0  1  0  0  0  0  0  0  0  0
   -1.4001    2.7174    1.3127 C   0  0  0  1  0  0  0  0  0  0  0  0
   -3.7879    5.9719   -0.9194 H   0  0  0  1  0  0  0  0  0  0  0  0
   -2.0615    4.2730   -0.7786 H   0  0  0  1  0  0  0  0  0  0  0  0
   -3.1157    3.5362    3.2184 H   0  0  0  1  0  0  0  0  0  0  0  0
   -4.8391    5.2323    3.0777 H   0  0  0  1  0  0  0  0  0  0  0  0
   -0.5852    3.0172    0.6874 H   0  0  0  1  0  0  0  0  0  0  0  0
   -1.0694    2.6631    2.3288 H   0  0  0  1  0  0  0  0  0  0  0  0
  1  4  1  0  0  0  0
  2  4  1  0  0  0  0
  2  5  2  0  0  0  0
  2  6  1  0  0  0  0
  3  4  1  0  0  0  0
  3  7  1  0  0  0  0
  3  8  1  0  0  0  0
  4 28  1  0  0  0  0
  6  9  1  0  0  0  0
  6 12  1  0  0  0  0
  8 10  1  0  0  0  0
  8 11  2  0  0  0  0
  9 13  1  0  0  0  0
  9 14  1  0  0  0  0
  9 15  1  0  0  0  0
 10 16  1  0  0  0  0
 10 17  1  0  0  0  0
 10 18  1  0  0  0  0
 19 20  2  0  0  0  0
 19 21  1  0  0  0  0
 19 22  1  0  0  0  0
 22 23  4  0  0  0  0
 22 27  4  0  0  0  0
 23 24  4  0  0  0  0
 23 29  1  0  0  0  0
 24 25  4  0  0  0  0
 24 30  1  0  0  0  0
 25 26  4  0  0  0  0
 25 28  1  0  0  0  0
 26 27  4  0  0  0  0
 26 31  1  0  0  0  0
 27 32  1  0  0  0  0
 28 33  1  0  0  0  0
 28 34  1  0  0  0  0
M  END
> <BCLConfClusterSize>
1

> <ConfClashScore>
0 

> <ConfOneFourInteractionScore>
-0.986627 

> <ConfScore>
-0.0978806 

> <ConfScorePBest>
0.00555537 

> <ConfTolerance>
0.254609 

> <RosettaParamsInstructions>
M  ROOT 3
M  POLY_N_BB 3
M  POLY_CA_BB 4
M  POLY_C_BB 2
M  POLY_O_BB 5
M  POLY_IGNORE 9 10 11 12 13 14 15 16 17 18 
M  POLY_UPPER 6
M  POLY_LOWER 8
M  POLY_CHG 0
M  POLY_PROPERTIES ALPHA_AA L_AA PROTEIN AROMATIC POLYMER 
M  END

$$$$



 34 34  0  0  0  0  0  0  0  0999 V2000
   -2.3615    1.2835    0.0378 H   0  0  0  1  0  0  0  0  0  0  0  0
   -0.9728    0.1995    1.1875 C   0  0  0  1  0  0  0  0  0  0  0  0
   -3.1974    1.0199    1.8995 N   0  0  0  1  0  0  0  0  0  0  0  0
   -2.0381    1.2754    1.0577 C   0  0  0  1  0  0  0  0  0  0  0  0
    0.0615    0.2521    0.5234 O   0  0  0  1  0  0  0  0  0  0  0  0
   -1.1937   -0.8041    2.0440 N   0  0  0  1  0  0  0  0  0  0  0  0
   -3.0509    0.9160    2.8629 H   0  0  0  1  0  0  0  0  0  0  0  0
   -4.4461    0.9180    1.4434 C   0  0  0  1  0  0  0  0  0  0  0  0
   -0.3562   -1.9723    2.2713 C   0  0  0  1  0  0  0  0  0  0  0  0
   -5.4839    0.4779    2.4575 C   0  0  0  1  0  0  0  0  0  0  0  0
   -4.7550    1.1610    0.2798 O   0  0  0  1  0  0  0  0  0  0  0  0
   -2.0127   -0.7461    2.5791 H   0  0  0  1  0  0  0  0  0  0  0  0
    0.1886   -2.2003    1.3790 H   0  0  0  1  0  0  0  0  0  0  0  0
   -0.9720   -2.8064    2.5359 H   0  0  0  1  0  0  0  0  0  0  0  0
    0.3308   -1.7691    3.0661 H   0  0  0  1  0  0  0  0  0  0  0  0
   -5.0046    0.2671    3.3906 H   0  0  0  1  0  0  0  0  0  0  0  0
   -5.9772   -0.4031    2.1032 H   0  0  0  1  0  0  0  0  0  0  0  0
   -6.2023    1.2590    2.5942 H   0  0  0  1  0  0  0  0  0  0  0  0
   -5.4414    6.7442    0.9325 N   0  3  0  1  0  0  0  0  0  0  0  0
   -5.6495    7.1973   -0.1480 O   0  0  0  1  0  0  0  0  0  0  0  0
   -6.1845    7.0198    2.0130 O   0  5  0  1  0  0  0  0  0  0  0  0
   -4.3836    5.7757    1.0612 C   0  0  0  1  0  0  0  0  0  0  0  0
   -3.6035    5.4751   -0.0394 C   0  0  0  1  0  0  0  0  0  0  0  0
   -2.6496    4.4724    0.0399 C   0  0  0  1  0  0  0  0  0  0  0  0
   -2.4825    3.7695    1.2183 C   0  0  0  1  0  0  0  0  0  0  0  0
   -3.2648    4.0709    2.3222 C   0  0  0  1  0  0  0  0  0  0  0  0
   -4.2157    5.0706    2.2429 C   0  0  0  1  0  0  0  0  0  0  0  0
   -1.4642    2.6634    1.3628 C   0  0  0  1  0  0  0  0  0  0  0  0
   -3.7321    6.0013   -0.9272 H   0  0  0  1  0  0  0  0  0  0  0  0
   -2.0599    4.2489   -0.7870 H   0  0  0  1  0  0  0  0  0  0  0  0
   -3.1362    3.5447    3.2100 H   0  0  0  1  0  0  0  0  0  0  0  0
   -4.8055    5.2940    3.0699 H   0  0  0  1  0  0  0  0  0  0  0  0
   -0.6563    2.8538    0.6876 H   0  0  0  1  0  0  0  0  0  0  0  0
   -1.0978    2.6670    2.3682 H   0  0  0  1  0  0  0  0  0  0  0  0
  1  4  1  0  0  0  0
  2  4  1  0  0  0  0
  2  5  2  0  0  0  0
  2  6  1  0  0  0  0
  3  4  1  0  0  0  0
  3  7  1  0  0  0  0
  3  8  1  0  0  0  0
  4 28  1  0  0  0  0
  6  9  1  0  0  0  0
  6 12  1  0  0  0  0
  8 10  1  0  0  0  0
  8 11  2  0  0  0  0
  9 13  1  0  0  0  0
  9 14  1  0  0  0  0
  9 15  1  0  0  0  0
 10 16  1  0  0  0  0
 10 17  1  0  0  0  0
 10 18  1  0  0  0  0
 19 20  2  0  0  0  0
 19 21  1  0  0  0  0
 19 22  1  0  0  0  0
 22 23  4  0  0  0  0
 22 27  4  0  0  0  0
 23 24  4  0  0  0  0
 23 29  1  0  0  0  0
 24 25  4  0  0  0  0
 24 30  1  0  0  0  0
 25 26  4  0  0  0  0
 25 28  1  0  0  0  0
 26 27  4  0  0  0  0
 26 31  1  0  0  0  0
 27 32  1  0  0  0  0
 28 33  1  0  0  0  0
 28 34  1  0  0  0  0
M  END
> <BCLConfClusterSize>
1

> <ConfClashScore>
0 

> <ConfOneFourInteractionScore>
-0.965014 

> <ConfScore>
-0.0975011 

> <ConfScorePBest>
0.00552689 

> <ConfTolerance>
0.319906 

> <RosettaParamsInstructions>
M  ROOT 3
M  POLY_N_BB 3
M  POLY_CA_BB 4
M  POLY_C_BB 2
M  POLY_O_BB 5
M  POLY_IGNORE 9 10 11 12 13 14 15 16 17 18 
M  POLY_UPPER 6
M  POLY_LOWER 8
M  POLY_CHG 0
M  POLY_PROPERTIES ALPHA_AA L_AA PROTEIN AROMATIC POLYMER 
M  END

$$$$



 34 34  0  0  0  0  0  0  0  0999 V2000
    0.0841    3.8266    2.1839 H   0  0  0  1  0  0  0  0  0  0  0  0
    1.0243    2.1254    1.3257 C   0  0  0  1  0  0  0  0  0  0  0  0
    0.3139    4.0964    0.1458 N   0  0  0  1  0  0  0  0  0  0  0  0
   -0.0144    3.2534    1.2857 C   0  0  0  1  0  0  0  0  0  0  0  0
    1.3581    1.5626    0.2844 O   0  0  0  1  0  0  0  0  0  0  0  0
    1.5884    1.8648    2.5148 N   0  0  0  1  0  0  0  0  0  0  0  0
   -0.3352    4.1791   -0.5838 H   0  0  0  1  0  0  0  0  0  0  0  0
    1.4695    4.7614    0.0592 C   0  0  0  1  0  0  0  0  0  0  0  0
    2.6569    0.8820    2.6170 C   0  0  0  1  0  0  0  0  0  0  0  0
    1.7805    5.3752   -1.3022 C   0  0  0  1  0  0  0  0  0  0  0  0
    2.2444    4.8813    1.0045 O   0  0  0  1  0  0  0  0  0  0  0  0
    1.2803    2.3372    3.3162 H   0  0  0  1  0  0  0  0  0  0  0  0
    3.0481    0.8821    3.6130 H   0  0  0  1  0  0  0  0  0  0  0  0
    3.4367    1.1304    1.9278 H   0  0  0  1  0  0  0  0  0  0  0  0
    2.2714   -0.0889    2.3856 H   0  0  0  1  0  0  0  0  0  0  0  0
    1.0999    4.9891   -2.0320 H   0  0  0  1  0  0  0  0  0  0  0  0
    2.7828    5.1285   -1.5838 H   0  0  0  1  0  0  0  0  0  0  0  0
    1.6768    6.4387   -1.2457 H   0  0  0  1  0  0  0  0  0  0  0  0
   -5.4419    6.7334    0.9621 N   0  3  0  1  0  0  0  0  0  0  0  0
   -6.1152    6.9894    1.9093 O   0  0  0  1  0  0  0  0  0  0  0  0
   -5.5751    7.3425   -0.2240 O   0  5  0  1  0  0  0  0  0  0  0  0
   -4.4403    5.7247    1.0976 C   0  0  0  1  0  0  0  0  0  0  0  0
   -3.6467    5.4683   -0.0046 C   0  0  0  1  0  0  0  0  0  0  0  0
   -2.6531    4.5042    0.0658 C   0  0  0  1  0  0  0  0  0  0  0  0
   -2.4597    3.7956    1.2366 C   0  0  0  1  0  0  0  0  0  0  0  0
   -3.2556    4.0527    2.3421 C   0  0  0  1  0  0  0  0  0  0  0  0
   -4.2461    5.0140    2.2717 C   0  0  0  1  0  0  0  0  0  0  0  0
   -1.4375    2.6837    1.2393 C   0  0  0  1  0  0  0  0  0  0  0  0
   -3.7950    5.9987   -0.8868 H   0  0  0  1  0  0  0  0  0  0  0  0
   -2.0534    4.3141   -0.7623 H   0  0  0  1  0  0  0  0  0  0  0  0
   -3.1073    3.5223    3.2243 H   0  0  0  1  0  0  0  0  0  0  0  0
   -4.8459    5.2041    3.0998 H   0  0  0  1  0  0  0  0  0  0  0  0
   -1.5954    2.0640    2.0972 H   0  0  0  1  0  0  0  0  0  0  0  0
   -1.5526    2.0992    0.3505 H   0  0  0  1  0  0  0  0  0  0  0  0
  1  4  1  0  0  0  0
  2  4  1  0  0  0  0
  2  5  2  0  0  0  0
  2  6  1  0  0  0  0
  3  4  1  0  0  0  0
  3  7  1  0  0  0  0
  3  8  1  0  0  0  0
  4 28  1  0  0  0  0
  6  9  1  0  0  0  0
  6 12  1  0  0  0  0
  8 10  1  0  0  0  0
  8 11  2  0  0  0  0
  9 13  1  0  0  0  0
  9 14  1  0  0  0  0
  9 15  1  0  0  0  0
 10 16  1  0  0  0  0
 10 17  1  0  0  0  0
 10 18  1  0  0  0  0
 19 20  2  0  0  0  0
 19 21  1  0  0  0  0
 19 22  1  0  0  0  0
 22 23  4  0  0  0  0
 22 27  4  0  0  0  0
 23 24  4  0  0  0  0
 23 29  1  0  0  0  0
 24 25  4  0  0  0  0
 24 30  1  0  0  0  0
 25 26  4  0  0  0  0
 25 28  1  0  0  0  0
 26 27  4  0  0  0  0
 26 31  1  0  0  0  0
 27 32  1  0  0  0  0
 28 33  1  0  0  0  0
 28 34  1  0  0  0  0
M  END
> <BCLConfClusterSize>
1

> <ConfClashScore>
0 

> <ConfOneFourInteractionScore>
-0.985807 

> <ConfScore>
-0.0963601 

> <ConfScorePBest>
0.00549841 

> <ConfTolerance>
0.321066 

> <RosettaParamsInstructions>
M  ROOT 3
M  POLY_N_BB 3
M  POLY_CA_BB 4
M  POLY_C_BB 2
M  POLY_O_BB 5
M  POLY_IGNORE 9 10 11 12 13 14 15 16 17 18 
M  POLY_UPPER 6
M  POLY_LOWER 8
M  POLY_CHG 0
M  POLY_PROPERTIES ALPHA_AA L_AA PROTEIN AROMATIC POLYMER 
M  END

$$$$



 34 34  0  0  0  0  0  0  0  0999 V2000
    0.5630    2.2777    1.9354 H   0  0  0  1  0  0  0  0  0  0  0  0
    0.6901    3.8628    0.5630 C   0  0  0  1  0  0  0  0  0  0  0  0
   -0.0515    3.9762    2.9192 N   0  0  0  1  0  0  0  0  0  0  0  0
   -0.0008    3.1601    1.7154 C   0  0  0  1  0  0  0  0  0  0  0  0
    1.4482    3.2490   -0.1869 O   0  0  0  1  0  0  0  0  0  0  0  0
    0.4499    5.1717    0.3866 N   0  0  0  1  0  0  0  0  0  0  0  0
   -0.9256    4.2082    3.2969 H   0  0  0  1  0  0  0  0  0  0  0  0
    1.0614    4.4240    3.5326 C   0  0  0  1  0  0  0  0  0  0  0  0
    1.0096    5.9215   -0.7279 C   0  0  0  1  0  0  0  0  0  0  0  0
    0.7827    5.3447    4.7047 C   0  0  0  1  0  0  0  0  0  0  0  0
    2.2093    4.1335    3.1996 O   0  0  0  1  0  0  0  0  0  0  0  0
   -0.1223    5.6385    1.0309 H   0  0  0  1  0  0  0  0  0  0  0  0
    0.3349    6.7038   -1.0069 H   0  0  0  1  0  0  0  0  0  0  0  0
    1.1582    5.2655   -1.5600 H   0  0  0  1  0  0  0  0  0  0  0  0
    1.9473    6.3467   -0.4364 H   0  0  0  1  0  0  0  0  0  0  0  0
    0.1085    6.1174    4.3995 H   0  0  0  1  0  0  0  0  0  0  0  0
    1.6996    5.7834    5.0391 H   0  0  0  1  0  0  0  0  0  0  0  0
    0.3436    4.7831    5.5026 H   0  0  0  1  0  0  0  0  0  0  0  0
   -5.4253    6.7408    0.9121 N   0  3  0  1  0  0  0  0  0  0  0  0
   -5.6930    7.1284   -0.1807 O   0  0  0  1  0  0  0  0  0  0  0  0
   -6.0329    7.2344    1.9997 O   0  5  0  1  0  0  0  0  0  0  0  0
   -4.4327    5.7257    1.0645 C   0  0  0  1  0  0  0  0  0  0  0  0
   -3.6540    5.4308   -0.0387 C   0  0  0  1  0  0  0  0  0  0  0  0
   -2.6697    4.4585    0.0475 C   0  0  0  1  0  0  0  0  0  0  0  0
   -2.4706    3.7803    1.2352 C   0  0  0  1  0  0  0  0  0  0  0  0
   -3.2515    4.0760    2.3417 C   0  0  0  1  0  0  0  0  0  0  0  0
   -4.2328    5.0454    2.2556 C   0  0  0  1  0  0  0  0  0  0  0  0
   -1.4022    2.7167    1.3283 C   0  0  0  1  0  0  0  0  0  0  0  0
   -3.8066    5.9383   -0.9335 H   0  0  0  1  0  0  0  0  0  0  0  0
   -2.0811    4.2395   -0.7815 H   0  0  0  1  0  0  0  0  0  0  0  0
   -3.0989    3.5685    3.2365 H   0  0  0  1  0  0  0  0  0  0  0  0
   -4.8214    5.2644    3.0845 H   0  0  0  1  0  0  0  0  0  0  0  0
   -1.7245    2.0020    2.0564 H   0  0  0  1  0  0  0  0  0  0  0  0
   -1.3355    2.2452    0.3701 H   0  0  0  1  0  0  0  0  0  0  0  0
  1  4  1  0  0  0  0
  2  4  1  0  0  0  0
  2  5  2  0  0  0  0
  2  6  1  0  0  0  0
  3  4  1  0  0  0  0
  3  7  1  0  0  0  0
  3  8  1  0  0  0  0
  4 28  1  0  0  0  0
  6  9  1  0  0  0  0
  6 12  1  0  0  0  0
  8 10  1  0  0  0  0
  8 11  2  0  0  0  0
  9 13  1  0  0  0  0
  9 14  1  0  0  0  0
  9 15  1  0  0  0  0
 10 16  1  0  0  0  0
 10 17  1  0  0  0  0
 10 18  1  0  0  0  0
 19 20  2  0  0  0  0
 19 21  1  0  0  0  0
 19 22  1  0  0  0  0
 22 23  4  0  0  0  0
 22 27  4  0  0  0  0
 23 24  4  0  0  0  0
 23 29  1  0  0  0  0
 24 25  4  0  0  0  0
 24 30  1  0  0  0  0
 25 26  4  0  0  0  0
 25 28  1  0  0  0  0
 26 27  4  0  0  0  0
 26 31  1  0  0  0  0
 27 32  1  0  0  0  0
 28 33  1  0  0  0  0
 28 34  1  0  0  0  0
M  END
> <BCLConfClusterSize>
1

> <ConfClashScore>
0 

> <ConfOneFourInteractionScore>
-0.950605 

> <ConfScore>
-0.0937918 

> <ConfScorePBest>
0.00546993 

> <ConfTolerance>
0.276167 

> <RosettaParamsInstructions>
M  ROOT 3
M  POLY_N_BB 3
M  POLY_CA_BB 4
M  POLY_C_BB 2
M  POLY_O_BB 5
M  POLY_IGNORE 9 10 11 12 13 14 15 16 17 18 
M  POLY_UPPER 6
M  POLY_LOWER 8
M  POLY_CHG 0
M  POLY_PROPERTIES ALPHA_AA L_AA PROTEIN AROMATIC POLYMER 
M  END

$$$$



 34 34  0  0  0  0  0  0  0  0999 V2000
   -0.1917    3.5082   -0.2055 H   0  0  0  1  0  0  0  0  0  0  0  0
    0.4794    1.5409    0.2256 C   0  0  0  1  0  0  0  0  0  0  0  0
   -1.5317    2.1547   -1.0318 N   0  0  0  1  0  0  0  0  0  0  0  0
   -0.6313    2.5630    0.0361 C   0  0  0  1  0  0  0  0  0  0  0  0
    1.3203    1.6692    1.1145 O   0  0  0  1  0  0  0  0  0  0  0  0
    0.4744    0.5133   -0.6283 N   0  0  0  1  0  0  0  0  0  0  0  0
   -2.2408    1.5087   -0.8314 H   0  0  0  1  0  0  0  0  0  0  0  0
   -1.4210    2.6479   -2.3230 C   0  0  0  1  0  0  0  0  0  0  0  0
    1.3756   -0.6204   -0.4856 C   0  0  0  1  0  0  0  0  0  0  0  0
   -2.5021    2.3357   -3.3193 C   0  0  0  1  0  0  0  0  0  0  0  0
   -0.4450    3.3221   -2.6083 O   0  0  0  1  0  0  0  0  0  0  0  0
   -0.1582    0.5234   -1.3767 H   0  0  0  1  0  0  0  0  0  0  0  0
    2.3446   -0.2720   -0.1947 H   0  0  0  1  0  0  0  0  0  0  0  0
    1.4484   -1.1376   -1.4194 H   0  0  0  1  0  0  0  0  0  0  0  0
    0.9966   -1.2851    0.2623 H   0  0  0  1  0  0  0  0  0  0  0  0
   -3.4015    2.8445   -3.0415 H   0  0  0  1  0  0  0  0  0  0  0  0
   -2.6794    1.2806   -3.3339 H   0  0  0  1  0  0  0  0  0  0  0  0
   -2.1951    2.6599   -4.2917 H   0  0  0  1  0  0  0  0  0  0  0  0
   -5.4371    6.7400    0.9637 N   0  3  0  1  0  0  0  0  0  0  0  0
   -5.6274    7.3644   -0.0312 O   0  0  0  1  0  0  0  0  0  0  0  0
   -6.2165    7.0210    2.0169 O   0  5  0  1  0  0  0  0  0  0  0  0
   -4.4118    5.7304    1.0198 C   0  0  0  1  0  0  0  0  0  0  0  0
   -3.6036    5.4391   -0.0630 C   0  0  0  1  0  0  0  0  0  0  0  0
   -2.6270    4.4612    0.0442 C   0  0  0  1  0  0  0  0  0  0  0  0
   -2.4650    3.7738    1.2323 C   0  0  0  1  0  0  0  0  0  0  0  0
   -3.2754    4.0659    2.3182 C   0  0  0  1  0  0  0  0  0  0  0  0
   -4.2491    5.0409    2.2112 C   0  0  0  1  0  0  0  0  0  0  0  0
   -1.4049    2.7041    1.3480 C   0  0  0  1  0  0  0  0  0  0  0  0
   -3.7283    5.9536   -0.9582 H   0  0  0  1  0  0  0  0  0  0  0  0
   -2.0162    4.2448   -0.7693 H   0  0  0  1  0  0  0  0  0  0  0  0
   -3.1508    3.5514    3.2134 H   0  0  0  1  0  0  0  0  0  0  0  0
   -4.8599    5.2572    3.0247 H   0  0  0  1  0  0  0  0  0  0  0  0
   -0.7240    2.9681    2.1301 H   0  0  0  1  0  0  0  0  0  0  0  0
   -1.8726    1.7705    1.5817 H   0  0  0  1  0  0  0  0  0  0  0  0
  1  4  1  0  0  0  0
  2  4  1  0  0  0  0
  2  5  2  0  0  0  0
  2  6  1  0  0  0  0
  3  4  1  0  0  0  0
  3  7  1  0  0  0  0
  3  8  1  0  0  0  0
  4 28  1  0  0  0  0
  6  9  1  0  0  0  0
  6 12  1  0  0  0  0
  8 10  1  0  0  0  0
  8 11  2  0  0  0  0
  9 13  1  0  0  0  0
  9 14  1  0  0  0  0
  9 15  1  0  0  0  0
 10 16  1  0  0  0  0
 10 17  1  0  0  0  0
 10 18  1  0  0  0  0
 19 20  2  0  0  0  0
 19 21  1  0  0  0  0
 19 22  1  0  0  0  0
 22 23  4  0  0  0  0
 22 27  4  0  0  0  0
 23 24  4  0  0  0  0
 23 29  1  0  0  0  0
 24 25  4  0  0  0  0
 24 30  1  0  0  0  0
 25 26  4  0  0  0  0
 25 28  1  0  0  0  0
 26 27  4  0  0  0  0
 26 31  1  0  0  0  0
 27 32  1  0  0  0  0
 28 33  1  0  0  0  0
 28 34  1  0  0  0  0
M  END
> <BCLConfClusterSize>
1

> <ConfClashScore>
0 

> <ConfOneFourInteractionScore>
-0.930333 

> <ConfScore>
-0.0887505 

> <ConfScorePBest>
0.00544145 

> <ConfTolerance>
0.315192 

> <RosettaParamsInstructions>
M  ROOT 3
M  POLY_N_BB 3
M  POLY_CA_BB 4
M  POLY_C_BB 2
M  POLY_O_BB 5
M  POLY_IGNORE 9 10 11 12 13 14 15 16 17 18 
M  POLY_UPPER 6
M  POLY_LOWER 8
M  POLY_CHG 0
M  POLY_PROPERTIES ALPHA_AA L_AA PROTEIN AROMATIC POLYMER 
M  END

$$$$



 34 34  0  0  0  0  0  0  0  0999 V2000
   -2.8803    1.1365    0.9478 H   0  0  0  1  0  0  0  0  0  0  0  0
   -2.2206    1.8546   -0.9390 C   0  0  0  1  0  0  0  0  0  0  0  0
   -0.9842    0.3767    0.5756 N   0  0  0  1  0  0  0  0  0  0  0  0
   -1.9590    1.4551    0.5065 C   0  0  0  1  0  0  0  0  0  0  0  0
   -1.2954    2.1168   -1.7064 O   0  0  0  1  0  0  0  0  0  0  0  0
   -3.5026    1.8985   -1.3051 N   0  0  0  1  0  0  0  0  0  0  0  0
   -0.0958    0.5702    0.2098 H   0  0  0  1  0  0  0  0  0  0  0  0
   -1.1630   -0.8487    1.0815 C   0  0  0  1  0  0  0  0  0  0  0  0
   -3.9123    2.2200   -2.6640 C   0  0  0  1  0  0  0  0  0  0  0  0
   -0.0121   -1.8164    0.8862 C   0  0  0  1  0  0  0  0  0  0  0  0
   -2.1887   -1.1871    1.6707 O   0  0  0  1  0  0  0  0  0  0  0  0
   -4.1924    1.7077   -0.6358 H   0  0  0  1  0  0  0  0  0  0  0  0
   -4.8353    1.7258   -2.8851 H   0  0  0  1  0  0  0  0  0  0  0  0
   -3.1595    1.8926   -3.3502 H   0  0  0  1  0  0  0  0  0  0  0  0
   -4.0436    3.2779   -2.7559 H   0  0  0  1  0  0  0  0  0  0  0  0
    0.8115   -1.5207    1.5019 H   0  0  0  1  0  0  0  0  0  0  0  0
    0.2896   -1.8088   -0.1404 H   0  0  0  1  0  0  0  0  0  0  0  0
   -0.3253   -2.8024    1.1592 H   0  0  0  1  0  0  0  0  0  0  0  0
   -5.4289    6.7398    0.9076 N   0  3  0  1  0  0  0  0  0  0  0  0
   -5.5759    7.2222   -0.1703 O   0  0  0  1  0  0  0  0  0  0  0  0
   -6.1496    7.0959    1.9797 O   0  5  0  1  0  0  0  0  0  0  0  0
   -4.4326    5.7292    1.0655 C   0  0  0  1  0  0  0  0  0  0  0  0
   -3.6373    5.4475   -0.0293 C   0  0  0  1  0  0  0  0  0  0  0  0
   -2.6485    4.4803    0.0627 C   0  0  0  1  0  0  0  0  0  0  0  0
   -2.4616    3.7939    1.2477 C   0  0  0  1  0  0  0  0  0  0  0  0
   -3.2591    4.0763    2.3457 C   0  0  0  1  0  0  0  0  0  0  0  0
   -4.2449    5.0407    2.2538 C   0  0  0  1  0  0  0  0  0  0  0  0
   -1.4447    2.6773    1.2749 C   0  0  0  1  0  0  0  0  0  0  0  0
   -3.7807    5.9612   -0.9221 H   0  0  0  1  0  0  0  0  0  0  0  0
   -2.0475    4.2711   -0.7599 H   0  0  0  1  0  0  0  0  0  0  0  0
   -3.1157    3.5626    3.2385 H   0  0  0  1  0  0  0  0  0  0  0  0
   -4.8459    5.2498    3.0764 H   0  0  0  1  0  0  0  0  0  0  0  0
   -0.5366    3.0188    0.8236 H   0  0  0  1  0  0  0  0  0  0  0  0
   -1.2561    2.3993    2.2908 H   0  0  0  1  0  0  0  0  0  0  0  0
  1  4  1  0  0  0  0
  2  4  1  0  0  0  0
  2  5  2  0  0  0  0
  2  6  1  0  0  0  0
  3  4  1  0  0  0  0
  3  7  1  0  0  0  0
  3  8  1  0  0  0  0
  4 28  1  0  0  0  0
  6  9  1  0  0  0  0
  6 12  1  0  0  0  0
  8 10  1  0  0  0  0
  8 11  2  0  0  0  0
  9 13  1  0  0  0  0
  9 14  1  0  0  0  0
  9 15  1  0  0  0  0
 10 16  1  0  0  0  0
 10 17  1  0  0  0  0
 10 18  1  0  0  0  0
 19 20  2  0  0  0  0
 19 21  1  0  0  0  0
 19 22  1  0  0  0  0
 22 23  4  0  0  0  0
 22 27  4  0  0  0  0
 23 24  4  0  0  0  0
 23 29  1  0  0  0  0
 24 25  4  0  0  0  0
 24 30  1  0  0  0  0
 25 26  4  0  0  0  0
 25 28  1  0  0  0  0
 26 27  4  0  0  0  0
 26 31  1  0  0  0  0
 27 32  1  0  0  0  0
 28 33  1  0  0  0  0
 28 34  1  0  0  0  0
M  END
> <BCLConfClusterSize>
1

> <ConfClashScore>
0 

> <ConfOneFourInteractionScore>
-0.985807 

> <ConfScore>
-0.0878088 

> <ConfScorePBest>
0.00541297 

> <ConfTolerance>
0.295748 

> <RosettaParamsInstructions>
M  ROOT 3
M  POLY_N_BB 3
M  POLY_CA_BB 4
M  POLY_C_BB 2
M  POLY_O_BB 5
M  POLY_IGNORE 9 10 11 12 13 14 15 16 17 18 
M  POLY_UPPER 6
M  POLY_LOWER 8
M  POLY_CHG 0
M  POLY_PROPERTIES ALPHA_AA L_AA PROTEIN AROMATIC POLYMER 
M  END

$$$$



 34 34  0  0  0  0  0  0  0  0999 V2000
    0.5666    2.1639    1.1757 H   0  0  0  1  0  0  0  0  0  0  0  0
    0.2834    3.7425   -0.1690 C   0  0  0  1  0  0  0  0  0  0  0  0
    0.4547    3.8512    2.3204 N   0  0  0  1  0  0  0  0  0  0  0  0
    0.0053    3.0749    1.1745 C   0  0  0  1  0  0  0  0  0  0  0  0
    0.4755    3.0763   -1.1853 O   0  0  0  1  0  0  0  0  0  0  0  0
    0.3027    5.0840   -0.1603 N   0  0  0  1  0  0  0  0  0  0  0  0
   -0.1810    4.0412    3.0417 H   0  0  0  1  0  0  0  0  0  0  0  0
    1.7038    4.3140    2.4233 C   0  0  0  1  0  0  0  0  0  0  0  0
    0.6003    5.8649   -1.3518 C   0  0  0  1  0  0  0  0  0  0  0  0
    2.0206    5.0782    3.6941 C   0  0  0  1  0  0  0  0  0  0  0  0
    2.5490    4.1425    1.5604 O   0  0  0  1  0  0  0  0  0  0  0  0
    0.1097    5.5544    0.6774 H   0  0  0  1  0  0  0  0  0  0  0  0
    0.2054    5.3673   -2.2128 H   0  0  0  1  0  0  0  0  0  0  0  0
    1.6603    5.9681   -1.4547 H   0  0  0  1  0  0  0  0  0  0  0  0
    0.1540    6.8334   -1.2638 H   0  0  0  1  0  0  0  0  0  0  0  0
    1.3977    5.9461    3.7537 H   0  0  0  1  0  0  0  0  0  0  0  0
    3.0480    5.3769    3.6837 H   0  0  0  1  0  0  0  0  0  0  0  0
    1.8396    4.4507    4.5418 H   0  0  0  1  0  0  0  0  0  0  0  0
   -5.4489    6.7347    0.9268 N   0  3  0  1  0  0  0  0  0  0  0  0
   -5.5641    7.3032   -0.1123 O   0  0  0  1  0  0  0  0  0  0  0  0
   -6.2539    6.9466    1.9769 O   0  5  0  1  0  0  0  0  0  0  0  0
   -4.3891    5.7692    1.0616 C   0  0  0  1  0  0  0  0  0  0  0  0
   -3.5962    5.4775   -0.0323 C   0  0  0  1  0  0  0  0  0  0  0  0
   -2.6396    4.4777    0.0518 C   0  0  0  1  0  0  0  0  0  0  0  0
   -2.4825    3.7690    1.2280 C   0  0  0  1  0  0  0  0  0  0  0  0
   -3.2777    4.0614    2.3251 C   0  0  0  1  0  0  0  0  0  0  0  0
   -4.2314    5.0582    2.2411 C   0  0  0  1  0  0  0  0  0  0  0  0
   -1.4445    2.6755    1.3186 C   0  0  0  1  0  0  0  0  0  0  0  0
   -3.7172    6.0081   -0.9185 H   0  0  0  1  0  0  0  0  0  0  0  0
   -2.0402    4.2609   -0.7700 H   0  0  0  1  0  0  0  0  0  0  0  0
   -3.1567    3.5308    3.2113 H   0  0  0  1  0  0  0  0  0  0  0  0
   -4.8307    5.2750    3.0629 H   0  0  0  1  0  0  0  0  0  0  0  0
   -1.5543    2.2082    2.2749 H   0  0  0  1  0  0  0  0  0  0  0  0
   -1.6591    1.9656    0.5474 H   0  0  0  1  0  0  0  0  0  0  0  0
  1  4  1  0  0  0  0
  2  4  1  0  0  0  0
  2  5  2  0  0  0  0
  2  6  1  0  0  0  0
  3  4  1  0  0  0  0
  3  7  1  0  0  0  0
  3  8  1  0  0  0  0
  4 28  1  0  0  0  0
  6  9  1  0  0  0  0
  6 12  1  0  0  0  0
  8 10  1  0  0  0  0
  8 11  2  0  0  0  0
  9 13  1  0  0  0  0
  9 14  1  0  0  0  0
  9 15  1  0  0  0  0
 10 16  1  0  0  0  0
 10 17  1  0  0  0  0
 10 18  1  0  0  0  0
 19 20  2  0  0  0  0
 19 21  1  0  0  0  0
 19 22  1  0  0  0  0
 22 23  4  0  0  0  0
 22 27  4  0  0  0  0
 23 24  4  0  0  0  0
 23 29  1  0  0  0  0
 24 25  4  0  0  0  0
 24 30  1  0  0  0  0
 25 26  4  0  0  0  0
 25 28  1  0  0  0  0
 26 27  4  0  0  0  0
 26 31  1  0  0  0  0
 27 32  1  0  0  0  0
 28 33  1  0  0  0  0
 28 34  1  0  0  0  0
M  END
> <BCLConfClusterSize>
1

> <ConfClashScore>
0 

> <ConfOneFourInteractionScore>
-0.957074 

> <ConfScore>
-0.0870726 

> <ConfScorePBest>
0.00538449 

> <ConfTolerance>
0.314094 

> <RosettaParamsInstructions>
M  ROOT 3
M  POLY_N_BB 3
M  POLY_CA_BB 4
M  POLY_C_BB 2
M  POLY_O_BB 5
M  POLY_IGNORE 9 10 11 12 13 14 15 16 17 18 
M  POLY_UPPER 6
M  POLY_LOWER 8
M  POLY_CHG 0
M  POLY_PROPERTIES ALPHA_AA L_AA PROTEIN AROMATIC POLYMER 
M  END

$$$$



 34 34  0  0  0  0  0  0  0  0999 V2000
   -0.4547    3.6592    2.9458 H   0  0  0  1  0  0  0  0  0  0  0  0
    0.6687    1.9402    2.4510 C   0  0  0  1  0  0  0  0  0  0  0  0
    0.5749    4.0937    1.2099 N   0  0  0  1  0  0  0  0  0  0  0  0
   -0.1526    3.1566    2.0508 C   0  0  0  1  0  0  0  0  0  0  0  0
    1.6423    1.5894    1.7856 O   0  0  0  1  0  0  0  0  0  0  0  0
    0.2975    1.2596    3.5553 N   0  0  0  1  0  0  0  0  0  0  0  0
    0.8378    3.8340    0.3023 H   0  0  0  1  0  0  0  0  0  0  0  0
    0.8844    5.3039    1.6705 C   0  0  0  1  0  0  0  0  0  0  0  0
    0.9329   -0.0087    3.8800 C   0  0  0  1  0  0  0  0  0  0  0  0
    1.5757    6.2723    0.7307 C   0  0  0  1  0  0  0  0  0  0  0  0
    0.6429    5.6851    2.8150 O   0  0  0  1  0  0  0  0  0  0  0  0
   -0.4015    1.6201    4.1399 H   0  0  0  1  0  0  0  0  0  0  0  0
    0.8775   -0.6627    3.0350 H   0  0  0  1  0  0  0  0  0  0  0  0
    0.4298   -0.4569    4.7112 H   0  0  0  1  0  0  0  0  0  0  0  0
    1.9587    0.1610    4.1327 H   0  0  0  1  0  0  0  0  0  0  0  0
    2.4801    5.8320    0.3659 H   0  0  0  1  0  0  0  0  0  0  0  0
    1.8057    7.1758    1.2558 H   0  0  0  1  0  0  0  0  0  0  0  0
    0.9292    6.4927   -0.0929 H   0  0  0  1  0  0  0  0  0  0  0  0
   -5.4144    6.7664    0.9582 N   0  3  0  1  0  0  0  0  0  0  0  0
   -5.1515    7.8773    0.6223 O   0  0  0  1  0  0  0  0  0  0  0  0
   -6.6846    6.4634    1.2587 O   0  5  0  1  0  0  0  0  0  0  0  0
   -4.4090    5.7397    1.0511 C   0  0  0  1  0  0  0  0  0  0  0  0
   -3.5452    5.5231   -0.0059 C   0  0  0  1  0  0  0  0  0  0  0  0
   -2.5732    4.5388    0.0836 C   0  0  0  1  0  0  0  0  0  0  0  0
   -2.4714    3.7704    1.2279 C   0  0  0  1  0  0  0  0  0  0  0  0
   -3.3377    3.9875    2.2881 C   0  0  0  1  0  0  0  0  0  0  0  0
   -4.3067    4.9689    2.1986 C   0  0  0  1  0  0  0  0  0  0  0  0
   -1.4163    2.6938    1.3240 C   0  0  0  1  0  0  0  0  0  0  0  0
   -3.6244    6.0987   -0.8685 H   0  0  0  1  0  0  0  0  0  0  0  0
   -1.9206    4.3786   -0.7102 H   0  0  0  1  0  0  0  0  0  0  0  0
   -3.2584    3.4120    3.1507 H   0  0  0  1  0  0  0  0  0  0  0  0
   -4.9593    5.1291    2.9924 H   0  0  0  1  0  0  0  0  0  0  0  0
   -1.8278    1.8601    1.8535 H   0  0  0  1  0  0  0  0  0  0  0  0
   -1.1479    2.3907    0.3335 H   0  0  0  1  0  0  0  0  0  0  0  0
  1  4  1  0  0  0  0
  2  4  1  0  0  0  0
  2  5  2  0  0  0  0
  2  6  1  0  0  0  0
  3  4  1  0  0  0  0
  3  7  1  0  0  0  0
  3  8  1  0  0  0  0
  4 28  1  0  0  0  0
  6  9  1  0  0  0  0
  6 12  1  0  0  0  0
  8 10  1  0  0  0  0
  8 11  2  0  0  0  0
  9 13  1  0  0  0  0
  9 14  1  0  0  0  0
  9 15  1  0  0  0  0
 10 16  1  0  0  0  0
 10 17  1  0  0  0  0
 10 18  1  0  0  0  0
 19 20  2  0  0  0  0
 19 21  1  0  0  0  0
 19 22  1  0  0  0  0
 22 23  4  0  0  0  0
 22 27  4  0  0  0  0
 23 24  4  0  0  0  0
 23 29  1  0  0  0  0
 24 25  4  0  0  0  0
 24 30  1  0  0  0  0
 25 26  4  0  0  0  0
 25 28  1  0  0  0  0
 26 27  4  0  0  0  0
 26 31  1  0  0  0  0
 27 32  1  0  0  0  0
 28 33  1  0  0  0  0
 28 34  1  0  0  0  0
M  END
> <BCLConfClusterSize>
1

> <ConfClashScore>
0 

> <ConfOneFourInteractionScore>
-0.978127 

> <ConfScore>
-0.0827029 

> <ConfScorePBest>
0.00535601 

> <ConfTolerance>
0.411883 

> <RosettaParamsInstructions>
M  ROOT 3
M  POLY_N_BB 3
M  POLY_CA_BB 4
M  POLY_C_BB 2
M  POLY_O_BB 5
M  POLY_IGNORE 9 10 11 12 13 14 15 16 17 18 
M  POLY_UPPER 6
M  POLY_LOWER 8
M  POLY_CHG 0
M  POLY_PROPERTIES ALPHA_AA L_AA PROTEIN AROMATIC POLYMER 
M  END

$$$$



 34 34  0  0  0  0  0  0  0  0999 V2000
   -1.2785    2.8331    3.4087 H   0  0  0  1  0  0  0  0  0  0  0  0
   -2.5210    1.1842    2.9352 C   0  0  0  1  0  0  0  0  0  0  0  0
   -0.0839    1.2681    2.7787 N   0  0  0  1  0  0  0  0  0  0  0  0
   -1.2993    2.0590    2.6703 C   0  0  0  1  0  0  0  0  0  0  0  0
   -3.4521    1.5562    3.6302 O   0  0  0  1  0  0  0  0  0  0  0  0
   -2.5782   -0.0338    2.3890 N   0  0  0  1  0  0  0  0  0  0  0  0
    0.4878    1.1690    1.9890 H   0  0  0  1  0  0  0  0  0  0  0  0
    0.2804    0.6719    3.9175 C   0  0  0  1  0  0  0  0  0  0  0  0
   -3.6201   -0.9907    2.7306 C   0  0  0  1  0  0  0  0  0  0  0  0
    1.4811   -0.2726    3.8562 C   0  0  0  1  0  0  0  0  0  0  0  0
   -0.3532    0.7962    4.9527 O   0  0  0  1  0  0  0  0  0  0  0  0
   -1.8948   -0.2917    1.7357 H   0  0  0  1  0  0  0  0  0  0  0  0
   -3.9181   -0.8463    3.7480 H   0  0  0  1  0  0  0  0  0  0  0  0
   -3.2451   -1.9852    2.6067 H   0  0  0  1  0  0  0  0  0  0  0  0
   -4.4631   -0.8443    2.0880 H   0  0  0  1  0  0  0  0  0  0  0  0
    1.2087   -1.1629    3.3289 H   0  0  0  1  0  0  0  0  0  0  0  0
    1.7862   -0.5262    4.8500 H   0  0  0  1  0  0  0  0  0  0  0  0
    2.2888    0.2103    3.3470 H   0  0  0  1  0  0  0  0  0  0  0  0
   -5.4347    6.7416    0.9670 N   0  3  0  1  0  0  0  0  0  0  0  0
   -6.0455    7.0585    1.9379 O   0  0  0  1  0  0  0  0  0  0  0  0
   -5.6322    7.2888   -0.2401 O   0  5  0  1  0  0  0  0  0  0  0  0
   -4.4398    5.7254    1.0963 C   0  0  0  1  0  0  0  0  0  0  0  0
   -3.6443    5.4743   -0.0057 C   0  0  0  1  0  0  0  0  0  0  0  0
   -2.6569    4.5035    0.0589 C   0  0  0  1  0  0  0  0  0  0  0  0
   -2.4717    3.7829    1.2237 C   0  0  0  1  0  0  0  0  0  0  0  0
   -3.2695    4.0346    2.3289 C   0  0  0  1  0  0  0  0  0  0  0  0
   -4.2538    5.0026    2.2644 C   0  0  0  1  0  0  0  0  0  0  0  0
   -1.3999    2.7208    1.2930 C   0  0  0  1  0  0  0  0  0  0  0  0
   -3.7864    6.0138   -0.8834 H   0  0  0  1  0  0  0  0  0  0  0  0
   -2.0556    4.3173   -0.7690 H   0  0  0  1  0  0  0  0  0  0  0  0
   -3.1274    3.4951    3.2066 H   0  0  0  1  0  0  0  0  0  0  0  0
   -4.8551    5.1887    3.0923 H   0  0  0  1  0  0  0  0  0  0  0  0
   -1.6212    1.9658    0.5677 H   0  0  0  1  0  0  0  0  0  0  0  0
   -0.4576    3.1722    1.0624 H   0  0  0  1  0  0  0  0  0  0  0  0
  1  4  1  0  0  0  0
  2  4  1  0  0  0  0
  2  5  2  0  0  0  0
  2  6  1  0  0  0  0
  3  4  1  0  0  0  0
  3  7  1  0  0  0  0
  3  8  1  0  0  0  0
  4 28  1  0  0  0  0
  6  9  1  0  0  0  0
  6 12  1  0  0  0  0
  8 10  1  0  0  0  0
  8 11  2  0  0  0  0
  9 13  1  0  0  0  0
  9 14  1  0  0  0  0
  9 15  1  0  0  0  0
 10 16  1  0  0  0  0
 10 17  1  0  0  0  0
 10 18  1  0  0  0  0
 19 20  2  0  0  0  0
 19 21  1  0  0  0  0
 19 22  1  0  0  0  0
 22 23  4  0  0  0  0
 22 27  4  0  0  0  0
 23 24  4  0  0  0  0
 23 29  1  0  0  0  0
 24 25  4  0  0  0  0
 24 30  1  0  0  0  0
 25 26  4  0  0  0  0
 25 28  1  0  0  0  0
 26 27  4  0  0  0  0
 26 31  1  0  0  0  0
 27 32  1  0  0  0  0
 28 33  1  0  0  0  0
 28 34  1  0  0  0  0
M  END
> <BCLConfClusterSize>
1

> <ConfClashScore>
0 

> <ConfOneFourInteractionScore>
-0.952877 

> <ConfScore>
-0.0803183 

> <ConfScorePBest>
0.00532753 

> <ConfTolerance>
0.366903 

> <RosettaParamsInstructions>
M  ROOT 3
M  POLY_N_BB 3
M  POLY_CA_BB 4
M  POLY_C_BB 2
M  POLY_O_BB 5
M  POLY_IGNORE 9 10 11 12 13 14 15 16 17 18 
M  POLY_UPPER 6
M  POLY_LOWER 8
M  POLY_CHG 0
M  POLY_PROPERTIES ALPHA_AA L_AA PROTEIN AROMATIC POLYMER 
M  END

$$$$



 34 34  0  0  0  0  0  0  0  0999 V2000
    0.2336    3.9971    0.8296 H   0  0  0  1  0  0  0  0  0  0  0  0
    0.0336    4.0315    2.9303 C   0  0  0  1  0  0  0  0  0  0  0  0
    0.9975    2.2471    1.6028 N   0  0  0  1  0  0  0  0  0  0  0  0
   -0.0145    3.2929    1.5960 C   0  0  0  1  0  0  0  0  0  0  0  0
    0.2250    3.4313    3.9845 O   0  0  0  1  0  0  0  0  0  0  0  0
   -0.1445    5.3542    2.8682 N   0  0  0  1  0  0  0  0  0  0  0  0
    0.7270    1.3259    1.4062 H   0  0  0  1  0  0  0  0  0  0  0  0
    2.3118    2.5049    1.8738 C   0  0  0  1  0  0  0  0  0  0  0  0
   -0.0913    6.1564    4.0813 C   0  0  0  1  0  0  0  0  0  0  0  0
    3.2007    1.2866    1.7672 C   0  0  0  1  0  0  0  0  0  0  0  0
    2.7034    3.6186    2.1704 O   0  0  0  1  0  0  0  0  0  0  0  0
   -0.3113    5.7851    2.0040 H   0  0  0  1  0  0  0  0  0  0  0  0
    0.8007    5.9238    4.6245 H   0  0  0  1  0  0  0  0  0  0  0  0
   -0.9452    5.9406    4.6890 H   0  0  0  1  0  0  0  0  0  0  0  0
   -0.0905    7.1946    3.8223 H   0  0  0  1  0  0  0  0  0  0  0  0
    2.9048    0.5635    2.4982 H   0  0  0  1  0  0  0  0  0  0  0  0
    4.2177    1.5713    1.9388 H   0  0  0  1  0  0  0  0  0  0  0  0
    3.1087    0.8627    0.7890 H   0  0  0  1  0  0  0  0  0  0  0  0
   -5.4499    6.7416    0.9841 N   0  3  0  1  0  0  0  0  0  0  0  0
   -6.1440    6.9258    1.9330 O   0  0  0  1  0  0  0  0  0  0  0  0
   -5.5665    7.4296   -0.1599 O   0  5  0  1  0  0  0  0  0  0  0  0
   -4.4324    5.7264    1.0708 C   0  0  0  1  0  0  0  0  0  0  0  0
   -3.6391    5.4500   -0.0267 C   0  0  0  1  0  0  0  0  0  0  0  0
   -2.6554    4.4768    0.0564 C   0  0  0  1  0  0  0  0  0  0  0  0
   -2.4715    3.7792    1.2353 C   0  0  0  1  0  0  0  0  0  0  0  0
   -3.2671    4.0563    2.3361 C   0  0  0  1  0  0  0  0  0  0  0  0
   -4.2478    5.0266    2.2531 C   0  0  0  1  0  0  0  0  0  0  0  0
   -1.3898    2.7256    1.2697 C   0  0  0  1  0  0  0  0  0  0  0  0
   -3.7801    5.9722   -0.9150 H   0  0  0  1  0  0  0  0  0  0  0  0
   -2.0558    4.2717   -0.7682 H   0  0  0  1  0  0  0  0  0  0  0  0
   -3.1260    3.5341    3.2244 H   0  0  0  1  0  0  0  0  0  0  0  0
   -4.8474    5.2317    3.0777 H   0  0  0  1  0  0  0  0  0  0  0  0
   -1.6444    2.0003    2.0140 H   0  0  0  1  0  0  0  0  0  0  0  0
   -1.3444    2.2527    0.3110 H   0  0  0  1  0  0  0  0  0  0  0  0
  1  4  1  0  0  0  0
  2  4  1  0  0  0  0
  2  5  2  0  0  0  0
  2  6  1  0  0  0  0
  3  4  1  0  0  0  0
  3  7  1  0  0  0  0
  3  8  1  0  0  0  0
  4 28  1  0  0  0  0
  6  9  1  0  0  0  0
  6 12  1  0  0  0  0
  8 10  1  0  0  0  0
  8 11  2  0  0  0  0
  9 13  1  0  0  0  0
  9 14  1  0  0  0  0
  9 15  1  0  0  0  0
 10 16  1  0  0  0  0
 10 17  1  0  0  0  0
 10 18  1  0  0  0  0
 19 20  2  0  0  0  0
 19 21  1  0  0  0  0
 19 22  1  0  0  0  0
 22 23  4  0  0  0  0
 22 27  4  0  0  0  0
 23 24  4  0  0  0  0
 23 29  1  0  0  0  0
 24 25  4  0  0  0  0
 24 30  1  0  0  0  0
 25 26  4  0  0  0  0
 25 28  1  0  0  0  0
 26 27  4  0  0  0  0
 26 31  1  0  0  0  0
 27 32  1  0  0  0  0
 28 33  1  0  0  0  0
 28 34  1  0  0  0  0
M  END
> <BCLConfClusterSize>
1

> <ConfClashScore>
0 

> <ConfOneFourInteractionScore>
-0.985807 

> <ConfScore>
-0.0788811 

> <ConfScorePBest>
0.00529905 

> <ConfTolerance>
0.203358 

> <RosettaParamsInstructions>
M  ROOT 3
M  POLY_N_BB 3
M  POLY_CA_BB 4
M  POLY_C_BB 2
M  POLY_O_BB 5
M  POLY_IGNORE 9 10 11 12 13 14 15 16 17 18 
M  POLY_UPPER 6
M  POLY_LOWER 8
M  POLY_CHG 0
M  POLY_PROPERTIES ALPHA_AA L_AA PROTEIN AROMATIC POLYMER 
M  END

$$$$



 34 34  0  0  0  0  0  0  0  0999 V2000
   -2.3430    1.3293   -0.0332 H   0  0  0  1  0  0  0  0  0  0  0  0
   -0.7778    0.2943    0.9801 C   0  0  0  1  0  0  0  0  0  0  0  0
   -2.9098    0.9477    1.9321 N   0  0  0  1  0  0  0  0  0  0  0  0
   -1.9086    1.3221    0.9446 C   0  0  0  1  0  0  0  0  0  0  0  0
    0.0112    0.2506    1.9230 O   0  0  0  1  0  0  0  0  0  0  0  0
   -0.7547   -0.6004   -0.0205 N   0  0  0  1  0  0  0  0  0  0  0  0
   -2.6450    0.8838    2.8735 H   0  0  0  1  0  0  0  0  0  0  0  0
   -4.1776    0.6880    1.5999 C   0  0  0  1  0  0  0  0  0  0  0  0
    0.1717   -1.7226   -0.0386 C   0  0  0  1  0  0  0  0  0  0  0  0
   -5.0611    0.1884    2.7206 C   0  0  0  1  0  0  0  0  0  0  0  0
   -4.6161    0.8395    0.4604 O   0  0  0  1  0  0  0  0  0  0  0  0
   -1.3835   -0.4941   -0.7646 H   0  0  0  1  0  0  0  0  0  0  0  0
    0.9077   -1.5659   -0.7993 H   0  0  0  1  0  0  0  0  0  0  0  0
   -0.3656   -2.6250   -0.2430 H   0  0  0  1  0  0  0  0  0  0  0  0
    0.6541   -1.8019    0.9132 H   0  0  0  1  0  0  0  0  0  0  0  0
   -4.5611    0.3234    3.6569 H   0  0  0  1  0  0  0  0  0  0  0  0
   -5.2691   -0.8509    2.5742 H   0  0  0  1  0  0  0  0  0  0  0  0
   -5.9785    0.7392    2.7237 H   0  0  0  1  0  0  0  0  0  0  0  0
   -5.4504    6.7412    0.9839 N   0  3  0  1  0  0  0  0  0  0  0  0
   -6.1578    6.9113    1.9255 O   0  0  0  1  0  0  0  0  0  0  0  0
   -5.5520    7.4448   -0.1520 O   0  5  0  1  0  0  0  0  0  0  0  0
   -4.4326    5.7262    1.0707 C   0  0  0  1  0  0  0  0  0  0  0  0
   -3.6408    5.4481   -0.0275 C   0  0  0  1  0  0  0  0  0  0  0  0
   -2.6570    4.4751    0.0557 C   0  0  0  1  0  0  0  0  0  0  0  0
   -2.4714    3.7793    1.2354 C   0  0  0  1  0  0  0  0  0  0  0  0
   -3.2654    4.0581    2.3369 C   0  0  0  1  0  0  0  0  0  0  0  0
   -4.2463    5.0282    2.2538 C   0  0  0  1  0  0  0  0  0  0  0  0
   -1.3896    2.7258    1.2698 C   0  0  0  1  0  0  0  0  0  0  0  0
   -3.7832    5.9690   -0.9164 H   0  0  0  1  0  0  0  0  0  0  0  0
   -2.0586    4.2688   -0.7695 H   0  0  0  1  0  0  0  0  0  0  0  0
   -3.1230    3.5373    3.2258 H   0  0  0  1  0  0  0  0  0  0  0  0
   -4.8447    5.2346    3.0790 H   0  0  0  1  0  0  0  0  0  0  0  0
   -0.6383    2.9856    0.5536 H   0  0  0  1  0  0  0  0  0  0  0  0
   -0.9593    2.7114    2.2494 H   0  0  0  1  0  0  0  0  0  0  0  0
  1  4  1  0  0  0  0
  2  4  1  0  0  0  0
  2  5  2  0  0  0  0
  2  6  1  0  0  0  0
  3  4  1  0  0  0  0
  3  7  1  0  0  0  0
  3  8  1  0  0  0  0
  4 28  1  0  0  0  0
  6  9  1  0  0  0  0
  6 12  1  0  0  0  0
  8 10  1  0  0  0  0
  8 11  2  0  0  0  0
  9 13  1  0  0  0  0
  9 14  1  0  0  0  0
  9 15  1  0  0  0  0
 10 16  1  0  0  0  0
 10 17  1  0  0  0  0
 10 18  1  0  0  0  0
 19 20  2  0  0  0  0
 19 21  1  0  0  0  0
 19 22  1  0  0  0  0
 22 23  4  0  0  0  0
 22 27  4  0  0  0  0
 23 24  4  0  0  0  0
 23 29  1  0  0  0  0
 24 25  4  0  0  0  0
 24 30  1  0  0  0  0
 25 26  4  0  0  0  0
 25 28  1  0  0  0  0
 26 27  4  0  0  0  0
 26 31  1  0  0  0  0
 27 32  1  0  0  0  0
 28 33  1  0  0  0  0
 28 34  1  0  0  0  0
M  END
> <BCLConfClusterSize>
1

> <ConfClashScore>
0 

> <ConfOneFourInteractionScore>
-0.979955 

> <ConfScore>
-0.0780297 

> <ConfScorePBest>
0.00527057 

> <ConfTolerance>
0.290382 

> <RosettaParamsInstructions>
M  ROOT 3
M  POLY_N_BB 3
M  POLY_CA_BB 4
M  POLY_C_BB 2
M  POLY_O_BB 5
M  POLY_IGNORE 9 10 11 12 13 14 15 16 17 18 
M  POLY_UPPER 6
M  POLY_LOWER 8
M  POLY_CHG 0
M  POLY_PROPERTIES ALPHA_AA L_AA PROTEIN AROMATIC POLYMER 
M  END

$$$$



 34 34  0  0  0  0  0  0  0  0999 V2000
   -2.1362    1.5675   -0.2902 H   0  0  0  1  0  0  0  0  0  0  0  0
   -0.7195    0.3572    0.6883 C   0  0  0  1  0  0  0  0  0  0  0  0
   -3.0095    0.9449    1.4797 N   0  0  0  1  0  0  0  0  0  0  0  0
   -1.8341    1.3848    0.7199 C   0  0  0  1  0  0  0  0  0  0  0  0
   -0.6127   -0.4960    1.5683 O   0  0  0  1  0  0  0  0  0  0  0  0
    0.1218    0.4450   -0.3458 N   0  0  0  1  0  0  0  0  0  0  0  0
   -2.8574    0.3612    2.2521 H   0  0  0  1  0  0  0  0  0  0  0  0
   -4.2718    1.2801    1.1979 C   0  0  0  1  0  0  0  0  0  0  0  0
    1.2989   -0.4025   -0.4645 C   0  0  0  1  0  0  0  0  0  0  0  0
   -5.3326    0.6179    2.0478 C   0  0  0  1  0  0  0  0  0  0  0  0
   -4.5711    2.0748    0.3077 O   0  0  0  1  0  0  0  0  0  0  0  0
   -0.0602    1.1029   -1.0490 H   0  0  0  1  0  0  0  0  0  0  0  0
    1.1602   -1.2900    0.1169 H   0  0  0  1  0  0  0  0  0  0  0  0
    2.1570    0.1274   -0.1068 H   0  0  0  1  0  0  0  0  0  0  0  0
    1.4451   -0.6678   -1.4907 H   0  0  0  1  0  0  0  0  0  0  0  0
   -6.1328    0.2814    1.4223 H   0  0  0  1  0  0  0  0  0  0  0  0
   -5.7090    1.3217    2.7604 H   0  0  0  1  0  0  0  0  0  0  0  0
   -4.9066   -0.2181    2.5622 H   0  0  0  1  0  0  0  0  0  0  0  0
   -5.4524    6.7392    0.9849 N   0  3  0  1  0  0  0  0  0  0  0  0
   -6.2089    6.8538    1.8964 O   0  0  0  1  0  0  0  0  0  0  0  0
   -5.5004    7.5043   -0.1142 O   0  5  0  1  0  0  0  0  0  0  0  0
   -4.4331    5.7256    1.0685 C   0  0  0  1  0  0  0  0  0  0  0  0
   -3.6491    5.4438   -0.0343 C   0  0  0  1  0  0  0  0  0  0  0  0
   -2.6637    4.4721    0.0457 C   0  0  0  1  0  0  0  0  0  0  0  0
   -2.4688    3.7814    1.2269 C   0  0  0  1  0  0  0  0  0  0  0  0
   -3.2549    4.0640    2.3331 C   0  0  0  1  0  0  0  0  0  0  0  0
   -4.2374    5.0328    2.2531 C   0  0  0  1  0  0  0  0  0  0  0  0
   -1.3991    2.7184    1.3132 C   0  0  0  1  0  0  0  0  0  0  0  0
   -3.7985    5.9607   -0.9243 H   0  0  0  1  0  0  0  0  0  0  0  0
   -2.0711    4.2628   -0.7829 H   0  0  0  1  0  0  0  0  0  0  0  0
   -3.1055    3.5470    3.2230 H   0  0  0  1  0  0  0  0  0  0  0  0
   -4.8299    5.2420    3.0818 H   0  0  0  1  0  0  0  0  0  0  0  0
   -0.5349    3.0612    0.7835 H   0  0  0  1  0  0  0  0  0  0  0  0
   -1.1506    2.5682    2.3430 H   0  0  0  1  0  0  0  0  0  0  0  0
  1  4  1  0  0  0  0
  2  4  1  0  0  0  0
  2  5  2  0  0  0  0
  2  6  1  0  0  0  0
  3  4  1  0  0  0  0
  3  7  1  0  0  0  0
  3  8  1  0  0  0  0
  4 28  1  0  0  0  0
  6  9  1  0  0  0  0
  6 12  1  0  0  0  0
  8 10  1  0  0  0  0
  8 11  2  0  0  0  0
  9 13  1  0  0  0  0
  9 14  1  0  0  0  0
  9 15  1  0  0  0  0
 10 16  1  0  0  0  0
 10 17  1  0  0  0  0
 10 18  1  0  0  0  0
 19 20  2  0  0  0  0
 19 21  1  0  0  0  0
 19 22  1  0  0  0  0
 22 23  4  0  0  0  0
 22 27  4  0  0  0  0
 23 24  4  0  0  0  0
 23 29  1  0  0  0  0
 24 25  4  0  0  0  0
 24 30  1  0  0  0  0
 25 26  4  0  0  0  0
 25 28  1  0  0  0  0
 26 27  4  0  0  0  0
 26 31  1  0  0  0  0
 27 32  1  0  0  0  0
 28 33  1  0  0  0  0
 28 34  1  0  0  0  0
M  END
> <BCLConfClusterSize>
1

> <ConfClashScore>
0 

> <ConfOneFourInteractionScore>
-0.990503 

> <ConfScore>
-0.0765687 

> <ConfScorePBest>
0.00524209 

> <ConfTolerance>
0.358164 

> <RosettaParamsInstructions>
M  ROOT 3
M  POLY_N_BB 3
M  POLY_CA_BB 4
M  POLY_C_BB 2
M  POLY_O_BB 5
M  POLY_IGNORE 9 10 11 12 13 14 15 16 17 18 
M  POLY_UPPER 6
M  POLY_LOWER 8
M  POLY_CHG 0
M  POLY_PROPERTIES ALPHA_AA L_AA PROTEIN AROMATIC POLYMER 
M  END

$$$$



 34 34  0  0  0  0  0  0  0  0999 V2000
    0.3565    3.8209    1.1365 H   0  0  0  1  0  0  0  0  0  0  0  0
   -0.2292    4.0070    3.1381 C   0  0  0  1  0  0  0  0  0  0  0  0
    0.8617    2.0770    2.0884 N   0  0  0  1  0  0  0  0  0  0  0  0
   -0.0672    3.1775    1.8791 C   0  0  0  1  0  0  0  0  0  0  0  0
   -0.4374    3.4785    4.2270 O   0  0  0  1  0  0  0  0  0  0  0  0
   -0.1307    5.3298    2.9783 N   0  0  0  1  0  0  0  0  0  0  0  0
    0.6094    1.1806    1.7832 H   0  0  0  1  0  0  0  0  0  0  0  0
    2.0466    2.2463    2.6821 C   0  0  0  1  0  0  0  0  0  0  0  0
   -0.3225    6.2987    4.0471 C   0  0  0  1  0  0  0  0  0  0  0  0
    2.9814    1.0532    2.6390 C   0  0  0  1  0  0  0  0  0  0  0  0
    2.3752    3.2939    3.2325 O   0  0  0  1  0  0  0  0  0  0  0  0
    0.0844    5.6692    2.0845 H   0  0  0  1  0  0  0  0  0  0  0  0
   -1.3516    6.3085    4.3399 H   0  0  0  1  0  0  0  0  0  0  0  0
   -0.0411    7.2713    3.7011 H   0  0  0  1  0  0  0  0  0  0  0  0
    0.2842    6.0286    4.8861 H   0  0  0  1  0  0  0  0  0  0  0  0
    2.5519    0.2429    3.1902 H   0  0  0  1  0  0  0  0  0  0  0  0
    3.9216    1.3212    3.0738 H   0  0  0  1  0  0  0  0  0  0  0  0
    3.1303    0.7536    1.6227 H   0  0  0  1  0  0  0  0  0  0  0  0
   -5.4359    6.7516    0.9390 N   0  3  0  1  0  0  0  0  0  0  0  0
   -5.5298    7.3527   -0.0837 O   0  0  0  1  0  0  0  0  0  0  0  0
   -6.2233    6.9737    2.0002 O   0  5  0  1  0  0  0  0  0  0  0  0
   -4.4231    5.7330    1.0403 C   0  0  0  1  0  0  0  0  0  0  0  0
   -3.6170    5.4520   -0.0467 C   0  0  0  1  0  0  0  0  0  0  0  0
   -2.6378    4.4755    0.0504 C   0  0  0  1  0  0  0  0  0  0  0  0
   -2.4713    3.7793    1.2327 C   0  0  0  1  0  0  0  0  0  0  0  0
   -3.2797    4.0610    2.3229 C   0  0  0  1  0  0  0  0  0  0  0  0
   -4.2559    5.0346    2.2259 C   0  0  0  1  0  0  0  0  0  0  0  0
   -1.4086    2.7111    1.3375 C   0  0  0  1  0  0  0  0  0  0  0  0
   -3.7450    5.9732   -0.9375 H   0  0  0  1  0  0  0  0  0  0  0  0
   -2.0286    4.2669   -0.7663 H   0  0  0  1  0  0  0  0  0  0  0  0
   -3.1517    3.5399    3.2137 H   0  0  0  1  0  0  0  0  0  0  0  0
   -4.8651    5.2432    3.0426 H   0  0  0  1  0  0  0  0  0  0  0  0
   -1.7762    1.9420    1.9841 H   0  0  0  1  0  0  0  0  0  0  0  0
   -1.2476    2.3085    0.3592 H   0  0  0  1  0  0  0  0  0  0  0  0
  1  4  1  0  0  0  0
  2  4  1  0  0  0  0
  2  5  2  0  0  0  0
  2  6  1  0  0  0  0
  3  4  1  0  0  0  0
  3  7  1  0  0  0  0
  3  8  1  0  0  0  0
  4 28  1  0  0  0  0
  6  9  1  0  0  0  0
  6 12  1  0  0  0  0
  8 10  1  0  0  0  0
  8 11  2  0  0  0  0
  9 13  1  0  0  0  0
  9 14  1  0  0  0  0
  9 15  1  0  0  0  0
 10 16  1  0  0  0  0
 10 17  1  0  0  0  0
 10 18  1  0  0  0  0
 19 20  2  0  0  0  0
 19 21  1  0  0  0  0
 19 22  1  0  0  0  0
 22 23  4  0  0  0  0
 22 27  4  0  0  0  0
 23 24  4  0  0  0  0
 23 29  1  0  0  0  0
 24 25  4  0  0  0  0
 24 30  1  0  0  0  0
 25 26  4  0  0  0  0
 25 28  1  0  0  0  0
 26 27  4  0  0  0  0
 26 31  1  0  0  0  0
 27 32  1  0  0  0  0
 28 33  1  0  0  0  0
 28 34  1  0  0  0  0
M  END
> <BCLConfClusterSize>
1

> <ConfClashScore>
0 

> <ConfOneFourInteractionScore>
-0.985807 

> <ConfScore>
-0.076394 

> <ConfScorePBest>
0.00521361 

> <ConfTolerance>
0.273264 

> <RosettaParamsInstructions>
M  ROOT 3
M  POLY_N_BB 3
M  POLY_CA_BB 4
M  POLY_C_BB 2
M  POLY_O_BB 5
M  POLY_IGNORE 9 10 11 12 13 14 15 16 17 18 
M  POLY_UPPER 6
M  POLY_LOWER 8
M  POLY_CHG 0
M  POLY_PROPERTIES ALPHA_AA L_AA PROTEIN AROMATIC POLYMER 
M  END

$$$$



 34 34  0  0  0  0  0  0  0  0999 V2000
    0.1825    4.0879    1.0711 H   0  0  0  1  0  0  0  0  0  0  0  0
    0.0018    3.7753    3.1469 C   0  0  0  1  0  0  0  0  0  0  0  0
    1.0069    2.2615    1.5483 N   0  0  0  1  0  0  0  0  0  0  0  0
   -0.0366    3.2622    1.7153 C   0  0  0  1  0  0  0  0  0  0  0  0
   -0.2693    3.0972    4.1199 O   0  0  0  1  0  0  0  0  0  0  0  0
    0.3615    5.0588    3.3006 N   0  0  0  1  0  0  0  0  0  0  0  0
    0.9754    1.4728    2.1290 H   0  0  0  1  0  0  0  0  0  0  0  0
    2.0045    2.3372    0.6628 C   0  0  0  1  0  0  0  0  0  0  0  0
    0.4140    5.6489    4.6298 C   0  0  0  1  0  0  0  0  0  0  0  0
    3.0307    1.2291    0.7333 C   0  0  0  1  0  0  0  0  0  0  0  0
    2.0985    3.2414   -0.1630 O   0  0  0  1  0  0  0  0  0  0  0  0
    0.5892    5.6000    2.5160 H   0  0  0  1  0  0  0  0  0  0  0  0
   -0.5594    5.6183    5.0729 H   0  0  0  1  0  0  0  0  0  0  0  0
    0.7403    6.6652    4.5560 H   0  0  0  1  0  0  0  0  0  0  0  0
    1.0999    5.0968    5.2379 H   0  0  0  1  0  0  0  0  0  0  0  0
    4.0095    1.6535    0.8158 H   0  0  0  1  0  0  0  0  0  0  0  0
    2.9740    0.6339   -0.1541 H   0  0  0  1  0  0  0  0  0  0  0  0
    2.8349    0.6159    1.5879 H   0  0  0  1  0  0  0  0  0  0  0  0
   -5.4455    6.7385    0.9938 N   0  3  0  1  0  0  0  0  0  0  0  0
   -6.1024    7.0480    1.9366 O   0  0  0  1  0  0  0  0  0  0  0  0
   -5.6611    7.3542   -0.1768 O   0  5  0  1  0  0  0  0  0  0  0  0
   -4.4274    5.7234    1.0738 C   0  0  0  1  0  0  0  0  0  0  0  0
   -3.6289    5.4599   -0.0232 C   0  0  0  1  0  0  0  0  0  0  0  0
   -2.6447    4.4868    0.0535 C   0  0  0  1  0  0  0  0  0  0  0  0
   -2.4654    3.7763    1.2254 C   0  0  0  1  0  0  0  0  0  0  0  0
   -3.2661    4.0404    2.3257 C   0  0  0  1  0  0  0  0  0  0  0  0
   -4.2474    5.0107    2.2490 C   0  0  0  1  0  0  0  0  0  0  0  0
   -1.3970    2.7118    1.3079 C   0  0  0  1  0  0  0  0  0  0  0  0
   -3.7665    5.9918   -0.9062 H   0  0  0  1  0  0  0  0  0  0  0  0
   -2.0412    4.2914   -0.7707 H   0  0  0  1  0  0  0  0  0  0  0  0
   -3.1285    3.5085    3.2087 H   0  0  0  1  0  0  0  0  0  0  0  0
   -4.8508    5.2061    3.0732 H   0  0  0  1  0  0  0  0  0  0  0  0
   -1.6989    1.9815    2.0294 H   0  0  0  1  0  0  0  0  0  0  0  0
   -1.3033    2.2482    0.3481 H   0  0  0  1  0  0  0  0  0  0  0  0
  1  4  1  0  0  0  0
  2  4  1  0  0  0  0
  2  5  2  0  0  0  0
  2  6  1  0  0  0  0
  3  4  1  0  0  0  0
  3  7  1  0  0  0  0
  3  8  1  0  0  0  0
  4 28  1  0  0  0  0
  6  9  1  0  0  0  0
  6 12  1  0  0  0  0
  8 10  1  0  0  0  0
  8 11  2  0  0  0  0
  9 13  1  0  0  0  0
  9 14  1  0  0  0  0
  9 15  1  0  0  0  0
 10 16  1  0  0  0  0
 10 17  1  0  0  0  0
 10 18  1  0  0  0  0
 19 20  2  0  0  0  0
 19 21  1  0  0  0  0
 19 22  1  0  0  0  0
 22 23  4  0  0  0  0
 22 27  4  0  0  0  0
 23 24  4  0  0  0  0
 23 29  1  0  0  0  0
 24 25  4  0  0  0  0
 24 30  1  0  0  0  0
 25 26  4  0  0  0  0
 25 28  1  0  0  0  0
 26 27  4  0  0  0  0
 26 31  1  0  0  0  0
 27 32  1  0  0  0  0
 28 33  1  0  0  0  0
 28 34  1  0  0  0  0
M  END
> <BCLConfClusterSize>
1

> <ConfClashScore>
0 

> <ConfOneFourInteractionScore>
-0.982823 

> <ConfScore>
-0.0692566 

> <ConfScorePBest>
0.00518512 

> <ConfTolerance>
0.270401 

> <RosettaParamsInstructions>
M  ROOT 3
M  POLY_N_BB 3
M  POLY_CA_BB 4
M  POLY_C_BB 2
M  POLY_O_BB 5
M  POLY_IGNORE 9 10 11 12 13 14 15 16 17 18 
M  POLY_UPPER 6
M  POLY_LOWER 8
M  POLY_CHG 0
M  POLY_PROPERTIES ALPHA_AA L_AA PROTEIN AROMATIC POLYMER 
M  END

$$$$



 34 34  0  0  0  0  0  0  0  0999 V2000
   -0.1785    4.3044    2.2821 H   0  0  0  1  0  0  0  0  0  0  0  0
    1.0516    2.6085    2.1244 C   0  0  0  1  0  0  0  0  0  0  0  0
    0.4127    4.1691    0.3170 N   0  0  0  1  0  0  0  0  0  0  0  0
   -0.0055    3.5362    1.5576 C   0  0  0  1  0  0  0  0  0  0  0  0
    1.8627    2.0423    1.3929 O   0  0  0  1  0  0  0  0  0  0  0  0
    1.0373    2.4545    3.4493 N   0  0  0  1  0  0  0  0  0  0  0  0
    0.3029    3.7130   -0.5434 H   0  0  0  1  0  0  0  0  0  0  0  0
    0.9562    5.4021    0.3842 C   0  0  0  1  0  0  0  0  0  0  0  0
    2.0213    1.6413    4.1480 C   0  0  0  1  0  0  0  0  0  0  0  0
    1.4602    5.9699   -0.9233 C   0  0  0  1  0  0  0  0  0  0  0  0
    1.0446    6.0379    1.4313 O   0  0  0  1  0  0  0  0  0  0  0  0
    0.3398    2.9046    3.9702 H   0  0  0  1  0  0  0  0  0  0  0  0
    2.0284    0.6547    3.7339 H   0  0  0  1  0  0  0  0  0  0  0  0
    1.7688    1.5902    5.1865 H   0  0  0  1  0  0  0  0  0  0  0  0
    2.9905    2.0812    4.0374 H   0  0  0  1  0  0  0  0  0  0  0  0
    0.6740    5.9483   -1.6488 H   0  0  0  1  0  0  0  0  0  0  0  0
    2.2839    5.3831   -1.2728 H   0  0  0  1  0  0  0  0  0  0  0  0
    1.7795    6.9801   -0.7737 H   0  0  0  1  0  0  0  0  0  0  0  0
   -5.4827    6.7101    0.9297 N   0  3  0  1  0  0  0  0  0  0  0  0
   -6.3063    7.0319    0.1333 O   0  0  0  1  0  0  0  0  0  0  0  0
   -5.3523    7.3251    2.1130 O   0  5  0  1  0  0  0  0  0  0  0  0
   -4.4462    5.7123    0.9910 C   0  0  0  1  0  0  0  0  0  0  0  0
   -3.6856    5.3703   -0.1112 C   0  0  0  1  0  0  0  0  0  0  0  0
   -2.6957    4.4066    0.0017 C   0  0  0  1  0  0  0  0  0  0  0  0
   -2.4729    3.7838    1.2154 C   0  0  0  1  0  0  0  0  0  0  0  0
   -3.2357    4.1268    2.3208 C   0  0  0  1  0  0  0  0  0  0  0  0
   -4.2226    5.0877    2.2081 C   0  0  0  1  0  0  0  0  0  0  0  0
   -1.3331    2.8019    1.3497 C   0  0  0  1  0  0  0  0  0  0  0  0
   -3.8560    5.8361   -1.0253 H   0  0  0  1  0  0  0  0  0  0  0  0
   -2.1207    4.1521   -0.8267 H   0  0  0  1  0  0  0  0  0  0  0  0
   -3.0653    3.6610    3.2350 H   0  0  0  1  0  0  0  0  0  0  0  0
   -4.7976    5.3421    3.0365 H   0  0  0  1  0  0  0  0  0  0  0  0
   -1.5165    2.1642    2.1890 H   0  0  0  1  0  0  0  0  0  0  0  0
   -1.2718    2.2116    0.4593 H   0  0  0  1  0  0  0  0  0  0  0  0
  1  4  1  0  0  0  0
  2  4  1  0  0  0  0
  2  5  2  0  0  0  0
  2  6  1  0  0  0  0
  3  4  1  0  0  0  0
  3  7  1  0  0  0  0
  3  8  1  0  0  0  0
  4 28  1  0  0  0  0
  6  9  1  0  0  0  0
  6 12  1  0  0  0  0
  8 10  1  0  0  0  0
  8 11  2  0  0  0  0
  9 13  1  0  0  0  0
  9 14  1  0  0  0  0
  9 15  1  0  0  0  0
 10 16  1  0  0  0  0
 10 17  1  0  0  0  0
 10 18  1  0  0  0  0
 19 20  2  0  0  0  0
 19 21  1  0  0  0  0
 19 22  1  0  0  0  0
 22 23  4  0  0  0  0
 22 27  4  0  0  0  0
 23 24  4  0  0  0  0
 23 29  1  0  0  0  0
 24 25  4  0  0  0  0
 24 30  1  0  0  0  0
 25 26  4  0  0  0  0
 25 28  1  0  0  0  0
 26 27  4  0  0  0  0
 26 31  1  0  0  0  0
 27 32  1  0  0  0  0
 28 33  1  0  0  0  0
 28 34  1  0  0  0  0
M  END
> <BCLConfClusterSize>
1

> <ConfClashScore>
0 

> <ConfOneFourInteractionScore>
-0.978127 

> <ConfScore>
-0.0661161 

> <ConfScorePBest>
0.00515664 

> <ConfTolerance>
0.497451 

> <RosettaParamsInstructions>
M  ROOT 3
M  POLY_N_BB 3
M  POLY_CA_BB 4
M  POLY_C_BB 2
M  POLY_O_BB 5
M  POLY_IGNORE 9 10 11 12 13 14 15 16 17 18 
M  POLY_UPPER 6
M  POLY_LOWER 8
M  POLY_CHG 0
M  POLY_PROPERTIES ALPHA_AA L_AA PROTEIN AROMATIC POLYMER 
M  END

$$$$



 34 34  0  0  0  0  0  0  0  0999 V2000
    0.2369    3.9508    1.2893 H   0  0  0  1  0  0  0  0  0  0  0  0
   -0.2124    3.7108    3.3310 C   0  0  0  1  0  0  0  0  0  0  0  0
    0.8813    2.0687    1.8591 N   0  0  0  1  0  0  0  0  0  0  0  0
   -0.1152    3.1565    1.9138 C   0  0  0  1  0  0  0  0  0  0  0  0
    0.1729    3.0592    4.2981 O   0  0  0  1  0  0  0  0  0  0  0  0
   -0.7376    4.9344    3.4408 N   0  0  0  1  0  0  0  0  0  0  0  0
    0.6128    1.1741    1.5624 H   0  0  0  1  0  0  0  0  0  0  0  0
    2.1484    2.3012    2.2133 C   0  0  0  1  0  0  0  0  0  0  0  0
   -0.9541    5.5746    4.7297 C   0  0  0  1  0  0  0  0  0  0  0  0
    3.0796    1.1061    2.1511 C   0  0  0  1  0  0  0  0  0  0  0  0
    2.5521    3.4073    2.5699 O   0  0  0  1  0  0  0  0  0  0  0  0
   -0.9857    5.4176    2.6251 H   0  0  0  1  0  0  0  0  0  0  0  0
   -0.0195    5.6728    5.2412 H   0  0  0  1  0  0  0  0  0  0  0  0
   -1.6206    4.9778    5.3166 H   0  0  0  1  0  0  0  0  0  0  0  0
   -1.3815    6.5439    4.5789 H   0  0  0  1  0  0  0  0  0  0  0  0
    2.5235    0.2102    2.3325 H   0  0  0  1  0  0  0  0  0  0  0  0
    3.8419    1.2092    2.8948 H   0  0  0  1  0  0  0  0  0  0  0  0
    3.5305    1.0557    1.1820 H   0  0  0  1  0  0  0  0  0  0  0  0
   -5.4490    6.7308    0.9264 N   0  3  0  1  0  0  0  0  0  0  0  0
   -5.6460    7.2293   -0.1361 O   0  0  0  1  0  0  0  0  0  0  0  0
   -6.1902    7.0461    1.9973 O   0  5  0  1  0  0  0  0  0  0  0  0
   -4.3882    5.7664    1.0609 C   0  0  0  1  0  0  0  0  0  0  0  0
   -3.6035    5.4660   -0.0365 C   0  0  0  1  0  0  0  0  0  0  0  0
   -2.6463    4.4669    0.0484 C   0  0  0  1  0  0  0  0  0  0  0  0
   -2.4804    3.7675    1.2290 C   0  0  0  1  0  0  0  0  0  0  0  0
   -3.2673    4.0687    2.3296 C   0  0  0  1  0  0  0  0  0  0  0  0
   -4.2216    5.0649    2.2448 C   0  0  0  1  0  0  0  0  0  0  0  0
   -1.4416    2.6748    1.3205 C   0  0  0  1  0  0  0  0  0  0  0  0
   -3.7311    5.9895   -0.9260 H   0  0  0  1  0  0  0  0  0  0  0  0
   -2.0531    4.2436   -0.7761 H   0  0  0  1  0  0  0  0  0  0  0  0
   -3.1397    3.5452    3.2191 H   0  0  0  1  0  0  0  0  0  0  0  0
   -4.8148    5.2882    3.0694 H   0  0  0  1  0  0  0  0  0  0  0  0
   -1.8261    1.8903    1.9383 H   0  0  0  1  0  0  0  0  0  0  0  0
   -1.2573    2.2969    0.3366 H   0  0  0  1  0  0  0  0  0  0  0  0
  1  4  1  0  0  0  0
  2  4  1  0  0  0  0
  2  5  2  0  0  0  0
  2  6  1  0  0  0  0
  3  4  1  0  0  0  0
  3  7  1  0  0  0  0
  3  8  1  0  0  0  0
  4 28  1  0  0  0  0
  6  9  1  0  0  0  0
  6 12  1  0  0  0  0
  8 10  1  0  0  0  0
  8 11  2  0  0  0  0
  9 13  1  0  0  0  0
  9 14  1  0  0  0  0
  9 15  1  0  0  0  0
 10 16  1  0  0  0  0
 10 17  1  0  0  0  0
 10 18  1  0  0  0  0
 19 20  2  0  0  0  0
 19 21  1  0  0  0  0
 19 22  1  0  0  0  0
 22 23  4  0  0  0  0
 22 27  4  0  0  0  0
 23 24  4  0  0  0  0
 23 29  1  0  0  0  0
 24 25  4  0  0  0  0
 24 30  1  0  0  0  0
 25 26  4  0  0  0  0
 25 28  1  0  0  0  0
 26 27  4  0  0  0  0
 26 31  1  0  0  0  0
 27 32  1  0  0  0  0
 28 33  1  0  0  0  0
 28 34  1  0  0  0  0
M  END
> <BCLConfClusterSize>
1

> <ConfClashScore>
0 

> <ConfOneFourInteractionScore>
-0.985807 

> <ConfScore>
-0.0639759 

> <ConfScorePBest>
0.00512816 

> <ConfTolerance>
0.27044 

> <RosettaParamsInstructions>
M  ROOT 3
M  POLY_N_BB 3
M  POLY_CA_BB 4
M  POLY_C_BB 2
M  POLY_O_BB 5
M  POLY_IGNORE 9 10 11 12 13 14 15 16 17 18 
M  POLY_UPPER 6
M  POLY_LOWER 8
M  POLY_CHG 0
M  POLY_PROPERTIES ALPHA_AA L_AA PROTEIN AROMATIC POLYMER 
M  END

$$$$



 34 34  0  0  0  0  0  0  0  0999 V2000
    0.1762    4.1399    1.1703 H   0  0  0  1  0  0  0  0  0  0  0  0
    1.0140    2.1934    1.1656 C   0  0  0  1  0  0  0  0  0  0  0  0
   -0.1179    3.2939   -0.7025 N   0  0  0  1  0  0  0  0  0  0  0  0
   -0.0546    3.1845    0.7473 C   0  0  0  1  0  0  0  0  0  0  0  0
    1.7436    2.4111    2.1317 O   0  0  0  1  0  0  0  0  0  0  0  0
    1.1032    1.0836    0.4190 N   0  0  0  1  0  0  0  0  0  0  0  0
   -0.7004    2.6811   -1.1980 H   0  0  0  1  0  0  0  0  0  0  0  0
    0.5903    4.2008   -1.3814 C   0  0  0  1  0  0  0  0  0  0  0  0
    2.0989    0.0533    0.6736 C   0  0  0  1  0  0  0  0  0  0  0  0
    0.2582    4.3271   -2.8555 C   0  0  0  1  0  0  0  0  0  0  0  0
    1.4602    4.8980   -0.8609 O   0  0  0  1  0  0  0  0  0  0  0  0
    0.4760    0.9618   -0.3242 H   0  0  0  1  0  0  0  0  0  0  0  0
    1.9896   -0.3096    1.6743 H   0  0  0  1  0  0  0  0  0  0  0  0
    3.0784    0.4657    0.5491 H   0  0  0  1  0  0  0  0  0  0  0  0
    1.9609   -0.7538   -0.0152 H   0  0  0  1  0  0  0  0  0  0  0  0
   -0.4251    5.1379   -2.9995 H   0  0  0  1  0  0  0  0  0  0  0  0
   -0.1898    3.4182   -3.1990 H   0  0  0  1  0  0  0  0  0  0  0  0
    1.1551    4.5144   -3.4081 H   0  0  0  1  0  0  0  0  0  0  0  0
   -5.4537    6.7493    1.0055 N   0  3  0  1  0  0  0  0  0  0  0  0
   -6.0150    7.0998    1.9945 O   0  0  0  1  0  0  0  0  0  0  0  0
   -5.6430    7.1902   -0.2456 O   0  5  0  1  0  0  0  0  0  0  0  0
   -4.4358    5.7334    1.0800 C   0  0  0  1  0  0  0  0  0  0  0  0
   -3.6317    5.4817   -0.0156 C   0  0  0  1  0  0  0  0  0  0  0  0
   -2.6478    4.5078    0.0559 C   0  0  0  1  0  0  0  0  0  0  0  0
   -2.4745    3.7850    1.2211 C   0  0  0  1  0  0  0  0  0  0  0  0
   -3.2808    4.0374    2.3199 C   0  0  0  1  0  0  0  0  0  0  0  0
   -4.2618    5.0083    2.2485 C   0  0  0  1  0  0  0  0  0  0  0  0
   -1.4064    2.7197    1.2978 C   0  0  0  1  0  0  0  0  0  0  0  0
   -3.7649    6.0229   -0.8936 H   0  0  0  1  0  0  0  0  0  0  0  0
   -2.0401    4.3212   -0.7672 H   0  0  0  1  0  0  0  0  0  0  0  0
   -3.1477    3.4962    3.1980 H   0  0  0  1  0  0  0  0  0  0  0  0
   -4.8695    5.1950    3.0716 H   0  0  0  1  0  0  0  0  0  0  0  0
   -1.2786    2.4388    2.3223 H   0  0  0  1  0  0  0  0  0  0  0  0
   -1.7307    1.8710    0.7326 H   0  0  0  1  0  0  0  0  0  0  0  0
  1  4  1  0  0  0  0
  2  4  1  0  0  0  0
  2  5  2  0  0  0  0
  2  6  1  0  0  0  0
  3  4  1  0  0  0  0
  3  7  1  0  0  0  0
  3  8  1  0  0  0  0
  4 28  1  0  0  0  0
  6  9  1  0  0  0  0
  6 12  1  0  0  0  0
  8 10  1  0  0  0  0
  8 11  2  0  0  0  0
  9 13  1  0  0  0  0
  9 14  1  0  0  0  0
  9 15  1  0  0  0  0
 10 16  1  0  0  0  0
 10 17  1  0  0  0  0
 10 18  1  0  0  0  0
 19 20  2  0  0  0  0
 19 21  1  0  0  0  0
 19 22  1  0  0  0  0
 22 23  4  0  0  0  0
 22 27  4  0  0  0  0
 23 24  4  0  0  0  0
 23 29  1  0  0  0  0
 24 25  4  0  0  0  0
 24 30  1  0  0  0  0
 25 26  4  0  0  0  0
 25 28  1  0  0  0  0
 26 27  4  0  0  0  0
 26 31  1  0  0  0  0
 27 32  1  0  0  0  0
 28 33  1  0  0  0  0
 28 34  1  0  0  0  0
M  END
> <BCLConfClusterSize>
1

> <ConfClashScore>
0 

> <ConfOneFourInteractionScore>
-0.956443 

> <ConfScore>
-0.0599219 

> <ConfScorePBest>
0.00509968 

> <ConfTolerance>
0.379769 

> <RosettaParamsInstructions>
M  ROOT 3
M  POLY_N_BB 3
M  POLY_CA_BB 4
M  POLY_C_BB 2
M  POLY_O_BB 5
M  POLY_IGNORE 9 10 11 12 13 14 15 16 17 18 
M  POLY_UPPER 6
M  POLY_LOWER 8
M  POLY_CHG 0
M  POLY_PROPERTIES ALPHA_AA L_AA PROTEIN AROMATIC POLYMER 
M  END

$$$$



 34 34  0  0  0  0  0  0  0  0999 V2000
   -0.8844    0.7499    0.7768 H   0  0  0  1  0  0  0  0  0  0  0  0
   -2.9120    0.6607    1.2962 C   0  0  0  1  0  0  0  0  0  0  0  0
   -1.9423    1.6205   -0.7654 N   0  0  0  1  0  0  0  0  0  0  0  0
   -1.7409    1.3819    0.6681 C   0  0  0  1  0  0  0  0  0  0  0  0
   -2.7547   -0.1077    2.2440 O   0  0  0  1  0  0  0  0  0  0  0  0
   -4.1054    0.9142    0.7570 N   0  0  0  1  0  0  0  0  0  0  0  0
   -2.0024    2.5317   -1.1211 H   0  0  0  1  0  0  0  0  0  0  0  0
   -2.0422    0.5497   -1.5801 C   0  0  0  1  0  0  0  0  0  0  0  0
   -5.3319    0.3223    1.2702 C   0  0  0  1  0  0  0  0  0  0  0  0
   -2.5567    0.7708   -2.9846 C   0  0  0  1  0  0  0  0  0  0  0  0
   -1.7249   -0.5740   -1.1942 O   0  0  0  1  0  0  0  0  0  0  0  0
   -4.1582    1.5202   -0.0114 H   0  0  0  1  0  0  0  0  0  0  0  0
   -5.1726   -0.0171    2.2723 H   0  0  0  1  0  0  0  0  0  0  0  0
   -5.6130   -0.5059    0.6538 H   0  0  0  1  0  0  0  0  0  0  0  0
   -6.1118    1.0548    1.2617 H   0  0  0  1  0  0  0  0  0  0  0  0
   -3.2162   -0.0278   -3.2532 H   0  0  0  1  0  0  0  0  0  0  0  0
   -1.7323    0.7968   -3.6662 H   0  0  0  1  0  0  0  0  0  0  0  0
   -3.0857    1.6998   -3.0283 H   0  0  0  1  0  0  0  0  0  0  0  0
   -5.4465    6.7330    1.0016 N   0  3  0  1  0  0  0  0  0  0  0  0
   -6.1095    6.9712    1.9607 O   0  0  0  1  0  0  0  0  0  0  0  0
   -5.7030    7.4412   -0.1066 O   0  5  0  1  0  0  0  0  0  0  0  0
   -4.4179    5.7261    1.0440 C   0  0  0  1  0  0  0  0  0  0  0  0
   -3.6144    5.4463   -0.0453 C   0  0  0  1  0  0  0  0  0  0  0  0
   -2.6343    4.4706    0.0487 C   0  0  0  1  0  0  0  0  0  0  0  0
   -2.4642    3.7737    1.2301 C   0  0  0  1  0  0  0  0  0  0  0  0
   -3.2699    4.0542    2.3226 C   0  0  0  1  0  0  0  0  0  0  0  0
   -4.2471    5.0271    2.2287 C   0  0  0  1  0  0  0  0  0  0  0  0
   -1.4003    2.7063    1.3315 C   0  0  0  1  0  0  0  0  0  0  0  0
   -3.7452    5.9679   -0.9355 H   0  0  0  1  0  0  0  0  0  0  0  0
   -2.0270    4.2629   -0.7697 H   0  0  0  1  0  0  0  0  0  0  0  0
   -3.1392    3.5326    3.2128 H   0  0  0  1  0  0  0  0  0  0  0  0
   -4.8543    5.2347    3.0471 H   0  0  0  1  0  0  0  0  0  0  0  0
   -0.5091    3.0842    0.8757 H   0  0  0  1  0  0  0  0  0  0  0  0
   -1.2188    2.5187    2.3692 H   0  0  0  1  0  0  0  0  0  0  0  0
  1  4  1  0  0  0  0
  2  4  1  0  0  0  0
  2  5  2  0  0  0  0
  2  6  1  0  0  0  0
  3  4  1  0  0  0  0
  3  7  1  0  0  0  0
  3  8  1  0  0  0  0
  4 28  1  0  0  0  0
  6  9  1  0  0  0  0
  6 12  1  0  0  0  0
  8 10  1  0  0  0  0
  8 11  2  0  0  0  0
  9 13  1  0  0  0  0
  9 14  1  0  0  0  0
  9 15  1  0  0  0  0
 10 16  1  0  0  0  0
 10 17  1  0  0  0  0
 10 18  1  0  0  0  0
 19 20  2  0  0  0  0
 19 21  1  0  0  0  0
 19 22  1  0  0  0  0
 22 23  4  0  0  0  0
 22 27  4  0  0  0  0
 23 24  4  0  0  0  0
 23 29  1  0  0  0  0
 24 25  4  0  0  0  0
 24 30  1  0  0  0  0
 25 26  4  0  0  0  0
 25 28  1  0  0  0  0
 26 27  4  0  0  0  0
 26 31  1  0  0  0  0
 27 32  1  0  0  0  0
 28 33  1  0  0  0  0
 28 34  1  0  0  0  0
M  END
> <BCLConfClusterSize>
1

> <ConfClashScore>
0 

> <ConfOneFourInteractionScore>
-0.950605 

> <ConfScore>
-0.0579696 

> <ConfScorePBest>
0.0050712 

> <ConfTolerance>
0.341189 

> <RosettaParamsInstructions>
M  ROOT 3
M  POLY_N_BB 3
M  POLY_CA_BB 4
M  POLY_C_BB 2
M  POLY_O_BB 5
M  POLY_IGNORE 9 10 11 12 13 14 15 16 17 18 
M  POLY_UPPER 6
M  POLY_LOWER 8
M  POLY_CHG 0
M  POLY_PROPERTIES ALPHA_AA L_AA PROTEIN AROMATIC POLYMER 
M  END

$$$$



 34 34  0  0  0  0  0  0  0  0999 V2000
    0.1749    4.0963    1.0106 H   0  0  0  1  0  0  0  0  0  0  0  0
    0.0316    3.8115    3.0952 C   0  0  0  1  0  0  0  0  0  0  0  0
    1.0094    2.2768    1.4966 N   0  0  0  1  0  0  0  0  0  0  0  0
   -0.0318    3.2787    1.6691 C   0  0  0  1  0  0  0  0  0  0  0  0
    0.1314    2.9960    4.0109 O   0  0  0  1  0  0  0  0  0  0  0  0
   -0.0245    5.1437    3.2790 N   0  0  0  1  0  0  0  0  0  0  0  0
    0.7484    1.3425    1.3574 H   0  0  0  1  0  0  0  0  0  0  0  0
    2.3042    2.5853    1.5214 C   0  0  0  1  0  0  0  0  0  0  0  0
    0.0839    5.6535    4.6377 C   0  0  0  1  0  0  0  0  0  0  0  0
    3.3099    1.4716    1.3031 C   0  0  0  1  0  0  0  0  0  0  0  0
    2.7355    3.7218    1.7110 O   0  0  0  1  0  0  0  0  0  0  0  0
   -0.1353    5.7529    2.5194 H   0  0  0  1  0  0  0  0  0  0  0  0
    1.0332    5.3786    5.0477 H   0  0  0  1  0  0  0  0  0  0  0  0
   -0.6977    5.2370    5.2381 H   0  0  0  1  0  0  0  0  0  0  0  0
   -0.0041    6.7199    4.6263 H   0  0  0  1  0  0  0  0  0  0  0  0
    3.8023    1.6140    0.3639 H   0  0  0  1  0  0  0  0  0  0  0  0
    2.8031    0.5292    1.3006 H   0  0  0  1  0  0  0  0  0  0  0  0
    4.0338    1.4857    2.0909 H   0  0  0  1  0  0  0  0  0  0  0  0
   -5.4366    6.7396    0.9663 N   0  3  0  1  0  0  0  0  0  0  0  0
   -6.1088    6.9936    1.9149 O   0  0  0  1  0  0  0  0  0  0  0  0
   -5.5661    7.3566   -0.2161 O   0  5  0  1  0  0  0  0  0  0  0  0
   -4.4407    5.7246    1.0960 C   0  0  0  1  0  0  0  0  0  0  0  0
   -3.6520    5.4664   -0.0092 C   0  0  0  1  0  0  0  0  0  0  0  0
   -2.6640    4.4962    0.0555 C   0  0  0  1  0  0  0  0  0  0  0  0
   -2.4712    3.7833    1.2238 C   0  0  0  1  0  0  0  0  0  0  0  0
   -3.2622    4.0421    2.3324 C   0  0  0  1  0  0  0  0  0  0  0  0
   -4.2472    5.0095    2.2676 C   0  0  0  1  0  0  0  0  0  0  0  0
   -1.3988    2.7219    1.2934 C   0  0  0  1  0  0  0  0  0  0  0  0
   -3.7998    6.0000   -0.8896 H   0  0  0  1  0  0  0  0  0  0  0  0
   -2.0679    4.3047   -0.7749 H   0  0  0  1  0  0  0  0  0  0  0  0
   -3.1144    3.5085    3.2127 H   0  0  0  1  0  0  0  0  0  0  0  0
   -4.8432    5.2009    3.0981 H   0  0  0  1  0  0  0  0  0  0  0  0
   -1.6844    1.9967    2.0265 H   0  0  0  1  0  0  0  0  0  0  0  0
   -1.3231    2.2510    0.3356 H   0  0  0  1  0  0  0  0  0  0  0  0
  1  4  1  0  0  0  0
  2  4  1  0  0  0  0
  2  5  2  0  0  0  0
  2  6  1  0  0  0  0
  3  4  1  0  0  0  0
  3  7  1  0  0  0  0
  3  8  1  0  0  0  0
  4 28  1  0  0  0  0
  6  9  1  0  0  0  0
  6 12  1  0  0  0  0
  8 10  1  0  0  0  0
  8 11  2  0  0  0  0
  9 13  1  0  0  0  0
  9 14  1  0  0  0  0
  9 15  1  0  0  0  0
 10 16  1  0  0  0  0
 10 17  1  0  0  0  0
 10 18  1  0  0  0  0
 19 20  2  0  0  0  0
 19 21  1  0  0  0  0
 19 22  1  0  0  0  0
 22 23  4  0  0  0  0
 22 27  4  0  0  0  0
 23 24  4  0  0  0  0
 23 29  1  0  0  0  0
 24 25  4  0  0  0  0
 24 30  1  0  0  0  0
 25 26  4  0  0  0  0
 25 28  1  0  0  0  0
 26 27  4  0  0  0  0
 26 31  1  0  0  0  0
 27 32  1  0  0  0  0
 28 33  1  0  0  0  0
 28 34  1  0  0  0  0
M  END
> <BCLConfClusterSize>
1

> <ConfClashScore>
0 

> <ConfOneFourInteractionScore>
-0.985807 

> <ConfScore>
-0.0535507 

> <ConfScorePBest>
0.00504272 

> <ConfTolerance>
0.254372 

> <RosettaParamsInstructions>
M  ROOT 3
M  POLY_N_BB 3
M  POLY_CA_BB 4
M  POLY_C_BB 2
M  POLY_O_BB 5
M  POLY_IGNORE 9 10 11 12 13 14 15 16 17 18 
M  POLY_UPPER 6
M  POLY_LOWER 8
M  POLY_CHG 0
M  POLY_PROPERTIES ALPHA_AA L_AA PROTEIN AROMATIC POLYMER 
M  END

$$$$



 34 34  0  0  0  0  0  0  0  0999 V2000
   -2.7082    1.4948    0.1591 H   0  0  0  1  0  0  0  0  0  0  0  0
   -0.7848    0.6104    0.0849 C   0  0  0  1  0  0  0  0  0  0  0  0
   -2.3528    0.5401    1.9589 N   0  0  0  1  0  0  0  0  0  0  0  0
   -1.8931    1.3428    0.8354 C   0  0  0  1  0  0  0  0  0  0  0  0
   -0.5121    0.8049   -1.0846 O   0  0  0  1  0  0  0  0  0  0  0  0
   -0.0969   -0.2904    0.7923 N   0  0  0  1  0  0  0  0  0  0  0  0
   -2.2963    0.8965    2.8700 H   0  0  0  1  0  0  0  0  0  0  0  0
   -2.8510   -0.6797    1.7510 C   0  0  0  1  0  0  0  0  0  0  0  0
    1.0730   -0.9705    0.2569 C   0  0  0  1  0  0  0  0  0  0  0  0
   -3.2106   -1.4792    2.9882 C   0  0  0  1  0  0  0  0  0  0  0  0
   -3.0876   -1.1128    0.6241 O   0  0  0  1  0  0  0  0  0  0  0  0
   -0.3904   -0.5004    1.7035 H   0  0  0  1  0  0  0  0  0  0  0  0
    1.7351   -1.2261    1.0576 H   0  0  0  1  0  0  0  0  0  0  0  0
    1.5777   -0.3241   -0.4303 H   0  0  0  1  0  0  0  0  0  0  0  0
    0.7663   -1.8614   -0.2502 H   0  0  0  1  0  0  0  0  0  0  0  0
   -4.0404   -1.0186    3.4824 H   0  0  0  1  0  0  0  0  0  0  0  0
   -2.3713   -1.5066    3.6513 H   0  0  0  1  0  0  0  0  0  0  0  0
   -3.4740   -2.4766    2.7040 H   0  0  0  1  0  0  0  0  0  0  0  0
   -5.4489    6.7492    0.9922 N   0  3  0  1  0  0  0  0  0  0  0  0
   -5.9659    7.0953    2.0066 O   0  0  0  1  0  0  0  0  0  0  0  0
   -5.7200    7.2155   -0.2345 O   0  5  0  1  0  0  0  0  0  0  0  0
   -4.4323    5.7325    1.0725 C   0  0  0  1  0  0  0  0  0  0  0  0
   -3.6229    5.4793   -0.0189 C   0  0  0  1  0  0  0  0  0  0  0  0
   -2.6402    4.5047    0.0581 C   0  0  0  1  0  0  0  0  0  0  0  0
   -2.4733    3.7825    1.2247 C   0  0  0  1  0  0  0  0  0  0  0  0
   -3.2850    4.0363    2.3193 C   0  0  0  1  0  0  0  0  0  0  0  0
   -4.2648    5.0080    2.2424 C   0  0  0  1  0  0  0  0  0  0  0  0
   -1.4066    2.7163    1.3075 C   0  0  0  1  0  0  0  0  0  0  0  0
   -3.7512    6.0200   -0.8980 H   0  0  0  1  0  0  0  0  0  0  0  0
   -2.0285    4.3169   -0.7618 H   0  0  0  1  0  0  0  0  0  0  0  0
   -3.1567    3.4956    3.1984 H   0  0  0  1  0  0  0  0  0  0  0  0
   -4.8764    5.1958    3.0623 H   0  0  0  1  0  0  0  0  0  0  0  0
   -0.5800    3.0134    0.6964 H   0  0  0  1  0  0  0  0  0  0  0  0
   -1.0866    2.6330    2.3252 H   0  0  0  1  0  0  0  0  0  0  0  0
  1  4  1  0  0  0  0
  2  4  1  0  0  0  0
  2  5  2  0  0  0  0
  2  6  1  0  0  0  0
  3  4  1  0  0  0  0
  3  7  1  0  0  0  0
  3  8  1  0  0  0  0
  4 28  1  0  0  0  0
  6  9  1  0  0  0  0
  6 12  1  0  0  0  0
  8 10  1  0  0  0  0
  8 11  2  0  0  0  0
  9 13  1  0  0  0  0
  9 14  1  0  0  0  0
  9 15  1  0  0  0  0
 10 16  1  0  0  0  0
 10 17  1  0  0  0  0
 10 18  1  0  0  0  0
 19 20  2  0  0  0  0
 19 21  1  0  0  0  0
 19 22  1  0  0  0  0
 22 23  4  0  0  0  0
 22 27  4  0  0  0  0
 23 24  4  0  0  0  0
 23 29  1  0  0  0  0
 24 25  4  0  0  0  0
 24 30  1  0  0  0  0
 25 26  4  0  0  0  0
 25 28  1  0  0  0  0
 26 27  4  0  0  0  0
 26 31  1  0  0  0  0
 27 32  1  0  0  0  0
 28 33  1  0  0  0  0
 28 34  1  0  0  0  0
M  END
> <BCLConfClusterSize>
1

> <ConfClashScore>
0 

> <ConfOneFourInteractionScore>
-0.948834 

> <ConfScore>
-0.0535479 

> <ConfScorePBest>
0.00501424 

> <ConfTolerance>
0.439885 

> <RosettaParamsInstructions>
M  ROOT 3
M  POLY_N_BB 3
M  POLY_CA_BB 4
M  POLY_C_BB 2
M  POLY_O_BB 5
M  POLY_IGNORE 9 10 11 12 13 14 15 16 17 18 
M  POLY_UPPER 6
M  POLY_LOWER 8
M  POLY_CHG 0
M  POLY_PROPERTIES ALPHA_AA L_AA PROTEIN AROMATIC POLYMER 
M  END

$$$$



 34 34  0  0  0  0  0  0  0  0999 V2000
    0.2600    3.9295    1.0515 H   0  0  0  1  0  0  0  0  0  0  0  0
   -0.0269    3.5609    3.1252 C   0  0  0  1  0  0  0  0  0  0  0  0
    0.8901    1.9966    1.4734 N   0  0  0  1  0  0  0  0  0  0  0  0
   -0.0309    3.1061    1.6698 C   0  0  0  1  0  0  0  0  0  0  0  0
   -0.5008    2.8581    4.0139 O   0  0  0  1  0  0  0  0  0  0  0  0
    0.5198    4.7576    3.3577 N   0  0  0  1  0  0  0  0  0  0  0  0
    0.5255    1.1078    1.2799 H   0  0  0  1  0  0  0  0  0  0  0  0
    2.2155    2.1476    1.5477 C   0  0  0  1  0  0  0  0  0  0  0  0
    0.5450    5.3563    4.6840 C   0  0  0  1  0  0  0  0  0  0  0  0
    3.0375    0.9095    1.2463 C   0  0  0  1  0  0  0  0  0  0  0  0
    2.7528    3.2149    1.8403 O   0  0  0  1  0  0  0  0  0  0  0  0
    0.9176    5.2494    2.6092 H   0  0  0  1  0  0  0  0  0  0  0  0
    0.9437    4.6536    5.3855 H   0  0  0  1  0  0  0  0  0  0  0  0
   -0.4499    5.6234    4.9734 H   0  0  0  1  0  0  0  0  0  0  0  0
    1.1596    6.2320    4.6681 H   0  0  0  1  0  0  0  0  0  0  0  0
    3.8351    0.8291    1.9550 H   0  0  0  1  0  0  0  0  0  0  0  0
    3.4439    0.9830    0.2592 H   0  0  0  1  0  0  0  0  0  0  0  0
    2.4135    0.0427    1.3121 H   0  0  0  1  0  0  0  0  0  0  0  0
   -5.4573    6.7352    0.9196 N   0  3  0  1  0  0  0  0  0  0  0  0
   -5.9745    7.3636    0.0514 O   0  0  0  1  0  0  0  0  0  0  0  0
   -5.8070    6.8692    2.2062 O   0  5  0  1  0  0  0  0  0  0  0  0
   -4.4223    5.7365    0.9894 C   0  0  0  1  0  0  0  0  0  0  0  0
   -3.6200    5.4288   -0.0932 C   0  0  0  1  0  0  0  0  0  0  0  0
   -2.6335    4.4625    0.0274 C   0  0  0  1  0  0  0  0  0  0  0  0
   -2.4557    3.8029    1.2290 C   0  0  0  1  0  0  0  0  0  0  0  0
   -3.2603    4.1113    2.3148 C   0  0  0  1  0  0  0  0  0  0  0  0
   -4.2438    5.0748    2.1943 C   0  0  0  1  0  0  0  0  0  0  0  0
   -1.4409    2.6857    1.2885 C   0  0  0  1  0  0  0  0  0  0  0  0
   -3.7565    5.9223   -0.9984 H   0  0  0  1  0  0  0  0  0  0  0  0
   -2.0272    4.2338   -0.7860 H   0  0  0  1  0  0  0  0  0  0  0  0
   -3.1238    3.6178    3.2200 H   0  0  0  1  0  0  0  0  0  0  0  0
   -4.8501    5.3034    3.0078 H   0  0  0  1  0  0  0  0  0  0  0  0
   -1.7787    1.9710    2.0095 H   0  0  0  1  0  0  0  0  0  0  0  0
   -1.3986    2.2264    0.3230 H   0  0  0  1  0  0  0  0  0  0  0  0
  1  4  1  0  0  0  0
  2  4  1  0  0  0  0
  2  5  2  0  0  0  0
  2  6  1  0  0  0  0
  3  4  1  0  0  0  0
  3  7  1  0  0  0  0
  3  8  1  0  0  0  0
  4 28  1  0  0  0  0
  6  9  1  0  0  0  0
  6 12  1  0  0  0  0
  8 10  1  0  0  0  0
  8 11  2  0  0  0  0
  9 13  1  0  0  0  0
  9 14  1  0  0  0  0
  9 15  1  0  0  0  0
 10 16  1  0  0  0  0
 10 17  1  0  0  0  0
 10 18  1  0  0  0  0
 19 20  2  0  0  0  0
 19 21  1  0  0  0  0
 19 22  1  0  0  0  0
 22 23  4  0  0  0  0
 22 27  4  0  0  0  0
 23 24  4  0  0  0  0
 23 29  1  0  0  0  0
 24 25  4  0  0  0  0
 24 30  1  0  0  0  0
 25 26  4  0  0  0  0
 25 28  1  0  0  0  0
 26 27  4  0  0  0  0
 26 31  1  0  0  0  0
 27 32  1  0  0  0  0
 28 33  1  0  0  0  0
 28 34  1  0  0  0  0
M  END
> <BCLConfClusterSize>
1

> <ConfClashScore>
0 

> <ConfOneFourInteractionScore>
-0.971454 

> <ConfScore>
-0.0532552 

> <ConfScorePBest>
0.00498576 

> <ConfTolerance>
0.318071 

> <RosettaParamsInstructions>
M  ROOT 3
M  POLY_N_BB 3
M  POLY_CA_BB 4
M  POLY_C_BB 2
M  POLY_O_BB 5
M  POLY_IGNORE 9 10 11 12 13 14 15 16 17 18 
M  POLY_UPPER 6
M  POLY_LOWER 8
M  POLY_CHG 0
M  POLY_PROPERTIES ALPHA_AA L_AA PROTEIN AROMATIC POLYMER 
M  END

$$$$



 34 34  0  0  0  0  0  0  0  0999 V2000
   -0.9078    2.9630    3.4118 H   0  0  0  1  0  0  0  0  0  0  0  0
    0.7846    2.1373    2.4634 C   0  0  0  1  0  0  0  0  0  0  0  0
    0.0962    4.4549    2.4139 N   0  0  0  1  0  0  0  0  0  0  0  0
   -0.4139    3.0896    2.4711 C   0  0  0  1  0  0  0  0  0  0  0  0
    1.5100    2.0439    1.4741 O   0  0  0  1  0  0  0  0  0  0  0  0
    1.0192    1.4091    3.5665 N   0  0  0  1  0  0  0  0  0  0  0  0
    0.4824    4.7981    1.5811 H   0  0  0  1  0  0  0  0  0  0  0  0
    0.0378    5.2419    3.4990 C   0  0  0  1  0  0  0  0  0  0  0  0
    2.1481    0.4966    3.6702 C   0  0  0  1  0  0  0  0  0  0  0  0
    0.5053    6.6664    3.3032 C   0  0  0  1  0  0  0  0  0  0  0  0
   -0.3666    4.8481    4.5898 O   0  0  0  1  0  0  0  0  0  0  0  0
    0.4089    1.4950    4.3285 H   0  0  0  1  0  0  0  0  0  0  0  0
    2.6265    0.6266    4.6184 H   0  0  0  1  0  0  0  0  0  0  0  0
    2.8470    0.7040    2.8870 H   0  0  0  1  0  0  0  0  0  0  0  0
    1.8009   -0.5115    3.5814 H   0  0  0  1  0  0  0  0  0  0  0  0
    0.5490    7.1614    4.2508 H   0  0  0  1  0  0  0  0  0  0  0  0
   -0.1800    7.1816    2.6631 H   0  0  0  1  0  0  0  0  0  0  0  0
    1.4779    6.6641    2.8571 H   0  0  0  1  0  0  0  0  0  0  0  0
   -5.4414    6.7461    0.9398 N   0  3  0  1  0  0  0  0  0  0  0  0
   -5.7017    7.1804   -0.1371 O   0  0  0  1  0  0  0  0  0  0  0  0
   -6.0445    7.1534    2.0649 O   0  5  0  1  0  0  0  0  0  0  0  0
   -4.4254    5.7304    1.0377 C   0  0  0  1  0  0  0  0  0  0  0  0
   -3.6396    5.4334   -0.0599 C   0  0  0  1  0  0  0  0  0  0  0  0
   -2.6574    4.4596    0.0339 C   0  0  0  1  0  0  0  0  0  0  0  0
   -2.4675    3.7821    1.2235 C   0  0  0  1  0  0  0  0  0  0  0  0
   -3.2555    4.0799    2.3243 C   0  0  0  1  0  0  0  0  0  0  0  0
   -4.2347    5.0508    2.2307 C   0  0  0  1  0  0  0  0  0  0  0  0
   -1.4178    2.7080    1.3840 C   0  0  0  1  0  0  0  0  0  0  0  0
   -3.7852    5.9404   -0.9561 H   0  0  0  1  0  0  0  0  0  0  0  0
   -2.0635    4.2390   -0.7908 H   0  0  0  1  0  0  0  0  0  0  0  0
   -3.1099    3.5729    3.2206 H   0  0  0  1  0  0  0  0  0  0  0  0
   -4.8287    5.2714    3.0554 H   0  0  0  1  0  0  0  0  0  0  0  0
   -1.8947    1.7890    1.6539 H   0  0  0  1  0  0  0  0  0  0  0  0
   -0.8996    2.5825    0.4563 H   0  0  0  1  0  0  0  0  0  0  0  0
  1  4  1  0  0  0  0
  2  4  1  0  0  0  0
  2  5  2  0  0  0  0
  2  6  1  0  0  0  0
  3  4  1  0  0  0  0
  3  7  1  0  0  0  0
  3  8  1  0  0  0  0
  4 28  1  0  0  0  0
  6  9  1  0  0  0  0
  6 12  1  0  0  0  0
  8 10  1  0  0  0  0
  8 11  2  0  0  0  0
  9 13  1  0  0  0  0
  9 14  1  0  0  0  0
  9 15  1  0  0  0  0
 10 16  1  0  0  0  0
 10 17  1  0  0  0  0
 10 18  1  0  0  0  0
 19 20  2  0  0  0  0
 19 21  1  0  0  0  0
 19 22  1  0  0  0  0
 22 23  4  0  0  0  0
 22 27  4  0  0  0  0
 23 24  4  0  0  0  0
 23 29  1  0  0  0  0
 24 25  4  0  0  0  0
 24 30  1  0  0  0  0
 25 26  4  0  0  0  0
 25 28  1  0  0  0  0
 26 27  4  0  0  0  0
 26 31  1  0  0  0  0
 27 32  1  0  0  0  0
 28 33  1  0  0  0  0
 28 34  1  0  0  0  0
M  END
> <BCLConfClusterSize>
1

> <ConfClashScore>
0 

> <ConfOneFourInteractionScore>
-0.990503 

> <ConfScore>
-0.0515141 

> <ConfScorePBest>
0.00495728 

> <ConfTolerance>
0.389486 

> <RosettaParamsInstructions>
M  ROOT 3
M  POLY_N_BB 3
M  POLY_CA_BB 4
M  POLY_C_BB 2
M  POLY_O_BB 5
M  POLY_IGNORE 9 10 11 12 13 14 15 16 17 18 
M  POLY_UPPER 6
M  POLY_LOWER 8
M  POLY_CHG 0
M  POLY_PROPERTIES ALPHA_AA L_AA PROTEIN AROMATIC POLYMER 
M  END

$$$$



 34 34  0  0  0  0  0  0  0  0999 V2000
   -2.7570    1.0418    1.6333 H   0  0  0  1  0  0  0  0  0  0  0  0
   -2.6845    1.3081   -0.4490 C   0  0  0  1  0  0  0  0  0  0  0  0
   -0.9522    0.2910    0.9931 N   0  0  0  1  0  0  0  0  0  0  0  0
   -2.0093    1.2877    0.9085 C   0  0  0  1  0  0  0  0  0  0  0  0
   -3.8964    1.4041   -0.5519 O   0  0  0  1  0  0  0  0  0  0  0  0
   -1.8660    1.2144   -1.5089 N   0  0  0  1  0  0  0  0  0  0  0  0
   -0.0490    0.6055    1.2065 H   0  0  0  1  0  0  0  0  0  0  0  0
   -1.1222   -1.0334    0.7999 C   0  0  0  1  0  0  0  0  0  0  0  0
   -2.4095    1.2603   -2.8581 C   0  0  0  1  0  0  0  0  0  0  0  0
    0.1126   -1.9126    0.7631 C   0  0  0  1  0  0  0  0  0  0  0  0
   -2.2449   -1.5160    0.6575 O   0  0  0  1  0  0  0  0  0  0  0  0
   -0.9005    1.1148   -1.3738 H   0  0  0  1  0  0  0  0  0  0  0  0
   -1.7232    1.7689   -3.5025 H   0  0  0  1  0  0  0  0  0  0  0  0
   -3.3434    1.7826   -2.8486 H   0  0  0  1  0  0  0  0  0  0  0  0
   -2.5616    0.2632   -3.2153 H   0  0  0  1  0  0  0  0  0  0  0  0
    0.9132   -1.3844    0.2888 H   0  0  0  1  0  0  0  0  0  0  0  0
   -0.1013   -2.8047    0.2123 H   0  0  0  1  0  0  0  0  0  0  0  0
    0.3974   -2.1693    1.7620 H   0  0  0  1  0  0  0  0  0  0  0  0
   -5.4314    6.7607    0.9881 N   0  3  0  1  0  0  0  0  0  0  0  0
   -5.1179    7.8500    0.6259 O   0  0  0  1  0  0  0  0  0  0  0  0
   -6.6914    6.4015    1.2690 O   0  5  0  1  0  0  0  0  0  0  0  0
   -4.4065    5.7504    1.0398 C   0  0  0  1  0  0  0  0  0  0  0  0
   -3.5340    5.5306   -0.0093 C   0  0  0  1  0  0  0  0  0  0  0  0
   -2.5609    4.5486    0.0924 C   0  0  0  1  0  0  0  0  0  0  0  0
   -2.4667    3.7857    1.2411 C   0  0  0  1  0  0  0  0  0  0  0  0
   -3.3417    4.0060    2.2933 C   0  0  0  1  0  0  0  0  0  0  0  0
   -4.3119    4.9851    2.1917 C   0  0  0  1  0  0  0  0  0  0  0  0
   -1.4617    2.6585    1.2708 C   0  0  0  1  0  0  0  0  0  0  0  0
   -3.6075    6.1020   -0.8752 H   0  0  0  1  0  0  0  0  0  0  0  0
   -1.9018    4.3860   -0.6955 H   0  0  0  1  0  0  0  0  0  0  0  0
   -3.2682    3.4346    3.1592 H   0  0  0  1  0  0  0  0  0  0  0  0
   -4.9710    5.1478    2.9796 H   0  0  0  1  0  0  0  0  0  0  0  0
   -0.6800    2.8950    0.5795 H   0  0  0  1  0  0  0  0  0  0  0  0
   -1.0584    2.6019    2.2603 H   0  0  0  1  0  0  0  0  0  0  0  0
  1  4  1  0  0  0  0
  2  4  1  0  0  0  0
  2  5  2  0  0  0  0
  2  6  1  0  0  0  0
  3  4  1  0  0  0  0
  3  7  1  0  0  0  0
  3  8  1  0  0  0  0
  4 28  1  0  0  0  0
  6  9  1  0  0  0  0
  6 12  1  0  0  0  0
  8 10  1  0  0  0  0
  8 11  2  0  0  0  0
  9 13  1  0  0  0  0
  9 14  1  0  0  0  0
  9 15  1  0  0  0  0
 10 16  1  0  0  0  0
 10 17  1  0  0  0  0
 10 18  1  0  0  0  0
 19 20  2  0  0  0  0
 19 21  1  0  0  0  0
 19 22  1  0  0  0  0
 22 23  4  0  0  0  0
 22 27  4  0  0  0  0
 23 24  4  0  0  0  0
 23 29  1  0  0  0  0
 24 25  4  0  0  0  0
 24 30  1  0  0  0  0
 25 26  4  0  0  0  0
 25 28  1  0  0  0  0
 26 27  4  0  0  0  0
 26 31  1  0  0  0  0
 27 32  1  0  0  0  0
 28 33  1  0  0  0  0
 28 34  1  0  0  0  0
M  END
> <BCLConfClusterSize>
1

> <ConfClashScore>
0 

> <ConfOneFourInteractionScore>
-0.960318 

> <ConfScore>
-0.0493818 

> <ConfScorePBest>
0.0049288 

> <ConfTolerance>
0.449463 

> <RosettaParamsInstructions>
M  ROOT 3
M  POLY_N_BB 3
M  POLY_CA_BB 4
M  POLY_C_BB 2
M  POLY_O_BB 5
M  POLY_IGNORE 9 10 11 12 13 14 15 16 17 18 
M  POLY_UPPER 6
M  POLY_LOWER 8
M  POLY_CHG 0
M  POLY_PROPERTIES ALPHA_AA L_AA PROTEIN AROMATIC POLYMER 
M  END

$$$$



 34 34  0  0  0  0  0  0  0  0999 V2000
   -2.5929    1.0100    1.7557 H   0  0  0  1  0  0  0  0  0  0  0  0
   -2.7455    1.4148   -0.3127 C   0  0  0  1  0  0  0  0  0  0  0  0
   -0.8540    0.3400    0.8770 N   0  0  0  1  0  0  0  0  0  0  0  0
   -1.9278    1.3173    0.9759 C   0  0  0  1  0  0  0  0  0  0  0  0
   -2.2451    1.1769   -1.3996 O   0  0  0  1  0  0  0  0  0  0  0  0
   -4.0300    1.7748   -0.1624 N   0  0  0  1  0  0  0  0  0  0  0  0
    0.0724    0.6436    0.9765 H   0  0  0  1  0  0  0  0  0  0  0  0
   -1.0896   -0.9694    0.6531 C   0  0  0  1  0  0  0  0  0  0  0  0
   -4.9004    2.0421   -1.2977 C   0  0  0  1  0  0  0  0  0  0  0  0
    0.1013   -1.8777    0.4161 C   0  0  0  1  0  0  0  0  0  0  0  0
   -2.2359   -1.4160    0.6411 O   0  0  0  1  0  0  0  0  0  0  0  0
   -4.3943    1.8606    0.7433 H   0  0  0  1  0  0  0  0  0  0  0  0
   -4.4256    2.7401   -1.9552 H   0  0  0  1  0  0  0  0  0  0  0  0
   -5.8249    2.4527   -0.9492 H   0  0  0  1  0  0  0  0  0  0  0  0
   -5.0905    1.1298   -1.8236 H   0  0  0  1  0  0  0  0  0  0  0  0
    0.5706   -2.1025    1.3510 H   0  0  0  1  0  0  0  0  0  0  0  0
    0.8023   -1.3860   -0.2255 H   0  0  0  1  0  0  0  0  0  0  0  0
   -0.2288   -2.7853   -0.0444 H   0  0  0  1  0  0  0  0  0  0  0  0
   -5.4375    6.7557    0.9374 N   0  3  0  1  0  0  0  0  0  0  0  0
   -5.5017    7.3719   -0.0786 O   0  0  0  1  0  0  0  0  0  0  0  0
   -6.2220    6.9156    2.0119 O   0  5  0  1  0  0  0  0  0  0  0  0
   -4.4251    5.7367    1.0388 C   0  0  0  1  0  0  0  0  0  0  0  0
   -3.6164    5.4580   -0.0469 C   0  0  0  1  0  0  0  0  0  0  0  0
   -2.6377    4.4811    0.0503 C   0  0  0  1  0  0  0  0  0  0  0  0
   -2.4742    3.7821    1.2314 C   0  0  0  1  0  0  0  0  0  0  0  0
   -3.2852    4.0615    2.3203 C   0  0  0  1  0  0  0  0  0  0  0  0
   -4.2609    5.0355    2.2232 C   0  0  0  1  0  0  0  0  0  0  0  0
   -1.4119    2.7135    1.3363 C   0  0  0  1  0  0  0  0  0  0  0  0
   -3.7422    5.9812   -0.9369 H   0  0  0  1  0  0  0  0  0  0  0  0
   -2.0266    4.2742   -0.7654 H   0  0  0  1  0  0  0  0  0  0  0  0
   -3.1594    3.5383    3.2103 H   0  0  0  1  0  0  0  0  0  0  0  0
   -4.8720    5.2424    3.0389 H   0  0  0  1  0  0  0  0  0  0  0  0
   -0.6113    2.9628    0.6717 H   0  0  0  1  0  0  0  0  0  0  0  0
   -1.0478    2.6928    2.3422 H   0  0  0  1  0  0  0  0  0  0  0  0
  1  4  1  0  0  0  0
  2  4  1  0  0  0  0
  2  5  2  0  0  0  0
  2  6  1  0  0  0  0
  3  4  1  0  0  0  0
  3  7  1  0  0  0  0
  3  8  1  0  0  0  0
  4 28  1  0  0  0  0
  6  9  1  0  0  0  0
  6 12  1  0  0  0  0
  8 10  1  0  0  0  0
  8 11  2  0  0  0  0
  9 13  1  0  0  0  0
  9 14  1  0  0  0  0
  9 15  1  0  0  0  0
 10 16  1  0  0  0  0
 10 17  1  0  0  0  0
 10 18  1  0  0  0  0
 19 20  2  0  0  0  0
 19 21  1  0  0  0  0
 19 22  1  0  0  0  0
 22 23  4  0  0  0  0
 22 27  4  0  0  0  0
 23 24  4  0  0  0  0
 23 29  1  0  0  0  0
 24 25  4  0  0  0  0
 24 30  1  0  0  0  0
 25 26  4  0  0  0  0
 25 28  1  0  0  0  0
 26 27  4  0  0  0  0
 26 31  1  0  0  0  0
 27 32  1  0  0  0  0
 28 33  1  0  0  0  0
 28 34  1  0  0  0  0
M  END
> <BCLConfClusterSize>
1

> <ConfClashScore>
0 

> <ConfOneFourInteractionScore>
-0.985807 

> <ConfScore>
-0.0423943 

> <ConfScorePBest>
0.00490032 

> <ConfTolerance>
0.372753 

> <RosettaParamsInstructions>
M  ROOT 3
M  POLY_N_BB 3
M  POLY_CA_BB 4
M  POLY_C_BB 2
M  POLY_O_BB 5
M  POLY_IGNORE 9 10 11 12 13 14 15 16 17 18 
M  POLY_UPPER 6
M  POLY_LOWER 8
M  POLY_CHG 0
M  POLY_PROPERTIES ALPHA_AA L_AA PROTEIN AROMATIC POLYMER 
M  END

$$$$



 34 34  0  0  0  0  0  0  0  0999 V2000
    0.0723    3.8073    0.1427 H   0  0  0  1  0  0  0  0  0  0  0  0
    0.2683    4.2985    2.2037 C   0  0  0  1  0  0  0  0  0  0  0  0
    1.0258    2.2583    1.1611 N   0  0  0  1  0  0  0  0  0  0  0  0
    0.0175    3.3050    1.0859 C   0  0  0  1  0  0  0  0  0  0  0  0
    0.1300    3.9800    3.3839 O   0  0  0  1  0  0  0  0  0  0  0  0
    0.6451    5.5278    1.8176 N   0  0  0  1  0  0  0  0  0  0  0  0
    1.0739    1.7341    1.9877 H   0  0  0  1  0  0  0  0  0  0  0  0
    1.8993    1.9553    0.1785 C   0  0  0  1  0  0  0  0  0  0  0  0
    0.7255    6.6441    2.7478 C   0  0  0  1  0  0  0  0  0  0  0  0
    2.8312    0.7781    0.3912 C   0  0  0  1  0  0  0  0  0  0  0  0
    1.9404    2.6119   -0.8586 O   0  0  0  1  0  0  0  0  0  0  0  0
    0.8741    5.6786    0.8768 H   0  0  0  1  0  0  0  0  0  0  0  0
    0.7629    6.2719    3.7502 H   0  0  0  1  0  0  0  0  0  0  0  0
   -0.1360    7.2680    2.6311 H   0  0  0  1  0  0  0  0  0  0  0  0
    1.6087    7.2134    2.5458 H   0  0  0  1  0  0  0  0  0  0  0  0
    3.7066    0.9022   -0.2114 H   0  0  0  1  0  0  0  0  0  0  0  0
    2.3320   -0.1264    0.1127 H   0  0  0  1  0  0  0  0  0  0  0  0
    3.1125    0.7280    1.4223 H   0  0  0  1  0  0  0  0  0  0  0  0
   -5.4516    6.7399    0.9832 N   0  3  0  1  0  0  0  0  0  0  0  0
   -6.1977    6.8692    1.9011 O   0  0  0  1  0  0  0  0  0  0  0  0
   -5.5102    7.4890   -0.1264 O   0  5  0  1  0  0  0  0  0  0  0  0
   -4.4333    5.7255    1.0703 C   0  0  0  1  0  0  0  0  0  0  0  0
   -3.6461    5.4426   -0.0299 C   0  0  0  1  0  0  0  0  0  0  0  0
   -2.6617    4.4702    0.0535 C   0  0  0  1  0  0  0  0  0  0  0  0
   -2.4711    3.7797    1.2356 C   0  0  0  1  0  0  0  0  0  0  0  0
   -3.2605    4.0633    2.3391 C   0  0  0  1  0  0  0  0  0  0  0  0
   -4.2419    5.0329    2.2557 C   0  0  0  1  0  0  0  0  0  0  0  0
   -1.3889    2.7266    1.2702 C   0  0  0  1  0  0  0  0  0  0  0  0
   -3.7923    5.9594   -0.9205 H   0  0  0  1  0  0  0  0  0  0  0  0
   -2.0667    4.2602   -0.7732 H   0  0  0  1  0  0  0  0  0  0  0  0
   -3.1143    3.5465    3.2297 H   0  0  0  1  0  0  0  0  0  0  0  0
   -4.8369    5.2429    3.0825 H   0  0  0  1  0  0  0  0  0  0  0  0
   -1.4303    2.2266    2.2153 H   0  0  0  1  0  0  0  0  0  0  0  0
   -1.5732    2.0229    0.4855 H   0  0  0  1  0  0  0  0  0  0  0  0
  1  4  1  0  0  0  0
  2  4  1  0  0  0  0
  2  5  2  0  0  0  0
  2  6  1  0  0  0  0
  3  4  1  0  0  0  0
  3  7  1  0  0  0  0
  3  8  1  0  0  0  0
  4 28  1  0  0  0  0
  6  9  1  0  0  0  0
  6 12  1  0  0  0  0
  8 10  1  0  0  0  0
  8 11  2  0  0  0  0
  9 13  1  0  0  0  0
  9 14  1  0  0  0  0
  9 15  1  0  0  0  0
 10 16  1  0  0  0  0
 10 17  1  0  0  0  0
 10 18  1  0  0  0  0
 19 20  2  0  0  0  0
 19 21  1  0  0  0  0
 19 22  1  0  0  0  0
 22 23  4  0  0  0  0
 22 27  4  0  0  0  0
 23 24  4  0  0  0  0
 23 29  1  0  0  0  0
 24 25  4  0  0  0  0
 24 30  1  0  0  0  0
 25 26  4  0  0  0  0
 25 28  1  0  0  0  0
 26 27  4  0  0  0  0
 26 31  1  0  0  0  0
 27 32  1  0  0  0  0
 28 33  1  0  0  0  0
 28 34  1  0  0  0  0
M  END
> <BCLConfClusterSize>
1

> <ConfClashScore>
0 

> <ConfOneFourInteractionScore>
-0.98383 

> <ConfScore>
-0.04166 

> <ConfScorePBest>
0.00487184 

> <ConfTolerance>
0.305821 

> <RosettaParamsInstructions>
M  ROOT 3
M  POLY_N_BB 3
M  POLY_CA_BB 4
M  POLY_C_BB 2
M  POLY_O_BB 5
M  POLY_IGNORE 9 10 11 12 13 14 15 16 17 18 
M  POLY_UPPER 6
M  POLY_LOWER 8
M  POLY_CHG 0
M  POLY_PROPERTIES ALPHA_AA L_AA PROTEIN AROMATIC POLYMER 
M  END

$$$$



 34 34  0  0  0  0  0  0  0  0999 V2000
   -0.2772    3.7482   -0.1679 H   0  0  0  1  0  0  0  0  0  0  0  0
    0.8052    1.9815    0.2966 C   0  0  0  1  0  0  0  0  0  0  0  0
   -1.2048    2.0921   -1.0013 N   0  0  0  1  0  0  0  0  0  0  0  0
   -0.5056    2.7377    0.0997 C   0  0  0  1  0  0  0  0  0  0  0  0
    0.8205    0.7623    0.4609 O   0  0  0  1  0  0  0  0  0  0  0  0
    1.9138    2.7270    0.2776 N   0  0  0  1  0  0  0  0  0  0  0  0
   -1.6238    1.2195   -0.8486 H   0  0  0  1  0  0  0  0  0  0  0  0
   -1.2954    2.6478   -2.2129 C   0  0  0  1  0  0  0  0  0  0  0  0
    3.2440    2.1445    0.3726 C   0  0  0  1  0  0  0  0  0  0  0  0
   -2.1402    1.8942   -3.2217 C   0  0  0  1  0  0  0  0  0  0  0  0
   -0.7410    3.6940   -2.5071 O   0  0  0  1  0  0  0  0  0  0  0  0
    1.8282    3.6999    0.1970 H   0  0  0  1  0  0  0  0  0  0  0  0
    3.2575    1.4098    1.1505 H   0  0  0  1  0  0  0  0  0  0  0  0
    3.9545    2.9128    0.5957 H   0  0  0  1  0  0  0  0  0  0  0  0
    3.4981    1.6824   -0.5584 H   0  0  0  1  0  0  0  0  0  0  0  0
   -1.7467    0.9076   -3.3510 H   0  0  0  1  0  0  0  0  0  0  0  0
   -2.1220    2.4108   -4.1586 H   0  0  0  1  0  0  0  0  0  0  0  0
   -3.1479    1.8324   -2.8674 H   0  0  0  1  0  0  0  0  0  0  0  0
   -5.4353    6.7541    0.9653 N   0  3  0  1  0  0  0  0  0  0  0  0
   -5.5309    7.4035   -0.0273 O   0  0  0  1  0  0  0  0  0  0  0  0
   -6.2256    6.9203    2.0346 O   0  5  0  1  0  0  0  0  0  0  0  0
   -4.4172    5.7371    1.0188 C   0  0  0  1  0  0  0  0  0  0  0  0
   -3.6061    5.4478   -0.0622 C   0  0  0  1  0  0  0  0  0  0  0  0
   -2.6367    4.4625    0.0425 C   0  0  0  1  0  0  0  0  0  0  0  0
   -2.4849    3.7657    1.2264 C   0  0  0  1  0  0  0  0  0  0  0  0
   -3.2983    4.0557    2.3107 C   0  0  0  1  0  0  0  0  0  0  0  0
   -4.2648    5.0381    2.2062 C   0  0  0  1  0  0  0  0  0  0  0  0
   -1.3671    2.7585    1.3589 C   0  0  0  1  0  0  0  0  0  0  0  0
   -3.7232    5.9695   -0.9543 H   0  0  0  1  0  0  0  0  0  0  0  0
   -2.0237    4.2477   -0.7698 H   0  0  0  1  0  0  0  0  0  0  0  0
   -3.1813    3.5342    3.2028 H   0  0  0  1  0  0  0  0  0  0  0  0
   -4.8777    5.2530    3.0184 H   0  0  0  1  0  0  0  0  0  0  0  0
   -0.7564    3.0204    2.1975 H   0  0  0  1  0  0  0  0  0  0  0  0
   -1.7872    1.7865    1.5126 H   0  0  0  1  0  0  0  0  0  0  0  0
  1  4  1  0  0  0  0
  2  4  1  0  0  0  0
  2  5  2  0  0  0  0
  2  6  1  0  0  0  0
  3  4  1  0  0  0  0
  3  7  1  0  0  0  0
  3  8  1  0  0  0  0
  4 28  1  0  0  0  0
  6  9  1  0  0  0  0
  6 12  1  0  0  0  0
  8 10  1  0  0  0  0
  8 11  2  0  0  0  0
  9 13  1  0  0  0  0
  9 14  1  0  0  0  0
  9 15  1  0  0  0  0
 10 16  1  0  0  0  0
 10 17  1  0  0  0  0
 10 18  1  0  0  0  0
 19 20  2  0  0  0  0
 19 21  1  0  0  0  0
 19 22  1  0  0  0  0
 22 23  4  0  0  0  0
 22 27  4  0  0  0  0
 23 24  4  0  0  0  0
 23 29  1  0  0  0  0
 24 25  4  0  0  0  0
 24 30  1  0  0  0  0
 25 26  4  0  0  0  0
 25 28  1  0  0  0  0
 26 27  4  0  0  0  0
 26 31  1  0  0  0  0
 27 32  1  0  0  0  0
 28 33  1  0  0  0  0
 28 34  1  0  0  0  0
M  END
> <BCLConfClusterSize>
1

> <ConfClashScore>
0 

> <ConfOneFourInteractionScore>
-0.96681 

> <ConfScore>
-0.0411699 

> <ConfScorePBest>
0.00484336 

> <ConfTolerance>
0.302569 

> <RosettaParamsInstructions>
M  ROOT 3
M  POLY_N_BB 3
M  POLY_CA_BB 4
M  POLY_C_BB 2
M  POLY_O_BB 5
M  POLY_IGNORE 9 10 11 12 13 14 15 16 17 18 
M  POLY_UPPER 6
M  POLY_LOWER 8
M  POLY_CHG 0
M  POLY_PROPERTIES ALPHA_AA L_AA PROTEIN AROMATIC POLYMER 
M  END

$$$$



 34 34  0  0  0  0  0  0  0  0999 V2000
    0.2217    4.0529    1.6604 H   0  0  0  1  0  0  0  0  0  0  0  0
    1.0150    2.1698    1.0982 C   0  0  0  1  0  0  0  0  0  0  0  0
    0.0149    3.8303   -0.3933 N   0  0  0  1  0  0  0  0  0  0  0  0
   -0.0059    3.2817    0.9545 C   0  0  0  1  0  0  0  0  0  0  0  0
    1.0468    1.4694    2.1089 O   0  0  0  1  0  0  0  0  0  0  0  0
    1.8795    1.9741    0.0926 N   0  0  0  1  0  0  0  0  0  0  0  0
   -0.5281    3.4011   -1.0871 H   0  0  0  1  0  0  0  0  0  0  0  0
    0.7485    4.8987   -0.7177 C   0  0  0  1  0  0  0  0  0  0  0  0
    2.9649    1.0084    0.1773 C   0  0  0  1  0  0  0  0  0  0  0  0
    0.6329    5.4136   -2.1527 C   0  0  0  1  0  0  0  0  0  0  0  0
    1.5510    5.4095    0.0626 O   0  0  0  1  0  0  0  0  0  0  0  0
    1.7769    2.4995   -0.7283 H   0  0  0  1  0  0  0  0  0  0  0  0
    3.6706    1.1947   -0.6051 H   0  0  0  1  0  0  0  0  0  0  0  0
    2.5707    0.0191    0.0737 H   0  0  0  1  0  0  0  0  0  0  0  0
    3.4515    1.1015    1.1257 H   0  0  0  1  0  0  0  0  0  0  0  0
   -0.3863    5.6637   -2.3614 H   0  0  0  1  0  0  0  0  0  0  0  0
    0.9596    4.6537   -2.8314 H   0  0  0  1  0  0  0  0  0  0  0  0
    1.2445    6.2838   -2.2695 H   0  0  0  1  0  0  0  0  0  0  0  0
   -5.4519    6.7396    0.9830 N   0  3  0  1  0  0  0  0  0  0  0  0
   -6.2078    6.8585    1.8943 O   0  0  0  1  0  0  0  0  0  0  0  0
   -5.4995    7.5003   -0.1191 O   0  5  0  1  0  0  0  0  0  0  0  0
   -4.4334    5.7253    1.0702 C   0  0  0  1  0  0  0  0  0  0  0  0
   -3.6474    5.4412   -0.0306 C   0  0  0  1  0  0  0  0  0  0  0  0
   -2.6629    4.4689    0.0530 C   0  0  0  1  0  0  0  0  0  0  0  0
   -2.4710    3.7798    1.2356 C   0  0  0  1  0  0  0  0  0  0  0  0
   -3.2592    4.0647    2.3397 C   0  0  0  1  0  0  0  0  0  0  0  0
   -4.2407    5.0341    2.2562 C   0  0  0  1  0  0  0  0  0  0  0  0
   -1.3887    2.7267    1.2703 C   0  0  0  1  0  0  0  0  0  0  0  0
   -3.7946    5.9569   -0.9216 H   0  0  0  1  0  0  0  0  0  0  0  0
   -2.0688    4.2579   -0.7742 H   0  0  0  1  0  0  0  0  0  0  0  0
   -3.1120    3.5489    3.2307 H   0  0  0  1  0  0  0  0  0  0  0  0
   -4.8348    5.2450    3.0834 H   0  0  0  1  0  0  0  0  0  0  0  0
   -1.3665    2.2934    2.2484 H   0  0  0  1  0  0  0  0  0  0  0  0
   -1.6252    1.9715    0.5503 H   0  0  0  1  0  0  0  0  0  0  0  0
  1  4  1  0  0  0  0
  2  4  1  0  0  0  0
  2  5  2  0  0  0  0
  2  6  1  0  0  0  0
  3  4  1  0  0  0  0
  3  7  1  0  0  0  0
  3  8  1  0  0  0  0
  4 28  1  0  0  0  0
  6  9  1  0  0  0  0
  6 12  1  0  0  0  0
  8 10  1  0  0  0  0
  8 11  2  0  0  0  0
  9 13  1  0  0  0  0
  9 14  1  0  0  0  0
  9 15  1  0  0  0  0
 10 16  1  0  0  0  0
 10 17  1  0  0  0  0
 10 18  1  0  0  0  0
 19 20  2  0  0  0  0
 19 21  1  0  0  0  0
 19 22  1  0  0  0  0
 22 23  4  0  0  0  0
 22 27  4  0  0  0  0
 23 24  4  0  0  0  0
 23 29  1  0  0  0  0
 24 25  4  0  0  0  0
 24 30  1  0  0  0  0
 25 26  4  0  0  0  0
 25 28  1  0  0  0  0
 26 27  4  0  0  0  0
 26 31  1  0  0  0  0
 27 32  1  0  0  0  0
 28 33  1  0  0  0  0
 28 34  1  0  0  0  0
M  END
> <BCLConfClusterSize>
1

> <ConfClashScore>
0 

> <ConfOneFourInteractionScore>
-0.956443 

> <ConfScore>
-0.0408761 

> <ConfScorePBest>
0.00481488 

> <ConfTolerance>
0.381859 

> <RosettaParamsInstructions>
M  ROOT 3
M  POLY_N_BB 3
M  POLY_CA_BB 4
M  POLY_C_BB 2
M  POLY_O_BB 5
M  POLY_IGNORE 9 10 11 12 13 14 15 16 17 18 
M  POLY_UPPER 6
M  POLY_LOWER 8
M  POLY_CHG 0
M  POLY_PROPERTIES ALPHA_AA L_AA PROTEIN AROMATIC POLYMER 
M  END

$$$$



 34 34  0  0  0  0  0  0  0  0999 V2000
   -2.0537    1.4461   -0.2775 H   0  0  0  1  0  0  0  0  0  0  0  0
   -0.8171    0.2847    0.9759 C   0  0  0  1  0  0  0  0  0  0  0  0
   -3.1507    1.0102    1.4083 N   0  0  0  1  0  0  0  0  0  0  0  0
   -1.8866    1.3560    0.7755 C   0  0  0  1  0  0  0  0  0  0  0  0
    0.2608    0.3471    0.3861 O   0  0  0  1  0  0  0  0  0  0  0  0
   -1.1795   -0.7410    1.7626 N   0  0  0  1  0  0  0  0  0  0  0  0
   -3.2639    1.1855    2.3658 H   0  0  0  1  0  0  0  0  0  0  0  0
   -4.1945    0.4448    0.7077 C   0  0  0  1  0  0  0  0  0  0  0  0
   -0.3306   -1.9186    1.8653 C   0  0  0  1  0  0  0  0  0  0  0  0
   -5.4385    0.1622    1.4982 C   0  0  0  1  0  0  0  0  0  0  0  0
   -4.0737    0.2052   -0.4789 O   0  0  0  1  0  0  0  0  0  0  0  0
   -2.0174   -0.6966    2.2688 H   0  0  0  1  0  0  0  0  0  0  0  0
    0.5412   -1.7843    1.2597 H   0  0  0  1  0  0  0  0  0  0  0  0
   -0.8708   -2.7779    1.5268 H   0  0  0  1  0  0  0  0  0  0  0  0
   -0.0381   -2.0593    2.8849 H   0  0  0  1  0  0  0  0  0  0  0  0
   -5.1737   -0.0815    2.5059 H   0  0  0  1  0  0  0  0  0  0  0  0
   -5.9612   -0.6612    1.0580 H   0  0  0  1  0  0  0  0  0  0  0  0
   -6.0677    1.0277    1.4944 H   0  0  0  1  0  0  0  0  0  0  0  0
   -5.4101    6.7659    0.9207 N   0  3  0  1  0  0  0  0  0  0  0  0
   -5.1310    7.7023    0.2414 O   0  0  0  1  0  0  0  0  0  0  0  0
   -6.5672    6.5741    1.5688 O   0  5  0  1  0  0  0  0  0  0  0  0
   -4.4292    5.7391    1.0702 C   0  0  0  1  0  0  0  0  0  0  0  0
   -3.5840    5.5102    0.0008 C   0  0  0  1  0  0  0  0  0  0  0  0
   -2.6072    4.5304    0.0866 C   0  0  0  1  0  0  0  0  0  0  0  0
   -2.4820    3.7787    1.2396 C   0  0  0  1  0  0  0  0  0  0  0  0
   -3.3296    4.0081    2.3122 C   0  0  0  1  0  0  0  0  0  0  0  0
   -4.3034    4.9851    2.2266 C   0  0  0  1  0  0  0  0  0  0  0  0
   -1.4050    2.7203    1.2778 C   0  0  0  1  0  0  0  0  0  0  0  0
   -3.6809    6.0732   -0.8683 H   0  0  0  1  0  0  0  0  0  0  0  0
   -1.9687    4.3609   -0.7167 H   0  0  0  1  0  0  0  0  0  0  0  0
   -3.2327    3.4452    3.1813 H   0  0  0  1  0  0  0  0  0  0  0  0
   -4.9419    5.1545    3.0298 H   0  0  0  1  0  0  0  0  0  0  0  0
   -0.5902    3.0412    0.6631 H   0  0  0  1  0  0  0  0  0  0  0  0
   -1.0694    2.6122    2.2880 H   0  0  0  1  0  0  0  0  0  0  0  0
  1  4  1  0  0  0  0
  2  4  1  0  0  0  0
  2  5  2  0  0  0  0
  2  6  1  0  0  0  0
  3  4  1  0  0  0  0
  3  7  1  0  0  0  0
  3  8  1  0  0  0  0
  4 28  1  0  0  0  0
  6  9  1  0  0  0  0
  6 12  1  0  0  0  0
  8 10  1  0  0  0  0
  8 11  2  0  0  0  0
  9 13  1  0  0  0  0
  9 14  1  0  0  0  0
  9 15  1  0  0  0  0
 10 16  1  0  0  0  0
 10 17  1  0  0  0  0
 10 18  1  0  0  0  0
 19 20  2  0  0  0  0
 19 21  1  0  0  0  0
 19 22  1  0  0  0  0
 22 23  4  0  0  0  0
 22 27  4  0  0  0  0
 23 24  4  0  0  0  0
 23 29  1  0  0  0  0
 24 25  4  0  0  0  0
 24 30  1  0  0  0  0
 25 26  4  0  0  0  0
 25 28  1  0  0  0  0
 26 27  4  0  0  0  0
 26 31  1  0  0  0  0
 27 32  1  0  0  0  0
 28 33  1  0  0  0  0
 28 34  1  0  0  0  0
M  END
> <BCLConfClusterSize>
1

> <ConfClashScore>
0 

> <ConfOneFourInteractionScore>
-0.94165 

> <ConfScore>
-0.0390771 

> <ConfScorePBest>
0.00478639 

> <ConfTolerance>
0.435078 

> <RosettaParamsInstructions>
M  ROOT 3
M  POLY_N_BB 3
M  POLY_CA_BB 4
M  POLY_C_BB 2
M  POLY_O_BB 5
M  POLY_IGNORE 9 10 11 12 13 14 15 16 17 18 
M  POLY_UPPER 6
M  POLY_LOWER 8
M  POLY_CHG 0
M  POLY_PROPERTIES ALPHA_AA L_AA PROTEIN AROMATIC POLYMER 
M  END

$$$$



 34 34  0  0  0  0  0  0  0  0999 V2000
    0.1827    4.0587    1.7362 H   0  0  0  1  0  0  0  0  0  0  0  0
    1.0256    2.1621    1.3383 C   0  0  0  1  0  0  0  0  0  0  0  0
    0.0840    3.7750   -0.3073 N   0  0  0  1  0  0  0  0  0  0  0  0
    0.0073    3.2565    1.0503 C   0  0  0  1  0  0  0  0  0  0  0  0
    1.2415    1.2892    0.4986 O   0  0  0  1  0  0  0  0  0  0  0  0
    1.7107    2.2608    2.4886 N   0  0  0  1  0  0  0  0  0  0  0  0
    0.0577    3.1270   -1.0420 H   0  0  0  1  0  0  0  0  0  0  0  0
    0.1909    5.1089   -0.6377 C   0  0  0  1  0  0  0  0  0  0  0  0
    2.8116    1.3496    2.7639 C   0  0  0  1  0  0  0  0  0  0  0  0
    0.1117    5.4308   -2.1015 C   0  0  0  1  0  0  0  0  0  0  0  0
    0.3397    5.9434    0.2349 O   0  0  0  1  0  0  0  0  0  0  0  0
    1.4690    2.9478    3.1443 H   0  0  0  1  0  0  0  0  0  0  0  0
    2.6844    0.4532    2.1937 H   0  0  0  1  0  0  0  0  0  0  0  0
    2.8237    1.1101    3.8067 H   0  0  0  1  0  0  0  0  0  0  0  0
    3.7361    1.8158    2.4938 H   0  0  0  1  0  0  0  0  0  0  0  0
    1.0402    5.8529   -2.4252 H   0  0  0  1  0  0  0  0  0  0  0  0
   -0.6772    6.1337   -2.2697 H   0  0  0  1  0  0  0  0  0  0  0  0
   -0.0842    4.5352   -2.6532 H   0  0  0  1  0  0  0  0  0  0  0  0
   -5.4485    6.7434    0.9870 N   0  3  0  1  0  0  0  0  0  0  0  0
   -6.0739    6.9952    1.9676 O   0  0  0  1  0  0  0  0  0  0  0  0
   -5.6423    7.3556   -0.1891 O   0  5  0  1  0  0  0  0  0  0  0  0
   -4.4308    5.7280    1.0697 C   0  0  0  1  0  0  0  0  0  0  0  0
   -3.6316    5.4621   -0.0262 C   0  0  0  1  0  0  0  0  0  0  0  0
   -2.6479    4.4886    0.0531 C   0  0  0  1  0  0  0  0  0  0  0  0
   -2.4698    3.7803    1.2264 C   0  0  0  1  0  0  0  0  0  0  0  0
   -3.2712    4.0468    2.3256 C   0  0  0  1  0  0  0  0  0  0  0  0
   -4.2520    5.0174    2.2464 C   0  0  0  1  0  0  0  0  0  0  0  0
   -1.4020    2.7154    1.3118 C   0  0  0  1  0  0  0  0  0  0  0  0
   -3.7684    5.9923   -0.9104 H   0  0  0  1  0  0  0  0  0  0  0  0
   -2.0439    4.2914   -0.7703 H   0  0  0  1  0  0  0  0  0  0  0  0
   -3.1345    3.5166    3.2097 H   0  0  0  1  0  0  0  0  0  0  0  0
   -4.8560    5.2146    3.0697 H   0  0  0  1  0  0  0  0  0  0  0  0
   -1.4259    2.2870    2.2919 H   0  0  0  1  0  0  0  0  0  0  0  0
   -1.6165    1.9591    0.5860 H   0  0  0  1  0  0  0  0  0  0  0  0
  1  4  1  0  0  0  0
  2  4  1  0  0  0  0
  2  5  2  0  0  0  0
  2  6  1  0  0  0  0
  3  4  1  0  0  0  0
  3  7  1  0  0  0  0
  3  8  1  0  0  0  0
  4 28  1  0  0  0  0
  6  9  1  0  0  0  0
  6 12  1  0  0  0  0
  8 10  1  0  0  0  0
  8 11  2  0  0  0  0
  9 13  1  0  0  0  0
  9 14  1  0  0  0  0
  9 15  1  0  0  0  0
 10 16  1  0  0  0  0
 10 17  1  0  0  0  0
 10 18  1  0  0  0  0
 19 20  2  0  0  0  0
 19 21  1  0  0  0  0
 19 22  1  0  0  0  0
 22 23  4  0  0  0  0
 22 27  4  0  0  0  0
 23 24  4  0  0  0  0
 23 29  1  0  0  0  0
 24 25  4  0  0  0  0
 24 30  1  0  0  0  0
 25 26  4  0  0  0  0
 25 28  1  0  0  0  0
 26 27  4  0  0  0  0
 26 31  1  0  0  0  0
 27 32  1  0  0  0  0
 28 33  1  0  0  0  0
 28 34  1  0  0  0  0
M  END
> <BCLConfClusterSize>
1

> <ConfClashScore>
0 

> <ConfOneFourInteractionScore>
-0.986627 

> <ConfScore>
-0.0360729 

> <ConfScorePBest>
0.00475791 

> <ConfTolerance>
0.514 

> <RosettaParamsInstructions>
M  ROOT 3
M  POLY_N_BB 3
M  POLY_CA_BB 4
M  POLY_C_BB 2
M  POLY_O_BB 5
M  POLY_IGNORE 9 10 11 12 13 14 15 16 17 18 
M  POLY_UPPER 6
M  POLY_LOWER 8
M  POLY_CHG 0
M  POLY_PROPERTIES ALPHA_AA L_AA PROTEIN AROMATIC POLYMER 
M  END

$$$$



 34 34  0  0  0  0  0  0  0  0999 V2000
   -0.1331    3.6000    2.7799 H   0  0  0  1  0  0  0  0  0  0  0  0
    1.0794    2.2369    1.7166 C   0  0  0  1  0  0  0  0  0  0  0  0
    0.3393    4.4166    0.9456 N   0  0  0  1  0  0  0  0  0  0  0  0
   -0.0421    3.2721    1.7654 C   0  0  0  1  0  0  0  0  0  0  0  0
    1.6441    1.9638    0.6582 O   0  0  0  1  0  0  0  0  0  0  0  0
    1.3280    1.6122    2.8785 N   0  0  0  1  0  0  0  0  0  0  0  0
   -0.3085    4.8113    0.3253 H   0  0  0  1  0  0  0  0  0  0  0  0
    1.5822    4.9329    1.0395 C   0  0  0  1  0  0  0  0  0  0  0  0
    2.3121    0.5416    2.9365 C   0  0  0  1  0  0  0  0  0  0  0  0
    1.9434    6.0915    0.1304 C   0  0  0  1  0  0  0  0  0  0  0  0
    2.4003    4.4790    1.8385 O   0  0  0  1  0  0  0  0  0  0  0  0
    0.8458    1.8776    3.6893 H   0  0  0  1  0  0  0  0  0  0  0  0
    2.0811   -0.1963    2.1969 H   0  0  0  1  0  0  0  0  0  0  0  0
    2.2925    0.0917    3.9071 H   0  0  0  1  0  0  0  0  0  0  0  0
    3.2862    0.9424    2.7482 H   0  0  0  1  0  0  0  0  0  0  0  0
    2.9167    6.4557    0.3855 H   0  0  0  1  0  0  0  0  0  0  0  0
    1.2263    6.8763    0.2511 H   0  0  0  1  0  0  0  0  0  0  0  0
    1.9423    5.7600   -0.8869 H   0  0  0  1  0  0  0  0  0  0  0  0
   -5.4445    6.7342    0.9339 N   0  3  0  1  0  0  0  0  0  0  0  0
   -5.9674    6.9989   -0.1017 O   0  0  0  1  0  0  0  0  0  0  0  0
   -5.8157    7.3994    2.0363 O   0  5  0  1  0  0  0  0  0  0  0  0
   -4.4260    5.7214    1.0371 C   0  0  0  1  0  0  0  0  0  0  0  0
   -3.6595    5.3996   -0.0671 C   0  0  0  1  0  0  0  0  0  0  0  0
   -2.6750    4.4288    0.0315 C   0  0  0  1  0  0  0  0  0  0  0  0
   -2.4635    3.7788    1.2328 C   0  0  0  1  0  0  0  0  0  0  0  0
   -3.2322    4.1014    2.3403 C   0  0  0  1  0  0  0  0  0  0  0  0
   -4.2137    5.0694    2.2418 C   0  0  0  1  0  0  0  0  0  0  0  0
   -1.3949    2.7167    1.3395 C   0  0  0  1  0  0  0  0  0  0  0  0
   -3.8215    5.8859   -0.9721 H   0  0  0  1  0  0  0  0  0  0  0  0
   -2.0956    4.1895   -0.7983 H   0  0  0  1  0  0  0  0  0  0  0  0
   -3.0702    3.6151    3.2452 H   0  0  0  1  0  0  0  0  0  0  0  0
   -4.7931    5.3087    3.0716 H   0  0  0  1  0  0  0  0  0  0  0  0
   -1.7072    1.9906    2.0607 H   0  0  0  1  0  0  0  0  0  0  0  0
   -1.2848    2.2471    0.3844 H   0  0  0  1  0  0  0  0  0  0  0  0
  1  4  1  0  0  0  0
  2  4  1  0  0  0  0
  2  5  2  0  0  0  0
  2  6  1  0  0  0  0
  3  4  1  0  0  0  0
  3  7  1  0  0  0  0
  3  8  1  0  0  0  0
  4 28  1  0  0  0  0
  6  9  1  0  0  0  0
  6 12  1  0  0  0  0
  8 10  1  0  0  0  0
  8 11  2  0  0  0  0
  9 13  1  0  0  0  0
  9 14  1  0  0  0  0
  9 15  1  0  0  0  0
 10 16  1  0  0  0  0
 10 17  1  0  0  0  0
 10 18  1  0  0  0  0
 19 20  2  0  0  0  0
 19 21  1  0  0  0  0
 19 22  1  0  0  0  0
 22 23  4  0  0  0  0
 22 27  4  0  0  0  0
 23 24  4  0  0  0  0
 23 29  1  0  0  0  0
 24 25  4  0  0  0  0
 24 30  1  0  0  0  0
 25 26  4  0  0  0  0
 25 28  1  0  0  0  0
 26 27  4  0  0  0  0
 26 31  1  0  0  0  0
 27 32  1  0  0  0  0
 28 33  1  0  0  0  0
 28 34  1  0  0  0  0
M  END
> <BCLConfClusterSize>
1

> <ConfClashScore>
0 

> <ConfOneFourInteractionScore>
-0.985807 

> <ConfScore>
-0.0352029 

> <ConfScorePBest>
0.00472943 

> <ConfTolerance>
0.474827 

> <RosettaParamsInstructions>
M  ROOT 3
M  POLY_N_BB 3
M  POLY_CA_BB 4
M  POLY_C_BB 2
M  POLY_O_BB 5
M  POLY_IGNORE 9 10 11 12 13 14 15 16 17 18 
M  POLY_UPPER 6
M  POLY_LOWER 8
M  POLY_CHG 0
M  POLY_PROPERTIES ALPHA_AA L_AA PROTEIN AROMATIC POLYMER 
M  END

$$$$



 34 34  0  0  0  0  0  0  0  0999 V2000
   -0.1022    3.4584   -0.1279 H   0  0  0  1  0  0  0  0  0  0  0  0
    0.5355    1.5058    0.2781 C   0  0  0  1  0  0  0  0  0  0  0  0
   -1.3697    2.1819   -1.1110 N   0  0  0  1  0  0  0  0  0  0  0  0
   -0.5737    2.5165    0.0604 C   0  0  0  1  0  0  0  0  0  0  0  0
    0.4514    0.3544   -0.1471 O   0  0  0  1  0  0  0  0  0  0  0  0
    1.5823    1.9928    0.9630 N   0  0  0  1  0  0  0  0  0  0  0  0
   -2.0560    1.4866   -1.0337 H   0  0  0  1  0  0  0  0  0  0  0  0
   -1.1975    2.7897   -2.2883 C   0  0  0  1  0  0  0  0  0  0  0  0
    2.6717    1.1118    1.3565 C   0  0  0  1  0  0  0  0  0  0  0  0
   -2.1054    2.3232   -3.4096 C   0  0  0  1  0  0  0  0  0  0  0  0
   -0.3609    3.6733   -2.4699 O   0  0  0  1  0  0  0  0  0  0  0  0
    1.6130    2.9436    1.1986 H   0  0  0  1  0  0  0  0  0  0  0  0
    2.7414    0.2988    0.6644 H   0  0  0  1  0  0  0  0  0  0  0  0
    2.4840    0.7292    2.3380 H   0  0  0  1  0  0  0  0  0  0  0  0
    3.5909    1.6596    1.3566 H   0  0  0  1  0  0  0  0  0  0  0  0
   -1.5226    1.8308   -4.1597 H   0  0  0  1  0  0  0  0  0  0  0  0
   -2.6016    3.1674   -3.8409 H   0  0  0  1  0  0  0  0  0  0  0  0
   -2.8328    1.6424   -3.0193 H   0  0  0  1  0  0  0  0  0  0  0  0
   -5.4754    6.7139    0.9743 N   0  3  0  1  0  0  0  0  0  0  0  0
   -6.2162    6.8174    1.8998 O   0  0  0  1  0  0  0  0  0  0  0  0
   -5.5254    7.4962   -0.1126 O   0  5  0  1  0  0  0  0  0  0  0  0
   -4.4101    5.7500    1.0724 C   0  0  0  1  0  0  0  0  0  0  0  0
   -3.6316    5.4583   -0.0317 C   0  0  0  1  0  0  0  0  0  0  0  0
   -2.6613    4.4713    0.0454 C   0  0  0  1  0  0  0  0  0  0  0  0
   -2.4759    3.7754    1.2251 C   0  0  0  1  0  0  0  0  0  0  0  0
   -3.2566    4.0679    2.3326 C   0  0  0  1  0  0  0  0  0  0  0  0
   -4.2240    5.0519    2.2555 C   0  0  0  1  0  0  0  0  0  0  0  0
   -1.4228    2.6959    1.3083 C   0  0  0  1  0  0  0  0  0  0  0  0
   -3.7739    5.9792   -0.9205 H   0  0  0  1  0  0  0  0  0  0  0  0
   -2.0728    4.2546   -0.7842 H   0  0  0  1  0  0  0  0  0  0  0  0
   -3.1144    3.5470    3.2214 H   0  0  0  1  0  0  0  0  0  0  0  0
   -4.8125    5.2687    3.0851 H   0  0  0  1  0  0  0  0  0  0  0  0
   -0.7689    2.9346    2.1209 H   0  0  0  1  0  0  0  0  0  0  0  0
   -1.9164    1.7678    1.5079 H   0  0  0  1  0  0  0  0  0  0  0  0
  1  4  1  0  0  0  0
  2  4  1  0  0  0  0
  2  5  2  0  0  0  0
  2  6  1  0  0  0  0
  3  4  1  0  0  0  0
  3  7  1  0  0  0  0
  3  8  1  0  0  0  0
  4 28  1  0  0  0  0
  6  9  1  0  0  0  0
  6 12  1  0  0  0  0
  8 10  1  0  0  0  0
  8 11  2  0  0  0  0
  9 13  1  0  0  0  0
  9 14  1  0  0  0  0
  9 15  1  0  0  0  0
 10 16  1  0  0  0  0
 10 17  1  0  0  0  0
 10 18  1  0  0  0  0
 19 20  2  0  0  0  0
 19 21  1  0  0  0  0
 19 22  1  0  0  0  0
 22 23  4  0  0  0  0
 22 27  4  0  0  0  0
 23 24  4  0  0  0  0
 23 29  1  0  0  0  0
 24 25  4  0  0  0  0
 24 30  1  0  0  0  0
 25 26  4  0  0  0  0
 25 28  1  0  0  0  0
 26 27  4  0  0  0  0
 26 31  1  0  0  0  0
 27 32  1  0  0  0  0
 28 33  1  0  0  0  0
 28 34  1  0  0  0  0
M  END
> <BCLConfClusterSize>
1

> <ConfClashScore>
0 

> <ConfOneFourInteractionScore>
-0.97449 

> <ConfScore>
-0.0348183 

> <ConfScorePBest>
0.00470095 

> <ConfTolerance>
0.432887 

> <RosettaParamsInstructions>
M  ROOT 3
M  POLY_N_BB 3
M  POLY_CA_BB 4
M  POLY_C_BB 2
M  POLY_O_BB 5
M  POLY_IGNORE 9 10 11 12 13 14 15 16 17 18 
M  POLY_UPPER 6
M  POLY_LOWER 8
M  POLY_CHG 0
M  POLY_PROPERTIES ALPHA_AA L_AA PROTEIN AROMATIC POLYMER 
M  END

$$$$



 34 34  0  0  0  0  0  0  0  0999 V2000
   -1.5961    2.5855    3.3999 H   0  0  0  1  0  0  0  0  0  0  0  0
   -0.1028    1.2134    2.7960 C   0  0  0  1  0  0  0  0  0  0  0  0
    0.0917    3.6924    2.9604 N   0  0  0  1  0  0  0  0  0  0  0  0
   -0.7942    2.5695    2.6917 C   0  0  0  1  0  0  0  0  0  0  0  0
    1.0217    1.0325    2.3307 O   0  0  0  1  0  0  0  0  0  0  0  0
   -0.7944    0.2566    3.4170 N   0  0  0  1  0  0  0  0  0  0  0  0
    0.8909    3.8078    2.4050 H   0  0  0  1  0  0  0  0  0  0  0  0
   -0.1467    4.5716    3.9378 C   0  0  0  1  0  0  0  0  0  0  0  0
   -0.3463   -1.1275    3.4533 C   0  0  0  1  0  0  0  0  0  0  0  0
    0.9995    5.5359    4.2346 C   0  0  0  1  0  0  0  0  0  0  0  0
   -1.1644    4.5789    4.6106 O   0  0  0  1  0  0  0  0  0  0  0  0
   -1.6334    0.4940    3.8644 H   0  0  0  1  0  0  0  0  0  0  0  0
    0.0155   -1.4113    2.4871 H   0  0  0  1  0  0  0  0  0  0  0  0
   -1.1647   -1.7600    3.7272 H   0  0  0  1  0  0  0  0  0  0  0  0
    0.4397   -1.2290    4.1721 H   0  0  0  1  0  0  0  0  0  0  0  0
    1.3350    5.9834    3.3224 H   0  0  0  1  0  0  0  0  0  0  0  0
    1.8076    5.0004    4.6873 H   0  0  0  1  0  0  0  0  0  0  0  0
    0.6588    6.2997    4.9021 H   0  0  0  1  0  0  0  0  0  0  0  0
   -5.4338    6.7425    0.9673 N   0  3  0  1  0  0  0  0  0  0  0  0
   -6.0169    7.0874    1.9456 O   0  0  0  1  0  0  0  0  0  0  0  0
   -5.6621    7.2585   -0.2481 O   0  5  0  1  0  0  0  0  0  0  0  0
   -4.4394    5.7258    1.0964 C   0  0  0  1  0  0  0  0  0  0  0  0
   -3.6408    5.4778   -0.0041 C   0  0  0  1  0  0  0  0  0  0  0  0
   -2.6538    4.5067    0.0604 C   0  0  0  1  0  0  0  0  0  0  0  0
   -2.4719    3.7827    1.2236 C   0  0  0  1  0  0  0  0  0  0  0  0
   -3.2727    4.0313    2.3274 C   0  0  0  1  0  0  0  0  0  0  0  0
   -4.2568    4.9996    2.2629 C   0  0  0  1  0  0  0  0  0  0  0  0
   -1.4004    2.7202    1.2928 C   0  0  0  1  0  0  0  0  0  0  0  0
   -3.7804    6.0199   -0.8806 H   0  0  0  1  0  0  0  0  0  0  0  0
   -2.0502    4.3228   -0.7663 H   0  0  0  1  0  0  0  0  0  0  0  0
   -3.1331    3.4892    3.2039 H   0  0  0  1  0  0  0  0  0  0  0  0
   -4.8603    5.1834    3.0897 H   0  0  0  1  0  0  0  0  0  0  0  0
   -1.8305    1.7836    1.0053 H   0  0  0  1  0  0  0  0  0  0  0  0
   -0.6192    2.9794    0.6092 H   0  0  0  1  0  0  0  0  0  0  0  0
  1  4  1  0  0  0  0
  2  4  1  0  0  0  0
  2  5  2  0  0  0  0
  2  6  1  0  0  0  0
  3  4  1  0  0  0  0
  3  7  1  0  0  0  0
  3  8  1  0  0  0  0
  4 28  1  0  0  0  0
  6  9  1  0  0  0  0
  6 12  1  0  0  0  0
  8 10  1  0  0  0  0
  8 11  2  0  0  0  0
  9 13  1  0  0  0  0
  9 14  1  0  0  0  0
  9 15  1  0  0  0  0
 10 16  1  0  0  0  0
 10 17  1  0  0  0  0
 10 18  1  0  0  0  0
 19 20  2  0  0  0  0
 19 21  1  0  0  0  0
 19 22  1  0  0  0  0
 22 23  4  0  0  0  0
 22 27  4  0  0  0  0
 23 24  4  0  0  0  0
 23 29  1  0  0  0  0
 24 25  4  0  0  0  0
 24 30  1  0  0  0  0
 25 26  4  0  0  0  0
 25 28  1  0  0  0  0
 26 27  4  0  0  0  0
 26 31  1  0  0  0  0
 27 32  1  0  0  0  0
 28 33  1  0  0  0  0
 28 34  1  0  0  0  0
M  END
> <BCLConfClusterSize>
1

> <ConfClashScore>
0 

> <ConfOneFourInteractionScore>
-0.96681 

> <ConfScore>
-0.0329145 

> <ConfScorePBest>
0.00467247 

> <ConfTolerance>
0.476413 

> <RosettaParamsInstructions>
M  ROOT 3
M  POLY_N_BB 3
M  POLY_CA_BB 4
M  POLY_C_BB 2
M  POLY_O_BB 5
M  POLY_IGNORE 9 10 11 12 13 14 15 16 17 18 
M  POLY_UPPER 6
M  POLY_LOWER 8
M  POLY_CHG 0
M  POLY_PROPERTIES ALPHA_AA L_AA PROTEIN AROMATIC POLYMER 
M  END

$$$$



 34 34  0  0  0  0  0  0  0  0999 V2000
   -0.1476    3.5093    2.8379 H   0  0  0  1  0  0  0  0  0  0  0  0
    0.9725    2.0616    1.7717 C   0  0  0  1  0  0  0  0  0  0  0  0
    0.4182    4.3212    1.0219 N   0  0  0  1  0  0  0  0  0  0  0  0
   -0.0465    3.1963    1.8197 C   0  0  0  1  0  0  0  0  0  0  0  0
    0.9533    1.2344    0.8612 O   0  0  0  1  0  0  0  0  0  0  0  0
    1.8823    1.9942    2.7448 N   0  0  0  1  0  0  0  0  0  0  0  0
    0.3485    4.2695    0.0458 H   0  0  0  1  0  0  0  0  0  0  0  0
    0.9385    5.4267    1.5763 C   0  0  0  1  0  0  0  0  0  0  0  0
    2.9206    0.9795    2.8458 C   0  0  0  1  0  0  0  0  0  0  0  0
    1.2947    6.5419    0.6126 C   0  0  0  1  0  0  0  0  0  0  0  0
    1.1208    5.5451    2.7768 O   0  0  0  1  0  0  0  0  0  0  0  0
    1.8491    2.6796    3.4445 H   0  0  0  1  0  0  0  0  0  0  0  0
    2.6251    0.1101    2.2965 H   0  0  0  1  0  0  0  0  0  0  0  0
    3.0661    0.7194    3.8735 H   0  0  0  1  0  0  0  0  0  0  0  0
    3.8342    1.3629    2.4417 H   0  0  0  1  0  0  0  0  0  0  0  0
    0.4860    7.2406    0.5603 H   0  0  0  1  0  0  0  0  0  0  0  0
    1.4733    6.1301   -0.3587 H   0  0  0  1  0  0  0  0  0  0  0  0
    2.1761    7.0419    0.9562 H   0  0  0  1  0  0  0  0  0  0  0  0
   -5.4404    6.7470    0.9373 N   0  3  0  1  0  0  0  0  0  0  0  0
   -5.6832    7.1944   -0.1383 O   0  0  0  1  0  0  0  0  0  0  0  0
   -6.0621    7.1401    2.0573 O   0  5  0  1  0  0  0  0  0  0  0  0
   -4.4256    5.7304    1.0394 C   0  0  0  1  0  0  0  0  0  0  0  0
   -3.6362    5.4321   -0.0552 C   0  0  0  1  0  0  0  0  0  0  0  0
   -2.6552    4.4576    0.0425 C   0  0  0  1  0  0  0  0  0  0  0  0
   -2.4702    3.7805    1.2331 C   0  0  0  1  0  0  0  0  0  0  0  0
   -3.2618    4.0795    2.3310 C   0  0  0  1  0  0  0  0  0  0  0  0
   -4.2399    5.0512    2.2334 C   0  0  0  1  0  0  0  0  0  0  0  0
   -1.4054    2.7144    1.3387 C   0  0  0  1  0  0  0  0  0  0  0  0
   -3.7781    5.9389   -0.9523 H   0  0  0  1  0  0  0  0  0  0  0  0
   -2.0585    4.2360   -0.7800 H   0  0  0  1  0  0  0  0  0  0  0  0
   -3.1199    3.5728    3.2280 H   0  0  0  1  0  0  0  0  0  0  0  0
   -4.8365    5.2728    3.0558 H   0  0  0  1  0  0  0  0  0  0  0  0
   -1.7521    1.9682    2.0228 H   0  0  0  1  0  0  0  0  0  0  0  0
   -1.2772    2.2788    0.3699 H   0  0  0  1  0  0  0  0  0  0  0  0
  1  4  1  0  0  0  0
  2  4  1  0  0  0  0
  2  5  2  0  0  0  0
  2  6  1  0  0  0  0
  3  4  1  0  0  0  0
  3  7  1  0  0  0  0
  3  8  1  0  0  0  0
  4 28  1  0  0  0  0
  6  9  1  0  0  0  0
  6 12  1  0  0  0  0
  8 10  1  0  0  0  0
  8 11  2  0  0  0  0
  9 13  1  0  0  0  0
  9 14  1  0  0  0  0
  9 15  1  0  0  0  0
 10 16  1  0  0  0  0
 10 17  1  0  0  0  0
 10 18  1  0  0  0  0
 19 20  2  0  0  0  0
 19 21  1  0  0  0  0
 19 22  1  0  0  0  0
 22 23  4  0  0  0  0
 22 27  4  0  0  0  0
 23 24  4  0  0  0  0
 23 29  1  0  0  0  0
 24 25  4  0  0  0  0
 24 30  1  0  0  0  0
 25 26  4  0  0  0  0
 25 28  1  0  0  0  0
 26 27  4  0  0  0  0
 26 31  1  0  0  0  0
 27 32  1  0  0  0  0
 28 33  1  0  0  0  0
 28 34  1  0  0  0  0
M  END
> <BCLConfClusterSize>
1

> <ConfClashScore>
0 

> <ConfOneFourInteractionScore>
-0.979134 

> <ConfScore>
-0.0323434 

> <ConfScorePBest>
0.00464399 

> <ConfTolerance>
0.328054 

> <RosettaParamsInstructions>
M  ROOT 3
M  POLY_N_BB 3
M  POLY_CA_BB 4
M  POLY_C_BB 2
M  POLY_O_BB 5
M  POLY_IGNORE 9 10 11 12 13 14 15 16 17 18 
M  POLY_UPPER 6
M  POLY_LOWER 8
M  POLY_CHG 0
M  POLY_PROPERTIES ALPHA_AA L_AA PROTEIN AROMATIC POLYMER 
M  END

$$$$



 34 34  0  0  0  0  0  0  0  0999 V2000
   -0.0146    3.5166    0.0092 H   0  0  0  1  0  0  0  0  0  0  0  0
    0.5312    4.0116    1.9969 C   0  0  0  1  0  0  0  0  0  0  0  0
    0.8489    1.8778    0.9479 N   0  0  0  1  0  0  0  0  0  0  0  0
   -0.0218    3.0437    0.9690 C   0  0  0  1  0  0  0  0  0  0  0  0
    0.8288    3.6478    3.1227 O   0  0  0  1  0  0  0  0  0  0  0  0
    0.6512    5.2634    1.5456 N   0  0  0  1  0  0  0  0  0  0  0  0
    0.5036    1.0235    1.2813 H   0  0  0  1  0  0  0  0  0  0  0  0
    2.1028    1.9318    0.4896 C   0  0  0  1  0  0  0  0  0  0  0  0
    1.1174    6.3529    2.3903 C   0  0  0  1  0  0  0  0  0  0  0  0
    2.8835    0.6334    0.5525 C   0  0  0  1  0  0  0  0  0  0  0  0
    2.6086    2.9599    0.0417 O   0  0  0  1  0  0  0  0  0  0  0  0
    0.4171    5.4546    0.6134 H   0  0  0  1  0  0  0  0  0  0  0  0
    0.9816    6.0908    3.4187 H   0  0  0  1  0  0  0  0  0  0  0  0
    0.5579    7.2383    2.1712 H   0  0  0  1  0  0  0  0  0  0  0  0
    2.1556    6.5308    2.2019 H   0  0  0  1  0  0  0  0  0  0  0  0
    2.5302   -0.0329   -0.2066 H   0  0  0  1  0  0  0  0  0  0  0  0
    2.7486    0.1825    1.5134 H   0  0  0  1  0  0  0  0  0  0  0  0
    3.9226    0.8344    0.3949 H   0  0  0  1  0  0  0  0  0  0  0  0
   -5.4606    6.7309    1.0024 N   0  3  0  1  0  0  0  0  0  0  0  0
   -6.1310    6.8894    1.9727 O   0  0  0  1  0  0  0  0  0  0  0  0
   -5.6199    7.4339   -0.1272 O   0  5  0  1  0  0  0  0  0  0  0  0
   -4.4247    5.7316    1.0455 C   0  0  0  1  0  0  0  0  0  0  0  0
   -3.6230    5.4527   -0.0453 C   0  0  0  1  0  0  0  0  0  0  0  0
   -2.6356    4.4844    0.0495 C   0  0  0  1  0  0  0  0  0  0  0  0
   -2.4563    3.7941    1.2334 C   0  0  0  1  0  0  0  0  0  0  0  0
   -3.2602    4.0737    2.3275 C   0  0  0  1  0  0  0  0  0  0  0  0
   -4.2446    5.0391    2.2328 C   0  0  0  1  0  0  0  0  0  0  0  0
   -1.4532    2.6678    1.3155 C   0  0  0  1  0  0  0  0  0  0  0  0
   -3.7607    5.9694   -0.9374 H   0  0  0  1  0  0  0  0  0  0  0  0
   -2.0298    4.2774   -0.7701 H   0  0  0  1  0  0  0  0  0  0  0  0
   -3.1226    3.5570    3.2195 H   0  0  0  1  0  0  0  0  0  0  0  0
   -4.8504    5.2461    3.0524 H   0  0  0  1  0  0  0  0  0  0  0  0
   -1.4622    2.2902    2.3166 H   0  0  0  1  0  0  0  0  0  0  0  0
   -1.7650    1.8983    0.6406 H   0  0  0  1  0  0  0  0  0  0  0  0
  1  4  1  0  0  0  0
  2  4  1  0  0  0  0
  2  5  2  0  0  0  0
  2  6  1  0  0  0  0
  3  4  1  0  0  0  0
  3  7  1  0  0  0  0
  3  8  1  0  0  0  0
  4 28  1  0  0  0  0
  6  9  1  0  0  0  0
  6 12  1  0  0  0  0
  8 10  1  0  0  0  0
  8 11  2  0  0  0  0
  9 13  1  0  0  0  0
  9 14  1  0  0  0  0
  9 15  1  0  0  0  0
 10 16  1  0  0  0  0
 10 17  1  0  0  0  0
 10 18  1  0  0  0  0
 19 20  2  0  0  0  0
 19 21  1  0  0  0  0
 19 22  1  0  0  0  0
 22 23  4  0  0  0  0
 22 27  4  0  0  0  0
 23 24  4  0  0  0  0
 23 29  1  0  0  0  0
 24 25  4  0  0  0  0
 24 30  1  0  0  0  0
 25 26  4  0  0  0  0
 25 28  1  0  0  0  0
 26 27  4  0  0  0  0
 26 31  1  0  0  0  0
 27 32  1  0  0  0  0
 28 33  1  0  0  0  0
 28 34  1  0  0  0  0
M  END
> <BCLConfClusterSize>
1

> <ConfClashScore>
0 

> <ConfOneFourInteractionScore>
-0.978127 

> <ConfScore>
-0.0318768 

> <ConfScorePBest>
0.00461551 

> <ConfTolerance>
0.2984 

> <RosettaParamsInstructions>
M  ROOT 3
M  POLY_N_BB 3
M  POLY_CA_BB 4
M  POLY_C_BB 2
M  POLY_O_BB 5
M  POLY_IGNORE 9 10 11 12 13 14 15 16 17 18 
M  POLY_UPPER 6
M  POLY_LOWER 8
M  POLY_CHG 0
M  POLY_PROPERTIES ALPHA_AA L_AA PROTEIN AROMATIC POLYMER 
M  END

$$$$



 34 34  0  0  0  0  0  0  0  0999 V2000
   -1.0702    0.6788    0.8607 H   0  0  0  1  0  0  0  0  0  0  0  0
   -3.1387    0.9190    1.1148 C   0  0  0  1  0  0  0  0  0  0  0  0
   -1.7860    1.5888   -0.8427 N   0  0  0  1  0  0  0  0  0  0  0  0
   -1.8041    1.4143    0.6052 C   0  0  0  1  0  0  0  0  0  0  0  0
   -3.3248    0.7303    2.3162 O   0  0  0  1  0  0  0  0  0  0  0  0
   -4.1056    0.6936    0.2239 N   0  0  0  1  0  0  0  0  0  0  0  0
   -1.9981    2.4700   -1.2156 H   0  0  0  1  0  0  0  0  0  0  0  0
   -1.4905    0.5892   -1.6785 C   0  0  0  1  0  0  0  0  0  0  0  0
   -5.3962    0.0942    0.5289 C   0  0  0  1  0  0  0  0  0  0  0  0
   -1.3635    0.9690   -3.1409 C   0  0  0  1  0  0  0  0  0  0  0  0
   -1.3294   -0.5616   -1.3069 O   0  0  0  1  0  0  0  0  0  0  0  0
   -3.9339    0.9510   -0.7059 H   0  0  0  1  0  0  0  0  0  0  0  0
   -5.2473   -0.8694    0.9695 H   0  0  0  1  0  0  0  0  0  0  0  0
   -5.9628   -0.0099   -0.3728 H   0  0  0  1  0  0  0  0  0  0  0  0
   -5.9274    0.7212    1.2141 H   0  0  0  1  0  0  0  0  0  0  0  0
   -2.2778    1.4132   -3.4752 H   0  0  0  1  0  0  0  0  0  0  0  0
   -1.1602    0.0927   -3.7204 H   0  0  0  1  0  0  0  0  0  0  0  0
   -0.5630    1.6691   -3.2592 H   0  0  0  1  0  0  0  0  0  0  0  0
   -5.4351    6.7520    0.9366 N   0  3  0  1  0  0  0  0  0  0  0  0
   -5.5263    7.3515   -0.0872 O   0  0  0  1  0  0  0  0  0  0  0  0
   -6.2247    6.9765    1.9958 O   0  5  0  1  0  0  0  0  0  0  0  0
   -4.4234    5.7327    1.0418 C   0  0  0  1  0  0  0  0  0  0  0  0
   -3.6154    5.4490   -0.0431 C   0  0  0  1  0  0  0  0  0  0  0  0
   -2.6373    4.4718    0.0577 C   0  0  0  1  0  0  0  0  0  0  0  0
   -2.4738    3.7776    1.2416 C   0  0  0  1  0  0  0  0  0  0  0  0
   -3.2841    4.0620    2.3297 C   0  0  0  1  0  0  0  0  0  0  0  0
   -4.2592    5.0363    2.2290 C   0  0  0  1  0  0  0  0  0  0  0  0
   -1.3974    2.7193    1.2955 C   0  0  0  1  0  0  0  0  0  0  0  0
   -3.7412    5.9686   -0.9351 H   0  0  0  1  0  0  0  0  0  0  0  0
   -2.0267    4.2611   -0.7573 H   0  0  0  1  0  0  0  0  0  0  0  0
   -3.1583    3.5424    3.2218 H   0  0  0  1  0  0  0  0  0  0  0  0
   -4.8698    5.2470    3.0441 H   0  0  0  1  0  0  0  0  0  0  0  0
   -0.5209    3.1003    0.8142 H   0  0  0  1  0  0  0  0  0  0  0  0
   -1.1784    2.5082    2.3213 H   0  0  0  1  0  0  0  0  0  0  0  0
  1  4  1  0  0  0  0
  2  4  1  0  0  0  0
  2  5  2  0  0  0  0
  2  6  1  0  0  0  0
  3  4  1  0  0  0  0
  3  7  1  0  0  0  0
  3  8  1  0  0  0  0
  4 28  1  0  0  0  0
  6  9  1  0  0  0  0
  6 12  1  0  0  0  0
  8 10  1  0  0  0  0
  8 11  2  0  0  0  0
  9 13  1  0  0  0  0
  9 14  1  0  0  0  0
  9 15  1  0  0  0  0
 10 16  1  0  0  0  0
 10 17  1  0  0  0  0
 10 18  1  0  0  0  0
 19 20  2  0  0  0  0
 19 21  1  0  0  0  0
 19 22  1  0  0  0  0
 22 23  4  0  0  0  0
 22 27  4  0  0  0  0
 23 24  4  0  0  0  0
 23 29  1  0  0  0  0
 24 25  4  0  0  0  0
 24 30  1  0  0  0  0
 25 26  4  0  0  0  0
 25 28  1  0  0  0  0
 26 27  4  0  0  0  0
 26 31  1  0  0  0  0
 27 32  1  0  0  0  0
 28 33  1  0  0  0  0
 28 34  1  0  0  0  0
M  END
> <BCLConfClusterSize>
1

> <ConfClashScore>
0 

> <ConfOneFourInteractionScore>
-0.957074 

> <ConfScore>
-0.0306673 

> <ConfScorePBest>
0.00458703 

> <ConfTolerance>
0.359464 

> <RosettaParamsInstructions>
M  ROOT 3
M  POLY_N_BB 3
M  POLY_CA_BB 4
M  POLY_C_BB 2
M  POLY_O_BB 5
M  POLY_IGNORE 9 10 11 12 13 14 15 16 17 18 
M  POLY_UPPER 6
M  POLY_LOWER 8
M  POLY_CHG 0
M  POLY_PROPERTIES ALPHA_AA L_AA PROTEIN AROMATIC POLYMER 
M  END

$$$$



 34 34  0  0  0  0  0  0  0  0999 V2000
   -1.1354    0.6589    0.7520 H   0  0  0  1  0  0  0  0  0  0  0  0
   -2.7787    0.7124    2.0635 C   0  0  0  1  0  0  0  0  0  0  0  0
   -2.7365    1.3777   -0.3197 N   0  0  0  1  0  0  0  0  0  0  0  0
   -1.9747    1.3019    0.9166 C   0  0  0  1  0  0  0  0  0  0  0  0
   -2.3394    0.6382    3.1966 O   0  0  0  1  0  0  0  0  0  0  0  0
   -4.0123    0.2579    1.8254 N   0  0  0  1  0  0  0  0  0  0  0  0
   -3.2417    2.1945   -0.5146 H   0  0  0  1  0  0  0  0  0  0  0  0
   -2.7717    0.3682   -1.2028 C   0  0  0  1  0  0  0  0  0  0  0  0
   -4.8557   -0.2891    2.8776 C   0  0  0  1  0  0  0  0  0  0  0  0
   -3.6210    0.5391   -2.4473 C   0  0  0  1  0  0  0  0  0  0  0  0
   -2.1357   -0.6648   -1.0113 O   0  0  0  1  0  0  0  0  0  0  0  0
   -4.3613    0.2941    0.9104 H   0  0  0  1  0  0  0  0  0  0  0  0
   -4.6389    0.2044    3.8020 H   0  0  0  1  0  0  0  0  0  0  0  0
   -4.6641   -1.3369    2.9795 H   0  0  0  1  0  0  0  0  0  0  0  0
   -5.8843   -0.1370    2.6251 H   0  0  0  1  0  0  0  0  0  0  0  0
   -4.5880    0.9055   -2.1722 H   0  0  0  1  0  0  0  0  0  0  0  0
   -3.7246   -0.4048   -2.9405 H   0  0  0  1  0  0  0  0  0  0  0  0
   -3.1499    1.2372   -3.1073 H   0  0  0  1  0  0  0  0  0  0  0  0
   -5.4415    6.7296    0.9275 N   0  3  0  1  0  0  0  0  0  0  0  0
   -5.5919    7.3316   -0.0879 O   0  0  0  1  0  0  0  0  0  0  0  0
   -6.2973    6.9940    1.9241 O   0  5  0  1  0  0  0  0  0  0  0  0
   -4.3831    5.7630    1.0655 C   0  0  0  1  0  0  0  0  0  0  0  0
   -3.5879    5.4695   -0.0263 C   0  0  0  1  0  0  0  0  0  0  0  0
   -2.6327    4.4687    0.0609 C   0  0  0  1  0  0  0  0  0  0  0  0
   -2.4792    3.7607    1.2380 C   0  0  0  1  0  0  0  0  0  0  0  0
   -3.2766    4.0550    2.3329 C   0  0  0  1  0  0  0  0  0  0  0  0
   -4.2289    5.0528    2.2459 C   0  0  0  1  0  0  0  0  0  0  0  0
   -1.4278    2.6770    1.2769 C   0  0  0  1  0  0  0  0  0  0  0  0
   -3.7062    5.9995   -0.9132 H   0  0  0  1  0  0  0  0  0  0  0  0
   -2.0316    4.2506   -0.7594 H   0  0  0  1  0  0  0  0  0  0  0  0
   -3.1583    3.5249    3.2199 H   0  0  0  1  0  0  0  0  0  0  0  0
   -4.8299    5.2709    3.0662 H   0  0  0  1  0  0  0  0  0  0  0  0
   -0.6537    2.9284    0.5822 H   0  0  0  1  0  0  0  0  0  0  0  0
   -1.0202    2.6332    2.2652 H   0  0  0  1  0  0  0  0  0  0  0  0
  1  4  1  0  0  0  0
  2  4  1  0  0  0  0
  2  5  2  0  0  0  0
  2  6  1  0  0  0  0
  3  4  1  0  0  0  0
  3  7  1  0  0  0  0
  3  8  1  0  0  0  0
  4 28  1  0  0  0  0
  6  9  1  0  0  0  0
  6 12  1  0  0  0  0
  8 10  1  0  0  0  0
  8 11  2  0  0  0  0
  9 13  1  0  0  0  0
  9 14  1  0  0  0  0
  9 15  1  0  0  0  0
 10 16  1  0  0  0  0
 10 17  1  0  0  0  0
 10 18  1  0  0  0  0
 19 20  2  0  0  0  0
 19 21  1  0  0  0  0
 19 22  1  0  0  0  0
 22 23  4  0  0  0  0
 22 27  4  0  0  0  0
 23 24  4  0  0  0  0
 23 29  1  0  0  0  0
 24 25  4  0  0  0  0
 24 30  1  0  0  0  0
 25 26  4  0  0  0  0
 25 28  1  0  0  0  0
 26 27  4  0  0  0  0
 26 31  1  0  0  0  0
 27 32  1  0  0  0  0
 28 33  1  0  0  0  0
 28 34  1  0  0  0  0
M  END
> <BCLConfClusterSize>
1

> <ConfClashScore>
0 

> <ConfOneFourInteractionScore>
-0.931937 

> <ConfScore>
-0.0292733 

> <ConfScorePBest>
0.00455855 

> <ConfTolerance>
0.355716 

> <RosettaParamsInstructions>
M  ROOT 3
M  POLY_N_BB 3
M  POLY_CA_BB 4
M  POLY_C_BB 2
M  POLY_O_BB 5
M  POLY_IGNORE 9 10 11 12 13 14 15 16 17 18 
M  POLY_UPPER 6
M  POLY_LOWER 8
M  POLY_CHG 0
M  POLY_PROPERTIES ALPHA_AA L_AA PROTEIN AROMATIC POLYMER 
M  END

$$$$



 34 34  0  0  0  0  0  0  0  0999 V2000
   -2.1233    2.0296    3.1476 H   0  0  0  1  0  0  0  0  0  0  0  0
   -0.4054    0.8919    2.7028 C   0  0  0  1  0  0  0  0  0  0  0  0
   -0.4520    3.1323    3.6046 N   0  0  0  1  0  0  0  0  0  0  0  0
   -1.1623    2.2224    2.7184 C   0  0  0  1  0  0  0  0  0  0  0  0
   -0.8193   -0.0617    2.0452 O   0  0  0  1  0  0  0  0  0  0  0  0
    0.7195    0.7982    3.4259 N   0  0  0  1  0  0  0  0  0  0  0  0
    0.2979    3.6622    3.2623 H   0  0  0  1  0  0  0  0  0  0  0  0
   -0.8229    3.2476    4.8932 C   0  0  0  1  0  0  0  0  0  0  0  0
    1.4958   -0.4304    3.5002 C   0  0  0  1  0  0  0  0  0  0  0  0
    0.0438    4.1498    5.7500 C   0  0  0  1  0  0  0  0  0  0  0  0
   -1.7996    2.6660    5.3638 O   0  0  0  1  0  0  0  0  0  0  0  0
    1.0298    1.5845    3.9218 H   0  0  0  1  0  0  0  0  0  0  0  0
    2.0030   -0.4761    4.4413 H   0  0  0  1  0  0  0  0  0  0  0  0
    2.2139   -0.4468    2.7072 H   0  0  0  1  0  0  0  0  0  0  0  0
    0.8414   -1.2718    3.4069 H   0  0  0  1  0  0  0  0  0  0  0  0
    0.5980    4.8148    5.1211 H   0  0  0  1  0  0  0  0  0  0  0  0
    0.7221    3.5529    6.3231 H   0  0  0  1  0  0  0  0  0  0  0  0
   -0.5772    4.7184    6.4103 H   0  0  0  1  0  0  0  0  0  0  0  0
   -5.4638    6.7388    1.0010 N   0  3  0  1  0  0  0  0  0  0  0  0
   -6.2408    6.8652    1.8934 O   0  0  0  1  0  0  0  0  0  0  0  0
   -5.3977    7.4451   -0.1359 O   0  5  0  1  0  0  0  0  0  0  0  0
   -4.4416    5.7274    1.0775 C   0  0  0  1  0  0  0  0  0  0  0  0
   -3.6623    5.4499   -0.0297 C   0  0  0  1  0  0  0  0  0  0  0  0
   -2.6742    4.4803    0.0434 C   0  0  0  1  0  0  0  0  0  0  0  0
   -2.4720    3.7875    1.2222 C   0  0  0  1  0  0  0  0  0  0  0  0
   -3.2536    4.0658    2.3327 C   0  0  0  1  0  0  0  0  0  0  0  0
   -4.2387    5.0324    2.2595 C   0  0  0  1  0  0  0  0  0  0  0  0
   -1.3995    2.7269    1.3010 C   0  0  0  1  0  0  0  0  0  0  0  0
   -3.8171    5.9684   -0.9178 H   0  0  0  1  0  0  0  0  0  0  0  0
   -2.0851    4.2743   -0.7885 H   0  0  0  1  0  0  0  0  0  0  0  0
   -3.0987    3.5472    3.2208 H   0  0  0  1  0  0  0  0  0  0  0  0
   -4.8277    5.2384    3.0915 H   0  0  0  1  0  0  0  0  0  0  0  0
   -1.6933    1.8993    0.6896 H   0  0  0  1  0  0  0  0  0  0  0  0
   -0.4849    3.1390    0.9287 H   0  0  0  1  0  0  0  0  0  0  0  0
  1  4  1  0  0  0  0
  2  4  1  0  0  0  0
  2  5  2  0  0  0  0
  2  6  1  0  0  0  0
  3  4  1  0  0  0  0
  3  7  1  0  0  0  0
  3  8  1  0  0  0  0
  4 28  1  0  0  0  0
  6  9  1  0  0  0  0
  6 12  1  0  0  0  0
  8 10  1  0  0  0  0
  8 11  2  0  0  0  0
  9 13  1  0  0  0  0
  9 14  1  0  0  0  0
  9 15  1  0  0  0  0
 10 16  1  0  0  0  0
 10 17  1  0  0  0  0
 10 18  1  0  0  0  0
 19 20  2  0  0  0  0
 19 21  1  0  0  0  0
 19 22  1  0  0  0  0
 22 23  4  0  0  0  0
 22 27  4  0  0  0  0
 23 24  4  0  0  0  0
 23 29  1  0  0  0  0
 24 25  4  0  0  0  0
 24 30  1  0  0  0  0
 25 26  4  0  0  0  0
 25 28  1  0  0  0  0
 26 27  4  0  0  0  0
 26 31  1  0  0  0  0
 27 32  1  0  0  0  0
 28 33  1  0  0  0  0
 28 34  1  0  0  0  0
M  END
> <BCLConfClusterSize>
1

> <ConfClashScore>
0 

> <ConfOneFourInteractionScore>
-0.926529 

> <ConfScore>
-0.0262995 

> <ConfScorePBest>
0.00453007 

> <ConfTolerance>
0.40551 

> <RosettaParamsInstructions>
M  ROOT 3
M  POLY_N_BB 3
M  POLY_CA_BB 4
M  POLY_C_BB 2
M  POLY_O_BB 5
M  POLY_IGNORE 9 10 11 12 13 14 15 16 17 18 
M  POLY_UPPER 6
M  POLY_LOWER 8
M  POLY_CHG 0
M  POLY_PROPERTIES ALPHA_AA L_AA PROTEIN AROMATIC POLYMER 
M  END

$$$$



 34 34  0  0  0  0  0  0  0  0999 V2000
   -0.8866    0.8525    0.4602 H   0  0  0  1  0  0  0  0  0  0  0  0
   -2.9334    1.0271    0.1048 C   0  0  0  1  0  0  0  0  0  0  0  0
   -1.0927    2.1573   -1.0921 N   0  0  0  1  0  0  0  0  0  0  0  0
   -1.5495    1.6487    0.1926 C   0  0  0  1  0  0  0  0  0  0  0  0
   -3.3008    0.1841    0.9065 O   0  0  0  1  0  0  0  0  0  0  0  0
   -3.7017    1.4626   -0.8941 N   0  0  0  1  0  0  0  0  0  0  0  0
   -0.8575    3.1039   -1.1877 H   0  0  0  1  0  0  0  0  0  0  0  0
   -0.9895    1.3055   -2.1813 C   0  0  0  1  0  0  0  0  0  0  0  0
   -5.0116    0.8702   -1.1202 C   0  0  0  1  0  0  0  0  0  0  0  0
   -0.4359    1.8363   -3.4738 C   0  0  0  1  0  0  0  0  0  0  0  0
   -1.3525    0.1504   -2.0535 O   0  0  0  1  0  0  0  0  0  0  0  0
   -3.3837    2.1832   -1.4772 H   0  0  0  1  0  0  0  0  0  0  0  0
   -4.8965   -0.1588   -1.3898 H   0  0  0  1  0  0  0  0  0  0  0  0
   -5.5072    1.3927   -1.9116 H   0  0  0  1  0  0  0  0  0  0  0  0
   -5.5942    0.9413   -0.2255 H   0  0  0  1  0  0  0  0  0  0  0  0
   -1.1575    2.4780   -3.9347 H   0  0  0  1  0  0  0  0  0  0  0  0
   -0.2151    1.0197   -4.1291 H   0  0  0  1  0  0  0  0  0  0  0  0
    0.4591    2.3891   -3.2780 H   0  0  0  1  0  0  0  0  0  0  0  0
   -5.4538    6.7294    0.9247 N   0  3  0  1  0  0  0  0  0  0  0  0
   -5.7279    7.1170   -0.1665 O   0  0  0  1  0  0  0  0  0  0  0  0
   -6.0822    7.1424    2.0338 O   0  5  0  1  0  0  0  0  0  0  0  0
   -4.3914    5.7666    1.0591 C   0  0  0  1  0  0  0  0  0  0  0  0
   -3.6169    5.4552   -0.0425 C   0  0  0  1  0  0  0  0  0  0  0  0
   -2.6587    4.4572    0.0435 C   0  0  0  1  0  0  0  0  0  0  0  0
   -2.4815    3.7700    1.2296 C   0  0  0  1  0  0  0  0  0  0  0  0
   -3.2581    4.0822    2.3344 C   0  0  0  1  0  0  0  0  0  0  0  0
   -4.2135    5.0772    2.2484 C   0  0  0  1  0  0  0  0  0  0  0  0
   -1.4415    2.6785    1.3225 C   0  0  0  1  0  0  0  0  0  0  0  0
   -3.7531    5.9696   -0.9361 H   0  0  0  1  0  0  0  0  0  0  0  0
   -2.0732    4.2257   -0.7842 H   0  0  0  1  0  0  0  0  0  0  0  0
   -3.1220    3.5678    3.2280 H   0  0  0  1  0  0  0  0  0  0  0  0
   -4.7990    5.3088    3.0762 H   0  0  0  1  0  0  0  0  0  0  0  0
   -0.4714    3.1281    1.2819 H   0  0  0  1  0  0  0  0  0  0  0  0
   -1.5618    2.1722    2.2574 H   0  0  0  1  0  0  0  0  0  0  0  0
  1  4  1  0  0  0  0
  2  4  1  0  0  0  0
  2  5  2  0  0  0  0
  2  6  1  0  0  0  0
  3  4  1  0  0  0  0
  3  7  1  0  0  0  0
  3  8  1  0  0  0  0
  4 28  1  0  0  0  0
  6  9  1  0  0  0  0
  6 12  1  0  0  0  0
  8 10  1  0  0  0  0
  8 11  2  0  0  0  0
  9 13  1  0  0  0  0
  9 14  1  0  0  0  0
  9 15  1  0  0  0  0
 10 16  1  0  0  0  0
 10 17  1  0  0  0  0
 10 18  1  0  0  0  0
 19 20  2  0  0  0  0
 19 21  1  0  0  0  0
 19 22  1  0  0  0  0
 22 23  4  0  0  0  0
 22 27  4  0  0  0  0
 23 24  4  0  0  0  0
 23 29  1  0  0  0  0
 24 25  4  0  0  0  0
 24 30  1  0  0  0  0
 25 26  4  0  0  0  0
 25 28  1  0  0  0  0
 26 27  4  0  0  0  0
 26 31  1  0  0  0  0
 27 32  1  0  0  0  0
 28 33  1  0  0  0  0
 28 34  1  0  0  0  0
M  END
> <BCLConfClusterSize>
1

> <ConfClashScore>
0 

> <ConfOneFourInteractionScore>
-0.957074 

> <ConfScore>
-0.0261022 

> <ConfScorePBest>
0.00450159 

> <ConfTolerance>
0.463403 

> <RosettaParamsInstructions>
M  ROOT 3
M  POLY_N_BB 3
M  POLY_CA_BB 4
M  POLY_C_BB 2
M  POLY_O_BB 5
M  POLY_IGNORE 9 10 11 12 13 14 15 16 17 18 
M  POLY_UPPER 6
M  POLY_LOWER 8
M  POLY_CHG 0
M  POLY_PROPERTIES ALPHA_AA L_AA PROTEIN AROMATIC POLYMER 
M  END

$$$$



 34 34  0  0  0  0  0  0  0  0999 V2000
   -0.5184    2.7445   -0.5799 H   0  0  0  1  0  0  0  0  0  0  0  0
    0.2687    4.4012    0.4431 C   0  0  0  1  0  0  0  0  0  0  0  0
    0.9060    2.0968    0.7582 N   0  0  0  1  0  0  0  0  0  0  0  0
   -0.2089    2.9669    0.4200 C   0  0  0  1  0  0  0  0  0  0  0  0
   -0.1636    5.2233   -0.3637 O   0  0  0  1  0  0  0  0  0  0  0  0
    1.1722    4.7476    1.3643 N   0  0  0  1  0  0  0  0  0  0  0  0
    0.8789    1.5646    1.5807 H   0  0  0  1  0  0  0  0  0  0  0  0
    1.9673    2.0214   -0.0499 C   0  0  0  1  0  0  0  0  0  0  0  0
    1.8381    6.0416    1.3521 C   0  0  0  1  0  0  0  0  0  0  0  0
    3.0998    1.1352    0.4310 C   0  0  0  1  0  0  0  0  0  0  0  0
    2.0384    2.6201   -1.1106 O   0  0  0  1  0  0  0  0  0  0  0  0
    1.3944    4.1080    2.0729 H   0  0  0  1  0  0  0  0  0  0  0  0
    2.8674    5.9161    1.6160 H   0  0  0  1  0  0  0  0  0  0  0  0
    1.3658    6.6921    2.0583 H   0  0  0  1  0  0  0  0  0  0  0  0
    1.7706    6.4679    0.3730 H   0  0  0  1  0  0  0  0  0  0  0  0
    3.4690    1.5030    1.3655 H   0  0  0  1  0  0  0  0  0  0  0  0
    3.8890    1.1419   -0.2915 H   0  0  0  1  0  0  0  0  0  0  0  0
    2.7405    0.1354    0.5583 H   0  0  0  1  0  0  0  0  0  0  0  0
   -5.4368    6.7506    0.9385 N   0  3  0  1  0  0  0  0  0  0  0  0
   -5.5626    7.3185   -0.0996 O   0  0  0  1  0  0  0  0  0  0  0  0
   -6.1888    7.0097    2.0170 O   0  5  0  1  0  0  0  0  0  0  0  0
   -4.4236    5.7325    1.0400 C   0  0  0  1  0  0  0  0  0  0  0  0
   -3.6212    5.4476   -0.0487 C   0  0  0  1  0  0  0  0  0  0  0  0
   -2.6416    4.4716    0.0486 C   0  0  0  1  0  0  0  0  0  0  0  0
   -2.4711    3.7795    1.2328 C   0  0  0  1  0  0  0  0  0  0  0  0
   -3.2758    4.0651    2.3247 C   0  0  0  1  0  0  0  0  0  0  0  0
   -4.2524    5.0383    2.2276 C   0  0  0  1  0  0  0  0  0  0  0  0
   -1.4079    2.7118    1.3378 C   0  0  0  1  0  0  0  0  0  0  0  0
   -3.7522    5.9656   -0.9409 H   0  0  0  1  0  0  0  0  0  0  0  0
   -2.0352    4.2600   -0.7694 H   0  0  0  1  0  0  0  0  0  0  0  0
   -3.1448    3.5471    3.2170 H   0  0  0  1  0  0  0  0  0  0  0  0
   -4.8588    5.2498    3.0455 H   0  0  0  1  0  0  0  0  0  0  0  0
   -1.0608    2.6751    2.3493 H   0  0  0  1  0  0  0  0  0  0  0  0
   -1.8435    1.7704    1.0753 H   0  0  0  1  0  0  0  0  0  0  0  0
  1  4  1  0  0  0  0
  2  4  1  0  0  0  0
  2  5  2  0  0  0  0
  2  6  1  0  0  0  0
  3  4  1  0  0  0  0
  3  7  1  0  0  0  0
  3  8  1  0  0  0  0
  4 28  1  0  0  0  0
  6  9  1  0  0  0  0
  6 12  1  0  0  0  0
  8 10  1  0  0  0  0
  8 11  2  0  0  0  0
  9 13  1  0  0  0  0
  9 14  1  0  0  0  0
  9 15  1  0  0  0  0
 10 16  1  0  0  0  0
 10 17  1  0  0  0  0
 10 18  1  0  0  0  0
 19 20  2  0  0  0  0
 19 21  1  0  0  0  0
 19 22  1  0  0  0  0
 22 23  4  0  0  0  0
 22 27  4  0  0  0  0
 23 24  4  0  0  0  0
 23 29  1  0  0  0  0
 24 25  4  0  0  0  0
 24 30  1  0  0  0  0
 25 26  4  0  0  0  0
 25 28  1  0  0  0  0
 26 27  4  0  0  0  0
 26 31  1  0  0  0  0
 27 32  1  0  0  0  0
 28 33  1  0  0  0  0
 28 34  1  0  0  0  0
M  END
> <BCLConfClusterSize>
1

> <ConfClashScore>
0 

> <ConfOneFourInteractionScore>
-0.949001 

> <ConfScore>
-0.0245862 

> <ConfScorePBest>
0.00447311 

> <ConfTolerance>
0.579826 

> <RosettaParamsInstructions>
M  ROOT 3
M  POLY_N_BB 3
M  POLY_CA_BB 4
M  POLY_C_BB 2
M  POLY_O_BB 5
M  POLY_IGNORE 9 10 11 12 13 14 15 16 17 18 
M  POLY_UPPER 6
M  POLY_LOWER 8
M  POLY_CHG 0
M  POLY_PROPERTIES ALPHA_AA L_AA PROTEIN AROMATIC POLYMER 
M  END

$$$$



 34 34  0  0  0  0  0  0  0  0999 V2000
   -2.7702    1.4772    0.1138 H   0  0  0  1  0  0  0  0  0  0  0  0
   -1.1080    0.2626    0.5788 C   0  0  0  1  0  0  0  0  0  0  0  0
   -2.9207    0.9137    2.0970 N   0  0  0  1  0  0  0  0  0  0  0  0
   -2.1226    1.3259    0.9520 C   0  0  0  1  0  0  0  0  0  0  0  0
   -0.4263    0.3603   -0.4407 O   0  0  0  1  0  0  0  0  0  0  0  0
   -1.0109   -0.7686    1.4228 N   0  0  0  1  0  0  0  0  0  0  0  0
   -2.4644    0.6820    2.9327 H   0  0  0  1  0  0  0  0  0  0  0  0
   -4.2538    0.8401    2.0483 C   0  0  0  1  0  0  0  0  0  0  0  0
   -0.0881   -1.8715    1.1997 C   0  0  0  1  0  0  0  0  0  0  0  0
   -4.9518    0.3597    3.3169 C   0  0  0  1  0  0  0  0  0  0  0  0
   -4.9001    1.2135    1.0707 O   0  0  0  1  0  0  0  0  0  0  0  0
   -1.5809   -0.7827    2.2199 H   0  0  0  1  0  0  0  0  0  0  0  0
    0.4678   -1.6962    0.3024 H   0  0  0  1  0  0  0  0  0  0  0  0
   -0.6392   -2.7838    1.1051 H   0  0  0  1  0  0  0  0  0  0  0  0
    0.5857   -1.9455    2.0276 H   0  0  0  1  0  0  0  0  0  0  0  0
   -5.0346   -0.7069    3.2969 H   0  0  0  1  0  0  0  0  0  0  0  0
   -5.9290    0.7921    3.3716 H   0  0  0  1  0  0  0  0  0  0  0  0
   -4.3813    0.6570    4.1719 H   0  0  0  1  0  0  0  0  0  0  0  0
   -5.4307    6.7576    0.9405 N   0  3  0  1  0  0  0  0  0  0  0  0
   -5.5359    7.3303   -0.0973 O   0  0  0  1  0  0  0  0  0  0  0  0
   -6.2511    6.9458    1.9831 O   0  5  0  1  0  0  0  0  0  0  0  0
   -4.4167    5.7406    1.0454 C   0  0  0  1  0  0  0  0  0  0  0  0
   -3.6075    5.4595   -0.0392 C   0  0  0  1  0  0  0  0  0  0  0  0
   -2.6273    4.4845    0.0614 C   0  0  0  1  0  0  0  0  0  0  0  0
   -2.4628    3.7897    1.2448 C   0  0  0  1  0  0  0  0  0  0  0  0
   -3.2743    4.0715    2.3327 C   0  0  0  1  0  0  0  0  0  0  0  0
   -4.2515    5.0436    2.2322 C   0  0  0  1  0  0  0  0  0  0  0  0
   -1.4545    2.6656    1.2802 C   0  0  0  1  0  0  0  0  0  0  0  0
   -3.7340    5.9795   -0.9310 H   0  0  0  1  0  0  0  0  0  0  0  0
   -2.0157    4.2758   -0.7535 H   0  0  0  1  0  0  0  0  0  0  0  0
   -3.1478    3.5515    3.2244 H   0  0  0  1  0  0  0  0  0  0  0  0
   -4.8631    5.2523    3.0471 H   0  0  0  1  0  0  0  0  0  0  0  0
   -0.6867    2.8603    0.5609 H   0  0  0  1  0  0  0  0  0  0  0  0
   -1.0229    2.6121    2.2579 H   0  0  0  1  0  0  0  0  0  0  0  0
  1  4  1  0  0  0  0
  2  4  1  0  0  0  0
  2  5  2  0  0  0  0
  2  6  1  0  0  0  0
  3  4  1  0  0  0  0
  3  7  1  0  0  0  0
  3  8  1  0  0  0  0
  4 28  1  0  0  0  0
  6  9  1  0  0  0  0
  6 12  1  0  0  0  0
  8 10  1  0  0  0  0
  8 11  2  0  0  0  0
  9 13  1  0  0  0  0
  9 14  1  0  0  0  0
  9 15  1  0  0  0  0
 10 16  1  0  0  0  0
 10 17  1  0  0  0  0
 10 18  1  0  0  0  0
 19 20  2  0  0  0  0
 19 21  1  0  0  0  0
 19 22  1  0  0  0  0
 22 23  4  0  0  0  0
 22 27  4  0  0  0  0
 23 24  4  0  0  0  0
 23 29  1  0  0  0  0
 24 25  4  0  0  0  0
 24 30  1  0  0  0  0
 25 26  4  0  0  0  0
 25 28  1  0  0  0  0
 26 27  4  0  0  0  0
 26 31  1  0  0  0  0
 27 32  1  0  0  0  0
 28 33  1  0  0  0  0
 28 34  1  0  0  0  0
M  END
> <BCLConfClusterSize>
1

> <ConfClashScore>
0 

> <ConfOneFourInteractionScore>
-0.957334 

> <ConfScore>
-0.0232307 

> <ConfScorePBest>
0.00444463 

> <ConfTolerance>
0.415789 

> <RosettaParamsInstructions>
M  ROOT 3
M  POLY_N_BB 3
M  POLY_CA_BB 4
M  POLY_C_BB 2
M  POLY_O_BB 5
M  POLY_IGNORE 9 10 11 12 13 14 15 16 17 18 
M  POLY_UPPER 6
M  POLY_LOWER 8
M  POLY_CHG 0
M  POLY_PROPERTIES ALPHA_AA L_AA PROTEIN AROMATIC POLYMER 
M  END

$$$$



 34 34  0  0  0  0  0  0  0  0999 V2000
   -2.4524    1.2610    2.4725 H   0  0  0  1  0  0  0  0  0  0  0  0
   -3.0928    0.9688    0.4819 C   0  0  0  1  0  0  0  0  0  0  0  0
   -0.9577    0.2799    1.4346 N   0  0  0  1  0  0  0  0  0  0  0  0
   -2.0107    1.2824    1.4981 C   0  0  0  1  0  0  0  0  0  0  0  0
   -2.8720    1.0331   -0.7246 O   0  0  0  1  0  0  0  0  0  0  0  0
   -4.2865    0.6225    0.9891 N   0  0  0  1  0  0  0  0  0  0  0  0
   -0.0300    0.5749    1.3216 H   0  0  0  1  0  0  0  0  0  0  0  0
   -1.2128   -1.0342    1.5253 C   0  0  0  1  0  0  0  0  0  0  0  0
   -5.4907    0.3946    0.2044 C   0  0  0  1  0  0  0  0  0  0  0  0
   -0.0448   -1.9916    1.4534 C   0  0  0  1  0  0  0  0  0  0  0  0
   -2.3623   -1.4505    1.6631 O   0  0  0  1  0  0  0  0  0  0  0  0
   -4.3518    0.5150    1.9610 H   0  0  0  1  0  0  0  0  0  0  0  0
   -5.3018   -0.3619   -0.5283 H   0  0  0  1  0  0  0  0  0  0  0  0
   -5.7740    1.3027   -0.2856 H   0  0  0  1  0  0  0  0  0  0  0  0
   -6.2819    0.0755    0.8503 H   0  0  0  1  0  0  0  0  0  0  0  0
    0.5857   -1.8506    2.3063 H   0  0  0  1  0  0  0  0  0  0  0  0
    0.5153   -1.8041    0.5611 H   0  0  0  1  0  0  0  0  0  0  0  0
   -0.4089   -2.9977    1.4417 H   0  0  0  1  0  0  0  0  0  0  0  0
   -5.4115    6.7356    0.8897 N   0  3  0  1  0  0  0  0  0  0  0  0
   -5.4701    7.2639   -0.1750 O   0  0  0  1  0  0  0  0  0  0  0  0
   -6.2195    7.0458    1.9126 O   0  5  0  1  0  0  0  0  0  0  0  0
   -4.4393    5.7293    1.0840 C   0  0  0  1  0  0  0  0  0  0  0  0
   -3.6413    5.4612   -0.0121 C   0  0  0  1  0  0  0  0  0  0  0  0
   -2.6509    4.4948    0.0712 C   0  0  0  1  0  0  0  0  0  0  0  0
   -2.4652    3.7957    1.2489 C   0  0  0  1  0  0  0  0  0  0  0  0
   -3.2655    4.0644    2.3483 C   0  0  0  1  0  0  0  0  0  0  0  0
   -4.2528    5.0279    2.2650 C   0  0  0  1  0  0  0  0  0  0  0  0
   -1.4462    2.6808    1.2659 C   0  0  0  1  0  0  0  0  0  0  0  0
   -3.7838    5.9845   -0.8995 H   0  0  0  1  0  0  0  0  0  0  0  0
   -2.0478    4.2959   -0.7524 H   0  0  0  1  0  0  0  0  0  0  0  0
   -3.1230    3.5411    3.2357 H   0  0  0  1  0  0  0  0  0  0  0  0
   -4.8560    5.2268    3.0886 H   0  0  0  1  0  0  0  0  0  0  0  0
   -0.9415    2.6805    0.3224 H   0  0  0  1  0  0  0  0  0  0  0  0
   -0.7441    2.8872    2.0465 H   0  0  0  1  0  0  0  0  0  0  0  0
  1  4  1  0  0  0  0
  2  4  1  0  0  0  0
  2  5  2  0  0  0  0
  2  6  1  0  0  0  0
  3  4  1  0  0  0  0
  3  7  1  0  0  0  0
  3  8  1  0  0  0  0
  4 28  1  0  0  0  0
  6  9  1  0  0  0  0
  6 12  1  0  0  0  0
  8 10  1  0  0  0  0
  8 11  2  0  0  0  0
  9 13  1  0  0  0  0
  9 14  1  0  0  0  0
  9 15  1  0  0  0  0
 10 16  1  0  0  0  0
 10 17  1  0  0  0  0
 10 18  1  0  0  0  0
 19 20  2  0  0  0  0
 19 21  1  0  0  0  0
 19 22  1  0  0  0  0
 22 23  4  0  0  0  0
 22 27  4  0  0  0  0
 23 24  4  0  0  0  0
 23 29  1  0  0  0  0
 24 25  4  0  0  0  0
 24 30  1  0  0  0  0
 25 26  4  0  0  0  0
 25 28  1  0  0  0  0
 26 27  4  0  0  0  0
 26 31  1  0  0  0  0
 27 32  1  0  0  0  0
 28 33  1  0  0  0  0
 28 34  1  0  0  0  0
M  END
> <BCLConfClusterSize>
1

> <ConfClashScore>
0 

> <ConfOneFourInteractionScore>
-0.979134 

> <ConfScore>
-0.0224505 

> <ConfScorePBest>
0.00441614 

> <ConfTolerance>
0.415752 

> <RosettaParamsInstructions>
M  ROOT 3
M  POLY_N_BB 3
M  POLY_CA_BB 4
M  POLY_C_BB 2
M  POLY_O_BB 5
M  POLY_IGNORE 9 10 11 12 13 14 15 16 17 18 
M  POLY_UPPER 6
M  POLY_LOWER 8
M  POLY_CHG 0
M  POLY_PROPERTIES ALPHA_AA L_AA PROTEIN AROMATIC POLYMER 
M  END

$$$$



 34 34  0  0  0  0  0  0  0  0999 V2000
   -0.3118    3.3865   -0.3617 H   0  0  0  1  0  0  0  0  0  0  0  0
    0.5113    1.5477    0.2755 C   0  0  0  1  0  0  0  0  0  0  0  0
   -1.6486    1.9103   -0.9076 N   0  0  0  1  0  0  0  0  0  0  0  0
   -0.6812    2.4616    0.0294 C   0  0  0  1  0  0  0  0  0  0  0  0
    0.4249    0.3400    0.1261 O   0  0  0  1  0  0  0  0  0  0  0  0
    1.6379    2.1545    0.6598 N   0  0  0  1  0  0  0  0  0  0  0  0
   -2.5875    1.8451   -0.6344 H   0  0  0  1  0  0  0  0  0  0  0  0
   -1.2882    1.4740   -2.1734 C   0  0  0  1  0  0  0  0  0  0  0  0
    2.8455    1.4134    0.9922 C   0  0  0  1  0  0  0  0  0  0  0  0
   -2.3057    0.7581   -3.0165 C   0  0  0  1  0  0  0  0  0  0  0  0
   -0.1539    1.6866   -2.5614 O   0  0  0  1  0  0  0  0  0  0  0  0
    1.6515    3.1325    0.7200 H   0  0  0  1  0  0  0  0  0  0  0  0
    3.3668    1.9151    1.7805 H   0  0  0  1  0  0  0  0  0  0  0  0
    3.4758    1.3537    0.1296 H   0  0  0  1  0  0  0  0  0  0  0  0
    2.5817    0.4266    1.3109 H   0  0  0  1  0  0  0  0  0  0  0  0
   -3.1624    1.3848   -3.1516 H   0  0  0  1  0  0  0  0  0  0  0  0
   -2.5999   -0.1473   -2.5280 H   0  0  0  1  0  0  0  0  0  0  0  0
   -1.8793    0.5270   -3.9703 H   0  0  0  1  0  0  0  0  0  0  0  0
   -5.4003    6.7834    0.9527 N   0  3  0  1  0  0  0  0  0  0  0  0
   -5.4691    7.3881   -0.0699 O   0  0  0  1  0  0  0  0  0  0  0  0
   -6.1966    7.0071    2.0069 O   0  5  0  1  0  0  0  0  0  0  0  0
   -4.4657    5.6902    1.0237 C   0  0  0  1  0  0  0  0  0  0  0  0
   -3.6464    5.4248   -0.0574 C   0  0  0  1  0  0  0  0  0  0  0  0
   -2.6409    4.4768    0.0511 C   0  0  0  1  0  0  0  0  0  0  0  0
   -2.4611    3.7931    1.2387 C   0  0  0  1  0  0  0  0  0  0  0  0
   -3.2827    4.0591    2.3230 C   0  0  0  1  0  0  0  0  0  0  0  0
   -4.2852    5.0044    2.2147 C   0  0  0  1  0  0  0  0  0  0  0  0
   -1.3695    2.7558    1.3559 C   0  0  0  1  0  0  0  0  0  0  0  0
   -3.7844    5.9364   -0.9523 H   0  0  0  1  0  0  0  0  0  0  0  0
   -2.0219    4.2800   -0.7611 H   0  0  0  1  0  0  0  0  0  0  0  0
   -3.1448    3.5475    3.2179 H   0  0  0  1  0  0  0  0  0  0  0  0
   -4.9042    5.2011    3.0269 H   0  0  0  1  0  0  0  0  0  0  0  0
   -0.6356    3.1105    2.0490 H   0  0  0  1  0  0  0  0  0  0  0  0
   -1.8000    1.8484    1.7248 H   0  0  0  1  0  0  0  0  0  0  0  0
  1  4  1  0  0  0  0
  2  4  1  0  0  0  0
  2  5  2  0  0  0  0
  2  6  1  0  0  0  0
  3  4  1  0  0  0  0
  3  7  1  0  0  0  0
  3  8  1  0  0  0  0
  4 28  1  0  0  0  0
  6  9  1  0  0  0  0
  6 12  1  0  0  0  0
  8 10  1  0  0  0  0
  8 11  2  0  0  0  0
  9 13  1  0  0  0  0
  9 14  1  0  0  0  0
  9 15  1  0  0  0  0
 10 16  1  0  0  0  0
 10 17  1  0  0  0  0
 10 18  1  0  0  0  0
 19 20  2  0  0  0  0
 19 21  1  0  0  0  0
 19 22  1  0  0  0  0
 22 23  4  0  0  0  0
 22 27  4  0  0  0  0
 23 24  4  0  0  0  0
 23 29  1  0  0  0  0
 24 25  4  0  0  0  0
 24 30  1  0  0  0  0
 25 26  4  0  0  0  0
 25 28  1  0  0  0  0
 26 27  4  0  0  0  0
 26 31  1  0  0  0  0
 27 32  1  0  0  0  0
 28 33  1  0  0  0  0
 28 34  1  0  0  0  0
M  END
> <BCLConfClusterSize>
1

> <ConfClashScore>
0 

> <ConfOneFourInteractionScore>
-0.97449 

> <ConfScore>
-0.0156467 

> <ConfScorePBest>
0.00438766 

> <ConfTolerance>
0.501785 

> <RosettaParamsInstructions>
M  ROOT 3
M  POLY_N_BB 3
M  POLY_CA_BB 4
M  POLY_C_BB 2
M  POLY_O_BB 5
M  POLY_IGNORE 9 10 11 12 13 14 15 16 17 18 
M  POLY_UPPER 6
M  POLY_LOWER 8
M  POLY_CHG 0
M  POLY_PROPERTIES ALPHA_AA L_AA PROTEIN AROMATIC POLYMER 
M  END

$$$$



 34 34  0  0  0  0  0  0  0  0999 V2000
   -1.7653    1.4509   -0.2892 H   0  0  0  1  0  0  0  0  0  0  0  0
   -0.7984    0.2620    1.1386 C   0  0  0  1  0  0  0  0  0  0  0  0
   -3.1583    0.9336    1.1231 N   0  0  0  1  0  0  0  0  0  0  0  0
   -1.8045    1.3376    0.7741 C   0  0  0  1  0  0  0  0  0  0  0  0
   -1.0246   -0.5571    2.0253 O   0  0  0  1  0  0  0  0  0  0  0  0
    0.3269    0.3060    0.4079 N   0  0  0  1  0  0  0  0  0  0  0  0
   -3.5471    1.2577    1.9623 H   0  0  0  1  0  0  0  0  0  0  0  0
   -3.8870    0.1390    0.3421 C   0  0  0  1  0  0  0  0  0  0  0  0
    1.4828   -0.5559    0.6055 C   0  0  0  1  0  0  0  0  0  0  0  0
   -5.2845   -0.2482    0.8129 C   0  0  0  1  0  0  0  0  0  0  0  0
   -3.5003   -0.3028   -0.7390 O   0  0  0  1  0  0  0  0  0  0  0  0
    0.3736    0.9683   -0.3129 H   0  0  0  1  0  0  0  0  0  0  0  0
    1.9390   -0.3313    1.5469 H   0  0  0  1  0  0  0  0  0  0  0  0
    2.1890   -0.3910   -0.1812 H   0  0  0  1  0  0  0  0  0  0  0  0
    1.1701   -1.5792    0.5961 H   0  0  0  1  0  0  0  0  0  0  0  0
   -5.7751   -0.8135    0.0482 H   0  0  0  1  0  0  0  0  0  0  0  0
   -5.8490    0.6369    1.0195 H   0  0  0  1  0  0  0  0  0  0  0  0
   -5.2101   -0.8399    1.7013 H   0  0  0  1  0  0  0  0  0  0  0  0
   -5.4186    6.7584    0.9623 N   0  3  0  1  0  0  0  0  0  0  0  0
   -5.1240    7.8907    0.7451 O   0  0  0  1  0  0  0  0  0  0  0  0
   -6.7217    6.4879    1.1180 O   0  5  0  1  0  0  0  0  0  0  0  0
   -4.4098    5.7347    1.0515 C   0  0  0  1  0  0  0  0  0  0  0  0
   -3.5432    5.5271   -0.0051 C   0  0  0  1  0  0  0  0  0  0  0  0
   -2.5679    4.5457    0.0808 C   0  0  0  1  0  0  0  0  0  0  0  0
   -2.4656    3.7713    1.2211 C   0  0  0  1  0  0  0  0  0  0  0  0
   -3.3347    3.9795    2.2807 C   0  0  0  1  0  0  0  0  0  0  0  0
   -4.3069    4.9579    2.1949 C   0  0  0  1  0  0  0  0  0  0  0  0
   -1.4277    2.6841    1.3701 C   0  0  0  1  0  0  0  0  0  0  0  0
   -3.6228    6.1072   -0.8646 H   0  0  0  1  0  0  0  0  0  0  0  0
   -1.9133    4.3922   -0.7126 H   0  0  0  1  0  0  0  0  0  0  0  0
   -3.2550    3.3994    3.1403 H   0  0  0  1  0  0  0  0  0  0  0  0
   -4.9616    5.1114    2.9883 H   0  0  0  1  0  0  0  0  0  0  0  0
   -0.5301    3.0170    0.8923 H   0  0  0  1  0  0  0  0  0  0  0  0
   -1.2451    2.5431    2.4149 H   0  0  0  1  0  0  0  0  0  0  0  0
  1  4  1  0  0  0  0
  2  4  1  0  0  0  0
  2  5  2  0  0  0  0
  2  6  1  0  0  0  0
  3  4  1  0  0  0  0
  3  7  1  0  0  0  0
  3  8  1  0  0  0  0
  4 28  1  0  0  0  0
  6  9  1  0  0  0  0
  6 12  1  0  0  0  0
  8 10  1  0  0  0  0
  8 11  2  0  0  0  0
  9 13  1  0  0  0  0
  9 14  1  0  0  0  0
  9 15  1  0  0  0  0
 10 16  1  0  0  0  0
 10 17  1  0  0  0  0
 10 18  1  0  0  0  0
 19 20  2  0  0  0  0
 19 21  1  0  0  0  0
 19 22  1  0  0  0  0
 22 23  4  0  0  0  0
 22 27  4  0  0  0  0
 23 24  4  0  0  0  0
 23 29  1  0  0  0  0
 24 25  4  0  0  0  0
 24 30  1  0  0  0  0
 25 26  4  0  0  0  0
 25 28  1  0  0  0  0
 26 27  4  0  0  0  0
 26 31  1  0  0  0  0
 27 32  1  0  0  0  0
 28 33  1  0  0  0  0
 28 34  1  0  0  0  0
M  END
> <BCLConfClusterSize>
1

> <ConfClashScore>
0 

> <ConfOneFourInteractionScore>
-0.987695 

> <ConfScore>
-0.0131821 

> <ConfScorePBest>
0.00435918 

> <ConfTolerance>
0.609556 

> <RosettaParamsInstructions>
M  ROOT 3
M  POLY_N_BB 3
M  POLY_CA_BB 4
M  POLY_C_BB 2
M  POLY_O_BB 5
M  POLY_IGNORE 9 10 11 12 13 14 15 16 17 18 
M  POLY_UPPER 6
M  POLY_LOWER 8
M  POLY_CHG 0
M  POLY_PROPERTIES ALPHA_AA L_AA PROTEIN AROMATIC POLYMER 
M  END

$$$$



 34 34  0  0  0  0  0  0  0  0999 V2000
    0.1661    4.1192    0.9080 H   0  0  0  1  0  0  0  0  0  0  0  0
    1.0267    2.2038    1.1001 C   0  0  0  1  0  0  0  0  0  0  0  0
   -0.2400    3.0989   -0.8438 N   0  0  0  1  0  0  0  0  0  0  0  0
   -0.0742    3.1215    0.6052 C   0  0  0  1  0  0  0  0  0  0  0  0
    1.5114    2.4310    2.2079 O   0  0  0  1  0  0  0  0  0  0  0  0
    1.4115    1.2019    0.3125 N   0  0  0  1  0  0  0  0  0  0  0  0
   -1.1248    2.9006   -1.2155 H   0  0  0  1  0  0  0  0  0  0  0  0
    0.7768    3.3400   -1.6853 C   0  0  0  1  0  0  0  0  0  0  0  0
    2.6306    0.4455    0.5563 C   0  0  0  1  0  0  0  0  0  0  0  0
    0.4359    3.2936   -3.1576 C   0  0  0  1  0  0  0  0  0  0  0  0
    1.9179    3.5846   -1.3027 O   0  0  0  1  0  0  0  0  0  0  0  0
    0.8544    0.9656   -0.4584 H   0  0  0  1  0  0  0  0  0  0  0  0
    2.6910    0.1899    1.5936 H   0  0  0  1  0  0  0  0  0  0  0  0
    3.4786    1.0392    0.2855 H   0  0  0  1  0  0  0  0  0  0  0  0
    2.6186   -0.4489   -0.0310 H   0  0  0  1  0  0  0  0  0  0  0  0
    0.7497    2.3563   -3.5675 H   0  0  0  1  0  0  0  0  0  0  0  0
    0.9382    4.0906   -3.6651 H   0  0  0  1  0  0  0  0  0  0  0  0
   -0.6213    3.4010   -3.2823 H   0  0  0  1  0  0  0  0  0  0  0  0
   -5.4692    6.7332    1.0170 N   0  3  0  1  0  0  0  0  0  0  0  0
   -6.2651    6.7986    1.8992 O   0  0  0  1  0  0  0  0  0  0  0  0
   -5.3891    7.5058   -0.0749 O   0  5  0  1  0  0  0  0  0  0  0  0
   -4.4369    5.7299    1.0549 C   0  0  0  1  0  0  0  0  0  0  0  0
   -3.6534    5.4359   -0.0451 C   0  0  0  1  0  0  0  0  0  0  0  0
   -2.6687    4.4644    0.0450 C   0  0  0  1  0  0  0  0  0  0  0  0
   -2.4740    3.7860    1.2333 C   0  0  0  1  0  0  0  0  0  0  0  0
   -3.2598    4.0808    2.3366 C   0  0  0  1  0  0  0  0  0  0  0  0
   -4.2415    5.0494    2.2467 C   0  0  0  1  0  0  0  0  0  0  0  0
   -1.3917    2.7333    1.2751 C   0  0  0  1  0  0  0  0  0  0  0  0
   -3.8027    5.9436   -0.9404 H   0  0  0  1  0  0  0  0  0  0  0  0
   -2.0765    4.2460   -0.7816 H   0  0  0  1  0  0  0  0  0  0  0  0
   -3.1105    3.5731    3.2319 H   0  0  0  1  0  0  0  0  0  0  0  0
   -4.8337    5.2678    3.0732 H   0  0  0  1  0  0  0  0  0  0  0  0
   -1.1871    2.5108    2.3015 H   0  0  0  1  0  0  0  0  0  0  0  0
   -1.7645    1.8571    0.7871 H   0  0  0  1  0  0  0  0  0  0  0  0
  1  4  1  0  0  0  0
  2  4  1  0  0  0  0
  2  5  2  0  0  0  0
  2  6  1  0  0  0  0
  3  4  1  0  0  0  0
  3  7  1  0  0  0  0
  3  8  1  0  0  0  0
  4 28  1  0  0  0  0
  6  9  1  0  0  0  0
  6 12  1  0  0  0  0
  8 10  1  0  0  0  0
  8 11  2  0  0  0  0
  9 13  1  0  0  0  0
  9 14  1  0  0  0  0
  9 15  1  0  0  0  0
 10 16  1  0  0  0  0
 10 17  1  0  0  0  0
 10 18  1  0  0  0  0
 19 20  2  0  0  0  0
 19 21  1  0  0  0  0
 19 22  1  0  0  0  0
 22 23  4  0  0  0  0
 22 27  4  0  0  0  0
 23 24  4  0  0  0  0
 23 29  1  0  0  0  0
 24 25  4  0  0  0  0
 24 30  1  0  0  0  0
 25 26  4  0  0  0  0
 25 28  1  0  0  0  0
 26 27  4  0  0  0  0
 26 31  1  0  0  0  0
 27 32  1  0  0  0  0
 28 33  1  0  0  0  0
 28 34  1  0  0  0  0
M  END
> <BCLConfClusterSize>
1

> <ConfClashScore>
0 

> <ConfOneFourInteractionScore>
-0.944706 

> <ConfScore>
-0.0129737 

> <ConfScorePBest>
0.0043307 

> <ConfTolerance>
0.549692 

> <RosettaParamsInstructions>
M  ROOT 3
M  POLY_N_BB 3
M  POLY_CA_BB 4
M  POLY_C_BB 2
M  POLY_O_BB 5
M  POLY_IGNORE 9 10 11 12 13 14 15 16 17 18 
M  POLY_UPPER 6
M  POLY_LOWER 8
M  POLY_CHG 0
M  POLY_PROPERTIES ALPHA_AA L_AA PROTEIN AROMATIC POLYMER 
M  END

$$$$



 34 34  0  0  0  0  0  0  0  0999 V2000
    0.1055    3.5919    0.2106 H   0  0  0  1  0  0  0  0  0  0  0  0
    0.2648    4.4616    2.1088 C   0  0  0  1  0  0  0  0  0  0  0  0
    1.0295    2.2277    1.4345 N   0  0  0  1  0  0  0  0  0  0  0  0
    0.0173    3.2562    1.2228 C   0  0  0  1  0  0  0  0  0  0  0  0
    0.0866    5.6088    1.7015 O   0  0  0  1  0  0  0  0  0  0  0  0
    0.6855    4.1460    3.3439 N   0  0  0  1  0  0  0  0  0  0  0  0
    0.7594    1.3213    1.6914 H   0  0  0  1  0  0  0  0  0  0  0  0
    2.3221    2.5181    1.2792 C   0  0  0  1  0  0  0  0  0  0  0  0
    0.8629    5.1883    4.3439 C   0  0  0  1  0  0  0  0  0  0  0  0
    3.2945    1.4712    1.7737 C   0  0  0  1  0  0  0  0  0  0  0  0
    2.7168    3.5655    0.7686 O   0  0  0  1  0  0  0  0  0  0  0  0
    0.8735    3.2118    3.5726 H   0  0  0  1  0  0  0  0  0  0  0  0
    1.7160    5.7831    4.0924 H   0  0  0  1  0  0  0  0  0  0  0  0
    1.0117    4.7396    5.3038 H   0  0  0  1  0  0  0  0  0  0  0  0
   -0.0086    5.8085    4.3708 H   0  0  0  1  0  0  0  0  0  0  0  0
    3.9315    1.1672    0.9695 H   0  0  0  1  0  0  0  0  0  0  0  0
    2.7516    0.6242    2.1380 H   0  0  0  1  0  0  0  0  0  0  0  0
    3.8886    1.8813    2.5635 H   0  0  0  1  0  0  0  0  0  0  0  0
   -5.4534    6.7342    0.9413 N   0  3  0  1  0  0  0  0  0  0  0  0
   -6.1296    6.7590   -0.0376 O   0  0  0  1  0  0  0  0  0  0  0  0
   -5.5931    7.5976    1.9565 O   0  5  0  1  0  0  0  0  0  0  0  0
   -4.4323    5.7235    1.0389 C   0  0  0  1  0  0  0  0  0  0  0  0
   -3.6879    5.3859   -0.0756 C   0  0  0  1  0  0  0  0  0  0  0  0
   -2.7009    4.4170    0.0174 C   0  0  0  1  0  0  0  0  0  0  0  0
   -2.4650    3.7848    1.2236 C   0  0  0  1  0  0  0  0  0  0  0  0
   -3.2115    4.1232    2.3415 C   0  0  0  1  0  0  0  0  0  0  0  0
   -4.1955    5.0892    2.2485 C   0  0  0  1  0  0  0  0  0  0  0  0
   -1.4078    2.7180    1.3846 C   0  0  0  1  0  0  0  0  0  0  0  0
   -3.8682    5.8589   -0.9842 H   0  0  0  1  0  0  0  0  0  0  0  0
   -2.1380    4.1659   -0.8202 H   0  0  0  1  0  0  0  0  0  0  0  0
   -3.0312    3.6503    3.2500 H   0  0  0  1  0  0  0  0  0  0  0  0
   -4.7584    5.3404    3.0862 H   0  0  0  1  0  0  0  0  0  0  0  0
   -1.5014    2.2903    2.3609 H   0  0  0  1  0  0  0  0  0  0  0  0
   -1.5720    1.9615    0.6460 H   0  0  0  1  0  0  0  0  0  0  0  0
  1  4  1  0  0  0  0
  2  4  1  0  0  0  0
  2  5  2  0  0  0  0
  2  6  1  0  0  0  0
  3  4  1  0  0  0  0
  3  7  1  0  0  0  0
  3  8  1  0  0  0  0
  4 28  1  0  0  0  0
  6  9  1  0  0  0  0
  6 12  1  0  0  0  0
  8 10  1  0  0  0  0
  8 11  2  0  0  0  0
  9 13  1  0  0  0  0
  9 14  1  0  0  0  0
  9 15  1  0  0  0  0
 10 16  1  0  0  0  0
 10 17  1  0  0  0  0
 10 18  1  0  0  0  0
 19 20  2  0  0  0  0
 19 21  1  0  0  0  0
 19 22  1  0  0  0  0
 22 23  4  0  0  0  0
 22 27  4  0  0  0  0
 23 24  4  0  0  0  0
 23 29  1  0  0  0  0
 24 25  4  0  0  0  0
 24 30  1  0  0  0  0
 25 26  4  0  0  0  0
 25 28  1  0  0  0  0
 26 27  4  0  0  0  0
 26 31  1  0  0  0  0
 27 32  1  0  0  0  0
 28 33  1  0  0  0  0
 28 34  1  0  0  0  0
M  END
> <BCLConfClusterSize>
1

> <ConfClashScore>
0 

> <ConfOneFourInteractionScore>
-0.960318 

> <ConfScore>
-0.0127586 

> <ConfScorePBest>
0.00430222 

> <ConfTolerance>
0.502557 

> <RosettaParamsInstructions>
M  ROOT 3
M  POLY_N_BB 3
M  POLY_CA_BB 4
M  POLY_C_BB 2
M  POLY_O_BB 5
M  POLY_IGNORE 9 10 11 12 13 14 15 16 17 18 
M  POLY_UPPER 6
M  POLY_LOWER 8
M  POLY_CHG 0
M  POLY_PROPERTIES ALPHA_AA L_AA PROTEIN AROMATIC POLYMER 
M  END

$$$$



 34 34  0  0  0  0  0  0  0  0999 V2000
   -2.2367    1.2844    0.0114 H   0  0  0  1  0  0  0  0  0  0  0  0
   -0.6805    0.3514    1.0923 C   0  0  0  1  0  0  0  0  0  0  0  0
   -2.9557    0.9328    1.9150 N   0  0  0  1  0  0  0  0  0  0  0  0
   -1.8702    1.2965    1.0166 C   0  0  0  1  0  0  0  0  0  0  0  0
    0.4695    0.7866    1.1334 O   0  0  0  1  0  0  0  0  0  0  0  0
   -0.9218   -0.9598    1.1128 N   0  0  0  1  0  0  0  0  0  0  0  0
   -2.7651    0.8330    2.8711 H   0  0  0  1  0  0  0  0  0  0  0  0
   -4.2013    0.7307    1.4824 C   0  0  0  1  0  0  0  0  0  0  0  0
    0.1135   -1.9806    1.1744 C   0  0  0  1  0  0  0  0  0  0  0  0
   -5.2312    0.4345    2.5551 C   0  0  0  1  0  0  0  0  0  0  0  0
   -4.5127    0.7775    0.2953 O   0  0  0  1  0  0  0  0  0  0  0  0
   -1.8559   -1.2548    1.0846 H   0  0  0  1  0  0  0  0  0  0  0  0
    1.0494   -1.5589    0.8723 H   0  0  0  1  0  0  0  0  0  0  0  0
   -0.1419   -2.7873    0.5194 H   0  0  0  1  0  0  0  0  0  0  0  0
    0.1943   -2.3463    2.1767 H   0  0  0  1  0  0  0  0  0  0  0  0
   -4.9694    0.9521    3.4543 H   0  0  0  1  0  0  0  0  0  0  0  0
   -5.2562   -0.6183    2.7442 H   0  0  0  1  0  0  0  0  0  0  0  0
   -6.1949    0.7608    2.2237 H   0  0  0  1  0  0  0  0  0  0  0  0
   -5.4539    6.7382    1.0052 N   0  3  0  1  0  0  0  0  0  0  0  0
   -6.0942    6.9291    1.9899 O   0  0  0  1  0  0  0  0  0  0  0  0
   -5.6410    7.4111   -0.1384 O   0  5  0  1  0  0  0  0  0  0  0  0
   -4.4249    5.7317    1.0458 C   0  0  0  1  0  0  0  0  0  0  0  0
   -3.6229    5.4524   -0.0447 C   0  0  0  1  0  0  0  0  0  0  0  0
   -2.6423    4.4770    0.0476 C   0  0  0  1  0  0  0  0  0  0  0  0
   -2.4701    3.7801    1.2287 C   0  0  0  1  0  0  0  0  0  0  0  0
   -3.2743    4.0601    2.3225 C   0  0  0  1  0  0  0  0  0  0  0  0
   -4.2520    5.0326    2.2302 C   0  0  0  1  0  0  0  0  0  0  0  0
   -1.4057    2.7131    1.3284 C   0  0  0  1  0  0  0  0  0  0  0  0
   -3.7553    5.9741   -0.9346 H   0  0  0  1  0  0  0  0  0  0  0  0
   -2.0362    4.2697   -0.7717 H   0  0  0  1  0  0  0  0  0  0  0  0
   -3.1420    3.5385    3.2124 H   0  0  0  1  0  0  0  0  0  0  0  0
   -4.8580    5.2400    3.0496 H   0  0  0  1  0  0  0  0  0  0  0  0
   -0.6232    2.9624    0.6424 H   0  0  0  1  0  0  0  0  0  0  0  0
   -1.0215    2.7223    2.3270 H   0  0  0  1  0  0  0  0  0  0  0  0
  1  4  1  0  0  0  0
  2  4  1  0  0  0  0
  2  5  2  0  0  0  0
  2  6  1  0  0  0  0
  3  4  1  0  0  0  0
  3  7  1  0  0  0  0
  3  8  1  0  0  0  0
  4 28  1  0  0  0  0
  6  9  1  0  0  0  0
  6 12  1  0  0  0  0
  8 10  1  0  0  0  0
  8 11  2  0  0  0  0
  9 13  1  0  0  0  0
  9 14  1  0  0  0  0
  9 15  1  0  0  0  0
 10 16  1  0  0  0  0
 10 17  1  0  0  0  0
 10 18  1  0  0  0  0
 19 20  2  0  0  0  0
 19 21  1  0  0  0  0
 19 22  1  0  0  0  0
 22 23  4  0  0  0  0
 22 27  4  0  0  0  0
 23 24  4  0  0  0  0
 23 29  1  0  0  0  0
 24 25  4  0  0  0  0
 24 30  1  0  0  0  0
 25 26  4  0  0  0  0
 25 28  1  0  0  0  0
 26 27  4  0  0  0  0
 26 31  1  0  0  0  0
 27 32  1  0  0  0  0
 28 33  1  0  0  0  0
 28 34  1  0  0  0  0
M  END
> <BCLConfClusterSize>
1

> <ConfClashScore>
0 

> <ConfOneFourInteractionScore>
-0.979783 

> <ConfScore>
-0.0108333 

> <ConfScorePBest>
0.00427374 

> <ConfTolerance>
0.383858 

> <RosettaParamsInstructions>
M  ROOT 3
M  POLY_N_BB 3
M  POLY_CA_BB 4
M  POLY_C_BB 2
M  POLY_O_BB 5
M  POLY_IGNORE 9 10 11 12 13 14 15 16 17 18 
M  POLY_UPPER 6
M  POLY_LOWER 8
M  POLY_CHG 0
M  POLY_PROPERTIES ALPHA_AA L_AA PROTEIN AROMATIC POLYMER 
M  END

$$$$



 34 34  0  0  0  0  0  0  0  0999 V2000
   -2.2750    1.4274   -0.1812 H   0  0  0  1  0  0  0  0  0  0  0  0
   -0.8784    0.2958    0.9493 C   0  0  0  1  0  0  0  0  0  0  0  0
   -3.0688    0.9604    1.6801 N   0  0  0  1  0  0  0  0  0  0  0  0
   -1.9537    1.3660    0.8376 C   0  0  0  1  0  0  0  0  0  0  0  0
    0.2864    0.5364    0.6346 O   0  0  0  1  0  0  0  0  0  0  0  0
   -1.2404   -0.9222    1.4028 N   0  0  0  1  0  0  0  0  0  0  0  0
   -3.8762    0.6208    1.2405 H   0  0  0  1  0  0  0  0  0  0  0  0
   -3.0619    1.0212    3.0120 C   0  0  0  1  0  0  0  0  0  0  0  0
   -0.2660   -2.0019    1.4548 C   0  0  0  1  0  0  0  0  0  0  0  0
   -4.3816    0.7133    3.6923 C   0  0  0  1  0  0  0  0  0  0  0  0
   -2.0588    1.3072    3.6644 O   0  0  0  1  0  0  0  0  0  0  0  0
   -2.1614   -1.0802    1.6979 H   0  0  0  1  0  0  0  0  0  0  0  0
    0.7126   -1.5933    1.5976 H   0  0  0  1  0  0  0  0  0  0  0  0
   -0.2926   -2.5505    0.5366 H   0  0  0  1  0  0  0  0  0  0  0  0
   -0.5015   -2.6557    2.2685 H   0  0  0  1  0  0  0  0  0  0  0  0
   -5.1244    0.5018    2.9518 H   0  0  0  1  0  0  0  0  0  0  0  0
   -4.6883    1.5575    4.2739 H   0  0  0  1  0  0  0  0  0  0  0  0
   -4.2633   -0.1367    4.3315 H   0  0  0  1  0  0  0  0  0  0  0  0
   -5.4670    6.7360    1.0643 N   0  3  0  1  0  0  0  0  0  0  0  0
   -6.2269    7.2147    1.8449 O   0  0  0  1  0  0  0  0  0  0  0  0
   -5.4227    7.1190   -0.2190 O   0  5  0  1  0  0  0  0  0  0  0  0
   -4.4427    5.7250    1.1141 C   0  0  0  1  0  0  0  0  0  0  0  0
   -3.6588    5.4825    0.0019 C   0  0  0  1  0  0  0  0  0  0  0  0
   -2.6688    4.5135    0.0495 C   0  0  0  1  0  0  0  0  0  0  0  0
   -2.4691    3.7861    1.2077 C   0  0  0  1  0  0  0  0  0  0  0  0
   -3.2552    4.0292    2.3232 C   0  0  0  1  0  0  0  0  0  0  0  0
   -4.2423    4.9954    2.2756 C   0  0  0  1  0  0  0  0  0  0  0  0
   -1.3944    2.7259    1.2585 C   0  0  0  1  0  0  0  0  0  0  0  0
   -3.8118    6.0271   -0.8708 H   0  0  0  1  0  0  0  0  0  0  0  0
   -2.0763    4.3338   -0.7861 H   0  0  0  1  0  0  0  0  0  0  0  0
   -3.1022    3.4846    3.1959 H   0  0  0  1  0  0  0  0  0  0  0  0
   -4.8347    5.1750    3.1112 H   0  0  0  1  0  0  0  0  0  0  0  0
   -0.6004    2.9992    0.5953 H   0  0  0  1  0  0  0  0  0  0  0  0
   -1.0173    2.6562    2.2574 H   0  0  0  1  0  0  0  0  0  0  0  0
  1  4  1  0  0  0  0
  2  4  1  0  0  0  0
  2  5  2  0  0  0  0
  2  6  1  0  0  0  0
  3  4  1  0  0  0  0
  3  7  1  0  0  0  0
  3  8  1  0  0  0  0
  4 28  1  0  0  0  0
  6  9  1  0  0  0  0
  6 12  1  0  0  0  0
  8 10  1  0  0  0  0
  8 11  2  0  0  0  0
  9 13  1  0  0  0  0
  9 14  1  0  0  0  0
  9 15  1  0  0  0  0
 10 16  1  0  0  0  0
 10 17  1  0  0  0  0
 10 18  1  0  0  0  0
 19 20  2  0  0  0  0
 19 21  1  0  0  0  0
 19 22  1  0  0  0  0
 22 23  4  0  0  0  0
 22 27  4  0  0  0  0
 23 24  4  0  0  0  0
 23 29  1  0  0  0  0
 24 25  4  0  0  0  0
 24 30  1  0  0  0  0
 25 26  4  0  0  0  0
 25 28  1  0  0  0  0
 26 27  4  0  0  0  0
 26 31  1  0  0  0  0
 27 32  1  0  0  0  0
 28 33  1  0  0  0  0
 28 34  1  0  0  0  0
M  END
> <BCLConfClusterSize>
1

> <ConfClashScore>
0 

> <ConfOneFourInteractionScore>
-0.938304 

> <ConfScore>
-0.00994608 

> <ConfScorePBest>
0.00424526 

> <ConfTolerance>
0.26554 

> <RosettaParamsInstructions>
M  ROOT 3
M  POLY_N_BB 3
M  POLY_CA_BB 4
M  POLY_C_BB 2
M  POLY_O_BB 5
M  POLY_IGNORE 9 10 11 12 13 14 15 16 17 18 
M  POLY_UPPER 6
M  POLY_LOWER 8
M  POLY_CHG 0
M  POLY_PROPERTIES ALPHA_AA L_AA PROTEIN AROMATIC POLYMER 
M  END

$$$$



 34 34  0  0  0  0  0  0  0  0999 V2000
   -2.6603    1.2526    0.4482 H   0  0  0  1  0  0  0  0  0  0  0  0
   -0.8402    0.3125    0.9862 C   0  0  0  1  0  0  0  0  0  0  0  0
   -2.6961    1.0127    2.4993 N   0  0  0  1  0  0  0  0  0  0  0  0
   -1.9744    1.2982    1.2682 C   0  0  0  1  0  0  0  0  0  0  0  0
    0.1999    0.6985    0.4593 O   0  0  0  1  0  0  0  0  0  0  0  0
   -1.0741   -0.9820    1.2541 N   0  0  0  1  0  0  0  0  0  0  0  0
   -3.6745    0.9645    2.4737 H   0  0  0  1  0  0  0  0  0  0  0  0
   -2.0683    0.8133    3.6683 C   0  0  0  1  0  0  0  0  0  0  0  0
   -0.0959   -1.9934    0.8825 C   0  0  0  1  0  0  0  0  0  0  0  0
   -2.9130    0.5234    4.8883 C   0  0  0  1  0  0  0  0  0  0  0  0
   -0.8417    0.8644    3.7477 O   0  0  0  1  0  0  0  0  0  0  0  0
   -1.9052   -1.2464    1.7010 H   0  0  0  1  0  0  0  0  0  0  0  0
    0.8881   -1.5774    0.9417 H   0  0  0  1  0  0  0  0  0  0  0  0
   -0.2847   -2.3210   -0.1185 H   0  0  0  1  0  0  0  0  0  0  0  0
   -0.1720   -2.8254    1.5509 H   0  0  0  1  0  0  0  0  0  0  0  0
   -3.4676    1.3987    5.1550 H   0  0  0  1  0  0  0  0  0  0  0  0
   -2.2784    0.2417    5.7024 H   0  0  0  1  0  0  0  0  0  0  0  0
   -3.5908   -0.2755    4.6708 H   0  0  0  1  0  0  0  0  0  0  0  0
   -5.4513    6.7410    1.0062 N   0  3  0  1  0  0  0  0  0  0  0  0
   -5.9997    7.0269    2.0228 O   0  0  0  1  0  0  0  0  0  0  0  0
   -5.7410    7.3077   -0.1730 O   0  5  0  1  0  0  0  0  0  0  0  0
   -4.4230    5.7336    1.0465 C   0  0  0  1  0  0  0  0  0  0  0  0
   -3.6110    5.4648   -0.0391 C   0  0  0  1  0  0  0  0  0  0  0  0
   -2.6316    4.4881    0.0527 C   0  0  0  1  0  0  0  0  0  0  0  0
   -2.4709    3.7793    1.2284 C   0  0  0  1  0  0  0  0  0  0  0  0
   -3.2853    4.0488    2.3172 C   0  0  0  1  0  0  0  0  0  0  0  0
   -4.2616    5.0226    2.2255 C   0  0  0  1  0  0  0  0  0  0  0  0
   -1.4079    2.7108    1.3274 C   0  0  0  1  0  0  0  0  0  0  0  0
   -3.7346    5.9954   -0.9250 H   0  0  0  1  0  0  0  0  0  0  0  0
   -2.0179    4.2886   -0.7628 H   0  0  0  1  0  0  0  0  0  0  0  0
   -3.1616    3.5182    3.2031 H   0  0  0  1  0  0  0  0  0  0  0  0
   -4.8753    5.2221    3.0411 H   0  0  0  1  0  0  0  0  0  0  0  0
   -0.7218    2.8368    0.5161 H   0  0  0  1  0  0  0  0  0  0  0  0
   -0.8894    2.8312    2.2556 H   0  0  0  1  0  0  0  0  0  0  0  0
  1  4  1  0  0  0  0
  2  4  1  0  0  0  0
  2  5  2  0  0  0  0
  2  6  1  0  0  0  0
  3  4  1  0  0  0  0
  3  7  1  0  0  0  0
  3  8  1  0  0  0  0
  4 28  1  0  0  0  0
  6  9  1  0  0  0  0
  6 12  1  0  0  0  0
  8 10  1  0  0  0  0
  8 11  2  0  0  0  0
  9 13  1  0  0  0  0
  9 14  1  0  0  0  0
  9 15  1  0  0  0  0
 10 16  1  0  0  0  0
 10 17  1  0  0  0  0
 10 18  1  0  0  0  0
 19 20  2  0  0  0  0
 19 21  1  0  0  0  0
 19 22  1  0  0  0  0
 22 23  4  0  0  0  0
 22 27  4  0  0  0  0
 23 24  4  0  0  0  0
 23 29  1  0  0  0  0
 24 25  4  0  0  0  0
 24 30  1  0  0  0  0
 25 26  4  0  0  0  0
 25 28  1  0  0  0  0
 26 27  4  0  0  0  0
 26 31  1  0  0  0  0
 27 32  1  0  0  0  0
 28 33  1  0  0  0  0
 28 34  1  0  0  0  0
M  END
> <BCLConfClusterSize>
1

> <ConfClashScore>
0 

> <ConfOneFourInteractionScore>
-0.972663 

> <ConfScore>
-0.00512134 

> <ConfScorePBest>
0.00421678 

> <ConfTolerance>
0.279773 

> <RosettaParamsInstructions>
M  ROOT 3
M  POLY_N_BB 3
M  POLY_CA_BB 4
M  POLY_C_BB 2
M  POLY_O_BB 5
M  POLY_IGNORE 9 10 11 12 13 14 15 16 17 18 
M  POLY_UPPER 6
M  POLY_LOWER 8
M  POLY_CHG 0
M  POLY_PROPERTIES ALPHA_AA L_AA PROTEIN AROMATIC POLYMER 
M  END

$$$$



 34 34  0  0  0  0  0  0  0  0999 V2000
    0.7594    2.6431    1.4431 H   0  0  0  1  0  0  0  0  0  0  0  0
    0.2664    4.1224   -0.0012 C   0  0  0  1  0  0  0  0  0  0  0  0
    0.1546    4.3926    2.3855 N   0  0  0  1  0  0  0  0  0  0  0  0
    0.0214    3.4083    1.3219 C   0  0  0  1  0  0  0  0  0  0  0  0
    0.7669    3.5286   -0.9555 O   0  0  0  1  0  0  0  0  0  0  0  0
   -0.0780    5.4100   -0.0932 N   0  0  0  1  0  0  0  0  0  0  0  0
   -0.6102    4.5579    2.9755 H   0  0  0  1  0  0  0  0  0  0  0  0
    1.2835    5.0786    2.5857 C   0  0  0  1  0  0  0  0  0  0  0  0
    0.2021    6.2068   -1.2783 C   0  0  0  1  0  0  0  0  0  0  0  0
    1.2266    6.2197    3.6093 C   0  0  0  1  0  0  0  0  0  0  0  0
    2.3531    4.7856    2.0531 O   0  0  0  1  0  0  0  0  0  0  0  0
   -0.5351    5.8325    0.6637 H   0  0  0  1  0  0  0  0  0  0  0  0
    0.7965    5.6357   -1.9604 H   0  0  0  1  0  0  0  0  0  0  0  0
    0.7343    7.0910   -0.9957 H   0  0  0  1  0  0  0  0  0  0  0  0
   -0.7187    6.4797   -1.7501 H   0  0  0  1  0  0  0  0  0  0  0  0
    1.8177    5.9630    4.4635 H   0  0  0  1  0  0  0  0  0  0  0  0
    0.2124    6.3769    3.9118 H   0  0  0  1  0  0  0  0  0  0  0  0
    1.6101    7.1151    3.1665 H   0  0  0  1  0  0  0  0  0  0  0  0
   -5.4376    6.7505    0.9896 N   0  3  0  1  0  0  0  0  0  0  0  0
   -5.9778    7.1093    1.9874 O   0  0  0  1  0  0  0  0  0  0  0  0
   -5.7471    7.2763   -0.2035 O   0  5  0  1  0  0  0  0  0  0  0  0
   -4.4279    5.7270    1.0698 C   0  0  0  1  0  0  0  0  0  0  0  0
   -3.6214    5.4672   -0.0221 C   0  0  0  1  0  0  0  0  0  0  0  0
   -2.6453    4.4859    0.0548 C   0  0  0  1  0  0  0  0  0  0  0  0
   -2.4821    3.7638    1.2219 C   0  0  0  1  0  0  0  0  0  0  0  0
   -3.2908    4.0243    2.3172 C   0  0  0  1  0  0  0  0  0  0  0  0
   -4.2640    5.0026    2.2403 C   0  0  0  1  0  0  0  0  0  0  0  0
   -1.3573    2.7610    1.3253 C   0  0  0  1  0  0  0  0  0  0  0  0
   -3.7470    6.0078   -0.9016 H   0  0  0  1  0  0  0  0  0  0  0  0
   -2.0358    4.2932   -0.7656 H   0  0  0  1  0  0  0  0  0  0  0  0
   -3.1653    3.4836    3.1967 H   0  0  0  1  0  0  0  0  0  0  0  0
   -4.8734    5.1953    3.0607 H   0  0  0  1  0  0  0  0  0  0  0  0
   -1.4734    2.2117    2.2362 H   0  0  0  1  0  0  0  0  0  0  0  0
   -1.4210    2.0909    0.4935 H   0  0  0  1  0  0  0  0  0  0  0  0
  1  4  1  0  0  0  0
  2  4  1  0  0  0  0
  2  5  2  0  0  0  0
  2  6  1  0  0  0  0
  3  4  1  0  0  0  0
  3  7  1  0  0  0  0
  3  8  1  0  0  0  0
  4 28  1  0  0  0  0
  6  9  1  0  0  0  0
  6 12  1  0  0  0  0
  8 10  1  0  0  0  0
  8 11  2  0  0  0  0
  9 13  1  0  0  0  0
  9 14  1  0  0  0  0
  9 15  1  0  0  0  0
 10 16  1  0  0  0  0
 10 17  1  0  0  0  0
 10 18  1  0  0  0  0
 19 20  2  0  0  0  0
 19 21  1  0  0  0  0
 19 22  1  0  0  0  0
 22 23  4  0  0  0  0
 22 27  4  0  0  0  0
 23 24  4  0  0  0  0
 23 29  1  0  0  0  0
 24 25  4  0  0  0  0
 24 30  1  0  0  0  0
 25 26  4  0  0  0  0
 25 28  1  0  0  0  0
 26 27  4  0  0  0  0
 26 31  1  0  0  0  0
 27 32  1  0  0  0  0
 28 33  1  0  0  0  0
 28 34  1  0  0  0  0
M  END
> <BCLConfClusterSize>
1

> <ConfClashScore>
0 

> <ConfOneFourInteractionScore>
-0.931937 

> <ConfScore>
-0.000362406 

> <ConfScorePBest>
0.0041883 

> <ConfTolerance>
0.400604 

> <RosettaParamsInstructions>
M  ROOT 3
M  POLY_N_BB 3
M  POLY_CA_BB 4
M  POLY_C_BB 2
M  POLY_O_BB 5
M  POLY_IGNORE 9 10 11 12 13 14 15 16 17 18 
M  POLY_UPPER 6
M  POLY_LOWER 8
M  POLY_CHG 0
M  POLY_PROPERTIES ALPHA_AA L_AA PROTEIN AROMATIC POLYMER 
M  END

$$$$



 34 34  0  0  0  0  0  0  0  0999 V2000
   -1.0929    0.6290    1.0291 H   0  0  0  1  0  0  0  0  0  0  0  0
   -3.0691    0.8974    1.7210 C   0  0  0  1  0  0  0  0  0  0  0  0
   -2.2534    1.3222   -0.5354 N   0  0  0  1  0  0  0  0  0  0  0  0
   -1.8879    1.3279    0.8733 C   0  0  0  1  0  0  0  0  0  0  0  0
   -4.2044    1.2546    1.4529 O   0  0  0  1  0  0  0  0  0  0  0  0
   -2.7789    0.1093    2.7682 N   0  0  0  1  0  0  0  0  0  0  0  0
   -2.3225    2.1771   -1.0095 H   0  0  0  1  0  0  0  0  0  0  0  0
   -2.4975    0.1939   -1.2036 C   0  0  0  1  0  0  0  0  0  0  0  0
   -3.7832   -0.2893    3.7431 C   0  0  0  1  0  0  0  0  0  0  0  0
   -2.9567    0.3644   -2.6386 C   0  0  0  1  0  0  0  0  0  0  0  0
   -2.3642   -0.9226   -0.7043 O   0  0  0  1  0  0  0  0  0  0  0  0
   -1.8587   -0.2088    2.8802 H   0  0  0  1  0  0  0  0  0  0  0  0
   -3.3094   -0.7982    4.5564 H   0  0  0  1  0  0  0  0  0  0  0  0
   -4.4916   -0.9427    3.2782 H   0  0  0  1  0  0  0  0  0  0  0  0
   -4.2870    0.5798    4.1115 H   0  0  0  1  0  0  0  0  0  0  0  0
   -2.1749    0.8165   -3.2125 H   0  0  0  1  0  0  0  0  0  0  0  0
   -3.8243    0.9900   -2.6633 H   0  0  0  1  0  0  0  0  0  0  0  0
   -3.1948   -0.5931   -3.0528 H   0  0  0  1  0  0  0  0  0  0  0  0
   -5.4579    6.7240    1.0435 N   0  3  0  1  0  0  0  0  0  0  0  0
   -6.2177    7.0687    1.8921 O   0  0  0  1  0  0  0  0  0  0  0  0
   -5.5701    7.3630   -0.1289 O   0  5  0  1  0  0  0  0  0  0  0  0
   -4.4249    5.7211    1.0684 C   0  0  0  1  0  0  0  0  0  0  0  0
   -3.6318    5.4518   -0.0311 C   0  0  0  1  0  0  0  0  0  0  0  0
   -2.6469    4.4795    0.0461 C   0  0  0  1  0  0  0  0  0  0  0  0
   -2.4615    3.7756    1.2210 C   0  0  0  1  0  0  0  0  0  0  0  0
   -3.2568    4.0455    2.3238 C   0  0  0  1  0  0  0  0  0  0  0  0
   -4.2388    5.0150    2.2466 C   0  0  0  1  0  0  0  0  0  0  0  0
   -1.3923    2.7119    1.3041 C   0  0  0  1  0  0  0  0  0  0  0  0
   -3.7741    5.9787   -0.9164 H   0  0  0  1  0  0  0  0  0  0  0  0
   -2.0475    4.2797   -0.7800 H   0  0  0  1  0  0  0  0  0  0  0  0
   -3.1145    3.5186    3.2090 H   0  0  0  1  0  0  0  0  0  0  0  0
   -4.8382    5.2148    3.0727 H   0  0  0  1  0  0  0  0  0  0  0  0
   -0.5795    2.9956    0.6686 H   0  0  0  1  0  0  0  0  0  0  0  0
   -1.0501    2.6513    2.3161 H   0  0  0  1  0  0  0  0  0  0  0  0
  1  4  1  0  0  0  0
  2  4  1  0  0  0  0
  2  5  2  0  0  0  0
  2  6  1  0  0  0  0
  3  4  1  0  0  0  0
  3  7  1  0  0  0  0
  3  8  1  0  0  0  0
  4 28  1  0  0  0  0
  6  9  1  0  0  0  0
  6 12  1  0  0  0  0
  8 10  1  0  0  0  0
  8 11  2  0  0  0  0
  9 13  1  0  0  0  0
  9 14  1  0  0  0  0
  9 15  1  0  0  0  0
 10 16  1  0  0  0  0
 10 17  1  0  0  0  0
 10 18  1  0  0  0  0
 19 20  2  0  0  0  0
 19 21  1  0  0  0  0
 19 22  1  0  0  0  0
 22 23  4  0  0  0  0
 22 27  4  0  0  0  0
 23 24  4  0  0  0  0
 23 29  1  0  0  0  0
 24 25  4  0  0  0  0
 24 30  1  0  0  0  0
 25 26  4  0  0  0  0
 25 28  1  0  0  0  0
 26 27  4  0  0  0  0
 26 31  1  0  0  0  0
 27 32  1  0  0  0  0
 28 33  1  0  0  0  0
 28 34  1  0  0  0  0
M  END
> <BCLConfClusterSize>
1

> <ConfClashScore>
0 

> <ConfOneFourInteractionScore>
-0.982563 

> <ConfScore>
0.00258574 

> <ConfScorePBest>
0.00415982 

> <ConfTolerance>
0.288668 

> <RosettaParamsInstructions>
M  ROOT 3
M  POLY_N_BB 3
M  POLY_CA_BB 4
M  POLY_C_BB 2
M  POLY_O_BB 5
M  POLY_IGNORE 9 10 11 12 13 14 15 16 17 18 
M  POLY_UPPER 6
M  POLY_LOWER 8
M  POLY_CHG 0
M  POLY_PROPERTIES ALPHA_AA L_AA PROTEIN AROMATIC POLYMER 
M  END

$$$$



 34 34  0  0  0  0  0  0  0  0999 V2000
   -0.8854    2.8272    3.3486 H   0  0  0  1  0  0  0  0  0  0  0  0
    0.7255    1.8672    2.3943 C   0  0  0  1  0  0  0  0  0  0  0  0
    0.1267    4.2776    2.2867 N   0  0  0  1  0  0  0  0  0  0  0  0
   -0.3724    2.9129    2.4135 C   0  0  0  1  0  0  0  0  0  0  0  0
    1.7885    2.0682    1.8085 O   0  0  0  1  0  0  0  0  0  0  0  0
    0.4569    0.7276    3.0510 N   0  0  0  1  0  0  0  0  0  0  0  0
    0.9257    4.4186    1.7370 H   0  0  0  1  0  0  0  0  0  0  0  0
   -0.4360    5.3743    2.8765 C   0  0  0  1  0  0  0  0  0  0  0  0
    1.4354   -0.3412    3.1855 C   0  0  0  1  0  0  0  0  0  0  0  0
    0.2653    6.6698    2.5360 C   0  0  0  1  0  0  0  0  0  0  0  0
   -1.4090    5.2889    3.6028 O   0  0  0  1  0  0  0  0  0  0  0  0
   -0.4288    0.6114    3.4539 H   0  0  0  1  0  0  0  0  0  0  0  0
    1.8178   -0.5990    2.2200 H   0  0  0  1  0  0  0  0  0  0  0  0
    0.9690   -1.1983    3.6245 H   0  0  0  1  0  0  0  0  0  0  0  0
    2.2389   -0.0123    3.8109 H   0  0  0  1  0  0  0  0  0  0  0  0
   -0.4240    7.3341    2.0580 H   0  0  0  1  0  0  0  0  0  0  0  0
    1.0832    6.4695    1.8759 H   0  0  0  1  0  0  0  0  0  0  0  0
    0.6329    7.1226    3.4331 H   0  0  0  1  0  0  0  0  0  0  0  0
   -5.4496    6.7422    0.9865 N   0  3  0  1  0  0  0  0  0  0  0  0
   -6.1128    6.9548    1.9514 O   0  0  0  1  0  0  0  0  0  0  0  0
   -5.6014    7.3980   -0.1722 O   0  5  0  1  0  0  0  0  0  0  0  0
   -4.4314    5.7273    1.0694 C   0  0  0  1  0  0  0  0  0  0  0  0
   -3.6366    5.4570   -0.0285 C   0  0  0  1  0  0  0  0  0  0  0  0
   -2.6523    4.4840    0.0510 C   0  0  0  1  0  0  0  0  0  0  0  0
   -2.4695    3.7806    1.2266 C   0  0  0  1  0  0  0  0  0  0  0  0
   -3.2667    4.0516    2.3277 C   0  0  0  1  0  0  0  0  0  0  0  0
   -4.2479    5.0217    2.2483 C   0  0  0  1  0  0  0  0  0  0  0  0
   -1.4012    2.7163    1.3121 C   0  0  0  1  0  0  0  0  0  0  0  0
   -3.7769    5.9835   -0.9143 H   0  0  0  1  0  0  0  0  0  0  0  0
   -2.0515    4.2834   -0.7739 H   0  0  0  1  0  0  0  0  0  0  0  0
   -3.1264    3.5251    3.2135 H   0  0  0  1  0  0  0  0  0  0  0  0
   -4.8487    5.2222    3.0732 H   0  0  0  1  0  0  0  0  0  0  0  0
   -1.8845    1.7759    1.4760 H   0  0  0  1  0  0  0  0  0  0  0  0
   -0.8827    2.6931    0.3764 H   0  0  0  1  0  0  0  0  0  0  0  0
  1  4  1  0  0  0  0
  2  4  1  0  0  0  0
  2  5  2  0  0  0  0
  2  6  1  0  0  0  0
  3  4  1  0  0  0  0
  3  7  1  0  0  0  0
  3  8  1  0  0  0  0
  4 28  1  0  0  0  0
  6  9  1  0  0  0  0
  6 12  1  0  0  0  0
  8 10  1  0  0  0  0
  8 11  2  0  0  0  0
  9 13  1  0  0  0  0
  9 14  1  0  0  0  0
  9 15  1  0  0  0  0
 10 16  1  0  0  0  0
 10 17  1  0  0  0  0
 10 18  1  0  0  0  0
 19 20  2  0  0  0  0
 19 21  1  0  0  0  0
 19 22  1  0  0  0  0
 22 23  4  0  0  0  0
 22 27  4  0  0  0  0
 23 24  4  0  0  0  0
 23 29  1  0  0  0  0
 24 25  4  0  0  0  0
 24 30  1  0  0  0  0
 25 26  4  0  0  0  0
 25 28  1  0  0  0  0
 26 27  4  0  0  0  0
 26 31  1  0  0  0  0
 27 32  1  0  0  0  0
 28 33  1  0  0  0  0
 28 34  1  0  0  0  0
M  END
> <BCLConfClusterSize>
1

> <ConfClashScore>
0 

> <ConfOneFourInteractionScore>
-0.990503 

> <ConfScore>
0.00759328 

> <ConfScorePBest>
0.00413134 

> <ConfTolerance>
0.57148 

> <RosettaParamsInstructions>
M  ROOT 3
M  POLY_N_BB 3
M  POLY_CA_BB 4
M  POLY_C_BB 2
M  POLY_O_BB 5
M  POLY_IGNORE 9 10 11 12 13 14 15 16 17 18 
M  POLY_UPPER 6
M  POLY_LOWER 8
M  POLY_CHG 0
M  POLY_PROPERTIES ALPHA_AA L_AA PROTEIN AROMATIC POLYMER 
M  END

$$$$



 34 34  0  0  0  0  0  0  0  0999 V2000
   -2.4015    1.1449    0.4140 H   0  0  0  1  0  0  0  0  0  0  0  0
   -1.3560    2.1494   -1.1239 C   0  0  0  1  0  0  0  0  0  0  0  0
   -0.3975    0.6659    0.5822 N   0  0  0  1  0  0  0  0  0  0  0  0
   -1.4531    1.6272    0.3006 C   0  0  0  1  0  0  0  0  0  0  0  0
   -0.2705    2.5853   -1.5048 O   0  0  0  1  0  0  0  0  0  0  0  0
   -2.4519    2.1082   -1.8870 N   0  0  0  1  0  0  0  0  0  0  0  0
    0.5146    0.9786    0.7577 H   0  0  0  1  0  0  0  0  0  0  0  0
   -0.6794   -0.6916    0.6028 C   0  0  0  1  0  0  0  0  0  0  0  0
   -2.4067    2.5956   -3.2575 C   0  0  0  1  0  0  0  0  0  0  0  0
    0.4339   -1.6648    0.8716 C   0  0  0  1  0  0  0  0  0  0  0  0
   -1.8250   -1.0514    0.4014 O   0  0  0  1  0  0  0  0  0  0  0  0
   -3.2879    1.7489   -1.5231 H   0  0  0  1  0  0  0  0  0  0  0  0
   -3.1983    2.1485   -3.8218 H   0  0  0  1  0  0  0  0  0  0  0  0
   -1.4659    2.3373   -3.6968 H   0  0  0  1  0  0  0  0  0  0  0  0
   -2.5229    3.6592   -3.2615 H   0  0  0  1  0  0  0  0  0  0  0  0
    1.3663   -1.1409    0.9037 H   0  0  0  1  0  0  0  0  0  0  0  0
    0.4632   -2.3970    0.0919 H   0  0  0  1  0  0  0  0  0  0  0  0
    0.2648   -2.1494    1.8105 H   0  0  0  1  0  0  0  0  0  0  0  0
   -5.4372    6.7532    0.9901 N   0  3  0  1  0  0  0  0  0  0  0  0
   -6.1323    6.9399    1.9378 O   0  0  0  1  0  0  0  0  0  0  0  0
   -5.5159    7.4751   -0.1361 O   0  5  0  1  0  0  0  0  0  0  0  0
   -4.4613    5.6965    1.0582 C   0  0  0  1  0  0  0  0  0  0  0  0
   -3.6635    5.4311   -0.0387 C   0  0  0  1  0  0  0  0  0  0  0  0
   -2.6601    4.4785    0.0481 C   0  0  0  1  0  0  0  0  0  0  0  0
   -2.4612    3.7904    1.2302 C   0  0  0  1  0  0  0  0  0  0  0  0
   -3.2613    4.0565    2.3304 C   0  0  0  1  0  0  0  0  0  0  0  0
   -4.2616    5.0062    2.2436 C   0  0  0  1  0  0  0  0  0  0  0  0
   -1.3719    2.7482    1.3238 C   0  0  0  1  0  0  0  0  0  0  0  0
   -3.8158    5.9461   -0.9293 H   0  0  0  1  0  0  0  0  0  0  0  0
   -2.0571    4.2817   -0.7761 H   0  0  0  1  0  0  0  0  0  0  0  0
   -3.1089    3.5415    3.2210 H   0  0  0  1  0  0  0  0  0  0  0  0
   -4.8646    5.2030    3.0678 H   0  0  0  1  0  0  0  0  0  0  0  0
   -0.4310    3.2419    1.1985 H   0  0  0  1  0  0  0  0  0  0  0  0
   -1.4180    2.3093    2.2986 H   0  0  0  1  0  0  0  0  0  0  0  0
  1  4  1  0  0  0  0
  2  4  1  0  0  0  0
  2  5  2  0  0  0  0
  2  6  1  0  0  0  0
  3  4  1  0  0  0  0
  3  7  1  0  0  0  0
  3  8  1  0  0  0  0
  4 28  1  0  0  0  0
  6  9  1  0  0  0  0
  6 12  1  0  0  0  0
  8 10  1  0  0  0  0
  8 11  2  0  0  0  0
  9 13  1  0  0  0  0
  9 14  1  0  0  0  0
  9 15  1  0  0  0  0
 10 16  1  0  0  0  0
 10 17  1  0  0  0  0
 10 18  1  0  0  0  0
 19 20  2  0  0  0  0
 19 21  1  0  0  0  0
 19 22  1  0  0  0  0
 22 23  4  0  0  0  0
 22 27  4  0  0  0  0
 23 24  4  0  0  0  0
 23 29  1  0  0  0  0
 24 25  4  0  0  0  0
 24 30  1  0  0  0  0
 25 26  4  0  0  0  0
 25 28  1  0  0  0  0
 26 27  4  0  0  0  0
 26 31  1  0  0  0  0
 27 32  1  0  0  0  0
 28 33  1  0  0  0  0
 28 34  1  0  0  0  0
M  END
> <BCLConfClusterSize>
1

> <ConfClashScore>
0 

> <ConfOneFourInteractionScore>
-0.981931 

> <ConfScore>
0.00849802 

> <ConfScorePBest>
0.00410286 

> <ConfTolerance>
0.384094 

> <RosettaParamsInstructions>
M  ROOT 3
M  POLY_N_BB 3
M  POLY_CA_BB 4
M  POLY_C_BB 2
M  POLY_O_BB 5
M  POLY_IGNORE 9 10 11 12 13 14 15 16 17 18 
M  POLY_UPPER 6
M  POLY_LOWER 8
M  POLY_CHG 0
M  POLY_PROPERTIES ALPHA_AA L_AA PROTEIN AROMATIC POLYMER 
M  END

$$$$



 34 34  0  0  0  0  0  0  0  0999 V2000
   -2.0638    1.6397   -0.3967 H   0  0  0  1  0  0  0  0  0  0  0  0
   -0.6335    0.4340    0.5930 C   0  0  0  1  0  0  0  0  0  0  0  0
   -2.9509    0.7999    1.2718 N   0  0  0  1  0  0  0  0  0  0  0  0
   -1.8038    1.4088    0.6152 C   0  0  0  1  0  0  0  0  0  0  0  0
    0.5068    0.7978    0.8320 O   0  0  0  1  0  0  0  0  0  0  0  0
   -0.9845   -0.8197    0.2928 N   0  0  0  1  0  0  0  0  0  0  0  0
   -3.7761    0.6419    0.7674 H   0  0  0  1  0  0  0  0  0  0  0  0
   -2.8809    0.4529    2.5718 C   0  0  0  1  0  0  0  0  0  0  0  0
   -0.0065   -1.8877    0.1495 C   0  0  0  1  0  0  0  0  0  0  0  0
   -4.1376   -0.1596    3.1587 C   0  0  0  1  0  0  0  0  0  0  0  0
   -1.8790    0.6136    3.2492 O   0  0  0  1  0  0  0  0  0  0  0  0
   -1.9337   -1.0272    0.1645 H   0  0  0  1  0  0  0  0  0  0  0  0
   -0.4545   -2.8210    0.4202 H   0  0  0  1  0  0  0  0  0  0  0  0
    0.8288   -1.6944    0.7898 H   0  0  0  1  0  0  0  0  0  0  0  0
    0.3255   -1.9331   -0.8667 H   0  0  0  1  0  0  0  0  0  0  0  0
   -4.9901    0.1749    2.6053 H   0  0  0  1  0  0  0  0  0  0  0  0
   -4.2363    0.1402    4.1811 H   0  0  0  1  0  0  0  0  0  0  0  0
   -4.0733   -1.2263    3.1040 H   0  0  0  1  0  0  0  0  0  0  0  0
   -5.4450    6.7469    0.9880 N   0  3  0  1  0  0  0  0  0  0  0  0
   -5.9559    7.1155    1.9976 O   0  0  0  1  0  0  0  0  0  0  0  0
   -5.7664    7.2291   -0.2202 O   0  5  0  1  0  0  0  0  0  0  0  0
   -4.4289    5.7299    1.0702 C   0  0  0  1  0  0  0  0  0  0  0  0
   -3.6172    5.4768   -0.0195 C   0  0  0  1  0  0  0  0  0  0  0  0
   -2.6349    4.5019    0.0594 C   0  0  0  1  0  0  0  0  0  0  0  0
   -2.4707    3.7794    1.2261 C   0  0  0  1  0  0  0  0  0  0  0  0
   -3.2846    4.0332    2.3191 C   0  0  0  1  0  0  0  0  0  0  0  0
   -4.2640    5.0052    2.2403 C   0  0  0  1  0  0  0  0  0  0  0  0
   -1.4044    2.7129    1.3109 C   0  0  0  1  0  0  0  0  0  0  0  0
   -3.7435    6.0177   -0.8987 H   0  0  0  1  0  0  0  0  0  0  0  0
   -2.0216    4.3142   -0.7593 H   0  0  0  1  0  0  0  0  0  0  0  0
   -3.1583    3.4922    3.1983 H   0  0  0  1  0  0  0  0  0  0  0  0
   -4.8773    5.1929    3.0589 H   0  0  0  1  0  0  0  0  0  0  0  0
   -0.5130    3.0852    0.8508 H   0  0  0  1  0  0  0  0  0  0  0  0
   -1.2132    2.5038    2.3427 H   0  0  0  1  0  0  0  0  0  0  0  0
  1  4  1  0  0  0  0
  2  4  1  0  0  0  0
  2  5  2  0  0  0  0
  2  6  1  0  0  0  0
  3  4  1  0  0  0  0
  3  7  1  0  0  0  0
  3  8  1  0  0  0  0
  4 28  1  0  0  0  0
  6  9  1  0  0  0  0
  6 12  1  0  0  0  0
  8 10  1  0  0  0  0
  8 11  2  0  0  0  0
  9 13  1  0  0  0  0
  9 14  1  0  0  0  0
  9 15  1  0  0  0  0
 10 16  1  0  0  0  0
 10 17  1  0  0  0  0
 10 18  1  0  0  0  0
 19 20  2  0  0  0  0
 19 21  1  0  0  0  0
 19 22  1  0  0  0  0
 22 23  4  0  0  0  0
 22 27  4  0  0  0  0
 23 24  4  0  0  0  0
 23 29  1  0  0  0  0
 24 25  4  0  0  0  0
 24 30  1  0  0  0  0
 25 26  4  0  0  0  0
 25 28  1  0  0  0  0
 26 27  4  0  0  0  0
 26 31  1  0  0  0  0
 27 32  1  0  0  0  0
 28 33  1  0  0  0  0
 28 34  1  0  0  0  0
M  END
> <BCLConfClusterSize>
1

> <ConfClashScore>
0 

> <ConfOneFourInteractionScore>
-0.956972 

> <ConfScore>
0.00940057 

> <ConfScorePBest>
0.00407438 

> <ConfTolerance>
0.288111 

> <RosettaParamsInstructions>
M  ROOT 3
M  POLY_N_BB 3
M  POLY_CA_BB 4
M  POLY_C_BB 2
M  POLY_O_BB 5
M  POLY_IGNORE 9 10 11 12 13 14 15 16 17 18 
M  POLY_UPPER 6
M  POLY_LOWER 8
M  POLY_CHG 0
M  POLY_PROPERTIES ALPHA_AA L_AA PROTEIN AROMATIC POLYMER 
M  END

$$$$



 34 34  0  0  0  0  0  0  0  0999 V2000
   -0.1667    3.0431   -0.2862 H   0  0  0  1  0  0  0  0  0  0  0  0
    0.3193    4.4617    1.1669 C   0  0  0  1  0  0  0  0  0  0  0  0
    0.9209    2.0447    1.1233 N   0  0  0  1  0  0  0  0  0  0  0  0
   -0.0754    3.0466    0.7799 C   0  0  0  1  0  0  0  0  0  0  0  0
    0.6786    4.6599    2.3265 O   0  0  0  1  0  0  0  0  0  0  0  0
    0.2415    5.3862    0.1993 N   0  0  0  1  0  0  0  0  0  0  0  0
    1.0328    1.8234    2.0714 H   0  0  0  1  0  0  0  0  0  0  0  0
    1.7199    1.3829    0.2158 C   0  0  0  1  0  0  0  0  0  0  0  0
    0.6009    6.7785    0.4236 C   0  0  0  1  0  0  0  0  0  0  0  0
    2.8458    0.5785    0.7971 C   0  0  0  1  0  0  0  0  0  0  0  0
    1.4920    1.4715   -0.9759 O   0  0  0  1  0  0  0  0  0  0  0  0
   -0.0683    5.1151   -0.6900 H   0  0  0  1  0  0  0  0  0  0  0  0
    1.5859    6.8307    0.8383 H   0  0  0  1  0  0  0  0  0  0  0  0
   -0.0962    7.2214    1.1040 H   0  0  0  1  0  0  0  0  0  0  0  0
    0.5772    7.3070   -0.5064 H   0  0  0  1  0  0  0  0  0  0  0  0
    2.7152   -0.4531    0.5446 H   0  0  0  1  0  0  0  0  0  0  0  0
    2.8491    0.6873    1.8615 H   0  0  0  1  0  0  0  0  0  0  0  0
    3.7757    0.9278    0.3994 H   0  0  0  1  0  0  0  0  0  0  0  0
   -5.4435    6.7434    0.9359 N   0  3  0  1  0  0  0  0  0  0  0  0
   -5.5980    7.2817   -0.1141 O   0  0  0  1  0  0  0  0  0  0  0  0
   -6.1694    7.0292    2.0254 O   0  5  0  1  0  0  0  0  0  0  0  0
   -4.4233    5.7325    1.0398 C   0  0  0  1  0  0  0  0  0  0  0  0
   -3.6209    5.4484   -0.0491 C   0  0  0  1  0  0  0  0  0  0  0  0
   -2.6347    4.4793    0.0505 C   0  0  0  1  0  0  0  0  0  0  0  0
   -2.4573    3.7935    1.2373 C   0  0  0  1  0  0  0  0  0  0  0  0
   -3.2620    4.0784    2.3295 C   0  0  0  1  0  0  0  0  0  0  0  0
   -4.2452    5.0445    2.2300 C   0  0  0  1  0  0  0  0  0  0  0  0
   -1.4556    2.6664    1.3249 C   0  0  0  1  0  0  0  0  0  0  0  0
   -3.7571    5.9616   -0.9433 H   0  0  0  1  0  0  0  0  0  0  0  0
   -2.0283    4.2684   -0.7677 H   0  0  0  1  0  0  0  0  0  0  0  0
   -3.1258    3.5651    3.2237 H   0  0  0  1  0  0  0  0  0  0  0  0
   -4.8516    5.2554    3.0482 H   0  0  0  1  0  0  0  0  0  0  0  0
   -1.3503    2.3834    2.3514 H   0  0  0  1  0  0  0  0  0  0  0  0
   -1.8272    1.8360    0.7618 H   0  0  0  1  0  0  0  0  0  0  0  0
  1  4  1  0  0  0  0
  2  4  1  0  0  0  0
  2  5  2  0  0  0  0
  2  6  1  0  0  0  0
  3  4  1  0  0  0  0
  3  7  1  0  0  0  0
  3  8  1  0  0  0  0
  4 28  1  0  0  0  0
  6  9  1  0  0  0  0
  6 12  1  0  0  0  0
  8 10  1  0  0  0  0
  8 11  2  0  0  0  0
  9 13  1  0  0  0  0
  9 14  1  0  0  0  0
  9 15  1  0  0  0  0
 10 16  1  0  0  0  0
 10 17  1  0  0  0  0
 10 18  1  0  0  0  0
 19 20  2  0  0  0  0
 19 21  1  0  0  0  0
 19 22  1  0  0  0  0
 22 23  4  0  0  0  0
 22 27  4  0  0  0  0
 23 24  4  0  0  0  0
 23 29  1  0  0  0  0
 24 25  4  0  0  0  0
 24 30  1  0  0  0  0
 25 26  4  0  0  0  0
 25 28  1  0  0  0  0
 26 27  4  0  0  0  0
 26 31  1  0  0  0  0
 27 32  1  0  0  0  0
 28 33  1  0  0  0  0
 28 34  1  0  0  0  0
M  END
> <BCLConfClusterSize>
1

> <ConfClashScore>
0 

> <ConfOneFourInteractionScore>
-0.978758 

> <ConfScore>
0.0125896 

> <ConfScorePBest>
0.00404589 

> <ConfTolerance>
0.383037 

> <RosettaParamsInstructions>
M  ROOT 3
M  POLY_N_BB 3
M  POLY_CA_BB 4
M  POLY_C_BB 2
M  POLY_O_BB 5
M  POLY_IGNORE 9 10 11 12 13 14 15 16 17 18 
M  POLY_UPPER 6
M  POLY_LOWER 8
M  POLY_CHG 0
M  POLY_PROPERTIES ALPHA_AA L_AA PROTEIN AROMATIC POLYMER 
M  END

$$$$



 34 34  0  0  0  0  0  0  0  0999 V2000
   -0.2579    3.9930    2.6786 H   0  0  0  1  0  0  0  0  0  0  0  0
    0.9284    2.2903    2.2462 C   0  0  0  1  0  0  0  0  0  0  0  0
    0.6051    4.1757    0.7987 N   0  0  0  1  0  0  0  0  0  0  0  0
   -0.0421    3.3783    1.8298 C   0  0  0  1  0  0  0  0  0  0  0  0
    1.0176    1.2447    1.6040 O   0  0  0  1  0  0  0  0  0  0  0  0
    1.6854    2.5024    3.3344 N   0  0  0  1  0  0  0  0  0  0  0  0
    0.3865    3.9811   -0.1366 H   0  0  0  1  0  0  0  0  0  0  0  0
    1.4785    5.1561    1.0459 C   0  0  0  1  0  0  0  0  0  0  0  0
    2.6313    1.5129    3.8283 C   0  0  0  1  0  0  0  0  0  0  0  0
    2.1744    5.7400   -0.1681 C   0  0  0  1  0  0  0  0  0  0  0  0
    1.7158    5.5717    2.1793 O   0  0  0  1  0  0  0  0  0  0  0  0
    1.5979    3.3533    3.8128 H   0  0  0  1  0  0  0  0  0  0  0  0
    3.0546    0.9801    3.0026 H   0  0  0  1  0  0  0  0  0  0  0  0
    2.1243    0.8261    4.4734 H   0  0  0  1  0  0  0  0  0  0  0  0
    3.4104    2.0050    4.3721 H   0  0  0  1  0  0  0  0  0  0  0  0
    3.2149    5.4925   -0.1368 H   0  0  0  1  0  0  0  0  0  0  0  0
    2.0609    6.8039   -0.1666 H   0  0  0  1  0  0  0  0  0  0  0  0
    1.7385    5.3355   -1.0577 H   0  0  0  1  0  0  0  0  0  0  0  0
   -5.4366    6.7424    0.9856 N   0  3  0  1  0  0  0  0  0  0  0  0
   -6.1358    6.9878    1.9167 O   0  0  0  1  0  0  0  0  0  0  0  0
   -5.6360    7.4571   -0.1302 O   0  5  0  1  0  0  0  0  0  0  0  0
   -4.4254    5.7205    1.0679 C   0  0  0  1  0  0  0  0  0  0  0  0
   -3.6338    5.4440   -0.0308 C   0  0  0  1  0  0  0  0  0  0  0  0
   -2.6562    4.4643    0.0480 C   0  0  0  1  0  0  0  0  0  0  0  0
   -2.4768    3.7603    1.2238 C   0  0  0  1  0  0  0  0  0  0  0  0
   -3.2707    4.0375    2.3258 C   0  0  0  1  0  0  0  0  0  0  0  0
   -4.2453    5.0143    2.2470 C   0  0  0  1  0  0  0  0  0  0  0  0
   -1.3502    2.7595    1.3273 C   0  0  0  1  0  0  0  0  0  0  0  0
   -3.7715    5.9710   -0.9168 H   0  0  0  1  0  0  0  0  0  0  0  0
   -2.0578    4.2591   -0.7775 H   0  0  0  1  0  0  0  0  0  0  0  0
   -3.1329    3.5105    3.2117 H   0  0  0  1  0  0  0  0  0  0  0  0
   -4.8436    5.2195    3.0725 H   0  0  0  1  0  0  0  0  0  0  0  0
   -1.6435    1.9856    2.0055 H   0  0  0  1  0  0  0  0  0  0  0  0
   -1.1780    2.3392    0.3585 H   0  0  0  1  0  0  0  0  0  0  0  0
  1  4  1  0  0  0  0
  2  4  1  0  0  0  0
  2  5  2  0  0  0  0
  2  6  1  0  0  0  0
  3  4  1  0  0  0  0
  3  7  1  0  0  0  0
  3  8  1  0  0  0  0
  4 28  1  0  0  0  0
  6  9  1  0  0  0  0
  6 12  1  0  0  0  0
  8 10  1  0  0  0  0
  8 11  2  0  0  0  0
  9 13  1  0  0  0  0
  9 14  1  0  0  0  0
  9 15  1  0  0  0  0
 10 16  1  0  0  0  0
 10 17  1  0  0  0  0
 10 18  1  0  0  0  0
 19 20  2  0  0  0  0
 19 21  1  0  0  0  0
 19 22  1  0  0  0  0
 22 23  4  0  0  0  0
 22 27  4  0  0  0  0
 23 24  4  0  0  0  0
 23 29  1  0  0  0  0
 24 25  4  0  0  0  0
 24 30  1  0  0  0  0
 25 26  4  0  0  0  0
 25 28  1  0  0  0  0
 26 27  4  0  0  0  0
 26 31  1  0  0  0  0
 27 32  1  0  0  0  0
 28 33  1  0  0  0  0
 28 34  1  0  0  0  0
M  END
> <BCLConfClusterSize>
1

> <ConfClashScore>
0 

> <ConfOneFourInteractionScore>
-0.975259 

> <ConfScore>
0.0132398 

> <ConfScorePBest>
0.00401741 

> <ConfTolerance>
0.403744 

> <RosettaParamsInstructions>
M  ROOT 3
M  POLY_N_BB 3
M  POLY_CA_BB 4
M  POLY_C_BB 2
M  POLY_O_BB 5
M  POLY_IGNORE 9 10 11 12 13 14 15 16 17 18 
M  POLY_UPPER 6
M  POLY_LOWER 8
M  POLY_CHG 0
M  POLY_PROPERTIES ALPHA_AA L_AA PROTEIN AROMATIC POLYMER 
M  END

$$$$



 34 34  0  0  0  0  0  0  0  0999 V2000
    0.6434    2.3684    1.7264 H   0  0  0  1  0  0  0  0  0  0  0  0
    0.5323    4.0160    0.4016 C   0  0  0  1  0  0  0  0  0  0  0  0
    0.0378    4.0318    2.7947 N   0  0  0  1  0  0  0  0  0  0  0  0
    0.0064    3.2171    1.5892 C   0  0  0  1  0  0  0  0  0  0  0  0
    0.3418    5.2177    0.3128 O   0  0  0  1  0  0  0  0  0  0  0  0
    1.2031    3.3172   -0.5154 N   0  0  0  1  0  0  0  0  0  0  0  0
   -0.6229    4.7480    2.8988 H   0  0  0  1  0  0  0  0  0  0  0  0
    0.9361    3.8374    3.7643 C   0  0  0  1  0  0  0  0  0  0  0  0
    1.6667    3.9118   -1.7602 C   0  0  0  1  0  0  0  0  0  0  0  0
    0.9355    4.8656    4.8788 C   0  0  0  1  0  0  0  0  0  0  0  0
    1.7151    2.8984    3.7696 O   0  0  0  1  0  0  0  0  0  0  0  0
    1.3903    2.3704   -0.3450 H   0  0  0  1  0  0  0  0  0  0  0  0
    1.9460    4.9301   -1.5873 H   0  0  0  1  0  0  0  0  0  0  0  0
    0.8816    3.8759   -2.4864 H   0  0  0  1  0  0  0  0  0  0  0  0
    2.5132    3.3665   -2.1221 H   0  0  0  1  0  0  0  0  0  0  0  0
    1.2366    5.8153    4.4886 H   0  0  0  1  0  0  0  0  0  0  0  0
    1.6186    4.5619    5.6443 H   0  0  0  1  0  0  0  0  0  0  0  0
   -0.0492    4.9451    5.2898 H   0  0  0  1  0  0  0  0  0  0  0  0
   -5.4427    6.7455    0.9874 N   0  3  0  1  0  0  0  0  0  0  0  0
   -5.9499    7.1389    1.9895 O   0  0  0  1  0  0  0  0  0  0  0  0
   -5.7950    7.2267   -0.2126 O   0  5  0  1  0  0  0  0  0  0  0  0
   -4.4268    5.7284    1.0699 C   0  0  0  1  0  0  0  0  0  0  0  0
   -3.6137    5.4763   -0.0189 C   0  0  0  1  0  0  0  0  0  0  0  0
   -2.6316    4.5012    0.0602 C   0  0  0  1  0  0  0  0  0  0  0  0
   -2.4690    3.7775    1.2265 C   0  0  0  1  0  0  0  0  0  0  0  0
   -3.2844    4.0302    2.3186 C   0  0  0  1  0  0  0  0  0  0  0  0
   -4.2636    5.0024    2.2394 C   0  0  0  1  0  0  0  0  0  0  0  0
   -1.4029    2.7108    1.3116 C   0  0  0  1  0  0  0  0  0  0  0  0
   -3.7387    6.0182   -0.8978 H   0  0  0  1  0  0  0  0  0  0  0  0
   -2.0171    4.3143   -0.7578 H   0  0  0  1  0  0  0  0  0  0  0  0
   -3.1594    3.4883    3.1974 H   0  0  0  1  0  0  0  0  0  0  0  0
   -4.8780    5.1893    3.0575 H   0  0  0  1  0  0  0  0  0  0  0  0
   -1.6724    2.0369    2.0978 H   0  0  0  1  0  0  0  0  0  0  0  0
   -1.3872    2.1848    0.3800 H   0  0  0  1  0  0  0  0  0  0  0  0
  1  4  1  0  0  0  0
  2  4  1  0  0  0  0
  2  5  2  0  0  0  0
  2  6  1  0  0  0  0
  3  4  1  0  0  0  0
  3  7  1  0  0  0  0
  3  8  1  0  0  0  0
  4 28  1  0  0  0  0
  6  9  1  0  0  0  0
  6 12  1  0  0  0  0
  8 10  1  0  0  0  0
  8 11  2  0  0  0  0
  9 13  1  0  0  0  0
  9 14  1  0  0  0  0
  9 15  1  0  0  0  0
 10 16  1  0  0  0  0
 10 17  1  0  0  0  0
 10 18  1  0  0  0  0
 19 20  2  0  0  0  0
 19 21  1  0  0  0  0
 19 22  1  0  0  0  0
 22 23  4  0  0  0  0
 22 27  4  0  0  0  0
 23 24  4  0  0  0  0
 23 29  1  0  0  0  0
 24 25  4  0  0  0  0
 24 30  1  0  0  0  0
 25 26  4  0  0  0  0
 25 28  1  0  0  0  0
 26 27  4  0  0  0  0
 26 31  1  0  0  0  0
 27 32  1  0  0  0  0
 28 33  1  0  0  0  0
 28 34  1  0  0  0  0
M  END
> <BCLConfClusterSize>
1

> <ConfClashScore>
0 

> <ConfOneFourInteractionScore>
-0.976093 

> <ConfScore>
0.0134747 

> <ConfScorePBest>
0.00398893 

> <ConfTolerance>
0.296921 

> <RosettaParamsInstructions>
M  ROOT 3
M  POLY_N_BB 3
M  POLY_CA_BB 4
M  POLY_C_BB 2
M  POLY_O_BB 5
M  POLY_IGNORE 9 10 11 12 13 14 15 16 17 18 
M  POLY_UPPER 6
M  POLY_LOWER 8
M  POLY_CHG 0
M  POLY_PROPERTIES ALPHA_AA L_AA PROTEIN AROMATIC POLYMER 
M  END

$$$$



 34 34  0  0  0  0  0  0  0  0999 V2000
   -2.3336    1.7347   -0.3604 H   0  0  0  1  0  0  0  0  0  0  0  0
   -0.7639    0.4664    0.2841 C   0  0  0  1  0  0  0  0  0  0  0  0
   -2.9576    0.7705    1.3623 N   0  0  0  1  0  0  0  0  0  0  0  0
   -1.9173    1.4224    0.5746 C   0  0  0  1  0  0  0  0  0  0  0  0
    0.2591    0.8531   -0.2748 O   0  0  0  1  0  0  0  0  0  0  0  0
   -0.9464   -0.8036    0.6767 N   0  0  0  1  0  0  0  0  0  0  0  0
   -3.0256    0.9758    2.3181 H   0  0  0  1  0  0  0  0  0  0  0  0
   -3.8295   -0.1051    0.8207 C   0  0  0  1  0  0  0  0  0  0  0  0
    0.1038   -1.7899    0.4716 C   0  0  0  1  0  0  0  0  0  0  0  0
   -4.9167   -0.6725    1.7125 C   0  0  0  1  0  0  0  0  0  0  0  0
   -3.7471   -0.4350   -0.3612 O   0  0  0  1  0  0  0  0  0  0  0  0
   -1.7887   -1.0675    1.1025 H   0  0  0  1  0  0  0  0  0  0  0  0
    0.9823   -1.4924    1.0051 H   0  0  0  1  0  0  0  0  0  0  0  0
    0.3275   -1.8605   -0.5724 H   0  0  0  1  0  0  0  0  0  0  0  0
   -0.2263   -2.7421    0.8313 H   0  0  0  1  0  0  0  0  0  0  0  0
   -5.5873    0.1101    2.0002 H   0  0  0  1  0  0  0  0  0  0  0  0
   -4.4730   -1.1009    2.5868 H   0  0  0  1  0  0  0  0  0  0  0  0
   -5.4570   -1.4269    1.1799 H   0  0  0  1  0  0  0  0  0  0  0  0
   -5.4631    6.7160    0.9238 N   0  3  0  1  0  0  0  0  0  0  0  0
   -5.8794    7.0633   -0.1355 O   0  0  0  1  0  0  0  0  0  0  0  0
   -5.9753    7.1726    2.0748 O   0  5  0  1  0  0  0  0  0  0  0  0
   -4.3772    5.7785    1.0489 C   0  0  0  1  0  0  0  0  0  0  0  0
   -3.6119    5.4510   -0.0545 C   0  0  0  1  0  0  0  0  0  0  0  0
   -2.6614    4.4459    0.0347 C   0  0  0  1  0  0  0  0  0  0  0  0
   -2.4829    3.7676    1.2256 C   0  0  0  1  0  0  0  0  0  0  0  0
   -3.2504    4.0959    2.3323 C   0  0  0  1  0  0  0  0  0  0  0  0
   -4.1980    5.0980    2.2432 C   0  0  0  1  0  0  0  0  0  0  0  0
   -1.4515    2.6683    1.3220 C   0  0  0  1  0  0  0  0  0  0  0  0
   -3.7491    5.9588   -0.9517 H   0  0  0  1  0  0  0  0  0  0  0  0
   -2.0828    4.2023   -0.7944 H   0  0  0  1  0  0  0  0  0  0  0  0
   -3.1132    3.5881    3.2295 H   0  0  0  1  0  0  0  0  0  0  0  0
   -4.7766    5.3416    3.0723 H   0  0  0  1  0  0  0  0  0  0  0  0
   -0.5325    3.0110    0.8941 H   0  0  0  1  0  0  0  0  0  0  0  0
   -1.2962    2.4222    2.3516 H   0  0  0  1  0  0  0  0  0  0  0  0
  1  4  1  0  0  0  0
  2  4  1  0  0  0  0
  2  5  2  0  0  0  0
  2  6  1  0  0  0  0
  3  4  1  0  0  0  0
  3  7  1  0  0  0  0
  3  8  1  0  0  0  0
  4 28  1  0  0  0  0
  6  9  1  0  0  0  0
  6 12  1  0  0  0  0
  8 10  1  0  0  0  0
  8 11  2  0  0  0  0
  9 13  1  0  0  0  0
  9 14  1  0  0  0  0
  9 15  1  0  0  0  0
 10 16  1  0  0  0  0
 10 17  1  0  0  0  0
 10 18  1  0  0  0  0
 19 20  2  0  0  0  0
 19 21  1  0  0  0  0
 19 22  1  0  0  0  0
 22 23  4  0  0  0  0
 22 27  4  0  0  0  0
 23 24  4  0  0  0  0
 23 29  1  0  0  0  0
 24 25  4  0  0  0  0
 24 30  1  0  0  0  0
 25 26  4  0  0  0  0
 25 28  1  0  0  0  0
 26 27  4  0  0  0  0
 26 31  1  0  0  0  0
 27 32  1  0  0  0  0
 28 33  1  0  0  0  0
 28 34  1  0  0  0  0
M  END
> <BCLConfClusterSize>
1

> <ConfClashScore>
0 

> <ConfOneFourInteractionScore>
-0.956443 

> <ConfScore>
0.0178825 

> <ConfScorePBest>
0.00396045 

> <ConfTolerance>
0.542348 

> <RosettaParamsInstructions>
M  ROOT 3
M  POLY_N_BB 3
M  POLY_CA_BB 4
M  POLY_C_BB 2
M  POLY_O_BB 5
M  POLY_IGNORE 9 10 11 12 13 14 15 16 17 18 
M  POLY_UPPER 6
M  POLY_LOWER 8
M  POLY_CHG 0
M  POLY_PROPERTIES ALPHA_AA L_AA PROTEIN AROMATIC POLYMER 
M  END

$$$$



 34 34  0  0  0  0  0  0  0  0999 V2000
    0.1451    4.1121    1.5656 H   0  0  0  1  0  0  0  0  0  0  0  0
   -0.1080    3.1222    3.4172 C   0  0  0  1  0  0  0  0  0  0  0  0
    0.9819    2.2264    1.4255 N   0  0  0  1  0  0  0  0  0  0  0  0
   -0.0682    3.1171    1.8964 C   0  0  0  1  0  0  0  0  0  0  0  0
    0.0278    2.0838    4.0629 O   0  0  0  1  0  0  0  0  0  0  0  0
   -0.2974    4.3129    3.9879 N   0  0  0  1  0  0  0  0  0  0  0  0
    0.7510    1.5178    0.7891 H   0  0  0  1  0  0  0  0  0  0  0  0
    2.2624    2.3423    1.8345 C   0  0  0  1  0  0  0  0  0  0  0  0
   -0.2777    4.4949    5.4317 C   0  0  0  1  0  0  0  0  0  0  0  0
    3.2695    1.3445    1.3090 C   0  0  0  1  0  0  0  0  0  0  0  0
    2.6031    3.2327    2.6121 O   0  0  0  1  0  0  0  0  0  0  0  0
   -0.4553    5.0922    3.4151 H   0  0  0  1  0  0  0  0  0  0  0  0
   -0.7246    3.6456    5.9049 H   0  0  0  1  0  0  0  0  0  0  0  0
   -0.8282    5.3761    5.6874 H   0  0  0  1  0  0  0  0  0  0  0  0
    0.7342    4.5968    5.7643 H   0  0  0  1  0  0  0  0  0  0  0  0
    2.9935    0.3595    1.6229 H   0  0  0  1  0  0  0  0  0  0  0  0
    4.2398    1.5819    1.6923 H   0  0  0  1  0  0  0  0  0  0  0  0
    3.2877    1.3858    0.2400 H   0  0  0  1  0  0  0  0  0  0  0  0
   -5.4454    6.7176    1.0364 N   0  3  0  1  0  0  0  0  0  0  0  0
   -6.0947    6.9517    2.0058 O   0  0  0  1  0  0  0  0  0  0  0  0
   -5.6353    7.3652   -0.1213 O   0  5  0  1  0  0  0  0  0  0  0  0
   -4.4240    5.7372    1.0342 C   0  0  0  1  0  0  0  0  0  0  0  0
   -3.6181    5.4558   -0.0528 C   0  0  0  1  0  0  0  0  0  0  0  0
   -2.6392    4.4791    0.0444 C   0  0  0  1  0  0  0  0  0  0  0  0
   -2.4728    3.7831    1.2268 C   0  0  0  1  0  0  0  0  0  0  0  0
   -3.2809    4.0653    2.3171 C   0  0  0  1  0  0  0  0  0  0  0  0
   -4.2569    5.0391    2.2200 C   0  0  0  1  0  0  0  0  0  0  0  0
   -1.4102    2.7147    1.3317 C   0  0  0  1  0  0  0  0  0  0  0  0
   -3.7462    5.9768   -0.9438 H   0  0  0  1  0  0  0  0  0  0  0  0
   -2.0302    4.2701   -0.7723 H   0  0  0  1  0  0  0  0  0  0  0  0
   -3.1529    3.5443    3.2080 H   0  0  0  1  0  0  0  0  0  0  0  0
   -4.8659    5.2480    3.0367 H   0  0  0  1  0  0  0  0  0  0  0  0
   -1.7992    1.9363    1.9545 H   0  0  0  1  0  0  0  0  0  0  0  0
   -1.2415    2.3331    0.3464 H   0  0  0  1  0  0  0  0  0  0  0  0
  1  4  1  0  0  0  0
  2  4  1  0  0  0  0
  2  5  2  0  0  0  0
  2  6  1  0  0  0  0
  3  4  1  0  0  0  0
  3  7  1  0  0  0  0
  3  8  1  0  0  0  0
  4 28  1  0  0  0  0
  6  9  1  0  0  0  0
  6 12  1  0  0  0  0
  8 10  1  0  0  0  0
  8 11  2  0  0  0  0
  9 13  1  0  0  0  0
  9 14  1  0  0  0  0
  9 15  1  0  0  0  0
 10 16  1  0  0  0  0
 10 17  1  0  0  0  0
 10 18  1  0  0  0  0
 19 20  2  0  0  0  0
 19 21  1  0  0  0  0
 19 22  1  0  0  0  0
 22 23  4  0  0  0  0
 22 27  4  0  0  0  0
 23 24  4  0  0  0  0
 23 29  1  0  0  0  0
 24 25  4  0  0  0  0
 24 30  1  0  0  0  0
 25 26  4  0  0  0  0
 25 28  1  0  0  0  0
 26 27  4  0  0  0  0
 26 31  1  0  0  0  0
 27 32  1  0  0  0  0
 28 33  1  0  0  0  0
 28 34  1  0  0  0  0
M  END
> <BCLConfClusterSize>
1

> <ConfClashScore>
0 

> <ConfOneFourInteractionScore>
-0.970447 

> <ConfScore>
0.0281113 

> <ConfScorePBest>
0.00393197 

> <ConfTolerance>
0.479243 

> <RosettaParamsInstructions>
M  ROOT 3
M  POLY_N_BB 3
M  POLY_CA_BB 4
M  POLY_C_BB 2
M  POLY_O_BB 5
M  POLY_IGNORE 9 10 11 12 13 14 15 16 17 18 
M  POLY_UPPER 6
M  POLY_LOWER 8
M  POLY_CHG 0
M  POLY_PROPERTIES ALPHA_AA L_AA PROTEIN AROMATIC POLYMER 
M  END

$$$$



 34 34  0  0  0  0  0  0  0  0999 V2000
    0.1674    4.2117    1.5639 H   0  0  0  1  0  0  0  0  0  0  0  0
    1.0686    2.2778    1.4812 C   0  0  0  1  0  0  0  0  0  0  0  0
    0.0949    3.5204   -0.4004 N   0  0  0  1  0  0  0  0  0  0  0  0
    0.0177    3.2937    1.0351 C   0  0  0  1  0  0  0  0  0  0  0  0
    1.3825    1.3190    0.7953 O   0  0  0  1  0  0  0  0  0  0  0  0
    1.6682    2.4408    2.6640 N   0  0  0  1  0  0  0  0  0  0  0  0
   -0.6622    3.2539   -0.9627 H   0  0  0  1  0  0  0  0  0  0  0  0
    1.1726    4.0846   -0.9839 C   0  0  0  1  0  0  0  0  0  0  0  0
    2.5458    1.4308    3.2364 C   0  0  0  1  0  0  0  0  0  0  0  0
    1.3057    3.9767   -2.4905 C   0  0  0  1  0  0  0  0  0  0  0  0
    2.0237    4.6699   -0.3156 O   0  0  0  1  0  0  0  0  0  0  0  0
    1.5116    3.2693    3.1635 H   0  0  0  1  0  0  0  0  0  0  0  0
    3.1358    0.9892    2.4607 H   0  0  0  1  0  0  0  0  0  0  0  0
    1.9565    0.6741    3.7107 H   0  0  0  1  0  0  0  0  0  0  0  0
    3.1903    1.8866    3.9588 H   0  0  0  1  0  0  0  0  0  0  0  0
    1.2418    4.9522   -2.9255 H   0  0  0  1  0  0  0  0  0  0  0  0
    0.5181    3.3628   -2.8749 H   0  0  0  1  0  0  0  0  0  0  0  0
    2.2511    3.5389   -2.7344 H   0  0  0  1  0  0  0  0  0  0  0  0
   -5.4197    6.7663    0.9536 N   0  3  0  1  0  0  0  0  0  0  0  0
   -5.4648    7.4259   -0.0359 O   0  0  0  1  0  0  0  0  0  0  0  0
   -6.2187    6.9664    2.0106 O   0  5  0  1  0  0  0  0  0  0  0  0
   -4.4562    5.6980    1.0172 C   0  0  0  1  0  0  0  0  0  0  0  0
   -3.6338    5.4306   -0.0609 C   0  0  0  1  0  0  0  0  0  0  0  0
   -2.6333    4.4774    0.0501 C   0  0  0  1  0  0  0  0  0  0  0  0
   -2.4619    3.7908    1.2373 C   0  0  0  1  0  0  0  0  0  0  0  0
   -3.2867    4.0589    2.3186 C   0  0  0  1  0  0  0  0  0  0  0  0
   -4.2841    5.0093    2.2078 C   0  0  0  1  0  0  0  0  0  0  0  0
   -1.3758    2.7479    1.3571 C   0  0  0  1  0  0  0  0  0  0  0  0
   -3.7654    5.9444   -0.9554 H   0  0  0  1  0  0  0  0  0  0  0  0
   -2.0119    4.2790   -0.7599 H   0  0  0  1  0  0  0  0  0  0  0  0
   -3.1550    3.5451    3.2131 H   0  0  0  1  0  0  0  0  0  0  0  0
   -4.9055    5.2076    3.0178 H   0  0  0  1  0  0  0  0  0  0  0  0
   -1.3718    2.3740    2.3596 H   0  0  0  1  0  0  0  0  0  0  0  0
   -1.5940    1.9495    0.6790 H   0  0  0  1  0  0  0  0  0  0  0  0
  1  4  1  0  0  0  0
  2  4  1  0  0  0  0
  2  5  2  0  0  0  0
  2  6  1  0  0  0  0
  3  4  1  0  0  0  0
  3  7  1  0  0  0  0
  3  8  1  0  0  0  0
  4 28  1  0  0  0  0
  6  9  1  0  0  0  0
  6 12  1  0  0  0  0
  8 10  1  0  0  0  0
  8 11  2  0  0  0  0
  9 13  1  0  0  0  0
  9 14  1  0  0  0  0
  9 15  1  0  0  0  0
 10 16  1  0  0  0  0
 10 17  1  0  0  0  0
 10 18  1  0  0  0  0
 19 20  2  0  0  0  0
 19 21  1  0  0  0  0
 19 22  1  0  0  0  0
 22 23  4  0  0  0  0
 22 27  4  0  0  0  0
 23 24  4  0  0  0  0
 23 29  1  0  0  0  0
 24 25  4  0  0  0  0
 24 30  1  0  0  0  0
 25 26  4  0  0  0  0
 25 28  1  0  0  0  0
 26 27  4  0  0  0  0
 26 31  1  0  0  0  0
 27 32  1  0  0  0  0
 28 33  1  0  0  0  0
 28 34  1  0  0  0  0
M  END
> <BCLConfClusterSize>
1

> <ConfClashScore>
0 

> <ConfOneFourInteractionScore>
-0.981931 

> <ConfScore>
0.0281953 

> <ConfScorePBest>
0.00390349 

> <ConfTolerance>
0.610673 

> <RosettaParamsInstructions>
M  ROOT 3
M  POLY_N_BB 3
M  POLY_CA_BB 4
M  POLY_C_BB 2
M  POLY_O_BB 5
M  POLY_IGNORE 9 10 11 12 13 14 15 16 17 18 
M  POLY_UPPER 6
M  POLY_LOWER 8
M  POLY_CHG 0
M  POLY_PROPERTIES ALPHA_AA L_AA PROTEIN AROMATIC POLYMER 
M  END

$$$$



 34 34  0  0  0  0  0  0  0  0999 V2000
   -1.1812    2.8969    3.4143 H   0  0  0  1  0  0  0  0  0  0  0  0
    0.3751    1.6310    2.7490 C   0  0  0  1  0  0  0  0  0  0  0  0
    0.2407    4.0678    2.4757 N   0  0  0  1  0  0  0  0  0  0  0  0
   -0.5315    2.8376    2.5662 C   0  0  0  1  0  0  0  0  0  0  0  0
   -0.0599    0.4981    2.8473 O   0  0  0  1  0  0  0  0  0  0  0  0
    1.7070    1.8161    2.8049 N   0  0  0  1  0  0  0  0  0  0  0  0
    1.0063    4.1018    1.8649 H   0  0  0  1  0  0  0  0  0  0  0  0
   -0.0577    5.1524    3.1965 C   0  0  0  1  0  0  0  0  0  0  0  0
    2.5493    0.6599    3.0725 C   0  0  0  1  0  0  0  0  0  0  0  0
    0.8336    6.3584    2.9717 C   0  0  0  1  0  0  0  0  0  0  0  0
   -0.9919    5.1891    3.9962 O   0  0  0  1  0  0  0  0  0  0  0  0
    2.0985    2.7042    2.6692 H   0  0  0  1  0  0  0  0  0  0  0  0
    2.7998    0.6335    4.1125 H   0  0  0  1  0  0  0  0  0  0  0  0
    3.4453    0.7296    2.4918 H   0  0  0  1  0  0  0  0  0  0  0  0
    2.0222   -0.2335    2.8101 H   0  0  0  1  0  0  0  0  0  0  0  0
    0.4175    7.2081    3.4715 H   0  0  0  1  0  0  0  0  0  0  0  0
    0.9026    6.5601    1.9232 H   0  0  0  1  0  0  0  0  0  0  0  0
    1.8095    6.1580    3.3619 H   0  0  0  1  0  0  0  0  0  0  0  0
   -5.4483    6.7435    0.9870 N   0  3  0  1  0  0  0  0  0  0  0  0
   -6.0691    7.0001    1.9693 O   0  0  0  1  0  0  0  0  0  0  0  0
   -5.6473    7.3505   -0.1910 O   0  5  0  1  0  0  0  0  0  0  0  0
   -4.4307    5.7280    1.0697 C   0  0  0  1  0  0  0  0  0  0  0  0
   -3.6310    5.4627   -0.0259 C   0  0  0  1  0  0  0  0  0  0  0  0
   -2.6473    4.4892    0.0533 C   0  0  0  1  0  0  0  0  0  0  0  0
   -2.4698    3.7803    1.2264 C   0  0  0  1  0  0  0  0  0  0  0  0
   -3.2718    4.0463    2.3253 C   0  0  0  1  0  0  0  0  0  0  0  0
   -4.2525    5.0169    2.2461 C   0  0  0  1  0  0  0  0  0  0  0  0
   -1.4021    2.7153    1.3117 C   0  0  0  1  0  0  0  0  0  0  0  0
   -3.7673    5.9934   -0.9099 H   0  0  0  1  0  0  0  0  0  0  0  0
   -2.0430    4.2923   -0.7698 H   0  0  0  1  0  0  0  0  0  0  0  0
   -3.1355    3.5156    3.2093 H   0  0  0  1  0  0  0  0  0  0  0  0
   -4.8569    5.2137    3.0693 H   0  0  0  1  0  0  0  0  0  0  0  0
   -1.8771    1.7566    1.3190 H   0  0  0  1  0  0  0  0  0  0  0  0
   -0.7719    2.7952    0.4507 H   0  0  0  1  0  0  0  0  0  0  0  0
  1  4  1  0  0  0  0
  2  4  1  0  0  0  0
  2  5  2  0  0  0  0
  2  6  1  0  0  0  0
  3  4  1  0  0  0  0
  3  7  1  0  0  0  0
  3  8  1  0  0  0  0
  4 28  1  0  0  0  0
  6  9  1  0  0  0  0
  6 12  1  0  0  0  0
  8 10  1  0  0  0  0
  8 11  2  0  0  0  0
  9 13  1  0  0  0  0
  9 14  1  0  0  0  0
  9 15  1  0  0  0  0
 10 16  1  0  0  0  0
 10 17  1  0  0  0  0
 10 18  1  0  0  0  0
 19 20  2  0  0  0  0
 19 21  1  0  0  0  0
 19 22  1  0  0  0  0
 22 23  4  0  0  0  0
 22 27  4  0  0  0  0
 23 24  4  0  0  0  0
 23 29  1  0  0  0  0
 24 25  4  0  0  0  0
 24 30  1  0  0  0  0
 25 26  4  0  0  0  0
 25 28  1  0  0  0  0
 26 27  4  0  0  0  0
 26 31  1  0  0  0  0
 27 32  1  0  0  0  0
 28 33  1  0  0  0  0
 28 34  1  0  0  0  0
M  END
> <BCLConfClusterSize>
1

> <ConfClashScore>
0 

> <ConfOneFourInteractionScore>
-0.965014 

> <ConfScore>
0.0289828 

> <ConfScorePBest>
0.00387501 

> <ConfTolerance>
0.415777 

> <RosettaParamsInstructions>
M  ROOT 3
M  POLY_N_BB 3
M  POLY_CA_BB 4
M  POLY_C_BB 2
M  POLY_O_BB 5
M  POLY_IGNORE 9 10 11 12 13 14 15 16 17 18 
M  POLY_UPPER 6
M  POLY_LOWER 8
M  POLY_CHG 0
M  POLY_PROPERTIES ALPHA_AA L_AA PROTEIN AROMATIC POLYMER 
M  END

$$$$



 34 34  0  0  0  0  0  0  0  0999 V2000
    0.6742    2.5373    1.6219 H   0  0  0  1  0  0  0  0  0  0  0  0
    0.4154    4.0570    0.2047 C   0  0  0  1  0  0  0  0  0  0  0  0
    0.0699    4.2230    2.6373 N   0  0  0  1  0  0  0  0  0  0  0  0
   -0.0167    3.3399    1.4689 C   0  0  0  1  0  0  0  0  0  0  0  0
    0.4720    5.2858    0.2302 O   0  0  0  1  0  0  0  0  0  0  0  0
    0.7129    3.3162   -0.8736 N   0  0  0  1  0  0  0  0  0  0  0  0
   -0.7677    4.4672    3.0838 H   0  0  0  1  0  0  0  0  0  0  0  0
    1.2027    4.7187    3.1376 C   0  0  0  1  0  0  0  0  0  0  0  0
    1.0448    3.9621   -2.1349 C   0  0  0  1  0  0  0  0  0  0  0  0
    1.0248    5.5921    4.3809 C   0  0  0  1  0  0  0  0  0  0  0  0
    2.3270    4.4534    2.7143 O   0  0  0  1  0  0  0  0  0  0  0  0
    0.7068    2.3382   -0.8119 H   0  0  0  1  0  0  0  0  0  0  0  0
    2.0997    4.1353   -2.1807 H   0  0  0  1  0  0  0  0  0  0  0  0
    0.5269    4.8958   -2.2043 H   0  0  0  1  0  0  0  0  0  0  0  0
    0.7518    3.3299   -2.9469 H   0  0  0  1  0  0  0  0  0  0  0  0
    0.6668    6.5577    4.0908 H   0  0  0  1  0  0  0  0  0  0  0  0
    1.9650    5.6960    4.8810 H   0  0  0  1  0  0  0  0  0  0  0  0
    0.3182    5.1333    5.0406 H   0  0  0  1  0  0  0  0  0  0  0  0
   -5.4432    6.7358    0.9830 N   0  3  0  1  0  0  0  0  0  0  0  0
   -6.1623    6.9597    1.9043 O   0  0  0  1  0  0  0  0  0  0  0  0
   -5.6271    7.4678   -0.1242 O   0  5  0  1  0  0  0  0  0  0  0  0
   -4.4251    5.7210    1.0677 C   0  0  0  1  0  0  0  0  0  0  0  0
   -3.6327    5.4462   -0.0309 C   0  0  0  1  0  0  0  0  0  0  0  0
   -2.6485    4.4734    0.0502 C   0  0  0  1  0  0  0  0  0  0  0  0
   -2.4633    3.7745    1.2281 C   0  0  0  1  0  0  0  0  0  0  0  0
   -3.2580    4.0499    2.3300 C   0  0  0  1  0  0  0  0  0  0  0  0
   -4.2392    5.0199    2.2489 C   0  0  0  1  0  0  0  0  0  0  0  0
   -1.3950    2.7102    1.3155 C   0  0  0  1  0  0  0  0  0  0  0  0
   -3.7747    5.9694   -0.9184 H   0  0  0  1  0  0  0  0  0  0  0  0
   -2.0495    4.2694   -0.7752 H   0  0  0  1  0  0  0  0  0  0  0  0
   -3.1159    3.5268    3.2175 H   0  0  0  1  0  0  0  0  0  0  0  0
   -4.8381    5.2238    3.0743 H   0  0  0  1  0  0  0  0  0  0  0  0
   -1.5912    2.0849    2.1613 H   0  0  0  1  0  0  0  0  0  0  0  0
   -1.4138    2.1202    0.4231 H   0  0  0  1  0  0  0  0  0  0  0  0
  1  4  1  0  0  0  0
  2  4  1  0  0  0  0
  2  5  2  0  0  0  0
  2  6  1  0  0  0  0
  3  4  1  0  0  0  0
  3  7  1  0  0  0  0
  3  8  1  0  0  0  0
  4 28  1  0  0  0  0
  6  9  1  0  0  0  0
  6 12  1  0  0  0  0
  8 10  1  0  0  0  0
  8 11  2  0  0  0  0
  9 13  1  0  0  0  0
  9 14  1  0  0  0  0
  9 15  1  0  0  0  0
 10 16  1  0  0  0  0
 10 17  1  0  0  0  0
 10 18  1  0  0  0  0
 19 20  2  0  0  0  0
 19 21  1  0  0  0  0
 19 22  1  0  0  0  0
 22 23  4  0  0  0  0
 22 27  4  0  0  0  0
 23 24  4  0  0  0  0
 23 29  1  0  0  0  0
 24 25  4  0  0  0  0
 24 30  1  0  0  0  0
 25 26  4  0  0  0  0
 25 28  1  0  0  0  0
 26 27  4  0  0  0  0
 26 31  1  0  0  0  0
 27 32  1  0  0  0  0
 28 33  1  0  0  0  0
 28 34  1  0  0  0  0
M  END
> <BCLConfClusterSize>
1

> <ConfClashScore>
0 

> <ConfOneFourInteractionScore>
-0.977982 

> <ConfScore>
0.0291166 

> <ConfScorePBest>
0.00384653 

> <ConfTolerance>
0.382138 

> <RosettaParamsInstructions>
M  ROOT 3
M  POLY_N_BB 3
M  POLY_CA_BB 4
M  POLY_C_BB 2
M  POLY_O_BB 5
M  POLY_IGNORE 9 10 11 12 13 14 15 16 17 18 
M  POLY_UPPER 6
M  POLY_LOWER 8
M  POLY_CHG 0
M  POLY_PROPERTIES ALPHA_AA L_AA PROTEIN AROMATIC POLYMER 
M  END

$$$$



 34 34  0  0  0  0  0  0  0  0999 V2000
   -2.8669    1.3998    2.0694 H   0  0  0  1  0  0  0  0  0  0  0  0
   -2.3614    0.7227    0.1405 C   0  0  0  1  0  0  0  0  0  0  0  0
   -1.0331    0.4795    2.2190 N   0  0  0  1  0  0  0  0  0  0  0  0
   -1.9724    1.3169    1.4881 C   0  0  0  1  0  0  0  0  0  0  0  0
   -3.4448    0.9730   -0.3860 O   0  0  0  1  0  0  0  0  0  0  0  0
   -1.4166   -0.0804   -0.3911 N   0  0  0  1  0  0  0  0  0  0  0  0
   -0.1581    0.8493    2.4600 H   0  0  0  1  0  0  0  0  0  0  0  0
   -1.3245   -0.7866    2.5759 C   0  0  0  1  0  0  0  0  0  0  0  0
   -1.6621   -0.7609   -1.6538 C   0  0  0  1  0  0  0  0  0  0  0  0
   -0.2057   -1.4793    3.3433 C   0  0  0  1  0  0  0  0  0  0  0  0
   -2.3834   -1.3594    2.3225 O   0  0  0  1  0  0  0  0  0  0  0  0
   -0.5632   -0.2058    0.0742 H   0  0  0  1  0  0  0  0  0  0  0  0
   -1.0297   -1.6212   -1.7248 H   0  0  0  1  0  0  0  0  0  0  0  0
   -1.4506   -0.0953   -2.4644 H   0  0  0  1  0  0  0  0  0  0  0  0
   -2.6864   -1.0667   -1.7007 H   0  0  0  1  0  0  0  0  0  0  0  0
   -0.2886   -2.5386    3.2170 H   0  0  0  1  0  0  0  0  0  0  0  0
   -0.2832   -1.2370    4.3826 H   0  0  0  1  0  0  0  0  0  0  0  0
    0.7408   -1.1488    2.9692 H   0  0  0  1  0  0  0  0  0  0  0  0
   -5.4257    6.7440    0.9115 N   0  3  0  1  0  0  0  0  0  0  0  0
   -5.6370    7.1654   -0.1811 O   0  0  0  1  0  0  0  0  0  0  0  0
   -6.0700    7.1734    2.0052 O   0  5  0  1  0  0  0  0  0  0  0  0
   -4.4338    5.7281    1.0639 C   0  0  0  1  0  0  0  0  0  0  0  0
   -3.6504    5.4378   -0.0371 C   0  0  0  1  0  0  0  0  0  0  0  0
   -2.6665    4.4651    0.0492 C   0  0  0  1  0  0  0  0  0  0  0  0
   -2.4727    3.7819    1.2349 C   0  0  0  1  0  0  0  0  0  0  0  0
   -3.2583    4.0729    2.3392 C   0  0  0  1  0  0  0  0  0  0  0  0
   -4.2392    5.0427    2.2530 C   0  0  0  1  0  0  0  0  0  0  0  0
   -1.4047    2.7178    1.3280 C   0  0  0  1  0  0  0  0  0  0  0  0
   -3.7991    5.9492   -0.9304 H   0  0  0  1  0  0  0  0  0  0  0  0
   -2.0744    4.2495   -0.7781 H   0  0  0  1  0  0  0  0  0  0  0  0
   -3.1097    3.5615    3.2325 H   0  0  0  1  0  0  0  0  0  0  0  0
   -4.8313    5.2583    3.0803 H   0  0  0  1  0  0  0  0  0  0  0  0
   -0.8162    2.7468    0.4349 H   0  0  0  1  0  0  0  0  0  0  0  0
   -0.7833    2.9319    2.1723 H   0  0  0  1  0  0  0  0  0  0  0  0
  1  4  1  0  0  0  0
  2  4  1  0  0  0  0
  2  5  2  0  0  0  0
  2  6  1  0  0  0  0
  3  4  1  0  0  0  0
  3  7  1  0  0  0  0
  3  8  1  0  0  0  0
  4 28  1  0  0  0  0
  6  9  1  0  0  0  0
  6 12  1  0  0  0  0
  8 10  1  0  0  0  0
  8 11  2  0  0  0  0
  9 13  1  0  0  0  0
  9 14  1  0  0  0  0
  9 15  1  0  0  0  0
 10 16  1  0  0  0  0
 10 17  1  0  0  0  0
 10 18  1  0  0  0  0
 19 20  2  0  0  0  0
 19 21  1  0  0  0  0
 19 22  1  0  0  0  0
 22 23  4  0  0  0  0
 22 27  4  0  0  0  0
 23 24  4  0  0  0  0
 23 29  1  0  0  0  0
 24 25  4  0  0  0  0
 24 30  1  0  0  0  0
 25 26  4  0  0  0  0
 25 28  1  0  0  0  0
 26 27  4  0  0  0  0
 26 31  1  0  0  0  0
 27 32  1  0  0  0  0
 28 33  1  0  0  0  0
 28 34  1  0  0  0  0
M  END
> <BCLConfClusterSize>
1

> <ConfClashScore>
0 

> <ConfOneFourInteractionScore>
-0.948834 

> <ConfScore>
0.0296096 

> <ConfScorePBest>
0.00381805 

> <ConfTolerance>
0.480481 

> <RosettaParamsInstructions>
M  ROOT 3
M  POLY_N_BB 3
M  POLY_CA_BB 4
M  POLY_C_BB 2
M  POLY_O_BB 5
M  POLY_IGNORE 9 10 11 12 13 14 15 16 17 18 
M  POLY_UPPER 6
M  POLY_LOWER 8
M  POLY_CHG 0
M  POLY_PROPERTIES ALPHA_AA L_AA PROTEIN AROMATIC POLYMER 
M  END

$$$$



 34 34  0  0  0  0  0  0  0  0999 V2000
    0.5729    2.3167    1.8844 H   0  0  0  1  0  0  0  0  0  0  0  0
    0.4347    4.3066    1.1515 C   0  0  0  1  0  0  0  0  0  0  0  0
   -0.3064    3.5460    3.3088 N   0  0  0  1  0  0  0  0  0  0  0  0
   -0.1289    3.1232    1.9276 C   0  0  0  1  0  0  0  0  0  0  0  0
    0.1525    5.4593    1.4678 O   0  0  0  1  0  0  0  0  0  0  0  0
    1.2468    4.0515    0.1143 N   0  0  0  1  0  0  0  0  0  0  0  0
   -0.5255    4.4834    3.4921 H   0  0  0  1  0  0  0  0  0  0  0  0
   -0.1811    2.7005    4.3357 C   0  0  0  1  0  0  0  0  0  0  0  0
    1.8684    5.1476   -0.6138 C   0  0  0  1  0  0  0  0  0  0  0  0
   -0.4660    3.2678    5.7127 C   0  0  0  1  0  0  0  0  0  0  0  0
    0.0701    1.5064    4.1805 O   0  0  0  1  0  0  0  0  0  0  0  0
    1.4217    3.1252   -0.1534 H   0  0  0  1  0  0  0  0  0  0  0  0
    1.2708    6.0291   -0.5109 H   0  0  0  1  0  0  0  0  0  0  0  0
    1.9465    4.8887   -1.6491 H   0  0  0  1  0  0  0  0  0  0  0  0
    2.8450    5.3307   -0.2167 H   0  0  0  1  0  0  0  0  0  0  0  0
   -1.4607    3.6611    5.7382 H   0  0  0  1  0  0  0  0  0  0  0  0
    0.2321    4.0498    5.9274 H   0  0  0  1  0  0  0  0  0  0  0  0
   -0.3703    2.4929    6.4443 H   0  0  0  1  0  0  0  0  0  0  0  0
   -5.4140    6.7608    0.9408 N   0  3  0  1  0  0  0  0  0  0  0  0
   -5.4480    7.7814    0.3298 O   0  0  0  1  0  0  0  0  0  0  0  0
   -6.5171    6.4694    1.6436 O   0  5  0  1  0  0  0  0  0  0  0  0
   -4.3706    5.7747    1.0515 C   0  0  0  1  0  0  0  0  0  0  0  0
   -3.5357    5.5216   -0.0205 C   0  0  0  1  0  0  0  0  0  0  0  0
   -2.5861    4.5151    0.0628 C   0  0  0  1  0  0  0  0  0  0  0  0
   -2.4779    3.7612    1.2162 C   0  0  0  1  0  0  0  0  0  0  0  0
   -3.3152    4.0149    2.2914 C   0  0  0  1  0  0  0  0  0  0  0  0
   -4.2618    5.0184    2.2081 C   0  0  0  1  0  0  0  0  0  0  0  0
   -1.4474    2.6605    1.3056 C   0  0  0  1  0  0  0  0  0  0  0  0
   -3.6199    6.0863   -0.8898 H   0  0  0  1  0  0  0  0  0  0  0  0
   -1.9553    4.3273   -0.7424 H   0  0  0  1  0  0  0  0  0  0  0  0
   -3.2310    3.4502    3.1606 H   0  0  0  1  0  0  0  0  0  0  0  0
   -4.8927    5.2062    3.0133 H   0  0  0  1  0  0  0  0  0  0  0  0
   -1.8466    1.8681    1.9037 H   0  0  0  1  0  0  0  0  0  0  0  0
   -1.2496    2.2980    0.3185 H   0  0  0  1  0  0  0  0  0  0  0  0
  1  4  1  0  0  0  0
  2  4  1  0  0  0  0
  2  5  2  0  0  0  0
  2  6  1  0  0  0  0
  3  4  1  0  0  0  0
  3  7  1  0  0  0  0
  3  8  1  0  0  0  0
  4 28  1  0  0  0  0
  6  9  1  0  0  0  0
  6 12  1  0  0  0  0
  8 10  1  0  0  0  0
  8 11  2  0  0  0  0
  9 13  1  0  0  0  0
  9 14  1  0  0  0  0
  9 15  1  0  0  0  0
 10 16  1  0  0  0  0
 10 17  1  0  0  0  0
 10 18  1  0  0  0  0
 19 20  2  0  0  0  0
 19 21  1  0  0  0  0
 19 22  1  0  0  0  0
 22 23  4  0  0  0  0
 22 27  4  0  0  0  0
 23 24  4  0  0  0  0
 23 29  1  0  0  0  0
 24 25  4  0  0  0  0
 24 30  1  0  0  0  0
 25 26  4  0  0  0  0
 25 28  1  0  0  0  0
 26 27  4  0  0  0  0
 26 31  1  0  0  0  0
 27 32  1  0  0  0  0
 28 33  1  0  0  0  0
 28 34  1  0  0  0  0
M  END
> <BCLConfClusterSize>
1

> <ConfClashScore>
0 

> <ConfOneFourInteractionScore>
-0.987258 

> <ConfScore>
0.0311927 

> <ConfScorePBest>
0.00378957 

> <ConfTolerance>
0.402151 

> <RosettaParamsInstructions>
M  ROOT 3
M  POLY_N_BB 3
M  POLY_CA_BB 4
M  POLY_C_BB 2
M  POLY_O_BB 5
M  POLY_IGNORE 9 10 11 12 13 14 15 16 17 18 
M  POLY_UPPER 6
M  POLY_LOWER 8
M  POLY_CHG 0
M  POLY_PROPERTIES ALPHA_AA L_AA PROTEIN AROMATIC POLYMER 
M  END

$$$$



 34 34  0  0  0  0  0  0  0  0999 V2000
   -2.6842    1.4065    0.2739 H   0  0  0  1  0  0  0  0  0  0  0  0
   -0.8953    1.6031   -0.8426 C   0  0  0  1  0  0  0  0  0  0  0  0
   -1.2126    0.2758    1.1855 N   0  0  0  1  0  0  0  0  0  0  0  0
   -1.6376    1.4783    0.4846 C   0  0  0  1  0  0  0  0  0  0  0  0
   -1.4468    2.0626   -1.8418 O   0  0  0  1  0  0  0  0  0  0  0  0
    0.3859    1.1804   -0.8396 N   0  0  0  1  0  0  0  0  0  0  0  0
   -0.9116    0.3516    2.1150 H   0  0  0  1  0  0  0  0  0  0  0  0
   -1.2184   -0.9279    0.6057 C   0  0  0  1  0  0  0  0  0  0  0  0
    1.1631    1.1949   -2.0699 C   0  0  0  1  0  0  0  0  0  0  0  0
   -0.7254   -2.0755    1.4655 C   0  0  0  1  0  0  0  0  0  0  0  0
   -1.5953   -1.1124   -0.5485 O   0  0  0  1  0  0  0  0  0  0  0  0
    0.7941    0.8628   -0.0072 H   0  0  0  1  0  0  0  0  0  0  0  0
    1.9637    0.4890   -1.9951 H   0  0  0  1  0  0  0  0  0  0  0  0
    1.5649    2.1743   -2.2261 H   0  0  0  1  0  0  0  0  0  0  0  0
    0.5321    0.9323   -2.8932 H   0  0  0  1  0  0  0  0  0  0  0  0
    0.3066   -1.9249    1.7047 H   0  0  0  1  0  0  0  0  0  0  0  0
   -0.8366   -2.9952    0.9301 H   0  0  0  1  0  0  0  0  0  0  0  0
   -1.2982   -2.1161    2.3683 H   0  0  0  1  0  0  0  0  0  0  0  0
   -5.4453    6.7189    1.0208 N   0  3  0  1  0  0  0  0  0  0  0  0
   -6.1331    6.8201    1.9866 O   0  0  0  1  0  0  0  0  0  0  0  0
   -5.5869    7.4851   -0.0693 O   0  5  0  1  0  0  0  0  0  0  0  0
   -4.4246    5.7377    1.0249 C   0  0  0  1  0  0  0  0  0  0  0  0
   -3.6246    5.4428   -0.0628 C   0  0  0  1  0  0  0  0  0  0  0  0
   -2.6460    4.4665    0.0408 C   0  0  0  1  0  0  0  0  0  0  0  0
   -2.4739    3.7843    1.2305 C   0  0  0  1  0  0  0  0  0  0  0  0
   -3.2762    4.0800    2.3215 C   0  0  0  1  0  0  0  0  0  0  0  0
   -4.2519    5.0534    2.2180 C   0  0  0  1  0  0  0  0  0  0  0  0
   -1.4117    2.7163    1.3425 C   0  0  0  1  0  0  0  0  0  0  0  0
   -3.7568    5.9533   -0.9592 H   0  0  0  1  0  0  0  0  0  0  0  0
   -2.0413    4.2473   -0.7765 H   0  0  0  1  0  0  0  0  0  0  0  0
   -3.1440    3.5695    3.2179 H   0  0  0  1  0  0  0  0  0  0  0  0
   -4.8565    5.2725    3.0353 H   0  0  0  1  0  0  0  0  0  0  0  0
   -0.4762    3.1499    1.0565 H   0  0  0  1  0  0  0  0  0  0  0  0
   -1.3632    2.4049    2.3651 H   0  0  0  1  0  0  0  0  0  0  0  0
  1  4  1  0  0  0  0
  2  4  1  0  0  0  0
  2  5  2  0  0  0  0
  2  6  1  0  0  0  0
  3  4  1  0  0  0  0
  3  7  1  0  0  0  0
  3  8  1  0  0  0  0
  4 28  1  0  0  0  0
  6  9  1  0  0  0  0
  6 12  1  0  0  0  0
  8 10  1  0  0  0  0
  8 11  2  0  0  0  0
  9 13  1  0  0  0  0
  9 14  1  0  0  0  0
  9 15  1  0  0  0  0
 10 16  1  0  0  0  0
 10 17  1  0  0  0  0
 10 18  1  0  0  0  0
 19 20  2  0  0  0  0
 19 21  1  0  0  0  0
 19 22  1  0  0  0  0
 22 23  4  0  0  0  0
 22 27  4  0  0  0  0
 23 24  4  0  0  0  0
 23 29  1  0  0  0  0
 24 25  4  0  0  0  0
 24 30  1  0  0  0  0
 25 26  4  0  0  0  0
 25 28  1  0  0  0  0
 26 27  4  0  0  0  0
 26 31  1  0  0  0  0
 27 32  1  0  0  0  0
 28 33  1  0  0  0  0
 28 34  1  0  0  0  0
M  END
> <BCLConfClusterSize>
1

> <ConfClashScore>
0 

> <ConfOneFourInteractionScore>
-0.940901 

> <ConfScore>
0.0379974 

> <ConfScorePBest>
0.00376109 

> <ConfTolerance>
0.691849 

> <RosettaParamsInstructions>
M  ROOT 3
M  POLY_N_BB 3
M  POLY_CA_BB 4
M  POLY_C_BB 2
M  POLY_O_BB 5
M  POLY_IGNORE 9 10 11 12 13 14 15 16 17 18 
M  POLY_UPPER 6
M  POLY_LOWER 8
M  POLY_CHG 0
M  POLY_PROPERTIES ALPHA_AA L_AA PROTEIN AROMATIC POLYMER 
M  END

$$$$



 34 34  0  0  0  0  0  0  0  0999 V2000
    0.6498    2.3342    1.3335 H   0  0  0  1  0  0  0  0  0  0  0  0
    0.2460    3.6130   -0.3052 C   0  0  0  1  0  0  0  0  0  0  0  0
    0.2980    4.2396    2.0562 N   0  0  0  1  0  0  0  0  0  0  0  0
   -0.0011    3.1584    1.1291 C   0  0  0  1  0  0  0  0  0  0  0  0
    0.0632    4.7828   -0.6397 O   0  0  0  1  0  0  0  0  0  0  0  0
    0.5889    2.6367   -1.1603 N   0  0  0  1  0  0  0  0  0  0  0  0
    0.1730    5.1652    1.7595 H   0  0  0  1  0  0  0  0  0  0  0  0
    0.7370    4.0142    3.2978 C   0  0  0  1  0  0  0  0  0  0  0  0
    0.7359    2.8709   -2.5891 C   0  0  0  1  0  0  0  0  0  0  0  0
    0.9163    5.2412    4.1849 C   0  0  0  1  0  0  0  0  0  0  0  0
    0.9123    2.8797    3.7401 O   0  0  0  1  0  0  0  0  0  0  0  0
    0.7458    1.7349   -0.8103 H   0  0  0  1  0  0  0  0  0  0  0  0
    0.1608    3.7279   -2.8716 H   0  0  0  1  0  0  0  0  0  0  0  0
    0.3879    2.0147   -3.1283 H   0  0  0  1  0  0  0  0  0  0  0  0
    1.7669    3.0423   -2.8180 H   0  0  0  1  0  0  0  0  0  0  0  0
    1.8661    5.6912    3.9844 H   0  0  0  1  0  0  0  0  0  0  0  0
    0.8709    4.9475    5.2128 H   0  0  0  1  0  0  0  0  0  0  0  0
    0.1376    5.9459    3.9801 H   0  0  0  1  0  0  0  0  0  0  0  0
   -5.4639    6.7280    0.9812 N   0  3  0  1  0  0  0  0  0  0  0  0
   -5.9850    7.0764    1.9928 O   0  0  0  1  0  0  0  0  0  0  0  0
   -5.7190    7.2735   -0.2158 O   0  5  0  1  0  0  0  0  0  0  0  0
   -4.4360    5.7233    1.0678 C   0  0  0  1  0  0  0  0  0  0  0  0
   -3.6237    5.4724   -0.0219 C   0  0  0  1  0  0  0  0  0  0  0  0
   -2.6301    4.5093    0.0612 C   0  0  0  1  0  0  0  0  0  0  0  0
   -2.4554    3.7962    1.2322 C   0  0  0  1  0  0  0  0  0  0  0  0
   -3.2699    4.0477    2.3252 C   0  0  0  1  0  0  0  0  0  0  0  0
   -4.2605    5.0079    2.2422 C   0  0  0  1  0  0  0  0  0  0  0  0
   -1.4449    2.6756    1.2995 C   0  0  0  1  0  0  0  0  0  0  0  0
   -3.7580    6.0062   -0.9043 H   0  0  0  1  0  0  0  0  0  0  0  0
   -2.0163    4.3234   -0.7575 H   0  0  0  1  0  0  0  0  0  0  0  0
   -3.1357    3.5139    3.2076 H   0  0  0  1  0  0  0  0  0  0  0  0
   -4.8743    5.1939    3.0609 H   0  0  0  1  0  0  0  0  0  0  0  0
   -1.5330    2.1943    2.2511 H   0  0  0  1  0  0  0  0  0  0  0  0
   -1.6630    1.9732    0.5224 H   0  0  0  1  0  0  0  0  0  0  0  0
  1  4  1  0  0  0  0
  2  4  1  0  0  0  0
  2  5  2  0  0  0  0
  2  6  1  0  0  0  0
  3  4  1  0  0  0  0
  3  7  1  0  0  0  0
  3  8  1  0  0  0  0
  4 28  1  0  0  0  0
  6  9  1  0  0  0  0
  6 12  1  0  0  0  0
  8 10  1  0  0  0  0
  8 11  2  0  0  0  0
  9 13  1  0  0  0  0
  9 14  1  0  0  0  0
  9 15  1  0  0  0  0
 10 16  1  0  0  0  0
 10 17  1  0  0  0  0
 10 18  1  0  0  0  0
 19 20  2  0  0  0  0
 19 21  1  0  0  0  0
 19 22  1  0  0  0  0
 22 23  4  0  0  0  0
 22 27  4  0  0  0  0
 23 24  4  0  0  0  0
 23 29  1  0  0  0  0
 24 25  4  0  0  0  0
 24 30  1  0  0  0  0
 25 26  4  0  0  0  0
 25 28  1  0  0  0  0
 26 27  4  0  0  0  0
 26 31  1  0  0  0  0
 27 32  1  0  0  0  0
 28 33  1  0  0  0  0
 28 34  1  0  0  0  0
M  END
> <BCLConfClusterSize>
1

> <ConfClashScore>
0 

> <ConfOneFourInteractionScore>
-0.980789 

> <ConfScore>
0.0439799 

> <ConfScorePBest>
0.00373261 

> <ConfTolerance>
0.532017 

> <RosettaParamsInstructions>
M  ROOT 3
M  POLY_N_BB 3
M  POLY_CA_BB 4
M  POLY_C_BB 2
M  POLY_O_BB 5
M  POLY_IGNORE 9 10 11 12 13 14 15 16 17 18 
M  POLY_UPPER 6
M  POLY_LOWER 8
M  POLY_CHG 0
M  POLY_PROPERTIES ALPHA_AA L_AA PROTEIN AROMATIC POLYMER 
M  END

$$$$



 34 34  0  0  0  0  0  0  0  0999 V2000
    0.3666    3.9469    1.1918 H   0  0  0  1  0  0  0  0  0  0  0  0
   -0.2726    4.1375    3.1908 C   0  0  0  1  0  0  0  0  0  0  0  0
    0.8821    2.2416    2.2266 N   0  0  0  1  0  0  0  0  0  0  0  0
   -0.0647    3.3071    1.9332 C   0  0  0  1  0  0  0  0  0  0  0  0
    0.0475    3.7093    4.2988 O   0  0  0  1  0  0  0  0  0  0  0  0
   -0.8180    5.3432    3.0066 N   0  0  0  1  0  0  0  0  0  0  0  0
    0.8706    1.8052    3.1040 H   0  0  0  1  0  0  0  0  0  0  0  0
    1.7655    1.8577    1.3038 C   0  0  0  1  0  0  0  0  0  0  0  0
   -1.2192    6.1464    4.1519 C   0  0  0  1  0  0  0  0  0  0  0  0
    2.7372    0.7687    1.7149 C   0  0  0  1  0  0  0  0  0  0  0  0
    1.7514    2.2952    0.1543 O   0  0  0  1  0  0  0  0  0  0  0  0
   -0.9482    5.6874    2.0983 H   0  0  0  1  0  0  0  0  0  0  0  0
   -1.4739    5.5028    4.9679 H   0  0  0  1  0  0  0  0  0  0  0  0
   -2.0683    6.7422    3.8895 H   0  0  0  1  0  0  0  0  0  0  0  0
   -0.4104    6.7847    4.4405 H   0  0  0  1  0  0  0  0  0  0  0  0
    2.5562    0.4942    2.7331 H   0  0  0  1  0  0  0  0  0  0  0  0
    3.7397    1.1295    1.6159 H   0  0  0  1  0  0  0  0  0  0  0  0
    2.6016   -0.0861    1.0857 H   0  0  0  1  0  0  0  0  0  0  0  0
   -5.4420    6.7383    1.0386 N   0  3  0  1  0  0  0  0  0  0  0  0
   -6.2147    7.0962    1.8697 O   0  0  0  1  0  0  0  0  0  0  0  0
   -5.4729    7.4214   -0.1139 O   0  5  0  1  0  0  0  0  0  0  0  0
   -4.4667    5.6792    1.0665 C   0  0  0  1  0  0  0  0  0  0  0  0
   -3.6722    5.4285   -0.0363 C   0  0  0  1  0  0  0  0  0  0  0  0
   -2.6598    4.4845    0.0388 C   0  0  0  1  0  0  0  0  0  0  0  0
   -2.4484    3.7904    1.2151 C   0  0  0  1  0  0  0  0  0  0  0  0
   -3.2450    4.0418    2.3213 C   0  0  0  1  0  0  0  0  0  0  0  0
   -4.2544    4.9829    2.2462 C   0  0  0  1  0  0  0  0  0  0  0  0
   -1.3653    2.7469    1.3551 C   0  0  0  1  0  0  0  0  0  0  0  0
   -3.8340    5.9480   -0.9226 H   0  0  0  1  0  0  0  0  0  0  0  0
   -2.0595    4.2987   -0.7898 H   0  0  0  1  0  0  0  0  0  0  0  0
   -3.0833    3.5223    3.2076 H   0  0  0  1  0  0  0  0  0  0  0  0
   -4.8547    5.1687    3.0748 H   0  0  0  1  0  0  0  0  0  0  0  0
   -1.7201    1.9725    2.0027 H   0  0  0  1  0  0  0  0  0  0  0  0
   -1.1597    2.3376    0.3881 H   0  0  0  1  0  0  0  0  0  0  0  0
  1  4  1  0  0  0  0
  2  4  1  0  0  0  0
  2  5  2  0  0  0  0
  2  6  1  0  0  0  0
  3  4  1  0  0  0  0
  3  7  1  0  0  0  0
  3  8  1  0  0  0  0
  4 28  1  0  0  0  0
  6  9  1  0  0  0  0
  6 12  1  0  0  0  0
  8 10  1  0  0  0  0
  8 11  2  0  0  0  0
  9 13  1  0  0  0  0
  9 14  1  0  0  0  0
  9 15  1  0  0  0  0
 10 16  1  0  0  0  0
 10 17  1  0  0  0  0
 10 18  1  0  0  0  0
 19 20  2  0  0  0  0
 19 21  1  0  0  0  0
 19 22  1  0  0  0  0
 22 23  4  0  0  0  0
 22 27  4  0  0  0  0
 23 24  4  0  0  0  0
 23 29  1  0  0  0  0
 24 25  4  0  0  0  0
 24 30  1  0  0  0  0
 25 26  4  0  0  0  0
 25 28  1  0  0  0  0
 26 27  4  0  0  0  0
 26 31  1  0  0  0  0
 27 32  1  0  0  0  0
 28 33  1  0  0  0  0
 28 34  1  0  0  0  0
M  END
> <BCLConfClusterSize>
1

> <ConfClashScore>
0 

> <ConfOneFourInteractionScore>
-0.990503 

> <ConfScore>
0.0472743 

> <ConfScorePBest>
0.00370413 

> <ConfTolerance>
0.372857 

> <RosettaParamsInstructions>
M  ROOT 3
M  POLY_N_BB 3
M  POLY_CA_BB 4
M  POLY_C_BB 2
M  POLY_O_BB 5
M  POLY_IGNORE 9 10 11 12 13 14 15 16 17 18 
M  POLY_UPPER 6
M  POLY_LOWER 8
M  POLY_CHG 0
M  POLY_PROPERTIES ALPHA_AA L_AA PROTEIN AROMATIC POLYMER 
M  END

$$$$



 34 34  0  0  0  0  0  0  0  0999 V2000
   -1.1170    0.6197    1.0704 H   0  0  0  1  0  0  0  0  0  0  0  0
   -3.1218    0.8563    1.6598 C   0  0  0  1  0  0  0  0  0  0  0  0
   -2.1511    1.2935   -0.5752 N   0  0  0  1  0  0  0  0  0  0  0  0
   -1.9105    1.3060    0.8600 C   0  0  0  1  0  0  0  0  0  0  0  0
   -4.2738    0.9694    1.2743 O   0  0  0  1  0  0  0  0  0  0  0  0
   -2.8637    0.3071    2.8565 N   0  0  0  1  0  0  0  0  0  0  0  0
   -2.6173    2.0529   -0.9832 H   0  0  0  1  0  0  0  0  0  0  0  0
   -1.7567    0.2781   -1.3596 C   0  0  0  1  0  0  0  0  0  0  0  0
   -3.9581   -0.0757    3.7361 C   0  0  0  1  0  0  0  0  0  0  0  0
   -2.0974    0.4116   -2.8311 C   0  0  0  1  0  0  0  0  0  0  0  0
   -1.1573   -0.7044   -0.9308 O   0  0  0  1  0  0  0  0  0  0  0  0
   -1.9363    0.1636    3.1388 H   0  0  0  1  0  0  0  0  0  0  0  0
   -4.8802   -0.0421    3.1944 H   0  0  0  1  0  0  0  0  0  0  0  0
   -4.0051    0.6024    4.5624 H   0  0  0  1  0  0  0  0  0  0  0  0
   -3.7935   -1.0691    4.0981 H   0  0  0  1  0  0  0  0  0  0  0  0
   -2.1243    1.4472   -3.0989 H   0  0  0  1  0  0  0  0  0  0  0  0
   -3.0543   -0.0296   -3.0169 H   0  0  0  1  0  0  0  0  0  0  0  0
   -1.3539   -0.0885   -3.4159 H   0  0  0  1  0  0  0  0  0  0  0  0
   -5.4560    6.7454    0.9854 N   0  3  0  1  0  0  0  0  0  0  0  0
   -5.9801    7.0192    2.0181 O   0  0  0  1  0  0  0  0  0  0  0  0
   -5.7523    7.1744   -0.2490 O   0  5  0  1  0  0  0  0  0  0  0  0
   -4.4009    5.7700    1.0804 C   0  0  0  1  0  0  0  0  0  0  0  0
   -3.5997    5.5029   -0.0137 C   0  0  0  1  0  0  0  0  0  0  0  0
   -2.6392    4.5059    0.0575 C   0  0  0  1  0  0  0  0  0  0  0  0
   -2.4865    3.7754    1.2208 C   0  0  0  1  0  0  0  0  0  0  0  0
   -3.2900    4.0432    2.3181 C   0  0  0  1  0  0  0  0  0  0  0  0
   -4.2476    5.0372    2.2470 C   0  0  0  1  0  0  0  0  0  0  0  0
   -1.4441    2.6850    1.2972 C   0  0  0  1  0  0  0  0  0  0  0  0
   -3.7174    6.0499   -0.8903 H   0  0  0  1  0  0  0  0  0  0  0  0
   -2.0335    4.3076   -0.7644 H   0  0  0  1  0  0  0  0  0  0  0  0
   -3.1723    3.4962    3.1948 H   0  0  0  1  0  0  0  0  0  0  0  0
   -4.8532    5.2355    3.0689 H   0  0  0  1  0  0  0  0  0  0  0  0
   -0.6229    2.9690    0.6728 H   0  0  0  1  0  0  0  0  0  0  0  0
   -1.1133    2.6151    2.3124 H   0  0  0  1  0  0  0  0  0  0  0  0
  1  4  1  0  0  0  0
  2  4  1  0  0  0  0
  2  5  2  0  0  0  0
  2  6  1  0  0  0  0
  3  4  1  0  0  0  0
  3  7  1  0  0  0  0
  3  8  1  0  0  0  0
  4 28  1  0  0  0  0
  6  9  1  0  0  0  0
  6 12  1  0  0  0  0
  8 10  1  0  0  0  0
  8 11  2  0  0  0  0
  9 13  1  0  0  0  0
  9 14  1  0  0  0  0
  9 15  1  0  0  0  0
 10 16  1  0  0  0  0
 10 17  1  0  0  0  0
 10 18  1  0  0  0  0
 19 20  2  0  0  0  0
 19 21  1  0  0  0  0
 19 22  1  0  0  0  0
 22 23  4  0  0  0  0
 22 27  4  0  0  0  0
 23 24  4  0  0  0  0
 23 29  1  0  0  0  0
 24 25  4  0  0  0  0
 24 30  1  0  0  0  0
 25 26  4  0  0  0  0
 25 28  1  0  0  0  0
 26 27  4  0  0  0  0
 26 31  1  0  0  0  0
 27 32  1  0  0  0  0
 28 33  1  0  0  0  0
 28 34  1  0  0  0  0
M  END
> <BCLConfClusterSize>
1

> <ConfClashScore>
0 

> <ConfOneFourInteractionScore>
-0.982563 

> <ConfScore>
0.0501962 

> <ConfScorePBest>
0.00367564 

> <ConfTolerance>
0.468069 

> <RosettaParamsInstructions>
M  ROOT 3
M  POLY_N_BB 3
M  POLY_CA_BB 4
M  POLY_C_BB 2
M  POLY_O_BB 5
M  POLY_IGNORE 9 10 11 12 13 14 15 16 17 18 
M  POLY_UPPER 6
M  POLY_LOWER 8
M  POLY_CHG 0
M  POLY_PROPERTIES ALPHA_AA L_AA PROTEIN AROMATIC POLYMER 
M  END

$$$$



 34 34  0  0  0  0  0  0  0  0999 V2000
   -0.1473    3.3393    2.8822 H   0  0  0  1  0  0  0  0  0  0  0  0
    1.0136    2.0982    1.6332 C   0  0  0  1  0  0  0  0  0  0  0  0
    0.3172    4.4392    1.1967 N   0  0  0  1  0  0  0  0  0  0  0  0
   -0.0334    3.1771    1.8308 C   0  0  0  1  0  0  0  0  0  0  0  0
    1.1381    1.1746    2.4364 O   0  0  0  1  0  0  0  0  0  0  0  0
    1.7799    2.2228    0.5381 N   0  0  0  1  0  0  0  0  0  0  0  0
    0.5294    4.4220    0.2401 H   0  0  0  1  0  0  0  0  0  0  0  0
    0.3715    5.6175    1.8194 C   0  0  0  1  0  0  0  0  0  0  0  0
    2.7597    1.1820    0.2648 C   0  0  0  1  0  0  0  0  0  0  0  0
    0.7894    6.7931    0.9654 C   0  0  0  1  0  0  0  0  0  0  0  0
    0.1027    5.7579    3.0095 O   0  0  0  1  0  0  0  0  0  0  0  0
    1.6823    2.9927   -0.0604 H   0  0  0  1  0  0  0  0  0  0  0  0
    2.7007    0.4283    1.0220 H   0  0  0  1  0  0  0  0  0  0  0  0
    3.7411    1.6083    0.2621 H   0  0  0  1  0  0  0  0  0  0  0  0
    2.5578    0.7443   -0.6904 H   0  0  0  1  0  0  0  0  0  0  0  0
    1.8552    6.8050    0.8710 H   0  0  0  1  0  0  0  0  0  0  0  0
    0.4622    7.7021    1.4255 H   0  0  0  1  0  0  0  0  0  0  0  0
    0.3466    6.7043   -0.0046 H   0  0  0  1  0  0  0  0  0  0  0  0
   -5.4289    6.7720    0.9907 N   0  3  0  1  0  0  0  0  0  0  0  0
   -5.9777    7.0180    2.0175 O   0  0  0  1  0  0  0  0  0  0  0  0
   -5.6321    7.3057   -0.2216 O   0  5  0  1  0  0  0  0  0  0  0  0
   -4.4595    5.7095    1.0601 C   0  0  0  1  0  0  0  0  0  0  0  0
   -3.6465    5.4536   -0.0279 C   0  0  0  1  0  0  0  0  0  0  0  0
   -2.6494    4.4948    0.0619 C   0  0  0  1  0  0  0  0  0  0  0  0
   -2.4718    3.7909    1.2381 C   0  0  0  1  0  0  0  0  0  0  0  0
   -3.2870    4.0474    2.3294 C   0  0  0  1  0  0  0  0  0  0  0  0
   -4.2811    5.0034    2.2396 C   0  0  0  1  0  0  0  0  0  0  0  0
   -1.3747    2.7535    1.2801 C   0  0  0  1  0  0  0  0  0  0  0  0
   -3.7829    5.9804   -0.9142 H   0  0  0  1  0  0  0  0  0  0  0  0
   -2.0351    4.3051   -0.7555 H   0  0  0  1  0  0  0  0  0  0  0  0
   -3.1507    3.5206    3.2157 H   0  0  0  1  0  0  0  0  0  0  0  0
   -4.8954    5.1931    3.0571 H   0  0  0  1  0  0  0  0  0  0  0  0
   -1.7255    1.9408    1.8812 H   0  0  0  1  0  0  0  0  0  0  0  0
   -1.2166    2.4140    0.2777 H   0  0  0  1  0  0  0  0  0  0  0  0
  1  4  1  0  0  0  0
  2  4  1  0  0  0  0
  2  5  2  0  0  0  0
  2  6  1  0  0  0  0
  3  4  1  0  0  0  0
  3  7  1  0  0  0  0
  3  8  1  0  0  0  0
  4 28  1  0  0  0  0
  6  9  1  0  0  0  0
  6 12  1  0  0  0  0
  8 10  1  0  0  0  0
  8 11  2  0  0  0  0
  9 13  1  0  0  0  0
  9 14  1  0  0  0  0
  9 15  1  0  0  0  0
 10 16  1  0  0  0  0
 10 17  1  0  0  0  0
 10 18  1  0  0  0  0
 19 20  2  0  0  0  0
 19 21  1  0  0  0  0
 19 22  1  0  0  0  0
 22 23  4  0  0  0  0
 22 27  4  0  0  0  0
 23 24  4  0  0  0  0
 23 29  1  0  0  0  0
 24 25  4  0  0  0  0
 24 30  1  0  0  0  0
 25 26  4  0  0  0  0
 25 28  1  0  0  0  0
 26 27  4  0  0  0  0
 26 31  1  0  0  0  0
 27 32  1  0  0  0  0
 28 33  1  0  0  0  0
 28 34  1  0  0  0  0
M  END
> <BCLConfClusterSize>
1

> <ConfClashScore>
0 

> <ConfOneFourInteractionScore>
-0.9468 

> <ConfScore>
0.0539413 

> <ConfScorePBest>
0.00364716 

> <ConfTolerance>
0.473363 

> <RosettaParamsInstructions>
M  ROOT 3
M  POLY_N_BB 3
M  POLY_CA_BB 4
M  POLY_C_BB 2
M  POLY_O_BB 5
M  POLY_IGNORE 9 10 11 12 13 14 15 16 17 18 
M  POLY_UPPER 6
M  POLY_LOWER 8
M  POLY_CHG 0
M  POLY_PROPERTIES ALPHA_AA L_AA PROTEIN AROMATIC POLYMER 
M  END

$$$$



 34 34  0  0  0  0  0  0  0  0999 V2000
   -0.9704    0.7078    1.8141 H   0  0  0  1  0  0  0  0  0  0  0  0
   -2.8470    1.2479    2.6643 C   0  0  0  1  0  0  0  0  0  0  0  0
   -2.3894    0.8291    0.2938 N   0  0  0  1  0  0  0  0  0  0  0  0
   -1.8178    1.3033    1.5453 C   0  0  0  1  0  0  0  0  0  0  0  0
   -2.5180    1.0547    3.8340 O   0  0  0  1  0  0  0  0  0  0  0  0
   -4.1037    1.4266    2.2474 N   0  0  0  1  0  0  0  0  0  0  0  0
   -2.8217    1.4748   -0.3034 H   0  0  0  1  0  0  0  0  0  0  0  0
   -2.3453   -0.4559   -0.0694 C   0  0  0  1  0  0  0  0  0  0  0  0
   -5.2333    1.4347    3.1648 C   0  0  0  1  0  0  0  0  0  0  0  0
   -3.0223   -0.7926   -1.3837 C   0  0  0  1  0  0  0  0  0  0  0  0
   -1.7997   -1.3172    0.6006 O   0  0  0  1  0  0  0  0  0  0  0  0
   -4.2705    1.5568    1.2905 H   0  0  0  1  0  0  0  0  0  0  0  0
   -4.9129    1.7874    4.1229 H   0  0  0  1  0  0  0  0  0  0  0  0
   -5.6209    0.4421    3.2618 H   0  0  0  1  0  0  0  0  0  0  0  0
   -5.9968    2.0807    2.7844 H   0  0  0  1  0  0  0  0  0  0  0  0
   -3.4188    0.1002   -1.8202 H   0  0  0  1  0  0  0  0  0  0  0  0
   -3.8174   -1.4867   -1.2075 H   0  0  0  1  0  0  0  0  0  0  0  0
   -2.3086   -1.2289   -2.0508 H   0  0  0  1  0  0  0  0  0  0  0  0
   -5.4182    6.7708    0.9487 N   0  3  0  1  0  0  0  0  0  0  0  0
   -5.4836    7.3868   -0.0673 O   0  0  0  1  0  0  0  0  0  0  0  0
   -6.2714    6.9240    1.9706 O   0  5  0  1  0  0  0  0  0  0  0  0
   -4.4171    5.7401    1.0448 C   0  0  0  1  0  0  0  0  0  0  0  0
   -3.6113    5.4584   -0.0423 C   0  0  0  1  0  0  0  0  0  0  0  0
   -2.6435    4.4703    0.0498 C   0  0  0  1  0  0  0  0  0  0  0  0
   -2.4879    3.7632    1.2271 C   0  0  0  1  0  0  0  0  0  0  0  0
   -3.2959    4.0457    2.3174 C   0  0  0  1  0  0  0  0  0  0  0  0
   -4.2608    5.0308    2.2254 C   0  0  0  1  0  0  0  0  0  0  0  0
   -1.3716    2.7526    1.3462 C   0  0  0  1  0  0  0  0  0  0  0  0
   -3.7312    5.9877   -0.9294 H   0  0  0  1  0  0  0  0  0  0  0  0
   -2.0345    4.2610   -0.7669 H   0  0  0  1  0  0  0  0  0  0  0  0
   -3.1761    3.5163    3.2046 H   0  0  0  1  0  0  0  0  0  0  0  0
   -4.8698    5.2400    3.0421 H   0  0  0  1  0  0  0  0  0  0  0  0
   -0.7882    2.7982    0.4504 H   0  0  0  1  0  0  0  0  0  0  0  0
   -0.7641    3.0288    2.1825 H   0  0  0  1  0  0  0  0  0  0  0  0
  1  4  1  0  0  0  0
  2  4  1  0  0  0  0
  2  5  2  0  0  0  0
  2  6  1  0  0  0  0
  3  4  1  0  0  0  0
  3  7  1  0  0  0  0
  3  8  1  0  0  0  0
  4 28  1  0  0  0  0
  6  9  1  0  0  0  0
  6 12  1  0  0  0  0
  8 10  1  0  0  0  0
  8 11  2  0  0  0  0
  9 13  1  0  0  0  0
  9 14  1  0  0  0  0
  9 15  1  0  0  0  0
 10 16  1  0  0  0  0
 10 17  1  0  0  0  0
 10 18  1  0  0  0  0
 19 20  2  0  0  0  0
 19 21  1  0  0  0  0
 19 22  1  0  0  0  0
 22 23  4  0  0  0  0
 22 27  4  0  0  0  0
 23 24  4  0  0  0  0
 23 29  1  0  0  0  0
 24 25  4  0  0  0  0
 24 30  1  0  0  0  0
 25 26  4  0  0  0  0
 25 28  1  0  0  0  0
 26 27  4  0  0  0  0
 26 31  1  0  0  0  0
 27 32  1  0  0  0  0
 28 33  1  0  0  0  0
 28 34  1  0  0  0  0
M  END
> <BCLConfClusterSize>
1

> <ConfClashScore>
0 

> <ConfOneFourInteractionScore>
-0.957074 

> <ConfScore>
0.0560218 

> <ConfScorePBest>
0.00361868 

> <ConfTolerance>
0.517235 

> <RosettaParamsInstructions>
M  ROOT 3
M  POLY_N_BB 3
M  POLY_CA_BB 4
M  POLY_C_BB 2
M  POLY_O_BB 5
M  POLY_IGNORE 9 10 11 12 13 14 15 16 17 18 
M  POLY_UPPER 6
M  POLY_LOWER 8
M  POLY_CHG 0
M  POLY_PROPERTIES ALPHA_AA L_AA PROTEIN AROMATIC POLYMER 
M  END

$$$$



 34 34  0  0  0  0  0  0  0  0999 V2000
   -1.0109    2.8118   -0.7620 H   0  0  0  1  0  0  0  0  0  0  0  0
    0.3579    4.1369    0.1302 C   0  0  0  1  0  0  0  0  0  0  0  0
    0.4570    1.6607    0.1120 N   0  0  0  1  0  0  0  0  0  0  0  0
   -0.4159    2.8291    0.1271 C   0  0  0  1  0  0  0  0  0  0  0  0
    1.2497    4.3196    0.9579 O   0  0  0  1  0  0  0  0  0  0  0  0
    0.0747    5.0097   -0.8497 N   0  0  0  1  0  0  0  0  0  0  0  0
    1.1835    1.6046    0.7674 H   0  0  0  1  0  0  0  0  0  0  0  0
    0.3007    0.6642   -0.7641 C   0  0  0  1  0  0  0  0  0  0  0  0
    0.7777    6.2820   -0.9207 C   0  0  0  1  0  0  0  0  0  0  0  0
    1.2875   -0.4752   -0.6460 C   0  0  0  1  0  0  0  0  0  0  0  0
   -0.5822    0.6568   -1.6179 O   0  0  0  1  0  0  0  0  0  0  0  0
   -0.6068    4.7897   -1.5186 H   0  0  0  1  0  0  0  0  0  0  0  0
    1.8316    6.1052   -0.9753 H   0  0  0  1  0  0  0  0  0  0  0  0
    0.5580    6.8598   -0.0474 H   0  0  0  1  0  0  0  0  0  0  0  0
    0.4604    6.8164   -1.7917 H   0  0  0  1  0  0  0  0  0  0  0  0
    1.6522   -0.5291    0.3585 H   0  0  0  1  0  0  0  0  0  0  0  0
    2.1064   -0.3081   -1.3140 H   0  0  0  1  0  0  0  0  0  0  0  0
    0.8021   -1.3947   -0.8988 H   0  0  0  1  0  0  0  0  0  0  0  0
   -5.4579    6.7434    1.0688 N   0  3  0  1  0  0  0  0  0  0  0  0
   -6.2317    7.2062    1.8455 O   0  0  0  1  0  0  0  0  0  0  0  0
   -5.3472    7.1961   -0.1875 O   0  5  0  1  0  0  0  0  0  0  0  0
   -4.4737    5.6927    1.1001 C   0  0  0  1  0  0  0  0  0  0  0  0
   -3.6872    5.4595   -0.0123 C   0  0  0  1  0  0  0  0  0  0  0  0
   -2.6761    4.5127    0.0398 C   0  0  0  1  0  0  0  0  0  0  0  0
   -2.4578    3.7982    1.2026 C   0  0  0  1  0  0  0  0  0  0  0  0
   -3.2465    4.0320    2.3183 C   0  0  0  1  0  0  0  0  0  0  0  0
   -4.2546    4.9760    2.2662 C   0  0  0  1  0  0  0  0  0  0  0  0
   -1.3757    2.7507    1.3173 C   0  0  0  1  0  0  0  0  0  0  0  0
   -3.8541    5.9943   -0.8885 H   0  0  0  1  0  0  0  0  0  0  0  0
   -2.0817    4.3401   -0.7960 H   0  0  0  1  0  0  0  0  0  0  0  0
   -3.0796    3.4972    3.1945 H   0  0  0  1  0  0  0  0  0  0  0  0
   -4.8489    5.1486    3.1020 H   0  0  0  1  0  0  0  0  0  0  0  0
   -0.8268    2.9109    2.2218 H   0  0  0  1  0  0  0  0  0  0  0  0
   -1.8272    1.7809    1.3406 H   0  0  0  1  0  0  0  0  0  0  0  0
  1  4  1  0  0  0  0
  2  4  1  0  0  0  0
  2  5  2  0  0  0  0
  2  6  1  0  0  0  0
  3  4  1  0  0  0  0
  3  7  1  0  0  0  0
  3  8  1  0  0  0  0
  4 28  1  0  0  0  0
  6  9  1  0  0  0  0
  6 12  1  0  0  0  0
  8 10  1  0  0  0  0
  8 11  2  0  0  0  0
  9 13  1  0  0  0  0
  9 14  1  0  0  0  0
  9 15  1  0  0  0  0
 10 16  1  0  0  0  0
 10 17  1  0  0  0  0
 10 18  1  0  0  0  0
 19 20  2  0  0  0  0
 19 21  1  0  0  0  0
 19 22  1  0  0  0  0
 22 23  4  0  0  0  0
 22 27  4  0  0  0  0
 23 24  4  0  0  0  0
 23 29  1  0  0  0  0
 24 25  4  0  0  0  0
 24 30  1  0  0  0  0
 25 26  4  0  0  0  0
 25 28  1  0  0  0  0
 26 27  4  0  0  0  0
 26 31  1  0  0  0  0
 27 32  1  0  0  0  0
 28 33  1  0  0  0  0
 28 34  1  0  0  0  0
M  END
> <BCLConfClusterSize>
1

> <ConfClashScore>
0 

> <ConfOneFourInteractionScore>
-0.975381 

> <ConfScore>
0.0576179 

> <ConfScorePBest>
0.0035902 

> <ConfTolerance>
0.47426 

> <RosettaParamsInstructions>
M  ROOT 3
M  POLY_N_BB 3
M  POLY_CA_BB 4
M  POLY_C_BB 2
M  POLY_O_BB 5
M  POLY_IGNORE 9 10 11 12 13 14 15 16 17 18 
M  POLY_UPPER 6
M  POLY_LOWER 8
M  POLY_CHG 0
M  POLY_PROPERTIES ALPHA_AA L_AA PROTEIN AROMATIC POLYMER 
M  END

$$$$



 34 34  0  0  0  0  0  0  0  0999 V2000
    0.4005    2.4559    2.4430 H   0  0  0  1  0  0  0  0  0  0  0  0
    0.8288    3.4157    0.5945 C   0  0  0  1  0  0  0  0  0  0  0  0
   -0.1277    4.4625    2.5379 N   0  0  0  1  0  0  0  0  0  0  0  0
   -0.0520    3.1989    1.8201 C   0  0  0  1  0  0  0  0  0  0  0  0
    1.3025    2.4657   -0.0274 O   0  0  0  1  0  0  0  0  0  0  0  0
    1.0438    4.6871    0.2530 N   0  0  0  1  0  0  0  0  0  0  0  0
   -1.0037    4.8838    2.6628 H   0  0  0  1  0  0  0  0  0  0  0  0
    0.9555    5.0683    3.0326 C   0  0  0  1  0  0  0  0  0  0  0  0
    1.9727    5.0084   -0.8202 C   0  0  0  1  0  0  0  0  0  0  0  0
    0.7308    6.4531    3.6079 C   0  0  0  1  0  0  0  0  0  0  0  0
    2.0626    4.5557    3.0303 O   0  0  0  1  0  0  0  0  0  0  0  0
    0.5752    5.4063    0.7258 H   0  0  0  1  0  0  0  0  0  0  0  0
    2.3179    6.0146   -0.7046 H   0  0  0  1  0  0  0  0  0  0  0  0
    1.4766    4.9080   -1.7630 H   0  0  0  1  0  0  0  0  0  0  0  0
    2.8065    4.3389   -0.7823 H   0  0  0  1  0  0  0  0  0  0  0  0
   -0.0194    6.4061    4.3694 H   0  0  0  1  0  0  0  0  0  0  0  0
    0.4086    7.1141    2.8305 H   0  0  0  1  0  0  0  0  0  0  0  0
    1.6446    6.8165    4.0297 H   0  0  0  1  0  0  0  0  0  0  0  0
   -5.4373    6.7253    0.9847 N   0  3  0  1  0  0  0  0  0  0  0  0
   -5.7071    7.2436   -0.0520 O   0  0  0  1  0  0  0  0  0  0  0  0
   -6.0477    7.0240    2.1396 O   0  5  0  1  0  0  0  0  0  0  0  0
   -4.4185    5.7424    0.9973 C   0  0  0  1  0  0  0  0  0  0  0  0
   -3.6185    5.4371   -0.0876 C   0  0  0  1  0  0  0  0  0  0  0  0
   -2.6417    4.4599    0.0245 C   0  0  0  1  0  0  0  0  0  0  0  0
   -2.4714    3.7872    1.2198 C   0  0  0  1  0  0  0  0  0  0  0  0
   -3.2736    4.0933    2.3079 C   0  0  0  1  0  0  0  0  0  0  0  0
   -4.2475    5.0676    2.1960 C   0  0  0  1  0  0  0  0  0  0  0  0
   -1.4284    2.7096    1.4001 C   0  0  0  1  0  0  0  0  0  0  0  0
   -3.7494    5.9405   -0.9882 H   0  0  0  1  0  0  0  0  0  0  0  0
   -2.0370    4.2330   -0.7907 H   0  0  0  1  0  0  0  0  0  0  0  0
   -3.1428    3.5898    3.2085 H   0  0  0  1  0  0  0  0  0  0  0  0
   -4.8521    5.2944    3.0112 H   0  0  0  1  0  0  0  0  0  0  0  0
   -1.7805    2.0315    2.1492 H   0  0  0  1  0  0  0  0  0  0  0  0
   -1.3248    2.1915    0.4696 H   0  0  0  1  0  0  0  0  0  0  0  0
  1  4  1  0  0  0  0
  2  4  1  0  0  0  0
  2  5  2  0  0  0  0
  2  6  1  0  0  0  0
  3  4  1  0  0  0  0
  3  7  1  0  0  0  0
  3  8  1  0  0  0  0
  4 28  1  0  0  0  0
  6  9  1  0  0  0  0
  6 12  1  0  0  0  0
  8 10  1  0  0  0  0
  8 11  2  0  0  0  0
  9 13  1  0  0  0  0
  9 14  1  0  0  0  0
  9 15  1  0  0  0  0
 10 16  1  0  0  0  0
 10 17  1  0  0  0  0
 10 18  1  0  0  0  0
 19 20  2  0  0  0  0
 19 21  1  0  0  0  0
 19 22  1  0  0  0  0
 22 23  4  0  0  0  0
 22 27  4  0  0  0  0
 23 24  4  0  0  0  0
 23 29  1  0  0  0  0
 24 25  4  0  0  0  0
 24 30  1  0  0  0  0
 25 26  4  0  0  0  0
 25 28  1  0  0  0  0
 26 27  4  0  0  0  0
 26 31  1  0  0  0  0
 27 32  1  0  0  0  0
 28 33  1  0  0  0  0
 28 34  1  0  0  0  0
M  END
> <BCLConfClusterSize>
1

> <ConfClashScore>
0 

> <ConfOneFourInteractionScore>
-0.928132 

> <ConfScore>
0.0585368 

> <ConfScorePBest>
0.00356172 

> <ConfTolerance>
0.660663 

> <RosettaParamsInstructions>
M  ROOT 3
M  POLY_N_BB 3
M  POLY_CA_BB 4
M  POLY_C_BB 2
M  POLY_O_BB 5
M  POLY_IGNORE 9 10 11 12 13 14 15 16 17 18 
M  POLY_UPPER 6
M  POLY_LOWER 8
M  POLY_CHG 0
M  POLY_PROPERTIES ALPHA_AA L_AA PROTEIN AROMATIC POLYMER 
M  END

$$$$



 34 34  0  0  0  0  0  0  0  0999 V2000
    0.2037    2.0469    2.5408 H   0  0  0  1  0  0  0  0  0  0  0  0
    0.5771    4.0716    2.0463 C   0  0  0  1  0  0  0  0  0  0  0  0
   -1.0118    3.2451    3.7086 N   0  0  0  1  0  0  0  0  0  0  0  0
   -0.3711    2.9434    2.4372 C   0  0  0  1  0  0  0  0  0  0  0  0
    0.3996    5.2218    2.4451 O   0  0  0  1  0  0  0  0  0  0  0  0
    1.5939    3.7260    1.2552 N   0  0  0  1  0  0  0  0  0  0  0  0
   -1.0598    4.1650    4.0430 H   0  0  0  1  0  0  0  0  0  0  0  0
   -1.5348    2.2278    4.4100 C   0  0  0  1  0  0  0  0  0  0  0  0
    2.5097    4.7073    0.6929 C   0  0  0  1  0  0  0  0  0  0  0  0
   -2.0840    2.5843    5.7776 C   0  0  0  1  0  0  0  0  0  0  0  0
   -1.5747    1.0829    3.9904 O   0  0  0  1  0  0  0  0  0  0  0  0
    1.7289    2.7783    1.0453 H   0  0  0  1  0  0  0  0  0  0  0  0
    2.0241    5.6591    0.6386 H   0  0  0  1  0  0  0  0  0  0  0  0
    2.8023    4.3999   -0.2894 H   0  0  0  1  0  0  0  0  0  0  0  0
    3.3762    4.7842    1.3159 H   0  0  0  1  0  0  0  0  0  0  0  0
   -1.5163    2.0816    6.5326 H   0  0  0  1  0  0  0  0  0  0  0  0
   -3.1082    2.2809    5.8406 H   0  0  0  1  0  0  0  0  0  0  0  0
   -2.0151    3.6419    5.9248 H   0  0  0  1  0  0  0  0  0  0  0  0
   -5.4482    6.7411    0.9606 N   0  3  0  1  0  0  0  0  0  0  0  0
   -5.7758    7.1519   -0.1071 O   0  0  0  1  0  0  0  0  0  0  0  0
   -5.9852    7.1677    2.1117 O   0  5  0  1  0  0  0  0  0  0  0  0
   -4.4213    5.7332    1.0172 C   0  0  0  1  0  0  0  0  0  0  0  0
   -3.6327    5.4216   -0.0743 C   0  0  0  1  0  0  0  0  0  0  0  0
   -2.6535    4.4463    0.0337 C   0  0  0  1  0  0  0  0  0  0  0  0
   -2.4695    3.7818    1.2316 C   0  0  0  1  0  0  0  0  0  0  0  0
   -3.2603    4.0942    2.3263 C   0  0  0  1  0  0  0  0  0  0  0  0
   -4.2365    5.0666    2.2184 C   0  0  0  1  0  0  0  0  0  0  0  0
   -1.4067    2.7149    1.3484 C   0  0  0  1  0  0  0  0  0  0  0  0
   -3.7740    5.9188   -0.9767 H   0  0  0  1  0  0  0  0  0  0  0  0
   -2.0575    4.2147   -0.7864 H   0  0  0  1  0  0  0  0  0  0  0  0
   -3.1191    3.5969    3.2288 H   0  0  0  1  0  0  0  0  0  0  0  0
   -4.8325    5.2982    3.0386 H   0  0  0  1  0  0  0  0  0  0  0  0
   -1.8944    1.7835    1.5471 H   0  0  0  1  0  0  0  0  0  0  0  0
   -0.8932    2.6565    0.4115 H   0  0  0  1  0  0  0  0  0  0  0  0
  1  4  1  0  0  0  0
  2  4  1  0  0  0  0
  2  5  2  0  0  0  0
  2  6  1  0  0  0  0
  3  4  1  0  0  0  0
  3  7  1  0  0  0  0
  3  8  1  0  0  0  0
  4 28  1  0  0  0  0
  6  9  1  0  0  0  0
  6 12  1  0  0  0  0
  8 10  1  0  0  0  0
  8 11  2  0  0  0  0
  9 13  1  0  0  0  0
  9 14  1  0  0  0  0
  9 15  1  0  0  0  0
 10 16  1  0  0  0  0
 10 17  1  0  0  0  0
 10 18  1  0  0  0  0
 19 20  2  0  0  0  0
 19 21  1  0  0  0  0
 19 22  1  0  0  0  0
 22 23  4  0  0  0  0
 22 27  4  0  0  0  0
 23 24  4  0  0  0  0
 23 29  1  0  0  0  0
 24 25  4  0  0  0  0
 24 30  1  0  0  0  0
 25 26  4  0  0  0  0
 25 28  1  0  0  0  0
 26 27  4  0  0  0  0
 26 31  1  0  0  0  0
 27 32  1  0  0  0  0
 28 33  1  0  0  0  0
 28 34  1  0  0  0  0
M  END
> <BCLConfClusterSize>
1

> <ConfClashScore>
0 

> <ConfOneFourInteractionScore>
-0.982677 

> <ConfScore>
0.0607073 

> <ConfScorePBest>
0.00353324 

> <ConfTolerance>
0.613777 

> <RosettaParamsInstructions>
M  ROOT 3
M  POLY_N_BB 3
M  POLY_CA_BB 4
M  POLY_C_BB 2
M  POLY_O_BB 5
M  POLY_IGNORE 9 10 11 12 13 14 15 16 17 18 
M  POLY_UPPER 6
M  POLY_LOWER 8
M  POLY_CHG 0
M  POLY_PROPERTIES ALPHA_AA L_AA PROTEIN AROMATIC POLYMER 
M  END

$$$$



 34 34  0  0  0  0  0  0  0  0999 V2000
   -0.4840    3.5830    3.0587 H   0  0  0  1  0  0  0  0  0  0  0  0
    0.7790    2.0457    2.3545 C   0  0  0  1  0  0  0  0  0  0  0  0
    0.4898    4.2529    1.3621 N   0  0  0  1  0  0  0  0  0  0  0  0
   -0.1776    3.1963    2.1092 C   0  0  0  1  0  0  0  0  0  0  0  0
    1.1652    1.7672    3.4889 O   0  0  0  1  0  0  0  0  0  0  0  0
    1.1635    1.3706    1.2702 N   0  0  0  1  0  0  0  0  0  0  0  0
    0.3289    4.3246    0.3981 H   0  0  0  1  0  0  0  0  0  0  0  0
    1.3124    5.1262    1.9439 C   0  0  0  1  0  0  0  0  0  0  0  0
    2.0406    0.2118    1.3463 C   0  0  0  1  0  0  0  0  0  0  0  0
    1.9540    6.1386    1.0224 C   0  0  0  1  0  0  0  0  0  0  0  0
    1.5465    5.1238    3.1518 O   0  0  0  1  0  0  0  0  0  0  0  0
    0.8441    1.6651    0.3917 H   0  0  0  1  0  0  0  0  0  0  0  0
    2.8195    0.3994    2.0555 H   0  0  0  1  0  0  0  0  0  0  0  0
    2.4714    0.0271    0.3844 H   0  0  0  1  0  0  0  0  0  0  0  0
    1.4759   -0.6430    1.6549 H   0  0  0  1  0  0  0  0  0  0  0  0
    1.2030    6.7939    0.6334 H   0  0  0  1  0  0  0  0  0  0  0  0
    2.4363    5.6295    0.2142 H   0  0  0  1  0  0  0  0  0  0  0  0
    2.6770    6.7088    1.5674 H   0  0  0  1  0  0  0  0  0  0  0  0
   -5.4343    6.7566    0.9065 N   0  3  0  1  0  0  0  0  0  0  0  0
   -5.8339    7.4733    0.0446 O   0  0  0  1  0  0  0  0  0  0  0  0
   -5.9452    6.7727    2.1452 O   0  5  0  1  0  0  0  0  0  0  0  0
   -4.4205    5.7393    1.0102 C   0  0  0  1  0  0  0  0  0  0  0  0
   -3.6191    5.4512   -0.0784 C   0  0  0  1  0  0  0  0  0  0  0  0
   -2.6389    4.4760    0.0210 C   0  0  0  1  0  0  0  0  0  0  0  0
   -2.4667    3.7880    1.2073 C   0  0  0  1  0  0  0  0  0  0  0  0
   -3.2704    4.0768    2.2992 C   0  0  0  1  0  0  0  0  0  0  0  0
   -4.2476    5.0491    2.1999 C   0  0  0  1  0  0  0  0  0  0  0  0
   -1.4201    2.7117    1.3736 C   0  0  0  1  0  0  0  0  0  0  0  0
   -3.7514    5.9662   -0.9722 H   0  0  0  1  0  0  0  0  0  0  0  0
   -2.0333    4.2621   -0.7969 H   0  0  0  1  0  0  0  0  0  0  0  0
   -3.1381    3.5618    3.1930 H   0  0  0  1  0  0  0  0  0  0  0  0
   -4.8532    5.2630    3.0178 H   0  0  0  1  0  0  0  0  0  0  0  0
   -1.8490    1.9021    1.9263 H   0  0  0  1  0  0  0  0  0  0  0  0
   -1.1288    2.3671    0.4034 H   0  0  0  1  0  0  0  0  0  0  0  0
  1  4  1  0  0  0  0
  2  4  1  0  0  0  0
  2  5  2  0  0  0  0
  2  6  1  0  0  0  0
  3  4  1  0  0  0  0
  3  7  1  0  0  0  0
  3  8  1  0  0  0  0
  4 28  1  0  0  0  0
  6  9  1  0  0  0  0
  6 12  1  0  0  0  0
  8 10  1  0  0  0  0
  8 11  2  0  0  0  0
  9 13  1  0  0  0  0
  9 14  1  0  0  0  0
  9 15  1  0  0  0  0
 10 16  1  0  0  0  0
 10 17  1  0  0  0  0
 10 18  1  0  0  0  0
 19 20  2  0  0  0  0
 19 21  1  0  0  0  0
 19 22  1  0  0  0  0
 22 23  4  0  0  0  0
 22 27  4  0  0  0  0
 23 24  4  0  0  0  0
 23 29  1  0  0  0  0
 24 25  4  0  0  0  0
 24 30  1  0  0  0  0
 25 26  4  0  0  0  0
 25 28  1  0  0  0  0
 26 27  4  0  0  0  0
 26 31  1  0  0  0  0
 27 32  1  0  0  0  0
 28 33  1  0  0  0  0
 28 34  1  0  0  0  0
M  END
> <BCLConfClusterSize>
1

> <ConfClashScore>
0 

> <ConfOneFourInteractionScore>
-0.952541 

> <ConfScore>
0.0627282 

> <ConfScorePBest>
0.00350476 

> <ConfTolerance>
0.63934 

> <RosettaParamsInstructions>
M  ROOT 3
M  POLY_N_BB 3
M  POLY_CA_BB 4
M  POLY_C_BB 2
M  POLY_O_BB 5
M  POLY_IGNORE 9 10 11 12 13 14 15 16 17 18 
M  POLY_UPPER 6
M  POLY_LOWER 8
M  POLY_CHG 0
M  POLY_PROPERTIES ALPHA_AA L_AA PROTEIN AROMATIC POLYMER 
M  END

$$$$



 34 34  0  0  0  0  0  0  0  0999 V2000
    0.3496    3.7253    1.0384 H   0  0  0  1  0  0  0  0  0  0  0  0
   -0.0593    3.7729    3.1243 C   0  0  0  1  0  0  0  0  0  0  0  0
    0.7659    1.8698    1.8830 N   0  0  0  1  0  0  0  0  0  0  0  0
   -0.0549    3.0670    1.7786 C   0  0  0  1  0  0  0  0  0  0  0  0
    0.1884    3.1615    4.1629 O   0  0  0  1  0  0  0  0  0  0  0  0
   -0.2575    5.0984    3.0999 N   0  0  0  1  0  0  0  0  0  0  0  0
    0.3526    1.0391    2.1984 H   0  0  0  1  0  0  0  0  0  0  0  0
    2.0760    1.8638    1.5607 C   0  0  0  1  0  0  0  0  0  0  0  0
   -0.3311    5.8960    4.3150 C   0  0  0  1  0  0  0  0  0  0  0  0
    2.8954    0.6427    1.9302 C   0  0  0  1  0  0  0  0  0  0  0  0
    2.5930    2.8197    0.9839 O   0  0  0  1  0  0  0  0  0  0  0  0
   -0.3564    5.5460    2.2337 H   0  0  0  1  0  0  0  0  0  0  0  0
   -1.2323    5.6616    4.8421 H   0  0  0  1  0  0  0  0  0  0  0  0
   -0.3274    6.9351    4.0600 H   0  0  0  1  0  0  0  0  0  0  0  0
    0.5122    5.6776    4.9363 H   0  0  0  1  0  0  0  0  0  0  0  0
    3.7272    0.9400    2.5339 H   0  0  0  1  0  0  0  0  0  0  0  0
    3.2526    0.1702    1.0391 H   0  0  0  1  0  0  0  0  0  0  0  0
    2.2846   -0.0439    2.4782 H   0  0  0  1  0  0  0  0  0  0  0  0
   -5.4518    6.7281    0.9281 N   0  3  0  1  0  0  0  0  0  0  0  0
   -5.7241    7.1463   -0.1521 O   0  0  0  1  0  0  0  0  0  0  0  0
   -6.1105    7.1317    2.0230 O   0  5  0  1  0  0  0  0  0  0  0  0
   -4.3887    5.7655    1.0582 C   0  0  0  1  0  0  0  0  0  0  0  0
   -3.6144    5.4591   -0.0449 C   0  0  0  1  0  0  0  0  0  0  0  0
   -2.6554    4.4615    0.0369 C   0  0  0  1  0  0  0  0  0  0  0  0
   -2.4773    3.7695    1.2200 C   0  0  0  1  0  0  0  0  0  0  0  0
   -3.2539    4.0767    2.3264 C   0  0  0  1  0  0  0  0  0  0  0  0
   -4.2100    5.0714    2.2447 C   0  0  0  1  0  0  0  0  0  0  0  0
   -1.4530    2.6693    1.3674 C   0  0  0  1  0  0  0  0  0  0  0  0
   -3.7512    5.9770   -0.9363 H   0  0  0  1  0  0  0  0  0  0  0  0
   -2.0700    4.2337   -0.7920 H   0  0  0  1  0  0  0  0  0  0  0  0
   -3.1171    3.5588    3.2178 H   0  0  0  1  0  0  0  0  0  0  0  0
   -4.7954    5.2992    3.0736 H   0  0  0  1  0  0  0  0  0  0  0  0
   -1.8210    1.9858    2.1037 H   0  0  0  1  0  0  0  0  0  0  0  0
   -1.3796    2.1717    0.4230 H   0  0  0  1  0  0  0  0  0  0  0  0
  1  4  1  0  0  0  0
  2  4  1  0  0  0  0
  2  5  2  0  0  0  0
  2  6  1  0  0  0  0
  3  4  1  0  0  0  0
  3  7  1  0  0  0  0
  3  8  1  0  0  0  0
  4 28  1  0  0  0  0
  6  9  1  0  0  0  0
  6 12  1  0  0  0  0
  8 10  1  0  0  0  0
  8 11  2  0  0  0  0
  9 13  1  0  0  0  0
  9 14  1  0  0  0  0
  9 15  1  0  0  0  0
 10 16  1  0  0  0  0
 10 17  1  0  0  0  0
 10 18  1  0  0  0  0
 19 20  2  0  0  0  0
 19 21  1  0  0  0  0
 19 22  1  0  0  0  0
 22 23  4  0  0  0  0
 22 27  4  0  0  0  0
 23 24  4  0  0  0  0
 23 29  1  0  0  0  0
 24 25  4  0  0  0  0
 24 30  1  0  0  0  0
 25 26  4  0  0  0  0
 25 28  1  0  0  0  0
 26 27  4  0  0  0  0
 26 31  1  0  0  0  0
 27 32  1  0  0  0  0
 28 33  1  0  0  0  0
 28 34  1  0  0  0  0
M  END
> <BCLConfClusterSize>
1

> <ConfClashScore>
0 

> <ConfOneFourInteractionScore>
-0.985807 

> <ConfScore>
0.0800503 

> <ConfScorePBest>
0.00347628 

> <ConfTolerance>
0.505447 

> <RosettaParamsInstructions>
M  ROOT 3
M  POLY_N_BB 3
M  POLY_CA_BB 4
M  POLY_C_BB 2
M  POLY_O_BB 5
M  POLY_IGNORE 9 10 11 12 13 14 15 16 17 18 
M  POLY_UPPER 6
M  POLY_LOWER 8
M  POLY_CHG 0
M  POLY_PROPERTIES ALPHA_AA L_AA PROTEIN AROMATIC POLYMER 
M  END

$$$$



 34 34  0  0  0  0  0  0  0  0999 V2000
   -1.1025    0.7031    1.0215 H   0  0  0  1  0  0  0  0  0  0  0  0
   -2.5833    0.8965    2.4947 C   0  0  0  1  0  0  0  0  0  0  0  0
   -2.8286    1.2922    0.0698 N   0  0  0  1  0  0  0  0  0  0  0  0
   -1.9286    1.3560    1.2116 C   0  0  0  1  0  0  0  0  0  0  0  0
   -3.7563    1.1753    2.7395 O   0  0  0  1  0  0  0  0  0  0  0  0
   -1.8434    0.1733    3.3606 N   0  0  0  1  0  0  0  0  0  0  0  0
   -2.8289    2.0309   -0.5741 H   0  0  0  1  0  0  0  0  0  0  0  0
   -3.6528    0.2635   -0.1307 C   0  0  0  1  0  0  0  0  0  0  0  0
   -2.4381   -0.3229    4.5927 C   0  0  0  1  0  0  0  0  0  0  0  0
   -4.5342    0.2822   -1.3645 C   0  0  0  1  0  0  0  0  0  0  0  0
   -3.7419   -0.7023    0.6262 O   0  0  0  1  0  0  0  0  0  0  0  0
   -0.9037   -0.0184    3.1595 H   0  0  0  1  0  0  0  0  0  0  0  0
   -1.6754   -0.7472    5.2118 H   0  0  0  1  0  0  0  0  0  0  0  0
   -3.1663   -1.0717    4.3607 H   0  0  0  1  0  0  0  0  0  0  0  0
   -2.9096    0.4854    5.1116 H   0  0  0  1  0  0  0  0  0  0  0  0
   -3.9296    0.1500   -2.2373 H   0  0  0  1  0  0  0  0  0  0  0  0
   -5.0449    1.2206   -1.4234 H   0  0  0  1  0  0  0  0  0  0  0  0
   -5.2500   -0.5108   -1.3032 H   0  0  0  1  0  0  0  0  0  0  0  0
   -5.4188    6.7733    0.9377 N   0  3  0  1  0  0  0  0  0  0  0  0
   -5.6311    7.3011   -0.1076 O   0  0  0  1  0  0  0  0  0  0  0  0
   -5.9620    7.0620    2.1281 O   0  5  0  1  0  0  0  0  0  0  0  0
   -4.4778    5.6860    1.0144 C   0  0  0  1  0  0  0  0  0  0  0  0
   -3.6706    5.4075   -0.0724 C   0  0  0  1  0  0  0  0  0  0  0  0
   -2.6590    4.4662    0.0386 C   0  0  0  1  0  0  0  0  0  0  0  0
   -2.4612    3.8024    1.2346 C   0  0  0  1  0  0  0  0  0  0  0  0
   -3.2707    4.0816    2.3246 C   0  0  0  1  0  0  0  0  0  0  0  0
   -4.2792    5.0201    2.2138 C   0  0  0  1  0  0  0  0  0  0  0  0
   -1.3629    2.7724    1.3546 C   0  0  0  1  0  0  0  0  0  0  0  0
   -3.8221    5.9041   -0.9735 H   0  0  0  1  0  0  0  0  0  0  0  0
   -2.0490    4.2596   -0.7780 H   0  0  0  1  0  0  0  0  0  0  0  0
   -3.1192    3.5849    3.2257 H   0  0  0  1  0  0  0  0  0  0  0  0
   -4.8892    5.2267    3.0304 H   0  0  0  1  0  0  0  0  0  0  0  0
   -0.6388    2.9403    0.5849 H   0  0  0  1  0  0  0  0  0  0  0  0
   -0.8951    2.8683    2.3121 H   0  0  0  1  0  0  0  0  0  0  0  0
  1  4  1  0  0  0  0
  2  4  1  0  0  0  0
  2  5  2  0  0  0  0
  2  6  1  0  0  0  0
  3  4  1  0  0  0  0
  3  7  1  0  0  0  0
  3  8  1  0  0  0  0
  4 28  1  0  0  0  0
  6  9  1  0  0  0  0
  6 12  1  0  0  0  0
  8 10  1  0  0  0  0
  8 11  2  0  0  0  0
  9 13  1  0  0  0  0
  9 14  1  0  0  0  0
  9 15  1  0  0  0  0
 10 16  1  0  0  0  0
 10 17  1  0  0  0  0
 10 18  1  0  0  0  0
 19 20  2  0  0  0  0
 19 21  1  0  0  0  0
 19 22  1  0  0  0  0
 22 23  4  0  0  0  0
 22 27  4  0  0  0  0
 23 24  4  0  0  0  0
 23 29  1  0  0  0  0
 24 25  4  0  0  0  0
 24 30  1  0  0  0  0
 25 26  4  0  0  0  0
 25 28  1  0  0  0  0
 26 27  4  0  0  0  0
 26 31  1  0  0  0  0
 27 32  1  0  0  0  0
 28 33  1  0  0  0  0
 28 34  1  0  0  0  0
M  END
> <BCLConfClusterSize>
1

> <ConfClashScore>
0 

> <ConfOneFourInteractionScore>
-0.976093 

> <ConfScore>
0.081586 

> <ConfScorePBest>
0.0034478 

> <ConfTolerance>
0.634294 

> <RosettaParamsInstructions>
M  ROOT 3
M  POLY_N_BB 3
M  POLY_CA_BB 4
M  POLY_C_BB 2
M  POLY_O_BB 5
M  POLY_IGNORE 9 10 11 12 13 14 15 16 17 18 
M  POLY_UPPER 6
M  POLY_LOWER 8
M  POLY_CHG 0
M  POLY_PROPERTIES ALPHA_AA L_AA PROTEIN AROMATIC POLYMER 
M  END

$$$$



 34 34  0  0  0  0  0  0  0  0999 V2000
    0.6359    2.6290    0.9730 H   0  0  0  1  0  0  0  0  0  0  0  0
    0.1359    4.6013    1.5439 C   0  0  0  1  0  0  0  0  0  0  0  0
    0.3265    2.6668    3.0171 N   0  0  0  1  0  0  0  0  0  0  0  0
   -0.0259    3.0962    1.6720 C   0  0  0  1  0  0  0  0  0  0  0  0
    0.4936    5.1135    0.4844 O   0  0  0  1  0  0  0  0  0  0  0  0
   -0.2149    5.3279    2.6089 N   0  0  0  1  0  0  0  0  0  0  0  0
   -0.3532    2.2607    3.5946 H   0  0  0  1  0  0  0  0  0  0  0  0
    1.5748    2.8252    3.4664 C   0  0  0  1  0  0  0  0  0  0  0  0
   -0.3301    6.7785    2.6264 C   0  0  0  1  0  0  0  0  0  0  0  0
    1.8176    2.3307    4.8906 C   0  0  0  1  0  0  0  0  0  0  0  0
    2.4637    3.3917    2.8320 O   0  0  0  1  0  0  0  0  0  0  0  0
   -0.4093    4.8478    3.4408 H   0  0  0  1  0  0  0  0  0  0  0  0
    0.3916    7.2022    1.9597 H   0  0  0  1  0  0  0  0  0  0  0  0
   -0.1531    7.1381    3.6185 H   0  0  0  1  0  0  0  0  0  0  0  0
   -1.3135    7.0618    2.3140 H   0  0  0  1  0  0  0  0  0  0  0  0
    2.2337    3.1227    5.4776 H   0  0  0  1  0  0  0  0  0  0  0  0
    2.4992    1.5062    4.8702 H   0  0  0  1  0  0  0  0  0  0  0  0
    0.8901    2.0168    5.3219 H   0  0  0  1  0  0  0  0  0  0  0  0
   -5.4500    6.7356    0.9364 N   0  3  0  1  0  0  0  0  0  0  0  0
   -5.6121    7.2714   -0.1137 O   0  0  0  1  0  0  0  0  0  0  0  0
   -6.1986    6.9910    2.0181 O   0  5  0  1  0  0  0  0  0  0  0  0
   -4.3946    5.7626    1.0494 C   0  0  0  1  0  0  0  0  0  0  0  0
   -3.6022    5.4653   -0.0433 C   0  0  0  1  0  0  0  0  0  0  0  0
   -2.6415    4.4701    0.0472 C   0  0  0  1  0  0  0  0  0  0  0  0
   -2.4798    3.7714    1.2287 C   0  0  0  1  0  0  0  0  0  0  0  0
   -3.2744    4.0694    2.3247 C   0  0  0  1  0  0  0  0  0  0  0  0
   -4.2322    5.0617    2.2342 C   0  0  0  1  0  0  0  0  0  0  0  0
   -1.4372    2.6828    1.3264 C   0  0  0  1  0  0  0  0  0  0  0  0
   -3.7267    5.9884   -0.9336 H   0  0  0  1  0  0  0  0  0  0  0  0
   -2.0425    4.2492   -0.7738 H   0  0  0  1  0  0  0  0  0  0  0  0
   -3.1500    3.5463    3.2149 H   0  0  0  1  0  0  0  0  0  0  0  0
   -4.8312    5.2826    3.0552 H   0  0  0  1  0  0  0  0  0  0  0  0
   -1.7625    1.9945    2.0783 H   0  0  0  1  0  0  0  0  0  0  0  0
   -1.4026    2.1868    0.3790 H   0  0  0  1  0  0  0  0  0  0  0  0
  1  4  1  0  0  0  0
  2  4  1  0  0  0  0
  2  5  2  0  0  0  0
  2  6  1  0  0  0  0
  3  4  1  0  0  0  0
  3  7  1  0  0  0  0
  3  8  1  0  0  0  0
  4 28  1  0  0  0  0
  6  9  1  0  0  0  0
  6 12  1  0  0  0  0
  8 10  1  0  0  0  0
  8 11  2  0  0  0  0
  9 13  1  0  0  0  0
  9 14  1  0  0  0  0
  9 15  1  0  0  0  0
 10 16  1  0  0  0  0
 10 17  1  0  0  0  0
 10 18  1  0  0  0  0
 19 20  2  0  0  0  0
 19 21  1  0  0  0  0
 19 22  1  0  0  0  0
 22 23  4  0  0  0  0
 22 27  4  0  0  0  0
 23 24  4  0  0  0  0
 23 29  1  0  0  0  0
 24 25  4  0  0  0  0
 24 30  1  0  0  0  0
 25 26  4  0  0  0  0
 25 28  1  0  0  0  0
 26 27  4  0  0  0  0
 26 31  1  0  0  0  0
 27 32  1  0  0  0  0
 28 33  1  0  0  0  0
 28 34  1  0  0  0  0
M  END
> <BCLConfClusterSize>
1

> <ConfClashScore>
0 

> <ConfOneFourInteractionScore>
-0.942345 

> <ConfScore>
0.0898381 

> <ConfScorePBest>
0.00341932 

> <ConfTolerance>
0.831913 

> <RosettaParamsInstructions>
M  ROOT 3
M  POLY_N_BB 3
M  POLY_CA_BB 4
M  POLY_C_BB 2
M  POLY_O_BB 5
M  POLY_IGNORE 9 10 11 12 13 14 15 16 17 18 
M  POLY_UPPER 6
M  POLY_LOWER 8
M  POLY_CHG 0
M  POLY_PROPERTIES ALPHA_AA L_AA PROTEIN AROMATIC POLYMER 
M  END

$$$$



 34 34  0  0  0  0  0  0  0  0999 V2000
   -1.6162    1.7684   -0.5899 H   0  0  0  1  0  0  0  0  0  0  0  0
   -0.6735    0.4014    0.7372 C   0  0  0  1  0  0  0  0  0  0  0  0
   -3.0503    1.0093    0.7066 N   0  0  0  1  0  0  0  0  0  0  0  0
   -1.7013    1.4875    0.4391 C   0  0  0  1  0  0  0  0  0  0  0  0
    0.5044    0.6529    0.9318 O   0  0  0  1  0  0  0  0  0  0  0  0
   -1.0716   -0.8729    0.7884 N   0  0  0  1  0  0  0  0  0  0  0  0
   -3.7349    1.1807    0.0267 H   0  0  0  1  0  0  0  0  0  0  0  0
   -3.4286    0.3478    1.8200 C   0  0  0  1  0  0  0  0  0  0  0  0
   -0.1376   -1.9719    0.9822 C   0  0  0  1  0  0  0  0  0  0  0  0
   -4.9130    0.1722    2.0750 C   0  0  0  1  0  0  0  0  0  0  0  0
   -2.5958   -0.1007    2.6066 O   0  0  0  1  0  0  0  0  0  0  0  0
   -2.0258   -1.0745    0.6921 H   0  0  0  1  0  0  0  0  0  0  0  0
    0.7674   -1.5995    1.4148 H   0  0  0  1  0  0  0  0  0  0  0  0
    0.0792   -2.4261    0.0380 H   0  0  0  1  0  0  0  0  0  0  0  0
   -0.5727   -2.6983    1.6364 H   0  0  0  1  0  0  0  0  0  0  0  0
   -5.3450   -0.4067    1.2857 H   0  0  0  1  0  0  0  0  0  0  0  0
   -5.3842    1.1321    2.1121 H   0  0  0  1  0  0  0  0  0  0  0  0
   -5.0571   -0.3327    3.0073 H   0  0  0  1  0  0  0  0  0  0  0  0
   -5.4456    6.7384    0.9937 N   0  3  0  1  0  0  0  0  0  0  0  0
   -6.1054    7.0449    1.9355 O   0  0  0  1  0  0  0  0  0  0  0  0
   -5.6578    7.3575   -0.1756 O   0  5  0  1  0  0  0  0  0  0  0  0
   -4.4274    5.7233    1.0738 C   0  0  0  1  0  0  0  0  0  0  0  0
   -3.6293    5.4595   -0.0233 C   0  0  0  1  0  0  0  0  0  0  0  0
   -2.6450    4.4864    0.0533 C   0  0  0  1  0  0  0  0  0  0  0  0
   -2.4654    3.7763    1.2254 C   0  0  0  1  0  0  0  0  0  0  0  0
   -3.2657    4.0408    2.3258 C   0  0  0  1  0  0  0  0  0  0  0  0
   -4.2471    5.0110    2.2492 C   0  0  0  1  0  0  0  0  0  0  0  0
   -1.3969    2.7118    1.3080 C   0  0  0  1  0  0  0  0  0  0  0  0
   -3.7672    5.9911   -0.9065 H   0  0  0  1  0  0  0  0  0  0  0  0
   -2.0418    4.2908   -0.7709 H   0  0  0  1  0  0  0  0  0  0  0  0
   -3.1279    3.5092    3.2090 H   0  0  0  1  0  0  0  0  0  0  0  0
   -4.8502    5.2067    3.0735 H   0  0  0  1  0  0  0  0  0  0  0  0
   -0.4685    3.1355    0.9863 H   0  0  0  1  0  0  0  0  0  0  0  0
   -1.3108    2.3940    2.3260 H   0  0  0  1  0  0  0  0  0  0  0  0
  1  4  1  0  0  0  0
  2  4  1  0  0  0  0
  2  5  2  0  0  0  0
  2  6  1  0  0  0  0
  3  4  1  0  0  0  0
  3  7  1  0  0  0  0
  3  8  1  0  0  0  0
  4 28  1  0  0  0  0
  6  9  1  0  0  0  0
  6 12  1  0  0  0  0
  8 10  1  0  0  0  0
  8 11  2  0  0  0  0
  9 13  1  0  0  0  0
  9 14  1  0  0  0  0
  9 15  1  0  0  0  0
 10 16  1  0  0  0  0
 10 17  1  0  0  0  0
 10 18  1  0  0  0  0
 19 20  2  0  0  0  0
 19 21  1  0  0  0  0
 19 22  1  0  0  0  0
 22 23  4  0  0  0  0
 22 27  4  0  0  0  0
 23 24  4  0  0  0  0
 23 29  1  0  0  0  0
 24 25  4  0  0  0  0
 24 30  1  0  0  0  0
 25 26  4  0  0  0  0
 25 28  1  0  0  0  0
 26 27  4  0  0  0  0
 26 31  1  0  0  0  0
 27 32  1  0  0  0  0
 28 33  1  0  0  0  0
 28 34  1  0  0  0  0
M  END
> <BCLConfClusterSize>
1

> <ConfClashScore>
0 

> <ConfOneFourInteractionScore>
-0.938696 

> <ConfScore>
0.0924823 

> <ConfScorePBest>
0.00339084 

> <ConfTolerance>
0.331791 

> <RosettaParamsInstructions>
M  ROOT 3
M  POLY_N_BB 3
M  POLY_CA_BB 4
M  POLY_C_BB 2
M  POLY_O_BB 5
M  POLY_IGNORE 9 10 11 12 13 14 15 16 17 18 
M  POLY_UPPER 6
M  POLY_LOWER 8
M  POLY_CHG 0
M  POLY_PROPERTIES ALPHA_AA L_AA PROTEIN AROMATIC POLYMER 
M  END

$$$$



 34 34  0  0  0  0  0  0  0  0999 V2000
   -2.9310    1.2173    1.7787 H   0  0  0  1  0  0  0  0  0  0  0  0
   -2.5667    1.0878   -0.3108 C   0  0  0  1  0  0  0  0  0  0  0  0
   -1.1434    0.2219    1.4230 N   0  0  0  1  0  0  0  0  0  0  0  0
   -2.0891    1.2863    1.1220 C   0  0  0  1  0  0  0  0  0  0  0  0
   -1.7946    0.9767   -1.2456 O   0  0  0  1  0  0  0  0  0  0  0  0
   -3.8845    1.0329   -0.5572 N   0  0  0  1  0  0  0  0  0  0  0  0
   -0.5913   -0.1583    0.7081 H   0  0  0  1  0  0  0  0  0  0  0  0
   -1.0258   -0.2400    2.6772 C   0  0  0  1  0  0  0  0  0  0  0  0
   -4.3655    0.7564   -1.9026 C   0  0  0  1  0  0  0  0  0  0  0  0
   -0.1522   -1.4676    2.8478 C   0  0  0  1  0  0  0  0  0  0  0  0
   -1.5825    0.2846    3.6380 O   0  0  0  1  0  0  0  0  0  0  0  0
   -4.5245    1.1792    0.1704 H   0  0  0  1  0  0  0  0  0  0  0  0
   -4.0844    1.5573   -2.5540 H   0  0  0  1  0  0  0  0  0  0  0  0
   -5.4315    0.6658   -1.8884 H   0  0  0  1  0  0  0  0  0  0  0  0
   -3.9341   -0.1574   -2.2545 H   0  0  0  1  0  0  0  0  0  0  0  0
    0.8774   -1.1869    2.7703 H   0  0  0  1  0  0  0  0  0  0  0  0
   -0.3858   -2.1802    2.0845 H   0  0  0  1  0  0  0  0  0  0  0  0
   -0.3318   -1.9020    3.8090 H   0  0  0  1  0  0  0  0  0  0  0  0
   -5.4326    6.7555    0.9381 N   0  3  0  1  0  0  0  0  0  0  0  0
   -5.6139    7.2486   -0.1296 O   0  0  0  1  0  0  0  0  0  0  0  0
   -6.1708    7.0305    2.0221 O   0  5  0  1  0  0  0  0  0  0  0  0
   -4.4177    5.7394    1.0439 C   0  0  0  1  0  0  0  0  0  0  0  0
   -3.6169    5.4491   -0.0445 C   0  0  0  1  0  0  0  0  0  0  0  0
   -2.6358    4.4750    0.0569 C   0  0  0  1  0  0  0  0  0  0  0  0
   -2.4621    3.7904    1.2450 C   0  0  0  1  0  0  0  0  0  0  0  0
   -3.2652    4.0815    2.3367 C   0  0  0  1  0  0  0  0  0  0  0  0
   -4.2433    5.0527    2.2354 C   0  0  0  1  0  0  0  0  0  0  0  0
   -1.4535    2.6667    1.2823 C   0  0  0  1  0  0  0  0  0  0  0  0
   -3.7503    5.9614   -0.9396 H   0  0  0  1  0  0  0  0  0  0  0  0
   -2.0305    4.2594   -0.7608 H   0  0  0  1  0  0  0  0  0  0  0  0
   -3.1318    3.5692    3.2318 H   0  0  0  1  0  0  0  0  0  0  0  0
   -4.8486    5.2683    3.0532 H   0  0  0  1  0  0  0  0  0  0  0  0
   -0.7514    2.8127    0.4881 H   0  0  0  1  0  0  0  0  0  0  0  0
   -0.9420    2.6991    2.2216 H   0  0  0  1  0  0  0  0  0  0  0  0
  1  4  1  0  0  0  0
  2  4  1  0  0  0  0
  2  5  2  0  0  0  0
  2  6  1  0  0  0  0
  3  4  1  0  0  0  0
  3  7  1  0  0  0  0
  3  8  1  0  0  0  0
  4 28  1  0  0  0  0
  6  9  1  0  0  0  0
  6 12  1  0  0  0  0
  8 10  1  0  0  0  0
  8 11  2  0  0  0  0
  9 13  1  0  0  0  0
  9 14  1  0  0  0  0
  9 15  1  0  0  0  0
 10 16  1  0  0  0  0
 10 17  1  0  0  0  0
 10 18  1  0  0  0  0
 19 20  2  0  0  0  0
 19 21  1  0  0  0  0
 19 22  1  0  0  0  0
 22 23  4  0  0  0  0
 22 27  4  0  0  0  0
 23 24  4  0  0  0  0
 23 29  1  0  0  0  0
 24 25  4  0  0  0  0
 24 30  1  0  0  0  0
 25 26  4  0  0  0  0
 25 28  1  0  0  0  0
 26 27  4  0  0  0  0
 26 31  1  0  0  0  0
 27 32  1  0  0  0  0
 28 33  1  0  0  0  0
 28 34  1  0  0  0  0
M  END
> <BCLConfClusterSize>
1

> <ConfClashScore>
0 

> <ConfOneFourInteractionScore>
-0.990503 

> <ConfScore>
0.0973887 

> <ConfScorePBest>
0.00336236 

> <ConfTolerance>
0.409954 

> <RosettaParamsInstructions>
M  ROOT 3
M  POLY_N_BB 3
M  POLY_CA_BB 4
M  POLY_C_BB 2
M  POLY_O_BB 5
M  POLY_IGNORE 9 10 11 12 13 14 15 16 17 18 
M  POLY_UPPER 6
M  POLY_LOWER 8
M  POLY_CHG 0
M  POLY_PROPERTIES ALPHA_AA L_AA PROTEIN AROMATIC POLYMER 
M  END

$$$$



 34 34  0  0  0  0  0  0  0  0999 V2000
   -2.6829    1.1326    1.8733 H   0  0  0  1  0  0  0  0  0  0  0  0
   -2.6616    1.1042   -0.2235 C   0  0  0  1  0  0  0  0  0  0  0  0
   -0.9300    0.2646    1.2675 N   0  0  0  1  0  0  0  0  0  0  0  0
   -1.9484    1.2972    1.1128 C   0  0  0  1  0  0  0  0  0  0  0  0
   -2.3983    1.8162   -1.1906 O   0  0  0  1  0  0  0  0  0  0  0  0
   -3.6283    0.1738   -0.2229 N   0  0  0  1  0  0  0  0  0  0  0  0
   -0.2305    0.2119    0.5831 H   0  0  0  1  0  0  0  0  0  0  0  0
   -0.8786   -0.6191    2.2767 C   0  0  0  1  0  0  0  0  0  0  0  0
   -4.4047   -0.1413   -1.4128 C   0  0  0  1  0  0  0  0  0  0  0  0
    0.1210   -1.7476    2.1138 C   0  0  0  1  0  0  0  0  0  0  0  0
   -1.5891   -0.5351    3.2775 O   0  0  0  1  0  0  0  0  0  0  0  0
   -3.8183   -0.3104    0.6077 H   0  0  0  1  0  0  0  0  0  0  0  0
   -3.8367    0.1051   -2.2855 H   0  0  0  1  0  0  0  0  0  0  0  0
   -5.3123    0.4253   -1.4066 H   0  0  0  1  0  0  0  0  0  0  0  0
   -4.6359   -1.1860   -1.4213 H   0  0  0  1  0  0  0  0  0  0  0  0
    1.0551   -1.3512    1.7744 H   0  0  0  1  0  0  0  0  0  0  0  0
   -0.2491   -2.4510    1.3974 H   0  0  0  1  0  0  0  0  0  0  0  0
    0.2624   -2.2371    3.0547 H   0  0  0  1  0  0  0  0  0  0  0  0
   -5.4371    6.7467    0.9383 N   0  3  0  1  0  0  0  0  0  0  0  0
   -5.6415    7.2558   -0.1177 O   0  0  0  1  0  0  0  0  0  0  0  0
   -6.1275    7.0981    2.0317 O   0  5  0  1  0  0  0  0  0  0  0  0
   -4.4230    5.7295    1.0400 C   0  0  0  1  0  0  0  0  0  0  0  0
   -3.6280    5.4370   -0.0521 C   0  0  0  1  0  0  0  0  0  0  0  0
   -2.6476    4.4618    0.0454 C   0  0  0  1  0  0  0  0  0  0  0  0
   -2.4688    3.7782    1.2333 C   0  0  0  1  0  0  0  0  0  0  0  0
   -3.2661    4.0715    2.3287 C   0  0  0  1  0  0  0  0  0  0  0  0
   -4.2435    5.0438    2.2313 C   0  0  0  1  0  0  0  0  0  0  0  0
   -1.4047    2.7114    1.3386 C   0  0  0  1  0  0  0  0  0  0  0  0
   -3.7652    5.9486   -0.9471 H   0  0  0  1  0  0  0  0  0  0  0  0
   -2.0467    4.2446   -0.7751 H   0  0  0  1  0  0  0  0  0  0  0  0
   -3.1288    3.5599    3.2237 H   0  0  0  1  0  0  0  0  0  0  0  0
   -4.8443    5.2610    3.0519 H   0  0  0  1  0  0  0  0  0  0  0  0
   -0.6516    2.9080    0.6044 H   0  0  0  1  0  0  0  0  0  0  0  0
   -0.9715    2.7578    2.3159 H   0  0  0  1  0  0  0  0  0  0  0  0
  1  4  1  0  0  0  0
  2  4  1  0  0  0  0
  2  5  2  0  0  0  0
  2  6  1  0  0  0  0
  3  4  1  0  0  0  0
  3  7  1  0  0  0  0
  3  8  1  0  0  0  0
  4 28  1  0  0  0  0
  6  9  1  0  0  0  0
  6 12  1  0  0  0  0
  8 10  1  0  0  0  0
  8 11  2  0  0  0  0
  9 13  1  0  0  0  0
  9 14  1  0  0  0  0
  9 15  1  0  0  0  0
 10 16  1  0  0  0  0
 10 17  1  0  0  0  0
 10 18  1  0  0  0  0
 19 20  2  0  0  0  0
 19 21  1  0  0  0  0
 19 22  1  0  0  0  0
 22 23  4  0  0  0  0
 22 27  4  0  0  0  0
 23 24  4  0  0  0  0
 23 29  1  0  0  0  0
 24 25  4  0  0  0  0
 24 30  1  0  0  0  0
 25 26  4  0  0  0  0
 25 28  1  0  0  0  0
 26 27  4  0  0  0  0
 26 31  1  0  0  0  0
 27 32  1  0  0  0  0
 28 33  1  0  0  0  0
 28 34  1  0  0  0  0
M  END
> <BCLConfClusterSize>
1

> <ConfClashScore>
0 

> <ConfOneFourInteractionScore>
-0.979783 

> <ConfScore>
0.101094 

> <ConfScorePBest>
0.00333388 

> <ConfTolerance>
0.48022 

> <RosettaParamsInstructions>
M  ROOT 3
M  POLY_N_BB 3
M  POLY_CA_BB 4
M  POLY_C_BB 2
M  POLY_O_BB 5
M  POLY_IGNORE 9 10 11 12 13 14 15 16 17 18 
M  POLY_UPPER 6
M  POLY_LOWER 8
M  POLY_CHG 0
M  POLY_PROPERTIES ALPHA_AA L_AA PROTEIN AROMATIC POLYMER 
M  END

$$$$



 34 34  0  0  0  0  0  0  0  0999 V2000
   -0.3259    3.3195   -0.4078 H   0  0  0  1  0  0  0  0  0  0  0  0
    0.3592    1.3915    0.1360 C   0  0  0  1  0  0  0  0  0  0  0  0
   -1.7478    1.9309   -0.9781 N   0  0  0  1  0  0  0  0  0  0  0  0
   -0.7575    2.4167   -0.0288 C   0  0  0  1  0  0  0  0  0  0  0  0
    1.5324    1.7400    0.2608 O   0  0  0  1  0  0  0  0  0  0  0  0
   -0.0227    0.1135    0.1350 N   0  0  0  1  0  0  0  0  0  0  0  0
   -2.4233    1.2908   -0.6709 H   0  0  0  1  0  0  0  0  0  0  0  0
   -1.7680    2.3273   -2.2538 C   0  0  0  1  0  0  0  0  0  0  0  0
    0.9490   -0.9398    0.3884 C   0  0  0  1  0  0  0  0  0  0  0  0
   -2.9335    1.8225   -3.0820 C   0  0  0  1  0  0  0  0  0  0  0  0
   -0.9123    3.0490   -2.7389 O   0  0  0  1  0  0  0  0  0  0  0  0
   -0.9597   -0.1168   -0.0368 H   0  0  0  1  0  0  0  0  0  0  0  0
    1.9169   -0.6181    0.0648 H   0  0  0  1  0  0  0  0  0  0  0  0
    0.6680   -1.8210   -0.1495 H   0  0  0  1  0  0  0  0  0  0  0  0
    0.9767   -1.1546    1.4363 H   0  0  0  1  0  0  0  0  0  0  0  0
   -2.7022    0.8526   -3.4704 H   0  0  0  1  0  0  0  0  0  0  0  0
   -3.1135    2.4973   -3.8926 H   0  0  0  1  0  0  0  0  0  0  0  0
   -3.8073    1.7612   -2.4676 H   0  0  0  1  0  0  0  0  0  0  0  0
   -5.4630    6.7393    0.9808 N   0  3  0  1  0  0  0  0  0  0  0  0
   -6.5144    6.4302    1.4447 O   0  0  0  1  0  0  0  0  0  0  0  0
   -5.1229    7.8680    0.3436 O   0  5  0  1  0  0  0  0  0  0  0  0
   -4.4413    5.7282    1.0664 C   0  0  0  1  0  0  0  0  0  0  0  0
   -3.7042    5.3965   -0.0548 C   0  0  0  1  0  0  0  0  0  0  0  0
   -2.7165    4.4272    0.0267 C   0  0  0  1  0  0  0  0  0  0  0  0
   -2.4726    3.7887    1.2280 C   0  0  0  1  0  0  0  0  0  0  0  0
   -3.2118    4.1212    2.3525 C   0  0  0  1  0  0  0  0  0  0  0  0
   -4.1965    5.0876    2.2711 C   0  0  0  1  0  0  0  0  0  0  0  0
   -1.4006    2.7283    1.3163 C   0  0  0  1  0  0  0  0  0  0  0  0
   -3.8905    5.8742   -0.9596 H   0  0  0  1  0  0  0  0  0  0  0  0
   -2.1592    4.1805   -0.8159 H   0  0  0  1  0  0  0  0  0  0  0  0
   -3.0255    3.6436    3.2573 H   0  0  0  1  0  0  0  0  0  0  0  0
   -4.7538    5.3343    3.1137 H   0  0  0  1  0  0  0  0  0  0  0  0
   -0.6395    3.0684    1.9870 H   0  0  0  1  0  0  0  0  0  0  0  0
   -1.8398    1.8311    1.6998 H   0  0  0  1  0  0  0  0  0  0  0  0
  1  4  1  0  0  0  0
  2  4  1  0  0  0  0
  2  5  2  0  0  0  0
  2  6  1  0  0  0  0
  3  4  1  0  0  0  0
  3  7  1  0  0  0  0
  3  8  1  0  0  0  0
  4 28  1  0  0  0  0
  6  9  1  0  0  0  0
  6 12  1  0  0  0  0
  8 10  1  0  0  0  0
  8 11  2  0  0  0  0
  9 13  1  0  0  0  0
  9 14  1  0  0  0  0
  9 15  1  0  0  0  0
 10 16  1  0  0  0  0
 10 17  1  0  0  0  0
 10 18  1  0  0  0  0
 19 20  2  0  0  0  0
 19 21  1  0  0  0  0
 19 22  1  0  0  0  0
 22 23  4  0  0  0  0
 22 27  4  0  0  0  0
 23 24  4  0  0  0  0
 23 29  1  0  0  0  0
 24 25  4  0  0  0  0
 24 30  1  0  0  0  0
 25 26  4  0  0  0  0
 25 28  1  0  0  0  0
 26 27  4  0  0  0  0
 26 31  1  0  0  0  0
 27 32  1  0  0  0  0
 28 33  1  0  0  0  0
 28 34  1  0  0  0  0
M  END
> <BCLConfClusterSize>
1

> <ConfClashScore>
0 

> <ConfOneFourInteractionScore>
-0.949001 

> <ConfScore>
0.107648 

> <ConfScorePBest>
0.0033054 

> <ConfTolerance>
0.760981 

> <RosettaParamsInstructions>
M  ROOT 3
M  POLY_N_BB 3
M  POLY_CA_BB 4
M  POLY_C_BB 2
M  POLY_O_BB 5
M  POLY_IGNORE 9 10 11 12 13 14 15 16 17 18 
M  POLY_UPPER 6
M  POLY_LOWER 8
M  POLY_CHG 0
M  POLY_PROPERTIES ALPHA_AA L_AA PROTEIN AROMATIC POLYMER 
M  END

$$$$



 34 34  0  0  0  0  0  0  0  0999 V2000
   -1.5041    2.6813    3.4563 H   0  0  0  1  0  0  0  0  0  0  0  0
   -2.8270    1.1866    2.8002 C   0  0  0  1  0  0  0  0  0  0  0  0
   -0.3709    1.0677    2.8938 N   0  0  0  1  0  0  0  0  0  0  0  0
   -1.5100    1.9473    2.6778 C   0  0  0  1  0  0  0  0  0  0  0  0
   -3.1792    0.3667    1.9533 O   0  0  0  1  0  0  0  0  0  0  0  0
   -3.5321    1.5023    3.8972 N   0  0  0  1  0  0  0  0  0  0  0  0
    0.2636    0.9583    2.1550 H   0  0  0  1  0  0  0  0  0  0  0  0
   -0.1249    0.3981    4.0235 C   0  0  0  1  0  0  0  0  0  0  0  0
   -4.8530    0.9499    4.1580 C   0  0  0  1  0  0  0  0  0  0  0  0
    1.0537   -0.5549    3.9811 C   0  0  0  1  0  0  0  0  0  0  0  0
   -0.8005    0.5331    5.0429 O   0  0  0  1  0  0  0  0  0  0  0  0
   -3.1441    2.1265    4.5455 H   0  0  0  1  0  0  0  0  0  0  0  0
   -5.5487    1.3343    3.4417 H   0  0  0  1  0  0  0  0  0  0  0  0
   -5.1666    1.2258    5.1431 H   0  0  0  1  0  0  0  0  0  0  0  0
   -4.8148   -0.1167    4.0810 H   0  0  0  1  0  0  0  0  0  0  0  0
    0.8848   -1.2986    3.2306 H   0  0  0  1  0  0  0  0  0  0  0  0
    1.1634   -1.0288    4.9342 H   0  0  0  1  0  0  0  0  0  0  0  0
    1.9446   -0.0098    3.7486 H   0  0  0  1  0  0  0  0  0  0  0  0
   -5.4518    6.7463    0.9936 N   0  3  0  1  0  0  0  0  0  0  0  0
   -6.0367    7.0190    1.9934 O   0  0  0  1  0  0  0  0  0  0  0  0
   -5.6471    7.2948   -0.2133 O   0  5  0  1  0  0  0  0  0  0  0  0
   -4.4331    5.7314    1.0704 C   0  0  0  1  0  0  0  0  0  0  0  0
   -3.6332    5.4732   -0.0268 C   0  0  0  1  0  0  0  0  0  0  0  0
   -2.6484    4.5004    0.0468 C   0  0  0  1  0  0  0  0  0  0  0  0
   -2.4701    3.7849    1.2157 C   0  0  0  1  0  0  0  0  0  0  0  0
   -3.2723    4.0437    2.3162 C   0  0  0  1  0  0  0  0  0  0  0  0
   -4.2541    5.0136    2.2427 C   0  0  0  1  0  0  0  0  0  0  0  0
   -1.4182    2.7097    1.3536 C   0  0  0  1  0  0  0  0  0  0  0  0
   -3.7701    6.0089   -0.9077 H   0  0  0  1  0  0  0  0  0  0  0  0
   -2.0439    4.3090   -0.7775 H   0  0  0  1  0  0  0  0  0  0  0  0
   -3.1354    3.5080    3.1970 H   0  0  0  1  0  0  0  0  0  0  0  0
   -4.8586    5.2050    3.0670 H   0  0  0  1  0  0  0  0  0  0  0  0
   -1.5364    2.0127    0.5504 H   0  0  0  1  0  0  0  0  0  0  0  0
   -0.4531    3.1673    1.2903 H   0  0  0  1  0  0  0  0  0  0  0  0
  1  4  1  0  0  0  0
  2  4  1  0  0  0  0
  2  5  2  0  0  0  0
  2  6  1  0  0  0  0
  3  4  1  0  0  0  0
  3  7  1  0  0  0  0
  3  8  1  0  0  0  0
  4 28  1  0  0  0  0
  6  9  1  0  0  0  0
  6 12  1  0  0  0  0
  8 10  1  0  0  0  0
  8 11  2  0  0  0  0
  9 13  1  0  0  0  0
  9 14  1  0  0  0  0
  9 15  1  0  0  0  0
 10 16  1  0  0  0  0
 10 17  1  0  0  0  0
 10 18  1  0  0  0  0
 19 20  2  0  0  0  0
 19 21  1  0  0  0  0
 19 22  1  0  0  0  0
 22 23  4  0  0  0  0
 22 27  4  0  0  0  0
 23 24  4  0  0  0  0
 23 29  1  0  0  0  0
 24 25  4  0  0  0  0
 24 30  1  0  0  0  0
 25 26  4  0  0  0  0
 25 28  1  0  0  0  0
 26 27  4  0  0  0  0
 26 31  1  0  0  0  0
 27 32  1  0  0  0  0
 28 33  1  0  0  0  0
 28 34  1  0  0  0  0
M  END
> <BCLConfClusterSize>
1

> <ConfClashScore>
0 

> <ConfOneFourInteractionScore>
-0.964013 

> <ConfScore>
0.115295 

> <ConfScorePBest>
0.00327691 

> <ConfTolerance>
0.677447 

> <RosettaParamsInstructions>
M  ROOT 3
M  POLY_N_BB 3
M  POLY_CA_BB 4
M  POLY_C_BB 2
M  POLY_O_BB 5
M  POLY_IGNORE 9 10 11 12 13 14 15 16 17 18 
M  POLY_UPPER 6
M  POLY_LOWER 8
M  POLY_CHG 0
M  POLY_PROPERTIES ALPHA_AA L_AA PROTEIN AROMATIC POLYMER 
M  END

$$$$



 34 34  0  0  0  0  0  0  0  0999 V2000
   -1.0711    0.6560    0.9316 H   0  0  0  1  0  0  0  0  0  0  0  0
   -3.1182    0.9054    1.4758 C   0  0  0  1  0  0  0  0  0  0  0  0
   -2.0790    1.5107   -0.6707 N   0  0  0  1  0  0  0  0  0  0  0  0
   -1.8455    1.3740    0.7592 C   0  0  0  1  0  0  0  0  0  0  0  0
   -3.2052    1.0056    2.6989 O   0  0  0  1  0  0  0  0  0  0  0  0
   -4.1269    0.4782    0.6998 N   0  0  0  1  0  0  0  0  0  0  0  0
   -3.0011    1.5825   -0.9947 H   0  0  0  1  0  0  0  0  0  0  0  0
   -1.0571    1.5425   -1.5775 C   0  0  0  1  0  0  0  0  0  0  0  0
   -5.4328    0.1338    1.2421 C   0  0  0  1  0  0  0  0  0  0  0  0
   -1.5207    1.6751   -2.9988 C   0  0  0  1  0  0  0  0  0  0  0  0
    0.1089    1.4686   -1.2384 O   0  0  0  1  0  0  0  0  0  0  0  0
   -3.9788    0.3954   -0.2654 H   0  0  0  1  0  0  0  0  0  0  0  0
   -5.3106   -0.3427    2.1923 H   0  0  0  1  0  0  0  0  0  0  0  0
   -5.9329   -0.5327    0.5708 H   0  0  0  1  0  0  0  0  0  0  0  0
   -6.0149    1.0235    1.3618 H   0  0  0  1  0  0  0  0  0  0  0  0
   -2.1379    0.8387   -3.2527 H   0  0  0  1  0  0  0  0  0  0  0  0
   -0.6717    1.7021   -3.6495 H   0  0  0  1  0  0  0  0  0  0  0  0
   -2.0829    2.5789   -3.1075 H   0  0  0  1  0  0  0  0  0  0  0  0
   -5.4429    6.7466    0.9623 N   0  3  0  1  0  0  0  0  0  0  0  0
   -5.5869    7.3471   -0.0550 O   0  0  0  1  0  0  0  0  0  0  0  0
   -6.1850    6.9614    2.0571 O   0  5  0  1  0  0  0  0  0  0  0  0
   -4.4177    5.7369    1.0183 C   0  0  0  1  0  0  0  0  0  0  0  0
   -3.6089    5.4461   -0.0641 C   0  0  0  1  0  0  0  0  0  0  0  0
   -2.6324    4.4681    0.0431 C   0  0  0  1  0  0  0  0  0  0  0  0
   -2.4711    3.7801    1.2310 C   0  0  0  1  0  0  0  0  0  0  0  0
   -3.2821    4.0717    2.3166 C   0  0  0  1  0  0  0  0  0  0  0  0
   -4.2557    5.0468    2.2096 C   0  0  0  1  0  0  0  0  0  0  0  0
   -1.4111    2.7103    1.3468 C   0  0  0  1  0  0  0  0  0  0  0  0
   -3.7331    5.9611   -0.9591 H   0  0  0  1  0  0  0  0  0  0  0  0
   -2.0212    4.2521   -0.7701 H   0  0  0  1  0  0  0  0  0  0  0  0
   -3.1580    3.5568    3.2116 H   0  0  0  1  0  0  0  0  0  0  0  0
   -4.8669    5.2628    3.0228 H   0  0  0  1  0  0  0  0  0  0  0  0
   -0.5351    3.0414    0.8291 H   0  0  0  1  0  0  0  0  0  0  0  0
   -1.1819    2.5687    2.3823 H   0  0  0  1  0  0  0  0  0  0  0  0
  1  4  1  0  0  0  0
  2  4  1  0  0  0  0
  2  5  2  0  0  0  0
  2  6  1  0  0  0  0
  3  4  1  0  0  0  0
  3  7  1  0  0  0  0
  3  8  1  0  0  0  0
  4 28  1  0  0  0  0
  6  9  1  0  0  0  0
  6 12  1  0  0  0  0
  8 10  1  0  0  0  0
  8 11  2  0  0  0  0
  9 13  1  0  0  0  0
  9 14  1  0  0  0  0
  9 15  1  0  0  0  0
 10 16  1  0  0  0  0
 10 17  1  0  0  0  0
 10 18  1  0  0  0  0
 19 20  2  0  0  0  0
 19 21  1  0  0  0  0
 19 22  1  0  0  0  0
 22 23  4  0  0  0  0
 22 27  4  0  0  0  0
 23 24  4  0  0  0  0
 23 29  1  0  0  0  0
 24 25  4  0  0  0  0
 24 30  1  0  0  0  0
 25 26  4  0  0  0  0
 25 28  1  0  0  0  0
 26 27  4  0  0  0  0
 26 31  1  0  0  0  0
 27 32  1  0  0  0  0
 28 33  1  0  0  0  0
 28 34  1  0  0  0  0
M  END
> <BCLConfClusterSize>
1

> <ConfClashScore>
0 

> <ConfOneFourInteractionScore>
-0.957723 

> <ConfScore>
0.116776 

> <ConfScorePBest>
0.00324843 

> <ConfTolerance>
0.337947 

> <RosettaParamsInstructions>
M  ROOT 3
M  POLY_N_BB 3
M  POLY_CA_BB 4
M  POLY_C_BB 2
M  POLY_O_BB 5
M  POLY_IGNORE 9 10 11 12 13 14 15 16 17 18 
M  POLY_UPPER 6
M  POLY_LOWER 8
M  POLY_CHG 0
M  POLY_PROPERTIES ALPHA_AA L_AA PROTEIN AROMATIC POLYMER 
M  END

$$$$



 34 34  0  0  0  0  0  0  0  0999 V2000
   -0.3597    1.4827    2.7093 H   0  0  0  1  0  0  0  0  0  0  0  0
   -0.8546    3.2456    3.7798 C   0  0  0  1  0  0  0  0  0  0  0  0
   -2.3891    1.4325    3.1160 N   0  0  0  1  0  0  0  0  0  0  0  0
   -1.1828    2.1652    2.7478 C   0  0  0  1  0  0  0  0  0  0  0  0
   -1.7036    3.6175    4.5888 O   0  0  0  1  0  0  0  0  0  0  0  0
    0.4221    3.6606    3.7716 N   0  0  0  1  0  0  0  0  0  0  0  0
   -3.0757    1.8881    3.6464 H   0  0  0  1  0  0  0  0  0  0  0  0
   -2.5900    0.1639    2.7560 C   0  0  0  1  0  0  0  0  0  0  0  0
    0.9281    4.6375    4.7242 C   0  0  0  1  0  0  0  0  0  0  0  0
   -3.8376   -0.4863    3.3098 C   0  0  0  1  0  0  0  0  0  0  0  0
   -1.8206   -0.4537    2.0211 O   0  0  0  1  0  0  0  0  0  0  0  0
    1.0346    3.2928    3.1009 H   0  0  0  1  0  0  0  0  0  0  0  0
    0.1414    4.9302    5.3876 H   0  0  0  1  0  0  0  0  0  0  0  0
    1.2877    5.4963    4.1968 H   0  0  0  1  0  0  0  0  0  0  0  0
    1.7275    4.2043    5.2884 H   0  0  0  1  0  0  0  0  0  0  0  0
   -4.4304   -0.8658    2.5040 H   0  0  0  1  0  0  0  0  0  0  0  0
   -4.4033    0.2376    3.8584 H   0  0  0  1  0  0  0  0  0  0  0  0
   -3.5619   -1.2908    3.9591 H   0  0  0  1  0  0  0  0  0  0  0  0
   -5.4192    6.7669    0.9539 N   0  3  0  1  0  0  0  0  0  0  0  0
   -5.4454    7.4442   -0.0242 O   0  0  0  1  0  0  0  0  0  0  0  0
   -6.2391    6.9472    1.9983 O   0  5  0  1  0  0  0  0  0  0  0  0
   -4.4559    5.6984    1.0172 C   0  0  0  1  0  0  0  0  0  0  0  0
   -3.6313    5.4331   -0.0598 C   0  0  0  1  0  0  0  0  0  0  0  0
   -2.6311    4.4797    0.0512 C   0  0  0  1  0  0  0  0  0  0  0  0
   -2.4621    3.7906    1.2373 C   0  0  0  1  0  0  0  0  0  0  0  0
   -3.2890    4.0566    2.3175 C   0  0  0  1  0  0  0  0  0  0  0  0
   -4.2861    5.0072    2.2067 C   0  0  0  1  0  0  0  0  0  0  0  0
   -1.3763    2.7474    1.3572 C   0  0  0  1  0  0  0  0  0  0  0  0
   -3.7612    5.9488   -0.9535 H   0  0  0  1  0  0  0  0  0  0  0  0
   -2.0081    4.2829   -0.7580 H   0  0  0  1  0  0  0  0  0  0  0  0
   -3.1591    3.5409    3.2113 H   0  0  0  1  0  0  0  0  0  0  0  0
   -4.9091    5.2039    3.0159 H   0  0  0  1  0  0  0  0  0  0  0  0
   -1.6163    1.9434    0.6932 H   0  0  0  1  0  0  0  0  0  0  0  0
   -0.4528    3.1961    1.0557 H   0  0  0  1  0  0  0  0  0  0  0  0
  1  4  1  0  0  0  0
  2  4  1  0  0  0  0
  2  5  2  0  0  0  0
  2  6  1  0  0  0  0
  3  4  1  0  0  0  0
  3  7  1  0  0  0  0
  3  8  1  0  0  0  0
  4 28  1  0  0  0  0
  6  9  1  0  0  0  0
  6 12  1  0  0  0  0
  8 10  1  0  0  0  0
  8 11  2  0  0  0  0
  9 13  1  0  0  0  0
  9 14  1  0  0  0  0
  9 15  1  0  0  0  0
 10 16  1  0  0  0  0
 10 17  1  0  0  0  0
 10 18  1  0  0  0  0
 19 20  2  0  0  0  0
 19 21  1  0  0  0  0
 19 22  1  0  0  0  0
 22 23  4  0  0  0  0
 22 27  4  0  0  0  0
 23 24  4  0  0  0  0
 23 29  1  0  0  0  0
 24 25  4  0  0  0  0
 24 30  1  0  0  0  0
 25 26  4  0  0  0  0
 25 28  1  0  0  0  0
 26 27  4  0  0  0  0
 26 31  1  0  0  0  0
 27 32  1  0  0  0  0
 28 33  1  0  0  0  0
 28 34  1  0  0  0  0
M  END
> <BCLConfClusterSize>
1

> <ConfClashScore>
0 

> <ConfOneFourInteractionScore>
-0.973348 

> <ConfScore>
0.117394 

> <ConfScorePBest>
0.00321995 

> <ConfTolerance>
0.716539 

> <RosettaParamsInstructions>
M  ROOT 3
M  POLY_N_BB 3
M  POLY_CA_BB 4
M  POLY_C_BB 2
M  POLY_O_BB 5
M  POLY_IGNORE 9 10 11 12 13 14 15 16 17 18 
M  POLY_UPPER 6
M  POLY_LOWER 8
M  POLY_CHG 0
M  POLY_PROPERTIES ALPHA_AA L_AA PROTEIN AROMATIC POLYMER 
M  END

$$$$



 34 34  0  0  0  0  0  0  0  0999 V2000
   -2.0003    1.5187   -0.3591 H   0  0  0  1  0  0  0  0  0  0  0  0
   -0.6237    0.3925    0.7849 C   0  0  0  1  0  0  0  0  0  0  0  0
   -2.9617    0.8261    1.3355 N   0  0  0  1  0  0  0  0  0  0  0  0
   -1.7833    1.3715    0.6783 C   0  0  0  1  0  0  0  0  0  0  0  0
   -0.5198   -0.3722    1.7430 O   0  0  0  1  0  0  0  0  0  0  0  0
    0.2567    0.4240   -0.2195 N   0  0  0  1  0  0  0  0  0  0  0  0
   -3.7751    0.7270    0.7980 H   0  0  0  1  0  0  0  0  0  0  0  0
   -3.0180    0.4504    2.6164 C   0  0  0  1  0  0  0  0  0  0  0  0
    1.4791   -0.3541   -0.0845 C   0  0  0  1  0  0  0  0  0  0  0  0
   -4.3652   -0.0520    3.1364 C   0  0  0  1  0  0  0  0  0  0  0  0
   -2.0652    0.5739    3.3814 O   0  0  0  1  0  0  0  0  0  0  0  0
    0.0843    0.9560   -1.0243 H   0  0  0  1  0  0  0  0  0  0  0  0
    1.7182   -0.8092   -1.0229 H   0  0  0  1  0  0  0  0  0  0  0  0
    1.3376   -1.1147    0.6547 H   0  0  0  1  0  0  0  0  0  0  0  0
    2.2801    0.2894    0.2140 H   0  0  0  1  0  0  0  0  0  0  0  0
   -4.6134   -0.9738    2.6532 H   0  0  0  1  0  0  0  0  0  0  0  0
   -5.1217    0.6752    2.9270 H   0  0  0  1  0  0  0  0  0  0  0  0
   -4.3033   -0.2089    4.1931 H   0  0  0  1  0  0  0  0  0  0  0  0
   -5.4181    6.7381    0.9531 N   0  3  0  1  0  0  0  0  0  0  0  0
   -5.9545    7.1660    1.9254 O   0  0  0  1  0  0  0  0  0  0  0  0
   -5.6877    7.1673   -0.2874 O   0  5  0  1  0  0  0  0  0  0  0  0
   -4.4471    5.7253    1.1162 C   0  0  0  1  0  0  0  0  0  0  0  0
   -3.6476    5.4921    0.0132 C   0  0  0  1  0  0  0  0  0  0  0  0
   -2.6581    4.5227    0.0667 C   0  0  0  1  0  0  0  0  0  0  0  0
   -2.4747    3.7857    1.2214 C   0  0  0  1  0  0  0  0  0  0  0  0
   -3.2765    4.0194    2.3277 C   0  0  0  1  0  0  0  0  0  0  0  0
   -4.2629    4.9859    2.2742 C   0  0  0  1  0  0  0  0  0  0  0  0
   -1.4006    2.7252    1.2786 C   0  0  0  1  0  0  0  0  0  0  0  0
   -3.7883    6.0439   -0.8570 H   0  0  0  1  0  0  0  0  0  0  0  0
   -2.0538    4.3500   -0.7620 H   0  0  0  1  0  0  0  0  0  0  0  0
   -3.1357    3.4676    3.1980 H   0  0  0  1  0  0  0  0  0  0  0  0
   -4.8672    5.1586    3.1029 H   0  0  0  1  0  0  0  0  0  0  0  0
   -0.5464    3.0917    0.7485 H   0  0  0  1  0  0  0  0  0  0  0  0
   -1.1441    2.5702    2.3058 H   0  0  0  1  0  0  0  0  0  0  0  0
  1  4  1  0  0  0  0
  2  4  1  0  0  0  0
  2  5  2  0  0  0  0
  2  6  1  0  0  0  0
  3  4  1  0  0  0  0
  3  7  1  0  0  0  0
  3  8  1  0  0  0  0
  4 28  1  0  0  0  0
  6  9  1  0  0  0  0
  6 12  1  0  0  0  0
  8 10  1  0  0  0  0
  8 11  2  0  0  0  0
  9 13  1  0  0  0  0
  9 14  1  0  0  0  0
  9 15  1  0  0  0  0
 10 16  1  0  0  0  0
 10 17  1  0  0  0  0
 10 18  1  0  0  0  0
 19 20  2  0  0  0  0
 19 21  1  0  0  0  0
 19 22  1  0  0  0  0
 22 23  4  0  0  0  0
 22 27  4  0  0  0  0
 23 24  4  0  0  0  0
 23 29  1  0  0  0  0
 24 25  4  0  0  0  0
 24 30  1  0  0  0  0
 25 26  4  0  0  0  0
 25 28  1  0  0  0  0
 26 27  4  0  0  0  0
 26 31  1  0  0  0  0
 27 32  1  0  0  0  0
 28 33  1  0  0  0  0
 28 34  1  0  0  0  0
M  END
> <BCLConfClusterSize>
1

> <ConfClashScore>
0 

> <ConfOneFourInteractionScore>
-0.984592 

> <ConfScore>
0.129324 

> <ConfScorePBest>
0.00319147 

> <ConfTolerance>
0.31115 

> <RosettaParamsInstructions>
M  ROOT 3
M  POLY_N_BB 3
M  POLY_CA_BB 4
M  POLY_C_BB 2
M  POLY_O_BB 5
M  POLY_IGNORE 9 10 11 12 13 14 15 16 17 18 
M  POLY_UPPER 6
M  POLY_LOWER 8
M  POLY_CHG 0
M  POLY_PROPERTIES ALPHA_AA L_AA PROTEIN AROMATIC POLYMER 
M  END

$$$$



 34 34  0  0  0  0  0  0  0  0999 V2000
   -2.6571    1.3128    0.3897 H   0  0  0  1  0  0  0  0  0  0  0  0
   -1.0116    0.2302    1.1215 C   0  0  0  1  0  0  0  0  0  0  0  0
   -2.9021    1.1716    2.4395 N   0  0  0  1  0  0  0  0  0  0  0  0
   -2.0396    1.3299    1.2633 C   0  0  0  1  0  0  0  0  0  0  0  0
   -0.4829   -0.2955    2.0839 O   0  0  0  1  0  0  0  0  0  0  0  0
   -0.6661   -0.1849   -0.1067 N   0  0  0  1  0  0  0  0  0  0  0  0
   -3.8595    1.0315    2.2837 H   0  0  0  1  0  0  0  0  0  0  0  0
   -2.4788    1.2043    3.7130 C   0  0  0  1  0  0  0  0  0  0  0  0
    0.3979   -1.1635   -0.2749 C   0  0  0  1  0  0  0  0  0  0  0  0
   -3.5551    1.0462    4.7692 C   0  0  0  1  0  0  0  0  0  0  0  0
   -1.2976    1.3522    4.0225 O   0  0  0  1  0  0  0  0  0  0  0  0
   -1.1312    0.1715   -0.8923 H   0  0  0  1  0  0  0  0  0  0  0  0
    0.8628   -1.3515    0.6703 H   0  0  0  1  0  0  0  0  0  0  0  0
    1.1259   -0.7840   -0.9610 H   0  0  0  1  0  0  0  0  0  0  0  0
   -0.0129   -2.0744   -0.6575 H   0  0  0  1  0  0  0  0  0  0  0  0
   -4.2023    1.8981    4.7501 H   0  0  0  1  0  0  0  0  0  0  0  0
   -3.0990    0.9667    5.7339 H   0  0  0  1  0  0  0  0  0  0  0  0
   -4.1237    0.1621    4.5691 H   0  0  0  1  0  0  0  0  0  0  0  0
   -5.4371    6.7250    0.9820 N   0  3  0  1  0  0  0  0  0  0  0  0
   -5.7253    7.2195   -0.0614 O   0  0  0  1  0  0  0  0  0  0  0  0
   -6.0260    7.0511    2.1406 O   0  5  0  1  0  0  0  0  0  0  0  0
   -4.4191    5.7413    0.9988 C   0  0  0  1  0  0  0  0  0  0  0  0
   -3.6193    5.4308   -0.0849 C   0  0  0  1  0  0  0  0  0  0  0  0
   -2.6433    4.4533    0.0314 C   0  0  0  1  0  0  0  0  0  0  0  0
   -2.4735    3.7855    1.2295 C   0  0  0  1  0  0  0  0  0  0  0  0
   -3.2755    4.0969    2.3164 C   0  0  0  1  0  0  0  0  0  0  0  0
   -4.2486    5.0715    2.2003 C   0  0  0  1  0  0  0  0  0  0  0  0
   -1.4182    2.7204    1.3548 C   0  0  0  1  0  0  0  0  0  0  0  0
   -3.7499    5.9305   -0.9876 H   0  0  0  1  0  0  0  0  0  0  0  0
   -2.0389    4.2224   -0.7829 H   0  0  0  1  0  0  0  0  0  0  0  0
   -3.1450    3.5972    3.2191 H   0  0  0  1  0  0  0  0  0  0  0  0
   -4.8530    5.3023    3.0146 H   0  0  0  1  0  0  0  0  0  0  0  0
   -0.7051    2.8387    0.5659 H   0  0  0  1  0  0  0  0  0  0  0  0
   -0.9263    2.8234    2.2994 H   0  0  0  1  0  0  0  0  0  0  0  0
  1  4  1  0  0  0  0
  2  4  1  0  0  0  0
  2  5  2  0  0  0  0
  2  6  1  0  0  0  0
  3  4  1  0  0  0  0
  3  7  1  0  0  0  0
  3  8  1  0  0  0  0
  4 28  1  0  0  0  0
  6  9  1  0  0  0  0
  6 12  1  0  0  0  0
  8 10  1  0  0  0  0
  8 11  2  0  0  0  0
  9 13  1  0  0  0  0
  9 14  1  0  0  0  0
  9 15  1  0  0  0  0
 10 16  1  0  0  0  0
 10 17  1  0  0  0  0
 10 18  1  0  0  0  0
 19 20  2  0  0  0  0
 19 21  1  0  0  0  0
 19 22  1  0  0  0  0
 22 23  4  0  0  0  0
 22 27  4  0  0  0  0
 23 24  4  0  0  0  0
 23 29  1  0  0  0  0
 24 25  4  0  0  0  0
 24 30  1  0  0  0  0
 25 26  4  0  0  0  0
 25 28  1  0  0  0  0
 26 27  4  0  0  0  0
 26 31  1  0  0  0  0
 27 32  1  0  0  0  0
 28 33  1  0  0  0  0
 28 34  1  0  0  0  0
M  END
> <BCLConfClusterSize>
1

> <ConfClashScore>
0 

> <ConfOneFourInteractionScore>
-0.980324 

> <ConfScore>
0.129666 

> <ConfScorePBest>
0.00316299 

> <ConfTolerance>
0.449675 

> <RosettaParamsInstructions>
M  ROOT 3
M  POLY_N_BB 3
M  POLY_CA_BB 4
M  POLY_C_BB 2
M  POLY_O_BB 5
M  POLY_IGNORE 9 10 11 12 13 14 15 16 17 18 
M  POLY_UPPER 6
M  POLY_LOWER 8
M  POLY_CHG 0
M  POLY_PROPERTIES ALPHA_AA L_AA PROTEIN AROMATIC POLYMER 
M  END

$$$$



 34 34  0  0  0  0  0  0  0  0999 V2000
    0.6701    2.5218    1.8131 H   0  0  0  1  0  0  0  0  0  0  0  0
    0.5357    4.0177    0.3401 C   0  0  0  1  0  0  0  0  0  0  0  0
   -0.0252    4.2198    2.7434 N   0  0  0  1  0  0  0  0  0  0  0  0
    0.0081    3.3324    1.5904 C   0  0  0  1  0  0  0  0  0  0  0  0
    1.1810    3.3974   -0.5039 O   0  0  0  1  0  0  0  0  0  0  0  0
    0.2508    5.3247    0.2271 N   0  0  0  1  0  0  0  0  0  0  0  0
   -0.1209    5.1802    2.5733 H   0  0  0  1  0  0  0  0  0  0  0  0
    0.0648    3.8238    4.0162 C   0  0  0  1  0  0  0  0  0  0  0  0
    0.6545    6.1112   -0.9289 C   0  0  0  1  0  0  0  0  0  0  0  0
    0.2190    4.9306    5.0411 C   0  0  0  1  0  0  0  0  0  0  0  0
    0.0270    2.6415    4.3542 O   0  0  0  1  0  0  0  0  0  0  0  0
   -0.2463    5.7644    0.9481 H   0  0  0  1  0  0  0  0  0  0  0  0
    0.1920    5.7160   -1.8090 H   0  0  0  1  0  0  0  0  0  0  0  0
    1.7183    6.0682   -1.0353 H   0  0  0  1  0  0  0  0  0  0  0  0
    0.3501    7.1279   -0.7922 H   0  0  0  1  0  0  0  0  0  0  0  0
   -0.6344    5.5749    5.0021 H   0  0  0  1  0  0  0  0  0  0  0  0
    1.1020    5.4953    4.8257 H   0  0  0  1  0  0  0  0  0  0  0  0
    0.2982    4.5027    6.0186 H   0  0  0  1  0  0  0  0  0  0  0  0
   -5.4181    6.7556    0.9443 N   0  3  0  1  0  0  0  0  0  0  0  0
   -5.5725    7.3632   -0.0671 O   0  0  0  1  0  0  0  0  0  0  0  0
   -6.1847    7.1041    1.9866 O   0  5  0  1  0  0  0  0  0  0  0  0
   -4.4473    5.6955    1.0305 C   0  0  0  1  0  0  0  0  0  0  0  0
   -3.6374    5.4203   -0.0551 C   0  0  0  1  0  0  0  0  0  0  0  0
   -2.6389    4.4644    0.0496 C   0  0  0  1  0  0  0  0  0  0  0  0
   -2.4569    3.7827    1.2380 C   0  0  0  1  0  0  0  0  0  0  0  0
   -3.2692    4.0586    2.3269 C   0  0  0  1  0  0  0  0  0  0  0  0
   -4.2646    5.0116    2.2224 C   0  0  0  1  0  0  0  0  0  0  0  0
   -1.3730    2.7368    1.3511 C   0  0  0  1  0  0  0  0  0  0  0  0
   -3.7770    5.9305   -0.9505 H   0  0  0  1  0  0  0  0  0  0  0  0
   -2.0269    4.2602   -0.7661 H   0  0  0  1  0  0  0  0  0  0  0  0
   -3.1296    3.5484    3.2223 H   0  0  0  1  0  0  0  0  0  0  0  0
   -4.8766    5.2158    3.0381 H   0  0  0  1  0  0  0  0  0  0  0  0
   -1.6101    2.0875    2.1678 H   0  0  0  1  0  0  0  0  0  0  0  0
   -1.3479    2.1728    0.4421 H   0  0  0  1  0  0  0  0  0  0  0  0
  1  4  1  0  0  0  0
  2  4  1  0  0  0  0
  2  5  2  0  0  0  0
  2  6  1  0  0  0  0
  3  4  1  0  0  0  0
  3  7  1  0  0  0  0
  3  8  1  0  0  0  0
  4 28  1  0  0  0  0
  6  9  1  0  0  0  0
  6 12  1  0  0  0  0
  8 10  1  0  0  0  0
  8 11  2  0  0  0  0
  9 13  1  0  0  0  0
  9 14  1  0  0  0  0
  9 15  1  0  0  0  0
 10 16  1  0  0  0  0
 10 17  1  0  0  0  0
 10 18  1  0  0  0  0
 19 20  2  0  0  0  0
 19 21  1  0  0  0  0
 19 22  1  0  0  0  0
 22 23  4  0  0  0  0
 22 27  4  0  0  0  0
 23 24  4  0  0  0  0
 23 29  1  0  0  0  0
 24 25  4  0  0  0  0
 24 30  1  0  0  0  0
 25 26  4  0  0  0  0
 25 28  1  0  0  0  0
 26 27  4  0  0  0  0
 26 31  1  0  0  0  0
 27 32  1  0  0  0  0
 28 33  1  0  0  0  0
 28 34  1  0  0  0  0
M  END
> <BCLConfClusterSize>
1

> <ConfClashScore>
0 

> <ConfOneFourInteractionScore>
-0.9553 

> <ConfScore>
0.131218 

> <ConfScorePBest>
0.00313451 

> <ConfTolerance>
0.367144 

> <RosettaParamsInstructions>
M  ROOT 3
M  POLY_N_BB 3
M  POLY_CA_BB 4
M  POLY_C_BB 2
M  POLY_O_BB 5
M  POLY_IGNORE 9 10 11 12 13 14 15 16 17 18 
M  POLY_UPPER 6
M  POLY_LOWER 8
M  POLY_CHG 0
M  POLY_PROPERTIES ALPHA_AA L_AA PROTEIN AROMATIC POLYMER 
M  END

$$$$



 34 34  0  0  0  0  0  0  0  0999 V2000
    0.4750    2.4099    2.2147 H   0  0  0  1  0  0  0  0  0  0  0  0
    0.6273    4.1597    1.0489 C   0  0  0  1  0  0  0  0  0  0  0  0
   -0.4940    3.9037    3.2466 N   0  0  0  1  0  0  0  0  0  0  0  0
   -0.1510    3.2489    1.9930 C   0  0  0  1  0  0  0  0  0  0  0  0
    1.0687    3.7221   -0.0126 O   0  0  0  1  0  0  0  0  0  0  0  0
    0.8762    5.4003    1.4693 N   0  0  0  1  0  0  0  0  0  0  0  0
   -0.9253    4.7832    3.2182 H   0  0  0  1  0  0  0  0  0  0  0  0
   -0.2413    3.3475    4.4348 C   0  0  0  1  0  0  0  0  0  0  0  0
    1.6368    6.3527    0.6741 C   0  0  0  1  0  0  0  0  0  0  0  0
   -0.8040    4.0592    5.6601 C   0  0  0  1  0  0  0  0  0  0  0  0
    0.3434    2.2729    4.5647 O   0  0  0  1  0  0  0  0  0  0  0  0
    0.5351    5.6805    2.3443 H   0  0  0  1  0  0  0  0  0  0  0  0
    1.2434    7.3366    0.8226 H   0  0  0  1  0  0  0  0  0  0  0  0
    1.5631    6.0919   -0.3610 H   0  0  0  1  0  0  0  0  0  0  0  0
    2.6630    6.3299    0.9760 H   0  0  0  1  0  0  0  0  0  0  0  0
   -0.0020    4.4892    6.2231 H   0  0  0  1  0  0  0  0  0  0  0  0
   -1.3306    3.3556    6.2704 H   0  0  0  1  0  0  0  0  0  0  0  0
   -1.4741    4.8323    5.3468 H   0  0  0  1  0  0  0  0  0  0  0  0
   -5.4081    6.7637    0.9230 N   0  3  0  1  0  0  0  0  0  0  0  0
   -5.3807    7.4195   -0.0696 O   0  0  0  1  0  0  0  0  0  0  0  0
   -6.3536    6.8764    1.8659 O   0  5  0  1  0  0  0  0  0  0  0  0
   -4.4249    5.7387    1.0703 C   0  0  0  1  0  0  0  0  0  0  0  0
   -3.6148    5.4773   -0.0186 C   0  0  0  1  0  0  0  0  0  0  0  0
   -2.6376    4.4975    0.0637 C   0  0  0  1  0  0  0  0  0  0  0  0
   -2.4772    3.7783    1.2331 C   0  0  0  1  0  0  0  0  0  0  0  0
   -3.2897    4.0404    2.3252 C   0  0  0  1  0  0  0  0  0  0  0  0
   -4.2638    5.0173    2.2429 C   0  0  0  1  0  0  0  0  0  0  0  0
   -1.4166    2.7065    1.3217 C   0  0  0  1  0  0  0  0  0  0  0  0
   -3.7382    6.0157   -0.8997 H   0  0  0  1  0  0  0  0  0  0  0  0
   -2.0254    4.3035   -0.7543 H   0  0  0  1  0  0  0  0  0  0  0  0
   -3.1662    3.5019    3.2063 H   0  0  0  1  0  0  0  0  0  0  0  0
   -4.8761    5.2112    3.0609 H   0  0  0  1  0  0  0  0  0  0  0  0
   -1.7940    1.8860    1.8955 H   0  0  0  1  0  0  0  0  0  0  0  0
   -1.1740    2.3706    0.3351 H   0  0  0  1  0  0  0  0  0  0  0  0
  1  4  1  0  0  0  0
  2  4  1  0  0  0  0
  2  5  2  0  0  0  0
  2  6  1  0  0  0  0
  3  4  1  0  0  0  0
  3  7  1  0  0  0  0
  3  8  1  0  0  0  0
  4 28  1  0  0  0  0
  6  9  1  0  0  0  0
  6 12  1  0  0  0  0
  8 10  1  0  0  0  0
  8 11  2  0  0  0  0
  9 13  1  0  0  0  0
  9 14  1  0  0  0  0
  9 15  1  0  0  0  0
 10 16  1  0  0  0  0
 10 17  1  0  0  0  0
 10 18  1  0  0  0  0
 19 20  2  0  0  0  0
 19 21  1  0  0  0  0
 19 22  1  0  0  0  0
 22 23  4  0  0  0  0
 22 27  4  0  0  0  0
 23 24  4  0  0  0  0
 23 29  1  0  0  0  0
 24 25  4  0  0  0  0
 24 30  1  0  0  0  0
 25 26  4  0  0  0  0
 25 28  1  0  0  0  0
 26 27  4  0  0  0  0
 26 31  1  0  0  0  0
 27 32  1  0  0  0  0
 28 33  1  0  0  0  0
 28 34  1  0  0  0  0
M  END
> <BCLConfClusterSize>
1

> <ConfClashScore>
0 

> <ConfOneFourInteractionScore>
-0.936632 

> <ConfScore>
0.132903 

> <ConfScorePBest>
0.00310603 

> <ConfTolerance>
0.477376 

> <RosettaParamsInstructions>
M  ROOT 3
M  POLY_N_BB 3
M  POLY_CA_BB 4
M  POLY_C_BB 2
M  POLY_O_BB 5
M  POLY_IGNORE 9 10 11 12 13 14 15 16 17 18 
M  POLY_UPPER 6
M  POLY_LOWER 8
M  POLY_CHG 0
M  POLY_PROPERTIES ALPHA_AA L_AA PROTEIN AROMATIC POLYMER 
M  END

$$$$



 34 34  0  0  0  0  0  0  0  0999 V2000
   -2.0099    1.7136    3.0757 H   0  0  0  1  0  0  0  0  0  0  0  0
    0.0312    1.2660    2.7440 C   0  0  0  1  0  0  0  0  0  0  0  0
   -0.9344    3.3949    3.6078 N   0  0  0  1  0  0  0  0  0  0  0  0
   -1.1411    2.2425    2.7435 C   0  0  0  1  0  0  0  0  0  0  0  0
    0.1847    0.4521    1.8343 O   0  0  0  1  0  0  0  0  0  0  0  0
    0.8711    1.3592    3.7958 N   0  0  0  1  0  0  0  0  0  0  0  0
   -1.6010    3.5941    4.2980 H   0  0  0  1  0  0  0  0  0  0  0  0
    0.1432    4.1985    3.4921 C   0  0  0  1  0  0  0  0  0  0  0  0
    1.9457    0.3917    3.9608 C   0  0  0  1  0  0  0  0  0  0  0  0
    0.3306    5.2927    4.5250 C   0  0  0  1  0  0  0  0  0  0  0  0
    0.9513    4.0500    2.5765 O   0  0  0  1  0  0  0  0  0  0  0  0
    0.7574    2.0799    4.4500 H   0  0  0  1  0  0  0  0  0  0  0  0
    2.3233    0.1100    3.0000 H   0  0  0  1  0  0  0  0  0  0  0  0
    1.5710   -0.4747    4.4645 H   0  0  0  1  0  0  0  0  0  0  0  0
    2.7329    0.8285    4.5390 H   0  0  0  1  0  0  0  0  0  0  0  0
    0.3507    4.8604    5.5036 H   0  0  0  1  0  0  0  0  0  0  0  0
   -0.4802    5.9878    4.4589 H   0  0  0  1  0  0  0  0  0  0  0  0
    1.2535    5.8019    4.3412 H   0  0  0  1  0  0  0  0  0  0  0  0
   -5.4515    6.7402    0.9855 N   0  3  0  1  0  0  0  0  0  0  0  0
   -6.1768    6.8878    1.9173 O   0  0  0  1  0  0  0  0  0  0  0  0
   -5.5342    7.4685   -0.1363 O   0  5  0  1  0  0  0  0  0  0  0  0
   -4.4325    5.7262    1.0689 C   0  0  0  1  0  0  0  0  0  0  0  0
   -3.6448    5.4483   -0.0323 C   0  0  0  1  0  0  0  0  0  0  0  0
   -2.6598    4.4762    0.0475 C   0  0  0  1  0  0  0  0  0  0  0  0
   -2.4690    3.7811    1.2268 C   0  0  0  1  0  0  0  0  0  0  0  0
   -3.2589    4.0597    2.3313 C   0  0  0  1  0  0  0  0  0  0  0  0
   -4.2410    5.0289    2.2515 C   0  0  0  1  0  0  0  0  0  0  0  0
   -1.3998    2.7177    1.3128 C   0  0  0  1  0  0  0  0  0  0  0  0
   -3.7911    5.9685   -0.9209 H   0  0  0  1  0  0  0  0  0  0  0  0
   -2.0644    4.2699   -0.7799 H   0  0  0  1  0  0  0  0  0  0  0  0
   -3.1126    3.5395    3.2198 H   0  0  0  1  0  0  0  0  0  0  0  0
   -4.8363    5.2352    3.0789 H   0  0  0  1  0  0  0  0  0  0  0  0
   -1.7068    1.8778    0.7252 H   0  0  0  1  0  0  0  0  0  0  0  0
   -0.4896    3.1171    0.9168 H   0  0  0  1  0  0  0  0  0  0  0  0
  1  4  1  0  0  0  0
  2  4  1  0  0  0  0
  2  5  2  0  0  0  0
  2  6  1  0  0  0  0
  3  4  1  0  0  0  0
  3  7  1  0  0  0  0
  3  8  1  0  0  0  0
  4 28  1  0  0  0  0
  6  9  1  0  0  0  0
  6 12  1  0  0  0  0
  8 10  1  0  0  0  0
  8 11  2  0  0  0  0
  9 13  1  0  0  0  0
  9 14  1  0  0  0  0
  9 15  1  0  0  0  0
 10 16  1  0  0  0  0
 10 17  1  0  0  0  0
 10 18  1  0  0  0  0
 19 20  2  0  0  0  0
 19 21  1  0  0  0  0
 19 22  1  0  0  0  0
 22 23  4  0  0  0  0
 22 27  4  0  0  0  0
 23 24  4  0  0  0  0
 23 29  1  0  0  0  0
 24 25  4  0  0  0  0
 24 30  1  0  0  0  0
 25 26  4  0  0  0  0
 25 28  1  0  0  0  0
 26 27  4  0  0  0  0
 26 31  1  0  0  0  0
 27 32  1  0  0  0  0
 28 33  1  0  0  0  0
 28 34  1  0  0  0  0
M  END
> <BCLConfClusterSize>
1

> <ConfClashScore>
0 

> <ConfOneFourInteractionScore>
-0.931255 

> <ConfScore>
0.135824 

> <ConfScorePBest>
0.00307755 

> <ConfTolerance>
0.409501 

> <RosettaParamsInstructions>
M  ROOT 3
M  POLY_N_BB 3
M  POLY_CA_BB 4
M  POLY_C_BB 2
M  POLY_O_BB 5
M  POLY_IGNORE 9 10 11 12 13 14 15 16 17 18 
M  POLY_UPPER 6
M  POLY_LOWER 8
M  POLY_CHG 0
M  POLY_PROPERTIES ALPHA_AA L_AA PROTEIN AROMATIC POLYMER 
M  END

$$$$



 34 34  0  0  0  0  0  0  0  0999 V2000
   -2.8257    1.1928    1.1735 H   0  0  0  1  0  0  0  0  0  0  0  0
   -1.6590    1.0783   -0.5824 C   0  0  0  1  0  0  0  0  0  0  0  0
   -1.0216    0.3043    1.6295 N   0  0  0  1  0  0  0  0  0  0  0  0
   -1.7936    1.3152    0.9189 C   0  0  0  1  0  0  0  0  0  0  0  0
   -0.5573    1.0599   -1.1296 O   0  0  0  1  0  0  0  0  0  0  0  0
   -2.8096    0.8949   -1.2493 N   0  0  0  1  0  0  0  0  0  0  0  0
   -0.0433    0.3358    1.5812 H   0  0  0  1  0  0  0  0  0  0  0  0
   -1.6067   -0.6736    2.3518 C   0  0  0  1  0  0  0  0  0  0  0  0
   -2.9114    0.6161   -2.6740 C   0  0  0  1  0  0  0  0  0  0  0  0
   -0.7100   -1.6524    3.0846 C   0  0  0  1  0  0  0  0  0  0  0  0
   -2.8315   -0.7705    2.4155 O   0  0  0  1  0  0  0  0  0  0  0  0
   -3.6437    0.9532   -0.7383 H   0  0  0  1  0  0  0  0  0  0  0  0
   -2.2907   -0.2202   -2.9195 H   0  0  0  1  0  0  0  0  0  0  0  0
   -2.5907    1.4730   -3.2287 H   0  0  0  1  0  0  0  0  0  0  0  0
   -3.9277    0.3904   -2.9213 H   0  0  0  1  0  0  0  0  0  0  0  0
    0.3146   -1.4021    2.9043 H   0  0  0  1  0  0  0  0  0  0  0  0
   -0.9019   -2.6443    2.7321 H   0  0  0  1  0  0  0  0  0  0  0  0
   -0.9099   -1.6016    4.1345 H   0  0  0  1  0  0  0  0  0  0  0  0
   -5.4449    6.7428    0.9834 N   0  3  0  1  0  0  0  0  0  0  0  0
   -6.1080    7.0388    1.9261 O   0  0  0  1  0  0  0  0  0  0  0  0
   -5.5018    7.2552   -0.2534 O   0  5  0  1  0  0  0  0  0  0  0  0
   -4.4475    5.7283    1.1055 C   0  0  0  1  0  0  0  0  0  0  0  0
   -3.6599    5.4780   -0.0024 C   0  0  0  1  0  0  0  0  0  0  0  0
   -2.6706    4.5087    0.0551 C   0  0  0  1  0  0  0  0  0  0  0  0
   -2.4753    3.7889    1.2187 C   0  0  0  1  0  0  0  0  0  0  0  0
   -3.2651    4.0398    2.3299 C   0  0  0  1  0  0  0  0  0  0  0  0
   -4.2514    5.0062    2.2725 C   0  0  0  1  0  0  0  0  0  0  0  0
   -1.4014    2.7285    1.2803 C   0  0  0  1  0  0  0  0  0  0  0  0
   -3.8096    6.0168   -0.8792 H   0  0  0  1  0  0  0  0  0  0  0  0
   -2.0753    4.3231   -0.7773 H   0  0  0  1  0  0  0  0  0  0  0  0
   -3.1155    3.5009    3.2067 H   0  0  0  1  0  0  0  0  0  0  0  0
   -4.8467    5.1918    3.1048 H   0  0  0  1  0  0  0  0  0  0  0  0
   -0.6202    3.0248    0.6119 H   0  0  0  1  0  0  0  0  0  0  0  0
   -1.0264    2.7104    2.2823 H   0  0  0  1  0  0  0  0  0  0  0  0
  1  4  1  0  0  0  0
  2  4  1  0  0  0  0
  2  5  2  0  0  0  0
  2  6  1  0  0  0  0
  3  4  1  0  0  0  0
  3  7  1  0  0  0  0
  3  8  1  0  0  0  0
  4 28  1  0  0  0  0
  6  9  1  0  0  0  0
  6 12  1  0  0  0  0
  8 10  1  0  0  0  0
  8 11  2  0  0  0  0
  9 13  1  0  0  0  0
  9 14  1  0  0  0  0
  9 15  1  0  0  0  0
 10 16  1  0  0  0  0
 10 17  1  0  0  0  0
 10 18  1  0  0  0  0
 19 20  2  0  0  0  0
 19 21  1  0  0  0  0
 19 22  1  0  0  0  0
 22 23  4  0  0  0  0
 22 27  4  0  0  0  0
 23 24  4  0  0  0  0
 23 29  1  0  0  0  0
 24 25  4  0  0  0  0
 24 30  1  0  0  0  0
 25 26  4  0  0  0  0
 25 28  1  0  0  0  0
 26 27  4  0  0  0  0
 26 31  1  0  0  0  0
 27 32  1  0  0  0  0
 28 33  1  0  0  0  0
 28 34  1  0  0  0  0
M  END
> <BCLConfClusterSize>
1

> <ConfClashScore>
0 

> <ConfOneFourInteractionScore>
-0.970447 

> <ConfScore>
0.13602 

> <ConfScorePBest>
0.00304907 

> <ConfTolerance>
0.677692 

> <RosettaParamsInstructions>
M  ROOT 3
M  POLY_N_BB 3
M  POLY_CA_BB 4
M  POLY_C_BB 2
M  POLY_O_BB 5
M  POLY_IGNORE 9 10 11 12 13 14 15 16 17 18 
M  POLY_UPPER 6
M  POLY_LOWER 8
M  POLY_CHG 0
M  POLY_PROPERTIES ALPHA_AA L_AA PROTEIN AROMATIC POLYMER 
M  END

$$$$



 34 34  0  0  0  0  0  0  0  0999 V2000
   -0.0034    3.7148    0.0308 H   0  0  0  1  0  0  0  0  0  0  0  0
    0.3305    4.5992    1.9183 C   0  0  0  1  0  0  0  0  0  0  0  0
    1.0825    2.3968    1.1964 N   0  0  0  1  0  0  0  0  0  0  0  0
    0.0311    3.3923    1.0505 C   0  0  0  1  0  0  0  0  0  0  0  0
    0.7046    4.4708    3.0833 O   0  0  0  1  0  0  0  0  0  0  0  0
    0.1604    5.7951    1.3327 N   0  0  0  1  0  0  0  0  0  0  0  0
    1.5436    2.3187    2.0576 H   0  0  0  1  0  0  0  0  0  0  0  0
    1.4409    1.5856    0.1971 C   0  0  0  1  0  0  0  0  0  0  0  0
    0.3829    7.0791    1.9806 C   0  0  0  1  0  0  0  0  0  0  0  0
    2.6565    0.6826    0.4421 C   0  0  0  1  0  0  0  0  0  0  0  0
    0.8080    1.4847   -0.8409 O   0  0  0  1  0  0  0  0  0  0  0  0
   -0.1360    5.8043    0.3987 H   0  0  0  1  0  0  0  0  0  0  0  0
    0.7266    6.9195    2.9812 H   0  0  0  1  0  0  0  0  0  0  0  0
   -0.5335    7.6310    2.0023 H   0  0  0  1  0  0  0  0  0  0  0  0
    1.1193    7.6310    1.4345 H   0  0  0  1  0  0  0  0  0  0  0  0
    3.5167    1.2874    0.6399 H   0  0  0  1  0  0  0  0  0  0  0  0
    2.8349    0.0821   -0.4254 H   0  0  0  1  0  0  0  0  0  0  0  0
    2.4657    0.0484    1.2825 H   0  0  0  1  0  0  0  0  0  0  0  0
   -5.4208    6.7650    0.9560 N   0  3  0  1  0  0  0  0  0  0  0  0
   -5.7078    7.2042   -0.1121 O   0  0  0  1  0  0  0  0  0  0  0  0
   -5.9442    7.2162    2.1041 O   0  5  0  1  0  0  0  0  0  0  0  0
   -4.4612    5.6930    1.0167 C   0  0  0  1  0  0  0  0  0  0  0  0
   -3.6693    5.3983   -0.0770 C   0  0  0  1  0  0  0  0  0  0  0  0
   -2.6709    4.4422    0.0275 C   0  0  0  1  0  0  0  0  0  0  0  0
   -2.4710    3.7800    1.2240 C   0  0  0  1  0  0  0  0  0  0  0  0
   -3.2652    4.0755    2.3210 C   0  0  0  1  0  0  0  0  0  0  0  0
   -4.2605    5.0287    2.2167 C   0  0  0  1  0  0  0  0  0  0  0  0
   -1.3362    2.7999    1.4057 C   0  0  0  1  0  0  0  0  0  0  0  0
   -3.8224    5.8937   -0.9785 H   0  0  0  1  0  0  0  0  0  0  0  0
   -2.0724    4.2233   -0.7944 H   0  0  0  1  0  0  0  0  0  0  0  0
   -3.1120    3.5801    3.2225 H   0  0  0  1  0  0  0  0  0  0  0  0
   -4.8590    5.2476    3.0386 H   0  0  0  1  0  0  0  0  0  0  0  0
   -1.3165    2.4874    2.4289 H   0  0  0  1  0  0  0  0  0  0  0  0
   -1.5140    1.9526    0.7769 H   0  0  0  1  0  0  0  0  0  0  0  0
  1  4  1  0  0  0  0
  2  4  1  0  0  0  0
  2  5  2  0  0  0  0
  2  6  1  0  0  0  0
  3  4  1  0  0  0  0
  3  7  1  0  0  0  0
  3  8  1  0  0  0  0
  4 28  1  0  0  0  0
  6  9  1  0  0  0  0
  6 12  1  0  0  0  0
  8 10  1  0  0  0  0
  8 11  2  0  0  0  0
  9 13  1  0  0  0  0
  9 14  1  0  0  0  0
  9 15  1  0  0  0  0
 10 16  1  0  0  0  0
 10 17  1  0  0  0  0
 10 18  1  0  0  0  0
 19 20  2  0  0  0  0
 19 21  1  0  0  0  0
 19 22  1  0  0  0  0
 22 23  4  0  0  0  0
 22 27  4  0  0  0  0
 23 24  4  0  0  0  0
 23 29  1  0  0  0  0
 24 25  4  0  0  0  0
 24 30  1  0  0  0  0
 25 26  4  0  0  0  0
 25 28  1  0  0  0  0
 26 27  4  0  0  0  0
 26 31  1  0  0  0  0
 27 32  1  0  0  0  0
 28 33  1  0  0  0  0
 28 34  1  0  0  0  0
M  END
> <BCLConfClusterSize>
1

> <ConfClashScore>
0 

> <ConfOneFourInteractionScore>
-0.990503 

> <ConfScore>
0.138549 

> <ConfScorePBest>
0.00302059 

> <ConfTolerance>
0.833317 

> <RosettaParamsInstructions>
M  ROOT 3
M  POLY_N_BB 3
M  POLY_CA_BB 4
M  POLY_C_BB 2
M  POLY_O_BB 5
M  POLY_IGNORE 9 10 11 12 13 14 15 16 17 18 
M  POLY_UPPER 6
M  POLY_LOWER 8
M  POLY_CHG 0
M  POLY_PROPERTIES ALPHA_AA L_AA PROTEIN AROMATIC POLYMER 
M  END

$$$$



 34 34  0  0  0  0  0  0  0  0999 V2000
    0.1576    3.7508    2.3651 H   0  0  0  1  0  0  0  0  0  0  0  0
    1.0949    2.3408    1.0780 C   0  0  0  1  0  0  0  0  0  0  0  0
    0.1743    4.5235    0.4377 N   0  0  0  1  0  0  0  0  0  0  0  0
    0.0384    3.4055    1.3594 C   0  0  0  1  0  0  0  0  0  0  0  0
    1.4479    2.0797   -0.0713 O   0  0  0  1  0  0  0  0  0  0  0  0
    1.5984    1.7249    2.1514 N   0  0  0  1  0  0  0  0  0  0  0  0
    0.5140    4.3532   -0.4656 H   0  0  0  1  0  0  0  0  0  0  0  0
   -0.1485    5.7756    0.7807 C   0  0  0  1  0  0  0  0  0  0  0  0
    2.3871    0.5061    2.0496 C   0  0  0  1  0  0  0  0  0  0  0  0
    0.1297    6.8376   -0.2653 C   0  0  0  1  0  0  0  0  0  0  0  0
   -0.6404    6.0661    1.8703 O   0  0  0  1  0  0  0  0  0  0  0  0
    1.4308    2.1071    3.0380 H   0  0  0  1  0  0  0  0  0  0  0  0
    2.3365   -0.0303    2.9740 H   0  0  0  1  0  0  0  0  0  0  0  0
    3.4056    0.7572    1.8386 H   0  0  0  1  0  0  0  0  0  0  0  0
    1.9992   -0.1047    1.2614 H   0  0  0  1  0  0  0  0  0  0  0  0
    1.1659    6.8142   -0.5313 H   0  0  0  1  0  0  0  0  0  0  0  0
   -0.1149    7.8009    0.1310 H   0  0  0  1  0  0  0  0  0  0  0  0
   -0.4656    6.6471   -1.1338 H   0  0  0  1  0  0  0  0  0  0  0  0
   -5.5245    6.6715    1.0173 N   0  3  0  1  0  0  0  0  0  0  0  0
   -6.6964    6.6666    1.2239 O   0  0  0  1  0  0  0  0  0  0  0  0
   -4.8670    7.7799    0.6500 O   0  5  0  1  0  0  0  0  0  0  0  0
   -4.4696    5.6920    1.0549 C   0  0  0  1  0  0  0  0  0  0  0  0
   -3.7300    5.3613   -0.0648 C   0  0  0  1  0  0  0  0  0  0  0  0
   -2.7210    4.4150    0.0255 C   0  0  0  1  0  0  0  0  0  0  0  0
   -2.4583    3.7984    1.2343 C   0  0  0  1  0  0  0  0  0  0  0  0
   -3.2000    4.1301    2.3574 C   0  0  0  1  0  0  0  0  0  0  0  0
   -4.2059    5.0735    2.2671 C   0  0  0  1  0  0  0  0  0  0  0  0
   -1.3431    2.7797    1.2201 C   0  0  0  1  0  0  0  0  0  0  0  0
   -3.9304    5.8223   -0.9752 H   0  0  0  1  0  0  0  0  0  0  0  0
   -2.1618    4.1690   -0.8162 H   0  0  0  1  0  0  0  0  0  0  0  0
   -2.9996    3.6690    3.2678 H   0  0  0  1  0  0  0  0  0  0  0  0
   -4.7651    5.3194    3.1088 H   0  0  0  1  0  0  0  0  0  0  0  0
   -1.4926    2.0998    2.0327 H   0  0  0  1  0  0  0  0  0  0  0  0
   -1.3828    2.2443    0.2945 H   0  0  0  1  0  0  0  0  0  0  0  0
  1  4  1  0  0  0  0
  2  4  1  0  0  0  0
  2  5  2  0  0  0  0
  2  6  1  0  0  0  0
  3  4  1  0  0  0  0
  3  7  1  0  0  0  0
  3  8  1  0  0  0  0
  4 28  1  0  0  0  0
  6  9  1  0  0  0  0
  6 12  1  0  0  0  0
  8 10  1  0  0  0  0
  8 11  2  0  0  0  0
  9 13  1  0  0  0  0
  9 14  1  0  0  0  0
  9 15  1  0  0  0  0
 10 16  1  0  0  0  0
 10 17  1  0  0  0  0
 10 18  1  0  0  0  0
 19 20  2  0  0  0  0
 19 21  1  0  0  0  0
 19 22  1  0  0  0  0
 22 23  4  0  0  0  0
 22 27  4  0  0  0  0
 23 24  4  0  0  0  0
 23 29  1  0  0  0  0
 24 25  4  0  0  0  0
 24 30  1  0  0  0  0
 25 26  4  0  0  0  0
 25 28  1  0  0  0  0
 26 27  4  0  0  0  0
 26 31  1  0  0  0  0
 27 32  1  0  0  0  0
 28 33  1  0  0  0  0
 28 34  1  0  0  0  0
M  END
> <BCLConfClusterSize>
1

> <ConfClashScore>
0 

> <ConfOneFourInteractionScore>
-0.976985 

> <ConfScore>
0.146331 

> <ConfScorePBest>
0.00299211 

> <ConfTolerance>
0.849434 

> <RosettaParamsInstructions>
M  ROOT 3
M  POLY_N_BB 3
M  POLY_CA_BB 4
M  POLY_C_BB 2
M  POLY_O_BB 5
M  POLY_IGNORE 9 10 11 12 13 14 15 16 17 18 
M  POLY_UPPER 6
M  POLY_LOWER 8
M  POLY_CHG 0
M  POLY_PROPERTIES ALPHA_AA L_AA PROTEIN AROMATIC POLYMER 
M  END

$$$$



 34 34  0  0  0  0  0  0  0  0999 V2000
   -2.3767    0.9708    0.8577 H   0  0  0  1  0  0  0  0  0  0  0  0
   -1.8766    1.9150   -0.9537 C   0  0  0  1  0  0  0  0  0  0  0  0
   -0.3621    0.6770    0.5636 N   0  0  0  1  0  0  0  0  0  0  0  0
   -1.5432    1.5227    0.4760 C   0  0  0  1  0  0  0  0  0  0  0  0
   -1.1068    2.5495   -1.6516 O   0  0  0  1  0  0  0  0  0  0  0  0
   -3.0554    1.5533   -1.4682 N   0  0  0  1  0  0  0  0  0  0  0  0
    0.2844    0.8403    1.2817 H   0  0  0  1  0  0  0  0  0  0  0  0
   -0.1265   -0.3227   -0.3084 C   0  0  0  1  0  0  0  0  0  0  0  0
   -3.4756    1.9508   -2.8036 C   0  0  0  1  0  0  0  0  0  0  0  0
    0.9837   -1.2602    0.1248 C   0  0  0  1  0  0  0  0  0  0  0  0
   -0.7301   -0.4872   -1.3558 O   0  0  0  1  0  0  0  0  0  0  0  0
   -3.6580    1.0010   -0.9275 H   0  0  0  1  0  0  0  0  0  0  0  0
   -3.5922    3.0138   -2.8397 H   0  0  0  1  0  0  0  0  0  0  0  0
   -4.4083    1.4818   -3.0381 H   0  0  0  1  0  0  0  0  0  0  0  0
   -2.7353    1.6491   -3.5148 H   0  0  0  1  0  0  0  0  0  0  0  0
    1.7527   -0.7007    0.6153 H   0  0  0  1  0  0  0  0  0  0  0  0
    1.3922   -1.7500   -0.7344 H   0  0  0  1  0  0  0  0  0  0  0  0
    0.5897   -1.9916    0.7992 H   0  0  0  1  0  0  0  0  0  0  0  0
   -5.4217    6.7608    0.9526 N   0  3  0  1  0  0  0  0  0  0  0  0
   -5.5960    7.3203   -0.0831 O   0  0  0  1  0  0  0  0  0  0  0  0
   -6.1013    7.1006    2.0563 O   0  5  0  1  0  0  0  0  0  0  0  0
   -4.4569    5.6938    1.0178 C   0  0  0  1  0  0  0  0  0  0  0  0
   -3.6473    5.4134   -0.0668 C   0  0  0  1  0  0  0  0  0  0  0  0
   -2.6450    4.4622    0.0439 C   0  0  0  1  0  0  0  0  0  0  0  0
   -2.4590    3.7902    1.2373 C   0  0  0  1  0  0  0  0  0  0  0  0
   -3.2710    4.0712    2.3250 C   0  0  0  1  0  0  0  0  0  0  0  0
   -4.2702    5.0197    2.2145 C   0  0  0  1  0  0  0  0  0  0  0  0
   -1.3710    2.7493    1.3569 C   0  0  0  1  0  0  0  0  0  0  0  0
   -3.7899    5.9163   -0.9659 H   0  0  0  1  0  0  0  0  0  0  0  0
   -2.0332    4.2541   -0.7710 H   0  0  0  1  0  0  0  0  0  0  0  0
   -3.1283    3.5684    3.2241 H   0  0  0  1  0  0  0  0  0  0  0  0
   -4.8820    5.2277    3.0294 H   0  0  0  1  0  0  0  0  0  0  0  0
   -0.4414    3.2125    1.0996 H   0  0  0  1  0  0  0  0  0  0  0  0
   -1.3374    2.4224    2.3751 H   0  0  0  1  0  0  0  0  0  0  0  0
  1  4  1  0  0  0  0
  2  4  1  0  0  0  0
  2  5  2  0  0  0  0
  2  6  1  0  0  0  0
  3  4  1  0  0  0  0
  3  7  1  0  0  0  0
  3  8  1  0  0  0  0
  4 28  1  0  0  0  0
  6  9  1  0  0  0  0
  6 12  1  0  0  0  0
  8 10  1  0  0  0  0
  8 11  2  0  0  0  0
  9 13  1  0  0  0  0
  9 14  1  0  0  0  0
  9 15  1  0  0  0  0
 10 16  1  0  0  0  0
 10 17  1  0  0  0  0
 10 18  1  0  0  0  0
 19 20  2  0  0  0  0
 19 21  1  0  0  0  0
 19 22  1  0  0  0  0
 22 23  4  0  0  0  0
 22 27  4  0  0  0  0
 23 24  4  0  0  0  0
 23 29  1  0  0  0  0
 24 25  4  0  0  0  0
 24 30  1  0  0  0  0
 25 26  4  0  0  0  0
 25 28  1  0  0  0  0
 26 27  4  0  0  0  0
 26 31  1  0  0  0  0
 27 32  1  0  0  0  0
 28 33  1  0  0  0  0
 28 34  1  0  0  0  0
M  END
> <BCLConfClusterSize>
1

> <ConfClashScore>
0 

> <ConfOneFourInteractionScore>
-0.981931 

> <ConfScore>
0.149749 

> <ConfScorePBest>
0.00296363 

> <ConfTolerance>
0.703646 

> <RosettaParamsInstructions>
M  ROOT 3
M  POLY_N_BB 3
M  POLY_CA_BB 4
M  POLY_C_BB 2
M  POLY_O_BB 5
M  POLY_IGNORE 9 10 11 12 13 14 15 16 17 18 
M  POLY_UPPER 6
M  POLY_LOWER 8
M  POLY_CHG 0
M  POLY_PROPERTIES ALPHA_AA L_AA PROTEIN AROMATIC POLYMER 
M  END

$$$$



 34 34  0  0  0  0  0  0  0  0999 V2000
   -2.3198    1.2372    0.2363 H   0  0  0  1  0  0  0  0  0  0  0  0
   -0.5430    0.4648    1.1402 C   0  0  0  1  0  0  0  0  0  0  0  0
   -2.6849    0.9050    2.2622 N   0  0  0  1  0  0  0  0  0  0  0  0
   -1.8115    1.3194    1.1743 C   0  0  0  1  0  0  0  0  0  0  0  0
    0.0484    0.0857    2.1334 O   0  0  0  1  0  0  0  0  0  0  0  0
   -0.0916    0.1377   -0.0740 N   0  0  0  1  0  0  0  0  0  0  0  0
   -2.4351    1.1327    3.1821 H   0  0  0  1  0  0  0  0  0  0  0  0
   -3.8153    0.2250    2.0505 C   0  0  0  1  0  0  0  0  0  0  0  0
   -0.8180    0.4728   -1.2897 C   0  0  0  1  0  0  0  0  0  0  0  0
   -4.5383   -0.2546    3.2940 C   0  0  0  1  0  0  0  0  0  0  0  0
   -4.2568   -0.0069    0.9258 O   0  0  0  1  0  0  0  0  0  0  0  0
    0.7582   -0.3447   -0.1486 H   0  0  0  1  0  0  0  0  0  0  0  0
   -0.8088    1.5334   -1.4304 H   0  0  0  1  0  0  0  0  0  0  0  0
   -1.8291    0.1330   -1.2059 H   0  0  0  1  0  0  0  0  0  0  0  0
   -0.3500   -0.0018   -2.1268 H   0  0  0  1  0  0  0  0  0  0  0  0
   -4.5242    0.5170    4.0352 H   0  0  0  1  0  0  0  0  0  0  0  0
   -4.0491   -1.1257    3.6771 H   0  0  0  1  0  0  0  0  0  0  0  0
   -5.5517   -0.4934    3.0473 H   0  0  0  1  0  0  0  0  0  0  0  0
   -5.4241    6.7633    0.9970 N   0  3  0  1  0  0  0  0  0  0  0  0
   -5.9982    7.0571    1.9971 O   0  0  0  1  0  0  0  0  0  0  0  0
   -5.6120    7.3896   -0.1726 O   0  5  0  1  0  0  0  0  0  0  0  0
   -4.4787    5.6783    1.0475 C   0  0  0  1  0  0  0  0  0  0  0  0
   -3.6652    5.4341   -0.0429 C   0  0  0  1  0  0  0  0  0  0  0  0
   -2.6499    4.4945    0.0462 C   0  0  0  1  0  0  0  0  0  0  0  0
   -2.4546    3.7981    1.2240 C   0  0  0  1  0  0  0  0  0  0  0  0
   -3.2703    4.0429    2.3177 C   0  0  0  1  0  0  0  0  0  0  0  0
   -4.2825    4.9797    2.2286 C   0  0  0  1  0  0  0  0  0  0  0  0
   -1.3692    2.7591    1.3789 C   0  0  0  1  0  0  0  0  0  0  0  0
   -3.8149    5.9552   -0.9304 H   0  0  0  1  0  0  0  0  0  0  0  0
   -2.0353    4.3136   -0.7730 H   0  0  0  1  0  0  0  0  0  0  0  0
   -3.1207    3.5217    3.2051 H   0  0  0  1  0  0  0  0  0  0  0  0
   -4.8971    5.1606    3.0478 H   0  0  0  1  0  0  0  0  0  0  0  0
   -0.6025    2.9736    0.6641 H   0  0  0  1  0  0  0  0  0  0  0  0
   -0.9695    2.8442    2.3678 H   0  0  0  1  0  0  0  0  0  0  0  0
  1  4  1  0  0  0  0
  2  4  1  0  0  0  0
  2  5  2  0  0  0  0
  2  6  1  0  0  0  0
  3  4  1  0  0  0  0
  3  7  1  0  0  0  0
  3  8  1  0  0  0  0
  4 28  1  0  0  0  0
  6  9  1  0  0  0  0
  6 12  1  0  0  0  0
  8 10  1  0  0  0  0
  8 11  2  0  0  0  0
  9 13  1  0  0  0  0
  9 14  1  0  0  0  0
  9 15  1  0  0  0  0
 10 16  1  0  0  0  0
 10 17  1  0  0  0  0
 10 18  1  0  0  0  0
 19 20  2  0  0  0  0
 19 21  1  0  0  0  0
 19 22  1  0  0  0  0
 22 23  4  0  0  0  0
 22 27  4  0  0  0  0
 23 24  4  0  0  0  0
 23 29  1  0  0  0  0
 24 25  4  0  0  0  0
 24 30  1  0  0  0  0
 25 26  4  0  0  0  0
 25 28  1  0  0  0  0
 26 27  4  0  0  0  0
 26 31  1  0  0  0  0
 27 32  1  0  0  0  0
 28 33  1  0  0  0  0
 28 34  1  0  0  0  0
M  END
> <BCLConfClusterSize>
1

> <ConfClashScore>
0 

> <ConfOneFourInteractionScore>
-0.981931 

> <ConfScore>
0.157871 

> <ConfScorePBest>
0.00293515 

> <ConfTolerance>
0.755183 

> <RosettaParamsInstructions>
M  ROOT 3
M  POLY_N_BB 3
M  POLY_CA_BB 4
M  POLY_C_BB 2
M  POLY_O_BB 5
M  POLY_IGNORE 9 10 11 12 13 14 15 16 17 18 
M  POLY_UPPER 6
M  POLY_LOWER 8
M  POLY_CHG 0
M  POLY_PROPERTIES ALPHA_AA L_AA PROTEIN AROMATIC POLYMER 
M  END

$$$$



 34 34  0  0  0  0  0  0  0  0999 V2000
   -0.2890    3.3937    2.9470 H   0  0  0  1  0  0  0  0  0  0  0  0
    0.9469    2.0361    1.8858 C   0  0  0  1  0  0  0  0  0  0  0  0
    0.3760    4.3415    1.2334 N   0  0  0  1  0  0  0  0  0  0  0  0
   -0.0989    3.1509    1.9224 C   0  0  0  1  0  0  0  0  0  0  0  0
    0.6243    0.8731    1.6582 O   0  0  0  1  0  0  0  0  0  0  0  0
    2.1958    2.4173    2.1972 N   0  0  0  1  0  0  0  0  0  0  0  0
    0.6785    5.1068    1.7655 H   0  0  0  1  0  0  0  0  0  0  0  0
    0.4144    4.4283   -0.1124 C   0  0  0  1  0  0  0  0  0  0  0  0
    3.3318    1.5179    2.3337 C   0  0  0  1  0  0  0  0  0  0  0  0
    0.9390    5.7060   -0.7276 C   0  0  0  1  0  0  0  0  0  0  0  0
    0.0350    3.4984   -0.8193 O   0  0  0  1  0  0  0  0  0  0  0  0
    2.3546    3.3732    2.3437 H   0  0  0  1  0  0  0  0  0  0  0  0
    3.8025    1.6783    3.2811 H   0  0  0  1  0  0  0  0  0  0  0  0
    4.0343    1.7095    1.5497 H   0  0  0  1  0  0  0  0  0  0  0  0
    2.9937    0.5047    2.2707 H   0  0  0  1  0  0  0  0  0  0  0  0
    0.1368    6.4057   -0.8363 H   0  0  0  1  0  0  0  0  0  0  0  0
    1.3586    5.4928   -1.6885 H   0  0  0  1  0  0  0  0  0  0  0  0
    1.6928    6.1236   -0.0934 H   0  0  0  1  0  0  0  0  0  0  0  0
   -5.4281    6.7590    0.9669 N   0  3  0  1  0  0  0  0  0  0  0  0
   -5.9083    7.1239    1.9927 O   0  0  0  1  0  0  0  0  0  0  0  0
   -5.7302    7.1323   -0.2841 O   0  5  0  1  0  0  0  0  0  0  0  0
   -4.4386    5.7375    1.0956 C   0  0  0  1  0  0  0  0  0  0  0  0
   -3.6314    5.4962   -0.0001 C   0  0  0  1  0  0  0  0  0  0  0  0
   -2.6486    4.5208    0.0643 C   0  0  0  1  0  0  0  0  0  0  0  0
   -2.4795    3.7859    1.2226 C   0  0  0  1  0  0  0  0  0  0  0  0
   -3.2889    4.0278    2.3215 C   0  0  0  1  0  0  0  0  0  0  0  0
   -4.2688    5.0003    2.2571 C   0  0  0  1  0  0  0  0  0  0  0  0
   -1.4126    2.7189    1.2916 C   0  0  0  1  0  0  0  0  0  0  0  0
   -3.7615    6.0465   -0.8730 H   0  0  0  1  0  0  0  0  0  0  0  0
   -2.0386    4.3420   -0.7588 H   0  0  0  1  0  0  0  0  0  0  0  0
   -3.1589    3.4775    3.1944 H   0  0  0  1  0  0  0  0  0  0  0  0
   -4.8788    5.1791    3.0802 H   0  0  0  1  0  0  0  0  0  0  0  0
   -1.8000    1.9013    1.8629 H   0  0  0  1  0  0  0  0  0  0  0  0
   -1.2078    2.3919    0.2936 H   0  0  0  1  0  0  0  0  0  0  0  0
  1  4  1  0  0  0  0
  2  4  1  0  0  0  0
  2  5  2  0  0  0  0
  2  6  1  0  0  0  0
  3  4  1  0  0  0  0
  3  7  1  0  0  0  0
  3  8  1  0  0  0  0
  4 28  1  0  0  0  0
  6  9  1  0  0  0  0
  6 12  1  0  0  0  0
  8 10  1  0  0  0  0
  8 11  2  0  0  0  0
  9 13  1  0  0  0  0
  9 14  1  0  0  0  0
  9 15  1  0  0  0  0
 10 16  1  0  0  0  0
 10 17  1  0  0  0  0
 10 18  1  0  0  0  0
 19 20  2  0  0  0  0
 19 21  1  0  0  0  0
 19 22  1  0  0  0  0
 22 23  4  0  0  0  0
 22 27  4  0  0  0  0
 23 24  4  0  0  0  0
 23 29  1  0  0  0  0
 24 25  4  0  0  0  0
 24 30  1  0  0  0  0
 25 26  4  0  0  0  0
 25 28  1  0  0  0  0
 26 27  4  0  0  0  0
 26 31  1  0  0  0  0
 27 32  1  0  0  0  0
 28 33  1  0  0  0  0
 28 34  1  0  0  0  0
M  END
> <BCLConfClusterSize>
1

> <ConfClashScore>
0 

> <ConfOneFourInteractionScore>
-0.976146 

> <ConfScore>
0.163255 

> <ConfScorePBest>
0.00290666 

> <ConfTolerance>
0.527163 

> <RosettaParamsInstructions>
M  ROOT 3
M  POLY_N_BB 3
M  POLY_CA_BB 4
M  POLY_C_BB 2
M  POLY_O_BB 5
M  POLY_IGNORE 9 10 11 12 13 14 15 16 17 18 
M  POLY_UPPER 6
M  POLY_LOWER 8
M  POLY_CHG 0
M  POLY_PROPERTIES ALPHA_AA L_AA PROTEIN AROMATIC POLYMER 
M  END

$$$$



 34 34  0  0  0  0  0  0  0  0999 V2000
   -0.4587    3.4678   -0.4125 H   0  0  0  1  0  0  0  0  0  0  0  0
    0.6657    1.8050    0.2168 C   0  0  0  1  0  0  0  0  0  0  0  0
   -1.5212    1.7878   -0.9412 N   0  0  0  1  0  0  0  0  0  0  0  0
   -0.6670    2.5007   -0.0049 C   0  0  0  1  0  0  0  0  0  0  0  0
    1.3402    1.9319    1.2212 O   0  0  0  1  0  0  0  0  0  0  0  0
    1.0848    1.0157   -0.7763 N   0  0  0  1  0  0  0  0  0  0  0  0
   -1.8682    2.2476   -1.7340 H   0  0  0  1  0  0  0  0  0  0  0  0
   -1.8366    0.4966   -0.7211 C   0  0  0  1  0  0  0  0  0  0  0  0
    2.3299    0.2661   -0.7009 C   0  0  0  1  0  0  0  0  0  0  0  0
   -2.7966   -0.1259   -1.7161 C   0  0  0  1  0  0  0  0  0  0  0  0
   -1.3845   -0.1521    0.2215 O   0  0  0  1  0  0  0  0  0  0  0  0
    0.5347    0.9388   -1.5837 H   0  0  0  1  0  0  0  0  0  0  0  0
    3.0869    0.8752   -0.2527 H   0  0  0  1  0  0  0  0  0  0  0  0
    2.6366   -0.0158   -1.6865 H   0  0  0  1  0  0  0  0  0  0  0  0
    2.1818   -0.6123   -0.1081 H   0  0  0  1  0  0  0  0  0  0  0  0
   -2.3650   -0.0973   -2.6947 H   0  0  0  1  0  0  0  0  0  0  0  0
   -3.7155    0.4224   -1.7156 H   0  0  0  1  0  0  0  0  0  0  0  0
   -2.9869   -1.1420   -1.4400 H   0  0  0  1  0  0  0  0  0  0  0  0
   -5.4483    6.7436    0.9870 N   0  3  0  1  0  0  0  0  0  0  0  0
   -6.0668    7.0025    1.9701 O   0  0  0  1  0  0  0  0  0  0  0  0
   -5.6498    7.3480   -0.1918 O   0  5  0  1  0  0  0  0  0  0  0  0
   -4.4307    5.7281    1.0697 C   0  0  0  1  0  0  0  0  0  0  0  0
   -3.6308    5.4630   -0.0258 C   0  0  0  1  0  0  0  0  0  0  0  0
   -2.6471    4.4895    0.0534 C   0  0  0  1  0  0  0  0  0  0  0  0
   -2.4699    3.7802    1.2264 C   0  0  0  1  0  0  0  0  0  0  0  0
   -3.2721    4.0460    2.3252 C   0  0  0  1  0  0  0  0  0  0  0  0
   -4.2527    5.0166    2.2460 C   0  0  0  1  0  0  0  0  0  0  0  0
   -1.4021    2.7153    1.3117 C   0  0  0  1  0  0  0  0  0  0  0  0
   -3.7668    5.9939   -0.9096 H   0  0  0  1  0  0  0  0  0  0  0  0
   -2.0425    4.2928   -0.7696 H   0  0  0  1  0  0  0  0  0  0  0  0
   -3.1360    3.5151    3.2090 H   0  0  0  1  0  0  0  0  0  0  0  0
   -4.8573    5.2133    3.0691 H   0  0  0  1  0  0  0  0  0  0  0  0
   -0.6902    3.0056    2.0559 H   0  0  0  1  0  0  0  0  0  0  0  0
   -1.8629    1.7932    1.5987 H   0  0  0  1  0  0  0  0  0  0  0  0
  1  4  1  0  0  0  0
  2  4  1  0  0  0  0
  2  5  2  0  0  0  0
  2  6  1  0  0  0  0
  3  4  1  0  0  0  0
  3  7  1  0  0  0  0
  3  8  1  0  0  0  0
  4 28  1  0  0  0  0
  6  9  1  0  0  0  0
  6 12  1  0  0  0  0
  8 10  1  0  0  0  0
  8 11  2  0  0  0  0
  9 13  1  0  0  0  0
  9 14  1  0  0  0  0
  9 15  1  0  0  0  0
 10 16  1  0  0  0  0
 10 17  1  0  0  0  0
 10 18  1  0  0  0  0
 19 20  2  0  0  0  0
 19 21  1  0  0  0  0
 19 22  1  0  0  0  0
 22 23  4  0  0  0  0
 22 27  4  0  0  0  0
 23 24  4  0  0  0  0
 23 29  1  0  0  0  0
 24 25  4  0  0  0  0
 24 30  1  0  0  0  0
 25 26  4  0  0  0  0
 25 28  1  0  0  0  0
 26 27  4  0  0  0  0
 26 31  1  0  0  0  0
 27 32  1  0  0  0  0
 28 33  1  0  0  0  0
 28 34  1  0  0  0  0
M  END
> <BCLConfClusterSize>
1

> <ConfClashScore>
0 

> <ConfOneFourInteractionScore>
-0.946047 

> <ConfScore>
0.166815 

> <ConfScorePBest>
0.00287818 

> <ConfTolerance>
0.710785 

> <RosettaParamsInstructions>
M  ROOT 3
M  POLY_N_BB 3
M  POLY_CA_BB 4
M  POLY_C_BB 2
M  POLY_O_BB 5
M  POLY_IGNORE 9 10 11 12 13 14 15 16 17 18 
M  POLY_UPPER 6
M  POLY_LOWER 8
M  POLY_CHG 0
M  POLY_PROPERTIES ALPHA_AA L_AA PROTEIN AROMATIC POLYMER 
M  END

$$$$



 34 34  0  0  0  0  0  0  0  0999 V2000
   -1.3930    2.5311   -0.7638 H   0  0  0  1  0  0  0  0  0  0  0  0
    0.2502    3.7485   -0.2591 C   0  0  0  1  0  0  0  0  0  0  0  0
    0.0637    1.2895   -0.0085 N   0  0  0  1  0  0  0  0  0  0  0  0
   -0.6560    2.5542    0.0115 C   0  0  0  1  0  0  0  0  0  0  0  0
   -0.1209    4.8959   -0.0262 O   0  0  0  1  0  0  0  0  0  0  0  0
    1.4530    3.4617   -0.7580 N   0  0  0  1  0  0  0  0  0  0  0  0
    0.3879    0.9164    0.8378 H   0  0  0  1  0  0  0  0  0  0  0  0
    0.2978    0.6193   -1.1403 C   0  0  0  1  0  0  0  0  0  0  0  0
    2.3939    4.5309   -1.0571 C   0  0  0  1  0  0  0  0  0  0  0  0
    1.1244   -0.6440   -0.9989 C   0  0  0  1  0  0  0  0  0  0  0  0
   -0.1186    0.9851   -2.2271 O   0  0  0  1  0  0  0  0  0  0  0  0
    1.7039    2.5290   -0.9236 H   0  0  0  1  0  0  0  0  0  0  0  0
    1.8672    5.3643   -1.4728 H   0  0  0  1  0  0  0  0  0  0  0  0
    3.1194    4.1805   -1.7612 H   0  0  0  1  0  0  0  0  0  0  0  0
    2.8869    4.8339   -0.1570 H   0  0  0  1  0  0  0  0  0  0  0  0
    0.6970   -1.2676   -0.2417 H   0  0  0  1  0  0  0  0  0  0  0  0
    2.1259   -0.3858   -0.7247 H   0  0  0  1  0  0  0  0  0  0  0  0
    1.1336   -1.1700   -1.9307 H   0  0  0  1  0  0  0  0  0  0  0  0
   -5.4389    6.7398    0.9339 N   0  3  0  1  0  0  0  0  0  0  0  0
   -5.8088    7.1568   -0.1175 O   0  0  0  1  0  0  0  0  0  0  0  0
   -5.9853    7.2307    2.0546 O   0  5  0  1  0  0  0  0  0  0  0  0
   -4.4228    5.7246    1.0369 C   0  0  0  1  0  0  0  0  0  0  0  0
   -3.6406    5.4183   -0.0606 C   0  0  0  1  0  0  0  0  0  0  0  0
   -2.6584    4.4452    0.0380 C   0  0  0  1  0  0  0  0  0  0  0  0
   -2.4649    3.7774    1.2325 C   0  0  0  1  0  0  0  0  0  0  0  0
   -3.2493    4.0845    2.3334 C   0  0  0  1  0  0  0  0  0  0  0  0
   -4.2285    5.0548    2.2349 C   0  0  0  1  0  0  0  0  0  0  0  0
   -1.3987    2.7128    1.3392 C   0  0  0  1  0  0  0  0  0  0  0  0
   -3.7890    5.9180   -0.9606 H   0  0  0  1  0  0  0  0  0  0  0  0
   -2.0671    4.2175   -0.7868 H   0  0  0  1  0  0  0  0  0  0  0  0
   -3.1009    3.5848    3.2333 H   0  0  0  1  0  0  0  0  0  0  0  0
   -4.8197    5.2824    3.0596 H   0  0  0  1  0  0  0  0  0  0  0  0
   -0.7004    2.9907    2.1008 H   0  0  0  1  0  0  0  0  0  0  0  0
   -1.8575    1.7815    1.5979 H   0  0  0  1  0  0  0  0  0  0  0  0
  1  4  1  0  0  0  0
  2  4  1  0  0  0  0
  2  5  2  0  0  0  0
  2  6  1  0  0  0  0
  3  4  1  0  0  0  0
  3  7  1  0  0  0  0
  3  8  1  0  0  0  0
  4 28  1  0  0  0  0
  6  9  1  0  0  0  0
  6 12  1  0  0  0  0
  8 10  1  0  0  0  0
  8 11  2  0  0  0  0
  9 13  1  0  0  0  0
  9 14  1  0  0  0  0
  9 15  1  0  0  0  0
 10 16  1  0  0  0  0
 10 17  1  0  0  0  0
 10 18  1  0  0  0  0
 19 20  2  0  0  0  0
 19 21  1  0  0  0  0
 19 22  1  0  0  0  0
 22 23  4  0  0  0  0
 22 27  4  0  0  0  0
 23 24  4  0  0  0  0
 23 29  1  0  0  0  0
 24 25  4  0  0  0  0
 24 30  1  0  0  0  0
 25 26  4  0  0  0  0
 25 28  1  0  0  0  0
 26 27  4  0  0  0  0
 26 31  1  0  0  0  0
 27 32  1  0  0  0  0
 28 33  1  0  0  0  0
 28 34  1  0  0  0  0
M  END
> <BCLConfClusterSize>
1

> <ConfClashScore>
0 

> <ConfOneFourInteractionScore>
-0.952877 

> <ConfScore>
0.169368 

> <ConfScorePBest>
0.0028497 

> <ConfTolerance>
0.835751 

> <RosettaParamsInstructions>
M  ROOT 3
M  POLY_N_BB 3
M  POLY_CA_BB 4
M  POLY_C_BB 2
M  POLY_O_BB 5
M  POLY_IGNORE 9 10 11 12 13 14 15 16 17 18 
M  POLY_UPPER 6
M  POLY_LOWER 8
M  POLY_CHG 0
M  POLY_PROPERTIES ALPHA_AA L_AA PROTEIN AROMATIC POLYMER 
M  END

$$$$



 34 34  0  0  0  0  0  0  0  0999 V2000
    0.0768    4.2244    1.7701 H   0  0  0  1  0  0  0  0  0  0  0  0
    1.1254    2.4307    1.5855 C   0  0  0  1  0  0  0  0  0  0  0  0
    0.1723    3.8391   -0.2328 N   0  0  0  1  0  0  0  0  0  0  0  0
    0.0198    3.3654    1.1347 C   0  0  0  1  0  0  0  0  0  0  0  0
    0.9614    1.6745    2.5420 O   0  0  0  1  0  0  0  0  0  0  0  0
    2.2856    2.4537    0.9106 N   0  0  0  1  0  0  0  0  0  0  0  0
    0.5536    4.7289   -0.3854 H   0  0  0  1  0  0  0  0  0  0  0  0
   -0.1895    3.1031   -1.2876 C   0  0  0  1  0  0  0  0  0  0  0  0
    3.4052    1.6367    1.3541 C   0  0  0  1  0  0  0  0  0  0  0  0
   -0.0831    3.7879   -2.6363 C   0  0  0  1  0  0  0  0  0  0  0  0
   -0.5854    1.9446   -1.1904 O   0  0  0  1  0  0  0  0  0  0  0  0
    2.3787    3.0218    0.1175 H   0  0  0  1  0  0  0  0  0  0  0  0
    3.8180    2.0523    2.2495 H   0  0  0  1  0  0  0  0  0  0  0  0
    4.1557    1.6165    0.5917 H   0  0  0  1  0  0  0  0  0  0  0  0
    3.0653    0.6407    1.5472 H   0  0  0  1  0  0  0  0  0  0  0  0
   -0.7492    3.3176   -3.3292 H   0  0  0  1  0  0  0  0  0  0  0  0
    0.9209    3.7092   -2.9977 H   0  0  0  1  0  0  0  0  0  0  0  0
   -0.3460    4.8200   -2.5337 H   0  0  0  1  0  0  0  0  0  0  0  0
   -5.4473    6.7506    0.9951 N   0  3  0  1  0  0  0  0  0  0  0  0
   -6.0879    6.9670    1.9743 O   0  0  0  1  0  0  0  0  0  0  0  0
   -5.5738    7.3688   -0.1871 O   0  5  0  1  0  0  0  0  0  0  0  0
   -4.4348    5.7295    1.0703 C   0  0  0  1  0  0  0  0  0  0  0  0
   -3.6440    5.4604   -0.0309 C   0  0  0  1  0  0  0  0  0  0  0  0
   -2.6651    4.4815    0.0411 C   0  0  0  1  0  0  0  0  0  0  0  0
   -2.4836    3.7709    1.2126 C   0  0  0  1  0  0  0  0  0  0  0  0
   -3.2766    4.0407    2.3170 C   0  0  0  1  0  0  0  0  0  0  0  0
   -4.2525    5.0167    2.2450 C   0  0  0  1  0  0  0  0  0  0  0  0
   -1.3691    2.7623    1.3613 C   0  0  0  1  0  0  0  0  0  0  0  0
   -3.7834    5.9924   -0.9136 H   0  0  0  1  0  0  0  0  0  0  0  0
   -2.0674    4.2819   -0.7862 H   0  0  0  1  0  0  0  0  0  0  0  0
   -3.1372    3.5087    3.1997 H   0  0  0  1  0  0  0  0  0  0  0  0
   -4.8502    5.2163    3.0724 H   0  0  0  1  0  0  0  0  0  0  0  0
   -1.4069    2.3564    2.3506 H   0  0  0  1  0  0  0  0  0  0  0  0
   -1.5209    1.9794    0.6479 H   0  0  0  1  0  0  0  0  0  0  0  0
  1  4  1  0  0  0  0
  2  4  1  0  0  0  0
  2  5  2  0  0  0  0
  2  6  1  0  0  0  0
  3  4  1  0  0  0  0
  3  7  1  0  0  0  0
  3  8  1  0  0  0  0
  4 28  1  0  0  0  0
  6  9  1  0  0  0  0
  6 12  1  0  0  0  0
  8 10  1  0  0  0  0
  8 11  2  0  0  0  0
  9 13  1  0  0  0  0
  9 14  1  0  0  0  0
  9 15  1  0  0  0  0
 10 16  1  0  0  0  0
 10 17  1  0  0  0  0
 10 18  1  0  0  0  0
 19 20  2  0  0  0  0
 19 21  1  0  0  0  0
 19 22  1  0  0  0  0
 22 23  4  0  0  0  0
 22 27  4  0  0  0  0
 23 24  4  0  0  0  0
 23 29  1  0  0  0  0
 24 25  4  0  0  0  0
 24 30  1  0  0  0  0
 25 26  4  0  0  0  0
 25 28  1  0  0  0  0
 26 27  4  0  0  0  0
 26 31  1  0  0  0  0
 27 32  1  0  0  0  0
 28 33  1  0  0  0  0
 28 34  1  0  0  0  0
M  END
> <BCLConfClusterSize>
1

> <ConfClashScore>
0 

> <ConfOneFourInteractionScore>
-0.953455 

> <ConfScore>
0.17533 

> <ConfScorePBest>
0.00282122 

> <ConfTolerance>
0.695051 

> <RosettaParamsInstructions>
M  ROOT 3
M  POLY_N_BB 3
M  POLY_CA_BB 4
M  POLY_C_BB 2
M  POLY_O_BB 5
M  POLY_IGNORE 9 10 11 12 13 14 15 16 17 18 
M  POLY_UPPER 6
M  POLY_LOWER 8
M  POLY_CHG 0
M  POLY_PROPERTIES ALPHA_AA L_AA PROTEIN AROMATIC POLYMER 
M  END

$$$$



 34 34  0  0  0  0  0  0  0  0999 V2000
   -0.0383    3.6600    0.0758 H   0  0  0  1  0  0  0  0  0  0  0  0
    0.7868    1.7863    0.5026 C   0  0  0  1  0  0  0  0  0  0  0  0
   -1.0803    2.3233   -1.0637 N   0  0  0  1  0  0  0  0  0  0  0  0
   -0.4164    2.6650    0.1854 C   0  0  0  1  0  0  0  0  0  0  0  0
    0.6909    0.8005    1.2324 O   0  0  0  1  0  0  0  0  0  0  0  0
    1.9272    2.1968   -0.0858 N   0  0  0  1  0  0  0  0  0  0  0  0
   -1.7592    1.6167   -1.0793 H   0  0  0  1  0  0  0  0  0  0  0  0
   -0.7668    2.9699   -2.1875 C   0  0  0  1  0  0  0  0  0  0  0  0
    3.2108    1.5111   -0.0996 C   0  0  0  1  0  0  0  0  0  0  0  0
   -1.6616    2.6844   -3.3869 C   0  0  0  1  0  0  0  0  0  0  0  0
    0.1805    3.7506   -2.2692 O   0  0  0  1  0  0  0  0  0  0  0  0
    1.8879    3.0545   -0.5582 H   0  0  0  1  0  0  0  0  0  0  0  0
    3.8296    1.9268   -0.8672 H   0  0  0  1  0  0  0  0  0  0  0  0
    3.0565    0.4697   -0.2912 H   0  0  0  1  0  0  0  0  0  0  0  0
    3.6900    1.6325    0.8493 H   0  0  0  1  0  0  0  0  0  0  0  0
   -2.6703    2.9530   -3.1519 H   0  0  0  1  0  0  0  0  0  0  0  0
   -1.6165    1.6422   -3.6251 H   0  0  0  1  0  0  0  0  0  0  0  0
   -1.3264    3.2574   -4.2260 H   0  0  0  1  0  0  0  0  0  0  0  0
   -5.4409    6.7464    0.9372 N   0  3  0  1  0  0  0  0  0  0  0  0
   -5.7030    7.1742   -0.1419 O   0  0  0  1  0  0  0  0  0  0  0  0
   -6.0412    7.1614    2.0610 O   0  5  0  1  0  0  0  0  0  0  0  0
   -4.4259    5.7301    1.0393 C   0  0  0  1  0  0  0  0  0  0  0  0
   -3.6386    5.4297   -0.0562 C   0  0  0  1  0  0  0  0  0  0  0  0
   -2.6573    4.4554    0.0416 C   0  0  0  1  0  0  0  0  0  0  0  0
   -2.4700    3.7806    1.2332 C   0  0  0  1  0  0  0  0  0  0  0  0
   -3.2596    4.0818    2.3320 C   0  0  0  1  0  0  0  0  0  0  0  0
   -4.2379    5.0532    2.2343 C   0  0  0  1  0  0  0  0  0  0  0  0
   -1.4050    2.7148    1.3389 C   0  0  0  1  0  0  0  0  0  0  0  0
   -3.7823    5.9346   -0.9540 H   0  0  0  1  0  0  0  0  0  0  0  0
   -2.0622    4.2322   -0.7816 H   0  0  0  1  0  0  0  0  0  0  0  0
   -3.1159    3.5769    3.2297 H   0  0  0  1  0  0  0  0  0  0  0  0
   -4.8330    5.2764    3.0575 H   0  0  0  1  0  0  0  0  0  0  0  0
   -0.8533    2.8876    2.2392 H   0  0  0  1  0  0  0  0  0  0  0  0
   -1.8935    1.7646    1.3961 H   0  0  0  1  0  0  0  0  0  0  0  0
  1  4  1  0  0  0  0
  2  4  1  0  0  0  0
  2  5  2  0  0  0  0
  2  6  1  0  0  0  0
  3  4  1  0  0  0  0
  3  7  1  0  0  0  0
  3  8  1  0  0  0  0
  4 28  1  0  0  0  0
  6  9  1  0  0  0  0
  6 12  1  0  0  0  0
  8 10  1  0  0  0  0
  8 11  2  0  0  0  0
  9 13  1  0  0  0  0
  9 14  1  0  0  0  0
  9 15  1  0  0  0  0
 10 16  1  0  0  0  0
 10 17  1  0  0  0  0
 10 18  1  0  0  0  0
 19 20  2  0  0  0  0
 19 21  1  0  0  0  0
 19 22  1  0  0  0  0
 22 23  4  0  0  0  0
 22 27  4  0  0  0  0
 23 24  4  0  0  0  0
 23 29  1  0  0  0  0
 24 25  4  0  0  0  0
 24 30  1  0  0  0  0
 25 26  4  0  0  0  0
 25 28  1  0  0  0  0
 26 27  4  0  0  0  0
 26 31  1  0  0  0  0
 27 32  1  0  0  0  0
 28 33  1  0  0  0  0
 28 34  1  0  0  0  0
M  END
> <BCLConfClusterSize>
1

> <ConfClashScore>
0 

> <ConfOneFourInteractionScore>
-0.967818 

> <ConfScore>
0.189492 

> <ConfScorePBest>
0.00279274 

> <ConfTolerance>
0.787104 

> <RosettaParamsInstructions>
M  ROOT 3
M  POLY_N_BB 3
M  POLY_CA_BB 4
M  POLY_C_BB 2
M  POLY_O_BB 5
M  POLY_IGNORE 9 10 11 12 13 14 15 16 17 18 
M  POLY_UPPER 6
M  POLY_LOWER 8
M  POLY_CHG 0
M  POLY_PROPERTIES ALPHA_AA L_AA PROTEIN AROMATIC POLYMER 
M  END

$$$$



 34 34  0  0  0  0  0  0  0  0999 V2000
    0.6538    2.6442    1.7776 H   0  0  0  1  0  0  0  0  0  0  0  0
    0.4150    2.9787   -0.3025 C   0  0  0  1  0  0  0  0  0  0  0  0
    0.1056    4.6170    1.4887 N   0  0  0  1  0  0  0  0  0  0  0  0
   -0.0057    3.2061    1.1497 C   0  0  0  1  0  0  0  0  0  0  0  0
   -0.2616    3.4340   -1.2237 O   0  0  0  1  0  0  0  0  0  0  0  0
    1.4797    2.1995   -0.5130 N   0  0  0  1  0  0  0  0  0  0  0  0
   -0.4716    5.2734    1.0455 H   0  0  0  1  0  0  0  0  0  0  0  0
    0.9931    5.0193    2.4028 C   0  0  0  1  0  0  0  0  0  0  0  0
    1.9462    1.8651   -1.8503 C   0  0  0  1  0  0  0  0  0  0  0  0
    1.0298    6.5108    2.6735 C   0  0  0  1  0  0  0  0  0  0  0  0
    1.7396    4.2453    2.9961 O   0  0  0  1  0  0  0  0  0  0  0  0
    1.9634    1.8407    0.2601 H   0  0  0  1  0  0  0  0  0  0  0  0
    2.0637    2.7618   -2.4222 H   0  0  0  1  0  0  0  0  0  0  0  0
    1.2312    1.2286   -2.3284 H   0  0  0  1  0  0  0  0  0  0  0  0
    2.8866    1.3591   -1.7836 H   0  0  0  1  0  0  0  0  0  0  0  0
    1.3266    7.0278    1.7849 H   0  0  0  1  0  0  0  0  0  0  0  0
    1.7316    6.7140    3.4552 H   0  0  0  1  0  0  0  0  0  0  0  0
    0.0573    6.8431    2.9712 H   0  0  0  1  0  0  0  0  0  0  0  0
   -5.4343    6.7535    0.9429 N   0  3  0  1  0  0  0  0  0  0  0  0
   -5.4545    7.4372   -0.0309 O   0  0  0  1  0  0  0  0  0  0  0  0
   -6.3049    6.8830    1.9533 O   0  5  0  1  0  0  0  0  0  0  0  0
   -4.4213    5.7347    1.0394 C   0  0  0  1  0  0  0  0  0  0  0  0
   -3.6081    5.4661   -0.0455 C   0  0  0  1  0  0  0  0  0  0  0  0
   -2.6288    4.4894    0.0471 C   0  0  0  1  0  0  0  0  0  0  0  0
   -2.4691    3.7804    1.2228 C   0  0  0  1  0  0  0  0  0  0  0  0
   -3.2846    4.0497    2.3110 C   0  0  0  1  0  0  0  0  0  0  0  0
   -4.2609    5.0235    2.2184 C   0  0  0  1  0  0  0  0  0  0  0  0
   -1.4240    2.7015    1.3812 C   0  0  0  1  0  0  0  0  0  0  0  0
   -3.7310    5.9968   -0.9314 H   0  0  0  1  0  0  0  0  0  0  0  0
   -2.0143    4.2901   -0.7679 H   0  0  0  1  0  0  0  0  0  0  0  0
   -3.1617    3.5190    3.1969 H   0  0  0  1  0  0  0  0  0  0  0  0
   -4.8754    5.2228    3.0335 H   0  0  0  1  0  0  0  0  0  0  0  0
   -1.4879    2.3087    2.3745 H   0  0  0  1  0  0  0  0  0  0  0  0
   -1.6281    1.9235    0.6756 H   0  0  0  1  0  0  0  0  0  0  0  0
  1  4  1  0  0  0  0
  2  4  1  0  0  0  0
  2  5  2  0  0  0  0
  2  6  1  0  0  0  0
  3  4  1  0  0  0  0
  3  7  1  0  0  0  0
  3  8  1  0  0  0  0
  4 28  1  0  0  0  0
  6  9  1  0  0  0  0
  6 12  1  0  0  0  0
  8 10  1  0  0  0  0
  8 11  2  0  0  0  0
  9 13  1  0  0  0  0
  9 14  1  0  0  0  0
  9 15  1  0  0  0  0
 10 16  1  0  0  0  0
 10 17  1  0  0  0  0
 10 18  1  0  0  0  0
 19 20  2  0  0  0  0
 19 21  1  0  0  0  0
 19 22  1  0  0  0  0
 22 23  4  0  0  0  0
 22 27  4  0  0  0  0
 23 24  4  0  0  0  0
 23 29  1  0  0  0  0
 24 25  4  0  0  0  0
 24 30  1  0  0  0  0
 25 26  4  0  0  0  0
 25 28  1  0  0  0  0
 26 27  4  0  0  0  0
 26 31  1  0  0  0  0
 27 32  1  0  0  0  0
 28 33  1  0  0  0  0
 28 34  1  0  0  0  0
M  END
> <BCLConfClusterSize>
1

> <ConfClashScore>
0 

> <ConfOneFourInteractionScore>
-0.955883 

> <ConfScore>
0.201515 

> <ConfScorePBest>
0.00276426 

> <ConfTolerance>
0.853944 

> <RosettaParamsInstructions>
M  ROOT 3
M  POLY_N_BB 3
M  POLY_CA_BB 4
M  POLY_C_BB 2
M  POLY_O_BB 5
M  POLY_IGNORE 9 10 11 12 13 14 15 16 17 18 
M  POLY_UPPER 6
M  POLY_LOWER 8
M  POLY_CHG 0
M  POLY_PROPERTIES ALPHA_AA L_AA PROTEIN AROMATIC POLYMER 
M  END

$$$$



 34 34  0  0  0  0  0  0  0  0999 V2000
    0.3874    2.2471    2.3248 H   0  0  0  1  0  0  0  0  0  0  0  0
    0.4403    4.2682    1.7693 C   0  0  0  1  0  0  0  0  0  0  0  0
   -0.7881    3.2311    3.6862 N   0  0  0  1  0  0  0  0  0  0  0  0
   -0.3020    3.0654    2.3258 C   0  0  0  1  0  0  0  0  0  0  0  0
    1.2438    4.1582    0.8612 O   0  0  0  1  0  0  0  0  0  0  0  0
    0.1226    5.4195    2.3682 N   0  0  0  1  0  0  0  0  0  0  0  0
   -1.7080    2.9659    3.8954 H   0  0  0  1  0  0  0  0  0  0  0  0
   -0.0241    3.7323    4.6610 C   0  0  0  1  0  0  0  0  0  0  0  0
    0.6596    6.6986    1.9284 C   0  0  0  1  0  0  0  0  0  0  0  0
   -0.6830    3.8457    6.0220 C   0  0  0  1  0  0  0  0  0  0  0  0
    1.1414    4.0847    4.4846 O   0  0  0  1  0  0  0  0  0  0  0  0
   -0.4934    5.4020    3.1301 H   0  0  0  1  0  0  0  0  0  0  0  0
    1.3834    6.5360    1.1573 H   0  0  0  1  0  0  0  0  0  0  0  0
    1.1248    7.1932    2.7553 H   0  0  0  1  0  0  0  0  0  0  0  0
   -0.1346    7.3071    1.5491 H   0  0  0  1  0  0  0  0  0  0  0  0
   -0.1967    4.6098    6.5917 H   0  0  0  1  0  0  0  0  0  0  0  0
   -0.6014    2.9110    6.5364 H   0  0  0  1  0  0  0  0  0  0  0  0
   -1.7159    4.0963    5.8981 H   0  0  0  1  0  0  0  0  0  0  0  0
   -5.4223    6.7673    0.9642 N   0  3  0  1  0  0  0  0  0  0  0  0
   -5.0690    7.8929    0.8088 O   0  0  0  1  0  0  0  0  0  0  0  0
   -6.7087    6.4047    1.0615 O   0  5  0  1  0  0  0  0  0  0  0  0
   -4.4145    5.7425    1.0520 C   0  0  0  1  0  0  0  0  0  0  0  0
   -3.5442    5.5394   -0.0023 C   0  0  0  1  0  0  0  0  0  0  0  0
   -2.5699    4.5570    0.0824 C   0  0  0  1  0  0  0  0  0  0  0  0
   -2.4722    3.7771    1.2193 C   0  0  0  1  0  0  0  0  0  0  0  0
   -3.3450    3.9807    2.2768 C   0  0  0  1  0  0  0  0  0  0  0  0
   -4.3163    4.9602    2.1921 C   0  0  0  1  0  0  0  0  0  0  0  0
   -1.4355    2.6885    1.3669 C   0  0  0  1  0  0  0  0  0  0  0  0
   -3.6203    6.1237   -0.8593 H   0  0  0  1  0  0  0  0  0  0  0  0
   -1.9124    4.4069   -0.7093 H   0  0  0  1  0  0  0  0  0  0  0  0
   -3.2688    3.3965    3.1338 H   0  0  0  1  0  0  0  0  0  0  0  0
   -4.9737    5.1103    2.9839 H   0  0  0  1  0  0  0  0  0  0  0  0
   -1.9168    1.8079    1.7379 H   0  0  0  1  0  0  0  0  0  0  0  0
   -1.0142    2.4867    0.4042 H   0  0  0  1  0  0  0  0  0  0  0  0
  1  4  1  0  0  0  0
  2  4  1  0  0  0  0
  2  5  2  0  0  0  0
  2  6  1  0  0  0  0
  3  4  1  0  0  0  0
  3  7  1  0  0  0  0
  3  8  1  0  0  0  0
  4 28  1  0  0  0  0
  6  9  1  0  0  0  0
  6 12  1  0  0  0  0
  8 10  1  0  0  0  0
  8 11  2  0  0  0  0
  9 13  1  0  0  0  0
  9 14  1  0  0  0  0
  9 15  1  0  0  0  0
 10 16  1  0  0  0  0
 10 17  1  0  0  0  0
 10 18  1  0  0  0  0
 19 20  2  0  0  0  0
 19 21  1  0  0  0  0
 19 22  1  0  0  0  0
 22 23  4  0  0  0  0
 22 27  4  0  0  0  0
 23 24  4  0  0  0  0
 23 29  1  0  0  0  0
 24 25  4  0  0  0  0
 24 30  1  0  0  0  0
 25 26  4  0  0  0  0
 25 28  1  0  0  0  0
 26 27  4  0  0  0  0
 26 31  1  0  0  0  0
 27 32  1  0  0  0  0
 28 33  1  0  0  0  0
 28 34  1  0  0  0  0
M  END
> <BCLConfClusterSize>
1

> <ConfClashScore>
0 

> <ConfOneFourInteractionScore>
-0.957074 

> <ConfScore>
0.202029 

> <ConfScorePBest>
0.00273578 

> <ConfTolerance>
0.852596 

> <RosettaParamsInstructions>
M  ROOT 3
M  POLY_N_BB 3
M  POLY_CA_BB 4
M  POLY_C_BB 2
M  POLY_O_BB 5
M  POLY_IGNORE 9 10 11 12 13 14 15 16 17 18 
M  POLY_UPPER 6
M  POLY_LOWER 8
M  POLY_CHG 0
M  POLY_PROPERTIES ALPHA_AA L_AA PROTEIN AROMATIC POLYMER 
M  END

$$$$



 34 34  0  0  0  0  0  0  0  0999 V2000
   -2.8014    1.2174    1.8498 H   0  0  0  1  0  0  0  0  0  0  0  0
   -2.6096    1.2313   -0.2495 C   0  0  0  1  0  0  0  0  0  0  0  0
   -0.9972    0.3213    1.4041 N   0  0  0  1  0  0  0  0  0  0  0  0
   -2.0092    1.3300    1.1394 C   0  0  0  1  0  0  0  0  0  0  0  0
   -3.7659    1.5880   -0.4721 O   0  0  0  1  0  0  0  0  0  0  0  0
   -1.8019    0.7354   -1.2001 N   0  0  0  1  0  0  0  0  0  0  0  0
   -0.5354   -0.0704    0.6336 H   0  0  0  1  0  0  0  0  0  0  0  0
   -0.6455   -0.1166    2.6308 C   0  0  0  1  0  0  0  0  0  0  0  0
   -2.2167    0.6199   -2.5902 C   0  0  0  1  0  0  0  0  0  0  0  0
    0.4697   -1.1327    2.7301 C   0  0  0  1  0  0  0  0  0  0  0  0
   -1.2140    0.2971    3.6405 O   0  0  0  1  0  0  0  0  0  0  0  0
   -0.9014    0.4408   -0.9493 H   0  0  0  1  0  0  0  0  0  0  0  0
   -2.4049    1.5948   -2.9890 H   0  0  0  1  0  0  0  0  0  0  0  0
   -3.1094    0.0327   -2.6482 H   0  0  0  1  0  0  0  0  0  0  0  0
   -1.4410    0.1472   -3.1556 H   0  0  0  1  0  0  0  0  0  0  0  0
    0.3700   -1.6846    3.6414 H   0  0  0  1  0  0  0  0  0  0  0  0
    1.4133   -0.6284    2.7203 H   0  0  0  1  0  0  0  0  0  0  0  0
    0.4150   -1.8043    1.8990 H   0  0  0  1  0  0  0  0  0  0  0  0
   -5.4228    6.7469    0.9124 N   0  3  0  1  0  0  0  0  0  0  0  0
   -5.5435    7.2608   -0.1541 O   0  0  0  1  0  0  0  0  0  0  0  0
   -6.1678    7.0738    1.9772 O   0  5  0  1  0  0  0  0  0  0  0  0
   -4.4326    5.7294    1.0642 C   0  0  0  1  0  0  0  0  0  0  0  0
   -3.6391    5.4495   -0.0323 C   0  0  0  1  0  0  0  0  0  0  0  0
   -2.6562    4.4758    0.0538 C   0  0  0  1  0  0  0  0  0  0  0  0
   -2.4733    3.7812    1.2347 C   0  0  0  1  0  0  0  0  0  0  0  0
   -3.2690    4.0619    2.3344 C   0  0  0  1  0  0  0  0  0  0  0  0
   -4.2490    5.0327    2.2484 C   0  0  0  1  0  0  0  0  0  0  0  0
   -1.4064    2.7160    1.3275 C   0  0  0  1  0  0  0  0  0  0  0  0
   -3.7794    5.9694   -0.9220 H   0  0  0  1  0  0  0  0  0  0  0  0
   -2.0564    4.2679   -0.7700 H   0  0  0  1  0  0  0  0  0  0  0  0
   -3.1287    3.5420    3.2242 H   0  0  0  1  0  0  0  0  0  0  0  0
   -4.8487    5.2405    3.0723 H   0  0  0  1  0  0  0  0  0  0  0  0
   -0.6737    2.8862    0.5666 H   0  0  0  1  0  0  0  0  0  0  0  0
   -0.9410    2.7685    2.2896 H   0  0  0  1  0  0  0  0  0  0  0  0
  1  4  1  0  0  0  0
  2  4  1  0  0  0  0
  2  5  2  0  0  0  0
  2  6  1  0  0  0  0
  3  4  1  0  0  0  0
  3  7  1  0  0  0  0
  3  8  1  0  0  0  0
  4 28  1  0  0  0  0
  6  9  1  0  0  0  0
  6 12  1  0  0  0  0
  8 10  1  0  0  0  0
  8 11  2  0  0  0  0
  9 13  1  0  0  0  0
  9 14  1  0  0  0  0
  9 15  1  0  0  0  0
 10 16  1  0  0  0  0
 10 17  1  0  0  0  0
 10 18  1  0  0  0  0
 19 20  2  0  0  0  0
 19 21  1  0  0  0  0
 19 22  1  0  0  0  0
 22 23  4  0  0  0  0
 22 27  4  0  0  0  0
 23 24  4  0  0  0  0
 23 29  1  0  0  0  0
 24 25  4  0  0  0  0
 24 30  1  0  0  0  0
 25 26  4  0  0  0  0
 25 28  1  0  0  0  0
 26 27  4  0  0  0  0
 26 31  1  0  0  0  0
 27 32  1  0  0  0  0
 28 33  1  0  0  0  0
 28 34  1  0  0  0  0
M  END
> <BCLConfClusterSize>
1

> <ConfClashScore>
0 

> <ConfOneFourInteractionScore>
-0.965014 

> <ConfScore>
0.207206 

> <ConfScorePBest>
0.0027073 

> <ConfTolerance>
0.429471 

> <RosettaParamsInstructions>
M  ROOT 3
M  POLY_N_BB 3
M  POLY_CA_BB 4
M  POLY_C_BB 2
M  POLY_O_BB 5
M  POLY_IGNORE 9 10 11 12 13 14 15 16 17 18 
M  POLY_UPPER 6
M  POLY_LOWER 8
M  POLY_CHG 0
M  POLY_PROPERTIES ALPHA_AA L_AA PROTEIN AROMATIC POLYMER 
M  END

$$$$



 34 34  0  0  0  0  0  0  0  0999 V2000
   -1.0655    0.7103    0.7262 H   0  0  0  1  0  0  0  0  0  0  0  0
   -3.1020    1.1575    0.3807 C   0  0  0  1  0  0  0  0  0  0  0  0
   -1.1396    1.9123   -0.9520 N   0  0  0  1  0  0  0  0  0  0  0  0
   -1.6300    1.5459    0.3683 C   0  0  0  1  0  0  0  0  0  0  0  0
   -3.9759    1.9883    0.1366 O   0  0  0  1  0  0  0  0  0  0  0  0
   -3.4142   -0.1082    0.6634 N   0  0  0  1  0  0  0  0  0  0  0  0
   -1.4997    2.7146   -1.3844 H   0  0  0  1  0  0  0  0  0  0  0  0
   -0.2065    1.1858   -1.6014 C   0  0  0  1  0  0  0  0  0  0  0  0
   -4.7684   -0.6361    0.7353 C   0  0  0  1  0  0  0  0  0  0  0  0
    0.2892    1.6958   -2.9406 C   0  0  0  1  0  0  0  0  0  0  0  0
    0.2309    0.1400   -1.1233 O   0  0  0  1  0  0  0  0  0  0  0  0
   -2.6760   -0.7293    0.8358 H   0  0  0  1  0  0  0  0  0  0  0  0
   -4.8201   -1.3841    1.4987 H   0  0  0  1  0  0  0  0  0  0  0  0
   -5.0325   -1.0694   -0.2067 H   0  0  0  1  0  0  0  0  0  0  0  0
   -5.4483    0.1570    0.9669 H   0  0  0  1  0  0  0  0  0  0  0  0
   -0.4109    2.4022   -3.3352 H   0  0  0  1  0  0  0  0  0  0  0  0
    0.3887    0.8751   -3.6199 H   0  0  0  1  0  0  0  0  0  0  0  0
    1.2397    2.1700   -2.8117 H   0  0  0  1  0  0  0  0  0  0  0  0
   -5.4369    6.7505    0.9385 N   0  3  0  1  0  0  0  0  0  0  0  0
   -5.5663    7.3147   -0.1012 O   0  0  0  1  0  0  0  0  0  0  0  0
   -6.1850    7.0137    2.0186 O   0  5  0  1  0  0  0  0  0  0  0  0
   -4.4237    5.7324    1.0400 C   0  0  0  1  0  0  0  0  0  0  0  0
   -3.6216    5.4471   -0.0489 C   0  0  0  1  0  0  0  0  0  0  0  0
   -2.6420    4.4711    0.0484 C   0  0  0  1  0  0  0  0  0  0  0  0
   -2.4711    3.7796    1.2328 C   0  0  0  1  0  0  0  0  0  0  0  0
   -3.2754    4.0656    2.3249 C   0  0  0  1  0  0  0  0  0  0  0  0
   -4.2520    5.0387    2.2277 C   0  0  0  1  0  0  0  0  0  0  0  0
   -1.4078    2.7119    1.3378 C   0  0  0  1  0  0  0  0  0  0  0  0
   -3.7530    5.9648   -0.9413 H   0  0  0  1  0  0  0  0  0  0  0  0
   -2.0359    4.2593   -0.7697 H   0  0  0  1  0  0  0  0  0  0  0  0
   -3.1440    3.5479    3.2173 H   0  0  0  1  0  0  0  0  0  0  0  0
   -4.8581    5.2505    3.0459 H   0  0  0  1  0  0  0  0  0  0  0  0
   -0.4576    3.1554    1.1250 H   0  0  0  1  0  0  0  0  0  0  0  0
   -1.4074    2.3287    2.3369 H   0  0  0  1  0  0  0  0  0  0  0  0
  1  4  1  0  0  0  0
  2  4  1  0  0  0  0
  2  5  2  0  0  0  0
  2  6  1  0  0  0  0
  3  4  1  0  0  0  0
  3  7  1  0  0  0  0
  3  8  1  0  0  0  0
  4 28  1  0  0  0  0
  6  9  1  0  0  0  0
  6 12  1  0  0  0  0
  8 10  1  0  0  0  0
  8 11  2  0  0  0  0
  9 13  1  0  0  0  0
  9 14  1  0  0  0  0
  9 15  1  0  0  0  0
 10 16  1  0  0  0  0
 10 17  1  0  0  0  0
 10 18  1  0  0  0  0
 19 20  2  0  0  0  0
 19 21  1  0  0  0  0
 19 22  1  0  0  0  0
 22 23  4  0  0  0  0
 22 27  4  0  0  0  0
 23 24  4  0  0  0  0
 23 29  1  0  0  0  0
 24 25  4  0  0  0  0
 24 30  1  0  0  0  0
 25 26  4  0  0  0  0
 25 28  1  0  0  0  0
 26 27  4  0  0  0  0
 26 31  1  0  0  0  0
 27 32  1  0  0  0  0
 28 33  1  0  0  0  0
 28 34  1  0  0  0  0
M  END
> <BCLConfClusterSize>
1

> <ConfClashScore>
0 

> <ConfOneFourInteractionScore>
-0.961161 

> <ConfScore>
0.217464 

> <ConfScorePBest>
0.00267882 

> <ConfTolerance>
0.827409 

> <RosettaParamsInstructions>
M  ROOT 3
M  POLY_N_BB 3
M  POLY_CA_BB 4
M  POLY_C_BB 2
M  POLY_O_BB 5
M  POLY_IGNORE 9 10 11 12 13 14 15 16 17 18 
M  POLY_UPPER 6
M  POLY_LOWER 8
M  POLY_CHG 0
M  POLY_PROPERTIES ALPHA_AA L_AA PROTEIN AROMATIC POLYMER 
M  END

$$$$



 34 34  0  0  0  0  0  0  0  0999 V2000
   -1.0901    0.6236    1.0174 H   0  0  0  1  0  0  0  0  0  0  0  0
   -2.8665    0.8142    2.1273 C   0  0  0  1  0  0  0  0  0  0  0  0
   -2.5664    1.1851   -0.3046 N   0  0  0  1  0  0  0  0  0  0  0  0
   -1.9422    1.2707    1.0109 C   0  0  0  1  0  0  0  0  0  0  0  0
   -2.7160    1.2094    3.2826 O   0  0  0  1  0  0  0  0  0  0  0  0
   -3.8362   -0.0320    1.7685 N   0  0  0  1  0  0  0  0  0  0  0  0
   -2.1292    0.6230   -0.9778 H   0  0  0  1  0  0  0  0  0  0  0  0
   -3.6874    1.8144   -0.6604 C   0  0  0  1  0  0  0  0  0  0  0  0
   -4.7324   -0.6438    2.7383 C   0  0  0  1  0  0  0  0  0  0  0  0
   -4.0846    1.6795   -2.1175 C   0  0  0  1  0  0  0  0  0  0  0  0
   -4.3674    2.4661    0.1279 O   0  0  0  1  0  0  0  0  0  0  0  0
   -3.9478   -0.2483    0.8192 H   0  0  0  1  0  0  0  0  0  0  0  0
   -4.4654   -0.3228    3.7234 H   0  0  0  1  0  0  0  0  0  0  0  0
   -4.6513   -1.7089    2.6762 H   0  0  0  1  0  0  0  0  0  0  0  0
   -5.7394   -0.3494    2.5282 H   0  0  0  1  0  0  0  0  0  0  0  0
   -3.2100    1.5190   -2.7127 H   0  0  0  1  0  0  0  0  0  0  0  0
   -4.5743    2.5752   -2.4379 H   0  0  0  1  0  0  0  0  0  0  0  0
   -4.7497    0.8489   -2.2302 H   0  0  0  1  0  0  0  0  0  0  0  0
   -5.4501    6.7411    0.9837 N   0  3  0  1  0  0  0  0  0  0  0  0
   -5.9555    7.1205    1.9921 O   0  0  0  1  0  0  0  0  0  0  0  0
   -5.7826    7.2058   -0.2284 O   0  5  0  1  0  0  0  0  0  0  0  0
   -4.4284    5.7303    1.0718 C   0  0  0  1  0  0  0  0  0  0  0  0
   -3.6111    5.4796   -0.0143 C   0  0  0  1  0  0  0  0  0  0  0  0
   -2.6235    4.5106    0.0703 C   0  0  0  1  0  0  0  0  0  0  0  0
   -2.4595    3.7915    1.2392 C   0  0  0  1  0  0  0  0  0  0  0  0
   -3.2790    4.0427    2.3285 C   0  0  0  1  0  0  0  0  0  0  0  0
   -4.2637    5.0088    2.2440 C   0  0  0  1  0  0  0  0  0  0  0  0
   -1.4422    2.6750    1.2554 C   0  0  0  1  0  0  0  0  0  0  0  0
   -3.7372    6.0180   -0.8951 H   0  0  0  1  0  0  0  0  0  0  0  0
   -2.0059    4.3249   -0.7456 H   0  0  0  1  0  0  0  0  0  0  0  0
   -3.1529    3.5043    3.2093 H   0  0  0  1  0  0  0  0  0  0  0  0
   -4.8812    5.1946    3.0599 H   0  0  0  1  0  0  0  0  0  0  0  0
   -0.7162    2.8924    0.5001 H   0  0  0  1  0  0  0  0  0  0  0  0
   -0.9717    2.6846    2.2164 H   0  0  0  1  0  0  0  0  0  0  0  0
  1  4  1  0  0  0  0
  2  4  1  0  0  0  0
  2  5  2  0  0  0  0
  2  6  1  0  0  0  0
  3  4  1  0  0  0  0
  3  7  1  0  0  0  0
  3  8  1  0  0  0  0
  4 28  1  0  0  0  0
  6  9  1  0  0  0  0
  6 12  1  0  0  0  0
  8 10  1  0  0  0  0
  8 11  2  0  0  0  0
  9 13  1  0  0  0  0
  9 14  1  0  0  0  0
  9 15  1  0  0  0  0
 10 16  1  0  0  0  0
 10 17  1  0  0  0  0
 10 18  1  0  0  0  0
 19 20  2  0  0  0  0
 19 21  1  0  0  0  0
 19 22  1  0  0  0  0
 22 23  4  0  0  0  0
 22 27  4  0  0  0  0
 23 24  4  0  0  0  0
 23 29  1  0  0  0  0
 24 25  4  0  0  0  0
 24 30  1  0  0  0  0
 25 26  4  0  0  0  0
 25 28  1  0  0  0  0
 26 27  4  0  0  0  0
 26 31  1  0  0  0  0
 27 32  1  0  0  0  0
 28 33  1  0  0  0  0
 28 34  1  0  0  0  0
M  END
> <BCLConfClusterSize>
1

> <ConfClashScore>
0 

> <ConfOneFourInteractionScore>
-0.947651 

> <ConfScore>
0.224481 

> <ConfScorePBest>
0.00265034 

> <ConfTolerance>
0.664459 

> <RosettaParamsInstructions>
M  ROOT 3
M  POLY_N_BB 3
M  POLY_CA_BB 4
M  POLY_C_BB 2
M  POLY_O_BB 5
M  POLY_IGNORE 9 10 11 12 13 14 15 16 17 18 
M  POLY_UPPER 6
M  POLY_LOWER 8
M  POLY_CHG 0
M  POLY_PROPERTIES ALPHA_AA L_AA PROTEIN AROMATIC POLYMER 
M  END

$$$$



 34 34  0  0  0  0  0  0  0  0999 V2000
   -0.9957    0.6907    1.0501 H   0  0  0  1  0  0  0  0  0  0  0  0
   -3.0902    0.9410    1.2746 C   0  0  0  1  0  0  0  0  0  0  0  0
   -1.7544    1.4810   -0.7042 N   0  0  0  1  0  0  0  0  0  0  0  0
   -1.7312    1.4071    0.7491 C   0  0  0  1  0  0  0  0  0  0  0  0
   -3.1597    0.1361    2.1887 O   0  0  0  1  0  0  0  0  0  0  0  0
   -4.1476    1.5496    0.7144 N   0  0  0  1  0  0  0  0  0  0  0  0
   -2.6138    1.6080   -1.1577 H   0  0  0  1  0  0  0  0  0  0  0  0
   -0.6447    1.3818   -1.4416 C   0  0  0  1  0  0  0  0  0  0  0  0
   -5.5179    1.1919    1.0493 C   0  0  0  1  0  0  0  0  0  0  0  0
   -0.8835    1.3142   -2.9511 C   0  0  0  1  0  0  0  0  0  0  0  0
    0.4893    1.4210   -0.9934 O   0  0  0  1  0  0  0  0  0  0  0  0
   -3.9912    2.2595    0.0571 H   0  0  0  1  0  0  0  0  0  0  0  0
   -5.5235    0.5858    1.9311 H   0  0  0  1  0  0  0  0  0  0  0  0
   -5.9518    0.6452    0.2383 H   0  0  0  1  0  0  0  0  0  0  0  0
   -6.0858    2.0816    1.2246 H   0  0  0  1  0  0  0  0  0  0  0  0
    0.0570    1.2830   -3.4604 H   0  0  0  1  0  0  0  0  0  0  0  0
   -1.4301    2.1790   -3.2645 H   0  0  0  1  0  0  0  0  0  0  0  0
   -1.4444    0.4333   -3.1841 H   0  0  0  1  0  0  0  0  0  0  0  0
   -5.4092    6.7615    0.9474 N   0  3  0  1  0  0  0  0  0  0  0  0
   -5.5868    7.3482   -0.0725 O   0  0  0  1  0  0  0  0  0  0  0  0
   -6.1213    7.1598    2.0104 O   0  5  0  1  0  0  0  0  0  0  0  0
   -4.4682    5.6741    1.0221 C   0  0  0  1  0  0  0  0  0  0  0  0
   -3.6562    5.4020   -0.0627 C   0  0  0  1  0  0  0  0  0  0  0  0
   -2.6447    4.4605    0.0473 C   0  0  0  1  0  0  0  0  0  0  0  0
   -2.4516    3.7901    1.2405 C   0  0  0  1  0  0  0  0  0  0  0  0
   -3.2659    4.0629    2.3286 C   0  0  0  1  0  0  0  0  0  0  0  0
   -4.2744    5.0016    2.2187 C   0  0  0  1  0  0  0  0  0  0  0  0
   -1.3534    2.7599    1.3595 C   0  0  0  1  0  0  0  0  0  0  0  0
   -3.8041    5.9036   -0.9617 H   0  0  0  1  0  0  0  0  0  0  0  0
   -2.0311    4.2587   -0.7678 H   0  0  0  1  0  0  0  0  0  0  0  0
   -3.1180    3.5614    3.2275 H   0  0  0  1  0  0  0  0  0  0  0  0
   -4.8879    5.2035    3.0338 H   0  0  0  1  0  0  0  0  0  0  0  0
   -0.4840    3.1294    0.8570 H   0  0  0  1  0  0  0  0  0  0  0  0
   -1.1325    2.6159    2.3964 H   0  0  0  1  0  0  0  0  0  0  0  0
  1  4  1  0  0  0  0
  2  4  1  0  0  0  0
  2  5  2  0  0  0  0
  2  6  1  0  0  0  0
  3  4  1  0  0  0  0
  3  7  1  0  0  0  0
  3  8  1  0  0  0  0
  4 28  1  0  0  0  0
  6  9  1  0  0  0  0
  6 12  1  0  0  0  0
  8 10  1  0  0  0  0
  8 11  2  0  0  0  0
  9 13  1  0  0  0  0
  9 14  1  0  0  0  0
  9 15  1  0  0  0  0
 10 16  1  0  0  0  0
 10 17  1  0  0  0  0
 10 18  1  0  0  0  0
 19 20  2  0  0  0  0
 19 21  1  0  0  0  0
 19 22  1  0  0  0  0
 22 23  4  0  0  0  0
 22 27  4  0  0  0  0
 23 24  4  0  0  0  0
 23 29  1  0  0  0  0
 24 25  4  0  0  0  0
 24 30  1  0  0  0  0
 25 26  4  0  0  0  0
 25 28  1  0  0  0  0
 26 27  4  0  0  0  0
 26 31  1  0  0  0  0
 27 32  1  0  0  0  0
 28 33  1  0  0  0  0
 28 34  1  0  0  0  0
M  END
> <BCLConfClusterSize>
1

> <ConfClashScore>
0 

> <ConfOneFourInteractionScore>
-0.96177 

> <ConfScore>
0.224803 

> <ConfScorePBest>
0.00262186 

> <ConfTolerance>
0.894888 

> <RosettaParamsInstructions>
M  ROOT 3
M  POLY_N_BB 3
M  POLY_CA_BB 4
M  POLY_C_BB 2
M  POLY_O_BB 5
M  POLY_IGNORE 9 10 11 12 13 14 15 16 17 18 
M  POLY_UPPER 6
M  POLY_LOWER 8
M  POLY_CHG 0
M  POLY_PROPERTIES ALPHA_AA L_AA PROTEIN AROMATIC POLYMER 
M  END

$$$$



 34 34  0  0  0  0  0  0  0  0999 V2000
    0.6057    2.4290    1.8933 H   0  0  0  1  0  0  0  0  0  0  0  0
    0.5544    4.0960    0.5882 C   0  0  0  1  0  0  0  0  0  0  0  0
   -0.1399    4.0566    2.9336 N   0  0  0  1  0  0  0  0  0  0  0  0
   -0.0435    3.2607    1.7151 C   0  0  0  1  0  0  0  0  0  0  0  0
   -0.0487    4.2725   -0.4575 O   0  0  0  1  0  0  0  0  0  0  0  0
    1.7700    4.6129    0.8271 N   0  0  0  1  0  0  0  0  0  0  0  0
   -0.2692    5.0250    2.8570 H   0  0  0  1  0  0  0  0  0  0  0  0
   -0.0580    3.5113    4.1505 C   0  0  0  1  0  0  0  0  0  0  0  0
    2.4870    5.4013   -0.1622 C   0  0  0  1  0  0  0  0  0  0  0  0
   -0.1005    4.4844    5.3126 C   0  0  0  1  0  0  0  0  0  0  0  0
    0.0456    2.3016    4.3357 O   0  0  0  1  0  0  0  0  0  0  0  0
    2.1888    4.4533    1.6987 H   0  0  0  1  0  0  0  0  0  0  0  0
    3.1427    6.0861    0.3338 H   0  0  0  1  0  0  0  0  0  0  0  0
    1.7864    5.9473   -0.7587 H   0  0  0  1  0  0  0  0  0  0  0  0
    3.0596    4.7506   -0.7896 H   0  0  0  1  0  0  0  0  0  0  0  0
    0.4887    5.3463    5.0785 H   0  0  0  1  0  0  0  0  0  0  0  0
    0.2924    4.0113    6.1882 H   0  0  0  1  0  0  0  0  0  0  0  0
   -1.1126    4.7823    5.4912 H   0  0  0  1  0  0  0  0  0  0  0  0
   -5.4422    6.7607    0.9880 N   0  3  0  1  0  0  0  0  0  0  0  0
   -5.9376    7.0600    2.0277 O   0  0  0  1  0  0  0  0  0  0  0  0
   -5.7387    7.1990   -0.2431 O   0  5  0  1  0  0  0  0  0  0  0  0
   -4.4294    5.7404    1.0699 C   0  0  0  1  0  0  0  0  0  0  0  0
   -3.6189    5.4846   -0.0200 C   0  0  0  1  0  0  0  0  0  0  0  0
   -2.6398    4.5064    0.0586 C   0  0  0  1  0  0  0  0  0  0  0  0
   -2.4778    3.7832    1.2252 C   0  0  0  1  0  0  0  0  0  0  0  0
   -3.2906    4.0397    2.3184 C   0  0  0  1  0  0  0  0  0  0  0  0
   -4.2667    5.0149    2.2398 C   0  0  0  1  0  0  0  0  0  0  0  0
   -1.4150    2.7133    1.3097 C   0  0  0  1  0  0  0  0  0  0  0  0
   -3.7436    6.0260   -0.8992 H   0  0  0  1  0  0  0  0  0  0  0  0
   -2.0273    4.3167   -0.7602 H   0  0  0  1  0  0  0  0  0  0  0  0
   -3.1659    3.4982    3.1975 H   0  0  0  1  0  0  0  0  0  0  0  0
   -4.8792    5.2046    3.0586 H   0  0  0  1  0  0  0  0  0  0  0  0
   -1.7196    1.9872    2.0342 H   0  0  0  1  0  0  0  0  0  0  0  0
   -1.3254    2.2458    0.3514 H   0  0  0  1  0  0  0  0  0  0  0  0
  1  4  1  0  0  0  0
  2  4  1  0  0  0  0
  2  5  2  0  0  0  0
  2  6  1  0  0  0  0
  3  4  1  0  0  0  0
  3  7  1  0  0  0  0
  3  8  1  0  0  0  0
  4 28  1  0  0  0  0
  6  9  1  0  0  0  0
  6 12  1  0  0  0  0
  8 10  1  0  0  0  0
  8 11  2  0  0  0  0
  9 13  1  0  0  0  0
  9 14  1  0  0  0  0
  9 15  1  0  0  0  0
 10 16  1  0  0  0  0
 10 17  1  0  0  0  0
 10 18  1  0  0  0  0
 19 20  2  0  0  0  0
 19 21  1  0  0  0  0
 19 22  1  0  0  0  0
 22 23  4  0  0  0  0
 22 27  4  0  0  0  0
 23 24  4  0  0  0  0
 23 29  1  0  0  0  0
 24 25  4  0  0  0  0
 24 30  1  0  0  0  0
 25 26  4  0  0  0  0
 25 28  1  0  0  0  0
 26 27  4  0  0  0  0
 26 31  1  0  0  0  0
 27 32  1  0  0  0  0
 28 33  1  0  0  0  0
 28 34  1  0  0  0  0
M  END
> <BCLConfClusterSize>
1

> <ConfClashScore>
0 

> <ConfOneFourInteractionScore>
-0.97007 

> <ConfScore>
0.234546 

> <ConfScorePBest>
0.00259338 

> <ConfTolerance>
1.08522 

> <RosettaParamsInstructions>
M  ROOT 3
M  POLY_N_BB 3
M  POLY_CA_BB 4
M  POLY_C_BB 2
M  POLY_O_BB 5
M  POLY_IGNORE 9 10 11 12 13 14 15 16 17 18 
M  POLY_UPPER 6
M  POLY_LOWER 8
M  POLY_CHG 0
M  POLY_PROPERTIES ALPHA_AA L_AA PROTEIN AROMATIC POLYMER 
M  END

$$$$



 34 34  0  0  0  0  0  0  0  0999 V2000
   -1.2496    2.2051   -0.7259 H   0  0  0  1  0  0  0  0  0  0  0  0
   -0.4486    0.5880    0.3622 C   0  0  0  1  0  0  0  0  0  0  0  0
   -2.8406    1.1775    0.0778 N   0  0  0  1  0  0  0  0  0  0  0  0
   -1.4839    1.6932    0.1840 C   0  0  0  1  0  0  0  0  0  0  0  0
   -0.7057   -0.4368    0.9721 O   0  0  0  1  0  0  0  0  0  0  0  0
    0.7281    0.8594   -0.2043 N   0  0  0  1  0  0  0  0  0  0  0  0
   -3.3654    1.3884   -0.7225 H   0  0  0  1  0  0  0  0  0  0  0  0
   -3.3955    0.4265    1.0334 C   0  0  0  1  0  0  0  0  0  0  0  0
    1.9303    0.0529   -0.0553 C   0  0  0  1  0  0  0  0  0  0  0  0
   -4.8592    0.0838    0.8350 C   0  0  0  1  0  0  0  0  0  0  0  0
   -2.7798    0.0324    2.0101 O   0  0  0  1  0  0  0  0  0  0  0  0
    0.7876    1.6624   -0.7629 H   0  0  0  1  0  0  0  0  0  0  0  0
    2.7918    0.6868   -0.0861 H   0  0  0  1  0  0  0  0  0  0  0  0
    1.9830   -0.6590   -0.8524 H   0  0  0  1  0  0  0  0  0  0  0  0
    1.9001   -0.4621    0.8821 H   0  0  0  1  0  0  0  0  0  0  0  0
   -5.2548   -0.3302    1.7389 H   0  0  0  1  0  0  0  0  0  0  0  0
   -4.9540   -0.6309    0.0444 H   0  0  0  1  0  0  0  0  0  0  0  0
   -5.4018    0.9706    0.5818 H   0  0  0  1  0  0  0  0  0  0  0  0
   -5.4457    6.7425    0.9866 N   0  3  0  1  0  0  0  0  0  0  0  0
   -6.0529    7.0342    1.9676 O   0  0  0  1  0  0  0  0  0  0  0  0
   -5.6867    7.3366   -0.1901 O   0  5  0  1  0  0  0  0  0  0  0  0
   -4.4284    5.7267    1.0695 C   0  0  0  1  0  0  0  0  0  0  0  0
   -3.6261    5.4636   -0.0247 C   0  0  0  1  0  0  0  0  0  0  0  0
   -2.6428    4.4898    0.0548 C   0  0  0  1  0  0  0  0  0  0  0  0
   -2.4683    3.7782    1.2267 C   0  0  0  1  0  0  0  0  0  0  0  0
   -3.2728    4.0420    2.3243 C   0  0  0  1  0  0  0  0  0  0  0  0
   -4.2532    5.0129    2.2448 C   0  0  0  1  0  0  0  0  0  0  0  0
   -1.4009    2.7130    1.3123 C   0  0  0  1  0  0  0  0  0  0  0  0
   -3.7602    5.9963   -0.9078 H   0  0  0  1  0  0  0  0  0  0  0  0
   -2.0364    4.2947   -0.7673 H   0  0  0  1  0  0  0  0  0  0  0  0
   -3.1388    3.5093    3.2074 H   0  0  0  1  0  0  0  0  0  0  0  0
   -4.8596    5.2080    3.0669 H   0  0  0  1  0  0  0  0  0  0  0  0
   -0.4425    3.1872    1.2729 H   0  0  0  1  0  0  0  0  0  0  0  0
   -1.5069    2.1987    2.2446 H   0  0  0  1  0  0  0  0  0  0  0  0
  1  4  1  0  0  0  0
  2  4  1  0  0  0  0
  2  5  2  0  0  0  0
  2  6  1  0  0  0  0
  3  4  1  0  0  0  0
  3  7  1  0  0  0  0
  3  8  1  0  0  0  0
  4 28  1  0  0  0  0
  6  9  1  0  0  0  0
  6 12  1  0  0  0  0
  8 10  1  0  0  0  0
  8 11  2  0  0  0  0
  9 13  1  0  0  0  0
  9 14  1  0  0  0  0
  9 15  1  0  0  0  0
 10 16  1  0  0  0  0
 10 17  1  0  0  0  0
 10 18  1  0  0  0  0
 19 20  2  0  0  0  0
 19 21  1  0  0  0  0
 19 22  1  0  0  0  0
 22 23  4  0  0  0  0
 22 27  4  0  0  0  0
 23 24  4  0  0  0  0
 23 29  1  0  0  0  0
 24 25  4  0  0  0  0
 24 30  1  0  0  0  0
 25 26  4  0  0  0  0
 25 28  1  0  0  0  0
 26 27  4  0  0  0  0
 26 31  1  0  0  0  0
 27 32  1  0  0  0  0
 28 33  1  0  0  0  0
 28 34  1  0  0  0  0
M  END
> <BCLConfClusterSize>
1

> <ConfClashScore>
0 

> <ConfOneFourInteractionScore>
-0.984592 

> <ConfScore>
0.244463 

> <ConfScorePBest>
0.0025649 

> <ConfTolerance>
0.591866 

> <RosettaParamsInstructions>
M  ROOT 3
M  POLY_N_BB 3
M  POLY_CA_BB 4
M  POLY_C_BB 2
M  POLY_O_BB 5
M  POLY_IGNORE 9 10 11 12 13 14 15 16 17 18 
M  POLY_UPPER 6
M  POLY_LOWER 8
M  POLY_CHG 0
M  POLY_PROPERTIES ALPHA_AA L_AA PROTEIN AROMATIC POLYMER 
M  END

$$$$



 34 34  0  0  0  0  0  0  0  0999 V2000
   -0.5444    4.2103    2.6061 H   0  0  0  1  0  0  0  0  0  0  0  0
   -0.7029    2.4822    3.7708 C   0  0  0  1  0  0  0  0  0  0  0  0
    1.0079    3.0070    2.0593 N   0  0  0  1  0  0  0  0  0  0  0  0
   -0.3881    3.1646    2.4416 C   0  0  0  1  0  0  0  0  0  0  0  0
   -0.2390    1.3768    4.0464 O   0  0  0  1  0  0  0  0  0  0  0  0
   -1.5068    3.1636    4.5993 N   0  0  0  1  0  0  0  0  0  0  0  0
    1.5184    2.2344    2.3798 H   0  0  0  1  0  0  0  0  0  0  0  0
    1.6166    3.9479    1.2427 C   0  0  0  1  0  0  0  0  0  0  0  0
   -1.9733    2.6085    5.8610 C   0  0  0  1  0  0  0  0  0  0  0  0
    3.1096    3.8691    1.0170 C   0  0  0  1  0  0  0  0  0  0  0  0
    0.9251    4.8102    0.7322 O   0  0  0  1  0  0  0  0  0  0  0  0
   -1.7902    4.0670    4.3465 H   0  0  0  1  0  0  0  0  0  0  0  0
   -2.3273    1.6111    5.7033 H   0  0  0  1  0  0  0  0  0  0  0  0
   -2.7691    3.2128    6.2438 H   0  0  0  1  0  0  0  0  0  0  0  0
   -1.1666    2.5933    6.5637 H   0  0  0  1  0  0  0  0  0  0  0  0
    3.6139    4.4564    1.7557 H   0  0  0  1  0  0  0  0  0  0  0  0
    3.3431    4.2446    0.0427 H   0  0  0  1  0  0  0  0  0  0  0  0
    3.4282    2.8505    1.0930 H   0  0  0  1  0  0  0  0  0  0  0  0
   -5.4177    6.7519    0.9143 N   0  3  0  1  0  0  0  0  0  0  0  0
   -5.5720    7.2312   -0.1639 O   0  0  0  1  0  0  0  0  0  0  0  0
   -6.1194    7.1230    1.9939 O   0  5  0  1  0  0  0  0  0  0  0  0
   -4.4335    5.7282    1.0642 C   0  0  0  1  0  0  0  0  0  0  0  0
   -3.6470    5.4402   -0.0352 C   0  0  0  1  0  0  0  0  0  0  0  0
   -2.6702    4.4602    0.0489 C   0  0  0  1  0  0  0  0  0  0  0  0
   -2.4865    3.7674    1.2307 C   0  0  0  1  0  0  0  0  0  0  0  0
   -3.2753    4.0562    2.3334 C   0  0  0  1  0  0  0  0  0  0  0  0
   -4.2491    5.0333    2.2493 C   0  0  0  1  0  0  0  0  0  0  0  0
   -1.3606    2.7664    1.3391 C   0  0  0  1  0  0  0  0  0  0  0  0
   -3.7880    5.9587   -0.9256 H   0  0  0  1  0  0  0  0  0  0  0  0
   -2.0756    4.2463   -0.7772 H   0  0  0  1  0  0  0  0  0  0  0  0
   -3.1343    3.5377    3.2238 H   0  0  0  1  0  0  0  0  0  0  0  0
   -4.8437    5.2472    3.0754 H   0  0  0  1  0  0  0  0  0  0  0  0
   -1.7684    1.8026    1.5622 H   0  0  0  1  0  0  0  0  0  0  0  0
   -0.8366    2.7254    0.4070 H   0  0  0  1  0  0  0  0  0  0  0  0
  1  4  1  0  0  0  0
  2  4  1  0  0  0  0
  2  5  2  0  0  0  0
  2  6  1  0  0  0  0
  3  4  1  0  0  0  0
  3  7  1  0  0  0  0
  3  8  1  0  0  0  0
  4 28  1  0  0  0  0
  6  9  1  0  0  0  0
  6 12  1  0  0  0  0
  8 10  1  0  0  0  0
  8 11  2  0  0  0  0
  9 13  1  0  0  0  0
  9 14  1  0  0  0  0
  9 15  1  0  0  0  0
 10 16  1  0  0  0  0
 10 17  1  0  0  0  0
 10 18  1  0  0  0  0
 19 20  2  0  0  0  0
 19 21  1  0  0  0  0
 19 22  1  0  0  0  0
 22 23  4  0  0  0  0
 22 27  4  0  0  0  0
 23 24  4  0  0  0  0
 23 29  1  0  0  0  0
 24 25  4  0  0  0  0
 24 30  1  0  0  0  0
 25 26  4  0  0  0  0
 25 28  1  0  0  0  0
 26 27  4  0  0  0  0
 26 31  1  0  0  0  0
 27 32  1  0  0  0  0
 28 33  1  0  0  0  0
 28 34  1  0  0  0  0
M  END
> <BCLConfClusterSize>
1

> <ConfClashScore>
0 

> <ConfOneFourInteractionScore>
-0.979018 

> <ConfScore>
0.255815 

> <ConfScorePBest>
0.00253641 

> <ConfTolerance>
0.913677 

> <RosettaParamsInstructions>
M  ROOT 3
M  POLY_N_BB 3
M  POLY_CA_BB 4
M  POLY_C_BB 2
M  POLY_O_BB 5
M  POLY_IGNORE 9 10 11 12 13 14 15 16 17 18 
M  POLY_UPPER 6
M  POLY_LOWER 8
M  POLY_CHG 0
M  POLY_PROPERTIES ALPHA_AA L_AA PROTEIN AROMATIC POLYMER 
M  END

$$$$



 34 34  0  0  0  0  0  0  0  0999 V2000
    0.2488    4.0415    1.0780 H   0  0  0  1  0  0  0  0  0  0  0  0
   -0.0411    3.6700    3.1605 C   0  0  0  1  0  0  0  0  0  0  0  0
    0.9254    2.1205    1.5182 N   0  0  0  1  0  0  0  0  0  0  0  0
   -0.0170    3.2141    1.7022 C   0  0  0  1  0  0  0  0  0  0  0  0
   -1.0706    4.1017    3.6776 O   0  0  0  1  0  0  0  0  0  0  0  0
    1.1219    3.5668    3.8231 N   0  0  0  1  0  0  0  0  0  0  0  0
    1.7323    2.2763    0.9843 H   0  0  0  1  0  0  0  0  0  0  0  0
    0.7287    0.9115    2.0518 C   0  0  0  1  0  0  0  0  0  0  0  0
    1.2701    3.7886    5.2537 C   0  0  0  1  0  0  0  0  0  0  0  0
    1.7856   -0.1284    1.7345 C   0  0  0  1  0  0  0  0  0  0  0  0
   -0.2416    0.6407    2.7580 O   0  0  0  1  0  0  0  0  0  0  0  0
    1.9221    3.3267    3.3107 H   0  0  0  1  0  0  0  0  0  0  0  0
    0.3324    3.6193    5.7404 H   0  0  0  1  0  0  0  0  0  0  0  0
    1.5849    4.7964    5.4274 H   0  0  0  1  0  0  0  0  0  0  0  0
    2.0020    3.1133    5.6452 H   0  0  0  1  0  0  0  0  0  0  0  0
    1.3139   -1.0185    1.3736 H   0  0  0  1  0  0  0  0  0  0  0  0
    2.3413   -0.3538    2.6206 H   0  0  0  1  0  0  0  0  0  0  0  0
    2.4474    0.2531    0.9852 H   0  0  0  1  0  0  0  0  0  0  0  0
   -5.4514    6.7403    0.9855 N   0  3  0  1  0  0  0  0  0  0  0  0
   -6.1745    6.8902    1.9187 O   0  0  0  1  0  0  0  0  0  0  0  0
   -5.5365    7.4660   -0.1378 O   0  5  0  1  0  0  0  0  0  0  0  0
   -4.4325    5.7262    1.0689 C   0  0  0  1  0  0  0  0  0  0  0  0
   -3.6445    5.4486   -0.0322 C   0  0  0  1  0  0  0  0  0  0  0  0
   -2.6595    4.4765    0.0476 C   0  0  0  1  0  0  0  0  0  0  0  0
   -2.4690    3.7811    1.2268 C   0  0  0  1  0  0  0  0  0  0  0  0
   -3.2592    4.0594    2.3312 C   0  0  0  1  0  0  0  0  0  0  0  0
   -4.2412    5.0287    2.2514 C   0  0  0  1  0  0  0  0  0  0  0  0
   -1.3999    2.7177    1.3128 C   0  0  0  1  0  0  0  0  0  0  0  0
   -3.7906    5.9691   -0.9207 H   0  0  0  1  0  0  0  0  0  0  0  0
   -2.0640    4.2704   -0.7797 H   0  0  0  1  0  0  0  0  0  0  0  0
   -3.1131    3.5390    3.2196 H   0  0  0  1  0  0  0  0  0  0  0  0
   -4.8368    5.2347    3.0787 H   0  0  0  1  0  0  0  0  0  0  0  0
   -1.7089    1.9970    2.0408 H   0  0  0  1  0  0  0  0  0  0  0  0
   -1.3241    2.2475    0.3546 H   0  0  0  1  0  0  0  0  0  0  0  0
  1  4  1  0  0  0  0
  2  4  1  0  0  0  0
  2  5  2  0  0  0  0
  2  6  1  0  0  0  0
  3  4  1  0  0  0  0
  3  7  1  0  0  0  0
  3  8  1  0  0  0  0
  4 28  1  0  0  0  0
  6  9  1  0  0  0  0
  6 12  1  0  0  0  0
  8 10  1  0  0  0  0
  8 11  2  0  0  0  0
  9 13  1  0  0  0  0
  9 14  1  0  0  0  0
  9 15  1  0  0  0  0
 10 16  1  0  0  0  0
 10 17  1  0  0  0  0
 10 18  1  0  0  0  0
 19 20  2  0  0  0  0
 19 21  1  0  0  0  0
 19 22  1  0  0  0  0
 22 23  4  0  0  0  0
 22 27  4  0  0  0  0
 23 24  4  0  0  0  0
 23 29  1  0  0  0  0
 24 25  4  0  0  0  0
 24 30  1  0  0  0  0
 25 26  4  0  0  0  0
 25 28  1  0  0  0  0
 26 27  4  0  0  0  0
 26 31  1  0  0  0  0
 27 32  1  0  0  0  0
 28 33  1  0  0  0  0
 28 34  1  0  0  0  0
M  END
> <BCLConfClusterSize>
1

> <ConfClashScore>
0 

> <ConfOneFourInteractionScore>
-0.956972 

> <ConfScore>
0.264147 

> <ConfScorePBest>
0.00250793 

> <ConfTolerance>
0.48493 

> <RosettaParamsInstructions>
M  ROOT 3
M  POLY_N_BB 3
M  POLY_CA_BB 4
M  POLY_C_BB 2
M  POLY_O_BB 5
M  POLY_IGNORE 9 10 11 12 13 14 15 16 17 18 
M  POLY_UPPER 6
M  POLY_LOWER 8
M  POLY_CHG 0
M  POLY_PROPERTIES ALPHA_AA L_AA PROTEIN AROMATIC POLYMER 
M  END

$$$$



 34 34  0  0  0  0  0  0  0  0999 V2000
    0.0926    4.2334    0.8252 H   0  0  0  1  0  0  0  0  0  0  0  0
    0.0901    4.0838    2.9381 C   0  0  0  1  0  0  0  0  0  0  0  0
    1.0940    2.5061    1.3638 N   0  0  0  1  0  0  0  0  0  0  0  0
    0.0047    3.4526    1.5516 C   0  0  0  1  0  0  0  0  0  0  0  0
   -0.8266    4.7238    3.4203 O   0  0  0  1  0  0  0  0  0  0  0  0
    1.2085    3.9317    3.6530 N   0  0  0  1  0  0  0  0  0  0  0  0
    1.1751    1.7497    1.9817 H   0  0  0  1  0  0  0  0  0  0  0  0
    1.9873    2.6323    0.3784 C   0  0  0  1  0  0  0  0  0  0  0  0
    1.3122    4.3700    5.0368 C   0  0  0  1  0  0  0  0  0  0  0  0
    2.9251    1.4492    0.1594 C   0  0  0  1  0  0  0  0  0  0  0  0
    2.0098    3.6074   -0.3711 O   0  0  0  1  0  0  0  0  0  0  0  0
    1.9861    3.5104    3.2308 H   0  0  0  1  0  0  0  0  0  0  0  0
    0.6396    3.8002    5.6433 H   0  0  0  1  0  0  0  0  0  0  0  0
    1.0589    5.4076    5.1020 H   0  0  0  1  0  0  0  0  0  0  0  0
    2.3143    4.2246    5.3826 H   0  0  0  1  0  0  0  0  0  0  0  0
    2.3512    0.5508    0.0677 H   0  0  0  1  0  0  0  0  0  0  0  0
    3.5909    1.3633    0.9926 H   0  0  0  1  0  0  0  0  0  0  0  0
    3.4908    1.6037   -0.7355 H   0  0  0  1  0  0  0  0  0  0  0  0
   -5.4223    6.7576    0.9458 N   0  3  0  1  0  0  0  0  0  0  0  0
   -5.9113    7.0234   -0.1060 O   0  0  0  1  0  0  0  0  0  0  0  0
   -5.7299    7.4429    2.0554 O   0  5  0  1  0  0  0  0  0  0  0  0
   -4.4780    5.6733    1.0244 C   0  0  0  1  0  0  0  0  0  0  0  0
   -3.6998    5.3683   -0.0764 C   0  0  0  1  0  0  0  0  0  0  0  0
   -2.6842    4.4310    0.0308 C   0  0  0  1  0  0  0  0  0  0  0  0
   -2.4533    3.7975    1.2374 C   0  0  0  1  0  0  0  0  0  0  0  0
   -3.2336    4.1034    2.3415 C   0  0  0  1  0  0  0  0  0  0  0  0
   -4.2461    5.0379    2.2343 C   0  0  0  1  0  0  0  0  0  0  0  0
   -1.3506    2.7718    1.3536 C   0  0  0  1  0  0  0  0  0  0  0  0
   -3.8763    5.8420   -0.9853 H   0  0  0  1  0  0  0  0  0  0  0  0
   -2.0961    4.2044   -0.7964 H   0  0  0  1  0  0  0  0  0  0  0  0
   -3.0571    3.6296    3.2503 H   0  0  0  1  0  0  0  0  0  0  0  0
   -4.8342    5.2645    3.0616 H   0  0  0  1  0  0  0  0  0  0  0  0
   -1.5496    2.1362    2.1910 H   0  0  0  1  0  0  0  0  0  0  0  0
   -1.3212    2.1854    0.4591 H   0  0  0  1  0  0  0  0  0  0  0  0
  1  4  1  0  0  0  0
  2  4  1  0  0  0  0
  2  5  2  0  0  0  0
  2  6  1  0  0  0  0
  3  4  1  0  0  0  0
  3  7  1  0  0  0  0
  3  8  1  0  0  0  0
  4 28  1  0  0  0  0
  6  9  1  0  0  0  0
  6 12  1  0  0  0  0
  8 10  1  0  0  0  0
  8 11  2  0  0  0  0
  9 13  1  0  0  0  0
  9 14  1  0  0  0  0
  9 15  1  0  0  0  0
 10 16  1  0  0  0  0
 10 17  1  0  0  0  0
 10 18  1  0  0  0  0
 19 20  2  0  0  0  0
 19 21  1  0  0  0  0
 19 22  1  0  0  0  0
 22 23  4  0  0  0  0
 22 27  4  0  0  0  0
 23 24  4  0  0  0  0
 23 29  1  0  0  0  0
 24 25  4  0  0  0  0
 24 30  1  0  0  0  0
 25 26  4  0  0  0  0
 25 28  1  0  0  0  0
 26 27  4  0  0  0  0
 26 31  1  0  0  0  0
 27 32  1  0  0  0  0
 28 33  1  0  0  0  0
 28 34  1  0  0  0  0
M  END
> <BCLConfClusterSize>
1

> <ConfClashScore>
0 

> <ConfOneFourInteractionScore>
-0.965014 

> <ConfScore>
0.268186 

> <ConfScorePBest>
0.00247945 

> <ConfTolerance>
0.92939 

> <RosettaParamsInstructions>
M  ROOT 3
M  POLY_N_BB 3
M  POLY_CA_BB 4
M  POLY_C_BB 2
M  POLY_O_BB 5
M  POLY_IGNORE 9 10 11 12 13 14 15 16 17 18 
M  POLY_UPPER 6
M  POLY_LOWER 8
M  POLY_CHG 0
M  POLY_PROPERTIES ALPHA_AA L_AA PROTEIN AROMATIC POLYMER 
M  END

$$$$



 34 34  0  0  0  0  0  0  0  0999 V2000
    0.0249    3.7134    2.5293 H   0  0  0  1  0  0  0  0  0  0  0  0
    1.0275    2.1819    1.4468 C   0  0  0  1  0  0  0  0  0  0  0  0
    0.2917    4.3553    0.5700 N   0  0  0  1  0  0  0  0  0  0  0  0
    0.0000    3.3059    1.5402 C   0  0  0  1  0  0  0  0  0  0  0  0
    2.1992    2.4333    1.1704 O   0  0  0  1  0  0  0  0  0  0  0  0
    0.5777    0.9340    1.5867 N   0  0  0  1  0  0  0  0  0  0  0  0
    0.4868    5.2590    0.8951 H   0  0  0  1  0  0  0  0  0  0  0  0
    0.3019    4.1277   -0.7443 C   0  0  0  1  0  0  0  0  0  0  0  0
    1.4204   -0.2304    1.3388 C   0  0  0  1  0  0  0  0  0  0  0  0
    0.5456    5.3657   -1.6166 C   0  0  0  1  0  0  0  0  0  0  0  0
    0.0620    3.0326   -1.2510 O   0  0  0  1  0  0  0  0  0  0  0  0
   -0.3514    0.7946    1.8658 H   0  0  0  1  0  0  0  0  0  0  0  0
    0.8199   -1.0325    0.9634 H   0  0  0  1  0  0  0  0  0  0  0  0
    1.8882   -0.5328    2.2524 H   0  0  0  1  0  0  0  0  0  0  0  0
    2.1713    0.0198    0.6188 H   0  0  0  1  0  0  0  0  0  0  0  0
    1.5439    5.7194   -1.4638 H   0  0  0  1  0  0  0  0  0  0  0  0
   -0.1495    6.1334   -1.3479 H   0  0  0  1  0  0  0  0  0  0  0  0
    0.4126    5.1078   -2.6465 H   0  0  0  1  0  0  0  0  0  0  0  0
   -5.4601    6.7378    1.0061 N   0  3  0  1  0  0  0  0  0  0  0  0
   -6.1752    6.8375    1.9521 O   0  0  0  1  0  0  0  0  0  0  0  0
   -5.5159    7.4765   -0.1105 O   0  5  0  1  0  0  0  0  0  0  0  0
   -4.4306    5.7319    1.0489 C   0  0  0  1  0  0  0  0  0  0  0  0
   -3.6371    5.4417   -0.0449 C   0  0  0  1  0  0  0  0  0  0  0  0
   -2.6556    4.4674    0.0497 C   0  0  0  1  0  0  0  0  0  0  0  0
   -2.4741    3.7824    1.2364 C   0  0  0  1  0  0  0  0  0  0  0  0
   -3.2699    4.0734    2.3335 C   0  0  0  1  0  0  0  0  0  0  0  0
   -4.2484    5.0448    2.2390 C   0  0  0  1  0  0  0  0  0  0  0  0
   -1.3947    2.7269    1.2832 C   0  0  0  1  0  0  0  0  0  0  0  0
   -3.7764    5.9543   -0.9390 H   0  0  0  1  0  0  0  0  0  0  0  0
   -2.0559    4.2518   -0.7721 H   0  0  0  1  0  0  0  0  0  0  0  0
   -3.1306    3.5608    3.2276 H   0  0  0  1  0  0  0  0  0  0  0  0
   -4.8481    5.2604    3.0609 H   0  0  0  1  0  0  0  0  0  0  0  0
   -1.6269    2.0370    2.0675 H   0  0  0  1  0  0  0  0  0  0  0  0
   -1.3819    2.2111    0.3459 H   0  0  0  1  0  0  0  0  0  0  0  0
  1  4  1  0  0  0  0
  2  4  1  0  0  0  0
  2  5  2  0  0  0  0
  2  6  1  0  0  0  0
  3  4  1  0  0  0  0
  3  7  1  0  0  0  0
  3  8  1  0  0  0  0
  4 28  1  0  0  0  0
  6  9  1  0  0  0  0
  6 12  1  0  0  0  0
  8 10  1  0  0  0  0
  8 11  2  0  0  0  0
  9 13  1  0  0  0  0
  9 14  1  0  0  0  0
  9 15  1  0  0  0  0
 10 16  1  0  0  0  0
 10 17  1  0  0  0  0
 10 18  1  0  0  0  0
 19 20  2  0  0  0  0
 19 21  1  0  0  0  0
 19 22  1  0  0  0  0
 22 23  4  0  0  0  0
 22 27  4  0  0  0  0
 23 24  4  0  0  0  0
 23 29  1  0  0  0  0
 24 25  4  0  0  0  0
 24 30  1  0  0  0  0
 25 26  4  0  0  0  0
 25 28  1  0  0  0  0
 26 27  4  0  0  0  0
 26 31  1  0  0  0  0
 27 32  1  0  0  0  0
 28 33  1  0  0  0  0
 28 34  1  0  0  0  0
M  END
> <BCLConfClusterSize>
1

> <ConfClashScore>
0 

> <ConfOneFourInteractionScore>
-0.933542 

> <ConfScore>
0.271166 

> <ConfScorePBest>
0.00245097 

> <ConfTolerance>
0.880601 

> <RosettaParamsInstructions>
M  ROOT 3
M  POLY_N_BB 3
M  POLY_CA_BB 4
M  POLY_C_BB 2
M  POLY_O_BB 5
M  POLY_IGNORE 9 10 11 12 13 14 15 16 17 18 
M  POLY_UPPER 6
M  POLY_LOWER 8
M  POLY_CHG 0
M  POLY_PROPERTIES ALPHA_AA L_AA PROTEIN AROMATIC POLYMER 
M  END

$$$$



 34 34  0  0  0  0  0  0  0  0999 V2000
   -0.1277    4.0038    2.5738 H   0  0  0  1  0  0  0  0  0  0  0  0
    1.0112    2.3107    2.0750 C   0  0  0  1  0  0  0  0  0  0  0  0
    0.4635    4.2324    0.6154 N   0  0  0  1  0  0  0  0  0  0  0  0
    0.0065    3.3862    1.7104 C   0  0  0  1  0  0  0  0  0  0  0  0
    1.2620    1.9609    3.2136 O   0  0  0  1  0  0  0  0  0  0  0  0
    1.6151    1.7635    1.0163 N   0  0  0  1  0  0  0  0  0  0  0  0
    0.4984    3.8573   -0.2894 H   0  0  0  1  0  0  0  0  0  0  0  0
    0.8483    5.5418    0.8079 C   0  0  0  1  0  0  0  0  0  0  0  0
    2.5745    0.6767    1.1442 C   0  0  0  1  0  0  0  0  0  0  0  0
    1.4109    6.2438   -0.3935 C   0  0  0  1  0  0  0  0  0  0  0  0
    0.7229    6.0600    1.9014 O   0  0  0  1  0  0  0  0  0  0  0  0
    1.4047    2.1058    0.1225 H   0  0  0  1  0  0  0  0  0  0  0  0
    2.2405   -0.1637    0.5724 H   0  0  0  1  0  0  0  0  0  0  0  0
    2.6602    0.3962    2.1732 H   0  0  0  1  0  0  0  0  0  0  0  0
    3.5282    0.9986    0.7811 H   0  0  0  1  0  0  0  0  0  0  0  0
    2.1544    6.9469   -0.0808 H   0  0  0  1  0  0  0  0  0  0  0  0
    0.6254    6.7597   -0.9051 H   0  0  0  1  0  0  0  0  0  0  0  0
    1.8539    5.5254   -1.0511 H   0  0  0  1  0  0  0  0  0  0  0  0
   -5.3989    6.7874    0.9788 N   0  3  0  1  0  0  0  0  0  0  0  0
   -4.9847    7.9017    0.9262 O   0  0  0  1  0  0  0  0  0  0  0  0
   -6.7043    6.4857    0.9969 O   0  5  0  1  0  0  0  0  0  0  0  0
   -4.4469    5.7080    1.0256 C   0  0  0  1  0  0  0  0  0  0  0  0
   -3.5623    5.5077   -0.0174 C   0  0  0  1  0  0  0  0  0  0  0  0
   -2.5757    4.5395    0.0867 C   0  0  0  1  0  0  0  0  0  0  0  0
   -2.4800    3.7709    1.2314 C   0  0  0  1  0  0  0  0  0  0  0  0
   -3.3670    3.9717    2.2775 C   0  0  0  1  0  0  0  0  0  0  0  0
   -4.3507    4.9370    2.1736 C   0  0  0  1  0  0  0  0  0  0  0  0
   -1.3465    2.7824    1.3713 C   0  0  0  1  0  0  0  0  0  0  0  0
   -3.6370    6.0833   -0.8803 H   0  0  0  1  0  0  0  0  0  0  0  0
   -1.9076    4.3915   -0.6965 H   0  0  0  1  0  0  0  0  0  0  0  0
   -3.2924    3.3960    3.1404 H   0  0  0  1  0  0  0  0  0  0  0  0
   -5.0187    5.0850    2.9567 H   0  0  0  1  0  0  0  0  0  0  0  0
   -1.6041    2.0926    2.1476 H   0  0  0  1  0  0  0  0  0  0  0  0
   -1.2505    2.2570    0.4441 H   0  0  0  1  0  0  0  0  0  0  0  0
  1  4  1  0  0  0  0
  2  4  1  0  0  0  0
  2  5  2  0  0  0  0
  2  6  1  0  0  0  0
  3  4  1  0  0  0  0
  3  7  1  0  0  0  0
  3  8  1  0  0  0  0
  4 28  1  0  0  0  0
  6  9  1  0  0  0  0
  6 12  1  0  0  0  0
  8 10  1  0  0  0  0
  8 11  2  0  0  0  0
  9 13  1  0  0  0  0
  9 14  1  0  0  0  0
  9 15  1  0  0  0  0
 10 16  1  0  0  0  0
 10 17  1  0  0  0  0
 10 18  1  0  0  0  0
 19 20  2  0  0  0  0
 19 21  1  0  0  0  0
 19 22  1  0  0  0  0
 22 23  4  0  0  0  0
 22 27  4  0  0  0  0
 23 24  4  0  0  0  0
 23 29  1  0  0  0  0
 24 25  4  0  0  0  0
 24 30  1  0  0  0  0
 25 26  4  0  0  0  0
 25 28  1  0  0  0  0
 26 27  4  0  0  0  0
 26 31  1  0  0  0  0
 27 32  1  0  0  0  0
 28 33  1  0  0  0  0
 28 34  1  0  0  0  0
M  END
> <BCLConfClusterSize>
1

> <ConfClashScore>
0 

> <ConfOneFourInteractionScore>
-0.956443 

> <ConfScore>
0.278682 

> <ConfScorePBest>
0.00242249 

> <ConfTolerance>
0.94636 

> <RosettaParamsInstructions>
M  ROOT 3
M  POLY_N_BB 3
M  POLY_CA_BB 4
M  POLY_C_BB 2
M  POLY_O_BB 5
M  POLY_IGNORE 9 10 11 12 13 14 15 16 17 18 
M  POLY_UPPER 6
M  POLY_LOWER 8
M  POLY_CHG 0
M  POLY_PROPERTIES ALPHA_AA L_AA PROTEIN AROMATIC POLYMER 
M  END

$$$$



 34 34  0  0  0  0  0  0  0  0999 V2000
    0.3198    3.7980    1.2640 H   0  0  0  1  0  0  0  0  0  0  0  0
   -0.3928    3.9598    3.2335 C   0  0  0  1  0  0  0  0  0  0  0  0
    0.7412    2.0179    2.2049 N   0  0  0  1  0  0  0  0  0  0  0  0
   -0.1455    3.1490    1.9762 C   0  0  0  1  0  0  0  0  0  0  0  0
   -0.9092    3.4532    4.2287 O   0  0  0  1  0  0  0  0  0  0  0  0
   -0.0139    5.2466    3.1815 N   0  0  0  1  0  0  0  0  0  0  0  0
    1.4741    1.8565    1.5746 H   0  0  0  1  0  0  0  0  0  0  0  0
    0.5909    1.1919    3.2441 C   0  0  0  1  0  0  0  0  0  0  0  0
   -0.3503    6.1990    4.2292 C   0  0  0  1  0  0  0  0  0  0  0  0
    1.6602    0.1168    3.4399 C   0  0  0  1  0  0  0  0  0  0  0  0
   -0.3993    1.2230    3.9737 O   0  0  0  1  0  0  0  0  0  0  0  0
    0.5074    5.5554    2.4112 H   0  0  0  1  0  0  0  0  0  0  0  0
   -0.5407    7.1573    3.7930 H   0  0  0  1  0  0  0  0  0  0  0  0
    0.4662    6.2760    4.9164 H   0  0  0  1  0  0  0  0  0  0  0  0
   -1.2238    5.8638    4.7485 H   0  0  0  1  0  0  0  0  0  0  0  0
    2.4262    0.2364    2.7025 H   0  0  0  1  0  0  0  0  0  0  0  0
    1.2155   -0.8511    3.3381 H   0  0  0  1  0  0  0  0  0  0  0  0
    2.0874    0.2126    4.4163 H   0  0  0  1  0  0  0  0  0  0  0  0
   -5.4492    6.7321    0.9218 N   0  3  0  1  0  0  0  0  0  0  0  0
   -5.6839    7.2768   -0.1099 O   0  0  0  1  0  0  0  0  0  0  0  0
   -6.1562    6.9772    2.0334 O   0  5  0  1  0  0  0  0  0  0  0  0
   -4.3874    5.7683    1.0536 C   0  0  0  1  0  0  0  0  0  0  0  0
   -3.6029    5.4711   -0.0448 C   0  0  0  1  0  0  0  0  0  0  0  0
   -2.6448    4.4727    0.0373 C   0  0  0  1  0  0  0  0  0  0  0  0
   -2.4777    3.7708    1.2161 C   0  0  0  1  0  0  0  0  0  0  0  0
   -3.2645    4.0687    2.3178 C   0  0  0  1  0  0  0  0  0  0  0  0
   -4.2197    5.0642    2.2358 C   0  0  0  1  0  0  0  0  0  0  0  0
   -1.4548    2.6692    1.3637 C   0  0  0  1  0  0  0  0  0  0  0  0
   -3.7314    5.9967   -0.9330 H   0  0  0  1  0  0  0  0  0  0  0  0
   -2.0517    4.2519   -0.7880 H   0  0  0  1  0  0  0  0  0  0  0  0
   -3.1360    3.5432    3.2061 H   0  0  0  1  0  0  0  0  0  0  0  0
   -4.8127    5.2850    3.0611 H   0  0  0  1  0  0  0  0  0  0  0  0
   -1.8648    1.9056    1.9912 H   0  0  0  1  0  0  0  0  0  0  0  0
   -1.2492    2.2635    0.3952 H   0  0  0  1  0  0  0  0  0  0  0  0
  1  4  1  0  0  0  0
  2  4  1  0  0  0  0
  2  5  2  0  0  0  0
  2  6  1  0  0  0  0
  3  4  1  0  0  0  0
  3  7  1  0  0  0  0
  3  8  1  0  0  0  0
  4 28  1  0  0  0  0
  6  9  1  0  0  0  0
  6 12  1  0  0  0  0
  8 10  1  0  0  0  0
  8 11  2  0  0  0  0
  9 13  1  0  0  0  0
  9 14  1  0  0  0  0
  9 15  1  0  0  0  0
 10 16  1  0  0  0  0
 10 17  1  0  0  0  0
 10 18  1  0  0  0  0
 19 20  2  0  0  0  0
 19 21  1  0  0  0  0
 19 22  1  0  0  0  0
 22 23  4  0  0  0  0
 22 27  4  0  0  0  0
 23 24  4  0  0  0  0
 23 29  1  0  0  0  0
 24 25  4  0  0  0  0
 24 30  1  0  0  0  0
 25 26  4  0  0  0  0
 25 28  1  0  0  0  0
 26 27  4  0  0  0  0
 26 31  1  0  0  0  0
 27 32  1  0  0  0  0
 28 33  1  0  0  0  0
 28 34  1  0  0  0  0
M  END
> <BCLConfClusterSize>
1

> <ConfClashScore>
0 

> <ConfOneFourInteractionScore>
-0.983211 

> <ConfScore>
0.288275 

> <ConfScorePBest>
0.00239401 

> <ConfTolerance>
0.666438 

> <RosettaParamsInstructions>
M  ROOT 3
M  POLY_N_BB 3
M  POLY_CA_BB 4
M  POLY_C_BB 2
M  POLY_O_BB 5
M  POLY_IGNORE 9 10 11 12 13 14 15 16 17 18 
M  POLY_UPPER 6
M  POLY_LOWER 8
M  POLY_CHG 0
M  POLY_PROPERTIES ALPHA_AA L_AA PROTEIN AROMATIC POLYMER 
M  END

$$$$



 34 34  0  0  0  0  0  0  0  0999 V2000
   -0.3594    3.7314    2.8431 H   0  0  0  1  0  0  0  0  0  0  0  0
    0.7918    2.0474    2.3288 C   0  0  0  1  0  0  0  0  0  0  0  0
    0.6296    4.1100    1.0775 N   0  0  0  1  0  0  0  0  0  0  0  0
   -0.1074    3.2066    1.9454 C   0  0  0  1  0  0  0  0  0  0  0  0
    2.0045    2.1240    2.2201 O   0  0  0  1  0  0  0  0  0  0  0  0
    0.1668    0.9517    2.7879 N   0  0  0  1  0  0  0  0  0  0  0  0
    0.3131    4.2480    0.1604 H   0  0  0  1  0  0  0  0  0  0  0  0
    1.7343    4.7651    1.4906 C   0  0  0  1  0  0  0  0  0  0  0  0
    0.9694   -0.2226    3.0775 C   0  0  0  1  0  0  0  0  0  0  0  0
    2.4376    5.6721    0.4997 C   0  0  0  1  0  0  0  0  0  0  0  0
    2.1599    4.6325    2.6351 O   0  0  0  1  0  0  0  0  0  0  0  0
   -0.8037    0.9447    2.9237 H   0  0  0  1  0  0  0  0  0  0  0  0
    0.5523   -0.7429    3.9143 H   0  0  0  1  0  0  0  0  0  0  0  0
    1.9704    0.0777    3.3074 H   0  0  0  1  0  0  0  0  0  0  0  0
    0.9773   -0.8682    2.2243 H   0  0  0  1  0  0  0  0  0  0  0  0
    2.5728    5.1529   -0.4261 H   0  0  0  1  0  0  0  0  0  0  0  0
    3.3919    5.9562    0.8916 H   0  0  0  1  0  0  0  0  0  0  0  0
    1.8445    6.5471    0.3343 H   0  0  0  1  0  0  0  0  0  0  0  0
   -5.4435    6.7488    1.0071 N   0  3  0  1  0  0  0  0  0  0  0  0
   -5.7184    7.3128    2.0182 O   0  0  0  1  0  0  0  0  0  0  0  0
   -6.0389    7.0049   -0.1658 O   0  5  0  1  0  0  0  0  0  0  0  0
   -4.4178    5.7390    1.0472 C   0  0  0  1  0  0  0  0  0  0  0  0
   -3.5778    5.4980   -0.0237 C   0  0  0  1  0  0  0  0  0  0  0  0
   -2.6022    4.5174    0.0675 C   0  0  0  1  0  0  0  0  0  0  0  0
   -2.4731    3.7771    1.2274 C   0  0  0  1  0  0  0  0  0  0  0  0
   -3.3154    4.0186    2.3014 C   0  0  0  1  0  0  0  0  0  0  0  0
   -4.2880    4.9963    2.2104 C   0  0  0  1  0  0  0  0  0  0  0  0
   -1.4141    2.7044    1.3254 C   0  0  0  1  0  0  0  0  0  0  0  0
   -3.6777    6.0524   -0.8979 H   0  0  0  1  0  0  0  0  0  0  0  0
   -1.9676    4.3389   -0.7368 H   0  0  0  1  0  0  0  0  0  0  0  0
   -3.2156    3.4642    3.1757 H   0  0  0  1  0  0  0  0  0  0  0  0
   -4.9227    5.1748    3.0147 H   0  0  0  1  0  0  0  0  0  0  0  0
   -1.7928    1.9062    1.9290 H   0  0  0  1  0  0  0  0  0  0  0  0
   -1.2062    2.3402    0.3411 H   0  0  0  1  0  0  0  0  0  0  0  0
  1  4  1  0  0  0  0
  2  4  1  0  0  0  0
  2  5  2  0  0  0  0
  2  6  1  0  0  0  0
  3  4  1  0  0  0  0
  3  7  1  0  0  0  0
  3  8  1  0  0  0  0
  4 28  1  0  0  0  0
  6  9  1  0  0  0  0
  6 12  1  0  0  0  0
  8 10  1  0  0  0  0
  8 11  2  0  0  0  0
  9 13  1  0  0  0  0
  9 14  1  0  0  0  0
  9 15  1  0  0  0  0
 10 16  1  0  0  0  0
 10 17  1  0  0  0  0
 10 18  1  0  0  0  0
 19 20  2  0  0  0  0
 19 21  1  0  0  0  0
 19 22  1  0  0  0  0
 22 23  4  0  0  0  0
 22 27  4  0  0  0  0
 23 24  4  0  0  0  0
 23 29  1  0  0  0  0
 24 25  4  0  0  0  0
 24 30  1  0  0  0  0
 25 26  4  0  0  0  0
 25 28  1  0  0  0  0
 26 27  4  0  0  0  0
 26 31  1  0  0  0  0
 27 32  1  0  0  0  0
 28 33  1  0  0  0  0
 28 34  1  0  0  0  0
M  END
> <BCLConfClusterSize>
1

> <ConfClashScore>
0 

> <ConfOneFourInteractionScore>
-0.958855 

> <ConfScore>
0.301359 

> <ConfScorePBest>
0.00236553 

> <ConfTolerance>
1.01848 

> <RosettaParamsInstructions>
M  ROOT 3
M  POLY_N_BB 3
M  POLY_CA_BB 4
M  POLY_C_BB 2
M  POLY_O_BB 5
M  POLY_IGNORE 9 10 11 12 13 14 15 16 17 18 
M  POLY_UPPER 6
M  POLY_LOWER 8
M  POLY_CHG 0
M  POLY_PROPERTIES ALPHA_AA L_AA PROTEIN AROMATIC POLYMER 
M  END

$$$$



 34 34  0  0  0  0  0  0  0  0999 V2000
   -0.2063    2.8991   -0.3267 H   0  0  0  1  0  0  0  0  0  0  0  0
    0.5246    4.3553    0.9902 C   0  0  0  1  0  0  0  0  0  0  0  0
    0.8949    1.9089    1.1061 N   0  0  0  1  0  0  0  0  0  0  0  0
   -0.0626    2.9711    0.7311 C   0  0  0  1  0  0  0  0  0  0  0  0
    1.4597    4.7881    0.3180 O   0  0  0  1  0  0  0  0  0  0  0  0
   -0.0409    5.0494    1.9819 N   0  0  0  1  0  0  0  0  0  0  0  0
    0.5837    1.2165    1.7259 H   0  0  0  1  0  0  0  0  0  0  0  0
    2.1650    1.8211    0.6595 C   0  0  0  1  0  0  0  0  0  0  0  0
    0.4037    6.3861    2.3471 C   0  0  0  1  0  0  0  0  0  0  0  0
    3.0606    0.7564    1.2623 C   0  0  0  1  0  0  0  0  0  0  0  0
    2.5865    2.5813   -0.2113 O   0  0  0  1  0  0  0  0  0  0  0  0
   -0.7808    4.6443    2.4807 H   0  0  0  1  0  0  0  0  0  0  0  0
    0.2064    7.0610    1.5406 H   0  0  0  1  0  0  0  0  0  0  0  0
    1.4543    6.3695    2.5491 H   0  0  0  1  0  0  0  0  0  0  0  0
   -0.1228    6.7106    3.2203 H   0  0  0  1  0  0  0  0  0  0  0  0
    3.1303    0.9050    2.3196 H   0  0  0  1  0  0  0  0  0  0  0  0
    4.0362    0.8235    0.8279 H   0  0  0  1  0  0  0  0  0  0  0  0
    2.6474   -0.2106    1.0648 H   0  0  0  1  0  0  0  0  0  0  0  0
   -5.4530    6.7387    0.9870 N   0  3  0  1  0  0  0  0  0  0  0  0
   -6.2106    6.8479    1.8981 O   0  0  0  1  0  0  0  0  0  0  0  0
   -5.5005    7.5092   -0.1084 O   0  5  0  1  0  0  0  0  0  0  0  0
   -4.4325    5.7258    1.0667 C   0  0  0  1  0  0  0  0  0  0  0  0
   -3.6509    5.4463   -0.0383 C   0  0  0  1  0  0  0  0  0  0  0  0
   -2.6645    4.4753    0.0379 C   0  0  0  1  0  0  0  0  0  0  0  0
   -2.4663    3.7830    1.2176 C   0  0  0  1  0  0  0  0  0  0  0  0
   -3.2502    4.0632    2.3260 C   0  0  0  1  0  0  0  0  0  0  0  0
   -4.2336    5.0313    2.2498 C   0  0  0  1  0  0  0  0  0  0  0  0
   -1.4117    2.7110    1.3591 C   0  0  0  1  0  0  0  0  0  0  0  0
   -3.8027    5.9645   -0.9272 H   0  0  0  1  0  0  0  0  0  0  0  0
   -2.0736    4.2679   -0.7924 H   0  0  0  1  0  0  0  0  0  0  0  0
   -3.0983    3.5450    3.2148 H   0  0  0  1  0  0  0  0  0  0  0  0
   -4.8244    5.2388    3.0801 H   0  0  0  1  0  0  0  0  0  0  0  0
   -1.2528    2.5542    2.4055 H   0  0  0  1  0  0  0  0  0  0  0  0
   -1.8026    1.8173    0.9193 H   0  0  0  1  0  0  0  0  0  0  0  0
  1  4  1  0  0  0  0
  2  4  1  0  0  0  0
  2  5  2  0  0  0  0
  2  6  1  0  0  0  0
  3  4  1  0  0  0  0
  3  7  1  0  0  0  0
  3  8  1  0  0  0  0
  4 28  1  0  0  0  0
  6  9  1  0  0  0  0
  6 12  1  0  0  0  0
  8 10  1  0  0  0  0
  8 11  2  0  0  0  0
  9 13  1  0  0  0  0
  9 14  1  0  0  0  0
  9 15  1  0  0  0  0
 10 16  1  0  0  0  0
 10 17  1  0  0  0  0
 10 18  1  0  0  0  0
 19 20  2  0  0  0  0
 19 21  1  0  0  0  0
 19 22  1  0  0  0  0
 22 23  4  0  0  0  0
 22 27  4  0  0  0  0
 23 24  4  0  0  0  0
 23 29  1  0  0  0  0
 24 25  4  0  0  0  0
 24 30  1  0  0  0  0
 25 26  4  0  0  0  0
 25 28  1  0  0  0  0
 26 27  4  0  0  0  0
 26 31  1  0  0  0  0
 27 32  1  0  0  0  0
 28 33  1  0  0  0  0
 28 34  1  0  0  0  0
M  END
> <BCLConfClusterSize>
1

> <ConfClashScore>
0 

> <ConfOneFourInteractionScore>
-0.952541 

> <ConfScore>
0.311855 

> <ConfScorePBest>
0.00233705 

> <ConfTolerance>
1.00744 

> <RosettaParamsInstructions>
M  ROOT 3
M  POLY_N_BB 3
M  POLY_CA_BB 4
M  POLY_C_BB 2
M  POLY_O_BB 5
M  POLY_IGNORE 9 10 11 12 13 14 15 16 17 18 
M  POLY_UPPER 6
M  POLY_LOWER 8
M  POLY_CHG 0
M  POLY_PROPERTIES ALPHA_AA L_AA PROTEIN AROMATIC POLYMER 
M  END

$$$$



 34 34  0  0  0  0  0  0  0  0999 V2000
    0.2218    3.4609    0.3499 H   0  0  0  1  0  0  0  0  0  0  0  0
    0.1733    4.3632    2.2457 C   0  0  0  1  0  0  0  0  0  0  0  0
    0.9263    2.0874    1.6982 N   0  0  0  1  0  0  0  0  0  0  0  0
   -0.0072    3.1454    1.3463 C   0  0  0  1  0  0  0  0  0  0  0  0
   -0.6668    5.2288    2.4086 O   0  0  0  1  0  0  0  0  0  0  0  0
    1.3587    4.4040    2.8558 N   0  0  0  1  0  0  0  0  0  0  0  0
    1.5190    1.7296    1.0045 H   0  0  0  1  0  0  0  0  0  0  0  0
    1.0045    1.5838    2.9401 C   0  0  0  1  0  0  0  0  0  0  0  0
    1.7566    5.4021    3.8373 C   0  0  0  1  0  0  0  0  0  0  0  0
    1.9792    0.4372    3.1258 C   0  0  0  1  0  0  0  0  0  0  0  0
    0.3417    2.0086    3.8721 O   0  0  0  1  0  0  0  0  0  0  0  0
    2.0108    3.7096    2.6259 H   0  0  0  1  0  0  0  0  0  0  0  0
    0.8842    5.8320    4.2835 H   0  0  0  1  0  0  0  0  0  0  0  0
    2.3252    6.1696    3.3549 H   0  0  0  1  0  0  0  0  0  0  0  0
    2.3531    4.9388    4.5952 H   0  0  0  1  0  0  0  0  0  0  0  0
    2.6712    0.6794    3.9051 H   0  0  0  1  0  0  0  0  0  0  0  0
    2.5133    0.2721    2.2134 H   0  0  0  1  0  0  0  0  0  0  0  0
    1.4408   -0.4490    3.3898 H   0  0  0  1  0  0  0  0  0  0  0  0
   -5.4472    6.7418    0.9607 N   0  3  0  1  0  0  0  0  0  0  0  0
   -5.5392    7.3982   -0.0276 O   0  0  0  1  0  0  0  0  0  0  0  0
   -6.2532    6.8881    2.0212 O   0  5  0  1  0  0  0  0  0  0  0  0
   -4.4158    5.7385    1.0189 C   0  0  0  1  0  0  0  0  0  0  0  0
   -3.5979    5.4582   -0.0593 C   0  0  0  1  0  0  0  0  0  0  0  0
   -2.6157    4.4861    0.0498 C   0  0  0  1  0  0  0  0  0  0  0  0
   -2.4580    3.7934    1.2354 C   0  0  0  1  0  0  0  0  0  0  0  0
   -3.2783    4.0744    2.3169 C   0  0  0  1  0  0  0  0  0  0  0  0
   -4.2575    5.0437    2.2079 C   0  0  0  1  0  0  0  0  0  0  0  0
   -1.4606    2.6632    1.3319 C   0  0  0  1  0  0  0  0  0  0  0  0
   -3.7193    5.9767   -0.9527 H   0  0  0  1  0  0  0  0  0  0  0  0
   -1.9976    4.2780   -0.7603 H   0  0  0  1  0  0  0  0  0  0  0  0
   -3.1569    3.5559    3.2102 H   0  0  0  1  0  0  0  0  0  0  0  0
   -4.8755    5.2517    3.0180 H   0  0  0  1  0  0  0  0  0  0  0  0
   -1.6481    2.1196    2.2343 H   0  0  0  1  0  0  0  0  0  0  0  0
   -1.5965    2.0163    0.4905 H   0  0  0  1  0  0  0  0  0  0  0  0
  1  4  1  0  0  0  0
  2  4  1  0  0  0  0
  2  5  2  0  0  0  0
  2  6  1  0  0  0  0
  3  4  1  0  0  0  0
  3  7  1  0  0  0  0
  3  8  1  0  0  0  0
  4 28  1  0  0  0  0
  6  9  1  0  0  0  0
  6 12  1  0  0  0  0
  8 10  1  0  0  0  0
  8 11  2  0  0  0  0
  9 13  1  0  0  0  0
  9 14  1  0  0  0  0
  9 15  1  0  0  0  0
 10 16  1  0  0  0  0
 10 17  1  0  0  0  0
 10 18  1  0  0  0  0
 19 20  2  0  0  0  0
 19 21  1  0  0  0  0
 19 22  1  0  0  0  0
 22 23  4  0  0  0  0
 22 27  4  0  0  0  0
 23 24  4  0  0  0  0
 23 29  1  0  0  0  0
 24 25  4  0  0  0  0
 24 30  1  0  0  0  0
 25 26  4  0  0  0  0
 25 28  1  0  0  0  0
 26 27  4  0  0  0  0
 26 31  1  0  0  0  0
 27 32  1  0  0  0  0
 28 33  1  0  0  0  0
 28 34  1  0  0  0  0
M  END
> <BCLConfClusterSize>
1

> <ConfClashScore>
0 

> <ConfOneFourInteractionScore>
-0.932006 

> <ConfScore>
0.325995 

> <ConfScorePBest>
0.00230857 

> <ConfTolerance>
1.035 

> <RosettaParamsInstructions>
M  ROOT 3
M  POLY_N_BB 3
M  POLY_CA_BB 4
M  POLY_C_BB 2
M  POLY_O_BB 5
M  POLY_IGNORE 9 10 11 12 13 14 15 16 17 18 
M  POLY_UPPER 6
M  POLY_LOWER 8
M  POLY_CHG 0
M  POLY_PROPERTIES ALPHA_AA L_AA PROTEIN AROMATIC POLYMER 
M  END

$$$$



 34 34  0  0  0  0  0  0  0  0999 V2000
   -1.0804    3.1353    3.3314 H   0  0  0  1  0  0  0  0  0  0  0  0
    0.2132    1.5585    2.8721 C   0  0  0  1  0  0  0  0  0  0  0  0
    0.4395    3.9625    2.2485 N   0  0  0  1  0  0  0  0  0  0  0  0
   -0.4777    2.8605    2.4911 C   0  0  0  1  0  0  0  0  0  0  0  0
   -0.4002    0.6499    3.4304 O   0  0  0  1  0  0  0  0  0  0  0  0
    1.5101    1.4771    2.5613 N   0  0  0  1  0  0  0  0  0  0  0  0
    0.5034    4.3343    1.3440 H   0  0  0  1  0  0  0  0  0  0  0  0
    1.2014    4.4879    3.2199 C   0  0  0  1  0  0  0  0  0  0  0  0
    2.2889    0.2685    2.7861 C   0  0  0  1  0  0  0  0  0  0  0  0
    0.9028    4.0042    4.6256 C   0  0  0  1  0  0  0  0  0  0  0  0
    2.0901    5.3107    3.0031 O   0  0  0  1  0  0  0  0  0  0  0  0
    1.9522    2.2584    2.1683 H   0  0  0  1  0  0  0  0  0  0  0  0
    3.2423    0.5290    3.1960 H   0  0  0  1  0  0  0  0  0  0  0  0
    2.4282   -0.2437    1.8571 H   0  0  0  1  0  0  0  0  0  0  0  0
    1.7688   -0.3686    3.4706 H   0  0  0  1  0  0  0  0  0  0  0  0
   -0.0666    4.3462    4.9226 H   0  0  0  1  0  0  0  0  0  0  0  0
    1.6389    4.3905    5.2993 H   0  0  0  1  0  0  0  0  0  0  0  0
    0.9255    2.9347    4.6468 H   0  0  0  1  0  0  0  0  0  0  0  0
   -5.4479    6.7358    0.9274 N   0  3  0  1  0  0  0  0  0  0  0  0
   -5.5314    7.3413   -0.0936 O   0  0  0  1  0  0  0  0  0  0  0  0
   -6.2882    6.9065    1.9572 O   0  5  0  1  0  0  0  0  0  0  0  0
   -4.3886    5.7697    1.0622 C   0  0  0  1  0  0  0  0  0  0  0  0
   -3.5918    5.4822   -0.0299 C   0  0  0  1  0  0  0  0  0  0  0  0
   -2.6356    4.4820    0.0537 C   0  0  0  1  0  0  0  0  0  0  0  0
   -2.4828    3.7688    1.2276 C   0  0  0  1  0  0  0  0  0  0  0  0
   -3.2818    4.0570    2.3230 C   0  0  0  1  0  0  0  0  0  0  0  0
   -4.2351    5.0542    2.2395 C   0  0  0  1  0  0  0  0  0  0  0  0
   -1.4451    2.6749    1.3177 C   0  0  0  1  0  0  0  0  0  0  0  0
   -3.7097    6.0162   -0.9145 H   0  0  0  1  0  0  0  0  0  0  0  0
   -2.0334    4.2684   -0.7668 H   0  0  0  1  0  0  0  0  0  0  0  0
   -3.1640    3.5230    3.2076 H   0  0  0  1  0  0  0  0  0  0  0  0
   -4.8374    5.2678    3.0600 H   0  0  0  1  0  0  0  0  0  0  0  0
   -1.9476    1.7376    1.4356 H   0  0  0  1  0  0  0  0  0  0  0  0
   -0.8803    2.6656    0.4089 H   0  0  0  1  0  0  0  0  0  0  0  0
  1  4  1  0  0  0  0
  2  4  1  0  0  0  0
  2  5  2  0  0  0  0
  2  6  1  0  0  0  0
  3  4  1  0  0  0  0
  3  7  1  0  0  0  0
  3  8  1  0  0  0  0
  4 28  1  0  0  0  0
  6  9  1  0  0  0  0
  6 12  1  0  0  0  0
  8 10  1  0  0  0  0
  8 11  2  0  0  0  0
  9 13  1  0  0  0  0
  9 14  1  0  0  0  0
  9 15  1  0  0  0  0
 10 16  1  0  0  0  0
 10 17  1  0  0  0  0
 10 18  1  0  0  0  0
 19 20  2  0  0  0  0
 19 21  1  0  0  0  0
 19 22  1  0  0  0  0
 22 23  4  0  0  0  0
 22 27  4  0  0  0  0
 23 24  4  0  0  0  0
 23 29  1  0  0  0  0
 24 25  4  0  0  0  0
 24 30  1  0  0  0  0
 25 26  4  0  0  0  0
 25 28  1  0  0  0  0
 26 27  4  0  0  0  0
 26 31  1  0  0  0  0
 27 32  1  0  0  0  0
 28 33  1  0  0  0  0
 28 34  1  0  0  0  0
M  END
> <BCLConfClusterSize>
1

> <ConfClashScore>
0 

> <ConfOneFourInteractionScore>
-0.960318 

> <ConfScore>
0.344844 

> <ConfScorePBest>
0.00228009 

> <ConfTolerance>
1.06709 

> <RosettaParamsInstructions>
M  ROOT 3
M  POLY_N_BB 3
M  POLY_CA_BB 4
M  POLY_C_BB 2
M  POLY_O_BB 5
M  POLY_IGNORE 9 10 11 12 13 14 15 16 17 18 
M  POLY_UPPER 6
M  POLY_LOWER 8
M  POLY_CHG 0
M  POLY_PROPERTIES ALPHA_AA L_AA PROTEIN AROMATIC POLYMER 
M  END

$$$$



 34 34  0  0  0  0  0  0  0  0999 V2000
   -2.7346    1.7976    2.7079 H   0  0  0  1  0  0  0  0  0  0  0  0
   -1.5978    0.2655    1.8053 C   0  0  0  1  0  0  0  0  0  0  0  0
   -0.8440    1.7973    3.5439 N   0  0  0  1  0  0  0  0  0  0  0  0
   -1.7219    1.6584    2.3916 C   0  0  0  1  0  0  0  0  0  0  0  0
   -0.5825   -0.1826    1.3054 O   0  0  0  1  0  0  0  0  0  0  0  0
   -2.7239   -0.4491    1.8843 N   0  0  0  1  0  0  0  0  0  0  0  0
    0.1028    1.5555    3.4692 H   0  0  0  1  0  0  0  0  0  0  0  0
   -1.3260    2.2538    4.7033 C   0  0  0  1  0  0  0  0  0  0  0  0
   -2.8236   -1.8032    1.3607 C   0  0  0  1  0  0  0  0  0  0  0  0
   -0.3295    2.3391    5.8430 C   0  0  0  1  0  0  0  0  0  0  0  0
   -2.4903    2.5855    4.8541 O   0  0  0  1  0  0  0  0  0  0  0  0
   -3.5101   -0.0474    2.3096 H   0  0  0  1  0  0  0  0  0  0  0  0
   -3.6361   -1.8589    0.6666 H   0  0  0  1  0  0  0  0  0  0  0  0
   -2.9961   -2.4853    2.1669 H   0  0  0  1  0  0  0  0  0  0  0  0
   -1.9119   -2.0612    0.8635 H   0  0  0  1  0  0  0  0  0  0  0  0
    0.0413    1.3607    6.0672 H   0  0  0  1  0  0  0  0  0  0  0  0
   -0.8113    2.7444    6.7081 H   0  0  0  1  0  0  0  0  0  0  0  0
    0.4846    2.9722    5.5580 H   0  0  0  1  0  0  0  0  0  0  0  0
   -5.4376    6.7498    0.9382 N   0  3  0  1  0  0  0  0  0  0  0  0
   -5.5901    7.2900   -0.1111 O   0  0  0  1  0  0  0  0  0  0  0  0
   -6.1600    7.0396    2.0290 O   0  5  0  1  0  0  0  0  0  0  0  0
   -4.4241    5.7320    1.0398 C   0  0  0  1  0  0  0  0  0  0  0  0
   -3.6246    5.4440   -0.0503 C   0  0  0  1  0  0  0  0  0  0  0  0
   -2.6448    4.4683    0.0471 C   0  0  0  1  0  0  0  0  0  0  0  0
   -2.4709    3.7798    1.2329 C   0  0  0  1  0  0  0  0  0  0  0  0
   -3.2726    4.0685    2.3262 C   0  0  0  1  0  0  0  0  0  0  0  0
   -4.2495    5.0413    2.2289 C   0  0  0  1  0  0  0  0  0  0  0  0
   -1.4073    2.7124    1.3381 C   0  0  0  1  0  0  0  0  0  0  0  0
   -3.7582    5.9594   -0.9436 H   0  0  0  1  0  0  0  0  0  0  0  0
   -2.0406    4.2544   -0.7719 H   0  0  0  1  0  0  0  0  0  0  0  0
   -3.1390    3.5531    3.2196 H   0  0  0  1  0  0  0  0  0  0  0  0
   -4.8536    5.2552    3.0480 H   0  0  0  1  0  0  0  0  0  0  0  0
   -1.3159    2.2280    0.3884 H   0  0  0  1  0  0  0  0  0  0  0  0
   -0.4790    3.1804    1.5912 H   0  0  0  1  0  0  0  0  0  0  0  0
  1  4  1  0  0  0  0
  2  4  1  0  0  0  0
  2  5  2  0  0  0  0
  2  6  1  0  0  0  0
  3  4  1  0  0  0  0
  3  7  1  0  0  0  0
  3  8  1  0  0  0  0
  4 28  1  0  0  0  0
  6  9  1  0  0  0  0
  6 12  1  0  0  0  0
  8 10  1  0  0  0  0
  8 11  2  0  0  0  0
  9 13  1  0  0  0  0
  9 14  1  0  0  0  0
  9 15  1  0  0  0  0
 10 16  1  0  0  0  0
 10 17  1  0  0  0  0
 10 18  1  0  0  0  0
 19 20  2  0  0  0  0
 19 21  1  0  0  0  0
 19 22  1  0  0  0  0
 22 23  4  0  0  0  0
 22 27  4  0  0  0  0
 23 24  4  0  0  0  0
 23 29  1  0  0  0  0
 24 25  4  0  0  0  0
 24 30  1  0  0  0  0
 25 26  4  0  0  0  0
 25 28  1  0  0  0  0
 26 27  4  0  0  0  0
 26 31  1  0  0  0  0
 27 32  1  0  0  0  0
 28 33  1  0  0  0  0
 28 34  1  0  0  0  0
M  END
> <BCLConfClusterSize>
1

> <ConfClashScore>
0 

> <ConfOneFourInteractionScore>
-0.967701 

> <ConfScore>
0.356056 

> <ConfScorePBest>
0.00225161 

> <ConfTolerance>
1.29145 

> <RosettaParamsInstructions>
M  ROOT 3
M  POLY_N_BB 3
M  POLY_CA_BB 4
M  POLY_C_BB 2
M  POLY_O_BB 5
M  POLY_IGNORE 9 10 11 12 13 14 15 16 17 18 
M  POLY_UPPER 6
M  POLY_LOWER 8
M  POLY_CHG 0
M  POLY_PROPERTIES ALPHA_AA L_AA PROTEIN AROMATIC POLYMER 
M  END

$$$$



 34 34  0  0  0  0  0  0  0  0999 V2000
   -1.5384    1.4040   -0.3466 H   0  0  0  1  0  0  0  0  0  0  0  0
   -1.2945    0.2030    1.3900 C   0  0  0  1  0  0  0  0  0  0  0  0
   -3.3319    1.2828    0.6990 N   0  0  0  1  0  0  0  0  0  0  0  0
   -1.8793    1.4100    0.6676 C   0  0  0  1  0  0  0  0  0  0  0  0
   -0.2355    0.2068    1.9900 O   0  0  0  1  0  0  0  0  0  0  0  0
   -2.0594   -0.8894    1.3093 N   0  0  0  1  0  0  0  0  0  0  0  0
   -3.8142    1.1585   -0.1450 H   0  0  0  1  0  0  0  0  0  0  0  0
   -4.0221    1.3296    1.8287 C   0  0  0  1  0  0  0  0  0  0  0  0
   -1.7173   -2.1299    1.9891 C   0  0  0  1  0  0  0  0  0  0  0  0
   -5.5186    1.0700    1.6462 C   0  0  0  1  0  0  0  0  0  0  0  0
   -3.5377    1.5573    2.9360 O   0  0  0  1  0  0  0  0  0  0  0  0
   -2.8794   -0.8542    0.7737 H   0  0  0  1  0  0  0  0  0  0  0  0
   -0.7987   -2.0030    2.5230 H   0  0  0  1  0  0  0  0  0  0  0  0
   -1.6053   -2.9124    1.2679 H   0  0  0  1  0  0  0  0  0  0  0  0
   -2.4964   -2.3863    2.6762 H   0  0  0  1  0  0  0  0  0  0  0  0
   -5.7326    0.9296    0.6073 H   0  0  0  1  0  0  0  0  0  0  0  0
   -6.0732    1.9078    2.0143 H   0  0  0  1  0  0  0  0  0  0  0  0
   -5.7967    0.1911    2.1893 H   0  0  0  1  0  0  0  0  0  0  0  0
   -5.4334    6.7542    0.9405 N   0  3  0  1  0  0  0  0  0  0  0  0
   -5.4471    7.4401   -0.0319 O   0  0  0  1  0  0  0  0  0  0  0  0
   -6.3103    6.8820    1.9457 O   0  5  0  1  0  0  0  0  0  0  0  0
   -4.4217    5.7345    1.0411 C   0  0  0  1  0  0  0  0  0  0  0  0
   -3.6061    5.4635   -0.0414 C   0  0  0  1  0  0  0  0  0  0  0  0
   -2.6280    4.4859    0.0552 C   0  0  0  1  0  0  0  0  0  0  0  0
   -2.4720    3.7786    1.2323 C   0  0  0  1  0  0  0  0  0  0  0  0
   -3.2899    4.0503    2.3180 C   0  0  0  1  0  0  0  0  0  0  0  0
   -4.2650    5.0250    2.2216 C   0  0  0  1  0  0  0  0  0  0  0  0
   -1.4103    2.7092    1.3364 C   0  0  0  1  0  0  0  0  0  0  0  0
   -3.7262    5.9930   -0.9284 H   0  0  0  1  0  0  0  0  0  0  0  0
   -2.0117    4.2847   -0.7580 H   0  0  0  1  0  0  0  0  0  0  0  0
   -3.1698    3.5208    3.2050 H   0  0  0  1  0  0  0  0  0  0  0  0
   -4.8813    5.2261    3.0348 H   0  0  0  1  0  0  0  0  0  0  0  0
   -0.5194    3.0512    0.8526 H   0  0  0  1  0  0  0  0  0  0  0  0
   -1.2051    2.5180    2.3690 H   0  0  0  1  0  0  0  0  0  0  0  0
  1  4  1  0  0  0  0
  2  4  1  0  0  0  0
  2  5  2  0  0  0  0
  2  6  1  0  0  0  0
  3  4  1  0  0  0  0
  3  7  1  0  0  0  0
  3  8  1  0  0  0  0
  4 28  1  0  0  0  0
  6  9  1  0  0  0  0
  6 12  1  0  0  0  0
  8 10  1  0  0  0  0
  8 11  2  0  0  0  0
  9 13  1  0  0  0  0
  9 14  1  0  0  0  0
  9 15  1  0  0  0  0
 10 16  1  0  0  0  0
 10 17  1  0  0  0  0
 10 18  1  0  0  0  0
 19 20  2  0  0  0  0
 19 21  1  0  0  0  0
 19 22  1  0  0  0  0
 22 23  4  0  0  0  0
 22 27  4  0  0  0  0
 23 24  4  0  0  0  0
 23 29  1  0  0  0  0
 24 25  4  0  0  0  0
 24 30  1  0  0  0  0
 25 26  4  0  0  0  0
 25 28  1  0  0  0  0
 26 27  4  0  0  0  0
 26 31  1  0  0  0  0
 27 32  1  0  0  0  0
 28 33  1  0  0  0  0
 28 34  1  0  0  0  0
M  END
> <BCLConfClusterSize>
1

> <ConfClashScore>
0 

> <ConfOneFourInteractionScore>
-0.925178 

> <ConfScore>
0.367988 

> <ConfScorePBest>
0.00222313 

> <ConfTolerance>
1.51365 

> <RosettaParamsInstructions>
M  ROOT 3
M  POLY_N_BB 3
M  POLY_CA_BB 4
M  POLY_C_BB 2
M  POLY_O_BB 5
M  POLY_IGNORE 9 10 11 12 13 14 15 16 17 18 
M  POLY_UPPER 6
M  POLY_LOWER 8
M  POLY_CHG 0
M  POLY_PROPERTIES ALPHA_AA L_AA PROTEIN AROMATIC POLYMER 
M  END

$$$$



 34 34  0  0  0  0  0  0  0  0999 V2000
    0.6542    2.4422    1.7912 H   0  0  0  1  0  0  0  0  0  0  0  0
    0.5796    4.1298    0.5496 C   0  0  0  1  0  0  0  0  0  0  0  0
    0.0453    4.0243    2.9443 N   0  0  0  1  0  0  0  0  0  0  0  0
    0.0147    3.2936    1.6860 C   0  0  0  1  0  0  0  0  0  0  0  0
    0.6907    5.3407    0.6491 O   0  0  0  1  0  0  0  0  0  0  0  0
    0.9382    3.4550   -0.5437 N   0  0  0  1  0  0  0  0  0  0  0  0
    0.4897    3.6339    3.7257 H   0  0  0  1  0  0  0  0  0  0  0  0
   -0.5311    5.2260    3.0363 C   0  0  0  1  0  0  0  0  0  0  0  0
    1.4920    4.1138   -1.7172 C   0  0  0  1  0  0  0  0  0  0  0  0
   -0.4978    5.8692    4.4091 C   0  0  0  1  0  0  0  0  0  0  0  0
   -1.0600    5.7904    2.0796 O   0  0  0  1  0  0  0  0  0  0  0  0
    0.8247    2.4817   -0.5572 H   0  0  0  1  0  0  0  0  0  0  0  0
    0.9260    3.8378   -2.5822 H   0  0  0  1  0  0  0  0  0  0  0  0
    2.5108    3.8134   -1.8470 H   0  0  0  1  0  0  0  0  0  0  0  0
    1.4465    5.1747   -1.5851 H   0  0  0  1  0  0  0  0  0  0  0  0
   -0.0280    6.8282    4.3429 H   0  0  0  1  0  0  0  0  0  0  0  0
    0.0556    5.2468    5.0809 H   0  0  0  1  0  0  0  0  0  0  0  0
   -1.4974    5.9863    4.7722 H   0  0  0  1  0  0  0  0  0  0  0  0
   -5.4415    6.7477    0.9629 N   0  3  0  1  0  0  0  0  0  0  0  0
   -5.7516    7.1779   -0.1025 O   0  0  0  1  0  0  0  0  0  0  0  0
   -5.9922    7.1588    2.1132 O   0  5  0  1  0  0  0  0  0  0  0  0
   -4.4215    5.7327    1.0174 C   0  0  0  1  0  0  0  0  0  0  0  0
   -3.6341    5.4190   -0.0744 C   0  0  0  1  0  0  0  0  0  0  0  0
   -2.6616    4.4368    0.0316 C   0  0  0  1  0  0  0  0  0  0  0  0
   -2.4831    3.7676    1.2277 C   0  0  0  1  0  0  0  0  0  0  0  0
   -3.2727    4.0822    2.3227 C   0  0  0  1  0  0  0  0  0  0  0  0
   -4.2422    5.0614    2.2168 C   0  0  0  1  0  0  0  0  0  0  0  0
   -1.3617    2.7642    1.3586 C   0  0  0  1  0  0  0  0  0  0  0  0
   -3.7713    5.9198   -0.9754 H   0  0  0  1  0  0  0  0  0  0  0  0
   -2.0665    4.2036   -0.7887 H   0  0  0  1  0  0  0  0  0  0  0  0
   -3.1355    3.5813    3.2238 H   0  0  0  1  0  0  0  0  0  0  0  0
   -4.8373    5.2946    3.0372 H   0  0  0  1  0  0  0  0  0  0  0  0
   -1.6340    2.0791    2.1341 H   0  0  0  1  0  0  0  0  0  0  0  0
   -1.2903    2.2406    0.4283 H   0  0  0  1  0  0  0  0  0  0  0  0
  1  4  1  0  0  0  0
  2  4  1  0  0  0  0
  2  5  2  0  0  0  0
  2  6  1  0  0  0  0
  3  4  1  0  0  0  0
  3  7  1  0  0  0  0
  3  8  1  0  0  0  0
  4 28  1  0  0  0  0
  6  9  1  0  0  0  0
  6 12  1  0  0  0  0
  8 10  1  0  0  0  0
  8 11  2  0  0  0  0
  9 13  1  0  0  0  0
  9 14  1  0  0  0  0
  9 15  1  0  0  0  0
 10 16  1  0  0  0  0
 10 17  1  0  0  0  0
 10 18  1  0  0  0  0
 19 20  2  0  0  0  0
 19 21  1  0  0  0  0
 19 22  1  0  0  0  0
 22 23  4  0  0  0  0
 22 27  4  0  0  0  0
 23 24  4  0  0  0  0
 23 29  1  0  0  0  0
 24 25  4  0  0  0  0
 24 30  1  0  0  0  0
 25 26  4  0  0  0  0
 25 28  1  0  0  0  0
 26 27  4  0  0  0  0
 26 31  1  0  0  0  0
 27 32  1  0  0  0  0
 28 33  1  0  0  0  0
 28 34  1  0  0  0  0
M  END
> <BCLConfClusterSize>
1

> <ConfClashScore>
0 

> <ConfOneFourInteractionScore>
-0.951173 

> <ConfScore>
0.370009 

> <ConfScorePBest>
0.00219465 

> <ConfTolerance>
1.69929 

> <RosettaParamsInstructions>
M  ROOT 3
M  POLY_N_BB 3
M  POLY_CA_BB 4
M  POLY_C_BB 2
M  POLY_O_BB 5
M  POLY_IGNORE 9 10 11 12 13 14 15 16 17 18 
M  POLY_UPPER 6
M  POLY_LOWER 8
M  POLY_CHG 0
M  POLY_PROPERTIES ALPHA_AA L_AA PROTEIN AROMATIC POLYMER 
M  END

$$$$



 34 34  0  0  0  0  0  0  0  0999 V2000
    0.3634    3.6257    0.6079 H   0  0  0  1  0  0  0  0  0  0  0  0
   -0.0186    4.3528    2.5550 C   0  0  0  1  0  0  0  0  0  0  0  0
    0.8675    2.1112    1.9224 N   0  0  0  1  0  0  0  0  0  0  0  0
    0.0082    3.2239    1.5339 C   0  0  0  1  0  0  0  0  0  0  0  0
   -0.0517    5.5287    2.1949 O   0  0  0  1  0  0  0  0  0  0  0  0
   -0.0049    4.0266    3.8564 N   0  0  0  1  0  0  0  0  0  0  0  0
    0.4231    1.2504    2.0704 H   0  0  0  1  0  0  0  0  0  0  0  0
    2.1933    2.1322    2.0996 C   0  0  0  1  0  0  0  0  0  0  0  0
    0.0442    4.9809    4.9541 C   0  0  0  1  0  0  0  0  0  0  0  0
    2.8283    3.4863    1.8104 C   0  0  0  1  0  0  0  0  0  0  0  0
    2.8598    1.1781    2.4573 O   0  0  0  1  0  0  0  0  0  0  0  0
   -0.0300    3.0739    4.0850 H   0  0  0  1  0  0  0  0  0  0  0  0
    1.0613    5.1334    5.2494 H   0  0  0  1  0  0  0  0  0  0  0  0
   -0.5143    4.5995    5.7832 H   0  0  0  1  0  0  0  0  0  0  0  0
   -0.3781    5.9113    4.6366 H   0  0  0  1  0  0  0  0  0  0  0  0
    3.4502    3.4112    0.9429 H   0  0  0  1  0  0  0  0  0  0  0  0
    3.4208    3.7884    2.6486 H   0  0  0  1  0  0  0  0  0  0  0  0
    2.0600    4.2104    1.6365 H   0  0  0  1  0  0  0  0  0  0  0  0
   -5.4455    6.7575    0.9884 N   0  3  0  1  0  0  0  0  0  0  0  0
   -6.0489    6.9465    1.9965 O   0  0  0  1  0  0  0  0  0  0  0  0
   -5.6211    7.3185   -0.2158 O   0  5  0  1  0  0  0  0  0  0  0  0
   -4.4313    5.7385    1.0703 C   0  0  0  1  0  0  0  0  0  0  0  0
   -3.6329    5.4710   -0.0257 C   0  0  0  1  0  0  0  0  0  0  0  0
   -2.6524    4.4942    0.0528 C   0  0  0  1  0  0  0  0  0  0  0  0
   -2.4770    3.7841    1.2255 C   0  0  0  1  0  0  0  0  0  0  0  0
   -3.2777    4.0523    2.3247 C   0  0  0  1  0  0  0  0  0  0  0  0
   -4.2551    5.0262    2.2463 C   0  0  0  1  0  0  0  0  0  0  0  0
   -1.4128    2.7155    1.3099 C   0  0  0  1  0  0  0  0  0  0  0  0
   -3.7676    6.0026   -0.9094 H   0  0  0  1  0  0  0  0  0  0  0  0
   -2.0490    4.2957   -0.7707 H   0  0  0  1  0  0  0  0  0  0  0  0
   -3.1429    3.5207    3.2084 H   0  0  0  1  0  0  0  0  0  0  0  0
   -4.8586    5.2247    3.0698 H   0  0  0  1  0  0  0  0  0  0  0  0
   -1.6623    2.0646    2.1218 H   0  0  0  1  0  0  0  0  0  0  0  0
   -1.4254    2.1639    0.3931 H   0  0  0  1  0  0  0  0  0  0  0  0
  1  4  1  0  0  0  0
  2  4  1  0  0  0  0
  2  5  2  0  0  0  0
  2  6  1  0  0  0  0
  3  4  1  0  0  0  0
  3  7  1  0  0  0  0
  3  8  1  0  0  0  0
  4 28  1  0  0  0  0
  6  9  1  0  0  0  0
  6 12  1  0  0  0  0
  8 10  1  0  0  0  0
  8 11  2  0  0  0  0
  9 13  1  0  0  0  0
  9 14  1  0  0  0  0
  9 15  1  0  0  0  0
 10 16  1  0  0  0  0
 10 17  1  0  0  0  0
 10 18  1  0  0  0  0
 19 20  2  0  0  0  0
 19 21  1  0  0  0  0
 19 22  1  0  0  0  0
 22 23  4  0  0  0  0
 22 27  4  0  0  0  0
 23 24  4  0  0  0  0
 23 29  1  0  0  0  0
 24 25  4  0  0  0  0
 24 30  1  0  0  0  0
 25 26  4  0  0  0  0
 25 28  1  0  0  0  0
 26 27  4  0  0  0  0
 26 31  1  0  0  0  0
 27 32  1  0  0  0  0
 28 33  1  0  0  0  0
 28 34  1  0  0  0  0
M  END
> <BCLConfClusterSize>
1

> <ConfClashScore>
0 

> <ConfOneFourInteractionScore>
-0.949394 

> <ConfScore>
0.424173 

> <ConfScorePBest>
0.00216617 

> <ConfTolerance>
1.63049 

> <RosettaParamsInstructions>
M  ROOT 3
M  POLY_N_BB 3
M  POLY_CA_BB 4
M  POLY_C_BB 2
M  POLY_O_BB 5
M  POLY_IGNORE 9 10 11 12 13 14 15 16 17 18 
M  POLY_UPPER 6
M  POLY_LOWER 8
M  POLY_CHG 0
M  POLY_PROPERTIES ALPHA_AA L_AA PROTEIN AROMATIC POLYMER 
M  END

$$$$
