


 35 35  0  0  0  0  0  0  0  0999 V2000
   -0.8635    4.4177   -1.3151 H   0  0  0  1  0  0  0  0  0  0  0  0
    0.6072    3.3830   -0.2069 C   0  0  0  1  0  0  0  0  0  0  0  0
   -1.7809    3.7422    0.4076 N   0  0  0  1  0  0  0  0  0  0  0  0
   -0.8286    3.5592   -0.6775 C   0  0  0  1  0  0  0  0  0  0  0  0
    0.9535    3.7530    0.9132 O   0  0  0  1  0  0  0  0  0  0  0  0
    1.4781    2.8154   -1.0462 N   0  0  0  1  0  0  0  0  0  0  0  0
   -2.4544    4.4500    0.3313 H   0  0  0  1  0  0  0  0  0  0  0  0
   -1.7689    2.9790    1.5041 C   0  0  0  1  0  0  0  0  0  0  0  0
    2.8827    2.6409   -0.7081 C   0  0  0  1  0  0  0  0  0  0  0  0
   -2.8491    3.2766    2.5257 C   0  0  0  1  0  0  0  0  0  0  0  0
   -0.9423    2.0870    1.6904 O   0  0  0  1  0  0  0  0  0  0  0  0
    1.1599    2.5057   -1.9198 H   0  0  0  1  0  0  0  0  0  0  0  0
    3.4881    2.9030   -1.5505 H   0  0  0  1  0  0  0  0  0  0  0  0
    3.0617    1.6194   -0.4446 H   0  0  0  1  0  0  0  0  0  0  0  0
    3.1312    3.2719    0.1195 H   0  0  0  1  0  0  0  0  0  0  0  0
   -3.1227    4.3093    2.4657 H   0  0  0  1  0  0  0  0  0  0  0  0
   -2.4805    3.0620    3.5070 H   0  0  0  1  0  0  0  0  0  0  0  0
   -3.7065    2.6686    2.3253 H   0  0  0  1  0  0  0  0  0  0  0  0
   -1.3572    4.7511   -3.1922 F   0  0  0  1  0  0  0  0  0  0  0  0
   -2.0083    3.8240   -3.8968 C   0  0  0  1  0  0  0  0  0  0  0  0
   -2.5005    4.4370   -4.9745 F   0  0  0  1  0  0  0  0  0  0  0  0
   -1.0624    3.0073   -4.3624 F   0  0  0  1  0  0  0  0  0  0  0  0
   -3.0603    3.0877   -3.0931 C   0  0  0  1  0  0  0  0  0  0  0  0
   -2.7552    2.3863   -1.9370 C   0  0  0  1  0  0  0  0  0  0  0  0
   -3.7537    1.7274   -1.2448 C   0  0  0  1  0  0  0  0  0  0  0  0
   -5.0610    1.7723   -1.7036 C   0  0  0  1  0  0  0  0  0  0  0  0
   -5.3650    2.4716   -2.8563 C   0  0  0  1  0  0  0  0  0  0  0  0
   -4.3637    3.1325   -3.5507 C   0  0  0  1  0  0  0  0  0  0  0  0
   -1.3161    2.3747   -1.4783 C   0  0  0  1  0  0  0  0  0  0  0  0
   -3.5242    1.1978   -0.3797 H   0  0  0  1  0  0  0  0  0  0  0  0
   -5.8129    1.2798   -1.1805 H   0  0  0  1  0  0  0  0  0  0  0  0
   -6.3451    2.5019   -3.2027 H   0  0  0  1  0  0  0  0  0  0  0  0
   -4.5933    3.6620   -4.4158 H   0  0  0  1  0  0  0  0  0  0  0  0
   -1.1796    1.5020   -0.8744 H   0  0  0  1  0  0  0  0  0  0  0  0
   -0.7022    2.3042   -2.3518 H   0  0  0  1  0  0  0  0  0  0  0  0
  1  4  1  0  0  0  0
  2  4  1  0  0  0  0
  2  5  2  0  0  0  0
  2  6  1  0  0  0  0
  3  4  1  0  0  0  0
  3  7  1  0  0  0  0
  3  8  1  0  0  0  0
  4 29  1  0  0  0  0
  6  9  1  0  0  0  0
  6 12  1  0  0  0  0
  8 10  1  0  0  0  0
  8 11  2  0  0  0  0
  9 13  1  0  0  0  0
  9 14  1  0  0  0  0
  9 15  1  0  0  0  0
 10 16  1  0  0  0  0
 10 17  1  0  0  0  0
 10 18  1  0  0  0  0
 19 20  1  0  0  0  0
 20 21  1  0  0  0  0
 20 22  1  0  0  0  0
 20 23  1  0  0  0  0
 23 24  4  0  0  0  0
 23 28  4  0  0  0  0
 24 25  4  0  0  0  0
 24 29  1  0  0  0  0
 25 26  4  0  0  0  0
 25 30  1  0  0  0  0
 26 27  4  0  0  0  0
 26 31  1  0  0  0  0
 27 28  4  0  0  0  0
 27 32  1  0  0  0  0
 28 33  1  0  0  0  0
 29 34  1  0  0  0  0
 29 35  1  0  0  0  0
M  END
> <BCLConfClusterSize>
1

> <ConfClashScore>
0 

> <ConfOneFourInteractionScore>
-0.960887 

> <ConfScore>
0.0494585 

> <ConfScorePBest>
0.00783383 

> <ConfTolerance>
0.285081 

> <RosettaParamsInstructions>
M  ROOT 3
M  POLY_N_BB 3
M  POLY_CA_BB 4
M  POLY_C_BB 2
M  POLY_O_BB 5
M  POLY_IGNORE 9 10 11 12 13 14 15 16 17 18 
M  POLY_UPPER 6
M  POLY_LOWER 8
M  POLY_CHG 0
M  POLY_PROPERTIES ALPHA_AA D_AA PROTEIN AROMATIC POLYMER 
M  END

$$$$



 35 35  0  0  0  0  0  0  0  0999 V2000
   -1.6543    4.9942   -0.9952 H   0  0  0  1  0  0  0  0  0  0  0  0
   -0.0981    4.4215    0.2978 C   0  0  0  1  0  0  0  0  0  0  0  0
   -2.5200    4.1128    0.6657 N   0  0  0  1  0  0  0  0  0  0  0  0
   -1.4499    4.1781   -0.3341 C   0  0  0  1  0  0  0  0  0  0  0  0
    0.0203    5.1726    1.2623 O   0  0  0  1  0  0  0  0  0  0  0  0
    0.9660    3.7930   -0.2264 N   0  0  0  1  0  0  0  0  0  0  0  0
   -3.3490    4.6171    0.5283 H   0  0  0  1  0  0  0  0  0  0  0  0
   -2.3675    3.3673    1.7639 C   0  0  0  1  0  0  0  0  0  0  0  0
    2.2900    4.0004    0.3411 C   0  0  0  1  0  0  0  0  0  0  0  0
   -3.5702    3.2052    2.7021 C   0  0  0  1  0  0  0  0  0  0  0  0
   -1.3185    2.8015    2.0691 O   0  0  0  1  0  0  0  0  0  0  0  0
    0.8511    3.1932   -0.9928 H   0  0  0  1  0  0  0  0  0  0  0  0
    2.9973    3.3776   -0.1655 H   0  0  0  1  0  0  0  0  0  0  0  0
    2.2751    3.7498    1.3813 H   0  0  0  1  0  0  0  0  0  0  0  0
    2.5708    5.0263    0.2249 H   0  0  0  1  0  0  0  0  0  0  0  0
   -4.4136    2.8552    2.1444 H   0  0  0  1  0  0  0  0  0  0  0  0
   -3.8044    4.1494    3.1476 H   0  0  0  1  0  0  0  0  0  0  0  0
   -3.3314    2.4979    3.4687 H   0  0  0  1  0  0  0  0  0  0  0  0
   -2.5052    4.7442   -4.6921 F   0  0  0  1  0  0  0  0  0  0  0  0
   -2.0045    3.7976   -3.9245 C   0  0  0  1  0  0  0  0  0  0  0  0
   -1.2912    3.0011   -4.6769 F   0  0  0  1  0  0  0  0  0  0  0  0
   -1.1250    4.4388   -3.1634 F   0  0  0  1  0  0  0  0  0  0  0  0
   -3.0588    3.0804   -3.1066 C   0  0  0  1  0  0  0  0  0  0  0  0
   -2.8269    2.6511   -1.8091 C   0  0  0  1  0  0  0  0  0  0  0  0
   -3.8231    1.9964   -1.1095 C   0  0  0  1  0  0  0  0  0  0  0  0
   -5.0557    1.7739   -1.7034 C   0  0  0  1  0  0  0  0  0  0  0  0
   -5.2867    2.2019   -2.9970 C   0  0  0  1  0  0  0  0  0  0  0  0
   -4.2878    2.8585   -3.6988 C   0  0  0  1  0  0  0  0  0  0  0  0
   -1.4860    2.8984   -1.1592 C   0  0  0  1  0  0  0  0  0  0  0  0
   -3.6479    1.6708   -0.1375 H   0  0  0  1  0  0  0  0  0  0  0  0
   -5.8066    1.2848   -1.1755 H   0  0  0  1  0  0  0  0  0  0  0  0
   -6.2102    2.0314   -3.4440 H   0  0  0  1  0  0  0  0  0  0  0  0
   -4.4631    3.1842   -4.6708 H   0  0  0  1  0  0  0  0  0  0  0  0
   -1.2614    2.0726   -0.5170 H   0  0  0  1  0  0  0  0  0  0  0  0
   -0.7432    2.9667   -1.9264 H   0  0  0  1  0  0  0  0  0  0  0  0
  1  4  1  0  0  0  0
  2  4  1  0  0  0  0
  2  5  2  0  0  0  0
  2  6  1  0  0  0  0
  3  4  1  0  0  0  0
  3  7  1  0  0  0  0
  3  8  1  0  0  0  0
  4 29  1  0  0  0  0
  6  9  1  0  0  0  0
  6 12  1  0  0  0  0
  8 10  1  0  0  0  0
  8 11  2  0  0  0  0
  9 13  1  0  0  0  0
  9 14  1  0  0  0  0
  9 15  1  0  0  0  0
 10 16  1  0  0  0  0
 10 17  1  0  0  0  0
 10 18  1  0  0  0  0
 19 20  1  0  0  0  0
 20 21  1  0  0  0  0
 20 22  1  0  0  0  0
 20 23  1  0  0  0  0
 23 24  4  0  0  0  0
 23 28  4  0  0  0  0
 24 25  4  0  0  0  0
 24 29  1  0  0  0  0
 25 26  4  0  0  0  0
 25 30  1  0  0  0  0
 26 27  4  0  0  0  0
 26 31  1  0  0  0  0
 27 28  4  0  0  0  0
 27 32  1  0  0  0  0
 28 33  1  0  0  0  0
 29 34  1  0  0  0  0
 29 35  1  0  0  0  0
M  END
> <BCLConfClusterSize>
1

> <ConfClashScore>
0 

> <ConfOneFourInteractionScore>
-0.933935 

> <ConfScore>
0.0553538 

> <ConfScorePBest>
0.00780535 

> <ConfTolerance>
0.33853 

> <RosettaParamsInstructions>
M  ROOT 3
M  POLY_N_BB 3
M  POLY_CA_BB 4
M  POLY_C_BB 2
M  POLY_O_BB 5
M  POLY_IGNORE 9 10 11 12 13 14 15 16 17 18 
M  POLY_UPPER 6
M  POLY_LOWER 8
M  POLY_CHG 0
M  POLY_PROPERTIES ALPHA_AA D_AA PROTEIN AROMATIC POLYMER 
M  END

$$$$



 35 35  0  0  0  0  0  0  0  0999 V2000
   -0.0266    2.9844   -0.0054 H   0  0  0  1  0  0  0  0  0  0  0  0
   -1.4795    1.9201    1.0356 C   0  0  0  1  0  0  0  0  0  0  0  0
   -1.6380    4.2422    0.0968 N   0  0  0  1  0  0  0  0  0  0  0  0
   -1.0879    2.8776   -0.0902 C   0  0  0  1  0  0  0  0  0  0  0  0
   -1.7680    2.3559    2.1488 O   0  0  0  1  0  0  0  0  0  0  0  0
   -1.4031    0.6138    0.7767 N   0  0  0  1  0  0  0  0  0  0  0  0
   -2.1773    4.6370   -0.6199 H   0  0  0  1  0  0  0  0  0  0  0  0
   -1.4239    4.9518    1.2083 C   0  0  0  1  0  0  0  0  0  0  0  0
   -1.6639   -0.3955    1.7904 C   0  0  0  1  0  0  0  0  0  0  0  0
   -1.9471    6.3749    1.1923 C   0  0  0  1  0  0  0  0  0  0  0  0
   -0.8424    4.4976    2.1901 O   0  0  0  1  0  0  0  0  0  0  0  0
   -1.1630    0.3243   -0.1282 H   0  0  0  1  0  0  0  0  0  0  0  0
   -1.3261   -0.0416    2.7420 H   0  0  0  1  0  0  0  0  0  0  0  0
   -1.1427   -1.2957    1.5395 H   0  0  0  1  0  0  0  0  0  0  0  0
   -2.7147   -0.5921    1.8358 H   0  0  0  1  0  0  0  0  0  0  0  0
   -1.6223    6.8848    2.0752 H   0  0  0  1  0  0  0  0  0  0  0  0
   -3.0166    6.3611    1.1618 H   0  0  0  1  0  0  0  0  0  0  0  0
   -1.5717    6.8830    0.3288 H   0  0  0  1  0  0  0  0  0  0  0  0
   -1.4521    4.7932   -3.1426 F   0  0  0  1  0  0  0  0  0  0  0  0
   -2.0006    3.8318   -3.8875 C   0  0  0  1  0  0  0  0  0  0  0  0
   -2.4736    4.4282   -4.9723 F   0  0  0  1  0  0  0  0  0  0  0  0
   -0.9994    3.0596   -4.2941 F   0  0  0  1  0  0  0  0  0  0  0  0
   -3.0654    3.0559   -3.1410 C   0  0  0  1  0  0  0  0  0  0  0  0
   -2.7489    2.3771   -1.9745 C   0  0  0  1  0  0  0  0  0  0  0  0
   -3.7422    1.7407   -1.2542 C   0  0  0  1  0  0  0  0  0  0  0  0
   -5.0555    1.7858   -1.6953 C   0  0  0  1  0  0  0  0  0  0  0  0
   -5.3709    2.4627   -2.8583 C   0  0  0  1  0  0  0  0  0  0  0  0
   -4.3749    3.1009   -3.5808 C   0  0  0  1  0  0  0  0  0  0  0  0
   -1.3189    2.3324   -1.4901 C   0  0  0  1  0  0  0  0  0  0  0  0
   -3.5042    1.2281   -0.3812 H   0  0  0  1  0  0  0  0  0  0  0  0
   -5.8035    1.3104   -1.1511 H   0  0  0  1  0  0  0  0  0  0  0  0
   -6.3557    2.4931   -3.1914 H   0  0  0  1  0  0  0  0  0  0  0  0
   -4.6129    3.6136   -4.4538 H   0  0  0  1  0  0  0  0  0  0  0  0
   -0.9974    1.3119   -1.5041 H   0  0  0  1  0  0  0  0  0  0  0  0
   -0.7222    2.9042   -2.1697 H   0  0  0  1  0  0  0  0  0  0  0  0
  1  4  1  0  0  0  0
  2  4  1  0  0  0  0
  2  5  2  0  0  0  0
  2  6  1  0  0  0  0
  3  4  1  0  0  0  0
  3  7  1  0  0  0  0
  3  8  1  0  0  0  0
  4 29  1  0  0  0  0
  6  9  1  0  0  0  0
  6 12  1  0  0  0  0
  8 10  1  0  0  0  0
  8 11  2  0  0  0  0
  9 13  1  0  0  0  0
  9 14  1  0  0  0  0
  9 15  1  0  0  0  0
 10 16  1  0  0  0  0
 10 17  1  0  0  0  0
 10 18  1  0  0  0  0
 19 20  1  0  0  0  0
 20 21  1  0  0  0  0
 20 22  1  0  0  0  0
 20 23  1  0  0  0  0
 23 24  4  0  0  0  0
 23 28  4  0  0  0  0
 24 25  4  0  0  0  0
 24 29  1  0  0  0  0
 25 26  4  0  0  0  0
 25 30  1  0  0  0  0
 26 27  4  0  0  0  0
 26 31  1  0  0  0  0
 27 28  4  0  0  0  0
 27 32  1  0  0  0  0
 28 33  1  0  0  0  0
 29 34  1  0  0  0  0
 29 35  1  0  0  0  0
M  END
> <BCLConfClusterSize>
1

> <ConfClashScore>
0 

> <ConfOneFourInteractionScore>
-0.949142 

> <ConfScore>
0.0752787 

> <ConfScorePBest>
0.00777687 

> <ConfTolerance>
0.354801 

> <RosettaParamsInstructions>
M  ROOT 3
M  POLY_N_BB 3
M  POLY_CA_BB 4
M  POLY_C_BB 2
M  POLY_O_BB 5
M  POLY_IGNORE 9 10 11 12 13 14 15 16 17 18 
M  POLY_UPPER 6
M  POLY_LOWER 8
M  POLY_CHG 0
M  POLY_PROPERTIES ALPHA_AA D_AA PROTEIN AROMATIC POLYMER 
M  END

$$$$



 35 35  0  0  0  0  0  0  0  0999 V2000
   -1.7218    4.7312   -0.8576 H   0  0  0  1  0  0  0  0  0  0  0  0
    0.1594    4.3005   -0.0374 C   0  0  0  1  0  0  0  0  0  0  0  0
   -2.0410    3.6835    0.8909 N   0  0  0  1  0  0  0  0  0  0  0  0
   -1.2754    3.9010   -0.3512 C   0  0  0  1  0  0  0  0  0  0  0  0
    0.4190    5.0777    0.8774 O   0  0  0  1  0  0  0  0  0  0  0  0
    1.0961    3.7545   -0.8145 N   0  0  0  1  0  0  0  0  0  0  0  0
   -2.9167    4.1125    0.9880 H   0  0  0  1  0  0  0  0  0  0  0  0
   -1.5781    2.9154    1.8965 C   0  0  0  1  0  0  0  0  0  0  0  0
    2.4822    4.1822   -0.6985 C   0  0  0  1  0  0  0  0  0  0  0  0
   -2.5420    2.7972    3.0701 C   0  0  0  1  0  0  0  0  0  0  0  0
   -0.4952    2.3537    1.8993 O   0  0  0  1  0  0  0  0  0  0  0  0
    0.8503    3.0638   -1.4649 H   0  0  0  1  0  0  0  0  0  0  0  0
    2.5453    5.0099   -0.0234 H   0  0  0  1  0  0  0  0  0  0  0  0
    2.8455    4.4784   -1.6604 H   0  0  0  1  0  0  0  0  0  0  0  0
    3.0750    3.3729   -0.3265 H   0  0  0  1  0  0  0  0  0  0  0  0
   -2.0613    2.2843    3.8768 H   0  0  0  1  0  0  0  0  0  0  0  0
   -3.4089    2.2490    2.7655 H   0  0  0  1  0  0  0  0  0  0  0  0
   -2.8328    3.7751    3.3924 H   0  0  0  1  0  0  0  0  0  0  0  0
   -0.8866    3.0876   -4.0398 F   0  0  0  1  0  0  0  0  0  0  0  0
   -1.9986    3.8103   -3.8944 C   0  0  0  1  0  0  0  0  0  0  0  0
   -1.5971    4.9419   -3.3132 F   0  0  0  1  0  0  0  0  0  0  0  0
   -2.3610    4.1394   -5.1232 F   0  0  0  1  0  0  0  0  0  0  0  0
   -3.0783    3.0921   -3.1200 C   0  0  0  1  0  0  0  0  0  0  0  0
   -2.7975    2.5556   -1.8730 C   0  0  0  1  0  0  0  0  0  0  0  0
   -3.7846    1.8939   -1.1674 C   0  0  0  1  0  0  0  0  0  0  0  0
   -5.0568    1.7713   -1.7041 C   0  0  0  1  0  0  0  0  0  0  0  0
   -5.3366    2.3062   -2.9473 C   0  0  0  1  0  0  0  0  0  0  0  0
   -4.3467    2.9699   -3.6553 C   0  0  0  1  0  0  0  0  0  0  0  0
   -1.4131    2.6939   -1.2850 C   0  0  0  1  0  0  0  0  0  0  0  0
   -3.5729    1.4879   -0.2336 H   0  0  0  1  0  0  0  0  0  0  0  0
   -5.8005    1.2768   -1.1713 H   0  0  0  1  0  0  0  0  0  0  0  0
   -6.2899    2.2107   -3.3518 H   0  0  0  1  0  0  0  0  0  0  0  0
   -4.5585    3.3759   -4.5890 H   0  0  0  1  0  0  0  0  0  0  0  0
   -1.1885    1.8069   -0.7303 H   0  0  0  1  0  0  0  0  0  0  0  0
   -0.7119    2.8013   -2.0861 H   0  0  0  1  0  0  0  0  0  0  0  0
  1  4  1  0  0  0  0
  2  4  1  0  0  0  0
  2  5  2  0  0  0  0
  2  6  1  0  0  0  0
  3  4  1  0  0  0  0
  3  7  1  0  0  0  0
  3  8  1  0  0  0  0
  4 29  1  0  0  0  0
  6  9  1  0  0  0  0
  6 12  1  0  0  0  0
  8 10  1  0  0  0  0
  8 11  2  0  0  0  0
  9 13  1  0  0  0  0
  9 14  1  0  0  0  0
  9 15  1  0  0  0  0
 10 16  1  0  0  0  0
 10 17  1  0  0  0  0
 10 18  1  0  0  0  0
 19 20  1  0  0  0  0
 20 21  1  0  0  0  0
 20 22  1  0  0  0  0
 20 23  1  0  0  0  0
 23 24  4  0  0  0  0
 23 28  4  0  0  0  0
 24 25  4  0  0  0  0
 24 29  1  0  0  0  0
 25 26  4  0  0  0  0
 25 30  1  0  0  0  0
 26 27  4  0  0  0  0
 26 31  1  0  0  0  0
 27 28  4  0  0  0  0
 27 32  1  0  0  0  0
 28 33  1  0  0  0  0
 29 34  1  0  0  0  0
 29 35  1  0  0  0  0
M  END
> <BCLConfClusterSize>
1

> <ConfClashScore>
0 

> <ConfOneFourInteractionScore>
-0.923745 

> <ConfScore>
0.111305 

> <ConfScorePBest>
0.00774839 

> <ConfTolerance>
0.381035 

> <RosettaParamsInstructions>
M  ROOT 3
M  POLY_N_BB 3
M  POLY_CA_BB 4
M  POLY_C_BB 2
M  POLY_O_BB 5
M  POLY_IGNORE 9 10 11 12 13 14 15 16 17 18 
M  POLY_UPPER 6
M  POLY_LOWER 8
M  POLY_CHG 0
M  POLY_PROPERTIES ALPHA_AA D_AA PROTEIN AROMATIC POLYMER 
M  END

$$$$



 35 35  0  0  0  0  0  0  0  0999 V2000
   -0.0076    3.3741   -0.1345 H   0  0  0  1  0  0  0  0  0  0  0  0
   -1.7997    2.9591    0.9386 C   0  0  0  1  0  0  0  0  0  0  0  0
   -1.5032    4.7014   -0.7366 N   0  0  0  1  0  0  0  0  0  0  0  0
   -1.0582    3.3584   -0.3367 C   0  0  0  1  0  0  0  0  0  0  0  0
   -2.2534    3.8060    1.7037 O   0  0  0  1  0  0  0  0  0  0  0  0
   -1.9161    1.6396    1.1566 N   0  0  0  1  0  0  0  0  0  0  0  0
   -0.8426    5.2917   -1.1555 H   0  0  0  1  0  0  0  0  0  0  0  0
   -2.7431    5.1788   -0.5714 C   0  0  0  1  0  0  0  0  0  0  0  0
   -2.5048    1.1018    2.3740 C   0  0  0  1  0  0  0  0  0  0  0  0
   -2.9459    6.6319   -0.9541 C   0  0  0  1  0  0  0  0  0  0  0  0
   -3.6696    4.4983   -0.1390 O   0  0  0  1  0  0  0  0  0  0  0  0
   -1.5936    1.0169    0.4721 H   0  0  0  1  0  0  0  0  0  0  0  0
   -3.1428    1.8375    2.8175 H   0  0  0  1  0  0  0  0  0  0  0  0
   -1.7270    0.8433    3.0619 H   0  0  0  1  0  0  0  0  0  0  0  0
   -3.0773    0.2293    2.1378 H   0  0  0  1  0  0  0  0  0  0  0  0
   -3.5241    7.1227   -0.1993 H   0  0  0  1  0  0  0  0  0  0  0  0
   -3.4624    6.6854   -1.8897 H   0  0  0  1  0  0  0  0  0  0  0  0
   -1.9944    7.1131   -1.0434 H   0  0  0  1  0  0  0  0  0  0  0  0
   -1.3790    4.7483   -3.1587 F   0  0  0  1  0  0  0  0  0  0  0  0
   -1.9954    3.8177   -3.8894 C   0  0  0  1  0  0  0  0  0  0  0  0
   -2.4694    4.4439   -4.9676 F   0  0  0  1  0  0  0  0  0  0  0  0
   -1.0422    2.9931   -4.3251 F   0  0  0  1  0  0  0  0  0  0  0  0
   -3.0753    3.0972   -3.1172 C   0  0  0  1  0  0  0  0  0  0  0  0
   -2.7549    2.4005   -1.9624 C   0  0  0  1  0  0  0  0  0  0  0  0
   -3.7427    1.7370   -1.2593 C   0  0  0  1  0  0  0  0  0  0  0  0
   -5.0545    1.7726   -1.7059 C   0  0  0  1  0  0  0  0  0  0  0  0
   -5.3737    2.4672   -2.8572 C   0  0  0  1  0  0  0  0  0  0  0  0
   -4.3832    3.1328   -3.5626 C   0  0  0  1  0  0  0  0  0  0  0  0
   -1.3267    2.3661   -1.4720 C   0  0  0  1  0  0  0  0  0  0  0  0
   -3.5017    1.2110   -0.3951 H   0  0  0  1  0  0  0  0  0  0  0  0
   -5.7984    1.2767   -1.1745 H   0  0  0  1  0  0  0  0  0  0  0  0
   -6.3572    2.4906   -3.1945 H   0  0  0  1  0  0  0  0  0  0  0  0
   -4.6242    3.6588   -4.4268 H   0  0  0  1  0  0  0  0  0  0  0  0
   -1.1113    1.3790   -1.1196 H   0  0  0  1  0  0  0  0  0  0  0  0
   -0.6796    2.6021   -2.2908 H   0  0  0  1  0  0  0  0  0  0  0  0
  1  4  1  0  0  0  0
  2  4  1  0  0  0  0
  2  5  2  0  0  0  0
  2  6  1  0  0  0  0
  3  4  1  0  0  0  0
  3  7  1  0  0  0  0
  3  8  1  0  0  0  0
  4 29  1  0  0  0  0
  6  9  1  0  0  0  0
  6 12  1  0  0  0  0
  8 10  1  0  0  0  0
  8 11  2  0  0  0  0
  9 13  1  0  0  0  0
  9 14  1  0  0  0  0
  9 15  1  0  0  0  0
 10 16  1  0  0  0  0
 10 17  1  0  0  0  0
 10 18  1  0  0  0  0
 19 20  1  0  0  0  0
 20 21  1  0  0  0  0
 20 22  1  0  0  0  0
 20 23  1  0  0  0  0
 23 24  4  0  0  0  0
 23 28  4  0  0  0  0
 24 25  4  0  0  0  0
 24 29  1  0  0  0  0
 25 26  4  0  0  0  0
 25 30  1  0  0  0  0
 26 27  4  0  0  0  0
 26 31  1  0  0  0  0
 27 28  4  0  0  0  0
 27 32  1  0  0  0  0
 28 33  1  0  0  0  0
 29 34  1  0  0  0  0
 29 35  1  0  0  0  0
M  END
> <BCLConfClusterSize>
1

> <ConfClashScore>
0 

> <ConfOneFourInteractionScore>
-0.92611 

> <ConfScore>
0.134958 

> <ConfScorePBest>
0.00771991 

> <ConfTolerance>
0.347705 

> <RosettaParamsInstructions>
M  ROOT 3
M  POLY_N_BB 3
M  POLY_CA_BB 4
M  POLY_C_BB 2
M  POLY_O_BB 5
M  POLY_IGNORE 9 10 11 12 13 14 15 16 17 18 
M  POLY_UPPER 6
M  POLY_LOWER 8
M  POLY_CHG 0
M  POLY_PROPERTIES ALPHA_AA D_AA PROTEIN AROMATIC POLYMER 
M  END

$$$$



 35 35  0  0  0  0  0  0  0  0999 V2000
   -1.4140    4.4276   -1.0598 H   0  0  0  1  0  0  0  0  0  0  0  0
    0.3654    3.7274   -0.2039 C   0  0  0  1  0  0  0  0  0  0  0  0
   -1.9653    3.3921    0.6342 N   0  0  0  1  0  0  0  0  0  0  0  0
   -1.0991    3.5499   -0.5351 C   0  0  0  1  0  0  0  0  0  0  0  0
    1.1589    4.1280   -1.0515 O   0  0  0  1  0  0  0  0  0  0  0  0
    0.7680    3.4364    1.0335 N   0  0  0  1  0  0  0  0  0  0  0  0
   -2.1259    2.4915    0.9857 H   0  0  0  1  0  0  0  0  0  0  0  0
   -2.5494    4.4418    1.2440 C   0  0  0  1  0  0  0  0  0  0  0  0
    2.0817    3.7677    1.5648 C   0  0  0  1  0  0  0  0  0  0  0  0
   -3.5985    4.0450    2.2748 C   0  0  0  1  0  0  0  0  0  0  0  0
   -2.2868    5.6118    1.0163 O   0  0  0  1  0  0  0  0  0  0  0  0
    0.1391    2.9697    1.6227 H   0  0  0  1  0  0  0  0  0  0  0  0
    2.1355    4.8194    1.7542 H   0  0  0  1  0  0  0  0  0  0  0  0
    2.8330    3.4948    0.8535 H   0  0  0  1  0  0  0  0  0  0  0  0
    2.2424    3.2325    2.4772 H   0  0  0  1  0  0  0  0  0  0  0  0
   -3.1444    3.4404    3.0320 H   0  0  0  1  0  0  0  0  0  0  0  0
   -4.3774    3.4900    1.7951 H   0  0  0  1  0  0  0  0  0  0  0  0
   -4.0104    4.9258    2.7214 H   0  0  0  1  0  0  0  0  0  0  0  0
   -1.2746    4.6512   -3.1303 F   0  0  0  1  0  0  0  0  0  0  0  0
   -1.9992    3.8235   -3.8851 C   0  0  0  1  0  0  0  0  0  0  0  0
   -2.4710    4.5461   -4.9023 F   0  0  0  1  0  0  0  0  0  0  0  0
   -1.1185    2.9849   -4.4327 F   0  0  0  1  0  0  0  0  0  0  0  0
   -3.0782    3.1001   -3.1146 C   0  0  0  1  0  0  0  0  0  0  0  0
   -2.7563    2.3974   -1.9638 C   0  0  0  1  0  0  0  0  0  0  0  0
   -3.7434    1.7313   -1.2622 C   0  0  0  1  0  0  0  0  0  0  0  0
   -5.0560    1.7703   -1.7061 C   0  0  0  1  0  0  0  0  0  0  0  0
   -5.3767    2.4709   -2.8535 C   0  0  0  1  0  0  0  0  0  0  0  0
   -4.3869    3.1390   -3.5573 C   0  0  0  1  0  0  0  0  0  0  0  0
   -1.3273    2.3593   -1.4762 C   0  0  0  1  0  0  0  0  0  0  0  0
   -3.5013    1.2008   -0.4010 H   0  0  0  1  0  0  0  0  0  0  0  0
   -5.7993    1.2723   -1.1759 H   0  0  0  1  0  0  0  0  0  0  0  0
   -6.3608    2.4968   -3.1888 H   0  0  0  1  0  0  0  0  0  0  0  0
   -4.6291    3.6695   -4.4185 H   0  0  0  1  0  0  0  0  0  0  0  0
   -1.1505    1.4448   -0.9496 H   0  0  0  1  0  0  0  0  0  0  0  0
   -0.6601    2.4261   -2.3100 H   0  0  0  1  0  0  0  0  0  0  0  0
  1  4  1  0  0  0  0
  2  4  1  0  0  0  0
  2  5  2  0  0  0  0
  2  6  1  0  0  0  0
  3  4  1  0  0  0  0
  3  7  1  0  0  0  0
  3  8  1  0  0  0  0
  4 29  1  0  0  0  0
  6  9  1  0  0  0  0
  6 12  1  0  0  0  0
  8 10  1  0  0  0  0
  8 11  2  0  0  0  0
  9 13  1  0  0  0  0
  9 14  1  0  0  0  0
  9 15  1  0  0  0  0
 10 16  1  0  0  0  0
 10 17  1  0  0  0  0
 10 18  1  0  0  0  0
 19 20  1  0  0  0  0
 20 21  1  0  0  0  0
 20 22  1  0  0  0  0
 20 23  1  0  0  0  0
 23 24  4  0  0  0  0
 23 28  4  0  0  0  0
 24 25  4  0  0  0  0
 24 29  1  0  0  0  0
 25 26  4  0  0  0  0
 25 30  1  0  0  0  0
 26 27  4  0  0  0  0
 26 31  1  0  0  0  0
 27 28  4  0  0  0  0
 27 32  1  0  0  0  0
 28 33  1  0  0  0  0
 29 34  1  0  0  0  0
 29 35  1  0  0  0  0
M  END
> <BCLConfClusterSize>
1

> <ConfClashScore>
0 

> <ConfOneFourInteractionScore>
-0.960318 

> <ConfScore>
0.141302 

> <ConfScorePBest>
0.00769143 

> <ConfTolerance>
0.311887 

> <RosettaParamsInstructions>
M  ROOT 3
M  POLY_N_BB 3
M  POLY_CA_BB 4
M  POLY_C_BB 2
M  POLY_O_BB 5
M  POLY_IGNORE 9 10 11 12 13 14 15 16 17 18 
M  POLY_UPPER 6
M  POLY_LOWER 8
M  POLY_CHG 0
M  POLY_PROPERTIES ALPHA_AA D_AA PROTEIN AROMATIC POLYMER 
M  END

$$$$



 35 35  0  0  0  0  0  0  0  0999 V2000
    0.2577    2.1916   -0.4535 H   0  0  0  1  0  0  0  0  0  0  0  0
   -0.1930    1.2974   -2.3022 C   0  0  0  1  0  0  0  0  0  0  0  0
   -1.2625    0.8433   -0.1271 N   0  0  0  1  0  0  0  0  0  0  0  0
   -0.6235    1.8533   -0.9574 C   0  0  0  1  0  0  0  0  0  0  0  0
    0.8235    1.7098   -2.8593 O   0  0  0  1  0  0  0  0  0  0  0  0
   -0.9534    0.3442   -2.8637 N   0  0  0  1  0  0  0  0  0  0  0  0
   -1.4666   -0.0314   -0.5192 H   0  0  0  1  0  0  0  0  0  0  0  0
   -1.5805    1.0669    1.1512 C   0  0  0  1  0  0  0  0  0  0  0  0
   -0.5522   -0.2622   -4.1243 C   0  0  0  1  0  0  0  0  0  0  0  0
   -2.3433   -0.0451    1.8445 C   0  0  0  1  0  0  0  0  0  0  0  0
   -1.2820    2.1026    1.7444 O   0  0  0  1  0  0  0  0  0  0  0  0
   -1.7804    0.0562   -2.4239 H   0  0  0  1  0  0  0  0  0  0  0  0
    0.5112   -0.2021   -4.2272 H   0  0  0  1  0  0  0  0  0  0  0  0
   -1.0186    0.2582   -4.9346 H   0  0  0  1  0  0  0  0  0  0  0  0
   -0.8541   -1.2887   -4.1381 H   0  0  0  1  0  0  0  0  0  0  0  0
   -1.7845   -0.9554    1.7804 H   0  0  0  1  0  0  0  0  0  0  0  0
   -3.2931   -0.1757    1.3694 H   0  0  0  1  0  0  0  0  0  0  0  0
   -2.4905    0.2111    2.8729 H   0  0  0  1  0  0  0  0  0  0  0  0
   -2.3325    3.9645   -5.1768 F   0  0  0  1  0  0  0  0  0  0  0  0
   -1.9915    3.8123   -3.8960 C   0  0  0  1  0  0  0  0  0  0  0  0
   -0.8074    3.1990   -3.8629 F   0  0  0  1  0  0  0  0  0  0  0  0
   -1.8209    5.0320   -3.3843 F   0  0  0  1  0  0  0  0  0  0  0  0
   -3.0464    3.0450   -3.1344 C   0  0  0  1  0  0  0  0  0  0  0  0
   -2.8533    2.7262   -1.7993 C   0  0  0  1  0  0  0  0  0  0  0  0
   -3.8571    2.0976   -1.0869 C   0  0  0  1  0  0  0  0  0  0  0  0
   -5.0589    1.7908   -1.7060 C   0  0  0  1  0  0  0  0  0  0  0  0
   -5.2512    2.1087   -3.0371 C   0  0  0  1  0  0  0  0  0  0  0  0
   -4.2446    2.7391   -3.7518 C   0  0  0  1  0  0  0  0  0  0  0  0
   -1.5463    3.0654   -1.1224 C   0  0  0  1  0  0  0  0  0  0  0  0
   -3.7109    1.8547   -0.0863 H   0  0  0  1  0  0  0  0  0  0  0  0
   -5.8156    1.3214   -1.1688 H   0  0  0  1  0  0  0  0  0  0  0  0
   -6.1513    1.8749   -3.5027 H   0  0  0  1  0  0  0  0  0  0  0  0
   -4.3909    2.9820   -4.7524 H   0  0  0  1  0  0  0  0  0  0  0  0
   -1.0394    3.8018   -1.7103 H   0  0  0  1  0  0  0  0  0  0  0  0
   -1.7586    3.4662   -0.1533 H   0  0  0  1  0  0  0  0  0  0  0  0
  1  4  1  0  0  0  0
  2  4  1  0  0  0  0
  2  5  2  0  0  0  0
  2  6  1  0  0  0  0
  3  4  1  0  0  0  0
  3  7  1  0  0  0  0
  3  8  1  0  0  0  0
  4 29  1  0  0  0  0
  6  9  1  0  0  0  0
  6 12  1  0  0  0  0
  8 10  1  0  0  0  0
  8 11  2  0  0  0  0
  9 13  1  0  0  0  0
  9 14  1  0  0  0  0
  9 15  1  0  0  0  0
 10 16  1  0  0  0  0
 10 17  1  0  0  0  0
 10 18  1  0  0  0  0
 19 20  1  0  0  0  0
 20 21  1  0  0  0  0
 20 22  1  0  0  0  0
 20 23  1  0  0  0  0
 23 24  4  0  0  0  0
 23 28  4  0  0  0  0
 24 25  4  0  0  0  0
 24 29  1  0  0  0  0
 25 26  4  0  0  0  0
 25 30  1  0  0  0  0
 26 27  4  0  0  0  0
 26 31  1  0  0  0  0
 27 28  4  0  0  0  0
 27 32  1  0  0  0  0
 28 33  1  0  0  0  0
 29 34  1  0  0  0  0
 29 35  1  0  0  0  0
M  END
> <BCLConfClusterSize>
1

> <ConfClashScore>
0 

> <ConfOneFourInteractionScore>
-0.952634 

> <ConfScore>
0.145551 

> <ConfScorePBest>
0.00766295 

> <ConfTolerance>
0.304873 

> <RosettaParamsInstructions>
M  ROOT 3
M  POLY_N_BB 3
M  POLY_CA_BB 4
M  POLY_C_BB 2
M  POLY_O_BB 5
M  POLY_IGNORE 9 10 11 12 13 14 15 16 17 18 
M  POLY_UPPER 6
M  POLY_LOWER 8
M  POLY_CHG 0
M  POLY_PROPERTIES ALPHA_AA D_AA PROTEIN AROMATIC POLYMER 
M  END

$$$$



 35 35  0  0  0  0  0  0  0  0999 V2000
   -1.3941    4.3761   -0.7980 H   0  0  0  1  0  0  0  0  0  0  0  0
    0.4286    3.5864   -0.1101 C   0  0  0  1  0  0  0  0  0  0  0  0
   -1.7855    3.0956    0.7789 N   0  0  0  1  0  0  0  0  0  0  0  0
   -1.0423    3.4295   -0.4444 C   0  0  0  1  0  0  0  0  0  0  0  0
    0.7828    4.0885    0.9534 O   0  0  0  1  0  0  0  0  0  0  0  0
    1.3338    3.1588   -1.0145 N   0  0  0  1  0  0  0  0  0  0  0  0
   -2.3040    2.2645    0.8053 H   0  0  0  1  0  0  0  0  0  0  0  0
   -1.7787    3.8843    1.8540 C   0  0  0  1  0  0  0  0  0  0  0  0
    2.7532    3.3935   -0.7950 C   0  0  0  1  0  0  0  0  0  0  0  0
   -2.6251    3.4144    3.0210 C   0  0  0  1  0  0  0  0  0  0  0  0
   -1.1333    4.9300    1.9136 O   0  0  0  1  0  0  0  0  0  0  0  0
    1.0349    2.6890   -1.8210 H   0  0  0  1  0  0  0  0  0  0  0  0
    3.3192    2.6032   -1.2420 H   0  0  0  1  0  0  0  0  0  0  0  0
    2.9511    3.4234    0.2561 H   0  0  0  1  0  0  0  0  0  0  0  0
    3.0327    4.3267   -1.2377 H   0  0  0  1  0  0  0  0  0  0  0  0
   -2.8510    2.3752    2.9028 H   0  0  0  1  0  0  0  0  0  0  0  0
   -3.5354    3.9760    3.0500 H   0  0  0  1  0  0  0  0  0  0  0  0
   -2.0861    3.5603    3.9337 H   0  0  0  1  0  0  0  0  0  0  0  0
   -1.3266    4.6747   -3.0720 F   0  0  0  1  0  0  0  0  0  0  0  0
   -1.9720    3.8149   -3.8620 C   0  0  0  1  0  0  0  0  0  0  0  0
   -2.3815    4.5122   -4.9115 F   0  0  0  1  0  0  0  0  0  0  0  0
   -1.0514    2.9612   -4.3162 F   0  0  0  1  0  0  0  0  0  0  0  0
   -3.1116    3.1148   -3.1495 C   0  0  0  1  0  0  0  0  0  0  0  0
   -2.7650    2.4202   -2.0010 C   0  0  0  1  0  0  0  0  0  0  0  0
   -3.7339    1.7443   -1.2836 C   0  0  0  1  0  0  0  0  0  0  0  0
   -5.0528    1.7653   -1.7094 C   0  0  0  1  0  0  0  0  0  0  0  0
   -5.3982    2.4578   -2.8545 C   0  0  0  1  0  0  0  0  0  0  0  0
   -4.4267    3.1359   -3.5742 C   0  0  0  1  0  0  0  0  0  0  0  0
   -1.3290    2.4017   -1.5331 C   0  0  0  1  0  0  0  0  0  0  0  0
   -3.4732    1.2198   -0.4242 H   0  0  0  1  0  0  0  0  0  0  0  0
   -5.7824    1.2599   -1.1673 H   0  0  0  1  0  0  0  0  0  0  0  0
   -6.3871    2.4703   -3.1762 H   0  0  0  1  0  0  0  0  0  0  0  0
   -4.6874    3.6603   -4.4336 H   0  0  0  1  0  0  0  0  0  0  0  0
   -1.1086    1.4278   -1.1486 H   0  0  0  1  0  0  0  0  0  0  0  0
   -0.6953    2.6069   -2.3705 H   0  0  0  1  0  0  0  0  0  0  0  0
  1  4  1  0  0  0  0
  2  4  1  0  0  0  0
  2  5  2  0  0  0  0
  2  6  1  0  0  0  0
  3  4  1  0  0  0  0
  3  7  1  0  0  0  0
  3  8  1  0  0  0  0
  4 29  1  0  0  0  0
  6  9  1  0  0  0  0
  6 12  1  0  0  0  0
  8 10  1  0  0  0  0
  8 11  2  0  0  0  0
  9 13  1  0  0  0  0
  9 14  1  0  0  0  0
  9 15  1  0  0  0  0
 10 16  1  0  0  0  0
 10 17  1  0  0  0  0
 10 18  1  0  0  0  0
 19 20  1  0  0  0  0
 20 21  1  0  0  0  0
 20 22  1  0  0  0  0
 20 23  1  0  0  0  0
 23 24  4  0  0  0  0
 23 28  4  0  0  0  0
 24 25  4  0  0  0  0
 24 29  1  0  0  0  0
 25 26  4  0  0  0  0
 25 30  1  0  0  0  0
 26 27  4  0  0  0  0
 26 31  1  0  0  0  0
 27 28  4  0  0  0  0
 27 32  1  0  0  0  0
 28 33  1  0  0  0  0
 29 34  1  0  0  0  0
 29 35  1  0  0  0  0
M  END
> <BCLConfClusterSize>
1

> <ConfClashScore>
0 

> <ConfOneFourInteractionScore>
-0.95498 

> <ConfScore>
0.169028 

> <ConfScorePBest>
0.00763447 

> <ConfTolerance>
0.368951 

> <RosettaParamsInstructions>
M  ROOT 3
M  POLY_N_BB 3
M  POLY_CA_BB 4
M  POLY_C_BB 2
M  POLY_O_BB 5
M  POLY_IGNORE 9 10 11 12 13 14 15 16 17 18 
M  POLY_UPPER 6
M  POLY_LOWER 8
M  POLY_CHG 0
M  POLY_PROPERTIES ALPHA_AA D_AA PROTEIN AROMATIC POLYMER 
M  END

$$$$



 35 35  0  0  0  0  0  0  0  0999 V2000
   -1.1148    4.4179   -1.0519 H   0  0  0  1  0  0  0  0  0  0  0  0
    0.3712    3.4077    0.0806 C   0  0  0  1  0  0  0  0  0  0  0  0
   -2.0001    3.4954    0.5990 N   0  0  0  1  0  0  0  0  0  0  0  0
   -1.0291    3.5022   -0.5050 C   0  0  0  1  0  0  0  0  0  0  0  0
    1.3671    3.6280   -0.6074 O   0  0  0  1  0  0  0  0  0  0  0  0
    0.4388    3.0740    1.3725 N   0  0  0  1  0  0  0  0  0  0  0  0
   -2.5146    2.6793    0.7713 H   0  0  0  1  0  0  0  0  0  0  0  0
   -2.2057    4.5644    1.3764 C   0  0  0  1  0  0  0  0  0  0  0  0
    1.6790    3.1469    2.1304 C   0  0  0  1  0  0  0  0  0  0  0  0
   -3.3735    4.4670    2.3318 C   0  0  0  1  0  0  0  0  0  0  0  0
   -1.5015    5.5696    1.3311 O   0  0  0  1  0  0  0  0  0  0  0  0
   -0.3752    2.7696    1.8256 H   0  0  0  1  0  0  0  0  0  0  0  0
    1.5755    2.5915    3.0391 H   0  0  0  1  0  0  0  0  0  0  0  0
    1.8966    4.1691    2.3603 H   0  0  0  1  0  0  0  0  0  0  0  0
    2.4767    2.7339    1.5491 H   0  0  0  1  0  0  0  0  0  0  0  0
   -4.1179    5.1862    2.0606 H   0  0  0  1  0  0  0  0  0  0  0  0
   -3.0360    4.6619    3.3283 H   0  0  0  1  0  0  0  0  0  0  0  0
   -3.7931    3.4839    2.2827 H   0  0  0  1  0  0  0  0  0  0  0  0
   -1.0318    4.2820   -3.1336 F   0  0  0  1  0  0  0  0  0  0  0  0
   -2.0218    3.8103   -3.8934 C   0  0  0  1  0  0  0  0  0  0  0  0
   -2.5210    4.8594   -4.5487 F   0  0  0  1  0  0  0  0  0  0  0  0
   -1.4487    3.0332   -4.8133 F   0  0  0  1  0  0  0  0  0  0  0  0
   -3.0509    3.0915   -3.1037 C   0  0  0  1  0  0  0  0  0  0  0  0
   -2.7432    2.3851   -1.9514 C   0  0  0  1  0  0  0  0  0  0  0  0
   -3.7412    1.7283   -1.2563 C   0  0  0  1  0  0  0  0  0  0  0  0
   -5.0505    1.7805   -1.7084 C   0  0  0  1  0  0  0  0  0  0  0  0
   -5.3571    2.4848   -2.8573 C   0  0  0  1  0  0  0  0  0  0  0  0
   -4.3564    3.1435   -3.5546 C   0  0  0  1  0  0  0  0  0  0  0  0
   -1.3176    2.3326   -1.4549 C   0  0  0  1  0  0  0  0  0  0  0  0
   -3.5097    1.1950   -0.3940 H   0  0  0  1  0  0  0  0  0  0  0  0
   -5.8020    1.2897   -1.1831 H   0  0  0  1  0  0  0  0  0  0  0  0
   -6.3388    2.5206   -3.1988 H   0  0  0  1  0  0  0  0  0  0  0  0
   -4.5879    3.6769   -4.4169 H   0  0  0  1  0  0  0  0  0  0  0  0
   -1.1612    1.4110   -0.9342 H   0  0  0  1  0  0  0  0  0  0  0  0
   -0.6526    2.3877   -2.2913 H   0  0  0  1  0  0  0  0  0  0  0  0
  1  4  1  0  0  0  0
  2  4  1  0  0  0  0
  2  5  2  0  0  0  0
  2  6  1  0  0  0  0
  3  4  1  0  0  0  0
  3  7  1  0  0  0  0
  3  8  1  0  0  0  0
  4 29  1  0  0  0  0
  6  9  1  0  0  0  0
  6 12  1  0  0  0  0
  8 10  1  0  0  0  0
  8 11  2  0  0  0  0
  9 13  1  0  0  0  0
  9 14  1  0  0  0  0
  9 15  1  0  0  0  0
 10 16  1  0  0  0  0
 10 17  1  0  0  0  0
 10 18  1  0  0  0  0
 19 20  1  0  0  0  0
 20 21  1  0  0  0  0
 20 22  1  0  0  0  0
 20 23  1  0  0  0  0
 23 24  4  0  0  0  0
 23 28  4  0  0  0  0
 24 25  4  0  0  0  0
 24 29  1  0  0  0  0
 25 26  4  0  0  0  0
 25 30  1  0  0  0  0
 26 27  4  0  0  0  0
 26 31  1  0  0  0  0
 27 28  4  0  0  0  0
 27 32  1  0  0  0  0
 28 33  1  0  0  0  0
 29 34  1  0  0  0  0
 29 35  1  0  0  0  0
M  END
> <BCLConfClusterSize>
1

> <ConfClashScore>
0 

> <ConfOneFourInteractionScore>
-0.94165 

> <ConfScore>
0.185666 

> <ConfScorePBest>
0.00760599 

> <ConfTolerance>
0.32392 

> <RosettaParamsInstructions>
M  ROOT 3
M  POLY_N_BB 3
M  POLY_CA_BB 4
M  POLY_C_BB 2
M  POLY_O_BB 5
M  POLY_IGNORE 9 10 11 12 13 14 15 16 17 18 
M  POLY_UPPER 6
M  POLY_LOWER 8
M  POLY_CHG 0
M  POLY_PROPERTIES ALPHA_AA D_AA PROTEIN AROMATIC POLYMER 
M  END

$$$$



 35 35  0  0  0  0  0  0  0  0999 V2000
   -0.3504    2.9074    0.5150 H   0  0  0  1  0  0  0  0  0  0  0  0
   -1.1181    0.9953    0.3079 C   0  0  0  1  0  0  0  0  0  0  0  0
   -2.2829    3.0303    1.1752 N   0  0  0  1  0  0  0  0  0  0  0  0
   -1.2910    2.4996    0.2087 C   0  0  0  1  0  0  0  0  0  0  0  0
   -1.1878    0.4234    1.3926 O   0  0  0  1  0  0  0  0  0  0  0  0
   -0.8873    0.3109   -0.8228 N   0  0  0  1  0  0  0  0  0  0  0  0
   -3.0152    3.5900    0.8422 H   0  0  0  1  0  0  0  0  0  0  0  0
   -2.2124    2.7707    2.4904 C   0  0  0  1  0  0  0  0  0  0  0  0
   -0.4670   -1.0818   -0.8641 C   0  0  0  1  0  0  0  0  0  0  0  0
   -3.3408    3.3314    3.3339 C   0  0  0  1  0  0  0  0  0  0  0  0
   -1.3001    2.1223    2.9961 O   0  0  0  1  0  0  0  0  0  0  0  0
   -1.0095    0.7787   -1.6753 H   0  0  0  1  0  0  0  0  0  0  0  0
    0.1487   -1.2943   -0.0152 H   0  0  0  1  0  0  0  0  0  0  0  0
    0.0886   -1.2600   -1.7610 H   0  0  0  1  0  0  0  0  0  0  0  0
   -1.3293   -1.7150   -0.8464 H   0  0  0  1  0  0  0  0  0  0  0  0
   -4.2659    2.8841    3.0357 H   0  0  0  1  0  0  0  0  0  0  0  0
   -3.3964    4.3910    3.1958 H   0  0  0  1  0  0  0  0  0  0  0  0
   -3.1563    3.1148    4.3654 H   0  0  0  1  0  0  0  0  0  0  0  0
   -2.4738    4.5273   -4.8980 F   0  0  0  1  0  0  0  0  0  0  0  0
   -1.9887    3.7991   -3.8909 C   0  0  0  1  0  0  0  0  0  0  0  0
   -1.1071    2.9563   -4.4311 F   0  0  0  1  0  0  0  0  0  0  0  0
   -1.2854    4.6375   -3.1287 F   0  0  0  1  0  0  0  0  0  0  0  0
   -3.0728    3.0856   -3.1181 C   0  0  0  1  0  0  0  0  0  0  0  0
   -2.8482    2.6961   -1.8069 C   0  0  0  1  0  0  0  0  0  0  0  0
   -3.8388    2.0385   -1.1022 C   0  0  0  1  0  0  0  0  0  0  0  0
   -5.0587    1.7734   -1.7047 C   0  0  0  1  0  0  0  0  0  0  0  0
   -5.2825    2.1619   -3.0120 C   0  0  0  1  0  0  0  0  0  0  0  0
   -4.2891    2.8213   -3.7190 C   0  0  0  1  0  0  0  0  0  0  0  0
   -1.5037    3.0149   -1.1969 C   0  0  0  1  0  0  0  0  0  0  0  0
   -3.6690    1.7427   -0.1197 H   0  0  0  1  0  0  0  0  0  0  0  0
   -5.8055    1.2822   -1.1730 H   0  0  0  1  0  0  0  0  0  0  0  0
   -6.1963    1.9594   -3.4654 H   0  0  0  1  0  0  0  0  0  0  0  0
   -4.4590    3.1172   -4.7015 H   0  0  0  1  0  0  0  0  0  0  0  0
   -0.7478    2.5884   -1.8227 H   0  0  0  1  0  0  0  0  0  0  0  0
   -1.3936    4.0790   -1.1785 H   0  0  0  1  0  0  0  0  0  0  0  0
  1  4  1  0  0  0  0
  2  4  1  0  0  0  0
  2  5  2  0  0  0  0
  2  6  1  0  0  0  0
  3  4  1  0  0  0  0
  3  7  1  0  0  0  0
  3  8  1  0  0  0  0
  4 29  1  0  0  0  0
  6  9  1  0  0  0  0
  6 12  1  0  0  0  0
  8 10  1  0  0  0  0
  8 11  2  0  0  0  0
  9 13  1  0  0  0  0
  9 14  1  0  0  0  0
  9 15  1  0  0  0  0
 10 16  1  0  0  0  0
 10 17  1  0  0  0  0
 10 18  1  0  0  0  0
 19 20  1  0  0  0  0
 20 21  1  0  0  0  0
 20 22  1  0  0  0  0
 20 23  1  0  0  0  0
 23 24  4  0  0  0  0
 23 28  4  0  0  0  0
 24 25  4  0  0  0  0
 24 29  1  0  0  0  0
 25 26  4  0  0  0  0
 25 30  1  0  0  0  0
 26 27  4  0  0  0  0
 26 31  1  0  0  0  0
 27 28  4  0  0  0  0
 27 32  1  0  0  0  0
 28 33  1  0  0  0  0
 29 34  1  0  0  0  0
 29 35  1  0  0  0  0
M  END
> <BCLConfClusterSize>
1

> <ConfClashScore>
0 

> <ConfOneFourInteractionScore>
-0.935386 

> <ConfScore>
0.18661 

> <ConfScorePBest>
0.00757751 

> <ConfTolerance>
0.50982 

> <RosettaParamsInstructions>
M  ROOT 3
M  POLY_N_BB 3
M  POLY_CA_BB 4
M  POLY_C_BB 2
M  POLY_O_BB 5
M  POLY_IGNORE 9 10 11 12 13 14 15 16 17 18 
M  POLY_UPPER 6
M  POLY_LOWER 8
M  POLY_CHG 0
M  POLY_PROPERTIES ALPHA_AA D_AA PROTEIN AROMATIC POLYMER 
M  END

$$$$



 35 35  0  0  0  0  0  0  0  0999 V2000
   -1.2150    4.6700   -0.9664 H   0  0  0  1  0  0  0  0  0  0  0  0
    0.3322    3.7672    0.1413 C   0  0  0  1  0  0  0  0  0  0  0  0
   -2.0752    3.8025    0.7050 N   0  0  0  1  0  0  0  0  0  0  0  0
   -1.0910    3.7827   -0.3814 C   0  0  0  1  0  0  0  0  0  0  0  0
    1.2872    3.9692   -0.6041 O   0  0  0  1  0  0  0  0  0  0  0  0
    0.4681    3.5223    1.4477 N   0  0  0  1  0  0  0  0  0  0  0  0
   -2.5792    2.9853    0.9015 H   0  0  0  1  0  0  0  0  0  0  0  0
   -2.3087    4.8958    1.4365 C   0  0  0  1  0  0  0  0  0  0  0  0
    1.7561    3.7149    2.0971 C   0  0  0  1  0  0  0  0  0  0  0  0
   -3.3466    4.7462    2.5318 C   0  0  0  1  0  0  0  0  0  0  0  0
   -1.7287    5.9643    1.2482 O   0  0  0  1  0  0  0  0  0  0  0  0
   -0.3012    3.2123    1.9697 H   0  0  0  1  0  0  0  0  0  0  0  0
    2.2089    2.7632    2.2818 H   0  0  0  1  0  0  0  0  0  0  0  0
    1.6141    4.2281    3.0252 H   0  0  0  1  0  0  0  0  0  0  0  0
    2.3924    4.2951    1.4619 H   0  0  0  1  0  0  0  0  0  0  0  0
   -4.3099    4.5915    2.0923 H   0  0  0  1  0  0  0  0  0  0  0  0
   -3.3655    5.6341    3.1286 H   0  0  0  1  0  0  0  0  0  0  0  0
   -3.0968    3.9074    3.1473 H   0  0  0  1  0  0  0  0  0  0  0  0
   -0.8750    3.1222   -4.0217 F   0  0  0  1  0  0  0  0  0  0  0  0
   -2.0049    3.8222   -3.9056 C   0  0  0  1  0  0  0  0  0  0  0  0
   -1.6641    4.9929   -3.3647 F   0  0  0  1  0  0  0  0  0  0  0  0
   -2.4087    4.0882   -5.1485 F   0  0  0  1  0  0  0  0  0  0  0  0
   -3.0582    3.0937   -3.0965 C   0  0  0  1  0  0  0  0  0  0  0  0
   -2.7929    2.5529   -1.8480 C   0  0  0  1  0  0  0  0  0  0  0  0
   -3.7902    1.8932   -1.1548 C   0  0  0  1  0  0  0  0  0  0  0  0
   -5.0570    1.7772   -1.7054 C   0  0  0  1  0  0  0  0  0  0  0  0
   -5.3214    2.3165   -2.9502 C   0  0  0  1  0  0  0  0  0  0  0  0
   -4.3213    2.9781   -3.6457 C   0  0  0  1  0  0  0  0  0  0  0  0
   -1.3941    2.5946   -1.2798 C   0  0  0  1  0  0  0  0  0  0  0  0
   -3.5902    1.4839   -0.2199 H   0  0  0  1  0  0  0  0  0  0  0  0
   -5.8085    1.2843   -1.1820 H   0  0  0  1  0  0  0  0  0  0  0  0
   -6.2707    2.2259   -3.3651 H   0  0  0  1  0  0  0  0  0  0  0  0
   -4.5214    3.3874   -4.5806 H   0  0  0  1  0  0  0  0  0  0  0  0
   -1.2429    1.7023   -0.7091 H   0  0  0  1  0  0  0  0  0  0  0  0
   -0.7057    2.6159   -2.0986 H   0  0  0  1  0  0  0  0  0  0  0  0
  1  4  1  0  0  0  0
  2  4  1  0  0  0  0
  2  5  2  0  0  0  0
  2  6  1  0  0  0  0
  3  4  1  0  0  0  0
  3  7  1  0  0  0  0
  3  8  1  0  0  0  0
  4 29  1  0  0  0  0
  6  9  1  0  0  0  0
  6 12  1  0  0  0  0
  8 10  1  0  0  0  0
  8 11  2  0  0  0  0
  9 13  1  0  0  0  0
  9 14  1  0  0  0  0
  9 15  1  0  0  0  0
 10 16  1  0  0  0  0
 10 17  1  0  0  0  0
 10 18  1  0  0  0  0
 19 20  1  0  0  0  0
 20 21  1  0  0  0  0
 20 22  1  0  0  0  0
 20 23  1  0  0  0  0
 23 24  4  0  0  0  0
 23 28  4  0  0  0  0
 24 25  4  0  0  0  0
 24 29  1  0  0  0  0
 25 26  4  0  0  0  0
 25 30  1  0  0  0  0
 26 27  4  0  0  0  0
 26 31  1  0  0  0  0
 27 28  4  0  0  0  0
 27 32  1  0  0  0  0
 28 33  1  0  0  0  0
 29 34  1  0  0  0  0
 29 35  1  0  0  0  0
M  END
> <BCLConfClusterSize>
1

> <ConfClashScore>
0 

> <ConfOneFourInteractionScore>
-0.94165 

> <ConfScore>
0.195837 

> <ConfScorePBest>
0.00754903 

> <ConfTolerance>
0.302801 

> <RosettaParamsInstructions>
M  ROOT 3
M  POLY_N_BB 3
M  POLY_CA_BB 4
M  POLY_C_BB 2
M  POLY_O_BB 5
M  POLY_IGNORE 9 10 11 12 13 14 15 16 17 18 
M  POLY_UPPER 6
M  POLY_LOWER 8
M  POLY_CHG 0
M  POLY_PROPERTIES ALPHA_AA D_AA PROTEIN AROMATIC POLYMER 
M  END

$$$$



 35 35  0  0  0  0  0  0  0  0999 V2000
   -0.6947    0.9276   -2.9058 H   0  0  0  1  0  0  0  0  0  0  0  0
   -1.2816   -0.1758   -1.1919 C   0  0  0  1  0  0  0  0  0  0  0  0
    0.7924    1.1335   -1.4825 N   0  0  0  1  0  0  0  0  0  0  0  0
   -0.6137    1.0349   -1.8443 C   0  0  0  1  0  0  0  0  0  0  0  0
   -1.3167   -0.2804    0.0334 O   0  0  0  1  0  0  0  0  0  0  0  0
   -1.7324   -1.1369   -2.0075 N   0  0  0  1  0  0  0  0  0  0  0  0
    1.1263    1.9748   -1.1069 H   0  0  0  1  0  0  0  0  0  0  0  0
    1.6710    0.0847   -1.6498 C   0  0  0  1  0  0  0  0  0  0  0  0
   -2.3552   -2.3517   -1.5067 C   0  0  0  1  0  0  0  0  0  0  0  0
    3.1178    0.3940   -1.3971 C   0  0  0  1  0  0  0  0  0  0  0  0
    1.2578   -1.0099   -1.9830 O   0  0  0  1  0  0  0  0  0  0  0  0
   -1.6396   -1.0175   -2.9758 H   0  0  0  1  0  0  0  0  0  0  0  0
   -2.8460   -2.1451   -0.5786 H   0  0  0  1  0  0  0  0  0  0  0  0
   -1.6055   -3.0999   -1.3545 H   0  0  0  1  0  0  0  0  0  0  0  0
   -3.0722   -2.7042   -2.2184 H   0  0  0  1  0  0  0  0  0  0  0  0
    3.4669    1.0921   -2.1291 H   0  0  0  1  0  0  0  0  0  0  0  0
    3.6915   -0.5069   -1.4618 H   0  0  0  1  0  0  0  0  0  0  0  0
    3.2265    0.8174   -0.4205 H   0  0  0  1  0  0  0  0  0  0  0  0
   -1.2532    4.6120   -3.1203 F   0  0  0  1  0  0  0  0  0  0  0  0
   -1.9971    3.8211   -3.8956 C   0  0  0  1  0  0  0  0  0  0  0  0
   -2.4936    4.6015   -4.8567 F   0  0  0  1  0  0  0  0  0  0  0  0
   -1.1508    2.9826   -4.4950 F   0  0  0  1  0  0  0  0  0  0  0  0
   -3.0750    3.0999   -3.1212 C   0  0  0  1  0  0  0  0  0  0  0  0
   -2.7507    2.3975   -1.9710 C   0  0  0  1  0  0  0  0  0  0  0  0
   -3.7367    1.7334   -1.2659 C   0  0  0  1  0  0  0  0  0  0  0  0
   -5.0506    1.7742   -1.7059 C   0  0  0  1  0  0  0  0  0  0  0  0
   -5.3737    2.4746   -2.8527 C   0  0  0  1  0  0  0  0  0  0  0  0
   -4.3850    3.1407   -3.5600 C   0  0  0  1  0  0  0  0  0  0  0  0
   -1.3386    2.3220   -1.4401 C   0  0  0  1  0  0  0  0  0  0  0  0
   -3.4928    1.2031   -0.4052 H   0  0  0  1  0  0  0  0  0  0  0  0
   -5.7931    1.2778   -1.1730 H   0  0  0  1  0  0  0  0  0  0  0  0
   -6.3588    2.5019   -3.1850 H   0  0  0  1  0  0  0  0  0  0  0  0
   -4.6289    3.6710   -4.4207 H   0  0  0  1  0  0  0  0  0  0  0  0
   -0.7872    3.1569   -1.8192 H   0  0  0  1  0  0  0  0  0  0  0  0
   -1.3733    2.3723   -0.3718 H   0  0  0  1  0  0  0  0  0  0  0  0
  1  4  1  0  0  0  0
  2  4  1  0  0  0  0
  2  5  2  0  0  0  0
  2  6  1  0  0  0  0
  3  4  1  0  0  0  0
  3  7  1  0  0  0  0
  3  8  1  0  0  0  0
  4 29  1  0  0  0  0
  6  9  1  0  0  0  0
  6 12  1  0  0  0  0
  8 10  1  0  0  0  0
  8 11  2  0  0  0  0
  9 13  1  0  0  0  0
  9 14  1  0  0  0  0
  9 15  1  0  0  0  0
 10 16  1  0  0  0  0
 10 17  1  0  0  0  0
 10 18  1  0  0  0  0
 19 20  1  0  0  0  0
 20 21  1  0  0  0  0
 20 22  1  0  0  0  0
 20 23  1  0  0  0  0
 23 24  4  0  0  0  0
 23 28  4  0  0  0  0
 24 25  4  0  0  0  0
 24 29  1  0  0  0  0
 25 26  4  0  0  0  0
 25 30  1  0  0  0  0
 26 27  4  0  0  0  0
 26 31  1  0  0  0  0
 27 28  4  0  0  0  0
 27 32  1  0  0  0  0
 28 33  1  0  0  0  0
 29 34  1  0  0  0  0
 29 35  1  0  0  0  0
M  END
> <BCLConfClusterSize>
1

> <ConfClashScore>
0 

> <ConfOneFourInteractionScore>
-0.978127 

> <ConfScore>
0.207732 

> <ConfScorePBest>
0.00752055 

> <ConfTolerance>
0.387954 

> <RosettaParamsInstructions>
M  ROOT 3
M  POLY_N_BB 3
M  POLY_CA_BB 4
M  POLY_C_BB 2
M  POLY_O_BB 5
M  POLY_IGNORE 9 10 11 12 13 14 15 16 17 18 
M  POLY_UPPER 6
M  POLY_LOWER 8
M  POLY_CHG 0
M  POLY_PROPERTIES ALPHA_AA D_AA PROTEIN AROMATIC POLYMER 
M  END

$$$$



 35 35  0  0  0  0  0  0  0  0999 V2000
   -0.9972    4.3685   -1.2602 H   0  0  0  1  0  0  0  0  0  0  0  0
    0.4724    3.4853   -0.0660 C   0  0  0  1  0  0  0  0  0  0  0  0
   -1.9443    3.7507    0.4587 N   0  0  0  1  0  0  0  0  0  0  0  0
   -0.9440    3.5339   -0.5927 C   0  0  0  1  0  0  0  0  0  0  0  0
    0.8147    4.1812    0.8890 O   0  0  0  1  0  0  0  0  0  0  0  0
    1.3373    2.6667   -0.6671 N   0  0  0  1  0  0  0  0  0  0  0  0
   -2.6607    3.0918    0.5730 H   0  0  0  1  0  0  0  0  0  0  0  0
   -1.9124    4.8151    1.2656 C   0  0  0  1  0  0  0  0  0  0  0  0
    2.7764    2.6710   -0.4511 C   0  0  0  1  0  0  0  0  0  0  0  0
   -3.1376    5.0194    2.1352 C   0  0  0  1  0  0  0  0  0  0  0  0
   -0.9668    5.5844    1.3132 O   0  0  0  1  0  0  0  0  0  0  0  0
    0.9763    2.0132   -1.3020 H   0  0  0  1  0  0  0  0  0  0  0  0
    3.1850    1.7278   -0.7483 H   0  0  0  1  0  0  0  0  0  0  0  0
    2.9807    2.8369    0.5860 H   0  0  0  1  0  0  0  0  0  0  0  0
    3.2217    3.4513   -1.0322 H   0  0  0  1  0  0  0  0  0  0  0  0
   -3.9055    5.4976    1.5637 H   0  0  0  1  0  0  0  0  0  0  0  0
   -2.8817    5.6340    2.9728 H   0  0  0  1  0  0  0  0  0  0  0  0
   -3.4903    4.0709    2.4826 H   0  0  0  1  0  0  0  0  0  0  0  0
   -1.2747    4.6695   -3.1784 F   0  0  0  1  0  0  0  0  0  0  0  0
   -2.0110    3.8300   -3.9084 C   0  0  0  1  0  0  0  0  0  0  0  0
   -2.5234    4.5433   -4.9125 F   0  0  0  1  0  0  0  0  0  0  0  0
   -1.1365    3.0014   -4.4806 F   0  0  0  1  0  0  0  0  0  0  0  0
   -3.0593    3.0926   -3.1008 C   0  0  0  1  0  0  0  0  0  0  0  0
   -2.7487    2.3890   -1.9475 C   0  0  0  1  0  0  0  0  0  0  0  0
   -3.7441    1.7292   -1.2516 C   0  0  0  1  0  0  0  0  0  0  0  0
   -5.0536    1.7756   -1.7037 C   0  0  0  1  0  0  0  0  0  0  0  0
   -5.3631    2.4772   -2.8535 C   0  0  0  1  0  0  0  0  0  0  0  0
   -4.3650    3.1389   -3.5517 C   0  0  0  1  0  0  0  0  0  0  0  0
   -1.3420    2.3076   -1.4035 C   0  0  0  1  0  0  0  0  0  0  0  0
   -3.5105    1.1979   -0.3886 H   0  0  0  1  0  0  0  0  0  0  0  0
   -5.8031    1.2824   -1.1777 H   0  0  0  1  0  0  0  0  0  0  0  0
   -6.3449    2.5086   -3.1950 H   0  0  0  1  0  0  0  0  0  0  0  0
   -4.5987    3.6702   -4.4147 H   0  0  0  1  0  0  0  0  0  0  0  0
   -1.2695    1.4451   -0.7744 H   0  0  0  1  0  0  0  0  0  0  0  0
   -0.6642    2.2080   -2.2255 H   0  0  0  1  0  0  0  0  0  0  0  0
  1  4  1  0  0  0  0
  2  4  1  0  0  0  0
  2  5  2  0  0  0  0
  2  6  1  0  0  0  0
  3  4  1  0  0  0  0
  3  7  1  0  0  0  0
  3  8  1  0  0  0  0
  4 29  1  0  0  0  0
  6  9  1  0  0  0  0
  6 12  1  0  0  0  0
  8 10  1  0  0  0  0
  8 11  2  0  0  0  0
  9 13  1  0  0  0  0
  9 14  1  0  0  0  0
  9 15  1  0  0  0  0
 10 16  1  0  0  0  0
 10 17  1  0  0  0  0
 10 18  1  0  0  0  0
 19 20  1  0  0  0  0
 20 21  1  0  0  0  0
 20 22  1  0  0  0  0
 20 23  1  0  0  0  0
 23 24  4  0  0  0  0
 23 28  4  0  0  0  0
 24 25  4  0  0  0  0
 24 29  1  0  0  0  0
 25 26  4  0  0  0  0
 25 30  1  0  0  0  0
 26 27  4  0  0  0  0
 26 31  1  0  0  0  0
 27 28  4  0  0  0  0
 27 32  1  0  0  0  0
 28 33  1  0  0  0  0
 29 34  1  0  0  0  0
 29 35  1  0  0  0  0
M  END
> <BCLConfClusterSize>
1

> <ConfClashScore>
0 

> <ConfOneFourInteractionScore>
-0.952541 

> <ConfScore>
0.207952 

> <ConfScorePBest>
0.00749207 

> <ConfTolerance>
0.452328 

> <RosettaParamsInstructions>
M  ROOT 3
M  POLY_N_BB 3
M  POLY_CA_BB 4
M  POLY_C_BB 2
M  POLY_O_BB 5
M  POLY_IGNORE 9 10 11 12 13 14 15 16 17 18 
M  POLY_UPPER 6
M  POLY_LOWER 8
M  POLY_CHG 0
M  POLY_PROPERTIES ALPHA_AA D_AA PROTEIN AROMATIC POLYMER 
M  END

$$$$



 35 35  0  0  0  0  0  0  0  0999 V2000
   -1.5696    5.1338   -1.3062 H   0  0  0  1  0  0  0  0  0  0  0  0
   -0.1491    4.6287    0.1902 C   0  0  0  1  0  0  0  0  0  0  0  0
   -2.5744    4.6329    0.4377 N   0  0  0  1  0  0  0  0  0  0  0  0
   -1.4897    4.4228   -0.5106 C   0  0  0  1  0  0  0  0  0  0  0  0
    0.9218    4.2912   -0.2778 O   0  0  0  1  0  0  0  0  0  0  0  0
   -0.2007    5.2189    1.3877 N   0  0  0  1  0  0  0  0  0  0  0  0
   -3.2256    5.3491    0.2848 H   0  0  0  1  0  0  0  0  0  0  0  0
   -2.6839    3.8513    1.5157 C   0  0  0  1  0  0  0  0  0  0  0  0
    0.9979    5.5451    2.1459 C   0  0  0  1  0  0  0  0  0  0  0  0
   -3.9129    4.1271    2.3838 C   0  0  0  1  0  0  0  0  0  0  0  0
   -1.9257    2.9196    1.7816 O   0  0  0  1  0  0  0  0  0  0  0  0
   -1.0761    5.4399    1.7688 H   0  0  0  1  0  0  0  0  0  0  0  0
    1.7453    5.9303    1.4842 H   0  0  0  1  0  0  0  0  0  0  0  0
    1.3672    4.6629    2.6258 H   0  0  0  1  0  0  0  0  0  0  0  0
    0.7625    6.2819    2.8852 H   0  0  0  1  0  0  0  0  0  0  0  0
   -3.8760    5.1333    2.7458 H   0  0  0  1  0  0  0  0  0  0  0  0
   -3.9231    3.4503    3.2125 H   0  0  0  1  0  0  0  0  0  0  0  0
   -4.7993    3.9905    1.8002 H   0  0  0  1  0  0  0  0  0  0  0  0
   -2.4852    4.3681   -5.0247 F   0  0  0  1  0  0  0  0  0  0  0  0
   -2.0031    3.8001   -3.9180 C   0  0  0  1  0  0  0  0  0  0  0  0
   -1.0014    3.0062   -4.2996 F   0  0  0  1  0  0  0  0  0  0  0  0
   -1.4226    4.7914   -3.2376 F   0  0  0  1  0  0  0  0  0  0  0  0
   -3.0590    3.0830   -3.1020 C   0  0  0  1  0  0  0  0  0  0  0  0
   -2.8515    2.7097   -1.7833 C   0  0  0  1  0  0  0  0  0  0  0  0
   -3.8478    2.0523   -1.0864 C   0  0  0  1  0  0  0  0  0  0  0  0
   -5.0563    1.7712   -1.7044 C   0  0  0  1  0  0  0  0  0  0  0  0
   -5.2630    2.1435   -3.0192 C   0  0  0  1  0  0  0  0  0  0  0  0
   -4.2640    2.8028   -3.7183 C   0  0  0  1  0  0  0  0  0  0  0  0
   -1.5371    3.0209   -1.1074 C   0  0  0  1  0  0  0  0  0  0  0  0
   -3.6907    1.7686   -0.0982 H   0  0  0  1  0  0  0  0  0  0  0  0
   -5.8074    1.2801   -1.1787 H   0  0  0  1  0  0  0  0  0  0  0  0
   -6.1683    1.9290   -3.4841 H   0  0  0  1  0  0  0  0  0  0  0  0
   -4.4211    3.0865   -4.7065 H   0  0  0  1  0  0  0  0  0  0  0  0
   -1.3815    2.3110   -0.3220 H   0  0  0  1  0  0  0  0  0  0  0  0
   -0.7530    2.9316   -1.8300 H   0  0  0  1  0  0  0  0  0  0  0  0
  1  4  1  0  0  0  0
  2  4  1  0  0  0  0
  2  5  2  0  0  0  0
  2  6  1  0  0  0  0
  3  4  1  0  0  0  0
  3  7  1  0  0  0  0
  3  8  1  0  0  0  0
  4 29  1  0  0  0  0
  6  9  1  0  0  0  0
  6 12  1  0  0  0  0
  8 10  1  0  0  0  0
  8 11  2  0  0  0  0
  9 13  1  0  0  0  0
  9 14  1  0  0  0  0
  9 15  1  0  0  0  0
 10 16  1  0  0  0  0
 10 17  1  0  0  0  0
 10 18  1  0  0  0  0
 19 20  1  0  0  0  0
 20 21  1  0  0  0  0
 20 22  1  0  0  0  0
 20 23  1  0  0  0  0
 23 24  4  0  0  0  0
 23 28  4  0  0  0  0
 24 25  4  0  0  0  0
 24 29  1  0  0  0  0
 25 26  4  0  0  0  0
 25 30  1  0  0  0  0
 26 27  4  0  0  0  0
 26 31  1  0  0  0  0
 27 28  4  0  0  0  0
 27 32  1  0  0  0  0
 28 33  1  0  0  0  0
 29 34  1  0  0  0  0
 29 35  1  0  0  0  0
M  END
> <BCLConfClusterSize>
1

> <ConfClashScore>
0 

> <ConfOneFourInteractionScore>
-0.939055 

> <ConfScore>
0.227996 

> <ConfScorePBest>
0.00746359 

> <ConfTolerance>
0.236662 

> <RosettaParamsInstructions>
M  ROOT 3
M  POLY_N_BB 3
M  POLY_CA_BB 4
M  POLY_C_BB 2
M  POLY_O_BB 5
M  POLY_IGNORE 9 10 11 12 13 14 15 16 17 18 
M  POLY_UPPER 6
M  POLY_LOWER 8
M  POLY_CHG 0
M  POLY_PROPERTIES ALPHA_AA D_AA PROTEIN AROMATIC POLYMER 
M  END

$$$$



 35 35  0  0  0  0  0  0  0  0999 V2000
   -1.3058    0.4167   -0.6628 H   0  0  0  1  0  0  0  0  0  0  0  0
    0.6708    1.1203   -0.6414 C   0  0  0  1  0  0  0  0  0  0  0  0
   -0.6207    0.3835   -2.6028 N   0  0  0  1  0  0  0  0  0  0  0  0
   -0.6885    1.0194   -1.2956 C   0  0  0  1  0  0  0  0  0  0  0  0
    0.7775    1.4004    0.5518 O   0  0  0  1  0  0  0  0  0  0  0  0
    1.7603    0.8942   -1.4044 N   0  0  0  1  0  0  0  0  0  0  0  0
   -0.6614    0.9452   -3.4048 H   0  0  0  1  0  0  0  0  0  0  0  0
   -0.5047   -0.9424   -2.7479 C   0  0  0  1  0  0  0  0  0  0  0  0
    3.0926    1.0513   -0.8405 C   0  0  0  1  0  0  0  0  0  0  0  0
   -0.4419   -1.4456   -4.1769 C   0  0  0  1  0  0  0  0  0  0  0  0
   -0.4510   -1.7184   -1.7948 O   0  0  0  1  0  0  0  0  0  0  0  0
    1.6542    0.6236   -2.3403 H   0  0  0  1  0  0  0  0  0  0  0  0
    3.1696    0.4775    0.0594 H   0  0  0  1  0  0  0  0  0  0  0  0
    3.2672    2.0839   -0.6209 H   0  0  0  1  0  0  0  0  0  0  0  0
    3.8208    0.7080   -1.5454 H   0  0  0  1  0  0  0  0  0  0  0  0
    0.4334   -1.0571   -4.6543 H   0  0  0  1  0  0  0  0  0  0  0  0
   -1.3118   -1.1200   -4.7080 H   0  0  0  1  0  0  0  0  0  0  0  0
   -0.4030   -2.5149   -4.1768 H   0  0  0  1  0  0  0  0  0  0  0  0
   -1.5707    4.9210   -3.2755 F   0  0  0  1  0  0  0  0  0  0  0  0
   -1.9968    3.8197   -3.8964 C   0  0  0  1  0  0  0  0  0  0  0  0
   -2.4086    4.2084   -5.1042 F   0  0  0  1  0  0  0  0  0  0  0  0
   -0.9176    3.0620   -4.0956 F   0  0  0  1  0  0  0  0  0  0  0  0
   -3.0748    3.0991   -3.1218 C   0  0  0  1  0  0  0  0  0  0  0  0
   -2.7556    2.4216   -1.9553 C   0  0  0  1  0  0  0  0  0  0  0  0
   -3.7416    1.7580   -1.2498 C   0  0  0  1  0  0  0  0  0  0  0  0
   -5.0505    1.7743   -1.7057 C   0  0  0  1  0  0  0  0  0  0  0  0
   -5.3687    2.4499   -2.8687 C   0  0  0  1  0  0  0  0  0  0  0  0
   -4.3799    3.1155   -3.5764 C   0  0  0  1  0  0  0  0  0  0  0  0
   -1.3491    2.3734   -1.4067 C   0  0  0  1  0  0  0  0  0  0  0  0
   -3.5014    1.2463   -0.3769 H   0  0  0  1  0  0  0  0  0  0  0  0
   -5.7931    1.2783   -1.1727 H   0  0  0  1  0  0  0  0  0  0  0  0
   -6.3500    2.4588   -3.2130 H   0  0  0  1  0  0  0  0  0  0  0  0
   -4.6201    3.6272   -4.4494 H   0  0  0  1  0  0  0  0  0  0  0  0
   -0.7364    2.9773   -2.0430 H   0  0  0  1  0  0  0  0  0  0  0  0
   -1.3735    2.7992   -0.4254 H   0  0  0  1  0  0  0  0  0  0  0  0
  1  4  1  0  0  0  0
  2  4  1  0  0  0  0
  2  5  2  0  0  0  0
  2  6  1  0  0  0  0
  3  4  1  0  0  0  0
  3  7  1  0  0  0  0
  3  8  1  0  0  0  0
  4 29  1  0  0  0  0
  6  9  1  0  0  0  0
  6 12  1  0  0  0  0
  8 10  1  0  0  0  0
  8 11  2  0  0  0  0
  9 13  1  0  0  0  0
  9 14  1  0  0  0  0
  9 15  1  0  0  0  0
 10 16  1  0  0  0  0
 10 17  1  0  0  0  0
 10 18  1  0  0  0  0
 19 20  1  0  0  0  0
 20 21  1  0  0  0  0
 20 22  1  0  0  0  0
 20 23  1  0  0  0  0
 23 24  4  0  0  0  0
 23 28  4  0  0  0  0
 24 25  4  0  0  0  0
 24 29  1  0  0  0  0
 25 26  4  0  0  0  0
 25 30  1  0  0  0  0
 26 27  4  0  0  0  0
 26 31  1  0  0  0  0
 27 28  4  0  0  0  0
 27 32  1  0  0  0  0
 28 33  1  0  0  0  0
 29 34  1  0  0  0  0
 29 35  1  0  0  0  0
M  END
> <BCLConfClusterSize>
1

> <ConfClashScore>
0 

> <ConfOneFourInteractionScore>
-0.960318 

> <ConfScore>
0.229292 

> <ConfScorePBest>
0.0074351 

> <ConfTolerance>
0.280954 

> <RosettaParamsInstructions>
M  ROOT 3
M  POLY_N_BB 3
M  POLY_CA_BB 4
M  POLY_C_BB 2
M  POLY_O_BB 5
M  POLY_IGNORE 9 10 11 12 13 14 15 16 17 18 
M  POLY_UPPER 6
M  POLY_LOWER 8
M  POLY_CHG 0
M  POLY_PROPERTIES ALPHA_AA D_AA PROTEIN AROMATIC POLYMER 
M  END

$$$$



 35 35  0  0  0  0  0  0  0  0999 V2000
    0.2806    0.9924   -1.3738 H   0  0  0  1  0  0  0  0  0  0  0  0
   -0.3755    0.8980   -3.3498 C   0  0  0  1  0  0  0  0  0  0  0  0
   -1.4008   -0.1856   -1.4018 N   0  0  0  1  0  0  0  0  0  0  0  0
   -0.6697    1.0083   -1.8652 C   0  0  0  1  0  0  0  0  0  0  0  0
    0.5013    1.5658   -3.8728 O   0  0  0  1  0  0  0  0  0  0  0  0
   -1.1368    0.0279   -4.0321 N   0  0  0  1  0  0  0  0  0  0  0  0
   -2.2629   -0.0670   -0.9510 H   0  0  0  1  0  0  0  0  0  0  0  0
   -0.9289   -1.4234   -1.5753 C   0  0  0  1  0  0  0  0  0  0  0  0
   -0.9977   -0.0890   -5.4760 C   0  0  0  1  0  0  0  0  0  0  0  0
   -1.7319   -2.5649   -0.9387 C   0  0  0  1  0  0  0  0  0  0  0  0
    0.0506   -1.6782   -2.2711 O   0  0  0  1  0  0  0  0  0  0  0  0
   -1.7876   -0.5298   -3.5568 H   0  0  0  1  0  0  0  0  0  0  0  0
   -0.1946   -0.7581   -5.7045 H   0  0  0  1  0  0  0  0  0  0  0  0
   -0.7888    0.8740   -5.8930 H   0  0  0  1  0  0  0  0  0  0  0  0
   -1.9074   -0.4687   -5.8921 H   0  0  0  1  0  0  0  0  0  0  0  0
   -2.7652   -2.2913   -0.8908 H   0  0  0  1  0  0  0  0  0  0  0  0
   -1.3660   -2.7501    0.0496 H   0  0  0  1  0  0  0  0  0  0  0  0
   -1.6246   -3.4496   -1.5309 H   0  0  0  1  0  0  0  0  0  0  0  0
   -1.2202    4.5714   -3.1122 F   0  0  0  1  0  0  0  0  0  0  0  0
   -1.9971    3.8212   -3.8955 C   0  0  0  1  0  0  0  0  0  0  0  0
   -2.4954    4.6415   -4.8219 F   0  0  0  1  0  0  0  0  0  0  0  0
   -1.1820    2.9834   -4.5377 F   0  0  0  1  0  0  0  0  0  0  0  0
   -3.0750    3.1000   -3.1212 C   0  0  0  1  0  0  0  0  0  0  0  0
   -2.7505    2.3964   -1.9718 C   0  0  0  1  0  0  0  0  0  0  0  0
   -3.7365    1.7323   -1.2667 C   0  0  0  1  0  0  0  0  0  0  0  0
   -5.0506    1.7742   -1.7059 C   0  0  0  1  0  0  0  0  0  0  0  0
   -5.3739    2.4758   -2.8519 C   0  0  0  1  0  0  0  0  0  0  0  0
   -4.3852    3.1419   -3.5592 C   0  0  0  1  0  0  0  0  0  0  0  0
   -1.3382    2.3196   -1.4417 C   0  0  0  1  0  0  0  0  0  0  0  0
   -3.4925    1.2010   -0.4066 H   0  0  0  1  0  0  0  0  0  0  0  0
   -5.7931    1.2778   -1.1731 H   0  0  0  1  0  0  0  0  0  0  0  0
   -6.3592    2.5039   -3.1837 H   0  0  0  1  0  0  0  0  0  0  0  0
   -4.6293    3.6731   -4.4193 H   0  0  0  1  0  0  0  0  0  0  0  0
   -0.7733    3.1421   -1.8281 H   0  0  0  1  0  0  0  0  0  0  0  0
   -1.3611    2.3726   -0.3733 H   0  0  0  1  0  0  0  0  0  0  0  0
  1  4  1  0  0  0  0
  2  4  1  0  0  0  0
  2  5  2  0  0  0  0
  2  6  1  0  0  0  0
  3  4  1  0  0  0  0
  3  7  1  0  0  0  0
  3  8  1  0  0  0  0
  4 29  1  0  0  0  0
  6  9  1  0  0  0  0
  6 12  1  0  0  0  0
  8 10  1  0  0  0  0
  8 11  2  0  0  0  0
  9 13  1  0  0  0  0
  9 14  1  0  0  0  0
  9 15  1  0  0  0  0
 10 16  1  0  0  0  0
 10 17  1  0  0  0  0
 10 18  1  0  0  0  0
 19 20  1  0  0  0  0
 20 21  1  0  0  0  0
 20 22  1  0  0  0  0
 20 23  1  0  0  0  0
 23 24  4  0  0  0  0
 23 28  4  0  0  0  0
 24 25  4  0  0  0  0
 24 29  1  0  0  0  0
 25 26  4  0  0  0  0
 25 30  1  0  0  0  0
 26 27  4  0  0  0  0
 26 31  1  0  0  0  0
 27 28  4  0  0  0  0
 27 32  1  0  0  0  0
 28 33  1  0  0  0  0
 29 34  1  0  0  0  0
 29 35  1  0  0  0  0
M  END
> <BCLConfClusterSize>
1

> <ConfClashScore>
0 

> <ConfOneFourInteractionScore>
-0.931937 

> <ConfScore>
0.231897 

> <ConfScorePBest>
0.00740662 

> <ConfTolerance>
0.282133 

> <RosettaParamsInstructions>
M  ROOT 3
M  POLY_N_BB 3
M  POLY_CA_BB 4
M  POLY_C_BB 2
M  POLY_O_BB 5
M  POLY_IGNORE 9 10 11 12 13 14 15 16 17 18 
M  POLY_UPPER 6
M  POLY_LOWER 8
M  POLY_CHG 0
M  POLY_PROPERTIES ALPHA_AA D_AA PROTEIN AROMATIC POLYMER 
M  END

$$$$



 35 35  0  0  0  0  0  0  0  0999 V2000
   -1.3937    0.3746   -0.8387 H   0  0  0  1  0  0  0  0  0  0  0  0
    0.6252    0.9121   -0.8016 C   0  0  0  1  0  0  0  0  0  0  0  0
   -0.7904    0.4886   -2.8024 N   0  0  0  1  0  0  0  0  0  0  0  0
   -0.7494    0.9951   -1.4258 C   0  0  0  1  0  0  0  0  0  0  0  0
    1.4499    0.0821   -1.1817 O   0  0  0  1  0  0  0  0  0  0  0  0
    0.8733    1.7899    0.1746 N   0  0  0  1  0  0  0  0  0  0  0  0
   -1.5413   -0.0788   -3.0754 H   0  0  0  1  0  0  0  0  0  0  0  0
    0.1589    0.7737   -3.6951 C   0  0  0  1  0  0  0  0  0  0  0  0
    2.1654    1.8685    0.8394 C   0  0  0  1  0  0  0  0  0  0  0  0
   -0.0611    0.2210   -5.0899 C   0  0  0  1  0  0  0  0  0  0  0  0
    1.1543    1.4396   -3.4231 O   0  0  0  1  0  0  0  0  0  0  0  0
    0.1603    2.4021    0.4526 H   0  0  0  1  0  0  0  0  0  0  0  0
    2.9235    1.4758    0.1944 H   0  0  0  1  0  0  0  0  0  0  0  0
    2.1362    1.2976    1.7439 H   0  0  0  1  0  0  0  0  0  0  0  0
    2.3867    2.8899    1.0688 H   0  0  0  1  0  0  0  0  0  0  0  0
   -1.0861   -0.0646   -5.2033 H   0  0  0  1  0  0  0  0  0  0  0  0
    0.5654   -0.6337   -5.2375 H   0  0  0  1  0  0  0  0  0  0  0  0
    0.1819    0.9713   -5.8130 H   0  0  0  1  0  0  0  0  0  0  0  0
   -1.4301    4.8293   -3.2507 F   0  0  0  1  0  0  0  0  0  0  0  0
   -1.9892    3.8071   -3.9007 C   0  0  0  1  0  0  0  0  0  0  0  0
   -2.4303    4.2987   -5.0596 F   0  0  0  1  0  0  0  0  0  0  0  0
   -0.9966    2.9695   -4.2037 F   0  0  0  1  0  0  0  0  0  0  0  0
   -3.0866    3.1400   -3.0982 C   0  0  0  1  0  0  0  0  0  0  0  0
   -2.7613    2.4386   -1.9476 C   0  0  0  1  0  0  0  0  0  0  0  0
   -3.7408    1.7482   -1.2591 C   0  0  0  1  0  0  0  0  0  0  0  0
   -5.0495    1.7615   -1.7160 C   0  0  0  1  0  0  0  0  0  0  0  0
   -5.3737    2.4608   -2.8632 C   0  0  0  1  0  0  0  0  0  0  0  0
   -4.3914    3.1533   -3.5539 C   0  0  0  1  0  0  0  0  0  0  0  0
   -1.3548    2.3924   -1.3987 C   0  0  0  1  0  0  0  0  0  0  0  0
   -3.4961    1.2187   -0.3981 H   0  0  0  1  0  0  0  0  0  0  0  0
   -5.7873    1.2453   -1.1956 H   0  0  0  1  0  0  0  0  0  0  0  0
   -6.3548    2.4675   -3.2082 H   0  0  0  1  0  0  0  0  0  0  0  0
   -4.6362    3.6828   -4.4149 H   0  0  0  1  0  0  0  0  0  0  0  0
   -0.7389    3.0419   -1.9850 H   0  0  0  1  0  0  0  0  0  0  0  0
   -1.3732    2.7360   -0.3855 H   0  0  0  1  0  0  0  0  0  0  0  0
  1  4  1  0  0  0  0
  2  4  1  0  0  0  0
  2  5  2  0  0  0  0
  2  6  1  0  0  0  0
  3  4  1  0  0  0  0
  3  7  1  0  0  0  0
  3  8  1  0  0  0  0
  4 29  1  0  0  0  0
  6  9  1  0  0  0  0
  6 12  1  0  0  0  0
  8 10  1  0  0  0  0
  8 11  2  0  0  0  0
  9 13  1  0  0  0  0
  9 14  1  0  0  0  0
  9 15  1  0  0  0  0
 10 16  1  0  0  0  0
 10 17  1  0  0  0  0
 10 18  1  0  0  0  0
 19 20  1  0  0  0  0
 20 21  1  0  0  0  0
 20 22  1  0  0  0  0
 20 23  1  0  0  0  0
 23 24  4  0  0  0  0
 23 28  4  0  0  0  0
 24 25  4  0  0  0  0
 24 29  1  0  0  0  0
 25 26  4  0  0  0  0
 25 30  1  0  0  0  0
 26 27  4  0  0  0  0
 26 31  1  0  0  0  0
 27 28  4  0  0  0  0
 27 32  1  0  0  0  0
 28 33  1  0  0  0  0
 29 34  1  0  0  0  0
 29 35  1  0  0  0  0
M  END
> <BCLConfClusterSize>
1

> <ConfClashScore>
0 

> <ConfOneFourInteractionScore>
-0.933935 

> <ConfScore>
0.239493 

> <ConfScorePBest>
0.00737814 

> <ConfTolerance>
0.294107 

> <RosettaParamsInstructions>
M  ROOT 3
M  POLY_N_BB 3
M  POLY_CA_BB 4
M  POLY_C_BB 2
M  POLY_O_BB 5
M  POLY_IGNORE 9 10 11 12 13 14 15 16 17 18 
M  POLY_UPPER 6
M  POLY_LOWER 8
M  POLY_CHG 0
M  POLY_PROPERTIES ALPHA_AA D_AA PROTEIN AROMATIC POLYMER 
M  END

$$$$



 35 35  0  0  0  0  0  0  0  0999 V2000
    0.0497    3.2907   -0.1867 H   0  0  0  1  0  0  0  0  0  0  0  0
   -1.5586    2.5874    0.9869 C   0  0  0  1  0  0  0  0  0  0  0  0
   -1.5617    4.5507   -0.4953 N   0  0  0  1  0  0  0  0  0  0  0  0
   -1.0138    3.2191   -0.2794 C   0  0  0  1  0  0  0  0  0  0  0  0
   -0.9085    1.7560    1.6151 O   0  0  0  1  0  0  0  0  0  0  0  0
   -2.7806    2.9962    1.3634 N   0  0  0  1  0  0  0  0  0  0  0  0
   -1.9294    4.7738   -1.3759 H   0  0  0  1  0  0  0  0  0  0  0  0
   -1.5805    5.4772    0.4634 C   0  0  0  1  0  0  0  0  0  0  0  0
   -3.3342    2.5662    2.6387 C   0  0  0  1  0  0  0  0  0  0  0  0
   -2.1514    6.8246    0.0662 C   0  0  0  1  0  0  0  0  0  0  0  0
   -1.1656    5.2704    1.6030 O   0  0  0  1  0  0  0  0  0  0  0  0
   -3.3009    3.5855    0.7783 H   0  0  0  1  0  0  0  0  0  0  0  0
   -2.6581    1.8836    3.1097 H   0  0  0  1  0  0  0  0  0  0  0  0
   -4.2735    2.0808    2.4741 H   0  0  0  1  0  0  0  0  0  0  0  0
   -3.4782    3.4180    3.2702 H   0  0  0  1  0  0  0  0  0  0  0  0
   -2.9876    6.6801   -0.5857 H   0  0  0  1  0  0  0  0  0  0  0  0
   -1.4002    7.3951   -0.4389 H   0  0  0  1  0  0  0  0  0  0  0  0
   -2.4694    7.3493    0.9428 H   0  0  0  1  0  0  0  0  0  0  0  0
   -1.0845    4.3923   -3.1042 F   0  0  0  1  0  0  0  0  0  0  0  0
   -1.9897    3.8065   -3.8900 C   0  0  0  1  0  0  0  0  0  0  0  0
   -2.4798    4.7989   -4.6344 F   0  0  0  1  0  0  0  0  0  0  0  0
   -1.3389    3.0238   -4.7258 F   0  0  0  1  0  0  0  0  0  0  0  0
   -3.0720    3.0907   -3.1169 C   0  0  0  1  0  0  0  0  0  0  0  0
   -2.7527    2.3873   -1.9659 C   0  0  0  1  0  0  0  0  0  0  0  0
   -3.7428    1.7282   -1.2619 C   0  0  0  1  0  0  0  0  0  0  0  0
   -5.0558    1.7750   -1.7037 C   0  0  0  1  0  0  0  0  0  0  0  0
   -5.3741    2.4764   -2.8513 C   0  0  0  1  0  0  0  0  0  0  0  0
   -4.3812    3.1375   -3.5575 C   0  0  0  1  0  0  0  0  0  0  0  0
   -1.3231    2.3406   -1.4806 C   0  0  0  1  0  0  0  0  0  0  0  0
   -3.5027    1.1970   -0.4006 H   0  0  0  1  0  0  0  0  0  0  0  0
   -5.8014    1.2824   -1.1717 H   0  0  0  1  0  0  0  0  0  0  0  0
   -6.3585    2.5082   -3.1850 H   0  0  0  1  0  0  0  0  0  0  0  0
   -4.6214    3.6686   -4.4188 H   0  0  0  1  0  0  0  0  0  0  0  0
   -1.0971    1.3287   -1.2164 H   0  0  0  1  0  0  0  0  0  0  0  0
   -0.6906    2.6491   -2.2867 H   0  0  0  1  0  0  0  0  0  0  0  0
  1  4  1  0  0  0  0
  2  4  1  0  0  0  0
  2  5  2  0  0  0  0
  2  6  1  0  0  0  0
  3  4  1  0  0  0  0
  3  7  1  0  0  0  0
  3  8  1  0  0  0  0
  4 29  1  0  0  0  0
  6  9  1  0  0  0  0
  6 12  1  0  0  0  0
  8 10  1  0  0  0  0
  8 11  2  0  0  0  0
  9 13  1  0  0  0  0
  9 14  1  0  0  0  0
  9 15  1  0  0  0  0
 10 16  1  0  0  0  0
 10 17  1  0  0  0  0
 10 18  1  0  0  0  0
 19 20  1  0  0  0  0
 20 21  1  0  0  0  0
 20 22  1  0  0  0  0
 20 23  1  0  0  0  0
 23 24  4  0  0  0  0
 23 28  4  0  0  0  0
 24 25  4  0  0  0  0
 24 29  1  0  0  0  0
 25 26  4  0  0  0  0
 25 30  1  0  0  0  0
 26 27  4  0  0  0  0
 26 31  1  0  0  0  0
 27 28  4  0  0  0  0
 27 32  1  0  0  0  0
 28 33  1  0  0  0  0
 29 34  1  0  0  0  0
 29 35  1  0  0  0  0
M  END
> <BCLConfClusterSize>
1

> <ConfClashScore>
0 

> <ConfOneFourInteractionScore>
-0.931937 

> <ConfScore>
0.240788 

> <ConfScorePBest>
0.00734966 

> <ConfTolerance>
0.301733 

> <RosettaParamsInstructions>
M  ROOT 3
M  POLY_N_BB 3
M  POLY_CA_BB 4
M  POLY_C_BB 2
M  POLY_O_BB 5
M  POLY_IGNORE 9 10 11 12 13 14 15 16 17 18 
M  POLY_UPPER 6
M  POLY_LOWER 8
M  POLY_CHG 0
M  POLY_PROPERTIES ALPHA_AA D_AA PROTEIN AROMATIC POLYMER 
M  END

$$$$



 35 35  0  0  0  0  0  0  0  0999 V2000
    0.4030    1.6494   -1.0208 H   0  0  0  1  0  0  0  0  0  0  0  0
   -0.5306    0.9034   -2.7688 C   0  0  0  1  0  0  0  0  0  0  0  0
   -1.1726    0.4358   -0.4272 N   0  0  0  1  0  0  0  0  0  0  0  0
   -0.5937    1.4248   -1.3389 C   0  0  0  1  0  0  0  0  0  0  0  0
    0.4308    1.1392   -3.4993 O   0  0  0  1  0  0  0  0  0  0  0  0
   -1.6048    0.1830   -3.1282 N   0  0  0  1  0  0  0  0  0  0  0  0
   -1.8723    0.7410    0.1873 H   0  0  0  1  0  0  0  0  0  0  0  0
   -0.8186   -0.8512   -0.3699 C   0  0  0  1  0  0  0  0  0  0  0  0
   -1.8129   -0.4025   -4.4442 C   0  0  0  1  0  0  0  0  0  0  0  0
   -1.3418   -1.6258    0.8239 C   0  0  0  1  0  0  0  0  0  0  0  0
   -0.1139   -1.3907   -1.2220 O   0  0  0  1  0  0  0  0  0  0  0  0
   -2.3013    0.0407   -2.4537 H   0  0  0  1  0  0  0  0  0  0  0  0
   -0.9635   -0.9967   -4.7092 H   0  0  0  1  0  0  0  0  0  0  0  0
   -1.9410    0.3776   -5.1652 H   0  0  0  1  0  0  0  0  0  0  0  0
   -2.6873   -1.0189   -4.4258 H   0  0  0  1  0  0  0  0  0  0  0  0
   -0.7776   -1.3643    1.6946 H   0  0  0  1  0  0  0  0  0  0  0  0
   -1.2448   -2.6751    0.6383 H   0  0  0  1  0  0  0  0  0  0  0  0
   -2.3724   -1.3848    0.9814 H   0  0  0  1  0  0  0  0  0  0  0  0
   -0.9236    3.0364   -4.0734 F   0  0  0  1  0  0  0  0  0  0  0  0
   -1.9957    3.8116   -3.9013 C   0  0  0  1  0  0  0  0  0  0  0  0
   -1.5750    4.9004   -3.2556 F   0  0  0  1  0  0  0  0  0  0  0  0
   -2.3958    4.1975   -5.1026 F   0  0  0  1  0  0  0  0  0  0  0  0
   -3.0747    3.0941   -3.1253 C   0  0  0  1  0  0  0  0  0  0  0  0
   -2.7958    2.5683   -1.8733 C   0  0  0  1  0  0  0  0  0  0  0  0
   -3.7822    1.9072   -1.1661 C   0  0  0  1  0  0  0  0  0  0  0  0
   -5.0519    1.7745   -1.7064 C   0  0  0  1  0  0  0  0  0  0  0  0
   -5.3298    2.2987   -2.9546 C   0  0  0  1  0  0  0  0  0  0  0  0
   -4.3407    2.9618   -3.6640 C   0  0  0  1  0  0  0  0  0  0  0  0
   -1.4141    2.7176   -1.2815 C   0  0  0  1  0  0  0  0  0  0  0  0
   -3.5719    1.5093   -0.2286 H   0  0  0  1  0  0  0  0  0  0  0  0
   -5.7952    1.2805   -1.1724 H   0  0  0  1  0  0  0  0  0  0  0  0
   -6.2813    2.1957   -3.3616 H   0  0  0  1  0  0  0  0  0  0  0  0
   -4.5510    3.3597   -4.6016 H   0  0  0  1  0  0  0  0  0  0  0  0
   -0.8913    3.4771   -1.8244 H   0  0  0  1  0  0  0  0  0  0  0  0
   -1.5122    3.0136   -0.2579 H   0  0  0  1  0  0  0  0  0  0  0  0
  1  4  1  0  0  0  0
  2  4  1  0  0  0  0
  2  5  2  0  0  0  0
  2  6  1  0  0  0  0
  3  4  1  0  0  0  0
  3  7  1  0  0  0  0
  3  8  1  0  0  0  0
  4 29  1  0  0  0  0
  6  9  1  0  0  0  0
  6 12  1  0  0  0  0
  8 10  1  0  0  0  0
  8 11  2  0  0  0  0
  9 13  1  0  0  0  0
  9 14  1  0  0  0  0
  9 15  1  0  0  0  0
 10 16  1  0  0  0  0
 10 17  1  0  0  0  0
 10 18  1  0  0  0  0
 19 20  1  0  0  0  0
 20 21  1  0  0  0  0
 20 22  1  0  0  0  0
 20 23  1  0  0  0  0
 23 24  4  0  0  0  0
 23 28  4  0  0  0  0
 24 25  4  0  0  0  0
 24 29  1  0  0  0  0
 25 26  4  0  0  0  0
 25 30  1  0  0  0  0
 26 27  4  0  0  0  0
 26 31  1  0  0  0  0
 27 28  4  0  0  0  0
 27 32  1  0  0  0  0
 28 33  1  0  0  0  0
 29 34  1  0  0  0  0
 29 35  1  0  0  0  0
M  END
> <BCLConfClusterSize>
1

> <ConfClashScore>
0 

> <ConfOneFourInteractionScore>
-0.957074 

> <ConfScore>
0.254654 

> <ConfScorePBest>
0.00732118 

> <ConfTolerance>
0.293533 

> <RosettaParamsInstructions>
M  ROOT 3
M  POLY_N_BB 3
M  POLY_CA_BB 4
M  POLY_C_BB 2
M  POLY_O_BB 5
M  POLY_IGNORE 9 10 11 12 13 14 15 16 17 18 
M  POLY_UPPER 6
M  POLY_LOWER 8
M  POLY_CHG 0
M  POLY_PROPERTIES ALPHA_AA D_AA PROTEIN AROMATIC POLYMER 
M  END

$$$$



 35 35  0  0  0  0  0  0  0  0999 V2000
   -0.3497    1.6154   -2.7133 H   0  0  0  1  0  0  0  0  0  0  0  0
   -1.1402    0.2217   -1.3464 C   0  0  0  1  0  0  0  0  0  0  0  0
    0.7829    1.7332   -0.9844 N   0  0  0  1  0  0  0  0  0  0  0  0
   -0.5091    1.5650   -1.6565 C   0  0  0  1  0  0  0  0  0  0  0  0
   -1.9021   -0.3159   -2.1458 O   0  0  0  1  0  0  0  0  0  0  0  0
   -0.8430   -0.3577   -0.1798 N   0  0  0  1  0  0  0  0  0  0  0  0
    0.8620    2.4017   -0.2722 H   0  0  0  1  0  0  0  0  0  0  0  0
    1.8968    0.9794   -1.3214 C   0  0  0  1  0  0  0  0  0  0  0  0
   -1.3735   -1.6586    0.1997 C   0  0  0  1  0  0  0  0  0  0  0  0
    3.2202    1.3091   -0.6899 C   0  0  0  1  0  0  0  0  0  0  0  0
    1.7649    0.0713   -2.1216 O   0  0  0  1  0  0  0  0  0  0  0  0
   -0.2469    0.1096    0.4421 H   0  0  0  1  0  0  0  0  0  0  0  0
   -1.5768   -2.2320   -0.6805 H   0  0  0  1  0  0  0  0  0  0  0  0
   -2.2781   -1.5262    0.7556 H   0  0  0  1  0  0  0  0  0  0  0  0
   -0.6557   -2.1741    0.8030 H   0  0  0  1  0  0  0  0  0  0  0  0
    3.5767    2.2421   -1.0739 H   0  0  0  1  0  0  0  0  0  0  0  0
    3.9256    0.5373   -0.9171 H   0  0  0  1  0  0  0  0  0  0  0  0
    3.1005    1.3827    0.3708 H   0  0  0  1  0  0  0  0  0  0  0  0
   -0.9519    3.0379   -4.1825 F   0  0  0  1  0  0  0  0  0  0  0  0
   -2.0003    3.8105   -3.9027 C   0  0  0  1  0  0  0  0  0  0  0  0
   -1.5179    4.8769   -3.2700 F   0  0  0  1  0  0  0  0  0  0  0  0
   -2.4642    4.2490   -5.0737 F   0  0  0  1  0  0  0  0  0  0  0  0
   -3.0567    3.0851   -3.0949 C   0  0  0  1  0  0  0  0  0  0  0  0
   -2.8009    2.5640   -1.8360 C   0  0  0  1  0  0  0  0  0  0  0  0
   -3.8004    1.9061   -1.1444 C   0  0  0  1  0  0  0  0  0  0  0  0
   -5.0601    1.7721   -1.7071 C   0  0  0  1  0  0  0  0  0  0  0  0
   -5.3150    2.2916   -2.9622 C   0  0  0  1  0  0  0  0  0  0  0  0
   -4.3127    2.9514   -3.6561 C   0  0  0  1  0  0  0  0  0  0  0  0
   -1.4131    2.7432   -1.2673 C   0  0  0  1  0  0  0  0  0  0  0  0
   -3.6074    1.5117   -0.2017 H   0  0  0  1  0  0  0  0  0  0  0  0
   -5.8134    1.2806   -1.1849 H   0  0  0  1  0  0  0  0  0  0  0  0
   -6.2590    2.1875   -3.3861 H   0  0  0  1  0  0  0  0  0  0  0  0
   -4.5057    3.3459   -4.5988 H   0  0  0  1  0  0  0  0  0  0  0  0
   -0.9918    3.6497   -1.6491 H   0  0  0  1  0  0  0  0  0  0  0  0
   -1.4757    2.8000   -0.2007 H   0  0  0  1  0  0  0  0  0  0  0  0
  1  4  1  0  0  0  0
  2  4  1  0  0  0  0
  2  5  2  0  0  0  0
  2  6  1  0  0  0  0
  3  4  1  0  0  0  0
  3  7  1  0  0  0  0
  3  8  1  0  0  0  0
  4 29  1  0  0  0  0
  6  9  1  0  0  0  0
  6 12  1  0  0  0  0
  8 10  1  0  0  0  0
  8 11  2  0  0  0  0
  9 13  1  0  0  0  0
  9 14  1  0  0  0  0
  9 15  1  0  0  0  0
 10 16  1  0  0  0  0
 10 17  1  0  0  0  0
 10 18  1  0  0  0  0
 19 20  1  0  0  0  0
 20 21  1  0  0  0  0
 20 22  1  0  0  0  0
 20 23  1  0  0  0  0
 23 24  4  0  0  0  0
 23 28  4  0  0  0  0
 24 25  4  0  0  0  0
 24 29  1  0  0  0  0
 25 26  4  0  0  0  0
 25 30  1  0  0  0  0
 26 27  4  0  0  0  0
 26 31  1  0  0  0  0
 27 28  4  0  0  0  0
 27 32  1  0  0  0  0
 28 33  1  0  0  0  0
 29 34  1  0  0  0  0
 29 35  1  0  0  0  0
M  END
> <BCLConfClusterSize>
1

> <ConfClashScore>
0 

> <ConfOneFourInteractionScore>
-0.956443 

> <ConfScore>
0.259912 

> <ConfScorePBest>
0.0072927 

> <ConfTolerance>
0.291454 

> <RosettaParamsInstructions>
M  ROOT 3
M  POLY_N_BB 3
M  POLY_CA_BB 4
M  POLY_C_BB 2
M  POLY_O_BB 5
M  POLY_IGNORE 9 10 11 12 13 14 15 16 17 18 
M  POLY_UPPER 6
M  POLY_LOWER 8
M  POLY_CHG 0
M  POLY_PROPERTIES ALPHA_AA D_AA PROTEIN AROMATIC POLYMER 
M  END

$$$$



 35 35  0  0  0  0  0  0  0  0999 V2000
   -1.6676    0.4573   -0.5328 H   0  0  0  1  0  0  0  0  0  0  0  0
    0.3142    0.9677   -0.0970 C   0  0  0  1  0  0  0  0  0  0  0  0
   -0.5476    0.0879   -2.2176 N   0  0  0  1  0  0  0  0  0  0  0  0
   -0.8600    0.9259   -1.0554 C   0  0  0  1  0  0  0  0  0  0  0  0
    0.1930    1.4472    1.0272 O   0  0  0  1  0  0  0  0  0  0  0  0
    1.4874    0.4657   -0.5140 N   0  0  0  1  0  0  0  0  0  0  0  0
   -0.0708    0.5077   -2.9638 H   0  0  0  1  0  0  0  0  0  0  0  0
   -0.8634   -1.2027   -2.3355 C   0  0  0  1  0  0  0  0  0  0  0  0
    2.5786    0.3854    0.4455 C   0  0  0  1  0  0  0  0  0  0  0  0
   -0.3185   -1.8824   -3.5929 C   0  0  0  1  0  0  0  0  0  0  0  0
   -1.4665   -1.8478   -1.4918 O   0  0  0  1  0  0  0  0  0  0  0  0
    1.6056    0.1620   -1.4382 H   0  0  0  1  0  0  0  0  0  0  0  0
    2.1865    0.1541    1.4138 H   0  0  0  1  0  0  0  0  0  0  0  0
    3.0900    1.3245    0.4830 H   0  0  0  1  0  0  0  0  0  0  0  0
    3.2617   -0.3815    0.1451 H   0  0  0  1  0  0  0  0  0  0  0  0
   -0.8724   -1.5513   -4.4464 H   0  0  0  1  0  0  0  0  0  0  0  0
   -0.4154   -2.9435   -3.4949 H   0  0  0  1  0  0  0  0  0  0  0  0
    0.7133   -1.6279   -3.7170 H   0  0  0  1  0  0  0  0  0  0  0  0
   -1.0775    4.3911   -3.1096 F   0  0  0  1  0  0  0  0  0  0  0  0
   -2.0004    3.8273   -3.8908 C   0  0  0  1  0  0  0  0  0  0  0  0
   -2.4718    4.7850   -4.6756 F   0  0  0  1  0  0  0  0  0  0  0  0
   -1.3245    3.0131   -4.7025 F   0  0  0  1  0  0  0  0  0  0  0  0
   -3.0776    3.1032   -3.1183 C   0  0  0  1  0  0  0  0  0  0  0  0
   -2.7526    2.3979   -1.9700 C   0  0  0  1  0  0  0  0  0  0  0  0
   -3.7380    1.7311   -1.2666 C   0  0  0  1  0  0  0  0  0  0  0  0
   -5.0519    1.7720   -1.7063 C   0  0  0  1  0  0  0  0  0  0  0  0
   -5.3758    2.4752   -2.8512 C   0  0  0  1  0  0  0  0  0  0  0  0
   -4.3877    3.1440   -3.5568 C   0  0  0  1  0  0  0  0  0  0  0  0
   -1.3404    2.3222   -1.4394 C   0  0  0  1  0  0  0  0  0  0  0  0
   -3.4936    1.1987   -0.4073 H   0  0  0  1  0  0  0  0  0  0  0  0
   -5.7940    1.2736   -1.1747 H   0  0  0  1  0  0  0  0  0  0  0  0
   -6.3609    2.5026   -3.1833 H   0  0  0  1  0  0  0  0  0  0  0  0
   -4.6321    3.6764   -4.4161 H   0  0  0  1  0  0  0  0  0  0  0  0
   -0.6835    2.7014   -2.1941 H   0  0  0  1  0  0  0  0  0  0  0  0
   -1.2809    2.9425   -0.5696 H   0  0  0  1  0  0  0  0  0  0  0  0
  1  4  1  0  0  0  0
  2  4  1  0  0  0  0
  2  5  2  0  0  0  0
  2  6  1  0  0  0  0
  3  4  1  0  0  0  0
  3  7  1  0  0  0  0
  3  8  1  0  0  0  0
  4 29  1  0  0  0  0
  6  9  1  0  0  0  0
  6 12  1  0  0  0  0
  8 10  1  0  0  0  0
  8 11  2  0  0  0  0
  9 13  1  0  0  0  0
  9 14  1  0  0  0  0
  9 15  1  0  0  0  0
 10 16  1  0  0  0  0
 10 17  1  0  0  0  0
 10 18  1  0  0  0  0
 19 20  1  0  0  0  0
 20 21  1  0  0  0  0
 20 22  1  0  0  0  0
 20 23  1  0  0  0  0
 23 24  4  0  0  0  0
 23 28  4  0  0  0  0
 24 25  4  0  0  0  0
 24 29  1  0  0  0  0
 25 26  4  0  0  0  0
 25 30  1  0  0  0  0
 26 27  4  0  0  0  0
 26 31  1  0  0  0  0
 27 28  4  0  0  0  0
 27 32  1  0  0  0  0
 28 33  1  0  0  0  0
 29 34  1  0  0  0  0
 29 35  1  0  0  0  0
M  END
> <BCLConfClusterSize>
1

> <ConfClashScore>
0 

> <ConfOneFourInteractionScore>
-0.960318 

> <ConfScore>
0.265667 

> <ConfScorePBest>
0.00726422 

> <ConfTolerance>
0.489874 

> <RosettaParamsInstructions>
M  ROOT 3
M  POLY_N_BB 3
M  POLY_CA_BB 4
M  POLY_C_BB 2
M  POLY_O_BB 5
M  POLY_IGNORE 9 10 11 12 13 14 15 16 17 18 
M  POLY_UPPER 6
M  POLY_LOWER 8
M  POLY_CHG 0
M  POLY_PROPERTIES ALPHA_AA D_AA PROTEIN AROMATIC POLYMER 
M  END

$$$$



 35 35  0  0  0  0  0  0  0  0999 V2000
   -0.1186    3.3067   -0.0024 H   0  0  0  1  0  0  0  0  0  0  0  0
   -1.9873    3.0229    0.9066 C   0  0  0  1  0  0  0  0  0  0  0  0
   -1.3730    4.7811   -0.6971 N   0  0  0  1  0  0  0  0  0  0  0  0
   -1.1414    3.3868   -0.3064 C   0  0  0  1  0  0  0  0  0  0  0  0
   -1.9380    1.8994    1.4055 O   0  0  0  1  0  0  0  0  0  0  0  0
   -2.7720    3.9952    1.3798 N   0  0  0  1  0  0  0  0  0  0  0  0
   -2.1554    4.9944   -1.2473 H   0  0  0  1  0  0  0  0  0  0  0  0
   -0.5544    5.7708   -0.3291 C   0  0  0  1  0  0  0  0  0  0  0  0
   -3.7952    3.7485    2.3848 C   0  0  0  1  0  0  0  0  0  0  0  0
   -1.0095    7.1673   -0.6878 C   0  0  0  1  0  0  0  0  0  0  0  0
    0.5058    5.5776    0.2645 O   0  0  0  1  0  0  0  0  0  0  0  0
   -2.6544    4.9062    1.0383 H   0  0  0  1  0  0  0  0  0  0  0  0
   -3.3770    3.1784    3.1879 H   0  0  0  1  0  0  0  0  0  0  0  0
   -4.6037    3.2035    1.9440 H   0  0  0  1  0  0  0  0  0  0  0  0
   -4.1574    4.6823    2.7614 H   0  0  0  1  0  0  0  0  0  0  0  0
   -0.3020    7.8796   -0.3179 H   0  0  0  1  0  0  0  0  0  0  0  0
   -1.9668    7.3543   -0.2478 H   0  0  0  1  0  0  0  0  0  0  0  0
   -1.0819    7.2563   -1.7516 H   0  0  0  1  0  0  0  0  0  0  0  0
   -1.1781    4.5090   -3.1009 F   0  0  0  1  0  0  0  0  0  0  0  0
   -1.9939    3.8106   -3.8926 C   0  0  0  1  0  0  0  0  0  0  0  0
   -2.4891    4.6786   -4.7762 F   0  0  0  1  0  0  0  0  0  0  0  0
   -1.2165    2.9735   -4.5856 F   0  0  0  1  0  0  0  0  0  0  0  0
   -3.0743    3.0914   -3.1200 C   0  0  0  1  0  0  0  0  0  0  0  0
   -2.7508    2.3763   -1.9774 C   0  0  0  1  0  0  0  0  0  0  0  0
   -3.7391    1.7140   -1.2739 C   0  0  0  1  0  0  0  0  0  0  0  0
   -5.0545    1.7692   -1.7078 C   0  0  0  1  0  0  0  0  0  0  0  0
   -5.3768    2.4822   -2.8470 C   0  0  0  1  0  0  0  0  0  0  0  0
   -4.3857    3.1466   -3.5527 C   0  0  0  1  0  0  0  0  0  0  0  0
   -1.3333    2.4069   -1.4565 C   0  0  0  1  0  0  0  0  0  0  0  0
   -3.4959    1.1741   -0.4189 H   0  0  0  1  0  0  0  0  0  0  0  0
   -5.7987    1.2741   -1.1762 H   0  0  0  1  0  0  0  0  0  0  0  0
   -6.3630    2.5204   -3.1749 H   0  0  0  1  0  0  0  0  0  0  0  0
   -4.6290    3.6864   -4.4077 H   0  0  0  1  0  0  0  0  0  0  0  0
   -1.0746    1.4264   -1.1153 H   0  0  0  1  0  0  0  0  0  0  0  0
   -0.6823    2.6898   -2.2572 H   0  0  0  1  0  0  0  0  0  0  0  0
  1  4  1  0  0  0  0
  2  4  1  0  0  0  0
  2  5  2  0  0  0  0
  2  6  1  0  0  0  0
  3  4  1  0  0  0  0
  3  7  1  0  0  0  0
  3  8  1  0  0  0  0
  4 29  1  0  0  0  0
  6  9  1  0  0  0  0
  6 12  1  0  0  0  0
  8 10  1  0  0  0  0
  8 11  2  0  0  0  0
  9 13  1  0  0  0  0
  9 14  1  0  0  0  0
  9 15  1  0  0  0  0
 10 16  1  0  0  0  0
 10 17  1  0  0  0  0
 10 18  1  0  0  0  0
 19 20  1  0  0  0  0
 20 21  1  0  0  0  0
 20 22  1  0  0  0  0
 20 23  1  0  0  0  0
 23 24  4  0  0  0  0
 23 28  4  0  0  0  0
 24 25  4  0  0  0  0
 24 29  1  0  0  0  0
 25 26  4  0  0  0  0
 25 30  1  0  0  0  0
 26 27  4  0  0  0  0
 26 31  1  0  0  0  0
 27 28  4  0  0  0  0
 27 32  1  0  0  0  0
 28 33  1  0  0  0  0
 29 34  1  0  0  0  0
 29 35  1  0  0  0  0
M  END
> <BCLConfClusterSize>
1

> <ConfClashScore>
0 

> <ConfOneFourInteractionScore>
-0.938406 

> <ConfScore>
0.26622 

> <ConfScorePBest>
0.00723574 

> <ConfTolerance>
0.373479 

> <RosettaParamsInstructions>
M  ROOT 3
M  POLY_N_BB 3
M  POLY_CA_BB 4
M  POLY_C_BB 2
M  POLY_O_BB 5
M  POLY_IGNORE 9 10 11 12 13 14 15 16 17 18 
M  POLY_UPPER 6
M  POLY_LOWER 8
M  POLY_CHG 0
M  POLY_PROPERTIES ALPHA_AA D_AA PROTEIN AROMATIC POLYMER 
M  END

$$$$



 35 35  0  0  0  0  0  0  0  0999 V2000
   -0.1062    2.1720   -2.2797 H   0  0  0  1  0  0  0  0  0  0  0  0
   -0.9265    0.6664   -1.0645 C   0  0  0  1  0  0  0  0  0  0  0  0
    0.6751    2.4152   -0.3915 N   0  0  0  1  0  0  0  0  0  0  0  0
   -0.4407    2.0885   -1.2667 C   0  0  0  1  0  0  0  0  0  0  0  0
   -1.3687    0.0103   -1.9931 O   0  0  0  1  0  0  0  0  0  0  0  0
   -0.8357    0.1917    0.1879 N   0  0  0  1  0  0  0  0  0  0  0  0
    0.6580    3.2627    0.1003 H   0  0  0  1  0  0  0  0  0  0  0  0
    1.7219    1.5999   -0.2350 C   0  0  0  1  0  0  0  0  0  0  0  0
   -1.4157   -1.0851    0.5797 C   0  0  0  1  0  0  0  0  0  0  0  0
    2.8665    2.1469    0.6083 C   0  0  0  1  0  0  0  0  0  0  0  0
    1.7754    0.4849   -0.7285 O   0  0  0  1  0  0  0  0  0  0  0  0
   -0.3626    0.7230    0.8620 H   0  0  0  1  0  0  0  0  0  0  0  0
   -0.9299   -1.8763    0.0479 H   0  0  0  1  0  0  0  0  0  0  0  0
   -2.4602   -1.0883    0.3474 H   0  0  0  1  0  0  0  0  0  0  0  0
   -1.2834   -1.2288    1.6317 H   0  0  0  1  0  0  0  0  0  0  0  0
    2.4984    2.4218    1.5747 H   0  0  0  1  0  0  0  0  0  0  0  0
    3.2837    3.0070    0.1278 H   0  0  0  1  0  0  0  0  0  0  0  0
    3.6212    1.3959    0.7148 H   0  0  0  1  0  0  0  0  0  0  0  0
   -1.9573    3.3861   -5.1793 F   0  0  0  1  0  0  0  0  0  0  0  0
   -1.9996    3.8047   -3.9132 C   0  0  0  1  0  0  0  0  0  0  0  0
   -0.7715    3.6313   -3.4221 F   0  0  0  1  0  0  0  0  0  0  0  0
   -2.1999    5.1223   -3.9620 F   0  0  0  1  0  0  0  0  0  0  0  0
   -3.0567    3.0867   -3.0996 C   0  0  0  1  0  0  0  0  0  0  0  0
   -2.8648    2.7442   -1.7702 C   0  0  0  1  0  0  0  0  0  0  0  0
   -3.8614    2.0845   -1.0759 C   0  0  0  1  0  0  0  0  0  0  0  0
   -5.0546    1.7701   -1.7073 C   0  0  0  1  0  0  0  0  0  0  0  0
   -5.2458    2.1116   -3.0328 C   0  0  0  1  0  0  0  0  0  0  0  0
   -4.2465    2.7732   -3.7294 C   0  0  0  1  0  0  0  0  0  0  0  0
   -1.5671    3.0917   -1.0797 C   0  0  0  1  0  0  0  0  0  0  0  0
   -3.7160    1.8240   -0.0796 H   0  0  0  1  0  0  0  0  0  0  0  0
   -5.8060    1.2773   -1.1837 H   0  0  0  1  0  0  0  0  0  0  0  0
   -6.1395    1.8721   -3.5078 H   0  0  0  1  0  0  0  0  0  0  0  0
   -4.3919    3.0337   -4.7256 H   0  0  0  1  0  0  0  0  0  0  0  0
   -1.2345    4.0357   -1.4579 H   0  0  0  1  0  0  0  0  0  0  0  0
   -1.7634    3.1760   -0.0313 H   0  0  0  1  0  0  0  0  0  0  0  0
  1  4  1  0  0  0  0
  2  4  1  0  0  0  0
  2  5  2  0  0  0  0
  2  6  1  0  0  0  0
  3  4  1  0  0  0  0
  3  7  1  0  0  0  0
  3  8  1  0  0  0  0
  4 29  1  0  0  0  0
  6  9  1  0  0  0  0
  6 12  1  0  0  0  0
  8 10  1  0  0  0  0
  8 11  2  0  0  0  0
  9 13  1  0  0  0  0
  9 14  1  0  0  0  0
  9 15  1  0  0  0  0
 10 16  1  0  0  0  0
 10 17  1  0  0  0  0
 10 18  1  0  0  0  0
 19 20  1  0  0  0  0
 20 21  1  0  0  0  0
 20 22  1  0  0  0  0
 20 23  1  0  0  0  0
 23 24  4  0  0  0  0
 23 28  4  0  0  0  0
 24 25  4  0  0  0  0
 24 29  1  0  0  0  0
 25 26  4  0  0  0  0
 25 30  1  0  0  0  0
 26 27  4  0  0  0  0
 26 31  1  0  0  0  0
 27 28  4  0  0  0  0
 27 32  1  0  0  0  0
 28 33  1  0  0  0  0
 29 34  1  0  0  0  0
 29 35  1  0  0  0  0
M  END
> <BCLConfClusterSize>
1

> <ConfClashScore>
0 

> <ConfOneFourInteractionScore>
-0.956443 

> <ConfScore>
0.267213 

> <ConfScorePBest>
0.00720726 

> <ConfTolerance>
0.415205 

> <RosettaParamsInstructions>
M  ROOT 3
M  POLY_N_BB 3
M  POLY_CA_BB 4
M  POLY_C_BB 2
M  POLY_O_BB 5
M  POLY_IGNORE 9 10 11 12 13 14 15 16 17 18 
M  POLY_UPPER 6
M  POLY_LOWER 8
M  POLY_CHG 0
M  POLY_PROPERTIES ALPHA_AA D_AA PROTEIN AROMATIC POLYMER 
M  END

$$$$



 35 35  0  0  0  0  0  0  0  0999 V2000
   -1.7052    3.0517    0.4995 H   0  0  0  1  0  0  0  0  0  0  0  0
   -1.4071    4.7620   -0.6613 C   0  0  0  1  0  0  0  0  0  0  0  0
    0.3109    3.1904    0.1904 N   0  0  0  1  0  0  0  0  0  0  0  0
   -1.0516    3.3331   -0.2996 C   0  0  0  1  0  0  0  0  0  0  0  0
   -0.5584    5.5418   -1.0919 O   0  0  0  1  0  0  0  0  0  0  0  0
   -2.6919    5.1069   -0.4806 N   0  0  0  1  0  0  0  0  0  0  0  0
    0.8944    2.5435   -0.2583 H   0  0  0  1  0  0  0  0  0  0  0  0
    0.8171    3.8852    1.2132 C   0  0  0  1  0  0  0  0  0  0  0  0
   -3.1856    6.4450   -0.7698 C   0  0  0  1  0  0  0  0  0  0  0  0
    2.2974    3.6873    1.4754 C   0  0  0  1  0  0  0  0  0  0  0  0
    0.1464    4.6359    1.9033 O   0  0  0  1  0  0  0  0  0  0  0  0
   -3.3190    4.4343   -0.1421 H   0  0  0  1  0  0  0  0  0  0  0  0
   -2.8817    6.7328   -1.7545 H   0  0  0  1  0  0  0  0  0  0  0  0
   -2.7843    7.1348   -0.0570 H   0  0  0  1  0  0  0  0  0  0  0  0
   -4.2540    6.4512   -0.7105 H   0  0  0  1  0  0  0  0  0  0  0  0
    2.8461    3.8587    0.5729 H   0  0  0  1  0  0  0  0  0  0  0  0
    2.4690    2.6863    1.8121 H   0  0  0  1  0  0  0  0  0  0  0  0
    2.6217    4.3772    2.2262 H   0  0  0  1  0  0  0  0  0  0  0  0
   -1.4922    4.8550   -3.2005 F   0  0  0  1  0  0  0  0  0  0  0  0
   -1.9833    3.8190   -3.8827 C   0  0  0  1  0  0  0  0  0  0  0  0
   -2.3862    4.3040   -5.0582 F   0  0  0  1  0  0  0  0  0  0  0  0
   -0.9484    3.0192   -4.1434 F   0  0  0  1  0  0  0  0  0  0  0  0
   -3.0933    3.1073   -3.1375 C   0  0  0  1  0  0  0  0  0  0  0  0
   -2.7601    2.4250   -1.9777 C   0  0  0  1  0  0  0  0  0  0  0  0
   -3.7369    1.7554   -1.2652 C   0  0  0  1  0  0  0  0  0  0  0  0
   -5.0506    1.7705   -1.7072 C   0  0  0  1  0  0  0  0  0  0  0  0
   -5.3827    2.4508   -2.8636 C   0  0  0  1  0  0  0  0  0  0  0  0
   -4.4031    3.1225   -3.5784 C   0  0  0  1  0  0  0  0  0  0  0  0
   -1.3478    2.3778   -1.4441 C   0  0  0  1  0  0  0  0  0  0  0  0
   -3.4863    1.2401   -0.3973 H   0  0  0  1  0  0  0  0  0  0  0  0
   -5.7863    1.2700   -1.1689 H   0  0  0  1  0  0  0  0  0  0  0  0
   -6.3676    2.4589   -3.1974 H   0  0  0  1  0  0  0  0  0  0  0  0
   -4.6538    3.6377   -4.4463 H   0  0  0  1  0  0  0  0  0  0  0  0
   -1.1577    1.3824   -1.1008 H   0  0  0  1  0  0  0  0  0  0  0  0
   -0.6828    2.6111   -2.2493 H   0  0  0  1  0  0  0  0  0  0  0  0
  1  4  1  0  0  0  0
  2  4  1  0  0  0  0
  2  5  2  0  0  0  0
  2  6  1  0  0  0  0
  3  4  1  0  0  0  0
  3  7  1  0  0  0  0
  3  8  1  0  0  0  0
  4 29  1  0  0  0  0
  6  9  1  0  0  0  0
  6 12  1  0  0  0  0
  8 10  1  0  0  0  0
  8 11  2  0  0  0  0
  9 13  1  0  0  0  0
  9 14  1  0  0  0  0
  9 15  1  0  0  0  0
 10 16  1  0  0  0  0
 10 17  1  0  0  0  0
 10 18  1  0  0  0  0
 19 20  1  0  0  0  0
 20 21  1  0  0  0  0
 20 22  1  0  0  0  0
 20 23  1  0  0  0  0
 23 24  4  0  0  0  0
 23 28  4  0  0  0  0
 24 25  4  0  0  0  0
 24 29  1  0  0  0  0
 25 26  4  0  0  0  0
 25 30  1  0  0  0  0
 26 27  4  0  0  0  0
 26 31  1  0  0  0  0
 27 28  4  0  0  0  0
 27 32  1  0  0  0  0
 28 33  1  0  0  0  0
 29 34  1  0  0  0  0
 29 35  1  0  0  0  0
M  END
> <BCLConfClusterSize>
1

> <ConfClashScore>
0.000122586 

> <ConfOneFourInteractionScore>
-0.985807 

> <ConfScore>
0.271406 

> <ConfScorePBest>
0.00717878 

> <ConfTolerance>
0.351567 

> <RosettaParamsInstructions>
M  ROOT 3
M  POLY_N_BB 3
M  POLY_CA_BB 4
M  POLY_C_BB 2
M  POLY_O_BB 5
M  POLY_IGNORE 9 10 11 12 13 14 15 16 17 18 
M  POLY_UPPER 6
M  POLY_LOWER 8
M  POLY_CHG 0
M  POLY_PROPERTIES ALPHA_AA D_AA PROTEIN AROMATIC POLYMER 
M  END

$$$$



 35 35  0  0  0  0  0  0  0  0999 V2000
   -0.0493    2.9378    0.1113 H   0  0  0  1  0  0  0  0  0  0  0  0
   -1.9197    2.5236    0.9742 C   0  0  0  1  0  0  0  0  0  0  0  0
   -1.2861    4.5251   -0.3176 N   0  0  0  1  0  0  0  0  0  0  0  0
   -1.0754    3.0952   -0.1481 C   0  0  0  1  0  0  0  0  0  0  0  0
   -1.4842    1.6331    1.6993 O   0  0  0  1  0  0  0  0  0  0  0  0
   -3.1546    3.0197    1.1505 N   0  0  0  1  0  0  0  0  0  0  0  0
   -1.4065    4.8603   -1.2306 H   0  0  0  1  0  0  0  0  0  0  0  0
   -1.3279    5.4154    0.6777 C   0  0  0  1  0  0  0  0  0  0  0  0
   -4.0645    2.4995    2.1601 C   0  0  0  1  0  0  0  0  0  0  0  0
   -1.4738    6.8654    0.2589 C   0  0  0  1  0  0  0  0  0  0  0  0
   -1.2542    5.0980    1.8632 O   0  0  0  1  0  0  0  0  0  0  0  0
   -3.4538    3.7578    0.5794 H   0  0  0  1  0  0  0  0  0  0  0  0
   -3.5015    2.1255    2.9897 H   0  0  0  1  0  0  0  0  0  0  0  0
   -4.6484    1.7076    1.7396 H   0  0  0  1  0  0  0  0  0  0  0  0
   -4.7126    3.2830    2.4935 H   0  0  0  1  0  0  0  0  0  0  0  0
   -2.5028    7.1526    0.3188 H   0  0  0  1  0  0  0  0  0  0  0  0
   -1.1291    6.9821   -0.7473 H   0  0  0  1  0  0  0  0  0  0  0  0
   -0.8925    7.4846    0.9097 H   0  0  0  1  0  0  0  0  0  0  0  0
   -1.4184    4.7967   -3.1942 F   0  0  0  1  0  0  0  0  0  0  0  0
   -1.9884    3.8087   -3.8862 C   0  0  0  1  0  0  0  0  0  0  0  0
   -2.4638    4.3990   -4.9839 F   0  0  0  1  0  0  0  0  0  0  0  0
   -1.0258    3.0111   -4.3007 F   0  0  0  1  0  0  0  0  0  0  0  0
   -3.0712    3.0920   -3.1146 C   0  0  0  1  0  0  0  0  0  0  0  0
   -2.7549    2.3995   -1.9561 C   0  0  0  1  0  0  0  0  0  0  0  0
   -3.7454    1.7395   -1.2535 C   0  0  0  1  0  0  0  0  0  0  0  0
   -5.0557    1.7744   -1.7042 C   0  0  0  1  0  0  0  0  0  0  0  0
   -5.3709    2.4648   -2.8592 C   0  0  0  1  0  0  0  0  0  0  0  0
   -4.3777    3.1268   -3.5641 C   0  0  0  1  0  0  0  0  0  0  0  0
   -1.3283    2.3659   -1.4611 C   0  0  0  1  0  0  0  0  0  0  0  0
   -3.5075    1.2166   -0.3865 H   0  0  0  1  0  0  0  0  0  0  0  0
   -5.8016    1.2811   -1.1733 H   0  0  0  1  0  0  0  0  0  0  0  0
   -6.3534    2.4877   -3.1996 H   0  0  0  1  0  0  0  0  0  0  0  0
   -4.6157    3.6497   -4.4310 H   0  0  0  1  0  0  0  0  0  0  0  0
   -1.0488    1.3415   -1.3289 H   0  0  0  1  0  0  0  0  0  0  0  0
   -0.7082    2.8113   -2.2108 H   0  0  0  1  0  0  0  0  0  0  0  0
  1  4  1  0  0  0  0
  2  4  1  0  0  0  0
  2  5  2  0  0  0  0
  2  6  1  0  0  0  0
  3  4  1  0  0  0  0
  3  7  1  0  0  0  0
  3  8  1  0  0  0  0
  4 29  1  0  0  0  0
  6  9  1  0  0  0  0
  6 12  1  0  0  0  0
  8 10  1  0  0  0  0
  8 11  2  0  0  0  0
  9 13  1  0  0  0  0
  9 14  1  0  0  0  0
  9 15  1  0  0  0  0
 10 16  1  0  0  0  0
 10 17  1  0  0  0  0
 10 18  1  0  0  0  0
 19 20  1  0  0  0  0
 20 21  1  0  0  0  0
 20 22  1  0  0  0  0
 20 23  1  0  0  0  0
 23 24  4  0  0  0  0
 23 28  4  0  0  0  0
 24 25  4  0  0  0  0
 24 29  1  0  0  0  0
 25 26  4  0  0  0  0
 25 30  1  0  0  0  0
 26 27  4  0  0  0  0
 26 31  1  0  0  0  0
 27 28  4  0  0  0  0
 27 32  1  0  0  0  0
 28 33  1  0  0  0  0
 29 34  1  0  0  0  0
 29 35  1  0  0  0  0
M  END
> <BCLConfClusterSize>
1

> <ConfClashScore>
0 

> <ConfOneFourInteractionScore>
-0.957074 

> <ConfScore>
0.2777 

> <ConfScorePBest>
0.0071503 

> <ConfTolerance>
0.302622 

> <RosettaParamsInstructions>
M  ROOT 3
M  POLY_N_BB 3
M  POLY_CA_BB 4
M  POLY_C_BB 2
M  POLY_O_BB 5
M  POLY_IGNORE 9 10 11 12 13 14 15 16 17 18 
M  POLY_UPPER 6
M  POLY_LOWER 8
M  POLY_CHG 0
M  POLY_PROPERTIES ALPHA_AA D_AA PROTEIN AROMATIC POLYMER 
M  END

$$$$



 35 35  0  0  0  0  0  0  0  0999 V2000
   -1.2736    0.3979   -0.8980 H   0  0  0  1  0  0  0  0  0  0  0  0
    0.7235    1.0679   -0.9651 C   0  0  0  1  0  0  0  0  0  0  0  0
   -0.7372    0.5154   -2.8813 N   0  0  0  1  0  0  0  0  0  0  0  0
   -0.6942    1.0424   -1.5255 C   0  0  0  1  0  0  0  0  0  0  0  0
    1.5637    0.2450   -1.3192 O   0  0  0  1  0  0  0  0  0  0  0  0
    0.9806    2.0371   -0.0736 N   0  0  0  1  0  0  0  0  0  0  0  0
   -0.9346    1.1132   -3.6323 H   0  0  0  1  0  0  0  0  0  0  0  0
   -0.5071   -0.7881   -3.1054 C   0  0  0  1  0  0  0  0  0  0  0  0
    2.2396    2.2028    0.6371 C   0  0  0  1  0  0  0  0  0  0  0  0
   -0.5943   -1.2923   -4.5328 C   0  0  0  1  0  0  0  0  0  0  0  0
   -0.2333   -1.5531   -2.1816 O   0  0  0  1  0  0  0  0  0  0  0  0
    0.2667    2.6821    0.1129 H   0  0  0  1  0  0  0  0  0  0  0  0
    2.9403    1.4685    0.2983 H   0  0  0  1  0  0  0  0  0  0  0  0
    2.0749    2.0804    1.6872 H   0  0  0  1  0  0  0  0  0  0  0  0
    2.6294    3.1812    0.4483 H   0  0  0  1  0  0  0  0  0  0  0  0
   -1.3595   -0.7565   -5.0547 H   0  0  0  1  0  0  0  0  0  0  0  0
   -0.8298   -2.3360   -4.5283 H   0  0  0  1  0  0  0  0  0  0  0  0
    0.3447   -1.1400   -5.0225 H   0  0  0  1  0  0  0  0  0  0  0  0
   -1.5613    4.9107   -3.2409 F   0  0  0  1  0  0  0  0  0  0  0  0
   -1.9815    3.8155   -3.8764 C   0  0  0  1  0  0  0  0  0  0  0  0
   -2.3525    4.2110   -5.0951 F   0  0  0  1  0  0  0  0  0  0  0  0
   -0.9056    3.0456   -4.0448 F   0  0  0  1  0  0  0  0  0  0  0  0
   -3.0935    3.1043   -3.1336 C   0  0  0  1  0  0  0  0  0  0  0  0
   -2.7645    2.4284   -1.9689 C   0  0  0  1  0  0  0  0  0  0  0  0
   -3.7432    1.7596   -1.2583 C   0  0  0  1  0  0  0  0  0  0  0  0
   -5.0547    1.7691   -1.7072 C   0  0  0  1  0  0  0  0  0  0  0  0
   -5.3825    2.4431   -2.8685 C   0  0  0  1  0  0  0  0  0  0  0  0
   -4.4010    3.1139   -3.5813 C   0  0  0  1  0  0  0  0  0  0  0  0
   -1.3367    2.4225   -1.4759 C   0  0  0  1  0  0  0  0  0  0  0  0
   -3.4958    1.2491   -0.3866 H   0  0  0  1  0  0  0  0  0  0  0  0
   -5.7918    1.2692   -1.1703 H   0  0  0  1  0  0  0  0  0  0  0  0
   -6.3657    2.4469   -3.2075 H   0  0  0  1  0  0  0  0  0  0  0  0
   -4.6485    3.6244   -4.4530 H   0  0  0  1  0  0  0  0  0  0  0  0
   -0.7627    3.0875   -2.0867 H   0  0  0  1  0  0  0  0  0  0  0  0
   -1.3247    2.7675   -0.4631 H   0  0  0  1  0  0  0  0  0  0  0  0
  1  4  1  0  0  0  0
  2  4  1  0  0  0  0
  2  5  2  0  0  0  0
  2  6  1  0  0  0  0
  3  4  1  0  0  0  0
  3  7  1  0  0  0  0
  3  8  1  0  0  0  0
  4 29  1  0  0  0  0
  6  9  1  0  0  0  0
  6 12  1  0  0  0  0
  8 10  1  0  0  0  0
  8 11  2  0  0  0  0
  9 13  1  0  0  0  0
  9 14  1  0  0  0  0
  9 15  1  0  0  0  0
 10 16  1  0  0  0  0
 10 17  1  0  0  0  0
 10 18  1  0  0  0  0
 19 20  1  0  0  0  0
 20 21  1  0  0  0  0
 20 22  1  0  0  0  0
 20 23  1  0  0  0  0
 23 24  4  0  0  0  0
 23 28  4  0  0  0  0
 24 25  4  0  0  0  0
 24 29  1  0  0  0  0
 25 26  4  0  0  0  0
 25 30  1  0  0  0  0
 26 27  4  0  0  0  0
 26 31  1  0  0  0  0
 27 28  4  0  0  0  0
 27 32  1  0  0  0  0
 28 33  1  0  0  0  0
 29 34  1  0  0  0  0
 29 35  1  0  0  0  0
M  END
> <BCLConfClusterSize>
1

> <ConfClashScore>
0.000154109 

> <ConfOneFourInteractionScore>
-0.958855 

> <ConfScore>
0.278553 

> <ConfScorePBest>
0.00712182 

> <ConfTolerance>
0.388553 

> <RosettaParamsInstructions>
M  ROOT 3
M  POLY_N_BB 3
M  POLY_CA_BB 4
M  POLY_C_BB 2
M  POLY_O_BB 5
M  POLY_IGNORE 9 10 11 12 13 14 15 16 17 18 
M  POLY_UPPER 6
M  POLY_LOWER 8
M  POLY_CHG 0
M  POLY_PROPERTIES ALPHA_AA D_AA PROTEIN AROMATIC POLYMER 
M  END

$$$$



 35 35  0  0  0  0  0  0  0  0999 V2000
   -0.5061    1.4658   -3.0314 H   0  0  0  1  0  0  0  0  0  0  0  0
   -1.0247   -0.0244   -1.6565 C   0  0  0  1  0  0  0  0  0  0  0  0
    0.8948    1.5574   -1.5321 N   0  0  0  1  0  0  0  0  0  0  0  0
   -0.4776    1.3476   -1.9683 C   0  0  0  1  0  0  0  0  0  0  0  0
   -1.0796   -0.4423   -0.5007 O   0  0  0  1  0  0  0  0  0  0  0  0
   -1.4386   -0.7407   -2.7128 N   0  0  0  1  0  0  0  0  0  0  0  0
    1.0795    2.3468   -0.9815 H   0  0  0  1  0  0  0  0  0  0  0  0
    1.9305    0.7482   -1.8281 C   0  0  0  1  0  0  0  0  0  0  0  0
   -1.9547   -2.0884   -2.5248 C   0  0  0  1  0  0  0  0  0  0  0  0
    3.2237    1.1363   -1.1381 C   0  0  0  1  0  0  0  0  0  0  0  0
    1.8679   -0.2219   -2.5822 O   0  0  0  1  0  0  0  0  0  0  0  0
   -1.3933   -0.3556   -3.6128 H   0  0  0  1  0  0  0  0  0  0  0  0
   -1.4837   -2.5358   -1.6746 H   0  0  0  1  0  0  0  0  0  0  0  0
   -1.7480   -2.6740   -3.3961 H   0  0  0  1  0  0  0  0  0  0  0  0
   -3.0119   -2.0461   -2.3654 H   0  0  0  1  0  0  0  0  0  0  0  0
    3.5053    0.3679   -0.4488 H   0  0  0  1  0  0  0  0  0  0  0  0
    3.0835    2.0558   -0.6092 H   0  0  0  1  0  0  0  0  0  0  0  0
    3.9950    1.2591   -1.8696 H   0  0  0  1  0  0  0  0  0  0  0  0
   -1.8217    5.0730   -3.4917 F   0  0  0  1  0  0  0  0  0  0  0  0
   -2.0059    3.8191   -3.9085 C   0  0  0  1  0  0  0  0  0  0  0  0
   -2.3205    3.8988   -5.2023 F   0  0  0  1  0  0  0  0  0  0  0  0
   -0.8124    3.2270   -3.8500 F   0  0  0  1  0  0  0  0  0  0  0  0
   -3.0571    3.0873   -3.0996 C   0  0  0  1  0  0  0  0  0  0  0  0
   -2.7605    2.4379   -1.9113 C   0  0  0  1  0  0  0  0  0  0  0  0
   -3.7577    1.7806   -1.2157 C   0  0  0  1  0  0  0  0  0  0  0  0
   -5.0552    1.7752   -1.7034 C   0  0  0  1  0  0  0  0  0  0  0  0
   -5.3507    2.4226   -2.8881 C   0  0  0  1  0  0  0  0  0  0  0  0
   -4.3508    3.0819   -3.5860 C   0  0  0  1  0  0  0  0  0  0  0  0
   -1.3480    2.4484   -1.3763 C   0  0  0  1  0  0  0  0  0  0  0  0
   -3.5345    1.2900   -0.3262 H   0  0  0  1  0  0  0  0  0  0  0  0
   -5.8063    1.2839   -1.1778 H   0  0  0  1  0  0  0  0  0  0  0  0
   -6.3234    2.4151   -3.2561 H   0  0  0  1  0  0  0  0  0  0  0  0
   -4.5741    3.5725   -4.4754 H   0  0  0  1  0  0  0  0  0  0  0  0
   -0.9039    3.3943   -1.6059 H   0  0  0  1  0  0  0  0  0  0  0  0
   -1.3850    2.3194   -0.3147 H   0  0  0  1  0  0  0  0  0  0  0  0
  1  4  1  0  0  0  0
  2  4  1  0  0  0  0
  2  5  2  0  0  0  0
  2  6  1  0  0  0  0
  3  4  1  0  0  0  0
  3  7  1  0  0  0  0
  3  8  1  0  0  0  0
  4 29  1  0  0  0  0
  6  9  1  0  0  0  0
  6 12  1  0  0  0  0
  8 10  1  0  0  0  0
  8 11  2  0  0  0  0
  9 13  1  0  0  0  0
  9 14  1  0  0  0  0
  9 15  1  0  0  0  0
 10 16  1  0  0  0  0
 10 17  1  0  0  0  0
 10 18  1  0  0  0  0
 19 20  1  0  0  0  0
 20 21  1  0  0  0  0
 20 22  1  0  0  0  0
 20 23  1  0  0  0  0
 23 24  4  0  0  0  0
 23 28  4  0  0  0  0
 24 25  4  0  0  0  0
 24 29  1  0  0  0  0
 25 26  4  0  0  0  0
 25 30  1  0  0  0  0
 26 27  4  0  0  0  0
 26 31  1  0  0  0  0
 27 28  4  0  0  0  0
 27 32  1  0  0  0  0
 28 33  1  0  0  0  0
 29 34  1  0  0  0  0
 29 35  1  0  0  0  0
M  END
> <BCLConfClusterSize>
1

> <ConfClashScore>
0 

> <ConfOneFourInteractionScore>
-0.978127 

> <ConfScore>
0.279648 

> <ConfScorePBest>
0.00709334 

> <ConfTolerance>
0.426712 

> <RosettaParamsInstructions>
M  ROOT 3
M  POLY_N_BB 3
M  POLY_CA_BB 4
M  POLY_C_BB 2
M  POLY_O_BB 5
M  POLY_IGNORE 9 10 11 12 13 14 15 16 17 18 
M  POLY_UPPER 6
M  POLY_LOWER 8
M  POLY_CHG 0
M  POLY_PROPERTIES ALPHA_AA D_AA PROTEIN AROMATIC POLYMER 
M  END

$$$$



 35 35  0  0  0  0  0  0  0  0999 V2000
   -1.1566    4.9927   -1.9638 H   0  0  0  1  0  0  0  0  0  0  0  0
   -0.0129    4.8622   -0.2046 C   0  0  0  1  0  0  0  0  0  0  0  0
   -2.4371    5.2738   -0.3786 N   0  0  0  1  0  0  0  0  0  0  0  0
   -1.2935    4.6036   -0.9766 C   0  0  0  1  0  0  0  0  0  0  0  0
    1.0400    4.3105   -0.5136 O   0  0  0  1  0  0  0  0  0  0  0  0
   -0.1134    5.7181    0.8164 N   0  0  0  1  0  0  0  0  0  0  0  0
   -3.0023    4.7967    0.2642 H   0  0  0  1  0  0  0  0  0  0  0  0
   -2.7277    6.5787   -0.7141 C   0  0  0  1  0  0  0  0  0  0  0  0
    0.9884    5.9662    1.7342 C   0  0  0  1  0  0  0  0  0  0  0  0
   -3.9059    7.1896   -0.0131 C   0  0  0  1  0  0  0  0  0  0  0  0
   -2.0454    7.1643   -1.5336 O   0  0  0  1  0  0  0  0  0  0  0  0
   -0.9585    6.1954    0.9520 H   0  0  0  1  0  0  0  0  0  0  0  0
    1.2756    5.0486    2.2038 H   0  0  0  1  0  0  0  0  0  0  0  0
    0.6792    6.6672    2.4810 H   0  0  0  1  0  0  0  0  0  0  0  0
    1.8205    6.3650    1.1925 H   0  0  0  1  0  0  0  0  0  0  0  0
   -3.6188    7.4891    0.9732 H   0  0  0  1  0  0  0  0  0  0  0  0
   -4.6960    6.4707    0.0485 H   0  0  0  1  0  0  0  0  0  0  0  0
   -4.2429    8.0445   -0.5613 H   0  0  0  1  0  0  0  0  0  0  0  0
   -2.0318    3.5279   -5.2034 F   0  0  0  1  0  0  0  0  0  0  0  0
   -1.9881    3.7981   -3.8977 C   0  0  0  1  0  0  0  0  0  0  0  0
   -0.7706    3.4663   -3.4912 F   0  0  0  1  0  0  0  0  0  0  0  0
   -2.0699    5.1247   -3.7880 F   0  0  0  1  0  0  0  0  0  0  0  0
   -3.0712    3.0855   -3.1227 C   0  0  0  1  0  0  0  0  0  0  0  0
   -2.8693    2.7562   -1.7914 C   0  0  0  1  0  0  0  0  0  0  0  0
   -3.8588    2.0994   -1.0845 C   0  0  0  1  0  0  0  0  0  0  0  0
   -5.0550    1.7747   -1.7051 C   0  0  0  1  0  0  0  0  0  0  0  0
   -5.2561    2.1030   -3.0324 C   0  0  0  1  0  0  0  0  0  0  0  0
   -4.2638    2.7618   -3.7417 C   0  0  0  1  0  0  0  0  0  0  0  0
   -1.5684    3.1149   -1.1128 C   0  0  0  1  0  0  0  0  0  0  0  0
   -3.7059    1.8488   -0.0868 H   0  0  0  1  0  0  0  0  0  0  0  0
   -5.8011    1.2840   -1.1719 H   0  0  0  1  0  0  0  0  0  0  0  0
   -6.1520    1.8558   -3.4992 H   0  0  0  1  0  0  0  0  0  0  0  0
   -4.4168    3.0124   -4.7394 H   0  0  0  1  0  0  0  0  0  0  0  0
   -1.5804    2.6902   -0.1308 H   0  0  0  1  0  0  0  0  0  0  0  0
   -0.7704    2.6824   -1.6793 H   0  0  0  1  0  0  0  0  0  0  0  0
  1  4  1  0  0  0  0
  2  4  1  0  0  0  0
  2  5  2  0  0  0  0
  2  6  1  0  0  0  0
  3  4  1  0  0  0  0
  3  7  1  0  0  0  0
  3  8  1  0  0  0  0
  4 29  1  0  0  0  0
  6  9  1  0  0  0  0
  6 12  1  0  0  0  0
  8 10  1  0  0  0  0
  8 11  2  0  0  0  0
  9 13  1  0  0  0  0
  9 14  1  0  0  0  0
  9 15  1  0  0  0  0
 10 16  1  0  0  0  0
 10 17  1  0  0  0  0
 10 18  1  0  0  0  0
 19 20  1  0  0  0  0
 20 21  1  0  0  0  0
 20 22  1  0  0  0  0
 20 23  1  0  0  0  0
 23 24  4  0  0  0  0
 23 28  4  0  0  0  0
 24 25  4  0  0  0  0
 24 29  1  0  0  0  0
 25 26  4  0  0  0  0
 25 30  1  0  0  0  0
 26 27  4  0  0  0  0
 26 31  1  0  0  0  0
 27 28  4  0  0  0  0
 27 32  1  0  0  0  0
 28 33  1  0  0  0  0
 29 34  1  0  0  0  0
 29 35  1  0  0  0  0
M  END
> <BCLConfClusterSize>
1

> <ConfClashScore>
0 

> <ConfOneFourInteractionScore>
-0.94165 

> <ConfScore>
0.285138 

> <ConfScorePBest>
0.00706485 

> <ConfTolerance>
0.337962 

> <RosettaParamsInstructions>
M  ROOT 3
M  POLY_N_BB 3
M  POLY_CA_BB 4
M  POLY_C_BB 2
M  POLY_O_BB 5
M  POLY_IGNORE 9 10 11 12 13 14 15 16 17 18 
M  POLY_UPPER 6
M  POLY_LOWER 8
M  POLY_CHG 0
M  POLY_PROPERTIES ALPHA_AA D_AA PROTEIN AROMATIC POLYMER 
M  END

$$$$



 35 35  0  0  0  0  0  0  0  0999 V2000
   -1.2927    4.4543   -1.2018 H   0  0  0  1  0  0  0  0  0  0  0  0
    0.4849    3.6654   -0.3949 C   0  0  0  1  0  0  0  0  0  0  0  0
   -1.8297    3.5599    0.5786 N   0  0  0  1  0  0  0  0  0  0  0  0
   -1.0127    3.5949   -0.6292 C   0  0  0  1  0  0  0  0  0  0  0  0
    1.2727    3.1541   -1.1896 O   0  0  0  1  0  0  0  0  0  0  0  0
    0.9199    4.2973    0.6964 N   0  0  0  1  0  0  0  0  0  0  0  0
   -2.6488    4.0969    0.6113 H   0  0  0  1  0  0  0  0  0  0  0  0
   -1.4969    2.8139    1.6525 C   0  0  0  1  0  0  0  0  0  0  0  0
    2.3177    4.4379    1.0762 C   0  0  0  1  0  0  0  0  0  0  0  0
   -2.4360    2.8152    2.8374 C   0  0  0  1  0  0  0  0  0  0  0  0
   -0.4604    2.1513    1.6695 O   0  0  0  1  0  0  0  0  0  0  0  0
    0.2475    4.6968    1.2869 H   0  0  0  1  0  0  0  0  0  0  0  0
    2.9349    4.3472    0.2069 H   0  0  0  1  0  0  0  0  0  0  0  0
    2.5752    3.6721    1.7777 H   0  0  0  1  0  0  0  0  0  0  0  0
    2.4707    5.3979    1.5233 H   0  0  0  1  0  0  0  0  0  0  0  0
   -2.5551    3.8156    3.1977 H   0  0  0  1  0  0  0  0  0  0  0  0
   -2.0298    2.2023    3.6148 H   0  0  0  1  0  0  0  0  0  0  0  0
   -3.3878    2.4285    2.5383 H   0  0  0  1  0  0  0  0  0  0  0  0
   -1.3602    4.7290   -3.1504 F   0  0  0  1  0  0  0  0  0  0  0  0
   -1.9955    3.8178   -3.8893 C   0  0  0  1  0  0  0  0  0  0  0  0
   -2.4737    4.4671   -4.9519 F   0  0  0  1  0  0  0  0  0  0  0  0
   -1.0568    2.9894   -4.3490 F   0  0  0  1  0  0  0  0  0  0  0  0
   -3.0753    3.0972   -3.1172 C   0  0  0  1  0  0  0  0  0  0  0  0
   -2.7547    2.3992   -1.9632 C   0  0  0  1  0  0  0  0  0  0  0  0
   -3.7424    1.7357   -1.2602 C   0  0  0  1  0  0  0  0  0  0  0  0
   -5.0545    1.7726   -1.7059 C   0  0  0  1  0  0  0  0  0  0  0  0
   -5.3740    2.4685   -2.8564 C   0  0  0  1  0  0  0  0  0  0  0  0
   -4.3835    3.1341   -3.5617 C   0  0  0  1  0  0  0  0  0  0  0  0
   -1.3262    2.3634   -1.4737 C   0  0  0  1  0  0  0  0  0  0  0  0
   -3.5013    1.2087   -0.3966 H   0  0  0  1  0  0  0  0  0  0  0  0
   -5.7983    1.2766   -1.1746 H   0  0  0  1  0  0  0  0  0  0  0  0
   -6.3577    2.4929   -3.1930 H   0  0  0  1  0  0  0  0  0  0  0  0
   -4.6247    3.6611   -4.4252 H   0  0  0  1  0  0  0  0  0  0  0  0
   -1.1805    1.4849   -0.8806 H   0  0  0  1  0  0  0  0  0  0  0  0
   -0.6671    2.3388   -2.3163 H   0  0  0  1  0  0  0  0  0  0  0  0
  1  4  1  0  0  0  0
  2  4  1  0  0  0  0
  2  5  2  0  0  0  0
  2  6  1  0  0  0  0
  3  4  1  0  0  0  0
  3  7  1  0  0  0  0
  3  8  1  0  0  0  0
  4 29  1  0  0  0  0
  6  9  1  0  0  0  0
  6 12  1  0  0  0  0
  8 10  1  0  0  0  0
  8 11  2  0  0  0  0
  9 13  1  0  0  0  0
  9 14  1  0  0  0  0
  9 15  1  0  0  0  0
 10 16  1  0  0  0  0
 10 17  1  0  0  0  0
 10 18  1  0  0  0  0
 19 20  1  0  0  0  0
 20 21  1  0  0  0  0
 20 22  1  0  0  0  0
 20 23  1  0  0  0  0
 23 24  4  0  0  0  0
 23 28  4  0  0  0  0
 24 25  4  0  0  0  0
 24 29  1  0  0  0  0
 25 26  4  0  0  0  0
 25 30  1  0  0  0  0
 26 27  4  0  0  0  0
 26 31  1  0  0  0  0
 27 28  4  0  0  0  0
 27 32  1  0  0  0  0
 28 33  1  0  0  0  0
 29 34  1  0  0  0  0
 29 35  1  0  0  0  0
M  END
> <BCLConfClusterSize>
1

> <ConfClashScore>
0 

> <ConfOneFourInteractionScore>
-0.957364 

> <ConfScore>
0.285427 

> <ConfScorePBest>
0.00703637 

> <ConfTolerance>
0.237428 

> <RosettaParamsInstructions>
M  ROOT 3
M  POLY_N_BB 3
M  POLY_CA_BB 4
M  POLY_C_BB 2
M  POLY_O_BB 5
M  POLY_IGNORE 9 10 11 12 13 14 15 16 17 18 
M  POLY_UPPER 6
M  POLY_LOWER 8
M  POLY_CHG 0
M  POLY_PROPERTIES ALPHA_AA D_AA PROTEIN AROMATIC POLYMER 
M  END

$$$$



 35 35  0  0  0  0  0  0  0  0999 V2000
   -1.8942    3.2574    0.4803 H   0  0  0  1  0  0  0  0  0  0  0  0
   -1.4617    4.8839   -0.7638 C   0  0  0  1  0  0  0  0  0  0  0  0
    0.1555    3.3247    0.3124 N   0  0  0  1  0  0  0  0  0  0  0  0
   -1.1770    3.4741   -0.2836 C   0  0  0  1  0  0  0  0  0  0  0  0
   -2.6030    5.3430   -0.7552 O   0  0  0  1  0  0  0  0  0  0  0  0
   -0.4034    5.5763   -1.1881 N   0  0  0  1  0  0  0  0  0  0  0  0
    0.7448    2.5995    0.0170 H   0  0  0  1  0  0  0  0  0  0  0  0
    0.5671    4.1752    1.2570 C   0  0  0  1  0  0  0  0  0  0  0  0
   -0.4459    6.9459   -1.6783 C   0  0  0  1  0  0  0  0  0  0  0  0
    1.9560    3.9231    1.8106 C   0  0  0  1  0  0  0  0  0  0  0  0
   -0.1215    5.1075    1.6635 O   0  0  0  1  0  0  0  0  0  0  0  0
    0.4683    5.1290   -1.1682 H   0  0  0  1  0  0  0  0  0  0  0  0
    0.5360    7.2493   -1.9760 H   0  0  0  1  0  0  0  0  0  0  0  0
   -0.7984    7.5917   -0.9015 H   0  0  0  1  0  0  0  0  0  0  0  0
   -1.1066    7.0035   -2.5180 H   0  0  0  1  0  0  0  0  0  0  0  0
    2.6203    3.6752    1.0093 H   0  0  0  1  0  0  0  0  0  0  0  0
    1.9201    3.1120    2.5076 H   0  0  0  1  0  0  0  0  0  0  0  0
    2.3078    4.8040    2.3056 H   0  0  0  1  0  0  0  0  0  0  0  0
   -1.5455    4.9019   -3.2937 F   0  0  0  1  0  0  0  0  0  0  0  0
   -2.0055    3.8153   -3.9164 C   0  0  0  1  0  0  0  0  0  0  0  0
   -2.4682    4.2301   -5.0968 F   0  0  0  1  0  0  0  0  0  0  0  0
   -0.9407    3.0562   -4.1783 F   0  0  0  1  0  0  0  0  0  0  0  0
   -3.0553    3.0829   -3.1063 C   0  0  0  1  0  0  0  0  0  0  0  0
   -2.7476    2.3903   -1.9456 C   0  0  0  1  0  0  0  0  0  0  0  0
   -3.7442    1.7346   -1.2475 C   0  0  0  1  0  0  0  0  0  0  0  0
   -5.0521    1.7740   -1.7051 C   0  0  0  1  0  0  0  0  0  0  0  0
   -5.3586    2.4646   -2.8624 C   0  0  0  1  0  0  0  0  0  0  0  0
   -4.3593    3.1223   -3.5626 C   0  0  0  1  0  0  0  0  0  0  0  0
   -1.3563    2.4095   -1.3580 C   0  0  0  1  0  0  0  0  0  0  0  0
   -3.5128    1.2116   -0.3789 H   0  0  0  1  0  0  0  0  0  0  0  0
   -5.8026    1.2840   -1.1776 H   0  0  0  1  0  0  0  0  0  0  0  0
   -6.3392    2.4909   -3.2079 H   0  0  0  1  0  0  0  0  0  0  0  0
   -4.5908    3.6453   -4.4312 H   0  0  0  1  0  0  0  0  0  0  0  0
   -1.1562    1.4516   -0.9251 H   0  0  0  1  0  0  0  0  0  0  0  0
   -0.6567    2.5988   -2.1452 H   0  0  0  1  0  0  0  0  0  0  0  0
  1  4  1  0  0  0  0
  2  4  1  0  0  0  0
  2  5  2  0  0  0  0
  2  6  1  0  0  0  0
  3  4  1  0  0  0  0
  3  7  1  0  0  0  0
  3  8  1  0  0  0  0
  4 29  1  0  0  0  0
  6  9  1  0  0  0  0
  6 12  1  0  0  0  0
  8 10  1  0  0  0  0
  8 11  2  0  0  0  0
  9 13  1  0  0  0  0
  9 14  1  0  0  0  0
  9 15  1  0  0  0  0
 10 16  1  0  0  0  0
 10 17  1  0  0  0  0
 10 18  1  0  0  0  0
 19 20  1  0  0  0  0
 20 21  1  0  0  0  0
 20 22  1  0  0  0  0
 20 23  1  0  0  0  0
 23 24  4  0  0  0  0
 23 28  4  0  0  0  0
 24 25  4  0  0  0  0
 24 29  1  0  0  0  0
 25 26  4  0  0  0  0
 25 30  1  0  0  0  0
 26 27  4  0  0  0  0
 26 31  1  0  0  0  0
 27 28  4  0  0  0  0
 27 32  1  0  0  0  0
 28 33  1  0  0  0  0
 29 34  1  0  0  0  0
 29 35  1  0  0  0  0
M  END
> <BCLConfClusterSize>
1

> <ConfClashScore>
0 

> <ConfOneFourInteractionScore>
-0.960318 

> <ConfScore>
0.289378 

> <ConfScorePBest>
0.00700789 

> <ConfTolerance>
0.325803 

> <RosettaParamsInstructions>
M  ROOT 3
M  POLY_N_BB 3
M  POLY_CA_BB 4
M  POLY_C_BB 2
M  POLY_O_BB 5
M  POLY_IGNORE 9 10 11 12 13 14 15 16 17 18 
M  POLY_UPPER 6
M  POLY_LOWER 8
M  POLY_CHG 0
M  POLY_PROPERTIES ALPHA_AA D_AA PROTEIN AROMATIC POLYMER 
M  END

$$$$



 35 35  0  0  0  0  0  0  0  0999 V2000
   -1.0595    4.3640   -1.1412 H   0  0  0  1  0  0  0  0  0  0  0  0
    0.6099    3.3659   -0.2871 C   0  0  0  1  0  0  0  0  0  0  0  0
   -1.6271    3.4629    0.6550 N   0  0  0  1  0  0  0  0  0  0  0  0
   -0.8743    3.4550   -0.6079 C   0  0  0  1  0  0  0  0  0  0  0  0
    1.0440    2.5216    0.4921 O   0  0  0  1  0  0  0  0  0  0  0  0
    1.3902    4.2555   -0.9027 N   0  0  0  1  0  0  0  0  0  0  0  0
   -1.8249    2.6089    1.0931 H   0  0  0  1  0  0  0  0  0  0  0  0
   -2.0509    4.5940    1.2261 C   0  0  0  1  0  0  0  0  0  0  0  0
    2.8201    4.3439   -0.6469 C   0  0  0  1  0  0  0  0  0  0  0  0
   -2.7932    4.4314    2.5383 C   0  0  0  1  0  0  0  0  0  0  0  0
   -1.8603    5.7053    0.7338 O   0  0  0  1  0  0  0  0  0  0  0  0
    0.9866    4.8709   -1.5498 H   0  0  0  1  0  0  0  0  0  0  0  0
    3.2379    3.3595   -0.6096 H   0  0  0  1  0  0  0  0  0  0  0  0
    2.9850    4.8367    0.2885 H   0  0  0  1  0  0  0  0  0  0  0  0
    3.2888    4.9005   -1.4313 H   0  0  0  1  0  0  0  0  0  0  0  0
   -3.6700    3.8385    2.3815 H   0  0  0  1  0  0  0  0  0  0  0  0
   -3.0758    5.3943    2.9096 H   0  0  0  1  0  0  0  0  0  0  0  0
   -2.1576    3.9467    3.2496 H   0  0  0  1  0  0  0  0  0  0  0  0
   -1.3056    4.6229   -3.0688 F   0  0  0  1  0  0  0  0  0  0  0  0
   -2.0027    3.8391   -3.8931 C   0  0  0  1  0  0  0  0  0  0  0  0
   -2.5280    4.6158   -4.8418 F   0  0  0  1  0  0  0  0  0  0  0  0
   -1.1342    3.0180   -4.4880 F   0  0  0  1  0  0  0  0  0  0  0  0
   -3.0627    3.0632   -3.1474 C   0  0  0  1  0  0  0  0  0  0  0  0
   -2.7408    2.3736   -1.9888 C   0  0  0  1  0  0  0  0  0  0  0  0
   -3.7315    1.7352   -1.2669 C   0  0  0  1  0  0  0  0  0  0  0  0
   -5.0477    1.7890   -1.6984 C   0  0  0  1  0  0  0  0  0  0  0  0
   -5.3685    2.4766   -2.8536 C   0  0  0  1  0  0  0  0  0  0  0  0
   -4.3750    3.1170   -3.5778 C   0  0  0  1  0  0  0  0  0  0  0  0
   -1.3263    2.2850   -1.4665 C   0  0  0  1  0  0  0  0  0  0  0  0
   -3.4895    1.2144   -0.3998 H   0  0  0  1  0  0  0  0  0  0  0  0
   -5.7938    1.3121   -1.1530 H   0  0  0  1  0  0  0  0  0  0  0  0
   -6.3554    2.5137   -3.1795 H   0  0  0  1  0  0  0  0  0  0  0  0
   -4.6171    3.6377   -4.4449 H   0  0  0  1  0  0  0  0  0  0  0  0
   -1.2465    1.3943   -0.8791 H   0  0  0  1  0  0  0  0  0  0  0  0
   -0.6676    2.2187   -2.3071 H   0  0  0  1  0  0  0  0  0  0  0  0
  1  4  1  0  0  0  0
  2  4  1  0  0  0  0
  2  5  2  0  0  0  0
  2  6  1  0  0  0  0
  3  4  1  0  0  0  0
  3  7  1  0  0  0  0
  3  8  1  0  0  0  0
  4 29  1  0  0  0  0
  6  9  1  0  0  0  0
  6 12  1  0  0  0  0
  8 10  1  0  0  0  0
  8 11  2  0  0  0  0
  9 13  1  0  0  0  0
  9 14  1  0  0  0  0
  9 15  1  0  0  0  0
 10 16  1  0  0  0  0
 10 17  1  0  0  0  0
 10 18  1  0  0  0  0
 19 20  1  0  0  0  0
 20 21  1  0  0  0  0
 20 22  1  0  0  0  0
 20 23  1  0  0  0  0
 23 24  4  0  0  0  0
 23 28  4  0  0  0  0
 24 25  4  0  0  0  0
 24 29  1  0  0  0  0
 25 26  4  0  0  0  0
 25 30  1  0  0  0  0
 26 27  4  0  0  0  0
 26 31  1  0  0  0  0
 27 28  4  0  0  0  0
 27 32  1  0  0  0  0
 28 33  1  0  0  0  0
 29 34  1  0  0  0  0
 29 35  1  0  0  0  0
M  END
> <BCLConfClusterSize>
1

> <ConfClashScore>
0 

> <ConfOneFourInteractionScore>
-0.978127 

> <ConfScore>
0.294337 

> <ConfScorePBest>
0.00697941 

> <ConfTolerance>
0.384741 

> <RosettaParamsInstructions>
M  ROOT 3
M  POLY_N_BB 3
M  POLY_CA_BB 4
M  POLY_C_BB 2
M  POLY_O_BB 5
M  POLY_IGNORE 9 10 11 12 13 14 15 16 17 18 
M  POLY_UPPER 6
M  POLY_LOWER 8
M  POLY_CHG 0
M  POLY_PROPERTIES ALPHA_AA D_AA PROTEIN AROMATIC POLYMER 
M  END

$$$$



 35 35  0  0  0  0  0  0  0  0999 V2000
   -0.3544    3.5940    0.3375 H   0  0  0  1  0  0  0  0  0  0  0  0
   -2.1556    2.9045    1.1743 C   0  0  0  1  0  0  0  0  0  0  0  0
   -1.8401    4.8872   -0.2560 N   0  0  0  1  0  0  0  0  0  0  0  0
   -1.3794    3.5390    0.0352 C   0  0  0  1  0  0  0  0  0  0  0  0
   -1.6052    2.1617    1.9861 O   0  0  0  1  0  0  0  0  0  0  0  0
   -3.4539    3.2057    1.2294 N   0  0  0  1  0  0  0  0  0  0  0  0
   -2.7174    5.1840    0.0644 H   0  0  0  1  0  0  0  0  0  0  0  0
   -1.0666    5.7256   -0.9624 C   0  0  0  1  0  0  0  0  0  0  0  0
   -4.3487    2.6119    2.2115 C   0  0  0  1  0  0  0  0  0  0  0  0
   -1.6520    7.0943   -1.2265 C   0  0  0  1  0  0  0  0  0  0  0  0
    0.0502    5.4180   -1.3770 O   0  0  0  1  0  0  0  0  0  0  0  0
   -3.8178    3.8492    0.5861 H   0  0  0  1  0  0  0  0  0  0  0  0
   -3.9583    1.6661    2.5246 H   0  0  0  1  0  0  0  0  0  0  0  0
   -5.3151    2.4715    1.7742 H   0  0  0  1  0  0  0  0  0  0  0  0
   -4.4305    3.2615    3.0578 H   0  0  0  1  0  0  0  0  0  0  0  0
   -1.0207    7.6278   -1.9061 H   0  0  0  1  0  0  0  0  0  0  0  0
   -1.7226    7.6354   -0.3061 H   0  0  0  1  0  0  0  0  0  0  0  0
   -2.6271    6.9884   -1.6542 H   0  0  0  1  0  0  0  0  0  0  0  0
   -0.9330    3.0625   -4.1171 F   0  0  0  1  0  0  0  0  0  0  0  0
   -1.9887    3.8163   -3.8866 C   0  0  0  1  0  0  0  0  0  0  0  0
   -1.5817    4.9195   -3.3151 F   0  0  0  1  0  0  0  0  0  0  0  0
   -2.3919    4.1813   -5.1059 F   0  0  0  1  0  0  0  0  0  0  0  0
   -3.0700    3.0964   -3.1159 C   0  0  0  1  0  0  0  0  0  0  0  0
   -2.7945    2.5663   -1.8650 C   0  0  0  1  0  0  0  0  0  0  0  0
   -3.7830    1.9030   -1.1628 C   0  0  0  1  0  0  0  0  0  0  0  0
   -5.0513    1.7725   -1.7068 C   0  0  0  1  0  0  0  0  0  0  0  0
   -5.3258    2.3011   -2.9540 C   0  0  0  1  0  0  0  0  0  0  0  0
   -4.3346    2.9663   -3.6585 C   0  0  0  1  0  0  0  0  0  0  0  0
   -1.4342    2.6821   -1.2190 C   0  0  0  1  0  0  0  0  0  0  0  0
   -3.5753    1.5018   -0.2260 H   0  0  0  1  0  0  0  0  0  0  0  0
   -5.7962    1.2769   -1.1766 H   0  0  0  1  0  0  0  0  0  0  0  0
   -6.2762    2.1997   -3.3639 H   0  0  0  1  0  0  0  0  0  0  0  0
   -4.5423    3.3675   -4.5952 H   0  0  0  1  0  0  0  0  0  0  0  0
   -1.1067    1.6969   -0.9601 H   0  0  0  1  0  0  0  0  0  0  0  0
   -0.7626    3.1045   -1.9369 H   0  0  0  1  0  0  0  0  0  0  0  0
  1  4  1  0  0  0  0
  2  4  1  0  0  0  0
  2  5  2  0  0  0  0
  2  6  1  0  0  0  0
  3  4  1  0  0  0  0
  3  7  1  0  0  0  0
  3  8  1  0  0  0  0
  4 29  1  0  0  0  0
  6  9  1  0  0  0  0
  6 12  1  0  0  0  0
  8 10  1  0  0  0  0
  8 11  2  0  0  0  0
  9 13  1  0  0  0  0
  9 14  1  0  0  0  0
  9 15  1  0  0  0  0
 10 16  1  0  0  0  0
 10 17  1  0  0  0  0
 10 18  1  0  0  0  0
 19 20  1  0  0  0  0
 20 21  1  0  0  0  0
 20 22  1  0  0  0  0
 20 23  1  0  0  0  0
 23 24  4  0  0  0  0
 23 28  4  0  0  0  0
 24 25  4  0  0  0  0
 24 29  1  0  0  0  0
 25 26  4  0  0  0  0
 25 30  1  0  0  0  0
 26 27  4  0  0  0  0
 26 31  1  0  0  0  0
 27 28  4  0  0  0  0
 27 32  1  0  0  0  0
 28 33  1  0  0  0  0
 29 34  1  0  0  0  0
 29 35  1  0  0  0  0
M  END
> <BCLConfClusterSize>
1

> <ConfClashScore>
0 

> <ConfOneFourInteractionScore>
-0.952634 

> <ConfScore>
0.296639 

> <ConfScorePBest>
0.00695093 

> <ConfTolerance>
0.287761 

> <RosettaParamsInstructions>
M  ROOT 3
M  POLY_N_BB 3
M  POLY_CA_BB 4
M  POLY_C_BB 2
M  POLY_O_BB 5
M  POLY_IGNORE 9 10 11 12 13 14 15 16 17 18 
M  POLY_UPPER 6
M  POLY_LOWER 8
M  POLY_CHG 0
M  POLY_PROPERTIES ALPHA_AA D_AA PROTEIN AROMATIC POLYMER 
M  END

$$$$



 35 35  0  0  0  0  0  0  0  0999 V2000
   -1.4320    0.5447   -0.3785 H   0  0  0  1  0  0  0  0  0  0  0  0
    0.6137    1.0111   -0.7161 C   0  0  0  1  0  0  0  0  0  0  0  0
   -0.8833    0.1035   -2.3379 N   0  0  0  1  0  0  0  0  0  0  0  0
   -0.8345    0.9605   -1.1627 C   0  0  0  1  0  0  0  0  0  0  0  0
    1.3967    0.1051   -0.9888 O   0  0  0  1  0  0  0  0  0  0  0  0
    0.9681    2.0933   -0.0175 N   0  0  0  1  0  0  0  0  0  0  0  0
   -1.6737   -0.4579   -2.4814 H   0  0  0  1  0  0  0  0  0  0  0  0
    0.1119    0.0554   -3.2280 C   0  0  0  1  0  0  0  0  0  0  0  0
    2.3513    2.3680    0.3419 C   0  0  0  1  0  0  0  0  0  0  0  0
    0.0474   -1.0886   -4.2317 C   0  0  0  1  0  0  0  0  0  0  0  0
    1.0286    0.8725   -3.2509 O   0  0  0  1  0  0  0  0  0  0  0  0
    0.2725    2.7242    0.2627 H   0  0  0  1  0  0  0  0  0  0  0  0
    2.7026    1.6126    1.0135 H   0  0  0  1  0  0  0  0  0  0  0  0
    2.4128    3.3244    0.8177 H   0  0  0  1  0  0  0  0  0  0  0  0
    2.9556    2.3688   -0.5411 H   0  0  0  1  0  0  0  0  0  0  0  0
    0.1368   -0.6986   -5.2240 H   0  0  0  1  0  0  0  0  0  0  0  0
   -0.8883   -1.5980   -4.1318 H   0  0  0  1  0  0  0  0  0  0  0  0
    0.8484   -1.7728   -4.0441 H   0  0  0  1  0  0  0  0  0  0  0  0
   -1.3989    4.7682   -3.1675 F   0  0  0  1  0  0  0  0  0  0  0  0
   -1.9952    3.8175   -3.8890 C   0  0  0  1  0  0  0  0  0  0  0  0
   -2.4654    4.4207   -4.9866 F   0  0  0  1  0  0  0  0  0  0  0  0
   -1.0267    2.9974   -4.2992 F   0  0  0  1  0  0  0  0  0  0  0  0
   -3.0751    3.0970   -3.1170 C   0  0  0  1  0  0  0  0  0  0  0  0
   -2.7552    2.4016   -1.9613 C   0  0  0  1  0  0  0  0  0  0  0  0
   -3.7431    1.7382   -1.2583 C   0  0  0  1  0  0  0  0  0  0  0  0
   -5.0546    1.7725   -1.7059 C   0  0  0  1  0  0  0  0  0  0  0  0
   -5.3734    2.4659   -2.8581 C   0  0  0  1  0  0  0  0  0  0  0  0
   -4.3828    3.1314   -3.5633 C   0  0  0  1  0  0  0  0  0  0  0  0
   -1.3273    2.3685   -1.4697 C   0  0  0  1  0  0  0  0  0  0  0  0
   -3.5025    1.2131   -0.3934 H   0  0  0  1  0  0  0  0  0  0  0  0
   -5.7985    1.2766   -1.1746 H   0  0  0  1  0  0  0  0  0  0  0  0
   -6.3567    2.4884   -3.1962 H   0  0  0  1  0  0  0  0  0  0  0  0
   -4.6234    3.6564   -4.4282 H   0  0  0  1  0  0  0  0  0  0  0  0
   -0.6977    2.7929   -2.2236 H   0  0  0  1  0  0  0  0  0  0  0  0
   -1.2608    2.9549   -0.5771 H   0  0  0  1  0  0  0  0  0  0  0  0
  1  4  1  0  0  0  0
  2  4  1  0  0  0  0
  2  5  2  0  0  0  0
  2  6  1  0  0  0  0
  3  4  1  0  0  0  0
  3  7  1  0  0  0  0
  3  8  1  0  0  0  0
  4 29  1  0  0  0  0
  6  9  1  0  0  0  0
  6 12  1  0  0  0  0
  8 10  1  0  0  0  0
  8 11  2  0  0  0  0
  9 13  1  0  0  0  0
  9 14  1  0  0  0  0
  9 15  1  0  0  0  0
 10 16  1  0  0  0  0
 10 17  1  0  0  0  0
 10 18  1  0  0  0  0
 19 20  1  0  0  0  0
 20 21  1  0  0  0  0
 20 22  1  0  0  0  0
 20 23  1  0  0  0  0
 23 24  4  0  0  0  0
 23 28  4  0  0  0  0
 24 25  4  0  0  0  0
 24 29  1  0  0  0  0
 25 26  4  0  0  0  0
 25 30  1  0  0  0  0
 26 27  4  0  0  0  0
 26 31  1  0  0  0  0
 27 28  4  0  0  0  0
 27 32  1  0  0  0  0
 28 33  1  0  0  0  0
 29 34  1  0  0  0  0
 29 35  1  0  0  0  0
M  END
> <BCLConfClusterSize>
1

> <ConfClashScore>
0 

> <ConfOneFourInteractionScore>
-0.935823 

> <ConfScore>
0.298982 

> <ConfScorePBest>
0.00692245 

> <ConfTolerance>
0.489564 

> <RosettaParamsInstructions>
M  ROOT 3
M  POLY_N_BB 3
M  POLY_CA_BB 4
M  POLY_C_BB 2
M  POLY_O_BB 5
M  POLY_IGNORE 9 10 11 12 13 14 15 16 17 18 
M  POLY_UPPER 6
M  POLY_LOWER 8
M  POLY_CHG 0
M  POLY_PROPERTIES ALPHA_AA D_AA PROTEIN AROMATIC POLYMER 
M  END

$$$$



 35 35  0  0  0  0  0  0  0  0999 V2000
   -0.6292    1.3390   -2.7974 H   0  0  0  1  0  0  0  0  0  0  0  0
   -1.0361    0.1020   -1.1030 C   0  0  0  1  0  0  0  0  0  0  0  0
    0.8440    1.6578   -1.3624 N   0  0  0  1  0  0  0  0  0  0  0  0
   -0.5412    1.4100   -1.7334 C   0  0  0  1  0  0  0  0  0  0  0  0
   -1.9933   -0.4926   -1.5968 O   0  0  0  1  0  0  0  0  0  0  0  0
   -0.3260   -0.3783   -0.0701 N   0  0  0  1  0  0  0  0  0  0  0  0
    1.0720    2.5039   -0.9236 H   0  0  0  1  0  0  0  0  0  0  0  0
    1.8199    0.7681   -1.6001 C   0  0  0  1  0  0  0  0  0  0  0  0
   -0.6849   -1.6121    0.6132 C   0  0  0  1  0  0  0  0  0  0  0  0
    3.2306    1.2462   -1.3164 C   0  0  0  1  0  0  0  0  0  0  0  0
    1.6031   -0.3673   -2.0213 O   0  0  0  1  0  0  0  0  0  0  0  0
    0.4615    0.1191    0.2345 H   0  0  0  1  0  0  0  0  0  0  0  0
   -0.6237   -2.4311   -0.0727 H   0  0  0  1  0  0  0  0  0  0  0  0
   -1.6843   -1.5345    0.9874 H   0  0  0  1  0  0  0  0  0  0  0  0
   -0.0106   -1.7778    1.4273 H   0  0  0  1  0  0  0  0  0  0  0  0
    3.4784    2.0444   -1.9846 H   0  0  0  1  0  0  0  0  0  0  0  0
    3.9163    0.4371   -1.4579 H   0  0  0  1  0  0  0  0  0  0  0  0
    3.2926    1.5946   -0.3066 H   0  0  0  1  0  0  0  0  0  0  0  0
   -2.1516    5.1663   -3.9488 F   0  0  0  1  0  0  0  0  0  0  0  0
   -1.9688    3.8447   -3.9454 C   0  0  0  1  0  0  0  0  0  0  0  0
   -1.9588    3.4654   -5.2283 F   0  0  0  1  0  0  0  0  0  0  0  0
   -0.7338    3.6399   -3.4855 F   0  0  0  1  0  0  0  0  0  0  0  0
   -3.0702    3.0801   -3.0931 C   0  0  0  1  0  0  0  0  0  0  0  0
   -2.7902    2.5048   -1.8634 C   0  0  0  1  0  0  0  0  0  0  0  0
   -3.7854    1.8463   -1.1660 C   0  0  0  1  0  0  0  0  0  0  0  0
   -5.0647    1.7658   -1.6936 C   0  0  0  1  0  0  0  0  0  0  0  0
   -5.3437    2.3395   -2.9197 C   0  0  0  1  0  0  0  0  0  0  0  0
   -4.3458    2.9999   -3.6193 C   0  0  0  1  0  0  0  0  0  0  0  0
   -1.4177    2.5650   -1.2357 C   0  0  0  1  0  0  0  0  0  0  0  0
   -3.5744    1.4112   -0.2453 H   0  0  0  1  0  0  0  0  0  0  0  0
   -5.8144    1.2738   -1.1670 H   0  0  0  1  0  0  0  0  0  0  0  0
   -6.3025    2.2757   -3.3174 H   0  0  0  1  0  0  0  0  0  0  0  0
   -4.5568    3.4351   -4.5400 H   0  0  0  1  0  0  0  0  0  0  0  0
   -0.9540    3.4940   -1.4945 H   0  0  0  1  0  0  0  0  0  0  0  0
   -1.5150    2.4985   -0.1722 H   0  0  0  1  0  0  0  0  0  0  0  0
  1  4  1  0  0  0  0
  2  4  1  0  0  0  0
  2  5  2  0  0  0  0
  2  6  1  0  0  0  0
  3  4  1  0  0  0  0
  3  7  1  0  0  0  0
  3  8  1  0  0  0  0
  4 29  1  0  0  0  0
  6  9  1  0  0  0  0
  6 12  1  0  0  0  0
  8 10  1  0  0  0  0
  8 11  2  0  0  0  0
  9 13  1  0  0  0  0
  9 14  1  0  0  0  0
  9 15  1  0  0  0  0
 10 16  1  0  0  0  0
 10 17  1  0  0  0  0
 10 18  1  0  0  0  0
 19 20  1  0  0  0  0
 20 21  1  0  0  0  0
 20 22  1  0  0  0  0
 20 23  1  0  0  0  0
 23 24  4  0  0  0  0
 23 28  4  0  0  0  0
 24 25  4  0  0  0  0
 24 29  1  0  0  0  0
 25 26  4  0  0  0  0
 25 30  1  0  0  0  0
 26 27  4  0  0  0  0
 26 31  1  0  0  0  0
 27 28  4  0  0  0  0
 27 32  1  0  0  0  0
 28 33  1  0  0  0  0
 29 34  1  0  0  0  0
 29 35  1  0  0  0  0
M  END
> <BCLConfClusterSize>
1

> <ConfClashScore>
0 

> <ConfOneFourInteractionScore>
-0.960318 

> <ConfScore>
0.302264 

> <ConfScorePBest>
0.00689397 

> <ConfTolerance>
0.464801 

> <RosettaParamsInstructions>
M  ROOT 3
M  POLY_N_BB 3
M  POLY_CA_BB 4
M  POLY_C_BB 2
M  POLY_O_BB 5
M  POLY_IGNORE 9 10 11 12 13 14 15 16 17 18 
M  POLY_UPPER 6
M  POLY_LOWER 8
M  POLY_CHG 0
M  POLY_PROPERTIES ALPHA_AA D_AA PROTEIN AROMATIC POLYMER 
M  END

$$$$



 35 35  0  0  0  0  0  0  0  0999 V2000
   -0.0176    3.3022   -0.1089 H   0  0  0  1  0  0  0  0  0  0  0  0
   -1.8000    2.8395    0.9242 C   0  0  0  1  0  0  0  0  0  0  0  0
   -1.4123    4.6754   -0.7545 N   0  0  0  1  0  0  0  0  0  0  0  0
   -1.0661    3.3302   -0.3205 C   0  0  0  1  0  0  0  0  0  0  0  0
   -2.1207    1.6721    1.0753 O   0  0  0  1  0  0  0  0  0  0  0  0
   -2.1060    3.7191    1.8900 N   0  0  0  1  0  0  0  0  0  0  0  0
   -0.7044    5.3090   -0.9949 H   0  0  0  1  0  0  0  0  0  0  0  0
   -2.6958    5.0492   -0.8259 C   0  0  0  1  0  0  0  0  0  0  0  0
   -2.7344    3.2634    3.1210 C   0  0  0  1  0  0  0  0  0  0  0  0
   -2.9255    6.4960   -1.2568 C   0  0  0  1  0  0  0  0  0  0  0  0
   -3.6378    4.3272   -0.5020 O   0  0  0  1  0  0  0  0  0  0  0  0
   -1.9059    4.6704    1.7663 H   0  0  0  1  0  0  0  0  0  0  0  0
   -2.0992    2.5504    3.6036 H   0  0  0  1  0  0  0  0  0  0  0  0
   -3.6747    2.8063    2.8932 H   0  0  0  1  0  0  0  0  0  0  0  0
   -2.8915    4.0985    3.7713 H   0  0  0  1  0  0  0  0  0  0  0  0
   -2.7083    7.1511   -0.4391 H   0  0  0  1  0  0  0  0  0  0  0  0
   -3.9459    6.6220   -1.5531 H   0  0  0  1  0  0  0  0  0  0  0  0
   -2.2832    6.7289   -2.0803 H   0  0  0  1  0  0  0  0  0  0  0  0
   -1.3810    4.7602   -3.1759 F   0  0  0  1  0  0  0  0  0  0  0  0
   -1.9885    3.8084   -3.8865 C   0  0  0  1  0  0  0  0  0  0  0  0
   -2.4730    4.4448   -4.9541 F   0  0  0  1  0  0  0  0  0  0  0  0
   -1.0538    3.0031   -4.3473 F   0  0  0  1  0  0  0  0  0  0  0  0
   -3.0713    3.0919   -3.1148 C   0  0  0  1  0  0  0  0  0  0  0  0
   -2.7544    2.3967   -1.9581 C   0  0  0  1  0  0  0  0  0  0  0  0
   -3.7448    1.7368   -1.2554 C   0  0  0  1  0  0  0  0  0  0  0  0
   -5.0558    1.7744   -1.7042 C   0  0  0  1  0  0  0  0  0  0  0  0
   -5.3715    2.4676   -2.8574 C   0  0  0  1  0  0  0  0  0  0  0  0
   -4.3784    3.1295   -3.5624 C   0  0  0  1  0  0  0  0  0  0  0  0
   -1.3271    2.3600   -1.4652 C   0  0  0  1  0  0  0  0  0  0  0  0
   -3.5065    1.2119   -0.3898 H   0  0  0  1  0  0  0  0  0  0  0  0
   -5.8016    1.2812   -1.1731 H   0  0  0  1  0  0  0  0  0  0  0  0
   -6.3544    2.4925   -3.1964 H   0  0  0  1  0  0  0  0  0  0  0  0
   -4.6167    3.6544   -4.4280 H   0  0  0  1  0  0  0  0  0  0  0  0
   -1.1087    1.3684   -1.1277 H   0  0  0  1  0  0  0  0  0  0  0  0
   -0.6792    2.6111   -2.2789 H   0  0  0  1  0  0  0  0  0  0  0  0
  1  4  1  0  0  0  0
  2  4  1  0  0  0  0
  2  5  2  0  0  0  0
  2  6  1  0  0  0  0
  3  4  1  0  0  0  0
  3  7  1  0  0  0  0
  3  8  1  0  0  0  0
  4 29  1  0  0  0  0
  6  9  1  0  0  0  0
  6 12  1  0  0  0  0
  8 10  1  0  0  0  0
  8 11  2  0  0  0  0
  9 13  1  0  0  0  0
  9 14  1  0  0  0  0
  9 15  1  0  0  0  0
 10 16  1  0  0  0  0
 10 17  1  0  0  0  0
 10 18  1  0  0  0  0
 19 20  1  0  0  0  0
 20 21  1  0  0  0  0
 20 22  1  0  0  0  0
 20 23  1  0  0  0  0
 23 24  4  0  0  0  0
 23 28  4  0  0  0  0
 24 25  4  0  0  0  0
 24 29  1  0  0  0  0
 25 26  4  0  0  0  0
 25 30  1  0  0  0  0
 26 27  4  0  0  0  0
 26 31  1  0  0  0  0
 27 28  4  0  0  0  0
 27 32  1  0  0  0  0
 28 33  1  0  0  0  0
 29 34  1  0  0  0  0
 29 35  1  0  0  0  0
M  END
> <BCLConfClusterSize>
1

> <ConfClashScore>
0 

> <ConfOneFourInteractionScore>
-0.947651 

> <ConfScore>
0.303771 

> <ConfScorePBest>
0.00686549 

> <ConfTolerance>
0.222509 

> <RosettaParamsInstructions>
M  ROOT 3
M  POLY_N_BB 3
M  POLY_CA_BB 4
M  POLY_C_BB 2
M  POLY_O_BB 5
M  POLY_IGNORE 9 10 11 12 13 14 15 16 17 18 
M  POLY_UPPER 6
M  POLY_LOWER 8
M  POLY_CHG 0
M  POLY_PROPERTIES ALPHA_AA D_AA PROTEIN AROMATIC POLYMER 
M  END

$$$$



 35 35  0  0  0  0  0  0  0  0999 V2000
   -1.5181    4.8927   -1.2708 H   0  0  0  1  0  0  0  0  0  0  0  0
    0.2493    4.3167   -0.2614 C   0  0  0  1  0  0  0  0  0  0  0  0
   -2.0610    4.1252    0.5716 N   0  0  0  1  0  0  0  0  0  0  0  0
   -1.2155    4.1051   -0.6127 C   0  0  0  1  0  0  0  0  0  0  0  0
    1.1134    4.3639   -1.1329 O   0  0  0  1  0  0  0  0  0  0  0  0
    0.5224    4.4456    1.0459 N   0  0  0  1  0  0  0  0  0  0  0  0
   -2.6126    4.9117    0.7653 H   0  0  0  1  0  0  0  0  0  0  0  0
   -2.0871    3.0690    1.3987 C   0  0  0  1  0  0  0  0  0  0  0  0
    1.8852    4.5049    1.5532 C   0  0  0  1  0  0  0  0  0  0  0  0
   -3.1637    3.0948    2.4662 C   0  0  0  1  0  0  0  0  0  0  0  0
   -1.2964    2.1305    1.3119 O   0  0  0  1  0  0  0  0  0  0  0  0
   -0.2216    4.5017    1.6812 H   0  0  0  1  0  0  0  0  0  0  0  0
    2.3752    5.3712    1.1602 H   0  0  0  1  0  0  0  0  0  0  0  0
    2.4166    3.6268    1.2508 H   0  0  0  1  0  0  0  0  0  0  0  0
    1.8657    4.5604    2.6215 H   0  0  0  1  0  0  0  0  0  0  0  0
   -3.0765    3.9938    3.0398 H   0  0  0  1  0  0  0  0  0  0  0  0
   -3.0472    2.2483    3.1103 H   0  0  0  1  0  0  0  0  0  0  0  0
   -4.1270    3.0603    2.0017 H   0  0  0  1  0  0  0  0  0  0  0  0
   -0.9290    3.0284   -4.1116 F   0  0  0  1  0  0  0  0  0  0  0  0
   -1.9901    3.8039   -3.8822 C   0  0  0  1  0  0  0  0  0  0  0  0
   -1.5333    4.8802   -3.2401 F   0  0  0  1  0  0  0  0  0  0  0  0
   -2.4066    4.2295   -5.0755 F   0  0  0  1  0  0  0  0  0  0  0  0
   -3.0745    3.0878   -3.1124 C   0  0  0  1  0  0  0  0  0  0  0  0
   -2.8048    2.5660   -1.8568 C   0  0  0  1  0  0  0  0  0  0  0  0
   -3.7961    1.9061   -1.1553 C   0  0  0  1  0  0  0  0  0  0  0  0
   -5.0615    1.7707   -1.7049 C   0  0  0  1  0  0  0  0  0  0  0  0
   -5.3302    2.2910   -2.9568 C   0  0  0  1  0  0  0  0  0  0  0  0
   -4.3361    2.9528   -3.6605 C   0  0  0  1  0  0  0  0  0  0  0  0
   -1.3971    2.7744   -1.3503 C   0  0  0  1  0  0  0  0  0  0  0  0
   -3.5927    1.5111   -0.2150 H   0  0  0  1  0  0  0  0  0  0  0  0
   -5.8085    1.2777   -1.1753 H   0  0  0  1  0  0  0  0  0  0  0  0
   -6.2784    2.1860   -3.3709 H   0  0  0  1  0  0  0  0  0  0  0  0
   -4.5396    3.3478   -4.6008 H   0  0  0  1  0  0  0  0  0  0  0  0
   -1.1552    1.9771   -0.6790 H   0  0  0  1  0  0  0  0  0  0  0  0
   -0.7282    2.7537   -2.1852 H   0  0  0  1  0  0  0  0  0  0  0  0
  1  4  1  0  0  0  0
  2  4  1  0  0  0  0
  2  5  2  0  0  0  0
  2  6  1  0  0  0  0
  3  4  1  0  0  0  0
  3  7  1  0  0  0  0
  3  8  1  0  0  0  0
  4 29  1  0  0  0  0
  6  9  1  0  0  0  0
  6 12  1  0  0  0  0
  8 10  1  0  0  0  0
  8 11  2  0  0  0  0
  9 13  1  0  0  0  0
  9 14  1  0  0  0  0
  9 15  1  0  0  0  0
 10 16  1  0  0  0  0
 10 17  1  0  0  0  0
 10 18  1  0  0  0  0
 19 20  1  0  0  0  0
 20 21  1  0  0  0  0
 20 22  1  0  0  0  0
 20 23  1  0  0  0  0
 23 24  4  0  0  0  0
 23 28  4  0  0  0  0
 24 25  4  0  0  0  0
 24 29  1  0  0  0  0
 25 26  4  0  0  0  0
 25 30  1  0  0  0  0
 26 27  4  0  0  0  0
 26 31  1  0  0  0  0
 27 28  4  0  0  0  0
 27 32  1  0  0  0  0
 28 33  1  0  0  0  0
 29 34  1  0  0  0  0
 29 35  1  0  0  0  0
M  END
> <BCLConfClusterSize>
1

> <ConfClashScore>
0.000107765 

> <ConfOneFourInteractionScore>
-0.954835 

> <ConfScore>
0.304039 

> <ConfScorePBest>
0.00683701 

> <ConfTolerance>
0.358184 

> <RosettaParamsInstructions>
M  ROOT 3
M  POLY_N_BB 3
M  POLY_CA_BB 4
M  POLY_C_BB 2
M  POLY_O_BB 5
M  POLY_IGNORE 9 10 11 12 13 14 15 16 17 18 
M  POLY_UPPER 6
M  POLY_LOWER 8
M  POLY_CHG 0
M  POLY_PROPERTIES ALPHA_AA D_AA PROTEIN AROMATIC POLYMER 
M  END

$$$$



 35 35  0  0  0  0  0  0  0  0999 V2000
   -0.2737    1.6657   -2.8065 H   0  0  0  1  0  0  0  0  0  0  0  0
   -0.8201    0.1149   -1.4906 C   0  0  0  1  0  0  0  0  0  0  0  0
    0.9092    1.8424   -1.1169 N   0  0  0  1  0  0  0  0  0  0  0  0
   -0.3791    1.5425   -1.7489 C   0  0  0  1  0  0  0  0  0  0  0  0
   -1.7430   -0.1376   -0.7206 O   0  0  0  1  0  0  0  0  0  0  0  0
   -0.1435   -0.8298   -2.1499 N   0  0  0  1  0  0  0  0  0  0  0  0
    0.9463    2.6061   -0.5038 H   0  0  0  1  0  0  0  0  0  0  0  0
    2.0461    1.1473   -1.3155 C   0  0  0  1  0  0  0  0  0  0  0  0
   -0.2958   -2.2461   -1.8520 C   0  0  0  1  0  0  0  0  0  0  0  0
    3.2068    1.6208   -0.4624 C   0  0  0  1  0  0  0  0  0  0  0  0
    2.1650    0.2198   -2.0991 O   0  0  0  1  0  0  0  0  0  0  0  0
    0.4769   -0.5597   -2.8588 H   0  0  0  1  0  0  0  0  0  0  0  0
    0.3551   -2.8156   -2.4819 H   0  0  0  1  0  0  0  0  0  0  0  0
   -1.3094   -2.5404   -2.0280 H   0  0  0  1  0  0  0  0  0  0  0  0
   -0.0452   -2.4237   -0.8270 H   0  0  0  1  0  0  0  0  0  0  0  0
    4.0651    1.0124   -0.6576 H   0  0  0  1  0  0  0  0  0  0  0  0
    2.9435    1.5442    0.5719 H   0  0  0  1  0  0  0  0  0  0  0  0
    3.4309    2.6398   -0.6994 H   0  0  0  1  0  0  0  0  0  0  0  0
   -0.7722    3.3573   -3.6814 F   0  0  0  1  0  0  0  0  0  0  0  0
   -2.0022    3.8118   -3.9156 C   0  0  0  1  0  0  0  0  0  0  0  0
   -1.9723    5.1163   -3.6559 F   0  0  0  1  0  0  0  0  0  0  0  0
   -2.1989    3.6968   -5.2296 F   0  0  0  1  0  0  0  0  0  0  0  0
   -3.0543    3.0828   -3.1053 C   0  0  0  1  0  0  0  0  0  0  0  0
   -2.7649    2.4618   -1.9002 C   0  0  0  1  0  0  0  0  0  0  0  0
   -3.7624    1.8056   -1.2040 C   0  0  0  1  0  0  0  0  0  0  0  0
   -5.0533    1.7730   -1.7081 C   0  0  0  1  0  0  0  0  0  0  0  0
   -5.3417    2.3922   -2.9096 C   0  0  0  1  0  0  0  0  0  0  0  0
   -4.3414    3.0503   -3.6080 C   0  0  0  1  0  0  0  0  0  0  0  0
   -1.3975    2.5626   -1.2666 C   0  0  0  1  0  0  0  0  0  0  0  0
   -3.5445    1.3363   -0.3019 H   0  0  0  1  0  0  0  0  0  0  0  0
   -5.8047    1.2827   -1.1822 H   0  0  0  1  0  0  0  0  0  0  0  0
   -6.3093    2.3643   -3.2898 H   0  0  0  1  0  0  0  0  0  0  0  0
   -4.5593    3.5196   -4.5101 H   0  0  0  1  0  0  0  0  0  0  0  0
   -1.0097    3.5385   -1.4718 H   0  0  0  1  0  0  0  0  0  0  0  0
   -1.5134    2.4391   -0.2101 H   0  0  0  1  0  0  0  0  0  0  0  0
  1  4  1  0  0  0  0
  2  4  1  0  0  0  0
  2  5  2  0  0  0  0
  2  6  1  0  0  0  0
  3  4  1  0  0  0  0
  3  7  1  0  0  0  0
  3  8  1  0  0  0  0
  4 29  1  0  0  0  0
  6  9  1  0  0  0  0
  6 12  1  0  0  0  0
  8 10  1  0  0  0  0
  8 11  2  0  0  0  0
  9 13  1  0  0  0  0
  9 14  1  0  0  0  0
  9 15  1  0  0  0  0
 10 16  1  0  0  0  0
 10 17  1  0  0  0  0
 10 18  1  0  0  0  0
 19 20  1  0  0  0  0
 20 21  1  0  0  0  0
 20 22  1  0  0  0  0
 20 23  1  0  0  0  0
 23 24  4  0  0  0  0
 23 28  4  0  0  0  0
 24 25  4  0  0  0  0
 24 29  1  0  0  0  0
 25 26  4  0  0  0  0
 25 30  1  0  0  0  0
 26 27  4  0  0  0  0
 26 31  1  0  0  0  0
 27 28  4  0  0  0  0
 27 32  1  0  0  0  0
 28 33  1  0  0  0  0
 29 34  1  0  0  0  0
 29 35  1  0  0  0  0
M  END
> <BCLConfClusterSize>
1

> <ConfClashScore>
0 

> <ConfOneFourInteractionScore>
-0.979134 

> <ConfScore>
0.305248 

> <ConfScorePBest>
0.00680853 

> <ConfTolerance>
0.559167 

> <RosettaParamsInstructions>
M  ROOT 3
M  POLY_N_BB 3
M  POLY_CA_BB 4
M  POLY_C_BB 2
M  POLY_O_BB 5
M  POLY_IGNORE 9 10 11 12 13 14 15 16 17 18 
M  POLY_UPPER 6
M  POLY_LOWER 8
M  POLY_CHG 0
M  POLY_PROPERTIES ALPHA_AA D_AA PROTEIN AROMATIC POLYMER 
M  END

$$$$



 35 35  0  0  0  0  0  0  0  0999 V2000
   -0.6313    0.9747   -2.9988 H   0  0  0  1  0  0  0  0  0  0  0  0
   -1.2434   -0.1804   -1.3517 C   0  0  0  1  0  0  0  0  0  0  0  0
    0.8154    1.1708   -1.5312 N   0  0  0  1  0  0  0  0  0  0  0  0
   -0.5897    1.0531   -1.9325 C   0  0  0  1  0  0  0  0  0  0  0  0
   -1.2937   -0.3542   -0.1348 O   0  0  0  1  0  0  0  0  0  0  0  0
   -1.7634   -1.0735   -2.1985 N   0  0  0  1  0  0  0  0  0  0  0  0
    1.0336    1.2013   -0.5763 H   0  0  0  1  0  0  0  0  0  0  0  0
    1.8088    1.2379   -2.4221 C   0  0  0  1  0  0  0  0  0  0  0  0
   -2.4034   -2.2977   -1.7408 C   0  0  0  1  0  0  0  0  0  0  0  0
    3.1925    1.4747   -1.8492 C   0  0  0  1  0  0  0  0  0  0  0  0
    1.6329    1.1186   -3.6235 O   0  0  0  1  0  0  0  0  0  0  0  0
   -1.7120   -0.8980   -3.1613 H   0  0  0  1  0  0  0  0  0  0  0  0
   -1.6628   -2.9627   -1.3481 H   0  0  0  1  0  0  0  0  0  0  0  0
   -2.9040   -2.7667   -2.5620 H   0  0  0  1  0  0  0  0  0  0  0  0
   -3.1141   -2.0639   -0.9758 H   0  0  0  1  0  0  0  0  0  0  0  0
    3.2119    2.4154   -1.3397 H   0  0  0  1  0  0  0  0  0  0  0  0
    3.9101    1.4845   -2.6429 H   0  0  0  1  0  0  0  0  0  0  0  0
    3.4321    0.6915   -1.1607 H   0  0  0  1  0  0  0  0  0  0  0  0
   -1.3930    4.7654   -3.1527 F   0  0  0  1  0  0  0  0  0  0  0  0
   -1.9957    3.8230   -3.8799 C   0  0  0  1  0  0  0  0  0  0  0  0
   -2.4651    4.4353   -4.9681 F   0  0  0  1  0  0  0  0  0  0  0  0
   -1.0322    3.0019   -4.2995 F   0  0  0  1  0  0  0  0  0  0  0  0
   -3.0765    3.1013   -3.1103 C   0  0  0  1  0  0  0  0  0  0  0  0
   -2.7598    2.4133   -1.9493 C   0  0  0  1  0  0  0  0  0  0  0  0
   -3.7485    1.7486   -1.2486 C   0  0  0  1  0  0  0  0  0  0  0  0
   -5.0576    1.7744   -1.7037 C   0  0  0  1  0  0  0  0  0  0  0  0
   -5.3732    2.4604   -2.8613 C   0  0  0  1  0  0  0  0  0  0  0  0
   -4.3818    3.1271   -3.5643 C   0  0  0  1  0  0  0  0  0  0  0  0
   -1.3085    2.3330   -1.5384 C   0  0  0  1  0  0  0  0  0  0  0  0
   -3.5103    1.2291   -0.3797 H   0  0  0  1  0  0  0  0  0  0  0  0
   -5.8021    1.2776   -1.1742 H   0  0  0  1  0  0  0  0  0  0  0  0
   -6.3546    2.4764   -3.2050 H   0  0  0  1  0  0  0  0  0  0  0  0
   -4.6200    3.6466   -4.4331 H   0  0  0  1  0  0  0  0  0  0  0  0
   -0.7918    3.1541   -1.9898 H   0  0  0  1  0  0  0  0  0  0  0  0
   -1.2616    2.4234   -0.4733 H   0  0  0  1  0  0  0  0  0  0  0  0
  1  4  1  0  0  0  0
  2  4  1  0  0  0  0
  2  5  2  0  0  0  0
  2  6  1  0  0  0  0
  3  4  1  0  0  0  0
  3  7  1  0  0  0  0
  3  8  1  0  0  0  0
  4 29  1  0  0  0  0
  6  9  1  0  0  0  0
  6 12  1  0  0  0  0
  8 10  1  0  0  0  0
  8 11  2  0  0  0  0
  9 13  1  0  0  0  0
  9 14  1  0  0  0  0
  9 15  1  0  0  0  0
 10 16  1  0  0  0  0
 10 17  1  0  0  0  0
 10 18  1  0  0  0  0
 19 20  1  0  0  0  0
 20 21  1  0  0  0  0
 20 22  1  0  0  0  0
 20 23  1  0  0  0  0
 23 24  4  0  0  0  0
 23 28  4  0  0  0  0
 24 25  4  0  0  0  0
 24 29  1  0  0  0  0
 25 26  4  0  0  0  0
 25 30  1  0  0  0  0
 26 27  4  0  0  0  0
 26 31  1  0  0  0  0
 27 28  4  0  0  0  0
 27 32  1  0  0  0  0
 28 33  1  0  0  0  0
 29 34  1  0  0  0  0
 29 35  1  0  0  0  0
M  END
> <BCLConfClusterSize>
1

> <ConfClashScore>
0 

> <ConfOneFourInteractionScore>
-0.981931 

> <ConfScore>
0.308903 

> <ConfScorePBest>
0.00678005 

> <ConfTolerance>
0.504217 

> <RosettaParamsInstructions>
M  ROOT 3
M  POLY_N_BB 3
M  POLY_CA_BB 4
M  POLY_C_BB 2
M  POLY_O_BB 5
M  POLY_IGNORE 9 10 11 12 13 14 15 16 17 18 
M  POLY_UPPER 6
M  POLY_LOWER 8
M  POLY_CHG 0
M  POLY_PROPERTIES ALPHA_AA D_AA PROTEIN AROMATIC POLYMER 
M  END

$$$$



 35 35  0  0  0  0  0  0  0  0999 V2000
   -0.8442    4.6046   -1.7945 H   0  0  0  1  0  0  0  0  0  0  0  0
    0.3033    3.9578   -0.1167 C   0  0  0  1  0  0  0  0  0  0  0  0
   -2.0639    4.5893   -0.1085 N   0  0  0  1  0  0  0  0  0  0  0  0
   -0.9989    4.0136   -0.9160 C   0  0  0  1  0  0  0  0  0  0  0  0
    0.5977    4.8644    0.6448 O   0  0  0  1  0  0  0  0  0  0  0  0
    1.1282    2.9276   -0.3622 N   0  0  0  1  0  0  0  0  0  0  0  0
   -2.7509    5.1319   -0.5490 H   0  0  0  1  0  0  0  0  0  0  0  0
   -2.1404    4.3969    1.2625 C   0  0  0  1  0  0  0  0  0  0  0  0
    2.4125    2.7153    0.2883 C   0  0  0  1  0  0  0  0  0  0  0  0
   -3.1228    5.2078    2.0602 C   0  0  0  1  0  0  0  0  0  0  0  0
   -1.4056    3.5735    1.7768 O   0  0  0  1  0  0  0  0  0  0  0  0
    0.8440    2.2689   -1.0299 H   0  0  0  1  0  0  0  0  0  0  0  0
    3.1808    3.2107   -0.2677 H   0  0  0  1  0  0  0  0  0  0  0  0
    2.6221    1.6668    0.3296 H   0  0  0  1  0  0  0  0  0  0  0  0
    2.3789    3.1122    1.2814 H   0  0  0  1  0  0  0  0  0  0  0  0
   -4.0968    5.1159    1.6269 H   0  0  0  1  0  0  0  0  0  0  0  0
   -2.8252    6.2355    2.0535 H   0  0  0  1  0  0  0  0  0  0  0  0
   -3.1457    4.8491    3.0680 H   0  0  0  1  0  0  0  0  0  0  0  0
   -0.8062    3.2137   -3.7869 F   0  0  0  1  0  0  0  0  0  0  0  0
   -1.9940    3.8119   -3.8927 C   0  0  0  1  0  0  0  0  0  0  0  0
   -1.8173    5.0674   -3.4780 F   0  0  0  1  0  0  0  0  0  0  0  0
   -2.2611    3.8835   -5.1974 F   0  0  0  1  0  0  0  0  0  0  0  0
   -3.0746    3.0937   -3.1195 C   0  0  0  1  0  0  0  0  0  0  0  0
   -2.7820    2.5130   -1.8952 C   0  0  0  1  0  0  0  0  0  0  0  0
   -3.7701    1.8513   -1.1907 C   0  0  0  1  0  0  0  0  0  0  0  0
   -5.0546    1.7730   -1.7057 C   0  0  0  1  0  0  0  0  0  0  0  0
   -5.3461    2.3520   -2.9263 C   0  0  0  1  0  0  0  0  0  0  0  0
   -4.3554    3.0157   -3.6331 C   0  0  0  1  0  0  0  0  0  0  0  0
   -1.3840    2.6029   -1.3306 C   0  0  0  1  0  0  0  0  0  0  0  0
   -3.5497    1.4121   -0.2741 H   0  0  0  1  0  0  0  0  0  0  0  0
   -5.7990    1.2786   -1.1737 H   0  0  0  1  0  0  0  0  0  0  0  0
   -6.3089    2.2898   -3.3146 H   0  0  0  1  0  0  0  0  0  0  0  0
   -4.5757    3.4548   -4.5497 H   0  0  0  1  0  0  0  0  0  0  0  0
   -1.3216    1.9667   -0.4725 H   0  0  0  1  0  0  0  0  0  0  0  0
   -0.6935    2.2664   -2.0756 H   0  0  0  1  0  0  0  0  0  0  0  0
  1  4  1  0  0  0  0
  2  4  1  0  0  0  0
  2  5  2  0  0  0  0
  2  6  1  0  0  0  0
  3  4  1  0  0  0  0
  3  7  1  0  0  0  0
  3  8  1  0  0  0  0
  4 29  1  0  0  0  0
  6  9  1  0  0  0  0
  6 12  1  0  0  0  0
  8 10  1  0  0  0  0
  8 11  2  0  0  0  0
  9 13  1  0  0  0  0
  9 14  1  0  0  0  0
  9 15  1  0  0  0  0
 10 16  1  0  0  0  0
 10 17  1  0  0  0  0
 10 18  1  0  0  0  0
 19 20  1  0  0  0  0
 20 21  1  0  0  0  0
 20 22  1  0  0  0  0
 20 23  1  0  0  0  0
 23 24  4  0  0  0  0
 23 28  4  0  0  0  0
 24 25  4  0  0  0  0
 24 29  1  0  0  0  0
 25 26  4  0  0  0  0
 25 30  1  0  0  0  0
 26 27  4  0  0  0  0
 26 31  1  0  0  0  0
 27 28  4  0  0  0  0
 27 32  1  0  0  0  0
 28 33  1  0  0  0  0
 29 34  1  0  0  0  0
 29 35  1  0  0  0  0
M  END
> <BCLConfClusterSize>
1

> <ConfClashScore>
2.35127e-05 

> <ConfOneFourInteractionScore>
-0.920417 

> <ConfScore>
0.317392 

> <ConfScorePBest>
0.00675157 

> <ConfTolerance>
0.403854 

> <RosettaParamsInstructions>
M  ROOT 3
M  POLY_N_BB 3
M  POLY_CA_BB 4
M  POLY_C_BB 2
M  POLY_O_BB 5
M  POLY_IGNORE 9 10 11 12 13 14 15 16 17 18 
M  POLY_UPPER 6
M  POLY_LOWER 8
M  POLY_CHG 0
M  POLY_PROPERTIES ALPHA_AA D_AA PROTEIN AROMATIC POLYMER 
M  END

$$$$



 35 35  0  0  0  0  0  0  0  0999 V2000
   -1.5931    5.2098   -1.2767 H   0  0  0  1  0  0  0  0  0  0  0  0
   -0.2259    4.7369    0.2863 C   0  0  0  1  0  0  0  0  0  0  0  0
   -2.6552    4.7193    0.4533 N   0  0  0  1  0  0  0  0  0  0  0  0
   -1.5326    4.5070   -0.4721 C   0  0  0  1  0  0  0  0  0  0  0  0
    0.8225    4.9744   -0.3077 O   0  0  0  1  0  0  0  0  0  0  0  0
   -0.3098    4.6588    1.6692 N   0  0  0  1  0  0  0  0  0  0  0  0
   -2.9412    4.0125    1.0690 H   0  0  0  1  0  0  0  0  0  0  0  0
   -3.2794    5.9130    0.4308 C   0  0  0  1  0  0  0  0  0  0  0  0
    0.8538    4.6475    2.5081 C   0  0  0  1  0  0  0  0  0  0  0  0
   -4.3978    6.0906    1.4392 C   0  0  0  1  0  0  0  0  0  0  0  0
   -2.9753    6.8133   -0.3506 O   0  0  0  1  0  0  0  0  0  0  0  0
   -1.1948    4.6098    2.0873 H   0  0  0  1  0  0  0  0  0  0  0  0
    0.6353    4.1234    3.4150 H   0  0  0  1  0  0  0  0  0  0  0  0
    1.1377    5.6534    2.7374 H   0  0  0  1  0  0  0  0  0  0  0  0
    1.6564    4.1574    1.9977 H   0  0  0  1  0  0  0  0  0  0  0  0
   -5.0837    6.8316    1.0850 H   0  0  0  1  0  0  0  0  0  0  0  0
   -3.9866    6.4044    2.3759 H   0  0  0  1  0  0  0  0  0  0  0  0
   -4.9123    5.1614    1.5683 H   0  0  0  1  0  0  0  0  0  0  0  0
   -2.4286    4.1230   -5.1418 F   0  0  0  1  0  0  0  0  0  0  0  0
   -1.9978    3.7989   -3.9214 C   0  0  0  1  0  0  0  0  0  0  0  0
   -0.8996    3.0624   -4.0971 F   0  0  0  1  0  0  0  0  0  0  0  0
   -1.5976    4.9367   -3.3523 F   0  0  0  1  0  0  0  0  0  0  0  0
   -3.0533    3.0816   -3.1050 C   0  0  0  1  0  0  0  0  0  0  0  0
   -2.8497    2.7192   -1.7826 C   0  0  0  1  0  0  0  0  0  0  0  0
   -3.8452    2.0612   -1.0854 C   0  0  0  1  0  0  0  0  0  0  0  0
   -5.0492    1.7682   -1.7068 C   0  0  0  1  0  0  0  0  0  0  0  0
   -5.2520    2.1296   -3.0253 C   0  0  0  1  0  0  0  0  0  0  0  0
   -4.2537    2.7896   -3.7247 C   0  0  0  1  0  0  0  0  0  0  0  0
   -1.5995    3.1096   -1.0419 C   0  0  0  1  0  0  0  0  0  0  0  0
   -3.6911    1.7857   -0.0945 H   0  0  0  1  0  0  0  0  0  0  0  0
   -5.7998    1.2766   -1.1810 H   0  0  0  1  0  0  0  0  0  0  0  0
   -6.1538    1.9062   -3.4928 H   0  0  0  1  0  0  0  0  0  0  0  0
   -4.4079    3.0650   -4.7157 H   0  0  0  1  0  0  0  0  0  0  0  0
   -1.4833    2.4257   -0.2272 H   0  0  0  1  0  0  0  0  0  0  0  0
   -0.7787    3.0005   -1.7196 H   0  0  0  1  0  0  0  0  0  0  0  0
  1  4  1  0  0  0  0
  2  4  1  0  0  0  0
  2  5  2  0  0  0  0
  2  6  1  0  0  0  0
  3  4  1  0  0  0  0
  3  7  1  0  0  0  0
  3  8  1  0  0  0  0
  4 29  1  0  0  0  0
  6  9  1  0  0  0  0
  6 12  1  0  0  0  0
  8 10  1  0  0  0  0
  8 11  2  0  0  0  0
  9 13  1  0  0  0  0
  9 14  1  0  0  0  0
  9 15  1  0  0  0  0
 10 16  1  0  0  0  0
 10 17  1  0  0  0  0
 10 18  1  0  0  0  0
 19 20  1  0  0  0  0
 20 21  1  0  0  0  0
 20 22  1  0  0  0  0
 20 23  1  0  0  0  0
 23 24  4  0  0  0  0
 23 28  4  0  0  0  0
 24 25  4  0  0  0  0
 24 29  1  0  0  0  0
 25 26  4  0  0  0  0
 25 30  1  0  0  0  0
 26 27  4  0  0  0  0
 26 31  1  0  0  0  0
 27 28  4  0  0  0  0
 27 32  1  0  0  0  0
 28 33  1  0  0  0  0
 29 34  1  0  0  0  0
 29 35  1  0  0  0  0
M  END
> <BCLConfClusterSize>
1

> <ConfClashScore>
0 

> <ConfOneFourInteractionScore>
-0.94165 

> <ConfScore>
0.319171 

> <ConfScorePBest>
0.00672309 

> <ConfTolerance>
0.451394 

> <RosettaParamsInstructions>
M  ROOT 3
M  POLY_N_BB 3
M  POLY_CA_BB 4
M  POLY_C_BB 2
M  POLY_O_BB 5
M  POLY_IGNORE 9 10 11 12 13 14 15 16 17 18 
M  POLY_UPPER 6
M  POLY_LOWER 8
M  POLY_CHG 0
M  POLY_PROPERTIES ALPHA_AA D_AA PROTEIN AROMATIC POLYMER 
M  END

$$$$



 35 35  0  0  0  0  0  0  0  0999 V2000
   -0.4861    1.4376   -1.9078 H   0  0  0  1  0  0  0  0  0  0  0  0
   -1.2500    0.7939   -0.0269 C   0  0  0  1  0  0  0  0  0  0  0  0
    0.6418    2.2883   -0.3698 N   0  0  0  1  0  0  0  0  0  0  0  0
   -0.6451    1.8613   -0.9382 C   0  0  0  1  0  0  0  0  0  0  0  0
   -1.8403   -0.1901   -0.4309 O   0  0  0  1  0  0  0  0  0  0  0  0
   -1.0986    0.9924    1.2856 N   0  0  0  1  0  0  0  0  0  0  0  0
    0.7822    3.2392   -0.1788 H   0  0  0  1  0  0  0  0  0  0  0  0
    1.6637    1.3925   -0.0946 C   0  0  0  1  0  0  0  0  0  0  0  0
   -1.7331    0.1391    2.2791 C   0  0  0  1  0  0  0  0  0  0  0  0
    2.9772    1.9165    0.4141 C   0  0  0  1  0  0  0  0  0  0  0  0
    1.4616    0.2054   -0.2751 O   0  0  0  1  0  0  0  0  0  0  0  0
   -0.5409    1.7386    1.5898 H   0  0  0  1  0  0  0  0  0  0  0  0
   -2.0996    0.7405    3.0847 H   0  0  0  1  0  0  0  0  0  0  0  0
   -1.0182   -0.5627    2.6549 H   0  0  0  1  0  0  0  0  0  0  0  0
   -2.5479   -0.3878    1.8283 H   0  0  0  1  0  0  0  0  0  0  0  0
    3.0081    2.9794    0.2945 H   0  0  0  1  0  0  0  0  0  0  0  0
    3.7771    1.4721   -0.1405 H   0  0  0  1  0  0  0  0  0  0  0  0
    3.0816    1.6712    1.4503 H   0  0  0  1  0  0  0  0  0  0  0  0
   -2.3473    4.0495   -5.1661 F   0  0  0  1  0  0  0  0  0  0  0  0
   -1.9906    3.8015   -3.9046 C   0  0  0  1  0  0  0  0  0  0  0  0
   -0.8586    3.0988   -3.9687 F   0  0  0  1  0  0  0  0  0  0  0  0
   -1.6692    4.9798   -3.3690 F   0  0  0  1  0  0  0  0  0  0  0  0
   -3.0714    3.0880   -3.1273 C   0  0  0  1  0  0  0  0  0  0  0  0
   -2.8618    2.7484   -1.7997 C   0  0  0  1  0  0  0  0  0  0  0  0
   -3.8492    2.0908   -1.0906 C   0  0  0  1  0  0  0  0  0  0  0  0
   -5.0510    1.7755   -1.7052 C   0  0  0  1  0  0  0  0  0  0  0  0
   -5.2598    2.1141   -3.0288 C   0  0  0  1  0  0  0  0  0  0  0  0
   -4.2696    2.7737   -3.7402 C   0  0  0  1  0  0  0  0  0  0  0  0
   -1.5761    3.0706   -1.0755 C   0  0  0  1  0  0  0  0  0  0  0  0
   -3.6905    1.8325   -0.0958 H   0  0  0  1  0  0  0  0  0  0  0  0
   -5.7955    1.2843   -1.1704 H   0  0  0  1  0  0  0  0  0  0  0  0
   -6.1599    1.8740   -3.4912 H   0  0  0  1  0  0  0  0  0  0  0  0
   -4.4284    3.0320   -4.7351 H   0  0  0  1  0  0  0  0  0  0  0  0
   -1.0621    3.8362   -1.6182 H   0  0  0  1  0  0  0  0  0  0  0  0
   -1.8172    3.4277   -0.0960 H   0  0  0  1  0  0  0  0  0  0  0  0
  1  4  1  0  0  0  0
  2  4  1  0  0  0  0
  2  5  2  0  0  0  0
  2  6  1  0  0  0  0
  3  4  1  0  0  0  0
  3  7  1  0  0  0  0
  3  8  1  0  0  0  0
  4 29  1  0  0  0  0
  6  9  1  0  0  0  0
  6 12  1  0  0  0  0
  8 10  1  0  0  0  0
  8 11  2  0  0  0  0
  9 13  1  0  0  0  0
  9 14  1  0  0  0  0
  9 15  1  0  0  0  0
 10 16  1  0  0  0  0
 10 17  1  0  0  0  0
 10 18  1  0  0  0  0
 19 20  1  0  0  0  0
 20 21  1  0  0  0  0
 20 22  1  0  0  0  0
 20 23  1  0  0  0  0
 23 24  4  0  0  0  0
 23 28  4  0  0  0  0
 24 25  4  0  0  0  0
 24 29  1  0  0  0  0
 25 26  4  0  0  0  0
 25 30  1  0  0  0  0
 26 27  4  0  0  0  0
 26 31  1  0  0  0  0
 27 28  4  0  0  0  0
 27 32  1  0  0  0  0
 28 33  1  0  0  0  0
 29 34  1  0  0  0  0
 29 35  1  0  0  0  0
M  END
> <BCLConfClusterSize>
1

> <ConfClashScore>
0 

> <ConfOneFourInteractionScore>
-0.960318 

> <ConfScore>
0.32031 

> <ConfScorePBest>
0.0066946 

> <ConfTolerance>
0.501928 

> <RosettaParamsInstructions>
M  ROOT 3
M  POLY_N_BB 3
M  POLY_CA_BB 4
M  POLY_C_BB 2
M  POLY_O_BB 5
M  POLY_IGNORE 9 10 11 12 13 14 15 16 17 18 
M  POLY_UPPER 6
M  POLY_LOWER 8
M  POLY_CHG 0
M  POLY_PROPERTIES ALPHA_AA D_AA PROTEIN AROMATIC POLYMER 
M  END

$$$$



 35 35  0  0  0  0  0  0  0  0999 V2000
   -2.1086    3.5481    0.6724 H   0  0  0  1  0  0  0  0  0  0  0  0
   -2.1998    5.1870   -0.6246 C   0  0  0  1  0  0  0  0  0  0  0  0
   -0.1761    4.2050    0.3761 N   0  0  0  1  0  0  0  0  0  0  0  0
   -1.5254    3.9161   -0.1458 C   0  0  0  1  0  0  0  0  0  0  0  0
   -3.4132    5.3502   -0.5042 O   0  0  0  1  0  0  0  0  0  0  0  0
   -1.3905    6.1033   -1.1791 N   0  0  0  1  0  0  0  0  0  0  0  0
    0.5844    3.6930    0.0300 H   0  0  0  1  0  0  0  0  0  0  0  0
    0.0450    5.1405    1.3040 C   0  0  0  1  0  0  0  0  0  0  0  0
   -1.8714    7.4089   -1.6056 C   0  0  0  1  0  0  0  0  0  0  0  0
    1.5009    5.4332    1.6104 C   0  0  0  1  0  0  0  0  0  0  0  0
   -0.8618    5.7368    1.8835 O   0  0  0  1  0  0  0  0  0  0  0  0
   -0.4428    5.8854   -1.3010 H   0  0  0  1  0  0  0  0  0  0  0  0
   -2.9042    7.3382   -1.8763 H   0  0  0  1  0  0  0  0  0  0  0  0
   -1.3035    7.7396   -2.4500 H   0  0  0  1  0  0  0  0  0  0  0  0
   -1.7602    8.1090   -0.8041 H   0  0  0  1  0  0  0  0  0  0  0  0
    2.1239    4.7549    1.0657 H   0  0  0  1  0  0  0  0  0  0  0  0
    1.6754    5.3135    2.6593 H   0  0  0  1  0  0  0  0  0  0  0  0
    1.7307    6.4378    1.3224 H   0  0  0  1  0  0  0  0  0  0  0  0
   -1.0816    2.9725   -4.4001 F   0  0  0  1  0  0  0  0  0  0  0  0
   -1.9936    3.8091   -3.9018 C   0  0  0  1  0  0  0  0  0  0  0  0
   -1.3242    4.6879   -3.1541 F   0  0  0  1  0  0  0  0  0  0  0  0
   -2.4786    4.4935   -4.9386 F   0  0  0  1  0  0  0  0  0  0  0  0
   -3.0731    3.0925   -3.1255 C   0  0  0  1  0  0  0  0  0  0  0  0
   -2.8121    2.6207   -1.8484 C   0  0  0  1  0  0  0  0  0  0  0  0
   -3.7988    1.9604   -1.1408 C   0  0  0  1  0  0  0  0  0  0  0  0
   -5.0508    1.7747   -1.7058 C   0  0  0  1  0  0  0  0  0  0  0  0
   -5.3109    2.2451   -2.9791 C   0  0  0  1  0  0  0  0  0  0  0  0
   -4.3215    2.9074   -3.6890 C   0  0  0  1  0  0  0  0  0  0  0  0
   -1.4698    2.7984   -1.1789 C   0  0  0  1  0  0  0  0  0  0  0  0
   -3.6018    1.6029   -0.1842 H   0  0  0  1  0  0  0  0  0  0  0  0
   -5.7944    1.2813   -1.1717 H   0  0  0  1  0  0  0  0  0  0  0  0
   -6.2490    2.1022   -3.4046 H   0  0  0  1  0  0  0  0  0  0  0  0
   -4.5185    3.2649   -4.6456 H   0  0  0  1  0  0  0  0  0  0  0  0
   -1.1965    1.8850   -0.6932 H   0  0  0  1  0  0  0  0  0  0  0  0
   -0.7376    3.0418   -1.9201 H   0  0  0  1  0  0  0  0  0  0  0  0
  1  4  1  0  0  0  0
  2  4  1  0  0  0  0
  2  5  2  0  0  0  0
  2  6  1  0  0  0  0
  3  4  1  0  0  0  0
  3  7  1  0  0  0  0
  3  8  1  0  0  0  0
  4 29  1  0  0  0  0
  6  9  1  0  0  0  0
  6 12  1  0  0  0  0
  8 10  1  0  0  0  0
  8 11  2  0  0  0  0
  9 13  1  0  0  0  0
  9 14  1  0  0  0  0
  9 15  1  0  0  0  0
 10 16  1  0  0  0  0
 10 17  1  0  0  0  0
 10 18  1  0  0  0  0
 19 20  1  0  0  0  0
 20 21  1  0  0  0  0
 20 22  1  0  0  0  0
 20 23  1  0  0  0  0
 23 24  4  0  0  0  0
 23 28  4  0  0  0  0
 24 25  4  0  0  0  0
 24 29  1  0  0  0  0
 25 26  4  0  0  0  0
 25 30  1  0  0  0  0
 26 27  4  0  0  0  0
 26 31  1  0  0  0  0
 27 28  4  0  0  0  0
 27 32  1  0  0  0  0
 28 33  1  0  0  0  0
 29 34  1  0  0  0  0
 29 35  1  0  0  0  0
M  END
> <BCLConfClusterSize>
1

> <ConfClashScore>
0 

> <ConfOneFourInteractionScore>
-0.960318 

> <ConfScore>
0.322233 

> <ConfScorePBest>
0.00666612 

> <ConfTolerance>
0.377308 

> <RosettaParamsInstructions>
M  ROOT 3
M  POLY_N_BB 3
M  POLY_CA_BB 4
M  POLY_C_BB 2
M  POLY_O_BB 5
M  POLY_IGNORE 9 10 11 12 13 14 15 16 17 18 
M  POLY_UPPER 6
M  POLY_LOWER 8
M  POLY_CHG 0
M  POLY_PROPERTIES ALPHA_AA D_AA PROTEIN AROMATIC POLYMER 
M  END

$$$$



 35 35  0  0  0  0  0  0  0  0999 V2000
   -1.7879    1.8726    0.5333 H   0  0  0  1  0  0  0  0  0  0  0  0
    0.2798    1.5414    0.2978 C   0  0  0  1  0  0  0  0  0  0  0  0
   -1.5615    0.1383   -0.5744 N   0  0  0  1  0  0  0  0  0  0  0  0
   -1.1411    1.5007   -0.2337 C   0  0  0  1  0  0  0  0  0  0  0  0
    0.7581    0.5776    0.8944 O   0  0  0  1  0  0  0  0  0  0  0  0
    1.0004    2.6641    0.0965 N   0  0  0  1  0  0  0  0  0  0  0  0
   -2.4436   -0.1718   -0.2810 H   0  0  0  1  0  0  0  0  0  0  0  0
   -0.7839   -0.6954   -1.2711 C   0  0  0  1  0  0  0  0  0  0  0  0
    2.3484    2.7206    0.6421 C   0  0  0  1  0  0  0  0  0  0  0  0
   -1.3415   -2.0890   -1.5620 C   0  0  0  1  0  0  0  0  0  0  0  0
    0.3634   -0.4056   -1.6001 O   0  0  0  1  0  0  0  0  0  0  0  0
    0.6268    3.4199   -0.4030 H   0  0  0  1  0  0  0  0  0  0  0  0
    2.4208    3.5360    1.3312 H   0  0  0  1  0  0  0  0  0  0  0  0
    3.0493    2.8631   -0.1536 H   0  0  0  1  0  0  0  0  0  0  0  0
    2.5660    1.8044    1.1501 H   0  0  0  1  0  0  0  0  0  0  0  0
   -0.5854   -2.6862   -2.0273 H   0  0  0  1  0  0  0  0  0  0  0  0
   -2.1836   -2.0063   -2.2169 H   0  0  0  1  0  0  0  0  0  0  0  0
   -1.6456   -2.5496   -0.6454 H   0  0  0  1  0  0  0  0  0  0  0  0
   -1.4719    4.8366   -3.2064 F   0  0  0  1  0  0  0  0  0  0  0  0
   -1.9954    3.8173   -3.8896 C   0  0  0  1  0  0  0  0  0  0  0  0
   -2.4426    4.3286   -5.0376 F   0  0  0  1  0  0  0  0  0  0  0  0
   -0.9759    3.0186   -4.2083 F   0  0  0  1  0  0  0  0  0  0  0  0
   -3.0753    3.0969   -3.1174 C   0  0  0  1  0  0  0  0  0  0  0  0
   -2.7564    2.4080   -1.9575 C   0  0  0  1  0  0  0  0  0  0  0  0
   -3.7442    1.7446   -1.2543 C   0  0  0  1  0  0  0  0  0  0  0  0
   -5.0545    1.7726   -1.7058 C   0  0  0  1  0  0  0  0  0  0  0  0
   -5.3722    2.4596   -2.8622 C   0  0  0  1  0  0  0  0  0  0  0  0
   -4.3817    3.1250   -3.5677 C   0  0  0  1  0  0  0  0  0  0  0  0
   -1.3299    2.3818   -1.4617 C   0  0  0  1  0  0  0  0  0  0  0  0
   -3.5044    1.2243   -0.3863 H   0  0  0  1  0  0  0  0  0  0  0  0
   -5.7984    1.2768   -1.1744 H   0  0  0  1  0  0  0  0  0  0  0  0
   -6.3545    2.4773   -3.2032 H   0  0  0  1  0  0  0  0  0  0  0  0
   -4.6215    3.6452   -4.4357 H   0  0  0  1  0  0  0  0  0  0  0  0
   -0.7034    2.0114   -2.2461 H   0  0  0  1  0  0  0  0  0  0  0  0
   -1.0376    3.3805   -1.2125 H   0  0  0  1  0  0  0  0  0  0  0  0
  1  4  1  0  0  0  0
  2  4  1  0  0  0  0
  2  5  2  0  0  0  0
  2  6  1  0  0  0  0
  3  4  1  0  0  0  0
  3  7  1  0  0  0  0
  3  8  1  0  0  0  0
  4 29  1  0  0  0  0
  6  9  1  0  0  0  0
  6 12  1  0  0  0  0
  8 10  1  0  0  0  0
  8 11  2  0  0  0  0
  9 13  1  0  0  0  0
  9 14  1  0  0  0  0
  9 15  1  0  0  0  0
 10 16  1  0  0  0  0
 10 17  1  0  0  0  0
 10 18  1  0  0  0  0
 19 20  1  0  0  0  0
 20 21  1  0  0  0  0
 20 22  1  0  0  0  0
 20 23  1  0  0  0  0
 23 24  4  0  0  0  0
 23 28  4  0  0  0  0
 24 25  4  0  0  0  0
 24 29  1  0  0  0  0
 25 26  4  0  0  0  0
 25 30  1  0  0  0  0
 26 27  4  0  0  0  0
 26 31  1  0  0  0  0
 27 28  4  0  0  0  0
 27 32  1  0  0  0  0
 28 33  1  0  0  0  0
 29 34  1  0  0  0  0
 29 35  1  0  0  0  0
M  END
> <BCLConfClusterSize>
1

> <ConfClashScore>
0 

> <ConfOneFourInteractionScore>
-0.922618 

> <ConfScore>
0.326646 

> <ConfScorePBest>
0.00663764 

> <ConfTolerance>
0.583728 

> <RosettaParamsInstructions>
M  ROOT 3
M  POLY_N_BB 3
M  POLY_CA_BB 4
M  POLY_C_BB 2
M  POLY_O_BB 5
M  POLY_IGNORE 9 10 11 12 13 14 15 16 17 18 
M  POLY_UPPER 6
M  POLY_LOWER 8
M  POLY_CHG 0
M  POLY_PROPERTIES ALPHA_AA D_AA PROTEIN AROMATIC POLYMER 
M  END

$$$$



 35 35  0  0  0  0  0  0  0  0999 V2000
   -1.5287    5.0639   -1.8625 H   0  0  0  1  0  0  0  0  0  0  0  0
    0.1303    4.8584   -0.6055 C   0  0  0  1  0  0  0  0  0  0  0  0
   -2.2359    5.1562    0.0991 N   0  0  0  1  0  0  0  0  0  0  0  0
   -1.3110    4.5870   -0.9298 C   0  0  0  1  0  0  0  0  0  0  0  0
    0.4485    5.7126    0.2177 O   0  0  0  1  0  0  0  0  0  0  0  0
    1.0279    4.1127   -1.2691 N   0  0  0  1  0  0  0  0  0  0  0  0
   -3.1231    5.4777   -0.1653 H   0  0  0  1  0  0  0  0  0  0  0  0
   -1.8530    5.2276    1.3838 C   0  0  0  1  0  0  0  0  0  0  0  0
    2.4012    4.2180   -0.9631 C   0  0  0  1  0  0  0  0  0  0  0  0
   -2.8422    5.9406    2.3075 C   0  0  0  1  0  0  0  0  0  0  0  0
   -0.8389    4.7047    1.8382 O   0  0  0  1  0  0  0  0  0  0  0  0
    0.7286    3.4939   -1.9676 H   0  0  0  1  0  0  0  0  0  0  0  0
    2.6756    5.2505   -0.9032 H   0  0  0  1  0  0  0  0  0  0  0  0
    2.9748    3.7406   -1.7299 H   0  0  0  1  0  0  0  0  0  0  0  0
    2.5946    3.7427   -0.0242 H   0  0  0  1  0  0  0  0  0  0  0  0
   -2.6738    5.6315    3.3180 H   0  0  0  1  0  0  0  0  0  0  0  0
   -3.8421    5.6905    2.0202 H   0  0  0  1  0  0  0  0  0  0  0  0
   -2.7026    6.9987    2.2305 H   0  0  0  1  0  0  0  0  0  0  0  0
   -1.9921    3.4743   -5.1748 F   0  0  0  1  0  0  0  0  0  0  0  0
   -1.9864    3.8108   -3.8838 C   0  0  0  1  0  0  0  0  0  0  0  0
   -0.7755    3.5107   -3.4743 F   0  0  0  1  0  0  0  0  0  0  0  0
   -2.1228    5.1142   -3.8770 F   0  0  0  1  0  0  0  0  0  0  0  0
   -3.0696    3.0924   -3.1143 C   0  0  0  1  0  0  0  0  0  0  0  0
   -2.8685    2.7545   -1.7850 C   0  0  0  1  0  0  0  0  0  0  0  0
   -3.8580    2.0924   -1.0831 C   0  0  0  1  0  0  0  0  0  0  0  0
   -5.0535    1.7710   -1.7067 C   0  0  0  1  0  0  0  0  0  0  0  0
   -5.2539    2.1078   -3.0320 C   0  0  0  1  0  0  0  0  0  0  0  0
   -4.2616    2.7719   -3.7362 C   0  0  0  1  0  0  0  0  0  0  0  0
   -1.5683    3.1096   -1.1032 C   0  0  0  1  0  0  0  0  0  0  0  0
   -3.7056    1.8354   -0.0870 H   0  0  0  1  0  0  0  0  0  0  0  0
   -5.7997    1.2763   -1.1773 H   0  0  0  1  0  0  0  0  0  0  0  0
   -6.1493    1.8631   -3.5011 H   0  0  0  1  0  0  0  0  0  0  0  0
   -4.4140    3.0289   -4.7324 H   0  0  0  1  0  0  0  0  0  0  0  0
   -1.5707    2.6589   -0.1328 H   0  0  0  1  0  0  0  0  0  0  0  0
   -0.7683    2.7013   -1.6847 H   0  0  0  1  0  0  0  0  0  0  0  0
  1  4  1  0  0  0  0
  2  4  1  0  0  0  0
  2  5  2  0  0  0  0
  2  6  1  0  0  0  0
  3  4  1  0  0  0  0
  3  7  1  0  0  0  0
  3  8  1  0  0  0  0
  4 29  1  0  0  0  0
  6  9  1  0  0  0  0
  6 12  1  0  0  0  0
  8 10  1  0  0  0  0
  8 11  2  0  0  0  0
  9 13  1  0  0  0  0
  9 14  1  0  0  0  0
  9 15  1  0  0  0  0
 10 16  1  0  0  0  0
 10 17  1  0  0  0  0
 10 18  1  0  0  0  0
 19 20  1  0  0  0  0
 20 21  1  0  0  0  0
 20 22  1  0  0  0  0
 20 23  1  0  0  0  0
 23 24  4  0  0  0  0
 23 28  4  0  0  0  0
 24 25  4  0  0  0  0
 24 29  1  0  0  0  0
 25 26  4  0  0  0  0
 25 30  1  0  0  0  0
 26 27  4  0  0  0  0
 26 31  1  0  0  0  0
 27 28  4  0  0  0  0
 27 32  1  0  0  0  0
 28 33  1  0  0  0  0
 29 34  1  0  0  0  0
 29 35  1  0  0  0  0
M  END
> <BCLConfClusterSize>
1

> <ConfClashScore>
0 

> <ConfOneFourInteractionScore>
-0.933935 

> <ConfScore>
0.328162 

> <ConfScorePBest>
0.00660916 

> <ConfTolerance>
0.564224 

> <RosettaParamsInstructions>
M  ROOT 3
M  POLY_N_BB 3
M  POLY_CA_BB 4
M  POLY_C_BB 2
M  POLY_O_BB 5
M  POLY_IGNORE 9 10 11 12 13 14 15 16 17 18 
M  POLY_UPPER 6
M  POLY_LOWER 8
M  POLY_CHG 0
M  POLY_PROPERTIES ALPHA_AA D_AA PROTEIN AROMATIC POLYMER 
M  END

$$$$



 35 35  0  0  0  0  0  0  0  0999 V2000
   -0.4294    1.3900   -3.1399 H   0  0  0  1  0  0  0  0  0  0  0  0
   -1.3866   -0.1193   -2.0053 C   0  0  0  1  0  0  0  0  0  0  0  0
    0.7228    0.9827   -1.4736 N   0  0  0  1  0  0  0  0  0  0  0  0
   -0.5759    1.1701   -2.1030 C   0  0  0  1  0  0  0  0  0  0  0  0
   -1.1656   -0.8675   -1.0550 O   0  0  0  1  0  0  0  0  0  0  0  0
   -2.2927   -0.3683   -2.9550 N   0  0  0  1  0  0  0  0  0  0  0  0
    1.0514    1.6674   -0.8543 H   0  0  0  1  0  0  0  0  0  0  0  0
    1.4890   -0.0995   -1.7126 C   0  0  0  1  0  0  0  0  0  0  0  0
   -3.0944   -1.5828   -2.9652 C   0  0  0  1  0  0  0  0  0  0  0  0
    2.8070   -0.0906   -0.9630 C   0  0  0  1  0  0  0  0  0  0  0  0
    1.1794   -1.0250   -2.4618 O   0  0  0  1  0  0  0  0  0  0  0  0
   -2.4220    0.2898   -3.6695 H   0  0  0  1  0  0  0  0  0  0  0  0
   -2.5378   -2.3743   -3.4219 H   0  0  0  1  0  0  0  0  0  0  0  0
   -3.9928   -1.4121   -3.5209 H   0  0  0  1  0  0  0  0  0  0  0  0
   -3.3421   -1.8549   -1.9605 H   0  0  0  1  0  0  0  0  0  0  0  0
    2.8930   -0.9844   -0.3811 H   0  0  0  1  0  0  0  0  0  0  0  0
    2.8433    0.7609   -0.3160 H   0  0  0  1  0  0  0  0  0  0  0  0
    3.6148   -0.0419   -1.6630 H   0  0  0  1  0  0  0  0  0  0  0  0
   -1.2313    4.5939   -3.1216 F   0  0  0  1  0  0  0  0  0  0  0  0
   -1.9890    3.8075   -3.8880 C   0  0  0  1  0  0  0  0  0  0  0  0
   -2.4927    4.6258   -4.8132 F   0  0  0  1  0  0  0  0  0  0  0  0
   -1.1823    2.9928   -4.5361 F   0  0  0  1  0  0  0  0  0  0  0  0
   -3.0716    3.0913   -3.1157 C   0  0  0  1  0  0  0  0  0  0  0  0
   -2.7529    2.3887   -1.9640 C   0  0  0  1  0  0  0  0  0  0  0  0
   -3.7432    1.7292   -1.2607 C   0  0  0  1  0  0  0  0  0  0  0  0
   -5.0558    1.7747   -1.7039 C   0  0  0  1  0  0  0  0  0  0  0  0
   -5.3734    2.4753   -2.8522 C   0  0  0  1  0  0  0  0  0  0  0  0
   -4.3803    3.1368   -3.5577 C   0  0  0  1  0  0  0  0  0  0  0  0
   -1.3237    2.3435   -1.4771 C   0  0  0  1  0  0  0  0  0  0  0  0
   -3.5036    1.1988   -0.3989 H   0  0  0  1  0  0  0  0  0  0  0  0
   -5.8016    1.2818   -1.1725 H   0  0  0  1  0  0  0  0  0  0  0  0
   -6.3575    2.5061   -3.1870 H   0  0  0  1  0  0  0  0  0  0  0  0
   -4.6200    3.6672   -4.4196 H   0  0  0  1  0  0  0  0  0  0  0  0
   -0.8328    3.2556   -1.7453 H   0  0  0  1  0  0  0  0  0  0  0  0
   -1.3190    2.2349   -0.4127 H   0  0  0  1  0  0  0  0  0  0  0  0
  1  4  1  0  0  0  0
  2  4  1  0  0  0  0
  2  5  2  0  0  0  0
  2  6  1  0  0  0  0
  3  4  1  0  0  0  0
  3  7  1  0  0  0  0
  3  8  1  0  0  0  0
  4 29  1  0  0  0  0
  6  9  1  0  0  0  0
  6 12  1  0  0  0  0
  8 10  1  0  0  0  0
  8 11  2  0  0  0  0
  9 13  1  0  0  0  0
  9 14  1  0  0  0  0
  9 15  1  0  0  0  0
 10 16  1  0  0  0  0
 10 17  1  0  0  0  0
 10 18  1  0  0  0  0
 19 20  1  0  0  0  0
 20 21  1  0  0  0  0
 20 22  1  0  0  0  0
 20 23  1  0  0  0  0
 23 24  4  0  0  0  0
 23 28  4  0  0  0  0
 24 25  4  0  0  0  0
 24 29  1  0  0  0  0
 25 26  4  0  0  0  0
 25 30  1  0  0  0  0
 26 27  4  0  0  0  0
 26 31  1  0  0  0  0
 27 28  4  0  0  0  0
 27 32  1  0  0  0  0
 28 33  1  0  0  0  0
 29 34  1  0  0  0  0
 29 35  1  0  0  0  0
M  END
> <BCLConfClusterSize>
1

> <ConfClashScore>
0 

> <ConfOneFourInteractionScore>
-0.985807 

> <ConfScore>
0.332603 

> <ConfScorePBest>
0.00658068 

> <ConfTolerance>
0.492243 

> <RosettaParamsInstructions>
M  ROOT 3
M  POLY_N_BB 3
M  POLY_CA_BB 4
M  POLY_C_BB 2
M  POLY_O_BB 5
M  POLY_IGNORE 9 10 11 12 13 14 15 16 17 18 
M  POLY_UPPER 6
M  POLY_LOWER 8
M  POLY_CHG 0
M  POLY_PROPERTIES ALPHA_AA D_AA PROTEIN AROMATIC POLYMER 
M  END

$$$$



 35 35  0  0  0  0  0  0  0  0999 V2000
    0.3664    1.7998   -0.7156 H   0  0  0  1  0  0  0  0  0  0  0  0
   -0.0662    1.1854   -2.6904 C   0  0  0  1  0  0  0  0  0  0  0  0
   -1.2135    0.4749   -0.5946 N   0  0  0  1  0  0  0  0  0  0  0  0
   -0.5073    1.5474   -1.2794 C   0  0  0  1  0  0  0  0  0  0  0  0
   -0.7453    0.4463   -3.4018 O   0  0  0  1  0  0  0  0  0  0  0  0
    1.0965    1.7219   -3.0936 N   0  0  0  1  0  0  0  0  0  0  0  0
   -2.1218    0.6409   -0.2662 H   0  0  0  1  0  0  0  0  0  0  0  0
   -0.6619   -0.7382   -0.3964 C   0  0  0  1  0  0  0  0  0  0  0  0
    1.7123    1.3775   -4.3702 C   0  0  0  1  0  0  0  0  0  0  0  0
   -1.5656   -1.7048    0.3441 C   0  0  0  1  0  0  0  0  0  0  0  0
    0.4629   -1.0637   -0.7669 O   0  0  0  1  0  0  0  0  0  0  0  0
    1.5471    2.3674   -2.5100 H   0  0  0  1  0  0  0  0  0  0  0  0
    0.9763    0.9484   -5.0176 H   0  0  0  1  0  0  0  0  0  0  0  0
    2.4991    0.6709   -4.2072 H   0  0  0  1  0  0  0  0  0  0  0  0
    2.1132    2.2605   -4.8222 H   0  0  0  1  0  0  0  0  0  0  0  0
   -1.4375   -1.5770    1.3987 H   0  0  0  1  0  0  0  0  0  0  0  0
   -1.3119   -2.7085    0.0734 H   0  0  0  1  0  0  0  0  0  0  0  0
   -2.5849   -1.5112    0.0827 H   0  0  0  1  0  0  0  0  0  0  0  0
   -0.9563    3.0187   -4.1768 F   0  0  0  1  0  0  0  0  0  0  0  0
   -1.9930    3.8095   -3.8943 C   0  0  0  1  0  0  0  0  0  0  0  0
   -1.4985    4.8464   -3.2334 F   0  0  0  1  0  0  0  0  0  0  0  0
   -2.4277    4.2822   -5.0568 F   0  0  0  1  0  0  0  0  0  0  0  0
   -3.0739    3.0923   -3.1206 C   0  0  0  1  0  0  0  0  0  0  0  0
   -2.8024    2.5810   -1.8610 C   0  0  0  1  0  0  0  0  0  0  0  0
   -3.7905    1.9201   -1.1559 C   0  0  0  1  0  0  0  0  0  0  0  0
   -5.0544    1.7733   -1.7058 C   0  0  0  1  0  0  0  0  0  0  0  0
   -5.3250    2.2832   -2.9616 C   0  0  0  1  0  0  0  0  0  0  0  0
   -4.3341    2.9460   -3.6690 C   0  0  0  1  0  0  0  0  0  0  0  0
   -1.4271    2.7456   -1.2587 C   0  0  0  1  0  0  0  0  0  0  0  0
   -3.5857    1.5330   -0.2126 H   0  0  0  1  0  0  0  0  0  0  0  0
   -5.7990    1.2796   -1.1735 H   0  0  0  1  0  0  0  0  0  0  0  0
   -6.2721    2.1695   -3.3759 H   0  0  0  1  0  0  0  0  0  0  0  0
   -4.5390    3.3331   -4.6123 H   0  0  0  1  0  0  0  0  0  0  0  0
   -0.9371    3.5345   -1.7902 H   0  0  0  1  0  0  0  0  0  0  0  0
   -1.5576    3.0314   -0.2359 H   0  0  0  1  0  0  0  0  0  0  0  0
  1  4  1  0  0  0  0
  2  4  1  0  0  0  0
  2  5  2  0  0  0  0
  2  6  1  0  0  0  0
  3  4  1  0  0  0  0
  3  7  1  0  0  0  0
  3  8  1  0  0  0  0
  4 29  1  0  0  0  0
  6  9  1  0  0  0  0
  6 12  1  0  0  0  0
  8 10  1  0  0  0  0
  8 11  2  0  0  0  0
  9 13  1  0  0  0  0
  9 14  1  0  0  0  0
  9 15  1  0  0  0  0
 10 16  1  0  0  0  0
 10 17  1  0  0  0  0
 10 18  1  0  0  0  0
 19 20  1  0  0  0  0
 20 21  1  0  0  0  0
 20 22  1  0  0  0  0
 20 23  1  0  0  0  0
 23 24  4  0  0  0  0
 23 28  4  0  0  0  0
 24 25  4  0  0  0  0
 24 29  1  0  0  0  0
 25 26  4  0  0  0  0
 25 30  1  0  0  0  0
 26 27  4  0  0  0  0
 26 31  1  0  0  0  0
 27 28  4  0  0  0  0
 27 32  1  0  0  0  0
 28 33  1  0  0  0  0
 29 34  1  0  0  0  0
 29 35  1  0  0  0  0
M  END
> <BCLConfClusterSize>
1

> <ConfClashScore>
0.000217213 

> <ConfOneFourInteractionScore>
-0.976093 

> <ConfScore>
0.333803 

> <ConfScorePBest>
0.0065522 

> <ConfTolerance>
0.37832 

> <RosettaParamsInstructions>
M  ROOT 3
M  POLY_N_BB 3
M  POLY_CA_BB 4
M  POLY_C_BB 2
M  POLY_O_BB 5
M  POLY_IGNORE 9 10 11 12 13 14 15 16 17 18 
M  POLY_UPPER 6
M  POLY_LOWER 8
M  POLY_CHG 0
M  POLY_PROPERTIES ALPHA_AA D_AA PROTEIN AROMATIC POLYMER 
M  END

$$$$



 35 35  0  0  0  0  0  0  0  0999 V2000
   -0.6115    4.3463    0.2204 H   0  0  0  1  0  0  0  0  0  0  0  0
   -2.5424    3.9776    0.9650 C   0  0  0  1  0  0  0  0  0  0  0  0
   -1.9313    5.4051   -0.9514 N   0  0  0  1  0  0  0  0  0  0  0  0
   -1.5892    4.2105   -0.1925 C   0  0  0  1  0  0  0  0  0  0  0  0
   -2.6691    2.8577    1.4322 O   0  0  0  1  0  0  0  0  0  0  0  0
   -3.1461    5.0609    1.4790 N   0  0  0  1  0  0  0  0  0  0  0  0
   -1.2208    5.9837   -1.2990 H   0  0  0  1  0  0  0  0  0  0  0  0
   -3.2243    5.7172   -1.1771 C   0  0  0  1  0  0  0  0  0  0  0  0
   -4.0698    4.9775    2.6004 C   0  0  0  1  0  0  0  0  0  0  0  0
   -3.4123    6.9640   -2.0193 C   0  0  0  1  0  0  0  0  0  0  0  0
   -4.1840    5.0735   -0.7548 O   0  0  0  1  0  0  0  0  0  0  0  0
   -2.9581    5.9385    1.0853 H   0  0  0  1  0  0  0  0  0  0  0  0
   -3.5905    4.4881    3.4223 H   0  0  0  1  0  0  0  0  0  0  0  0
   -4.9350    4.4195    2.3087 H   0  0  0  1  0  0  0  0  0  0  0  0
   -4.3632    5.9636    2.8946 H   0  0  0  1  0  0  0  0  0  0  0  0
   -2.4639    7.2884   -2.3937 H   0  0  0  1  0  0  0  0  0  0  0  0
   -3.8423    7.7383   -1.4189 H   0  0  0  1  0  0  0  0  0  0  0  0
   -4.0634    6.7451   -2.8397 H   0  0  0  1  0  0  0  0  0  0  0  0
   -2.5020    4.4573   -4.9674 F   0  0  0  1  0  0  0  0  0  0  0  0
   -2.0038    3.8011   -3.9180 C   0  0  0  1  0  0  0  0  0  0  0  0
   -1.0569    2.9880   -4.3886 F   0  0  0  1  0  0  0  0  0  0  0  0
   -1.3503    4.7215   -3.2050 F   0  0  0  1  0  0  0  0  0  0  0  0
   -3.0593    3.0833   -3.1021 C   0  0  0  1  0  0  0  0  0  0  0  0
   -2.8472    2.6992   -1.7872 C   0  0  0  1  0  0  0  0  0  0  0  0
   -3.8433    2.0418   -1.0902 C   0  0  0  1  0  0  0  0  0  0  0  0
   -5.0563    1.7712   -1.7042 C   0  0  0  1  0  0  0  0  0  0  0  0
   -5.2676    2.1543   -3.0152 C   0  0  0  1  0  0  0  0  0  0  0  0
   -4.2687    2.8136   -3.7145 C   0  0  0  1  0  0  0  0  0  0  0  0
   -1.5279    2.9988   -1.1155 C   0  0  0  1  0  0  0  0  0  0  0  0
   -3.6828    1.7500   -0.1050 H   0  0  0  1  0  0  0  0  0  0  0  0
   -5.8072    1.2801   -1.1784 H   0  0  0  1  0  0  0  0  0  0  0  0
   -6.1762    1.9477   -3.4772 H   0  0  0  1  0  0  0  0  0  0  0  0
   -4.4292    3.1054   -4.6997 H   0  0  0  1  0  0  0  0  0  0  0  0
   -1.2379    2.1456   -0.5387 H   0  0  0  1  0  0  0  0  0  0  0  0
   -0.7947    3.1842   -1.8725 H   0  0  0  1  0  0  0  0  0  0  0  0
  1  4  1  0  0  0  0
  2  4  1  0  0  0  0
  2  5  2  0  0  0  0
  2  6  1  0  0  0  0
  3  4  1  0  0  0  0
  3  7  1  0  0  0  0
  3  8  1  0  0  0  0
  4 29  1  0  0  0  0
  6  9  1  0  0  0  0
  6 12  1  0  0  0  0
  8 10  1  0  0  0  0
  8 11  2  0  0  0  0
  9 13  1  0  0  0  0
  9 14  1  0  0  0  0
  9 15  1  0  0  0  0
 10 16  1  0  0  0  0
 10 17  1  0  0  0  0
 10 18  1  0  0  0  0
 19 20  1  0  0  0  0
 20 21  1  0  0  0  0
 20 22  1  0  0  0  0
 20 23  1  0  0  0  0
 23 24  4  0  0  0  0
 23 28  4  0  0  0  0
 24 25  4  0  0  0  0
 24 29  1  0  0  0  0
 25 26  4  0  0  0  0
 25 30  1  0  0  0  0
 26 27  4  0  0  0  0
 26 31  1  0  0  0  0
 27 28  4  0  0  0  0
 27 32  1  0  0  0  0
 28 33  1  0  0  0  0
 29 34  1  0  0  0  0
 29 35  1  0  0  0  0
M  END
> <BCLConfClusterSize>
1

> <ConfClashScore>
0 

> <ConfOneFourInteractionScore>
-0.947651 

> <ConfScore>
0.337697 

> <ConfScorePBest>
0.00652372 

> <ConfTolerance>
0.308702 

> <RosettaParamsInstructions>
M  ROOT 3
M  POLY_N_BB 3
M  POLY_CA_BB 4
M  POLY_C_BB 2
M  POLY_O_BB 5
M  POLY_IGNORE 9 10 11 12 13 14 15 16 17 18 
M  POLY_UPPER 6
M  POLY_LOWER 8
M  POLY_CHG 0
M  POLY_PROPERTIES ALPHA_AA D_AA PROTEIN AROMATIC POLYMER 
M  END

$$$$



 35 35  0  0  0  0  0  0  0  0999 V2000
   -1.2637    0.6592   -0.7527 H   0  0  0  1  0  0  0  0  0  0  0  0
    0.5976    1.5333   -0.3199 C   0  0  0  1  0  0  0  0  0  0  0  0
   -0.3271    1.0267   -2.5469 N   0  0  0  1  0  0  0  0  0  0  0  0
   -0.6439    1.4180   -1.1827 C   0  0  0  1  0  0  0  0  0  0  0  0
    0.5227    1.5475    0.9081 O   0  0  0  1  0  0  0  0  0  0  0  0
    1.7568    1.6168   -0.9789 N   0  0  0  1  0  0  0  0  0  0  0  0
   -0.0104    1.7104   -3.1736 H   0  0  0  1  0  0  0  0  0  0  0  0
   -0.4528   -0.2324   -2.9757 C   0  0  0  1  0  0  0  0  0  0  0  0
    3.0423    1.5903   -0.2973 C   0  0  0  1  0  0  0  0  0  0  0  0
   -0.3931   -0.4250   -4.4741 C   0  0  0  1  0  0  0  0  0  0  0  0
   -0.6079   -1.1868   -2.2150 O   0  0  0  1  0  0  0  0  0  0  0  0
    1.7409    1.6988   -1.9554 H   0  0  0  1  0  0  0  0  0  0  0  0
    3.1935    2.5167    0.2162 H   0  0  0  1  0  0  0  0  0  0  0  0
    3.8234    1.4489   -1.0148 H   0  0  0  1  0  0  0  0  0  0  0  0
    3.0552    0.7857    0.4080 H   0  0  0  1  0  0  0  0  0  0  0  0
    0.5539   -0.8445   -4.7429 H   0  0  0  1  0  0  0  0  0  0  0  0
   -0.5149    0.5204   -4.9601 H   0  0  0  1  0  0  0  0  0  0  0  0
   -1.1759   -1.0873   -4.7798 H   0  0  0  1  0  0  0  0  0  0  0  0
   -0.9773    3.0311   -4.2595 F   0  0  0  1  0  0  0  0  0  0  0  0
   -2.0080    3.8094   -3.9251 C   0  0  0  1  0  0  0  0  0  0  0  0
   -1.4593    4.8208   -3.2503 F   0  0  0  1  0  0  0  0  0  0  0  0
   -2.4796    4.3379   -5.0355 F   0  0  0  1  0  0  0  0  0  0  0  0
   -3.0594    3.0862   -3.1088 C   0  0  0  1  0  0  0  0  0  0  0  0
   -2.8003    2.5823   -1.8437 C   0  0  0  1  0  0  0  0  0  0  0  0
   -3.7953    1.9257   -1.1444 C   0  0  0  1  0  0  0  0  0  0  0  0
   -5.0538    1.7757   -1.7057 C   0  0  0  1  0  0  0  0  0  0  0  0
   -5.3120    2.2780   -2.9671 C   0  0  0  1  0  0  0  0  0  0  0  0
   -4.3142    2.9366   -3.6687 C   0  0  0  1  0  0  0  0  0  0  0  0
   -1.4512    2.7204   -1.1785 C   0  0  0  1  0  0  0  0  0  0  0  0
   -3.5998    1.5442   -0.1968 H   0  0  0  1  0  0  0  0  0  0  0  0
   -5.8036    1.2851   -1.1778 H   0  0  0  1  0  0  0  0  0  0  0  0
   -6.2550    2.1619   -3.3900 H   0  0  0  1  0  0  0  0  0  0  0  0
   -4.5098    3.3181   -4.6162 H   0  0  0  1  0  0  0  0  0  0  0  0
   -0.8909    3.4700   -1.6971 H   0  0  0  1  0  0  0  0  0  0  0  0
   -1.6013    3.0247   -0.1638 H   0  0  0  1  0  0  0  0  0  0  0  0
  1  4  1  0  0  0  0
  2  4  1  0  0  0  0
  2  5  2  0  0  0  0
  2  6  1  0  0  0  0
  3  4  1  0  0  0  0
  3  7  1  0  0  0  0
  3  8  1  0  0  0  0
  4 29  1  0  0  0  0
  6  9  1  0  0  0  0
  6 12  1  0  0  0  0
  8 10  1  0  0  0  0
  8 11  2  0  0  0  0
  9 13  1  0  0  0  0
  9 14  1  0  0  0  0
  9 15  1  0  0  0  0
 10 16  1  0  0  0  0
 10 17  1  0  0  0  0
 10 18  1  0  0  0  0
 19 20  1  0  0  0  0
 20 21  1  0  0  0  0
 20 22  1  0  0  0  0
 20 23  1  0  0  0  0
 23 24  4  0  0  0  0
 23 28  4  0  0  0  0
 24 25  4  0  0  0  0
 24 29  1  0  0  0  0
 25 26  4  0  0  0  0
 25 30  1  0  0  0  0
 26 27  4  0  0  0  0
 26 31  1  0  0  0  0
 27 28  4  0  0  0  0
 27 32  1  0  0  0  0
 28 33  1  0  0  0  0
 29 34  1  0  0  0  0
 29 35  1  0  0  0  0
M  END
> <BCLConfClusterSize>
1

> <ConfClashScore>
0 

> <ConfOneFourInteractionScore>
-0.960318 

> <ConfScore>
0.339451 

> <ConfScorePBest>
0.00649524 

> <ConfTolerance>
0.408355 

> <RosettaParamsInstructions>
M  ROOT 3
M  POLY_N_BB 3
M  POLY_CA_BB 4
M  POLY_C_BB 2
M  POLY_O_BB 5
M  POLY_IGNORE 9 10 11 12 13 14 15 16 17 18 
M  POLY_UPPER 6
M  POLY_LOWER 8
M  POLY_CHG 0
M  POLY_PROPERTIES ALPHA_AA D_AA PROTEIN AROMATIC POLYMER 
M  END

$$$$



 35 35  0  0  0  0  0  0  0  0999 V2000
   -1.8876    2.4141    0.8141 H   0  0  0  1  0  0  0  0  0  0  0  0
   -2.3600    4.4035    0.4457 C   0  0  0  1  0  0  0  0  0  0  0  0
   -0.0847    3.4244    0.7544 N   0  0  0  1  0  0  0  0  0  0  0  0
   -1.4676    3.2057    0.2295 C   0  0  0  1  0  0  0  0  0  0  0  0
   -2.8049    4.6744    1.5580 O   0  0  0  1  0  0  0  0  0  0  0  0
   -2.6252    5.1334   -0.6415 N   0  0  0  1  0  0  0  0  0  0  0  0
    0.6688    3.2015    0.1689 H   0  0  0  1  0  0  0  0  0  0  0  0
    0.1903    3.9066    1.9767 C   0  0  0  1  0  0  0  0  0  0  0  0
   -3.5106    6.2878   -0.6057 C   0  0  0  1  0  0  0  0  0  0  0  0
    1.6784    3.9407    2.3008 C   0  0  0  1  0  0  0  0  0  0  0  0
   -0.6529    4.2922    2.7821 O   0  0  0  1  0  0  0  0  0  0  0  0
   -2.2091    4.8827   -1.4925 H   0  0  0  1  0  0  0  0  0  0  0  0
   -2.9525    7.1575   -0.3281 H   0  0  0  1  0  0  0  0  0  0  0  0
   -4.2874    6.1192    0.1105 H   0  0  0  1  0  0  0  0  0  0  0  0
   -3.9429    6.4355   -1.5733 H   0  0  0  1  0  0  0  0  0  0  0  0
    1.8681    3.3473    3.1708 H   0  0  0  1  0  0  0  0  0  0  0  0
    1.9799    4.9505    2.4856 H   0  0  0  1  0  0  0  0  0  0  0  0
    2.2323    3.5481    1.4739 H   0  0  0  1  0  0  0  0  0  0  0  0
   -0.8376    3.1375   -3.8856 F   0  0  0  1  0  0  0  0  0  0  0  0
   -1.9953    3.7998   -3.9168 C   0  0  0  1  0  0  0  0  0  0  0  0
   -1.7277    5.0380   -3.4987 F   0  0  0  1  0  0  0  0  0  0  0  0
   -2.3312    3.9043   -5.2032 F   0  0  0  1  0  0  0  0  0  0  0  0
   -3.0720    3.1269   -3.0881 C   0  0  0  1  0  0  0  0  0  0  0  0
   -2.7841    2.5299   -1.8706 C   0  0  0  1  0  0  0  0  0  0  0  0
   -3.7698    1.8423   -1.1881 C   0  0  0  1  0  0  0  0  0  0  0  0
   -5.0475    1.7542   -1.7183 C   0  0  0  1  0  0  0  0  0  0  0  0
   -5.3344    2.3495   -2.9322 C   0  0  0  1  0  0  0  0  0  0  0  0
   -4.3459    3.0392   -3.6169 C   0  0  0  1  0  0  0  0  0  0  0  0
   -1.4353    2.6903   -1.2100 C   0  0  0  1  0  0  0  0  0  0  0  0
   -3.5529    1.3909   -0.2766 H   0  0  0  1  0  0  0  0  0  0  0  0
   -5.7902    1.2402   -1.2028 H   0  0  0  1  0  0  0  0  0  0  0  0
   -6.2920    2.2800   -3.3319 H   0  0  0  1  0  0  0  0  0  0  0  0
   -4.5629    3.4905   -4.5284 H   0  0  0  1  0  0  0  0  0  0  0  0
   -0.9530    1.7352   -1.2079 H   0  0  0  1  0  0  0  0  0  0  0  0
   -0.8614    3.3789   -1.7943 H   0  0  0  1  0  0  0  0  0  0  0  0
  1  4  1  0  0  0  0
  2  4  1  0  0  0  0
  2  5  2  0  0  0  0
  2  6  1  0  0  0  0
  3  4  1  0  0  0  0
  3  7  1  0  0  0  0
  3  8  1  0  0  0  0
  4 29  1  0  0  0  0
  6  9  1  0  0  0  0
  6 12  1  0  0  0  0
  8 10  1  0  0  0  0
  8 11  2  0  0  0  0
  9 13  1  0  0  0  0
  9 14  1  0  0  0  0
  9 15  1  0  0  0  0
 10 16  1  0  0  0  0
 10 17  1  0  0  0  0
 10 18  1  0  0  0  0
 19 20  1  0  0  0  0
 20 21  1  0  0  0  0
 20 22  1  0  0  0  0
 20 23  1  0  0  0  0
 23 24  4  0  0  0  0
 23 28  4  0  0  0  0
 24 25  4  0  0  0  0
 24 29  1  0  0  0  0
 25 26  4  0  0  0  0
 25 30  1  0  0  0  0
 26 27  4  0  0  0  0
 26 31  1  0  0  0  0
 27 28  4  0  0  0  0
 27 32  1  0  0  0  0
 28 33  1  0  0  0  0
 29 34  1  0  0  0  0
 29 35  1  0  0  0  0
M  END
> <BCLConfClusterSize>
1

> <ConfClashScore>
0 

> <ConfOneFourInteractionScore>
-0.952541 

> <ConfScore>
0.344724 

> <ConfScorePBest>
0.00646676 

> <ConfTolerance>
0.532436 

> <RosettaParamsInstructions>
M  ROOT 3
M  POLY_N_BB 3
M  POLY_CA_BB 4
M  POLY_C_BB 2
M  POLY_O_BB 5
M  POLY_IGNORE 9 10 11 12 13 14 15 16 17 18 
M  POLY_UPPER 6
M  POLY_LOWER 8
M  POLY_CHG 0
M  POLY_PROPERTIES ALPHA_AA D_AA PROTEIN AROMATIC POLYMER 
M  END

$$$$



 35 35  0  0  0  0  0  0  0  0999 V2000
   -1.5825    5.0371   -1.2940 H   0  0  0  1  0  0  0  0  0  0  0  0
   -0.0290    4.5923    0.0502 C   0  0  0  1  0  0  0  0  0  0  0  0
   -2.4527    4.4954    0.4890 N   0  0  0  1  0  0  0  0  0  0  0  0
   -1.4126    4.3257   -0.5130 C   0  0  0  1  0  0  0  0  0  0  0  0
    0.9513    4.0093   -0.4098 O   0  0  0  1  0  0  0  0  0  0  0  0
    0.0518    5.4048    1.1077 N   0  0  0  1  0  0  0  0  0  0  0  0
   -3.3194    4.8401    0.1885 H   0  0  0  1  0  0  0  0  0  0  0  0
   -2.3156    4.2167    1.7885 C   0  0  0  1  0  0  0  0  0  0  0  0
    1.3082    5.6638    1.7949 C   0  0  0  1  0  0  0  0  0  0  0  0
   -3.5084    4.5450    2.6954 C   0  0  0  1  0  0  0  0  0  0  0  0
   -1.3279    3.6510    2.2555 O   0  0  0  1  0  0  0  0  0  0  0  0
   -0.7634    5.8415    1.4319 H   0  0  0  1  0  0  0  0  0  0  0  0
    1.4496    4.9365    2.5669 H   0  0  0  1  0  0  0  0  0  0  0  0
    1.2828    6.6422    2.2273 H   0  0  0  1  0  0  0  0  0  0  0  0
    2.1159    5.6031    1.0957 H   0  0  0  1  0  0  0  0  0  0  0  0
   -4.4031    4.1421    2.2686 H   0  0  0  1  0  0  0  0  0  0  0  0
   -3.6043    5.6067    2.7878 H   0  0  0  1  0  0  0  0  0  0  0  0
   -3.3498    4.1152    3.6624 H   0  0  0  1  0  0  0  0  0  0  0  0
   -2.5304    4.6465   -4.8068 F   0  0  0  1  0  0  0  0  0  0  0  0
   -2.0022    3.8077   -3.9139 C   0  0  0  1  0  0  0  0  0  0  0  0
   -1.2269    2.9692   -4.6032 F   0  0  0  1  0  0  0  0  0  0  0  0
   -1.1823    4.5371   -3.1559 F   0  0  0  1  0  0  0  0  0  0  0  0
   -3.0570    3.0867   -3.1001 C   0  0  0  1  0  0  0  0  0  0  0  0
   -2.8337    2.6714   -1.7965 C   0  0  0  1  0  0  0  0  0  0  0  0
   -3.8299    2.0124   -1.1010 C   0  0  0  1  0  0  0  0  0  0  0  0
   -5.0540    1.7716   -1.7050 C   0  0  0  1  0  0  0  0  0  0  0  0
   -5.2766    2.1857   -3.0047 C   0  0  0  1  0  0  0  0  0  0  0  0
   -4.2776    2.8466   -3.7024 C   0  0  0  1  0  0  0  0  0  0  0  0
   -1.5020    2.9386   -1.1357 C   0  0  0  1  0  0  0  0  0  0  0  0
   -3.6610    1.6973   -0.1244 H   0  0  0  1  0  0  0  0  0  0  0  0
   -5.8050    1.2793   -1.1803 H   0  0  0  1  0  0  0  0  0  0  0  0
   -6.1936    2.0015   -3.4593 H   0  0  0  1  0  0  0  0  0  0  0  0
   -4.4465    3.1618   -4.6790 H   0  0  0  1  0  0  0  0  0  0  0  0
   -1.3509    2.2098   -0.3669 H   0  0  0  1  0  0  0  0  0  0  0  0
   -0.7315    2.8457   -1.8723 H   0  0  0  1  0  0  0  0  0  0  0  0
  1  4  1  0  0  0  0
  2  4  1  0  0  0  0
  2  5  2  0  0  0  0
  2  6  1  0  0  0  0
  3  4  1  0  0  0  0
  3  7  1  0  0  0  0
  3  8  1  0  0  0  0
  4 29  1  0  0  0  0
  6  9  1  0  0  0  0
  6 12  1  0  0  0  0
  8 10  1  0  0  0  0
  8 11  2  0  0  0  0
  9 13  1  0  0  0  0
  9 14  1  0  0  0  0
  9 15  1  0  0  0  0
 10 16  1  0  0  0  0
 10 17  1  0  0  0  0
 10 18  1  0  0  0  0
 19 20  1  0  0  0  0
 20 21  1  0  0  0  0
 20 22  1  0  0  0  0
 20 23  1  0  0  0  0
 23 24  4  0  0  0  0
 23 28  4  0  0  0  0
 24 25  4  0  0  0  0
 24 29  1  0  0  0  0
 25 26  4  0  0  0  0
 25 30  1  0  0  0  0
 26 27  4  0  0  0  0
 26 31  1  0  0  0  0
 27 28  4  0  0  0  0
 27 32  1  0  0  0  0
 28 33  1  0  0  0  0
 29 34  1  0  0  0  0
 29 35  1  0  0  0  0
M  END
> <BCLConfClusterSize>
1

> <ConfClashScore>
0 

> <ConfOneFourInteractionScore>
-0.957364 

> <ConfScore>
0.34836 

> <ConfScorePBest>
0.00643828 

> <ConfTolerance>
0.390506 

> <RosettaParamsInstructions>
M  ROOT 3
M  POLY_N_BB 3
M  POLY_CA_BB 4
M  POLY_C_BB 2
M  POLY_O_BB 5
M  POLY_IGNORE 9 10 11 12 13 14 15 16 17 18 
M  POLY_UPPER 6
M  POLY_LOWER 8
M  POLY_CHG 0
M  POLY_PROPERTIES ALPHA_AA D_AA PROTEIN AROMATIC POLYMER 
M  END

$$$$



 35 35  0  0  0  0  0  0  0  0999 V2000
   -1.1906    0.9882   -0.6398 H   0  0  0  1  0  0  0  0  0  0  0  0
    0.4871    2.1208    0.0045 C   0  0  0  1  0  0  0  0  0  0  0  0
   -0.0472    1.5034   -2.2922 N   0  0  0  1  0  0  0  0  0  0  0  0
   -0.6270    1.8252   -0.9959 C   0  0  0  1  0  0  0  0  0  0  0  0
    0.3409    2.9583    0.8938 O   0  0  0  1  0  0  0  0  0  0  0  0
    1.6113    1.4163   -0.1538 N   0  0  0  1  0  0  0  0  0  0  0  0
   -0.4610    0.7789   -2.8063 H   0  0  0  1  0  0  0  0  0  0  0  0
    1.0113    2.1243   -2.8361 C   0  0  0  1  0  0  0  0  0  0  0  0
    2.8290    1.6373    0.6119 C   0  0  0  1  0  0  0  0  0  0  0  0
    1.4039    1.6618   -4.2258 C   0  0  0  1  0  0  0  0  0  0  0  0
    1.6343    3.0124   -2.2603 O   0  0  0  1  0  0  0  0  0  0  0  0
    1.6162    0.7056   -0.8284 H   0  0  0  1  0  0  0  0  0  0  0  0
    2.5883    2.1277    1.5320 H   0  0  0  1  0  0  0  0  0  0  0  0
    3.4995    2.2499    0.0463 H   0  0  0  1  0  0  0  0  0  0  0  0
    3.2944    0.6967    0.8205 H   0  0  0  1  0  0  0  0  0  0  0  0
    2.2516    2.2214   -4.5623 H   0  0  0  1  0  0  0  0  0  0  0  0
    0.5854    1.8163   -4.8974 H   0  0  0  1  0  0  0  0  0  0  0  0
    1.6519    0.6213   -4.1983 H   0  0  0  1  0  0  0  0  0  0  0  0
   -2.4249    4.2609   -5.0797 F   0  0  0  1  0  0  0  0  0  0  0  0
   -1.9910    3.8023   -3.9044 C   0  0  0  1  0  0  0  0  0  0  0  0
   -0.9494    3.0137   -4.1736 F   0  0  0  1  0  0  0  0  0  0  0  0
   -1.5022    4.8564   -3.2497 F   0  0  0  1  0  0  0  0  0  0  0  0
   -3.0716    3.0885   -3.1271 C   0  0  0  1  0  0  0  0  0  0  0  0
   -2.8548    2.7321   -1.8052 C   0  0  0  1  0  0  0  0  0  0  0  0
   -3.8421    2.0742   -1.0962 C   0  0  0  1  0  0  0  0  0  0  0  0
   -5.0510    1.7755   -1.7052 C   0  0  0  1  0  0  0  0  0  0  0  0
   -5.2669    2.1310   -3.0232 C   0  0  0  1  0  0  0  0  0  0  0  0
   -4.2769    2.7908   -3.7345 C   0  0  0  1  0  0  0  0  0  0  0  0
   -1.5612    3.0357   -1.0870 C   0  0  0  1  0  0  0  0  0  0  0  0
   -3.6781    1.8032   -0.1056 H   0  0  0  1  0  0  0  0  0  0  0  0
   -5.7953    1.2841   -1.1704 H   0  0  0  1  0  0  0  0  0  0  0  0
   -6.1724    1.9034   -3.4814 H   0  0  0  1  0  0  0  0  0  0  0  0
   -4.4410    3.0618   -4.7251 H   0  0  0  1  0  0  0  0  0  0  0  0
   -1.0549    3.8178   -1.6133 H   0  0  0  1  0  0  0  0  0  0  0  0
   -1.7913    3.3638   -0.0949 H   0  0  0  1  0  0  0  0  0  0  0  0
  1  4  1  0  0  0  0
  2  4  1  0  0  0  0
  2  5  2  0  0  0  0
  2  6  1  0  0  0  0
  3  4  1  0  0  0  0
  3  7  1  0  0  0  0
  3  8  1  0  0  0  0
  4 29  1  0  0  0  0
  6  9  1  0  0  0  0
  6 12  1  0  0  0  0
  8 10  1  0  0  0  0
  8 11  2  0  0  0  0
  9 13  1  0  0  0  0
  9 14  1  0  0  0  0
  9 15  1  0  0  0  0
 10 16  1  0  0  0  0
 10 17  1  0  0  0  0
 10 18  1  0  0  0  0
 19 20  1  0  0  0  0
 20 21  1  0  0  0  0
 20 22  1  0  0  0  0
 20 23  1  0  0  0  0
 23 24  4  0  0  0  0
 23 28  4  0  0  0  0
 24 25  4  0  0  0  0
 24 29  1  0  0  0  0
 25 26  4  0  0  0  0
 25 30  1  0  0  0  0
 26 27  4  0  0  0  0
 26 31  1  0  0  0  0
 27 28  4  0  0  0  0
 27 32  1  0  0  0  0
 28 33  1  0  0  0  0
 29 34  1  0  0  0  0
 29 35  1  0  0  0  0
M  END
> <BCLConfClusterSize>
1

> <ConfClashScore>
0 

> <ConfOneFourInteractionScore>
-0.953489 

> <ConfScore>
0.351067 

> <ConfScorePBest>
0.0064098 

> <ConfTolerance>
0.360583 

> <RosettaParamsInstructions>
M  ROOT 3
M  POLY_N_BB 3
M  POLY_CA_BB 4
M  POLY_C_BB 2
M  POLY_O_BB 5
M  POLY_IGNORE 9 10 11 12 13 14 15 16 17 18 
M  POLY_UPPER 6
M  POLY_LOWER 8
M  POLY_CHG 0
M  POLY_PROPERTIES ALPHA_AA D_AA PROTEIN AROMATIC POLYMER 
M  END

$$$$



 35 35  0  0  0  0  0  0  0  0999 V2000
   -0.0259    3.1085    0.0294 H   0  0  0  1  0  0  0  0  0  0  0  0
   -1.8302    2.6239    1.0105 C   0  0  0  1  0  0  0  0  0  0  0  0
   -1.3994    4.5766   -0.4419 N   0  0  0  1  0  0  0  0  0  0  0  0
   -1.0715    3.1784   -0.1868 C   0  0  0  1  0  0  0  0  0  0  0  0
   -2.9266    3.0765    1.3369 O   0  0  0  1  0  0  0  0  0  0  0  0
   -1.2263    1.6235    1.6712 N   0  0  0  1  0  0  0  0  0  0  0  0
   -1.8368    4.8133   -1.2863 H   0  0  0  1  0  0  0  0  0  0  0  0
   -1.1240    5.5457    0.4356 C   0  0  0  1  0  0  0  0  0  0  0  0
   -1.7778    1.0533    2.8913 C   0  0  0  1  0  0  0  0  0  0  0  0
   -1.5478    6.9434    0.0278 C   0  0  0  1  0  0  0  0  0  0  0  0
   -0.5633    5.3367    1.5105 O   0  0  0  1  0  0  0  0  0  0  0  0
   -0.3848    1.2647    1.3198 H   0  0  0  1  0  0  0  0  0  0  0  0
   -2.3876    1.7825    3.3825 H   0  0  0  1  0  0  0  0  0  0  0  0
   -0.9793    0.7607    3.5406 H   0  0  0  1  0  0  0  0  0  0  0  0
   -2.3720    0.1974    2.6478 H   0  0  0  1  0  0  0  0  0  0  0  0
   -2.5286    7.1438    0.4057 H   0  0  0  1  0  0  0  0  0  0  0  0
   -1.5553    7.0163   -1.0397 H   0  0  0  1  0  0  0  0  0  0  0  0
   -0.8585    7.6563    0.4297 H   0  0  0  1  0  0  0  0  0  0  0  0
   -1.4992    4.8605   -3.2220 F   0  0  0  1  0  0  0  0  0  0  0  0
   -1.9951    3.8171   -3.8892 C   0  0  0  1  0  0  0  0  0  0  0  0
   -2.4337    4.2956   -5.0591 F   0  0  0  1  0  0  0  0  0  0  0  0
   -0.9578    3.0284   -4.1735 F   0  0  0  1  0  0  0  0  0  0  0  0
   -3.0751    3.0968   -3.1171 C   0  0  0  1  0  0  0  0  0  0  0  0
   -2.7569    2.4102   -1.9557 C   0  0  0  1  0  0  0  0  0  0  0  0
   -3.7449    1.7469   -1.2526 C   0  0  0  1  0  0  0  0  0  0  0  0
   -5.0546    1.7726   -1.7058 C   0  0  0  1  0  0  0  0  0  0  0  0
   -5.3716    2.4571   -2.8638 C   0  0  0  1  0  0  0  0  0  0  0  0
   -4.3810    3.1225   -3.5692 C   0  0  0  1  0  0  0  0  0  0  0  0
   -1.3310    2.3866   -1.4580 C   0  0  0  1  0  0  0  0  0  0  0  0
   -3.5055    1.2284   -0.3834 H   0  0  0  1  0  0  0  0  0  0  0  0
   -5.7986    1.2768   -1.1745 H   0  0  0  1  0  0  0  0  0  0  0  0
   -6.3535    2.4731   -3.2061 H   0  0  0  1  0  0  0  0  0  0  0  0
   -4.6203    3.6409   -4.4384 H   0  0  0  1  0  0  0  0  0  0  0  0
   -1.0630    1.3674   -1.2726 H   0  0  0  1  0  0  0  0  0  0  0  0
   -0.7057    2.7858   -2.2290 H   0  0  0  1  0  0  0  0  0  0  0  0
  1  4  1  0  0  0  0
  2  4  1  0  0  0  0
  2  5  2  0  0  0  0
  2  6  1  0  0  0  0
  3  4  1  0  0  0  0
  3  7  1  0  0  0  0
  3  8  1  0  0  0  0
  4 29  1  0  0  0  0
  6  9  1  0  0  0  0
  6 12  1  0  0  0  0
  8 10  1  0  0  0  0
  8 11  2  0  0  0  0
  9 13  1  0  0  0  0
  9 14  1  0  0  0  0
  9 15  1  0  0  0  0
 10 16  1  0  0  0  0
 10 17  1  0  0  0  0
 10 18  1  0  0  0  0
 19 20  1  0  0  0  0
 20 21  1  0  0  0  0
 20 22  1  0  0  0  0
 20 23  1  0  0  0  0
 23 24  4  0  0  0  0
 23 28  4  0  0  0  0
 24 25  4  0  0  0  0
 24 29  1  0  0  0  0
 25 26  4  0  0  0  0
 25 30  1  0  0  0  0
 26 27  4  0  0  0  0
 26 31  1  0  0  0  0
 27 28  4  0  0  0  0
 27 32  1  0  0  0  0
 28 33  1  0  0  0  0
 29 34  1  0  0  0  0
 29 35  1  0  0  0  0
M  END
> <BCLConfClusterSize>
1

> <ConfClashScore>
0 

> <ConfOneFourInteractionScore>
-0.976093 

> <ConfScore>
0.352021 

> <ConfScorePBest>
0.00638132 

> <ConfTolerance>
0.447106 

> <RosettaParamsInstructions>
M  ROOT 3
M  POLY_N_BB 3
M  POLY_CA_BB 4
M  POLY_C_BB 2
M  POLY_O_BB 5
M  POLY_IGNORE 9 10 11 12 13 14 15 16 17 18 
M  POLY_UPPER 6
M  POLY_LOWER 8
M  POLY_CHG 0
M  POLY_PROPERTIES ALPHA_AA D_AA PROTEIN AROMATIC POLYMER 
M  END

$$$$



 35 35  0  0  0  0  0  0  0  0999 V2000
   -1.6539    2.0360    0.5708 H   0  0  0  1  0  0  0  0  0  0  0  0
   -1.6050    4.1504    0.3205 C   0  0  0  1  0  0  0  0  0  0  0  0
    0.3212    2.6607    0.3050 N   0  0  0  1  0  0  0  0  0  0  0  0
   -1.1106    2.7446   -0.0187 C   0  0  0  1  0  0  0  0  0  0  0  0
   -1.1032    5.1407   -0.2095 O   0  0  0  1  0  0  0  0  0  0  0  0
   -2.6062    4.2716    1.2167 N   0  0  0  1  0  0  0  0  0  0  0  0
    0.9542    2.4297   -0.4066 H   0  0  0  1  0  0  0  0  0  0  0  0
    0.7893    2.8884    1.5355 C   0  0  0  1  0  0  0  0  0  0  0  0
   -3.2328    5.5656    1.4418 C   0  0  0  1  0  0  0  0  0  0  0  0
    2.2962    2.8214    1.6899 C   0  0  0  1  0  0  0  0  0  0  0  0
    0.0597    3.1379    2.4942 O   0  0  0  1  0  0  0  0  0  0  0  0
   -2.9121    3.4865    1.7173 H   0  0  0  1  0  0  0  0  0  0  0  0
   -2.5119    6.3422    1.2930 H   0  0  0  1  0  0  0  0  0  0  0  0
   -3.6050    5.6119    2.4439 H   0  0  0  1  0  0  0  0  0  0  0  0
   -4.0422    5.6941    0.7538 H   0  0  0  1  0  0  0  0  0  0  0  0
    2.7595    3.4262    0.9386 H   0  0  0  1  0  0  0  0  0  0  0  0
    2.6209    1.8076    1.5815 H   0  0  0  1  0  0  0  0  0  0  0  0
    2.5717    3.1830    2.6585 H   0  0  0  1  0  0  0  0  0  0  0  0
   -1.5375    4.8955   -3.2607 F   0  0  0  1  0  0  0  0  0  0  0  0
   -1.9943    3.8081   -3.8842 C   0  0  0  1  0  0  0  0  0  0  0  0
   -2.3984    4.2434   -5.0786 F   0  0  0  1  0  0  0  0  0  0  0  0
   -0.9249    3.0630   -4.1096 F   0  0  0  1  0  0  0  0  0  0  0  0
   -3.0767    3.0903   -3.1131 C   0  0  0  1  0  0  0  0  0  0  0  0
   -2.7626    2.4098   -1.9470 C   0  0  0  1  0  0  0  0  0  0  0  0
   -3.7527    1.7487   -1.2448 C   0  0  0  1  0  0  0  0  0  0  0  0
   -5.0605    1.7707   -1.7036 C   0  0  0  1  0  0  0  0  0  0  0  0
   -5.3735    2.4492   -2.8662 C   0  0  0  1  0  0  0  0  0  0  0  0
   -4.3807    3.1122   -3.5707 C   0  0  0  1  0  0  0  0  0  0  0  0
   -1.3234    2.4227   -1.4888 C   0  0  0  1  0  0  0  0  0  0  0  0
   -3.5164    1.2348   -0.3720 H   0  0  0  1  0  0  0  0  0  0  0  0
   -5.8061    1.2766   -1.1729 H   0  0  0  1  0  0  0  0  0  0  0  0
   -6.3540    2.4623   -3.2126 H   0  0  0  1  0  0  0  0  0  0  0  0
   -4.6171    3.6262   -4.4434 H   0  0  0  1  0  0  0  0  0  0  0  0
   -0.9079    1.4550   -1.6783 H   0  0  0  1  0  0  0  0  0  0  0  0
   -0.7997    3.1556   -2.0663 H   0  0  0  1  0  0  0  0  0  0  0  0
  1  4  1  0  0  0  0
  2  4  1  0  0  0  0
  2  5  2  0  0  0  0
  2  6  1  0  0  0  0
  3  4  1  0  0  0  0
  3  7  1  0  0  0  0
  3  8  1  0  0  0  0
  4 29  1  0  0  0  0
  6  9  1  0  0  0  0
  6 12  1  0  0  0  0
  8 10  1  0  0  0  0
  8 11  2  0  0  0  0
  9 13  1  0  0  0  0
  9 14  1  0  0  0  0
  9 15  1  0  0  0  0
 10 16  1  0  0  0  0
 10 17  1  0  0  0  0
 10 18  1  0  0  0  0
 19 20  1  0  0  0  0
 20 21  1  0  0  0  0
 20 22  1  0  0  0  0
 20 23  1  0  0  0  0
 23 24  4  0  0  0  0
 23 28  4  0  0  0  0
 24 25  4  0  0  0  0
 24 29  1  0  0  0  0
 25 26  4  0  0  0  0
 25 30  1  0  0  0  0
 26 27  4  0  0  0  0
 26 31  1  0  0  0  0
 27 28  4  0  0  0  0
 27 32  1  0  0  0  0
 28 33  1  0  0  0  0
 29 34  1  0  0  0  0
 29 35  1  0  0  0  0
M  END
> <BCLConfClusterSize>
1

> <ConfClashScore>
0 

> <ConfOneFourInteractionScore>
-0.985807 

> <ConfScore>
0.355126 

> <ConfScorePBest>
0.00635284 

> <ConfTolerance>
0.448631 

> <RosettaParamsInstructions>
M  ROOT 3
M  POLY_N_BB 3
M  POLY_CA_BB 4
M  POLY_C_BB 2
M  POLY_O_BB 5
M  POLY_IGNORE 9 10 11 12 13 14 15 16 17 18 
M  POLY_UPPER 6
M  POLY_LOWER 8
M  POLY_CHG 0
M  POLY_PROPERTIES ALPHA_AA D_AA PROTEIN AROMATIC POLYMER 
M  END

$$$$



 35 35  0  0  0  0  0  0  0  0999 V2000
   -1.0691    4.1992   -0.6184 H   0  0  0  1  0  0  0  0  0  0  0  0
    0.3600    2.9590    0.3100 C   0  0  0  1  0  0  0  0  0  0  0  0
   -2.0401    2.9939    0.7552 N   0  0  0  1  0  0  0  0  0  0  0  0
   -1.0228    3.1823   -0.2887 C   0  0  0  1  0  0  0  0  0  0  0  0
    1.0532    1.9943   -0.0101 O   0  0  0  1  0  0  0  0  0  0  0  0
    0.7216    3.8963    1.1907 N   0  0  0  1  0  0  0  0  0  0  0  0
   -2.7446    3.6677    0.8561 H   0  0  0  1  0  0  0  0  0  0  0  0
   -2.0379    1.9316    1.5747 C   0  0  0  1  0  0  0  0  0  0  0  0
    1.9553    3.8079    1.9576 C   0  0  0  1  0  0  0  0  0  0  0  0
   -3.1555    1.8872    2.5986 C   0  0  0  1  0  0  0  0  0  0  0  0
   -1.1987    1.0482    1.5149 O   0  0  0  1  0  0  0  0  0  0  0  0
    0.1357    4.6703    1.3251 H   0  0  0  1  0  0  0  0  0  0  0  0
    1.9719    2.8872    2.5025 H   0  0  0  1  0  0  0  0  0  0  0  0
    2.0089    4.6284    2.6423 H   0  0  0  1  0  0  0  0  0  0  0  0
    2.7921    3.8432    1.2917 H   0  0  0  1  0  0  0  0  0  0  0  0
   -4.1003    1.9243    2.0979 H   0  0  0  1  0  0  0  0  0  0  0  0
   -3.0683    2.7254    3.2579 H   0  0  0  1  0  0  0  0  0  0  0  0
   -3.0864    0.9805    3.1625 H   0  0  0  1  0  0  0  0  0  0  0  0
   -1.2830    4.6088   -3.0573 F   0  0  0  1  0  0  0  0  0  0  0  0
   -1.9907    3.8335   -3.8806 C   0  0  0  1  0  0  0  0  0  0  0  0
   -2.4690    4.6334   -4.8228 F   0  0  0  1  0  0  0  0  0  0  0  0
   -1.1169    3.0330   -4.4804 F   0  0  0  1  0  0  0  0  0  0  0  0
   -3.0825    3.0662   -3.1609 C   0  0  0  1  0  0  0  0  0  0  0  0
   -2.7493    2.3814   -2.0026 C   0  0  0  1  0  0  0  0  0  0  0  0
   -3.7318    1.7392   -1.2729 C   0  0  0  1  0  0  0  0  0  0  0  0
   -5.0510    1.7843   -1.6962 C   0  0  0  1  0  0  0  0  0  0  0  0
   -5.3830    2.4672   -2.8510 C   0  0  0  1  0  0  0  0  0  0  0  0
   -4.3978    3.1114   -3.5831 C   0  0  0  1  0  0  0  0  0  0  0  0
   -1.3311    2.3023   -1.4890 C   0  0  0  1  0  0  0  0  0  0  0  0
   -3.4814    1.2220   -0.4060 H   0  0  0  1  0  0  0  0  0  0  0  0
   -5.7908    1.3044   -1.1449 H   0  0  0  1  0  0  0  0  0  0  0  0
   -6.3721    2.4977   -3.1708 H   0  0  0  1  0  0  0  0  0  0  0  0
   -4.6483    3.6285   -4.4499 H   0  0  0  1  0  0  0  0  0  0  0  0
   -1.1362    1.2871   -1.2127 H   0  0  0  1  0  0  0  0  0  0  0  0
   -0.6754    2.5879   -2.2848 H   0  0  0  1  0  0  0  0  0  0  0  0
  1  4  1  0  0  0  0
  2  4  1  0  0  0  0
  2  5  2  0  0  0  0
  2  6  1  0  0  0  0
  3  4  1  0  0  0  0
  3  7  1  0  0  0  0
  3  8  1  0  0  0  0
  4 29  1  0  0  0  0
  6  9  1  0  0  0  0
  6 12  1  0  0  0  0
  8 10  1  0  0  0  0
  8 11  2  0  0  0  0
  9 13  1  0  0  0  0
  9 14  1  0  0  0  0
  9 15  1  0  0  0  0
 10 16  1  0  0  0  0
 10 17  1  0  0  0  0
 10 18  1  0  0  0  0
 19 20  1  0  0  0  0
 20 21  1  0  0  0  0
 20 22  1  0  0  0  0
 20 23  1  0  0  0  0
 23 24  4  0  0  0  0
 23 28  4  0  0  0  0
 24 25  4  0  0  0  0
 24 29  1  0  0  0  0
 25 26  4  0  0  0  0
 25 30  1  0  0  0  0
 26 27  4  0  0  0  0
 26 31  1  0  0  0  0
 27 28  4  0  0  0  0
 27 32  1  0  0  0  0
 28 33  1  0  0  0  0
 29 34  1  0  0  0  0
 29 35  1  0  0  0  0
M  END
> <BCLConfClusterSize>
1

> <ConfClashScore>
0 

> <ConfOneFourInteractionScore>
-0.976539 

> <ConfScore>
0.355564 

> <ConfScorePBest>
0.00632436 

> <ConfTolerance>
0.464335 

> <RosettaParamsInstructions>
M  ROOT 3
M  POLY_N_BB 3
M  POLY_CA_BB 4
M  POLY_C_BB 2
M  POLY_O_BB 5
M  POLY_IGNORE 9 10 11 12 13 14 15 16 17 18 
M  POLY_UPPER 6
M  POLY_LOWER 8
M  POLY_CHG 0
M  POLY_PROPERTIES ALPHA_AA D_AA PROTEIN AROMATIC POLYMER 
M  END

$$$$



 35 35  0  0  0  0  0  0  0  0999 V2000
    0.1538    2.3695   -0.2293 H   0  0  0  1  0  0  0  0  0  0  0  0
   -0.4758    1.0097   -1.7129 C   0  0  0  1  0  0  0  0  0  0  0  0
   -1.4446    1.3265    0.5405 N   0  0  0  1  0  0  0  0  0  0  0  0
   -0.7810    1.9818   -0.5767 C   0  0  0  1  0  0  0  0  0  0  0  0
    0.3106    1.3037   -2.6093 O   0  0  0  1  0  0  0  0  0  0  0  0
   -1.1150   -0.1624   -1.6615 N   0  0  0  1  0  0  0  0  0  0  0  0
   -2.2926    1.6928    0.8677 H   0  0  0  1  0  0  0  0  0  0  0  0
   -0.9379    0.2429    1.1356 C   0  0  0  1  0  0  0  0  0  0  0  0
   -0.9194   -1.1482   -2.7140 C   0  0  0  1  0  0  0  0  0  0  0  0
   -1.7388   -0.3036    2.3014 C   0  0  0  1  0  0  0  0  0  0  0  0
    0.1101   -0.2911    0.7747 O   0  0  0  1  0  0  0  0  0  0  0  0
   -1.7168   -0.3587   -0.9134 H   0  0  0  1  0  0  0  0  0  0  0  0
   -0.5972   -0.6568   -3.6082 H   0  0  0  1  0  0  0  0  0  0  0  0
   -1.8412   -1.6586   -2.9001 H   0  0  0  1  0  0  0  0  0  0  0  0
   -0.1759   -1.8541   -2.4075 H   0  0  0  1  0  0  0  0  0  0  0  0
   -2.7189   -0.5724    1.9666 H   0  0  0  1  0  0  0  0  0  0  0  0
   -1.8150    0.4440    3.0631 H   0  0  0  1  0  0  0  0  0  0  0  0
   -1.2477   -1.1679    2.6971 H   0  0  0  1  0  0  0  0  0  0  0  0
   -2.1316    3.6569   -5.2246 F   0  0  0  1  0  0  0  0  0  0  0  0
   -1.9864    3.7923   -3.9053 C   0  0  0  1  0  0  0  0  0  0  0  0
   -0.7662    3.3375   -3.6160 F   0  0  0  1  0  0  0  0  0  0  0  0
   -1.9630    5.1039   -3.6648 F   0  0  0  1  0  0  0  0  0  0  0  0
   -3.0685    3.0808   -3.1280 C   0  0  0  1  0  0  0  0  0  0  0  0
   -2.8612    2.7446   -1.7992 C   0  0  0  1  0  0  0  0  0  0  0  0
   -3.8499    2.0887   -1.0902 C   0  0  0  1  0  0  0  0  0  0  0  0
   -5.0506    1.7719   -1.7061 C   0  0  0  1  0  0  0  0  0  0  0  0
   -5.2571    2.1072   -3.0309 C   0  0  0  1  0  0  0  0  0  0  0  0
   -4.2657    2.7650   -3.7422 C   0  0  0  1  0  0  0  0  0  0  0  0
   -1.6105    3.1630   -1.0631 C   0  0  0  1  0  0  0  0  0  0  0  0
   -3.6929    1.8328   -0.0945 H   0  0  0  1  0  0  0  0  0  0  0  0
   -5.7960    1.2820   -1.1714 H   0  0  0  1  0  0  0  0  0  0  0  0
   -6.1564    1.8660   -3.4942 H   0  0  0  1  0  0  0  0  0  0  0  0
   -4.4227    3.0208   -4.7380 H   0  0  0  1  0  0  0  0  0  0  0  0
   -1.0087    3.7533   -1.7222 H   0  0  0  1  0  0  0  0  0  0  0  0
   -1.8947    3.7514   -0.2158 H   0  0  0  1  0  0  0  0  0  0  0  0
  1  4  1  0  0  0  0
  2  4  1  0  0  0  0
  2  5  2  0  0  0  0
  2  6  1  0  0  0  0
  3  4  1  0  0  0  0
  3  7  1  0  0  0  0
  3  8  1  0  0  0  0
  4 29  1  0  0  0  0
  6  9  1  0  0  0  0
  6 12  1  0  0  0  0
  8 10  1  0  0  0  0
  8 11  2  0  0  0  0
  9 13  1  0  0  0  0
  9 14  1  0  0  0  0
  9 15  1  0  0  0  0
 10 16  1  0  0  0  0
 10 17  1  0  0  0  0
 10 18  1  0  0  0  0
 19 20  1  0  0  0  0
 20 21  1  0  0  0  0
 20 22  1  0  0  0  0
 20 23  1  0  0  0  0
 23 24  4  0  0  0  0
 23 28  4  0  0  0  0
 24 25  4  0  0  0  0
 24 29  1  0  0  0  0
 25 26  4  0  0  0  0
 25 30  1  0  0  0  0
 26 27  4  0  0  0  0
 26 31  1  0  0  0  0
 27 28  4  0  0  0  0
 27 32  1  0  0  0  0
 28 33  1  0  0  0  0
 29 34  1  0  0  0  0
 29 35  1  0  0  0  0
M  END
> <BCLConfClusterSize>
1

> <ConfClashScore>
0.000171198 

> <ConfOneFourInteractionScore>
-0.957074 

> <ConfScore>
0.36356 

> <ConfScorePBest>
0.00629587 

> <ConfTolerance>
0.295195 

> <RosettaParamsInstructions>
M  ROOT 3
M  POLY_N_BB 3
M  POLY_CA_BB 4
M  POLY_C_BB 2
M  POLY_O_BB 5
M  POLY_IGNORE 9 10 11 12 13 14 15 16 17 18 
M  POLY_UPPER 6
M  POLY_LOWER 8
M  POLY_CHG 0
M  POLY_PROPERTIES ALPHA_AA D_AA PROTEIN AROMATIC POLYMER 
M  END

$$$$



 35 35  0  0  0  0  0  0  0  0999 V2000
   -1.1392    4.4506   -1.2310 H   0  0  0  1  0  0  0  0  0  0  0  0
    0.5348    3.5360   -0.3235 C   0  0  0  1  0  0  0  0  0  0  0  0
   -1.7674    3.5920    0.5425 N   0  0  0  1  0  0  0  0  0  0  0  0
   -0.9450    3.5681   -0.6579 C   0  0  0  1  0  0  0  0  0  0  0  0
    1.3442    2.9868   -1.0662 O   0  0  0  1  0  0  0  0  0  0  0  0
    0.8871    4.1408    0.8220 N   0  0  0  1  0  0  0  0  0  0  0  0
   -1.9349    2.7515    1.0178 H   0  0  0  1  0  0  0  0  0  0  0  0
   -2.3041    4.7246    1.0212 C   0  0  0  1  0  0  0  0  0  0  0  0
    2.2676    4.1962    1.2792 C   0  0  0  1  0  0  0  0  0  0  0  0
   -3.2208    4.5098    2.2098 C   0  0  0  1  0  0  0  0  0  0  0  0
   -2.0958    5.8377    0.5673 O   0  0  0  1  0  0  0  0  0  0  0  0
    0.1904    4.5595    1.3695 H   0  0  0  1  0  0  0  0  0  0  0  0
    2.8536    3.4873    0.7325 H   0  0  0  1  0  0  0  0  0  0  0  0
    2.3072    3.9622    2.3226 H   0  0  0  1  0  0  0  0  0  0  0  0
    2.6570    5.1798    1.1187 H   0  0  0  1  0  0  0  0  0  0  0  0
   -2.6627    4.6213    3.1160 H   0  0  0  1  0  0  0  0  0  0  0  0
   -3.6363    3.5248    2.1660 H   0  0  0  1  0  0  0  0  0  0  0  0
   -4.0101    5.2318    2.1863 H   0  0  0  1  0  0  0  0  0  0  0  0
   -1.4810    4.8136   -3.1268 F   0  0  0  1  0  0  0  0  0  0  0  0
   -1.9890    3.8310   -3.8728 C   0  0  0  1  0  0  0  0  0  0  0  0
   -2.4198    4.4023   -4.9986 F   0  0  0  1  0  0  0  0  0  0  0  0
   -0.9593    3.0528   -4.2181 F   0  0  0  1  0  0  0  0  0  0  0  0
   -3.0823    3.0633   -3.1557 C   0  0  0  1  0  0  0  0  0  0  0  0
   -2.7546    2.3888   -1.9899 C   0  0  0  1  0  0  0  0  0  0  0  0
   -3.7394    1.7468   -1.2630 C   0  0  0  1  0  0  0  0  0  0  0  0
   -5.0554    1.7819   -1.6968 C   0  0  0  1  0  0  0  0  0  0  0  0
   -5.3820    2.4545   -2.8591 C   0  0  0  1  0  0  0  0  0  0  0  0
   -4.3945    3.0985   -3.5883 C   0  0  0  1  0  0  0  0  0  0  0  0
   -1.3216    2.3549   -1.5134 C   0  0  0  1  0  0  0  0  0  0  0  0
   -3.4929    1.2373   -0.3905 H   0  0  0  1  0  0  0  0  0  0  0  0
   -5.7970    1.3023   -1.1476 H   0  0  0  1  0  0  0  0  0  0  0  0
   -6.3688    2.4775   -3.1868 H   0  0  0  1  0  0  0  0  0  0  0  0
   -4.6410    3.6079   -4.4609 H   0  0  0  1  0  0  0  0  0  0  0  0
   -1.1773    1.4692   -0.9307 H   0  0  0  1  0  0  0  0  0  0  0  0
   -0.6790    2.3285   -2.3685 H   0  0  0  1  0  0  0  0  0  0  0  0
  1  4  1  0  0  0  0
  2  4  1  0  0  0  0
  2  5  2  0  0  0  0
  2  6  1  0  0  0  0
  3  4  1  0  0  0  0
  3  7  1  0  0  0  0
  3  8  1  0  0  0  0
  4 29  1  0  0  0  0
  6  9  1  0  0  0  0
  6 12  1  0  0  0  0
  8 10  1  0  0  0  0
  8 11  2  0  0  0  0
  9 13  1  0  0  0  0
  9 14  1  0  0  0  0
  9 15  1  0  0  0  0
 10 16  1  0  0  0  0
 10 17  1  0  0  0  0
 10 18  1  0  0  0  0
 19 20  1  0  0  0  0
 20 21  1  0  0  0  0
 20 22  1  0  0  0  0
 20 23  1  0  0  0  0
 23 24  4  0  0  0  0
 23 28  4  0  0  0  0
 24 25  4  0  0  0  0
 24 29  1  0  0  0  0
 25 26  4  0  0  0  0
 25 30  1  0  0  0  0
 26 27  4  0  0  0  0
 26 31  1  0  0  0  0
 27 28  4  0  0  0  0
 27 32  1  0  0  0  0
 28 33  1  0  0  0  0
 29 34  1  0  0  0  0
 29 35  1  0  0  0  0
M  END
> <BCLConfClusterSize>
1

> <ConfClashScore>
0 

> <ConfOneFourInteractionScore>
-0.95996 

> <ConfScore>
0.365598 

> <ConfScorePBest>
0.00626739 

> <ConfTolerance>
0.399207 

> <RosettaParamsInstructions>
M  ROOT 3
M  POLY_N_BB 3
M  POLY_CA_BB 4
M  POLY_C_BB 2
M  POLY_O_BB 5
M  POLY_IGNORE 9 10 11 12 13 14 15 16 17 18 
M  POLY_UPPER 6
M  POLY_LOWER 8
M  POLY_CHG 0
M  POLY_PROPERTIES ALPHA_AA D_AA PROTEIN AROMATIC POLYMER 
M  END

$$$$



 35 35  0  0  0  0  0  0  0  0999 V2000
   -1.4436    5.0709   -1.7517 H   0  0  0  1  0  0  0  0  0  0  0  0
    0.0597    4.8185   -0.3098 C   0  0  0  1  0  0  0  0  0  0  0  0
   -2.3530    5.0903    0.0941 N   0  0  0  1  0  0  0  0  0  0  0  0
   -1.3434    4.5662   -0.8135 C   0  0  0  1  0  0  0  0  0  0  0  0
    1.0370    4.5057   -0.9847 O   0  0  0  1  0  0  0  0  0  0  0  0
    0.2033    5.3907    0.8889 N   0  0  0  1  0  0  0  0  0  0  0  0
   -2.9655    4.4636    0.5330 H   0  0  0  1  0  0  0  0  0  0  0  0
   -2.4778    6.4374    0.3580 C   0  0  0  1  0  0  0  0  0  0  0  0
    1.5091    5.6260    1.4866 C   0  0  0  1  0  0  0  0  0  0  0  0
   -3.3858    6.8016    1.4962 C   0  0  0  1  0  0  0  0  0  0  0  0
   -1.8696    7.2518   -0.3166 O   0  0  0  1  0  0  0  0  0  0  0  0
   -0.5987    5.6614    1.3829 H   0  0  0  1  0  0  0  0  0  0  0  0
    2.0716    6.2914    0.8655 H   0  0  0  1  0  0  0  0  0  0  0  0
    2.0317    4.6969    1.5784 H   0  0  0  1  0  0  0  0  0  0  0  0
    1.3842    6.0628    2.4554 H   0  0  0  1  0  0  0  0  0  0  0  0
   -3.3127    7.8515    1.6896 H   0  0  0  1  0  0  0  0  0  0  0  0
   -3.0971    6.2571    2.3709 H   0  0  0  1  0  0  0  0  0  0  0  0
   -4.3952    6.5560    1.2396 H   0  0  0  1  0  0  0  0  0  0  0  0
   -1.9700    3.4499   -5.1917 F   0  0  0  1  0  0  0  0  0  0  0  0
   -1.9904    3.8010   -3.9047 C   0  0  0  1  0  0  0  0  0  0  0  0
   -0.7692    3.5496   -3.4304 F   0  0  0  1  0  0  0  0  0  0  0  0
   -2.1349    5.1291   -3.8815 F   0  0  0  1  0  0  0  0  0  0  0  0
   -3.0713    3.0876   -3.1274 C   0  0  0  1  0  0  0  0  0  0  0  0
   -2.8653    2.7562   -1.7972 C   0  0  0  1  0  0  0  0  0  0  0  0
   -3.8527    2.0987   -1.0881 C   0  0  0  1  0  0  0  0  0  0  0  0
   -5.0510    1.7753   -1.7053 C   0  0  0  1  0  0  0  0  0  0  0  0
   -5.2562    2.1058   -3.0316 C   0  0  0  1  0  0  0  0  0  0  0  0
   -4.2660    2.7653   -3.7430 C   0  0  0  1  0  0  0  0  0  0  0  0
   -1.5835    3.0874   -1.0700 C   0  0  0  1  0  0  0  0  0  0  0  0
   -3.6967    1.8464   -0.0913 H   0  0  0  1  0  0  0  0  0  0  0  0
   -5.7956    1.2841   -1.1706 H   0  0  0  1  0  0  0  0  0  0  0  0
   -6.1537    1.8597   -3.4958 H   0  0  0  1  0  0  0  0  0  0  0  0
   -4.4221    3.0174   -4.7398 H   0  0  0  1  0  0  0  0  0  0  0  0
   -1.6017    2.5871   -0.1244 H   0  0  0  1  0  0  0  0  0  0  0  0
   -0.7673    2.7170   -1.6544 H   0  0  0  1  0  0  0  0  0  0  0  0
  1  4  1  0  0  0  0
  2  4  1  0  0  0  0
  2  5  2  0  0  0  0
  2  6  1  0  0  0  0
  3  4  1  0  0  0  0
  3  7  1  0  0  0  0
  3  8  1  0  0  0  0
  4 29  1  0  0  0  0
  6  9  1  0  0  0  0
  6 12  1  0  0  0  0
  8 10  1  0  0  0  0
  8 11  2  0  0  0  0
  9 13  1  0  0  0  0
  9 14  1  0  0  0  0
  9 15  1  0  0  0  0
 10 16  1  0  0  0  0
 10 17  1  0  0  0  0
 10 18  1  0  0  0  0
 19 20  1  0  0  0  0
 20 21  1  0  0  0  0
 20 22  1  0  0  0  0
 20 23  1  0  0  0  0
 23 24  4  0  0  0  0
 23 28  4  0  0  0  0
 24 25  4  0  0  0  0
 24 29  1  0  0  0  0
 25 26  4  0  0  0  0
 25 30  1  0  0  0  0
 26 27  4  0  0  0  0
 26 31  1  0  0  0  0
 27 28  4  0  0  0  0
 27 32  1  0  0  0  0
 28 33  1  0  0  0  0
 29 34  1  0  0  0  0
 29 35  1  0  0  0  0
M  END
> <BCLConfClusterSize>
1

> <ConfClashScore>
0 

> <ConfOneFourInteractionScore>
-0.960318 

> <ConfScore>
0.365651 

> <ConfScorePBest>
0.00623891 

> <ConfTolerance>
0.397433 

> <RosettaParamsInstructions>
M  ROOT 3
M  POLY_N_BB 3
M  POLY_CA_BB 4
M  POLY_C_BB 2
M  POLY_O_BB 5
M  POLY_IGNORE 9 10 11 12 13 14 15 16 17 18 
M  POLY_UPPER 6
M  POLY_LOWER 8
M  POLY_CHG 0
M  POLY_PROPERTIES ALPHA_AA D_AA PROTEIN AROMATIC POLYMER 
M  END

$$$$



 35 35  0  0  0  0  0  0  0  0999 V2000
   -1.6029    0.9238    0.0777 H   0  0  0  1  0  0  0  0  0  0  0  0
    0.4237    0.7824   -0.3783 C   0  0  0  1  0  0  0  0  0  0  0  0
   -1.4842   -0.1340   -1.6721 N   0  0  0  1  0  0  0  0  0  0  0  0
   -1.0164    0.9650   -0.8164 C   0  0  0  1  0  0  0  0  0  0  0  0
    1.0396   -0.2644   -0.4578 O   0  0  0  1  0  0  0  0  0  0  0  0
    0.9764    1.8941    0.1154 N   0  0  0  1  0  0  0  0  0  0  0  0
   -1.8447    0.0995   -2.5529 H   0  0  0  1  0  0  0  0  0  0  0  0
   -1.4551   -1.4277   -1.3398 C   0  0  0  1  0  0  0  0  0  0  0  0
    2.2914    1.8976    0.7390 C   0  0  0  1  0  0  0  0  0  0  0  0
   -2.1079   -2.3975   -2.3285 C   0  0  0  1  0  0  0  0  0  0  0  0
   -0.9546   -1.8994   -0.3197 O   0  0  0  1  0  0  0  0  0  0  0  0
    0.4791    2.7364    0.0556 H   0  0  0  1  0  0  0  0  0  0  0  0
    2.4044    2.7830    1.3291 H   0  0  0  1  0  0  0  0  0  0  0  0
    3.0456    1.8763   -0.0197 H   0  0  0  1  0  0  0  0  0  0  0  0
    2.3909    1.0363    1.3659 H   0  0  0  1  0  0  0  0  0  0  0  0
   -3.0687   -2.0233   -2.6143 H   0  0  0  1  0  0  0  0  0  0  0  0
   -2.2217   -3.3555   -1.8657 H   0  0  0  1  0  0  0  0  0  0  0  0
   -1.4894   -2.4915   -3.1966 H   0  0  0  1  0  0  0  0  0  0  0  0
   -1.0498    4.3493   -3.1392 F   0  0  0  1  0  0  0  0  0  0  0  0
   -2.0057    3.8216   -3.9057 C   0  0  0  1  0  0  0  0  0  0  0  0
   -2.5165    4.8312   -4.6123 F   0  0  0  1  0  0  0  0  0  0  0  0
   -1.3870    3.0283   -4.7812 F   0  0  0  1  0  0  0  0  0  0  0  0
   -3.0571    3.0873   -3.0992 C   0  0  0  1  0  0  0  0  0  0  0  0
   -2.7491    2.3796   -1.9477 C   0  0  0  1  0  0  0  0  0  0  0  0
   -3.7472    1.7230   -1.2527 C   0  0  0  1  0  0  0  0  0  0  0  0
   -5.0567    1.7764   -1.7041 C   0  0  0  1  0  0  0  0  0  0  0  0
   -5.3635    2.4821   -2.8522 C   0  0  0  1  0  0  0  0  0  0  0  0
   -4.3627    3.1407   -3.5494 C   0  0  0  1  0  0  0  0  0  0  0  0
   -1.3197    2.3256   -1.4508 C   0  0  0  1  0  0  0  0  0  0  0  0
   -3.5156    1.1887   -0.3910 H   0  0  0  1  0  0  0  0  0  0  0  0
   -5.8083    1.2856   -1.1788 H   0  0  0  1  0  0  0  0  0  0  0  0
   -6.3454    2.5189   -3.1930 H   0  0  0  1  0  0  0  0  0  0  0  0
   -4.5943    3.6750   -4.4110 H   0  0  0  1  0  0  0  0  0  0  0  0
   -0.6556    2.4844   -2.2746 H   0  0  0  1  0  0  0  0  0  0  0  0
   -1.1729    3.0937   -0.7205 H   0  0  0  1  0  0  0  0  0  0  0  0
  1  4  1  0  0  0  0
  2  4  1  0  0  0  0
  2  5  2  0  0  0  0
  2  6  1  0  0  0  0
  3  4  1  0  0  0  0
  3  7  1  0  0  0  0
  3  8  1  0  0  0  0
  4 29  1  0  0  0  0
  6  9  1  0  0  0  0
  6 12  1  0  0  0  0
  8 10  1  0  0  0  0
  8 11  2  0  0  0  0
  9 13  1  0  0  0  0
  9 14  1  0  0  0  0
  9 15  1  0  0  0  0
 10 16  1  0  0  0  0
 10 17  1  0  0  0  0
 10 18  1  0  0  0  0
 19 20  1  0  0  0  0
 20 21  1  0  0  0  0
 20 22  1  0  0  0  0
 20 23  1  0  0  0  0
 23 24  4  0  0  0  0
 23 28  4  0  0  0  0
 24 25  4  0  0  0  0
 24 29  1  0  0  0  0
 25 26  4  0  0  0  0
 25 30  1  0  0  0  0
 26 27  4  0  0  0  0
 26 31  1  0  0  0  0
 27 28  4  0  0  0  0
 27 32  1  0  0  0  0
 28 33  1  0  0  0  0
 29 34  1  0  0  0  0
 29 35  1  0  0  0  0
M  END
> <BCLConfClusterSize>
1

> <ConfClashScore>
0 

> <ConfOneFourInteractionScore>
-0.980254 

> <ConfScore>
0.366729 

> <ConfScorePBest>
0.00621043 

> <ConfTolerance>
0.600186 

> <RosettaParamsInstructions>
M  ROOT 3
M  POLY_N_BB 3
M  POLY_CA_BB 4
M  POLY_C_BB 2
M  POLY_O_BB 5
M  POLY_IGNORE 9 10 11 12 13 14 15 16 17 18 
M  POLY_UPPER 6
M  POLY_LOWER 8
M  POLY_CHG 0
M  POLY_PROPERTIES ALPHA_AA D_AA PROTEIN AROMATIC POLYMER 
M  END

$$$$



 35 35  0  0  0  0  0  0  0  0999 V2000
   -2.2320    4.9314   -0.3836 H   0  0  0  1  0  0  0  0  0  0  0  0
   -0.4559    4.4845    0.6469 C   0  0  0  1  0  0  0  0  0  0  0  0
   -2.6787    3.4847    1.0088 N   0  0  0  1  0  0  0  0  0  0  0  0
   -1.7718    4.0569    0.0267 C   0  0  0  1  0  0  0  0  0  0  0  0
    0.4596    4.9313   -0.0428 O   0  0  0  1  0  0  0  0  0  0  0  0
   -0.3659    4.3430    1.9724 N   0  0  0  1  0  0  0  0  0  0  0  0
   -2.6060    2.5371    1.2479 H   0  0  0  1  0  0  0  0  0  0  0  0
   -3.6188    4.2546    1.5909 C   0  0  0  1  0  0  0  0  0  0  0  0
    0.8672    4.6912    2.6624 C   0  0  0  1  0  0  0  0  0  0  0  0
   -4.5037    3.5589    2.6067 C   0  0  0  1  0  0  0  0  0  0  0  0
   -3.7635    5.4376    1.3300 O   0  0  0  1  0  0  0  0  0  0  0  0
   -1.1318    4.0040    2.4811 H   0  0  0  1  0  0  0  0  0  0  0  0
    1.0529    3.9821    3.4418 H   0  0  0  1  0  0  0  0  0  0  0  0
    0.7749    5.6697    3.0853 H   0  0  0  1  0  0  0  0  0  0  0  0
    1.6806    4.6779    1.9673 H   0  0  0  1  0  0  0  0  0  0  0  0
   -5.5227    3.6046    2.2834 H   0  0  0  1  0  0  0  0  0  0  0  0
   -4.4084    4.0453    3.5549 H   0  0  0  1  0  0  0  0  0  0  0  0
   -4.2046    2.5357    2.6985 H   0  0  0  1  0  0  0  0  0  0  0  0
   -2.3730    4.1635   -5.1244 F   0  0  0  1  0  0  0  0  0  0  0  0
   -1.9904    3.7929   -3.9012 C   0  0  0  1  0  0  0  0  0  0  0  0
   -0.8829    3.0644   -4.0501 F   0  0  0  1  0  0  0  0  0  0  0  0
   -1.5907    4.9156   -3.3023 F   0  0  0  1  0  0  0  0  0  0  0  0
   -3.0735    3.0823   -3.1245 C   0  0  0  1  0  0  0  0  0  0  0  0
   -2.8631    2.7363   -1.7988 C   0  0  0  1  0  0  0  0  0  0  0  0
   -3.8527    2.0812   -1.0903 C   0  0  0  1  0  0  0  0  0  0  0  0
   -5.0575    1.7750   -1.7038 C   0  0  0  1  0  0  0  0  0  0  0  0
   -5.2670    2.1200   -3.0256 C   0  0  0  1  0  0  0  0  0  0  0  0
   -4.2747    2.7770   -3.7363 C   0  0  0  1  0  0  0  0  0  0  0  0
   -1.5529    3.0748   -1.1279 C   0  0  0  1  0  0  0  0  0  0  0  0
   -3.6935    1.8180   -0.0968 H   0  0  0  1  0  0  0  0  0  0  0  0
   -5.8035    1.2856   -1.1694 H   0  0  0  1  0  0  0  0  0  0  0  0
   -6.1693    1.8867   -3.4871 H   0  0  0  1  0  0  0  0  0  0  0  0
   -4.4340    3.0401   -4.7298 H   0  0  0  1  0  0  0  0  0  0  0  0
   -1.1120    2.1776   -0.7464 H   0  0  0  1  0  0  0  0  0  0  0  0
   -0.8954    3.5185   -1.8460 H   0  0  0  1  0  0  0  0  0  0  0  0
  1  4  1  0  0  0  0
  2  4  1  0  0  0  0
  2  5  2  0  0  0  0
  2  6  1  0  0  0  0
  3  4  1  0  0  0  0
  3  7  1  0  0  0  0
  3  8  1  0  0  0  0
  4 29  1  0  0  0  0
  6  9  1  0  0  0  0
  6 12  1  0  0  0  0
  8 10  1  0  0  0  0
  8 11  2  0  0  0  0
  9 13  1  0  0  0  0
  9 14  1  0  0  0  0
  9 15  1  0  0  0  0
 10 16  1  0  0  0  0
 10 17  1  0  0  0  0
 10 18  1  0  0  0  0
 19 20  1  0  0  0  0
 20 21  1  0  0  0  0
 20 22  1  0  0  0  0
 20 23  1  0  0  0  0
 23 24  4  0  0  0  0
 23 28  4  0  0  0  0
 24 25  4  0  0  0  0
 24 29  1  0  0  0  0
 25 26  4  0  0  0  0
 25 30  1  0  0  0  0
 26 27  4  0  0  0  0
 26 31  1  0  0  0  0
 27 28  4  0  0  0  0
 27 32  1  0  0  0  0
 28 33  1  0  0  0  0
 29 34  1  0  0  0  0
 29 35  1  0  0  0  0
M  END
> <BCLConfClusterSize>
1

> <ConfClashScore>
0 

> <ConfOneFourInteractionScore>
-0.937775 

> <ConfScore>
0.369502 

> <ConfScorePBest>
0.00618195 

> <ConfTolerance>
0.55388 

> <RosettaParamsInstructions>
M  ROOT 3
M  POLY_N_BB 3
M  POLY_CA_BB 4
M  POLY_C_BB 2
M  POLY_O_BB 5
M  POLY_IGNORE 9 10 11 12 13 14 15 16 17 18 
M  POLY_UPPER 6
M  POLY_LOWER 8
M  POLY_CHG 0
M  POLY_PROPERTIES ALPHA_AA D_AA PROTEIN AROMATIC POLYMER 
M  END

$$$$



 35 35  0  0  0  0  0  0  0  0999 V2000
   -0.3861    1.7164   -2.7947 H   0  0  0  1  0  0  0  0  0  0  0  0
   -0.8988    0.2606   -1.3600 C   0  0  0  1  0  0  0  0  0  0  0  0
    0.8782    1.9732   -1.1741 N   0  0  0  1  0  0  0  0  0  0  0  0
   -0.4444    1.6611   -1.7277 C   0  0  0  1  0  0  0  0  0  0  0  0
   -1.9577   -0.2021   -1.7422 O   0  0  0  1  0  0  0  0  0  0  0  0
   -0.1121   -0.4959   -0.5893 N   0  0  0  1  0  0  0  0  0  0  0  0
    0.9133    2.5468   -0.3803 H   0  0  0  1  0  0  0  0  0  0  0  0
    2.0359    1.5352   -1.6698 C   0  0  0  1  0  0  0  0  0  0  0  0
   -0.4366   -1.8773   -0.2663 C   0  0  0  1  0  0  0  0  0  0  0  0
    3.2850    2.1411   -1.0600 C   0  0  0  1  0  0  0  0  0  0  0  0
    2.1059    0.6938   -2.5647 O   0  0  0  1  0  0  0  0  0  0  0  0
    0.7121   -0.1071   -0.2290 H   0  0  0  1  0  0  0  0  0  0  0  0
    0.2365   -2.2363    0.4839 H   0  0  0  1  0  0  0  0  0  0  0  0
   -0.3446   -2.4800   -1.1456 H   0  0  0  1  0  0  0  0  0  0  0  0
   -1.4405   -1.9312    0.1002 H   0  0  0  1  0  0  0  0  0  0  0  0
    3.0850    2.4300   -0.0493 H   0  0  0  1  0  0  0  0  0  0  0  0
    3.5764    3.0014   -1.6256 H   0  0  0  1  0  0  0  0  0  0  0  0
    4.0749    1.4195   -1.0748 H   0  0  0  1  0  0  0  0  0  0  0  0
   -0.9382    3.0305   -4.1402 F   0  0  0  1  0  0  0  0  0  0  0  0
   -1.9927    3.8097   -3.8934 C   0  0  0  1  0  0  0  0  0  0  0  0
   -1.5269    4.8701   -3.2502 F   0  0  0  1  0  0  0  0  0  0  0  0
   -2.4186    4.2492   -5.0800 F   0  0  0  1  0  0  0  0  0  0  0  0
   -3.0738    3.0923   -3.1200 C   0  0  0  1  0  0  0  0  0  0  0  0
   -2.8004    2.5746   -1.8635 C   0  0  0  1  0  0  0  0  0  0  0  0
   -3.7886    1.9136   -1.1586 C   0  0  0  1  0  0  0  0  0  0  0  0
   -5.0545    1.7732   -1.7057 C   0  0  0  1  0  0  0  0  0  0  0  0
   -5.3269    2.2895   -2.9585 C   0  0  0  1  0  0  0  0  0  0  0  0
   -4.3359    2.9524   -3.6656 C   0  0  0  1  0  0  0  0  0  0  0  0
   -1.4229    2.7323   -1.2642 C   0  0  0  1  0  0  0  0  0  0  0  0
   -3.5825    1.5217   -0.2176 H   0  0  0  1  0  0  0  0  0  0  0  0
   -5.7992    1.2794   -1.1736 H   0  0  0  1  0  0  0  0  0  0  0  0
   -6.2755    2.1806   -3.3707 H   0  0  0  1  0  0  0  0  0  0  0  0
   -4.5421    3.3444   -4.6066 H   0  0  0  1  0  0  0  0  0  0  0  0
   -1.0372    3.6902   -1.5445 H   0  0  0  1  0  0  0  0  0  0  0  0
   -1.5069    2.6789   -0.1988 H   0  0  0  1  0  0  0  0  0  0  0  0
  1  4  1  0  0  0  0
  2  4  1  0  0  0  0
  2  5  2  0  0  0  0
  2  6  1  0  0  0  0
  3  4  1  0  0  0  0
  3  7  1  0  0  0  0
  3  8  1  0  0  0  0
  4 29  1  0  0  0  0
  6  9  1  0  0  0  0
  6 12  1  0  0  0  0
  8 10  1  0  0  0  0
  8 11  2  0  0  0  0
  9 13  1  0  0  0  0
  9 14  1  0  0  0  0
  9 15  1  0  0  0  0
 10 16  1  0  0  0  0
 10 17  1  0  0  0  0
 10 18  1  0  0  0  0
 19 20  1  0  0  0  0
 20 21  1  0  0  0  0
 20 22  1  0  0  0  0
 20 23  1  0  0  0  0
 23 24  4  0  0  0  0
 23 28  4  0  0  0  0
 24 25  4  0  0  0  0
 24 29  1  0  0  0  0
 25 26  4  0  0  0  0
 25 30  1  0  0  0  0
 26 27  4  0  0  0  0
 26 31  1  0  0  0  0
 27 28  4  0  0  0  0
 27 32  1  0  0  0  0
 28 33  1  0  0  0  0
 29 34  1  0  0  0  0
 29 35  1  0  0  0  0
M  END
> <BCLConfClusterSize>
1

> <ConfClashScore>
0 

> <ConfOneFourInteractionScore>
-0.960318 

> <ConfScore>
0.374715 

> <ConfScorePBest>
0.00615347 

> <ConfTolerance>
0.460527 

> <RosettaParamsInstructions>
M  ROOT 3
M  POLY_N_BB 3
M  POLY_CA_BB 4
M  POLY_C_BB 2
M  POLY_O_BB 5
M  POLY_IGNORE 9 10 11 12 13 14 15 16 17 18 
M  POLY_UPPER 6
M  POLY_LOWER 8
M  POLY_CHG 0
M  POLY_PROPERTIES ALPHA_AA D_AA PROTEIN AROMATIC POLYMER 
M  END

$$$$



 35 35  0  0  0  0  0  0  0  0999 V2000
   -1.3584    0.1910   -1.0714 H   0  0  0  1  0  0  0  0  0  0  0  0
    0.6601    0.6906   -1.3803 C   0  0  0  1  0  0  0  0  0  0  0  0
   -1.0790    0.3842   -3.1002 N   0  0  0  1  0  0  0  0  0  0  0  0
   -0.8085    0.8203   -1.7396 C   0  0  0  1  0  0  0  0  0  0  0  0
    1.0002    0.3846   -0.2406 O   0  0  0  1  0  0  0  0  0  0  0  0
    1.5062    0.8474   -2.4107 N   0  0  0  1  0  0  0  0  0  0  0  0
   -1.6907    0.9132   -3.6536 H   0  0  0  1  0  0  0  0  0  0  0  0
   -0.5226   -0.7127   -3.6219 C   0  0  0  1  0  0  0  0  0  0  0  0
    2.9511    0.8481   -2.2371 C   0  0  0  1  0  0  0  0  0  0  0  0
   -0.9897   -1.0896   -5.0144 C   0  0  0  1  0  0  0  0  0  0  0  0
    0.3166   -1.3866   -3.0258 O   0  0  0  1  0  0  0  0  0  0  0  0
    1.1380    0.9656   -3.3112 H   0  0  0  1  0  0  0  0  0  0  0  0
    3.2049    1.4033   -1.3583 H   0  0  0  1  0  0  0  0  0  0  0  0
    3.4124    1.3004   -3.0900 H   0  0  0  1  0  0  0  0  0  0  0  0
    3.2983   -0.1588   -2.1352 H   0  0  0  1  0  0  0  0  0  0  0  0
   -1.8907   -1.6626   -4.9461 H   0  0  0  1  0  0  0  0  0  0  0  0
   -0.2333   -1.6711   -5.4989 H   0  0  0  1  0  0  0  0  0  0  0  0
   -1.1746   -0.2009   -5.5810 H   0  0  0  1  0  0  0  0  0  0  0  0
   -1.2842    4.6250   -3.0777 F   0  0  0  1  0  0  0  0  0  0  0  0
   -2.0022    3.8400   -3.8829 C   0  0  0  1  0  0  0  0  0  0  0  0
   -2.5151    4.6377   -4.8208 F   0  0  0  1  0  0  0  0  0  0  0  0
   -1.1300    3.0452   -4.5044 F   0  0  0  1  0  0  0  0  0  0  0  0
   -3.0664    3.0624   -3.1371 C   0  0  0  1  0  0  0  0  0  0  0  0
   -2.7491    2.3819   -1.9719 C   0  0  0  1  0  0  0  0  0  0  0  0
   -3.7418    1.7440   -1.2522 C   0  0  0  1  0  0  0  0  0  0  0  0
   -5.0554    1.7892   -1.6927 C   0  0  0  1  0  0  0  0  0  0  0  0
   -5.3715    2.4677   -2.8545 C   0  0  0  1  0  0  0  0  0  0  0  0
   -4.3760    3.1075   -3.5765 C   0  0  0  1  0  0  0  0  0  0  0  0
   -1.3099    2.2502   -1.5327 C   0  0  0  1  0  0  0  0  0  0  0  0
   -3.5033    1.2301   -0.3801 H   0  0  0  1  0  0  0  0  0  0  0  0
   -5.8029    1.3126   -1.1490 H   0  0  0  1  0  0  0  0  0  0  0  0
   -6.3564    2.4982   -3.1872 H   0  0  0  1  0  0  0  0  0  0  0  0
   -4.6146    3.6215   -4.4486 H   0  0  0  1  0  0  0  0  0  0  0  0
   -0.7051    2.9206   -2.1069 H   0  0  0  1  0  0  0  0  0  0  0  0
   -1.2353    2.5015   -0.4953 H   0  0  0  1  0  0  0  0  0  0  0  0
  1  4  1  0  0  0  0
  2  4  1  0  0  0  0
  2  5  2  0  0  0  0
  2  6  1  0  0  0  0
  3  4  1  0  0  0  0
  3  7  1  0  0  0  0
  3  8  1  0  0  0  0
  4 29  1  0  0  0  0
  6  9  1  0  0  0  0
  6 12  1  0  0  0  0
  8 10  1  0  0  0  0
  8 11  2  0  0  0  0
  9 13  1  0  0  0  0
  9 14  1  0  0  0  0
  9 15  1  0  0  0  0
 10 16  1  0  0  0  0
 10 17  1  0  0  0  0
 10 18  1  0  0  0  0
 19 20  1  0  0  0  0
 20 21  1  0  0  0  0
 20 22  1  0  0  0  0
 20 23  1  0  0  0  0
 23 24  4  0  0  0  0
 23 28  4  0  0  0  0
 24 25  4  0  0  0  0
 24 29  1  0  0  0  0
 25 26  4  0  0  0  0
 25 30  1  0  0  0  0
 26 27  4  0  0  0  0
 26 31  1  0  0  0  0
 27 28  4  0  0  0  0
 27 32  1  0  0  0  0
 28 33  1  0  0  0  0
 29 34  1  0  0  0  0
 29 35  1  0  0  0  0
M  END
> <BCLConfClusterSize>
1

> <ConfClashScore>
0 

> <ConfOneFourInteractionScore>
-0.94165 

> <ConfScore>
0.376197 

> <ConfScorePBest>
0.00612499 

> <ConfTolerance>
0.372862 

> <RosettaParamsInstructions>
M  ROOT 3
M  POLY_N_BB 3
M  POLY_CA_BB 4
M  POLY_C_BB 2
M  POLY_O_BB 5
M  POLY_IGNORE 9 10 11 12 13 14 15 16 17 18 
M  POLY_UPPER 6
M  POLY_LOWER 8
M  POLY_CHG 0
M  POLY_PROPERTIES ALPHA_AA D_AA PROTEIN AROMATIC POLYMER 
M  END

$$$$



 35 35  0  0  0  0  0  0  0  0999 V2000
   -1.5357    2.9211    0.4944 H   0  0  0  1  0  0  0  0  0  0  0  0
   -1.2429    4.6654   -0.6346 C   0  0  0  1  0  0  0  0  0  0  0  0
    0.4584    2.9526    0.0013 N   0  0  0  1  0  0  0  0  0  0  0  0
   -0.9325    3.2101   -0.3407 C   0  0  0  1  0  0  0  0  0  0  0  0
   -2.3881    5.0240   -0.9057 O   0  0  0  1  0  0  0  0  0  0  0  0
   -0.2369    5.5435   -0.5900 N   0  0  0  1  0  0  0  0  0  0  0  0
    1.1033    2.8035   -0.7213 H   0  0  0  1  0  0  0  0  0  0  0  0
    0.8908    2.9120    1.2787 C   0  0  0  1  0  0  0  0  0  0  0  0
   -0.4392    6.9688   -0.8031 C   0  0  0  1  0  0  0  0  0  0  0  0
    2.3697    2.7139    1.5225 C   0  0  0  1  0  0  0  0  0  0  0  0
    0.1068    3.0324    2.2192 O   0  0  0  1  0  0  0  0  0  0  0  0
    0.6687    5.2165   -0.4074 H   0  0  0  1  0  0  0  0  0  0  0  0
   -0.1758    7.5038    0.0853 H   0  0  0  1  0  0  0  0  0  0  0  0
   -1.4670    7.1518   -1.0377 H   0  0  0  1  0  0  0  0  0  0  0  0
    0.1764    7.2989   -1.6137 H   0  0  0  1  0  0  0  0  0  0  0  0
    2.9221    3.4640    0.9962 H   0  0  0  1  0  0  0  0  0  0  0  0
    2.6619    1.7455    1.1736 H   0  0  0  1  0  0  0  0  0  0  0  0
    2.5718    2.7919    2.5704 H   0  0  0  1  0  0  0  0  0  0  0  0
   -1.3917    4.7664   -3.1588 F   0  0  0  1  0  0  0  0  0  0  0  0
   -1.9971    3.8256   -3.8857 C   0  0  0  1  0  0  0  0  0  0  0  0
   -2.4692    4.4397   -4.9716 F   0  0  0  1  0  0  0  0  0  0  0  0
   -1.0354    3.0044   -4.3092 F   0  0  0  1  0  0  0  0  0  0  0  0
   -3.0763    3.1034   -3.1141 C   0  0  0  1  0  0  0  0  0  0  0  0
   -2.7573    2.4164   -1.9531 C   0  0  0  1  0  0  0  0  0  0  0  0
   -3.7445    1.7513   -1.2505 C   0  0  0  1  0  0  0  0  0  0  0  0
   -5.0542    1.7758   -1.7038 C   0  0  0  1  0  0  0  0  0  0  0  0
   -5.3720    2.4608   -2.8613 C   0  0  0  1  0  0  0  0  0  0  0  0
   -4.3822    3.1279   -3.5661 C   0  0  0  1  0  0  0  0  0  0  0  0
   -1.3203    2.3079   -1.5009 C   0  0  0  1  0  0  0  0  0  0  0  0
   -3.5046    1.2325   -0.3817 H   0  0  0  1  0  0  0  0  0  0  0  0
   -5.7976    1.2787   -1.1729 H   0  0  0  1  0  0  0  0  0  0  0  0
   -6.3540    2.4759   -3.2036 H   0  0  0  1  0  0  0  0  0  0  0  0
   -4.6222    3.6467   -4.4350 H   0  0  0  1  0  0  0  0  0  0  0  0
   -1.1430    1.2950   -1.2049 H   0  0  0  1  0  0  0  0  0  0  0  0
   -0.6931    2.5519   -2.3327 H   0  0  0  1  0  0  0  0  0  0  0  0
  1  4  1  0  0  0  0
  2  4  1  0  0  0  0
  2  5  2  0  0  0  0
  2  6  1  0  0  0  0
  3  4  1  0  0  0  0
  3  7  1  0  0  0  0
  3  8  1  0  0  0  0
  4 29  1  0  0  0  0
  6  9  1  0  0  0  0
  6 12  1  0  0  0  0
  8 10  1  0  0  0  0
  8 11  2  0  0  0  0
  9 13  1  0  0  0  0
  9 14  1  0  0  0  0
  9 15  1  0  0  0  0
 10 16  1  0  0  0  0
 10 17  1  0  0  0  0
 10 18  1  0  0  0  0
 19 20  1  0  0  0  0
 20 21  1  0  0  0  0
 20 22  1  0  0  0  0
 20 23  1  0  0  0  0
 23 24  4  0  0  0  0
 23 28  4  0  0  0  0
 24 25  4  0  0  0  0
 24 29  1  0  0  0  0
 25 26  4  0  0  0  0
 25 30  1  0  0  0  0
 26 27  4  0  0  0  0
 26 31  1  0  0  0  0
 27 28  4  0  0  0  0
 27 32  1  0  0  0  0
 28 33  1  0  0  0  0
 29 34  1  0  0  0  0
 29 35  1  0  0  0  0
M  END
> <BCLConfClusterSize>
1

> <ConfClashScore>
0 

> <ConfOneFourInteractionScore>
-0.960318 

> <ConfScore>
0.376711 

> <ConfScorePBest>
0.00609651 

> <ConfTolerance>
0.438615 

> <RosettaParamsInstructions>
M  ROOT 3
M  POLY_N_BB 3
M  POLY_CA_BB 4
M  POLY_C_BB 2
M  POLY_O_BB 5
M  POLY_IGNORE 9 10 11 12 13 14 15 16 17 18 
M  POLY_UPPER 6
M  POLY_LOWER 8
M  POLY_CHG 0
M  POLY_PROPERTIES ALPHA_AA D_AA PROTEIN AROMATIC POLYMER 
M  END

$$$$



 35 35  0  0  0  0  0  0  0  0999 V2000
    0.2212    2.3594   -0.3441 H   0  0  0  1  0  0  0  0  0  0  0  0
   -0.0379    1.3921   -2.1823 C   0  0  0  1  0  0  0  0  0  0  0  0
   -1.2550    0.9559   -0.0528 N   0  0  0  1  0  0  0  0  0  0  0  0
   -0.6052    1.9646   -0.8973 C   0  0  0  1  0  0  0  0  0  0  0  0
    1.0146    1.8208   -2.6535 O   0  0  0  1  0  0  0  0  0  0  0  0
   -0.7179    0.4058   -2.7880 N   0  0  0  1  0  0  0  0  0  0  0  0
   -2.2116    1.0284    0.1474 H   0  0  0  1  0  0  0  0  0  0  0  0
   -0.5383   -0.0713    0.4488 C   0  0  0  1  0  0  0  0  0  0  0  0
   -0.2405   -0.1442   -4.0479 C   0  0  0  1  0  0  0  0  0  0  0  0
   -1.2456   -1.0588    1.3492 C   0  0  0  1  0  0  0  0  0  0  0  0
    0.6557   -0.2028    0.1829 O   0  0  0  1  0  0  0  0  0  0  0  0
   -1.5376    0.0553   -2.3808 H   0  0  0  1  0  0  0  0  0  0  0  0
    0.6445    0.3749   -4.3517 H   0  0  0  1  0  0  0  0  0  0  0  0
   -0.9963   -0.0284   -4.7965 H   0  0  0  1  0  0  0  0  0  0  0  0
   -0.0187   -1.1833   -3.9220 H   0  0  0  1  0  0  0  0  0  0  0  0
   -1.7046   -1.8200    0.7535 H   0  0  0  1  0  0  0  0  0  0  0  0
   -1.9961   -0.5494    1.9168 H   0  0  0  1  0  0  0  0  0  0  0  0
   -0.5367   -1.5057    2.0144 H   0  0  0  1  0  0  0  0  0  0  0  0
   -2.0833    3.5946   -5.2132 F   0  0  0  1  0  0  0  0  0  0  0  0
   -1.9889    3.7984   -3.8981 C   0  0  0  1  0  0  0  0  0  0  0  0
   -0.7643    3.4032   -3.5467 F   0  0  0  1  0  0  0  0  0  0  0  0
   -2.0200    5.1214   -3.7216 F   0  0  0  1  0  0  0  0  0  0  0  0
   -3.0718    3.0856   -3.1230 C   0  0  0  1  0  0  0  0  0  0  0  0
   -2.8704    2.7581   -1.7912 C   0  0  0  1  0  0  0  0  0  0  0  0
   -3.8597    2.1011   -1.0840 C   0  0  0  1  0  0  0  0  0  0  0  0
   -5.0551    1.7744   -1.7050 C   0  0  0  1  0  0  0  0  0  0  0  0
   -5.2557    2.1009   -3.0329 C   0  0  0  1  0  0  0  0  0  0  0  0
   -4.2637    2.7599   -3.7423 C   0  0  0  1  0  0  0  0  0  0  0  0
   -1.5703    3.1190   -1.1122 C   0  0  0  1  0  0  0  0  0  0  0  0
   -3.7071    1.8518   -0.0860 H   0  0  0  1  0  0  0  0  0  0  0  0
   -5.8010    1.2836   -1.1717 H   0  0  0  1  0  0  0  0  0  0  0  0
   -6.1510    1.8523   -3.4999 H   0  0  0  1  0  0  0  0  0  0  0  0
   -4.4163    3.0091   -4.7404 H   0  0  0  1  0  0  0  0  0  0  0  0
   -1.0770    3.8541   -1.7131 H   0  0  0  1  0  0  0  0  0  0  0  0
   -1.8027    3.5373   -0.1552 H   0  0  0  1  0  0  0  0  0  0  0  0
  1  4  1  0  0  0  0
  2  4  1  0  0  0  0
  2  5  2  0  0  0  0
  2  6  1  0  0  0  0
  3  4  1  0  0  0  0
  3  7  1  0  0  0  0
  3  8  1  0  0  0  0
  4 29  1  0  0  0  0
  6  9  1  0  0  0  0
  6 12  1  0  0  0  0
  8 10  1  0  0  0  0
  8 11  2  0  0  0  0
  9 13  1  0  0  0  0
  9 14  1  0  0  0  0
  9 15  1  0  0  0  0
 10 16  1  0  0  0  0
 10 17  1  0  0  0  0
 10 18  1  0  0  0  0
 19 20  1  0  0  0  0
 20 21  1  0  0  0  0
 20 22  1  0  0  0  0
 20 23  1  0  0  0  0
 23 24  4  0  0  0  0
 23 28  4  0  0  0  0
 24 25  4  0  0  0  0
 24 29  1  0  0  0  0
 25 26  4  0  0  0  0
 25 30  1  0  0  0  0
 26 27  4  0  0  0  0
 26 31  1  0  0  0  0
 27 28  4  0  0  0  0
 27 32  1  0  0  0  0
 28 33  1  0  0  0  0
 29 34  1  0  0  0  0
 29 35  1  0  0  0  0
M  END
> <BCLConfClusterSize>
1

> <ConfClashScore>
0.00131705 

> <ConfOneFourInteractionScore>
-0.950605 

> <ConfScore>
0.376974 

> <ConfScorePBest>
0.00606803 

> <ConfTolerance>
0.407853 

> <RosettaParamsInstructions>
M  ROOT 3
M  POLY_N_BB 3
M  POLY_CA_BB 4
M  POLY_C_BB 2
M  POLY_O_BB 5
M  POLY_IGNORE 9 10 11 12 13 14 15 16 17 18 
M  POLY_UPPER 6
M  POLY_LOWER 8
M  POLY_CHG 0
M  POLY_PROPERTIES ALPHA_AA D_AA PROTEIN AROMATIC POLYMER 
M  END

$$$$



 35 35  0  0  0  0  0  0  0  0999 V2000
   -1.0438    0.3816   -2.0754 H   0  0  0  1  0  0  0  0  0  0  0  0
   -1.4324    0.3877    0.0217 C   0  0  0  1  0  0  0  0  0  0  0  0
    0.6452    0.9863   -1.0128 N   0  0  0  1  0  0  0  0  0  0  0  0
   -0.7972    0.9882   -1.2291 C   0  0  0  1  0  0  0  0  0  0  0  0
   -1.1258    0.7826    1.1459 O   0  0  0  1  0  0  0  0  0  0  0  0
   -2.3331   -0.5847   -0.1910 N   0  0  0  1  0  0  0  0  0  0  0  0
    1.0969    1.8545   -0.9620 H   0  0  0  1  0  0  0  0  0  0  0  0
    1.4045   -0.1207   -0.8772 C   0  0  0  1  0  0  0  0  0  0  0  0
   -2.8774   -1.3906    0.8916 C   0  0  0  1  0  0  0  0  0  0  0  0
    2.9012    0.0546   -0.7540 C   0  0  0  1  0  0  0  0  0  0  0  0
    0.8964   -1.2409   -0.8543 O   0  0  0  1  0  0  0  0  0  0  0  0
   -2.6346   -0.7579   -1.1072 H   0  0  0  1  0  0  0  0  0  0  0  0
   -2.0777   -1.8680    1.4184 H   0  0  0  1  0  0  0  0  0  0  0  0
   -3.5323   -2.1343    0.4879 H   0  0  0  1  0  0  0  0  0  0  0  0
   -3.4224   -0.7621    1.5646 H   0  0  0  1  0  0  0  0  0  0  0  0
    3.1547    0.2536    0.2663 H   0  0  0  1  0  0  0  0  0  0  0  0
    3.2155    0.8743   -1.3657 H   0  0  0  1  0  0  0  0  0  0  0  0
    3.3924   -0.8399   -1.0754 H   0  0  0  1  0  0  0  0  0  0  0  0
   -1.5430    4.8967   -3.2500 F   0  0  0  1  0  0  0  0  0  0  0  0
   -1.9953    3.8169   -3.8899 C   0  0  0  1  0  0  0  0  0  0  0  0
   -2.4158    4.2396   -5.0831 F   0  0  0  1  0  0  0  0  0  0  0  0
   -0.9314    3.0463   -4.1200 F   0  0  0  1  0  0  0  0  0  0  0  0
   -3.0752    3.0967   -3.1175 C   0  0  0  1  0  0  0  0  0  0  0  0
   -2.7578    2.4149   -1.9531 C   0  0  0  1  0  0  0  0  0  0  0  0
   -3.7457    1.7517   -1.2497 C   0  0  0  1  0  0  0  0  0  0  0  0
   -5.0545    1.7727   -1.7058 C   0  0  0  1  0  0  0  0  0  0  0  0
   -5.3707    2.4525   -2.8668 C   0  0  0  1  0  0  0  0  0  0  0  0
   -4.3802    3.1178   -3.5724 C   0  0  0  1  0  0  0  0  0  0  0  0
   -1.3329    2.3964   -1.4523 C   0  0  0  1  0  0  0  0  0  0  0  0
   -3.5069    1.2367   -0.3783 H   0  0  0  1  0  0  0  0  0  0  0  0
   -5.7984    1.2770   -1.1744 H   0  0  0  1  0  0  0  0  0  0  0  0
   -6.3520    2.4650   -3.2112 H   0  0  0  1  0  0  0  0  0  0  0  0
   -4.6190    3.6327   -4.4438 H   0  0  0  1  0  0  0  0  0  0  0  0
   -0.7123    2.8866   -2.1730 H   0  0  0  1  0  0  0  0  0  0  0  0
   -1.2911    2.9277   -0.5245 H   0  0  0  1  0  0  0  0  0  0  0  0
  1  4  1  0  0  0  0
  2  4  1  0  0  0  0
  2  5  2  0  0  0  0
  2  6  1  0  0  0  0
  3  4  1  0  0  0  0
  3  7  1  0  0  0  0
  3  8  1  0  0  0  0
  4 29  1  0  0  0  0
  6  9  1  0  0  0  0
  6 12  1  0  0  0  0
  8 10  1  0  0  0  0
  8 11  2  0  0  0  0
  9 13  1  0  0  0  0
  9 14  1  0  0  0  0
  9 15  1  0  0  0  0
 10 16  1  0  0  0  0
 10 17  1  0  0  0  0
 10 18  1  0  0  0  0
 19 20  1  0  0  0  0
 20 21  1  0  0  0  0
 20 22  1  0  0  0  0
 20 23  1  0  0  0  0
 23 24  4  0  0  0  0
 23 28  4  0  0  0  0
 24 25  4  0  0  0  0
 24 29  1  0  0  0  0
 25 26  4  0  0  0  0
 25 30  1  0  0  0  0
 26 27  4  0  0  0  0
 26 31  1  0  0  0  0
 27 28  4  0  0  0  0
 27 32  1  0  0  0  0
 28 33  1  0  0  0  0
 29 34  1  0  0  0  0
 29 35  1  0  0  0  0
M  END
> <BCLConfClusterSize>
1

> <ConfClashScore>
0 

> <ConfOneFourInteractionScore>
-0.978127 

> <ConfScore>
0.378043 

> <ConfScorePBest>
0.00603955 

> <ConfTolerance>
0.783312 

> <RosettaParamsInstructions>
M  ROOT 3
M  POLY_N_BB 3
M  POLY_CA_BB 4
M  POLY_C_BB 2
M  POLY_O_BB 5
M  POLY_IGNORE 9 10 11 12 13 14 15 16 17 18 
M  POLY_UPPER 6
M  POLY_LOWER 8
M  POLY_CHG 0
M  POLY_PROPERTIES ALPHA_AA D_AA PROTEIN AROMATIC POLYMER 
M  END

$$$$



 35 35  0  0  0  0  0  0  0  0999 V2000
   -0.4373    1.6299   -3.1795 H   0  0  0  1  0  0  0  0  0  0  0  0
   -1.0156   -0.0879   -2.1012 C   0  0  0  1  0  0  0  0  0  0  0  0
    0.8816    1.4515   -1.5907 N   0  0  0  1  0  0  0  0  0  0  0  0
   -0.4646    1.3237   -2.1546 C   0  0  0  1  0  0  0  0  0  0  0  0
   -1.8319   -0.4864   -2.9310 O   0  0  0  1  0  0  0  0  0  0  0  0
   -0.5558   -0.8560   -1.1009 N   0  0  0  1  0  0  0  0  0  0  0  0
    1.3064    0.6807   -1.1597 H   0  0  0  1  0  0  0  0  0  0  0  0
    1.5341    2.6217   -1.6632 C   0  0  0  1  0  0  0  0  0  0  0  0
   -0.9221   -2.2580   -0.9658 C   0  0  0  1  0  0  0  0  0  0  0  0
    2.9574    2.6157   -1.1403 C   0  0  0  1  0  0  0  0  0  0  0  0
    1.0274    3.6426   -2.1206 O   0  0  0  1  0  0  0  0  0  0  0  0
    0.0475   -0.4589   -0.4386 H   0  0  0  1  0  0  0  0  0  0  0  0
   -1.8555   -2.4324   -1.4590 H   0  0  0  1  0  0  0  0  0  0  0  0
   -1.0157   -2.5035    0.0715 H   0  0  0  1  0  0  0  0  0  0  0  0
   -0.1644   -2.8688   -1.4105 H   0  0  0  1  0  0  0  0  0  0  0  0
    3.1809    1.6558   -0.7239 H   0  0  0  1  0  0  0  0  0  0  0  0
    3.0624    3.3655   -0.3841 H   0  0  0  1  0  0  0  0  0  0  0  0
    3.6332    2.8218   -1.9439 H   0  0  0  1  0  0  0  0  0  0  0  0
   -1.3232    4.7217   -3.1940 F   0  0  0  1  0  0  0  0  0  0  0  0
   -2.0113    3.8299   -3.9089 C   0  0  0  1  0  0  0  0  0  0  0  0
   -2.5158    4.4848   -4.9558 F   0  0  0  1  0  0  0  0  0  0  0  0
   -1.0951    3.0073   -4.4212 F   0  0  0  1  0  0  0  0  0  0  0  0
   -3.0595    3.0926   -3.1010 C   0  0  0  1  0  0  0  0  0  0  0  0
   -2.7492    2.3916   -1.9460 C   0  0  0  1  0  0  0  0  0  0  0  0
   -3.7444    1.7319   -1.2499 C   0  0  0  1  0  0  0  0  0  0  0  0
   -5.0535    1.7755   -1.7036 C   0  0  0  1  0  0  0  0  0  0  0  0
   -5.3627    2.4744   -2.8552 C   0  0  0  1  0  0  0  0  0  0  0  0
   -4.3647    3.1362   -3.5535 C   0  0  0  1  0  0  0  0  0  0  0  0
   -1.3430    2.3132   -1.4003 C   0  0  0  1  0  0  0  0  0  0  0  0
   -3.5111    1.2026   -0.3856 H   0  0  0  1  0  0  0  0  0  0  0  0
   -5.8030    1.2823   -1.1776 H   0  0  0  1  0  0  0  0  0  0  0  0
   -6.3442    2.5038   -3.1978 H   0  0  0  1  0  0  0  0  0  0  0  0
   -4.5981    3.6655   -4.4178 H   0  0  0  1  0  0  0  0  0  0  0  0
   -0.8973    3.2837   -1.4667 H   0  0  0  1  0  0  0  0  0  0  0  0
   -1.3920    2.0122   -0.3747 H   0  0  0  1  0  0  0  0  0  0  0  0
  1  4  1  0  0  0  0
  2  4  1  0  0  0  0
  2  5  2  0  0  0  0
  2  6  1  0  0  0  0
  3  4  1  0  0  0  0
  3  7  1  0  0  0  0
  3  8  1  0  0  0  0
  4 29  1  0  0  0  0
  6  9  1  0  0  0  0
  6 12  1  0  0  0  0
  8 10  1  0  0  0  0
  8 11  2  0  0  0  0
  9 13  1  0  0  0  0
  9 14  1  0  0  0  0
  9 15  1  0  0  0  0
 10 16  1  0  0  0  0
 10 17  1  0  0  0  0
 10 18  1  0  0  0  0
 19 20  1  0  0  0  0
 20 21  1  0  0  0  0
 20 22  1  0  0  0  0
 20 23  1  0  0  0  0
 23 24  4  0  0  0  0
 23 28  4  0  0  0  0
 24 25  4  0  0  0  0
 24 29  1  0  0  0  0
 25 26  4  0  0  0  0
 25 30  1  0  0  0  0
 26 27  4  0  0  0  0
 26 31  1  0  0  0  0
 27 28  4  0  0  0  0
 27 32  1  0  0  0  0
 28 33  1  0  0  0  0
 29 34  1  0  0  0  0
 29 35  1  0  0  0  0
M  END
> <BCLConfClusterSize>
1

> <ConfClashScore>
0 

> <ConfOneFourInteractionScore>
-0.962347 

> <ConfScore>
0.379585 

> <ConfScorePBest>
0.00601107 

> <ConfTolerance>
0.560386 

> <RosettaParamsInstructions>
M  ROOT 3
M  POLY_N_BB 3
M  POLY_CA_BB 4
M  POLY_C_BB 2
M  POLY_O_BB 5
M  POLY_IGNORE 9 10 11 12 13 14 15 16 17 18 
M  POLY_UPPER 6
M  POLY_LOWER 8
M  POLY_CHG 0
M  POLY_PROPERTIES ALPHA_AA D_AA PROTEIN AROMATIC POLYMER 
M  END

$$$$



 35 35  0  0  0  0  0  0  0  0999 V2000
   -0.0040    3.1590    0.0058 H   0  0  0  1  0  0  0  0  0  0  0  0
   -1.9357    3.4464    0.7963 C   0  0  0  1  0  0  0  0  0  0  0  0
   -0.8550    4.7284   -1.0186 N   0  0  0  1  0  0  0  0  0  0  0  0
   -0.9662    3.4262   -0.3785 C   0  0  0  1  0  0  0  0  0  0  0  0
   -2.5859    2.4507    1.1033 O   0  0  0  1  0  0  0  0  0  0  0  0
   -2.0248    4.6052    1.4554 N   0  0  0  1  0  0  0  0  0  0  0  0
   -1.6429    5.3105   -1.0466 H   0  0  0  1  0  0  0  0  0  0  0  0
    0.2839    5.1580   -1.5693 C   0  0  0  1  0  0  0  0  0  0  0  0
   -2.7936    4.7440    2.6832 C   0  0  0  1  0  0  0  0  0  0  0  0
    0.2176    6.5122   -2.2482 C   0  0  0  1  0  0  0  0  0  0  0  0
    1.3294    4.5103   -1.5376 O   0  0  0  1  0  0  0  0  0  0  0  0
   -1.5562    5.3889    1.0996 H   0  0  0  1  0  0  0  0  0  0  0  0
   -2.7168    5.7495    3.0409 H   0  0  0  1  0  0  0  0  0  0  0  0
   -2.4091    4.0724    3.4223 H   0  0  0  1  0  0  0  0  0  0  0  0
   -3.8200    4.5120    2.4893 H   0  0  0  1  0  0  0  0  0  0  0  0
    1.0154    6.5963   -2.9562 H   0  0  0  1  0  0  0  0  0  0  0  0
    0.3104    7.2843   -1.5133 H   0  0  0  1  0  0  0  0  0  0  0  0
   -0.7199    6.6116   -2.7543 H   0  0  0  1  0  0  0  0  0  0  0  0
   -1.6066    4.9552   -3.3189 F   0  0  0  1  0  0  0  0  0  0  0  0
   -1.9898    3.8127   -3.8914 C   0  0  0  1  0  0  0  0  0  0  0  0
   -2.3993    4.1691   -5.1098 F   0  0  0  1  0  0  0  0  0  0  0  0
   -0.9090    3.0838   -4.0792 F   0  0  0  1  0  0  0  0  0  0  0  0
   -3.0707    3.0950   -3.1180 C   0  0  0  1  0  0  0  0  0  0  0  0
   -2.7558    2.4220   -1.9478 C   0  0  0  1  0  0  0  0  0  0  0  0
   -3.7445    1.7610   -1.2435 C   0  0  0  1  0  0  0  0  0  0  0  0
   -5.0517    1.7756   -1.7044 C   0  0  0  1  0  0  0  0  0  0  0  0
   -5.3654    2.4467   -2.8712 C   0  0  0  1  0  0  0  0  0  0  0  0
   -4.3740    3.1097   -3.5777 C   0  0  0  1  0  0  0  0  0  0  0  0
   -1.3514    2.3759   -1.3937 C   0  0  0  1  0  0  0  0  0  0  0  0
   -3.5077    1.2527   -0.3677 H   0  0  0  1  0  0  0  0  0  0  0  0
   -5.7963    1.2816   -1.1723 H   0  0  0  1  0  0  0  0  0  0  0  0
   -6.3455    2.4543   -3.2192 H   0  0  0  1  0  0  0  0  0  0  0  0
   -4.6109    3.6180   -4.4535 H   0  0  0  1  0  0  0  0  0  0  0  0
   -1.2211    1.4201   -0.9307 H   0  0  0  1  0  0  0  0  0  0  0  0
   -0.6780    2.4673   -2.2201 H   0  0  0  1  0  0  0  0  0  0  0  0
  1  4  1  0  0  0  0
  2  4  1  0  0  0  0
  2  5  2  0  0  0  0
  2  6  1  0  0  0  0
  3  4  1  0  0  0  0
  3  7  1  0  0  0  0
  3  8  1  0  0  0  0
  4 29  1  0  0  0  0
  6  9  1  0  0  0  0
  6 12  1  0  0  0  0
  8 10  1  0  0  0  0
  8 11  2  0  0  0  0
  9 13  1  0  0  0  0
  9 14  1  0  0  0  0
  9 15  1  0  0  0  0
 10 16  1  0  0  0  0
 10 17  1  0  0  0  0
 10 18  1  0  0  0  0
 19 20  1  0  0  0  0
 20 21  1  0  0  0  0
 20 22  1  0  0  0  0
 20 23  1  0  0  0  0
 23 24  4  0  0  0  0
 23 28  4  0  0  0  0
 24 25  4  0  0  0  0
 24 29  1  0  0  0  0
 25 26  4  0  0  0  0
 25 30  1  0  0  0  0
 26 27  4  0  0  0  0
 26 31  1  0  0  0  0
 27 28  4  0  0  0  0
 27 32  1  0  0  0  0
 28 33  1  0  0  0  0
 29 34  1  0  0  0  0
 29 35  1  0  0  0  0
M  END
> <BCLConfClusterSize>
1

> <ConfClashScore>
0 

> <ConfOneFourInteractionScore>
-0.957364 

> <ConfScore>
0.381273 

> <ConfScorePBest>
0.00598259 

> <ConfTolerance>
0.608132 

> <RosettaParamsInstructions>
M  ROOT 3
M  POLY_N_BB 3
M  POLY_CA_BB 4
M  POLY_C_BB 2
M  POLY_O_BB 5
M  POLY_IGNORE 9 10 11 12 13 14 15 16 17 18 
M  POLY_UPPER 6
M  POLY_LOWER 8
M  POLY_CHG 0
M  POLY_PROPERTIES ALPHA_AA D_AA PROTEIN AROMATIC POLYMER 
M  END

$$$$



 35 35  0  0  0  0  0  0  0  0999 V2000
   -0.7201    1.1428   -3.1524 H   0  0  0  1  0  0  0  0  0  0  0  0
   -0.9853   -0.1095   -1.4846 C   0  0  0  1  0  0  0  0  0  0  0  0
    0.9056    1.4124   -1.9196 N   0  0  0  1  0  0  0  0  0  0  0  0
   -0.5220    1.1968   -2.1023 C   0  0  0  1  0  0  0  0  0  0  0  0
   -2.0900   -0.1981   -0.9503 O   0  0  0  1  0  0  0  0  0  0  0  0
   -0.1588   -1.1578   -1.5387 N   0  0  0  1  0  0  0  0  0  0  0  0
    1.4216    1.7126   -2.6969 H   0  0  0  1  0  0  0  0  0  0  0  0
    1.5634    1.2326   -0.7763 C   0  0  0  1  0  0  0  0  0  0  0  0
   -0.5441   -2.4771   -1.0602 C   0  0  0  1  0  0  0  0  0  0  0  0
    3.0801    1.4621   -0.7695 C   0  0  0  1  0  0  0  0  0  0  0  0
    1.0275    0.8927    0.2777 O   0  0  0  1  0  0  0  0  0  0  0  0
    0.7382   -1.0341   -1.9137 H   0  0  0  1  0  0  0  0  0  0  0  0
   -0.5912   -3.1566   -1.8853 H   0  0  0  1  0  0  0  0  0  0  0  0
   -1.5038   -2.4196   -0.5905 H   0  0  0  1  0  0  0  0  0  0  0  0
    0.1794   -2.8250   -0.3528 H   0  0  0  1  0  0  0  0  0  0  0  0
    3.3158    2.3099   -1.3782 H   0  0  0  1  0  0  0  0  0  0  0  0
    3.5734    0.5959   -1.1584 H   0  0  0  1  0  0  0  0  0  0  0  0
    3.4090    1.6405    0.2330 H   0  0  0  1  0  0  0  0  0  0  0  0
   -1.4624    4.8090   -3.1256 F   0  0  0  1  0  0  0  0  0  0  0  0
   -1.9915    3.8327   -3.8650 C   0  0  0  1  0  0  0  0  0  0  0  0
   -2.3955    4.3891   -4.9979 F   0  0  0  1  0  0  0  0  0  0  0  0
   -0.9685    3.0570   -4.2050 F   0  0  0  1  0  0  0  0  0  0  0  0
   -3.0855    3.0633   -3.1508 C   0  0  0  1  0  0  0  0  0  0  0  0
   -2.7595    2.3882   -1.9848 C   0  0  0  1  0  0  0  0  0  0  0  0
   -3.7451    1.7446   -1.2604 C   0  0  0  1  0  0  0  0  0  0  0  0
   -5.0603    1.7788   -1.6969 C   0  0  0  1  0  0  0  0  0  0  0  0
   -5.3852    2.4519   -2.8594 C   0  0  0  1  0  0  0  0  0  0  0  0
   -4.3969    3.0974   -3.5860 C   0  0  0  1  0  0  0  0  0  0  0  0
   -1.3125    2.3873   -1.5515 C   0  0  0  1  0  0  0  0  0  0  0  0
   -3.4999    1.2347   -0.3878 H   0  0  0  1  0  0  0  0  0  0  0  0
   -5.8025    1.2979   -1.1496 H   0  0  0  1  0  0  0  0  0  0  0  0
   -6.3713    2.4742   -3.1890 H   0  0  0  1  0  0  0  0  0  0  0  0
   -4.6421    3.6074   -4.4587 H   0  0  0  1  0  0  0  0  0  0  0  0
   -0.8532    3.2901   -1.8964 H   0  0  0  1  0  0  0  0  0  0  0  0
   -1.2771    2.3544   -0.4826 H   0  0  0  1  0  0  0  0  0  0  0  0
  1  4  1  0  0  0  0
  2  4  1  0  0  0  0
  2  5  2  0  0  0  0
  2  6  1  0  0  0  0
  3  4  1  0  0  0  0
  3  7  1  0  0  0  0
  3  8  1  0  0  0  0
  4 29  1  0  0  0  0
  6  9  1  0  0  0  0
  6 12  1  0  0  0  0
  8 10  1  0  0  0  0
  8 11  2  0  0  0  0
  9 13  1  0  0  0  0
  9 14  1  0  0  0  0
  9 15  1  0  0  0  0
 10 16  1  0  0  0  0
 10 17  1  0  0  0  0
 10 18  1  0  0  0  0
 19 20  1  0  0  0  0
 20 21  1  0  0  0  0
 20 22  1  0  0  0  0
 20 23  1  0  0  0  0
 23 24  4  0  0  0  0
 23 28  4  0  0  0  0
 24 25  4  0  0  0  0
 24 29  1  0  0  0  0
 25 26  4  0  0  0  0
 25 30  1  0  0  0  0
 26 27  4  0  0  0  0
 26 31  1  0  0  0  0
 27 28  4  0  0  0  0
 27 32  1  0  0  0  0
 28 33  1  0  0  0  0
 29 34  1  0  0  0  0
 29 35  1  0  0  0  0
M  END
> <BCLConfClusterSize>
1

> <ConfClashScore>
0 

> <ConfOneFourInteractionScore>
-0.957364 

> <ConfScore>
0.384531 

> <ConfScorePBest>
0.00595411 

> <ConfTolerance>
0.321157 

> <RosettaParamsInstructions>
M  ROOT 3
M  POLY_N_BB 3
M  POLY_CA_BB 4
M  POLY_C_BB 2
M  POLY_O_BB 5
M  POLY_IGNORE 9 10 11 12 13 14 15 16 17 18 
M  POLY_UPPER 6
M  POLY_LOWER 8
M  POLY_CHG 0
M  POLY_PROPERTIES ALPHA_AA D_AA PROTEIN AROMATIC POLYMER 
M  END

$$$$



 35 35  0  0  0  0  0  0  0  0999 V2000
   -1.0057    0.6206   -0.8480 H   0  0  0  1  0  0  0  0  0  0  0  0
    0.8134    1.6927   -0.7110 C   0  0  0  1  0  0  0  0  0  0  0  0
   -0.3664    1.0333   -2.7714 N   0  0  0  1  0  0  0  0  0  0  0  0
   -0.5273    1.4181   -1.3772 C   0  0  0  1  0  0  0  0  0  0  0  0
    0.9774    1.5069    0.4938 O   0  0  0  1  0  0  0  0  0  0  0  0
    1.7845    2.1437   -1.5196 N   0  0  0  1  0  0  0  0  0  0  0  0
    0.4141    1.3606   -3.2654 H   0  0  0  1  0  0  0  0  0  0  0  0
   -1.2458    0.2492   -3.4014 C   0  0  0  1  0  0  0  0  0  0  0  0
    3.1393    2.3867   -1.0469 C   0  0  0  1  0  0  0  0  0  0  0  0
   -1.0228    0.0734   -4.8909 C   0  0  0  1  0  0  0  0  0  0  0  0
   -2.1754   -0.2988   -2.8312 O   0  0  0  1  0  0  0  0  0  0  0  0
    1.5742    2.3154   -2.4612 H   0  0  0  1  0  0  0  0  0  0  0  0
    3.5639    1.4705   -0.6931 H   0  0  0  1  0  0  0  0  0  0  0  0
    3.1160    3.1000   -0.2497 H   0  0  0  1  0  0  0  0  0  0  0  0
    3.7340    2.7683   -1.8504 H   0  0  0  1  0  0  0  0  0  0  0  0
   -0.1067    0.5487   -5.1734 H   0  0  0  1  0  0  0  0  0  0  0  0
   -1.8350    0.5174   -5.4277 H   0  0  0  1  0  0  0  0  0  0  0  0
   -0.9693   -0.9698   -5.1227 H   0  0  0  1  0  0  0  0  0  0  0  0
   -0.8367    3.1251   -3.9086 F   0  0  0  1  0  0  0  0  0  0  0  0
   -1.9807    3.8112   -3.8822 C   0  0  0  1  0  0  0  0  0  0  0  0
   -1.6952    5.0134   -3.3797 F   0  0  0  1  0  0  0  0  0  0  0  0
   -2.2878    4.0323   -5.1610 F   0  0  0  1  0  0  0  0  0  0  0  0
   -3.0912    3.0988   -3.1383 C   0  0  0  1  0  0  0  0  0  0  0  0
   -2.7914    2.5455   -1.9032 C   0  0  0  1  0  0  0  0  0  0  0  0
   -3.7696    1.8807   -1.1881 C   0  0  0  1  0  0  0  0  0  0  0  0
   -5.0518    1.7717   -1.7036 C   0  0  0  1  0  0  0  0  0  0  0  0
   -5.3505    2.3234   -2.9351 C   0  0  0  1  0  0  0  0  0  0  0  0
   -4.3695    2.9902   -3.6524 C   0  0  0  1  0  0  0  0  0  0  0  0
   -1.4148    2.6372   -1.2881 C   0  0  0  1  0  0  0  0  0  0  0  0
   -3.5438    1.4621   -0.2633 H   0  0  0  1  0  0  0  0  0  0  0  0
   -5.7889    1.2749   -1.1637 H   0  0  0  1  0  0  0  0  0  0  0  0
   -6.3114    2.2382   -3.3237 H   0  0  0  1  0  0  0  0  0  0  0  0
   -4.5954    3.4088   -4.5773 H   0  0  0  1  0  0  0  0  0  0  0  0
   -0.9017    3.4427   -1.7705 H   0  0  0  1  0  0  0  0  0  0  0  0
   -1.5423    2.8653   -0.2506 H   0  0  0  1  0  0  0  0  0  0  0  0
  1  4  1  0  0  0  0
  2  4  1  0  0  0  0
  2  5  2  0  0  0  0
  2  6  1  0  0  0  0
  3  4  1  0  0  0  0
  3  7  1  0  0  0  0
  3  8  1  0  0  0  0
  4 29  1  0  0  0  0
  6  9  1  0  0  0  0
  6 12  1  0  0  0  0
  8 10  1  0  0  0  0
  8 11  2  0  0  0  0
  9 13  1  0  0  0  0
  9 14  1  0  0  0  0
  9 15  1  0  0  0  0
 10 16  1  0  0  0  0
 10 17  1  0  0  0  0
 10 18  1  0  0  0  0
 19 20  1  0  0  0  0
 20 21  1  0  0  0  0
 20 22  1  0  0  0  0
 20 23  1  0  0  0  0
 23 24  4  0  0  0  0
 23 28  4  0  0  0  0
 24 25  4  0  0  0  0
 24 29  1  0  0  0  0
 25 26  4  0  0  0  0
 25 30  1  0  0  0  0
 26 27  4  0  0  0  0
 26 31  1  0  0  0  0
 27 28  4  0  0  0  0
 27 32  1  0  0  0  0
 28 33  1  0  0  0  0
 29 34  1  0  0  0  0
 29 35  1  0  0  0  0
M  END
> <BCLConfClusterSize>
1

> <ConfClashScore>
0 

> <ConfOneFourInteractionScore>
-0.965014 

> <ConfScore>
0.385735 

> <ConfScorePBest>
0.00592562 

> <ConfTolerance>
0.550278 

> <RosettaParamsInstructions>
M  ROOT 3
M  POLY_N_BB 3
M  POLY_CA_BB 4
M  POLY_C_BB 2
M  POLY_O_BB 5
M  POLY_IGNORE 9 10 11 12 13 14 15 16 17 18 
M  POLY_UPPER 6
M  POLY_LOWER 8
M  POLY_CHG 0
M  POLY_PROPERTIES ALPHA_AA D_AA PROTEIN AROMATIC POLYMER 
M  END

$$$$



 35 35  0  0  0  0  0  0  0  0999 V2000
   -1.8178    1.4965    0.3388 H   0  0  0  1  0  0  0  0  0  0  0  0
    0.2745    1.4826    0.2605 C   0  0  0  1  0  0  0  0  0  0  0  0
   -1.3020    0.0301   -1.0085 N   0  0  0  1  0  0  0  0  0  0  0  0
   -1.0762    1.3538   -0.4192 C   0  0  0  1  0  0  0  0  0  0  0  0
    0.5046    2.4094    1.0362 O   0  0  0  1  0  0  0  0  0  0  0  0
    1.2036    0.5611   -0.0088 N   0  0  0  1  0  0  0  0  0  0  0  0
   -1.6354   -0.0049   -1.9295 H   0  0  0  1  0  0  0  0  0  0  0  0
   -1.0880   -1.1298   -0.3856 C   0  0  0  1  0  0  0  0  0  0  0  0
    2.5487    0.6291    0.5426 C   0  0  0  1  0  0  0  0  0  0  0  0
   -1.5336   -2.3776   -1.1384 C   0  0  0  1  0  0  0  0  0  0  0  0
   -0.5656   -1.2070    0.7256 O   0  0  0  1  0  0  0  0  0  0  0  0
    0.9713   -0.1867   -0.5981 H   0  0  0  1  0  0  0  0  0  0  0  0
    3.0283    1.5239    0.2049 H   0  0  0  1  0  0  0  0  0  0  0  0
    3.1107   -0.2212    0.2170 H   0  0  0  1  0  0  0  0  0  0  0  0
    2.4959    0.6345    1.6113 H   0  0  0  1  0  0  0  0  0  0  0  0
   -2.4257   -2.1631   -1.6889 H   0  0  0  1  0  0  0  0  0  0  0  0
   -1.7263   -3.1653   -0.4403 H   0  0  0  1  0  0  0  0  0  0  0  0
   -0.7616   -2.6806   -1.8146 H   0  0  0  1  0  0  0  0  0  0  0  0
   -1.5265    4.8821   -3.2163 F   0  0  0  1  0  0  0  0  0  0  0  0
   -1.9816    3.8158   -3.8763 C   0  0  0  1  0  0  0  0  0  0  0  0
   -2.3678    4.2561   -5.0748 F   0  0  0  1  0  0  0  0  0  0  0  0
   -0.9254    3.0298   -4.0895 F   0  0  0  1  0  0  0  0  0  0  0  0
   -3.0935    3.1046   -3.1334 C   0  0  0  1  0  0  0  0  0  0  0  0
   -2.7636    2.4247   -1.9713 C   0  0  0  1  0  0  0  0  0  0  0  0
   -3.7424    1.7557   -1.2608 C   0  0  0  1  0  0  0  0  0  0  0  0
   -5.0546    1.7690   -1.7072 C   0  0  0  1  0  0  0  0  0  0  0  0
   -5.3833    2.4469   -2.8659 C   0  0  0  1  0  0  0  0  0  0  0  0
   -4.4019    3.1180   -3.5787 C   0  0  0  1  0  0  0  0  0  0  0  0
   -1.3350    2.4145   -1.4811 C   0  0  0  1  0  0  0  0  0  0  0  0
   -3.4942    1.2422   -0.3911 H   0  0  0  1  0  0  0  0  0  0  0  0
   -5.7917    1.2690   -1.1704 H   0  0  0  1  0  0  0  0  0  0  0  0
   -6.3671    2.4536   -3.2031 H   0  0  0  1  0  0  0  0  0  0  0  0
   -4.6501    3.6314   -4.4484 H   0  0  0  1  0  0  0  0  0  0  0  0
   -0.6904    2.2268   -2.3142 H   0  0  0  1  0  0  0  0  0  0  0  0
   -1.1108    3.3746   -1.0652 H   0  0  0  1  0  0  0  0  0  0  0  0
  1  4  1  0  0  0  0
  2  4  1  0  0  0  0
  2  5  2  0  0  0  0
  2  6  1  0  0  0  0
  3  4  1  0  0  0  0
  3  7  1  0  0  0  0
  3  8  1  0  0  0  0
  4 29  1  0  0  0  0
  6  9  1  0  0  0  0
  6 12  1  0  0  0  0
  8 10  1  0  0  0  0
  8 11  2  0  0  0  0
  9 13  1  0  0  0  0
  9 14  1  0  0  0  0
  9 15  1  0  0  0  0
 10 16  1  0  0  0  0
 10 17  1  0  0  0  0
 10 18  1  0  0  0  0
 19 20  1  0  0  0  0
 20 21  1  0  0  0  0
 20 22  1  0  0  0  0
 20 23  1  0  0  0  0
 23 24  4  0  0  0  0
 23 28  4  0  0  0  0
 24 25  4  0  0  0  0
 24 29  1  0  0  0  0
 25 26  4  0  0  0  0
 25 30  1  0  0  0  0
 26 27  4  0  0  0  0
 26 31  1  0  0  0  0
 27 28  4  0  0  0  0
 27 32  1  0  0  0  0
 28 33  1  0  0  0  0
 29 34  1  0  0  0  0
 29 35  1  0  0  0  0
M  END
> <BCLConfClusterSize>
1

> <ConfClashScore>
0 

> <ConfOneFourInteractionScore>
-0.949001 

> <ConfScore>
0.386776 

> <ConfScorePBest>
0.00589714 

> <ConfTolerance>
0.429599 

> <RosettaParamsInstructions>
M  ROOT 3
M  POLY_N_BB 3
M  POLY_CA_BB 4
M  POLY_C_BB 2
M  POLY_O_BB 5
M  POLY_IGNORE 9 10 11 12 13 14 15 16 17 18 
M  POLY_UPPER 6
M  POLY_LOWER 8
M  POLY_CHG 0
M  POLY_PROPERTIES ALPHA_AA D_AA PROTEIN AROMATIC POLYMER 
M  END

$$$$



 35 35  0  0  0  0  0  0  0  0999 V2000
   -1.3473    1.3881    0.1221 H   0  0  0  1  0  0  0  0  0  0  0  0
    0.5525    2.2756   -0.0858 C   0  0  0  1  0  0  0  0  0  0  0  0
   -0.6991    0.8962   -1.7706 N   0  0  0  1  0  0  0  0  0  0  0  0
   -0.7824    1.8391   -0.6667 C   0  0  0  1  0  0  0  0  0  0  0  0
    0.6491    2.6476    1.0829 O   0  0  0  1  0  0  0  0  0  0  0  0
    1.5983    2.2262   -0.9260 N   0  0  0  1  0  0  0  0  0  0  0  0
   -0.7330    1.2209   -2.6946 H   0  0  0  1  0  0  0  0  0  0  0  0
   -0.5751   -0.4247   -1.5254 C   0  0  0  1  0  0  0  0  0  0  0  0
    2.9160    2.7217   -0.5571 C   0  0  0  1  0  0  0  0  0  0  0  0
   -0.5896   -1.3253   -2.7451 C   0  0  0  1  0  0  0  0  0  0  0  0
   -0.4568   -0.8873   -0.3915 O   0  0  0  1  0  0  0  0  0  0  0  0
    1.4700    1.8431   -1.8188 H   0  0  0  1  0  0  0  0  0  0  0  0
    3.6575    2.2577   -1.1733 H   0  0  0  1  0  0  0  0  0  0  0  0
    3.1095    2.4897    0.4694 H   0  0  0  1  0  0  0  0  0  0  0  0
    2.9497    3.7821   -0.6961 H   0  0  0  1  0  0  0  0  0  0  0  0
    0.2685   -1.1203   -3.3507 H   0  0  0  1  0  0  0  0  0  0  0  0
   -1.4781   -1.1426   -3.3125 H   0  0  0  1  0  0  0  0  0  0  0  0
   -0.5693   -2.3485   -2.4329 H   0  0  0  1  0  0  0  0  0  0  0  0
   -2.3994    4.1924   -5.1050 F   0  0  0  1  0  0  0  0  0  0  0  0
   -1.9894    3.7995   -3.8978 C   0  0  0  1  0  0  0  0  0  0  0  0
   -0.9163    3.0333   -4.0997 F   0  0  0  1  0  0  0  0  0  0  0  0
   -1.5539    4.8961   -3.2761 F   0  0  0  1  0  0  0  0  0  0  0  0
   -3.0720    3.0863   -3.1228 C   0  0  0  1  0  0  0  0  0  0  0  0
   -2.8606    2.7356   -1.7984 C   0  0  0  1  0  0  0  0  0  0  0  0
   -3.8498    2.0783   -1.0914 C   0  0  0  1  0  0  0  0  0  0  0  0
   -5.0551    1.7745   -1.7050 C   0  0  0  1  0  0  0  0  0  0  0  0
   -5.2657    2.1242   -3.0254 C   0  0  0  1  0  0  0  0  0  0  0  0
   -4.2738    2.7835   -3.7346 C   0  0  0  1  0  0  0  0  0  0  0  0
   -1.5497    3.0715   -1.1274 C   0  0  0  1  0  0  0  0  0  0  0  0
   -3.6898    1.8116   -0.0990 H   0  0  0  1  0  0  0  0  0  0  0  0
   -5.8009    1.2835   -1.1717 H   0  0  0  1  0  0  0  0  0  0  0  0
   -6.1685    1.8928   -3.4869 H   0  0  0  1  0  0  0  0  0  0  0  0
   -4.4338    3.0502   -4.7270 H   0  0  0  1  0  0  0  0  0  0  0  0
   -0.9407    3.6122   -1.8213 H   0  0  0  1  0  0  0  0  0  0  0  0
   -1.7511    3.6857   -0.2747 H   0  0  0  1  0  0  0  0  0  0  0  0
  1  4  1  0  0  0  0
  2  4  1  0  0  0  0
  2  5  2  0  0  0  0
  2  6  1  0  0  0  0
  3  4  1  0  0  0  0
  3  7  1  0  0  0  0
  3  8  1  0  0  0  0
  4 29  1  0  0  0  0
  6  9  1  0  0  0  0
  6 12  1  0  0  0  0
  8 10  1  0  0  0  0
  8 11  2  0  0  0  0
  9 13  1  0  0  0  0
  9 14  1  0  0  0  0
  9 15  1  0  0  0  0
 10 16  1  0  0  0  0
 10 17  1  0  0  0  0
 10 18  1  0  0  0  0
 19 20  1  0  0  0  0
 20 21  1  0  0  0  0
 20 22  1  0  0  0  0
 20 23  1  0  0  0  0
 23 24  4  0  0  0  0
 23 28  4  0  0  0  0
 24 25  4  0  0  0  0
 24 29  1  0  0  0  0
 25 26  4  0  0  0  0
 25 30  1  0  0  0  0
 26 27  4  0  0  0  0
 26 31  1  0  0  0  0
 27 28  4  0  0  0  0
 27 32  1  0  0  0  0
 28 33  1  0  0  0  0
 29 34  1  0  0  0  0
 29 35  1  0  0  0  0
M  END
> <BCLConfClusterSize>
1

> <ConfClashScore>
0 

> <ConfOneFourInteractionScore>
-0.960318 

> <ConfScore>
0.390515 

> <ConfScorePBest>
0.00586866 

> <ConfTolerance>
0.568063 

> <RosettaParamsInstructions>
M  ROOT 3
M  POLY_N_BB 3
M  POLY_CA_BB 4
M  POLY_C_BB 2
M  POLY_O_BB 5
M  POLY_IGNORE 9 10 11 12 13 14 15 16 17 18 
M  POLY_UPPER 6
M  POLY_LOWER 8
M  POLY_CHG 0
M  POLY_PROPERTIES ALPHA_AA D_AA PROTEIN AROMATIC POLYMER 
M  END

$$$$



 35 35  0  0  0  0  0  0  0  0999 V2000
   -1.5501    2.8810    0.5393 H   0  0  0  1  0  0  0  0  0  0  0  0
   -1.5506    4.7036   -0.5085 C   0  0  0  1  0  0  0  0  0  0  0  0
    0.3946    3.3252   -0.0085 N   0  0  0  1  0  0  0  0  0  0  0  0
   -1.0432    3.2880   -0.3106 C   0  0  0  1  0  0  0  0  0  0  0  0
   -2.4630    5.0006   -1.2563 O   0  0  0  1  0  0  0  0  0  0  0  0
   -0.9299    5.6509    0.2003 N   0  0  0  1  0  0  0  0  0  0  0  0
    0.7097    2.9476    0.8392 H   0  0  0  1  0  0  0  0  0  0  0  0
    1.2871    3.8559   -0.8492 C   0  0  0  1  0  0  0  0  0  0  0  0
   -1.2774    7.0596    0.0872 C   0  0  0  1  0  0  0  0  0  0  0  0
    2.7417    3.6997   -0.4505 C   0  0  0  1  0  0  0  0  0  0  0  0
    0.9685    4.4367   -1.8835 O   0  0  0  1  0  0  0  0  0  0  0  0
   -0.2158    5.3880    0.8178 H   0  0  0  1  0  0  0  0  0  0  0  0
   -1.5295    7.2848   -0.9280 H   0  0  0  1  0  0  0  0  0  0  0  0
   -0.4429    7.6578    0.3883 H   0  0  0  1  0  0  0  0  0  0  0  0
   -2.1152    7.2718    0.7180 H   0  0  0  1  0  0  0  0  0  0  0  0
    2.9759    2.6602   -0.3539 H   0  0  0  1  0  0  0  0  0  0  0  0
    2.9096    4.1914    0.4849 H   0  0  0  1  0  0  0  0  0  0  0  0
    3.3660    4.1374   -1.2013 H   0  0  0  1  0  0  0  0  0  0  0  0
   -1.2725    4.6454   -3.1510 F   0  0  0  1  0  0  0  0  0  0  0  0
   -2.0043    3.8189   -3.9002 C   0  0  0  1  0  0  0  0  0  0  0  0
   -2.5319    4.5650   -4.8719 F   0  0  0  1  0  0  0  0  0  0  0  0
   -1.1433    2.9897   -4.4915 F   0  0  0  1  0  0  0  0  0  0  0  0
   -3.0572    3.0850   -3.0954 C   0  0  0  1  0  0  0  0  0  0  0  0
   -2.7516    2.3784   -1.9426 C   0  0  0  1  0  0  0  0  0  0  0  0
   -3.7510    1.7220   -1.2492 C   0  0  0  1  0  0  0  0  0  0  0  0
   -5.0596    1.7747   -1.7035 C   0  0  0  1  0  0  0  0  0  0  0  0
   -5.3640    2.4793   -2.8529 C   0  0  0  1  0  0  0  0  0  0  0  0
   -4.3619    3.1376   -3.5484 C   0  0  0  1  0  0  0  0  0  0  0  0
   -1.3111    2.3583   -1.4887 C   0  0  0  1  0  0  0  0  0  0  0  0
   -3.5212    1.1885   -0.3866 H   0  0  0  1  0  0  0  0  0  0  0  0
   -5.8122    1.2842   -1.1795 H   0  0  0  1  0  0  0  0  0  0  0  0
   -6.3451    2.5155   -3.1960 H   0  0  0  1  0  0  0  0  0  0  0  0
   -4.5917    3.6711   -4.4111 H   0  0  0  1  0  0  0  0  0  0  0  0
   -1.0594    1.3596   -1.1985 H   0  0  0  1  0  0  0  0  0  0  0  0
   -0.6918    2.6591   -2.3077 H   0  0  0  1  0  0  0  0  0  0  0  0
  1  4  1  0  0  0  0
  2  4  1  0  0  0  0
  2  5  2  0  0  0  0
  2  6  1  0  0  0  0
  3  4  1  0  0  0  0
  3  7  1  0  0  0  0
  3  8  1  0  0  0  0
  4 29  1  0  0  0  0
  6  9  1  0  0  0  0
  6 12  1  0  0  0  0
  8 10  1  0  0  0  0
  8 11  2  0  0  0  0
  9 13  1  0  0  0  0
  9 14  1  0  0  0  0
  9 15  1  0  0  0  0
 10 16  1  0  0  0  0
 10 17  1  0  0  0  0
 10 18  1  0  0  0  0
 19 20  1  0  0  0  0
 20 21  1  0  0  0  0
 20 22  1  0  0  0  0
 20 23  1  0  0  0  0
 23 24  4  0  0  0  0
 23 28  4  0  0  0  0
 24 25  4  0  0  0  0
 24 29  1  0  0  0  0
 25 26  4  0  0  0  0
 25 30  1  0  0  0  0
 26 27  4  0  0  0  0
 26 31  1  0  0  0  0
 27 28  4  0  0  0  0
 27 32  1  0  0  0  0
 28 33  1  0  0  0  0
 29 34  1  0  0  0  0
 29 35  1  0  0  0  0
M  END
> <BCLConfClusterSize>
1

> <ConfClashScore>
0 

> <ConfOneFourInteractionScore>
-0.957364 

> <ConfScore>
0.394743 

> <ConfScorePBest>
0.00584018 

> <ConfTolerance>
0.321651 

> <RosettaParamsInstructions>
M  ROOT 3
M  POLY_N_BB 3
M  POLY_CA_BB 4
M  POLY_C_BB 2
M  POLY_O_BB 5
M  POLY_IGNORE 9 10 11 12 13 14 15 16 17 18 
M  POLY_UPPER 6
M  POLY_LOWER 8
M  POLY_CHG 0
M  POLY_PROPERTIES ALPHA_AA D_AA PROTEIN AROMATIC POLYMER 
M  END

$$$$



 35 35  0  0  0  0  0  0  0  0999 V2000
   -1.1041    4.4805   -1.2127 H   0  0  0  1  0  0  0  0  0  0  0  0
    0.5937    3.4897   -0.3908 C   0  0  0  1  0  0  0  0  0  0  0  0
   -1.6452    3.5909    0.5855 N   0  0  0  1  0  0  0  0  0  0  0  0
   -0.9050    3.5843   -0.6631 C   0  0  0  1  0  0  0  0  0  0  0  0
    1.4049    4.0559   -1.1222 O   0  0  0  1  0  0  0  0  0  0  0  0
    1.0006    2.7678    0.6739 N   0  0  0  1  0  0  0  0  0  0  0  0
   -2.4636    3.0620    0.6889 H   0  0  0  1  0  0  0  0  0  0  0  0
   -1.1682    4.3556    1.6127 C   0  0  0  1  0  0  0  0  0  0  0  0
    2.4207    2.5719    0.9243 C   0  0  0  1  0  0  0  0  0  0  0  0
   -1.9789    4.2307    2.8879 C   0  0  0  1  0  0  0  0  0  0  0  0
   -0.1818    5.0628    1.4890 O   0  0  0  1  0  0  0  0  0  0  0  0
    0.3384    2.3745    1.2799 H   0  0  0  1  0  0  0  0  0  0  0  0
    2.9107    2.3039    0.0116 H   0  0  0  1  0  0  0  0  0  0  0  0
    2.5514    1.7892    1.6421 H   0  0  0  1  0  0  0  0  0  0  0  0
    2.8442    3.4785    1.3033 H   0  0  0  1  0  0  0  0  0  0  0  0
   -3.0137    4.3957    2.6710 H   0  0  0  1  0  0  0  0  0  0  0  0
   -1.6429    4.9586    3.5966 H   0  0  0  1  0  0  0  0  0  0  0  0
   -1.8524    3.2498    3.2961 H   0  0  0  1  0  0  0  0  0  0  0  0
   -1.3657    4.7332   -3.1449 F   0  0  0  1  0  0  0  0  0  0  0  0
   -1.9836    3.8109   -3.8789 C   0  0  0  1  0  0  0  0  0  0  0  0
   -2.4024    4.4558   -4.9487 F   0  0  0  1  0  0  0  0  0  0  0  0
   -1.0306    3.0037   -4.2913 F   0  0  0  1  0  0  0  0  0  0  0  0
   -3.0955    3.1017   -3.1341 C   0  0  0  1  0  0  0  0  0  0  0  0
   -2.7628    2.4111   -1.9791 C   0  0  0  1  0  0  0  0  0  0  0  0
   -3.7414    1.7434   -1.2673 C   0  0  0  1  0  0  0  0  0  0  0  0
   -5.0563    1.7687   -1.7052 C   0  0  0  1  0  0  0  0  0  0  0  0
   -5.3878    2.4572   -2.8568 C   0  0  0  1  0  0  0  0  0  0  0  0
   -4.4065    3.1270   -3.5709 C   0  0  0  1  0  0  0  0  0  0  0  0
   -1.3311    2.3879   -1.4981 C   0  0  0  1  0  0  0  0  0  0  0  0
   -3.4912    1.2220   -0.4029 H   0  0  0  1  0  0  0  0  0  0  0  0
   -5.7933    1.2696   -1.1673 H   0  0  0  1  0  0  0  0  0  0  0  0
   -6.3737    2.4729   -3.1876 H   0  0  0  1  0  0  0  0  0  0  0  0
   -4.6568    3.6484   -4.4352 H   0  0  0  1  0  0  0  0  0  0  0  0
   -1.1962    1.5071   -0.9057 H   0  0  0  1  0  0  0  0  0  0  0  0
   -0.6950    2.3416   -2.3572 H   0  0  0  1  0  0  0  0  0  0  0  0
  1  4  1  0  0  0  0
  2  4  1  0  0  0  0
  2  5  2  0  0  0  0
  2  6  1  0  0  0  0
  3  4  1  0  0  0  0
  3  7  1  0  0  0  0
  3  8  1  0  0  0  0
  4 29  1  0  0  0  0
  6  9  1  0  0  0  0
  6 12  1  0  0  0  0
  8 10  1  0  0  0  0
  8 11  2  0  0  0  0
  9 13  1  0  0  0  0
  9 14  1  0  0  0  0
  9 15  1  0  0  0  0
 10 16  1  0  0  0  0
 10 17  1  0  0  0  0
 10 18  1  0  0  0  0
 19 20  1  0  0  0  0
 20 21  1  0  0  0  0
 20 22  1  0  0  0  0
 20 23  1  0  0  0  0
 23 24  4  0  0  0  0
 23 28  4  0  0  0  0
 24 25  4  0  0  0  0
 24 29  1  0  0  0  0
 25 26  4  0  0  0  0
 25 30  1  0  0  0  0
 26 27  4  0  0  0  0
 26 31  1  0  0  0  0
 27 28  4  0  0  0  0
 27 32  1  0  0  0  0
 28 33  1  0  0  0  0
 29 34  1  0  0  0  0
 29 35  1  0  0  0  0
M  END
> <BCLConfClusterSize>
1

> <ConfClashScore>
0 

> <ConfOneFourInteractionScore>
-0.953269 

> <ConfScore>
0.395825 

> <ConfScorePBest>
0.0058117 

> <ConfTolerance>
0.42964 

> <RosettaParamsInstructions>
M  ROOT 3
M  POLY_N_BB 3
M  POLY_CA_BB 4
M  POLY_C_BB 2
M  POLY_O_BB 5
M  POLY_IGNORE 9 10 11 12 13 14 15 16 17 18 
M  POLY_UPPER 6
M  POLY_LOWER 8
M  POLY_CHG 0
M  POLY_PROPERTIES ALPHA_AA D_AA PROTEIN AROMATIC POLYMER 
M  END

$$$$



 35 35  0  0  0  0  0  0  0  0999 V2000
   -1.4527    4.7545   -0.7119 H   0  0  0  1  0  0  0  0  0  0  0  0
    0.1600    3.8039    0.3061 C   0  0  0  1  0  0  0  0  0  0  0  0
   -2.1566    3.6195    0.8914 N   0  0  0  1  0  0  0  0  0  0  0  0
   -1.2598    3.8109   -0.2458 C   0  0  0  1  0  0  0  0  0  0  0  0
    0.3821    3.9340    1.4922 O   0  0  0  1  0  0  0  0  0  0  0  0
    1.1009    3.6439   -0.6319 N   0  0  0  1  0  0  0  0  0  0  0  0
   -1.9937    2.8698    1.5012 H   0  0  0  1  0  0  0  0  0  0  0  0
   -3.1910    4.4310    1.1291 C   0  0  0  1  0  0  0  0  0  0  0  0
    2.5212    3.6363   -0.3150 C   0  0  0  1  0  0  0  0  0  0  0  0
   -4.0375    4.1262    2.3715 C   0  0  0  1  0  0  0  0  0  0  0  0
   -3.4332    5.4289    0.4524 O   0  0  0  1  0  0  0  0  0  0  0  0
    0.8238    3.5277   -1.5648 H   0  0  0  1  0  0  0  0  0  0  0  0
    3.0303    2.9629   -0.9724 H   0  0  0  1  0  0  0  0  0  0  0  0
    2.6588    3.3183    0.6974 H   0  0  0  1  0  0  0  0  0  0  0  0
    2.9189    4.6222   -0.4369 H   0  0  0  1  0  0  0  0  0  0  0  0
   -3.4056    4.0911    3.2343 H   0  0  0  1  0  0  0  0  0  0  0  0
   -4.5247    3.1817    2.2479 H   0  0  0  1  0  0  0  0  0  0  0  0
   -4.7725    4.8933    2.4989 H   0  0  0  1  0  0  0  0  0  0  0  0
   -0.9053    3.0572   -4.0690 F   0  0  0  1  0  0  0  0  0  0  0  0
   -1.9932    3.8094   -3.8940 C   0  0  0  1  0  0  0  0  0  0  0  0
   -1.5824    4.9231   -3.2854 F   0  0  0  1  0  0  0  0  0  0  0  0
   -2.3941    4.1754   -5.1122 F   0  0  0  1  0  0  0  0  0  0  0  0
   -3.0741    3.0921   -3.1203 C   0  0  0  1  0  0  0  0  0  0  0  0
   -2.7965    2.5618   -1.8700 C   0  0  0  1  0  0  0  0  0  0  0  0
   -3.7847    1.9009   -1.1650 C   0  0  0  1  0  0  0  0  0  0  0  0
   -5.0547    1.7732   -1.7056 C   0  0  0  1  0  0  0  0  0  0  0  0
   -5.3313    2.3020   -2.9522 C   0  0  0  1  0  0  0  0  0  0  0  0
   -4.3404    2.9648   -3.6595 C   0  0  0  1  0  0  0  0  0  0  0  0
   -1.4146    2.7056   -1.2777 C   0  0  0  1  0  0  0  0  0  0  0  0
   -3.5755    1.4995   -0.2287 H   0  0  0  1  0  0  0  0  0  0  0  0
   -5.7993    1.2794   -1.1733 H   0  0  0  1  0  0  0  0  0  0  0  0
   -6.2830    2.2027   -3.3596 H   0  0  0  1  0  0  0  0  0  0  0  0
   -4.5497    3.3663   -4.5958 H   0  0  0  1  0  0  0  0  0  0  0  0
   -1.1581    1.7784   -0.8092 H   0  0  0  1  0  0  0  0  0  0  0  0
   -0.7315    2.9027   -2.0774 H   0  0  0  1  0  0  0  0  0  0  0  0
  1  4  1  0  0  0  0
  2  4  1  0  0  0  0
  2  5  2  0  0  0  0
  2  6  1  0  0  0  0
  3  4  1  0  0  0  0
  3  7  1  0  0  0  0
  3  8  1  0  0  0  0
  4 29  1  0  0  0  0
  6  9  1  0  0  0  0
  6 12  1  0  0  0  0
  8 10  1  0  0  0  0
  8 11  2  0  0  0  0
  9 13  1  0  0  0  0
  9 14  1  0  0  0  0
  9 15  1  0  0  0  0
 10 16  1  0  0  0  0
 10 17  1  0  0  0  0
 10 18  1  0  0  0  0
 19 20  1  0  0  0  0
 20 21  1  0  0  0  0
 20 22  1  0  0  0  0
 20 23  1  0  0  0  0
 23 24  4  0  0  0  0
 23 28  4  0  0  0  0
 24 25  4  0  0  0  0
 24 29  1  0  0  0  0
 25 26  4  0  0  0  0
 25 30  1  0  0  0  0
 26 27  4  0  0  0  0
 26 31  1  0  0  0  0
 27 28  4  0  0  0  0
 27 32  1  0  0  0  0
 28 33  1  0  0  0  0
 29 34  1  0  0  0  0
 29 35  1  0  0  0  0
M  END
> <BCLConfClusterSize>
1

> <ConfClashScore>
0 

> <ConfOneFourInteractionScore>
-0.939067 

> <ConfScore>
0.39646 

> <ConfScorePBest>
0.00578322 

> <ConfTolerance>
0.632154 

> <RosettaParamsInstructions>
M  ROOT 3
M  POLY_N_BB 3
M  POLY_CA_BB 4
M  POLY_C_BB 2
M  POLY_O_BB 5
M  POLY_IGNORE 9 10 11 12 13 14 15 16 17 18 
M  POLY_UPPER 6
M  POLY_LOWER 8
M  POLY_CHG 0
M  POLY_PROPERTIES ALPHA_AA D_AA PROTEIN AROMATIC POLYMER 
M  END

$$$$



 35 35  0  0  0  0  0  0  0  0999 V2000
   -1.0687    1.1712   -0.3356 H   0  0  0  1  0  0  0  0  0  0  0  0
    0.6447    2.4020   -0.1753 C   0  0  0  1  0  0  0  0  0  0  0  0
   -0.2754    1.4027   -2.2320 N   0  0  0  1  0  0  0  0  0  0  0  0
   -0.6004    1.9375   -0.9173 C   0  0  0  1  0  0  0  0  0  0  0  0
    0.7813    2.2528    1.0253 O   0  0  0  1  0  0  0  0  0  0  0  0
    1.6243    2.9942   -0.8600 N   0  0  0  1  0  0  0  0  0  0  0  0
   -0.8914    1.5690   -2.9758 H   0  0  0  1  0  0  0  0  0  0  0  0
    0.8336    0.6932   -2.4596 C   0  0  0  1  0  0  0  0  0  0  0  0
    2.8497    3.5189   -0.2761 C   0  0  0  1  0  0  0  0  0  0  0  0
    1.0395    0.2333   -3.8897 C   0  0  0  1  0  0  0  0  0  0  0  0
    1.6472    0.4206   -1.5779 O   0  0  0  1  0  0  0  0  0  0  0  0
    1.5102    3.0827   -1.8293 H   0  0  0  1  0  0  0  0  0  0  0  0
    3.4053    2.7189    0.1668 H   0  0  0  1  0  0  0  0  0  0  0  0
    2.6059    4.2417    0.4743 H   0  0  0  1  0  0  0  0  0  0  0  0
    3.4388    3.9818   -1.0400 H   0  0  0  1  0  0  0  0  0  0  0  0
    0.9034    1.0609   -4.5541 H   0  0  0  1  0  0  0  0  0  0  0  0
    0.3293   -0.5321   -4.1237 H   0  0  0  1  0  0  0  0  0  0  0  0
    2.0310   -0.1535   -4.0005 H   0  0  0  1  0  0  0  0  0  0  0  0
   -2.0366    3.5576   -5.2106 F   0  0  0  1  0  0  0  0  0  0  0  0
   -1.9933    3.8038   -3.9001 C   0  0  0  1  0  0  0  0  0  0  0  0
   -0.7600    3.4577   -3.5279 F   0  0  0  1  0  0  0  0  0  0  0  0
   -2.0510    5.1209   -3.7930 F   0  0  0  1  0  0  0  0  0  0  0  0
   -3.0738    3.0886   -3.1240 C   0  0  0  1  0  0  0  0  0  0  0  0
   -2.8687    2.7575   -1.7936 C   0  0  0  1  0  0  0  0  0  0  0  0
   -3.8558    2.0983   -1.0856 C   0  0  0  1  0  0  0  0  0  0  0  0
   -5.0529    1.7729   -1.7042 C   0  0  0  1  0  0  0  0  0  0  0  0
   -5.2572    2.1030   -3.0306 C   0  0  0  1  0  0  0  0  0  0  0  0
   -4.2673    2.7642   -3.7409 C   0  0  0  1  0  0  0  0  0  0  0  0
   -1.5883    3.0909   -1.0650 C   0  0  0  1  0  0  0  0  0  0  0  0
   -3.7004    1.8463   -0.0886 H   0  0  0  1  0  0  0  0  0  0  0  0
   -5.7971    1.2804   -1.1702 H   0  0  0  1  0  0  0  0  0  0  0  0
   -6.1537    1.8553   -3.4959 H   0  0  0  1  0  0  0  0  0  0  0  0
   -4.4227    3.0161   -4.7379 H   0  0  0  1  0  0  0  0  0  0  0  0
   -1.0993    3.8779   -1.6002 H   0  0  0  1  0  0  0  0  0  0  0  0
   -1.8459    3.4325   -0.0842 H   0  0  0  1  0  0  0  0  0  0  0  0
  1  4  1  0  0  0  0
  2  4  1  0  0  0  0
  2  5  2  0  0  0  0
  2  6  1  0  0  0  0
  3  4  1  0  0  0  0
  3  7  1  0  0  0  0
  3  8  1  0  0  0  0
  4 29  1  0  0  0  0
  6  9  1  0  0  0  0
  6 12  1  0  0  0  0
  8 10  1  0  0  0  0
  8 11  2  0  0  0  0
  9 13  1  0  0  0  0
  9 14  1  0  0  0  0
  9 15  1  0  0  0  0
 10 16  1  0  0  0  0
 10 17  1  0  0  0  0
 10 18  1  0  0  0  0
 19 20  1  0  0  0  0
 20 21  1  0  0  0  0
 20 22  1  0  0  0  0
 20 23  1  0  0  0  0
 23 24  4  0  0  0  0
 23 28  4  0  0  0  0
 24 25  4  0  0  0  0
 24 29  1  0  0  0  0
 25 26  4  0  0  0  0
 25 30  1  0  0  0  0
 26 27  4  0  0  0  0
 26 31  1  0  0  0  0
 27 28  4  0  0  0  0
 27 32  1  0  0  0  0
 28 33  1  0  0  0  0
 29 34  1  0  0  0  0
 29 35  1  0  0  0  0
M  END
> <BCLConfClusterSize>
1

> <ConfClashScore>
0 

> <ConfOneFourInteractionScore>
-0.953269 

> <ConfScore>
0.402555 

> <ConfScorePBest>
0.00575474 

> <ConfTolerance>
0.422009 

> <RosettaParamsInstructions>
M  ROOT 3
M  POLY_N_BB 3
M  POLY_CA_BB 4
M  POLY_C_BB 2
M  POLY_O_BB 5
M  POLY_IGNORE 9 10 11 12 13 14 15 16 17 18 
M  POLY_UPPER 6
M  POLY_LOWER 8
M  POLY_CHG 0
M  POLY_PROPERTIES ALPHA_AA D_AA PROTEIN AROMATIC POLYMER 
M  END

$$$$



 35 35  0  0  0  0  0  0  0  0999 V2000
   -0.8547    0.7672   -0.6450 H   0  0  0  1  0  0  0  0  0  0  0  0
    0.9084    1.9168   -0.8660 C   0  0  0  1  0  0  0  0  0  0  0  0
   -0.4945    0.9910   -2.6697 N   0  0  0  1  0  0  0  0  0  0  0  0
   -0.4923    1.5201   -1.3133 C   0  0  0  1  0  0  0  0  0  0  0  0
    1.5042    2.8552   -1.3914 O   0  0  0  1  0  0  0  0  0  0  0  0
    1.4320    1.1836    0.1206 N   0  0  0  1  0  0  0  0  0  0  0  0
   -1.1896    1.2693   -3.3020 H   0  0  0  1  0  0  0  0  0  0  0  0
    0.4584    0.1184   -3.0580 C   0  0  0  1  0  0  0  0  0  0  0  0
    2.7988    1.4205    0.5608 C   0  0  0  1  0  0  0  0  0  0  0  0
    0.2975   -0.5604   -4.4043 C   0  0  0  1  0  0  0  0  0  0  0  0
    1.4302   -0.1213   -2.3427 O   0  0  0  1  0  0  0  0  0  0  0  0
    0.8946    0.4849    0.5488 H   0  0  0  1  0  0  0  0  0  0  0  0
    3.0642    2.4392    0.3694 H   0  0  0  1  0  0  0  0  0  0  0  0
    3.4625    0.7730    0.0268 H   0  0  0  1  0  0  0  0  0  0  0  0
    2.8746    1.2234    1.6097 H   0  0  0  1  0  0  0  0  0  0  0  0
    0.2198   -1.6183   -4.2639 H   0  0  0  1  0  0  0  0  0  0  0  0
    1.1477   -0.3436   -5.0167 H   0  0  0  1  0  0  0  0  0  0  0  0
   -0.5886   -0.1983   -4.8824 H   0  0  0  1  0  0  0  0  0  0  0  0
   -0.9358    3.0514   -4.1595 F   0  0  0  1  0  0  0  0  0  0  0  0
   -2.0021    3.8131   -3.9088 C   0  0  0  1  0  0  0  0  0  0  0  0
   -1.5444    4.9034   -3.2914 F   0  0  0  1  0  0  0  0  0  0  0  0
   -2.4581    4.2189   -5.0946 F   0  0  0  1  0  0  0  0  0  0  0  0
   -3.0565    3.0870   -3.0990 C   0  0  0  1  0  0  0  0  0  0  0  0
   -2.7965    2.5613   -1.8430 C   0  0  0  1  0  0  0  0  0  0  0  0
   -3.7945    1.9031   -1.1494 C   0  0  0  1  0  0  0  0  0  0  0  0
   -5.0568    1.7734   -1.7073 C   0  0  0  1  0  0  0  0  0  0  0  0
   -5.3159    2.2976   -2.9596 C   0  0  0  1  0  0  0  0  0  0  0  0
   -4.3151    2.9578   -3.6554 C   0  0  0  1  0  0  0  0  0  0  0  0
   -1.4229    2.7073   -1.2320 C   0  0  0  1  0  0  0  0  0  0  0  0
   -3.5983    1.5051   -0.2088 H   0  0  0  1  0  0  0  0  0  0  0  0
   -5.8088    1.2816   -1.1836 H   0  0  0  1  0  0  0  0  0  0  0  0
   -6.2618    2.1968   -3.3799 H   0  0  0  1  0  0  0  0  0  0  0  0
   -4.5113    3.3557   -4.5960 H   0  0  0  1  0  0  0  0  0  0  0  0
   -0.9400    3.5268   -1.7220 H   0  0  0  1  0  0  0  0  0  0  0  0
   -1.5564    2.9391   -0.1959 H   0  0  0  1  0  0  0  0  0  0  0  0
  1  4  1  0  0  0  0
  2  4  1  0  0  0  0
  2  5  2  0  0  0  0
  2  6  1  0  0  0  0
  3  4  1  0  0  0  0
  3  7  1  0  0  0  0
  3  8  1  0  0  0  0
  4 29  1  0  0  0  0
  6  9  1  0  0  0  0
  6 12  1  0  0  0  0
  8 10  1  0  0  0  0
  8 11  2  0  0  0  0
  9 13  1  0  0  0  0
  9 14  1  0  0  0  0
  9 15  1  0  0  0  0
 10 16  1  0  0  0  0
 10 17  1  0  0  0  0
 10 18  1  0  0  0  0
 19 20  1  0  0  0  0
 20 21  1  0  0  0  0
 20 22  1  0  0  0  0
 20 23  1  0  0  0  0
 23 24  4  0  0  0  0
 23 28  4  0  0  0  0
 24 25  4  0  0  0  0
 24 29  1  0  0  0  0
 25 26  4  0  0  0  0
 25 30  1  0  0  0  0
 26 27  4  0  0  0  0
 26 31  1  0  0  0  0
 27 28  4  0  0  0  0
 27 32  1  0  0  0  0
 28 33  1  0  0  0  0
 29 34  1  0  0  0  0
 29 35  1  0  0  0  0
M  END
> <BCLConfClusterSize>
1

> <ConfClashScore>
0 

> <ConfOneFourInteractionScore>
-0.979134 

> <ConfScore>
0.404329 

> <ConfScorePBest>
0.00572626 

> <ConfTolerance>
0.406815 

> <RosettaParamsInstructions>
M  ROOT 3
M  POLY_N_BB 3
M  POLY_CA_BB 4
M  POLY_C_BB 2
M  POLY_O_BB 5
M  POLY_IGNORE 9 10 11 12 13 14 15 16 17 18 
M  POLY_UPPER 6
M  POLY_LOWER 8
M  POLY_CHG 0
M  POLY_PROPERTIES ALPHA_AA D_AA PROTEIN AROMATIC POLYMER 
M  END

$$$$



 35 35  0  0  0  0  0  0  0  0999 V2000
   -1.3171    0.4299   -0.6263 H   0  0  0  1  0  0  0  0  0  0  0  0
    0.6823    0.8721   -0.9383 C   0  0  0  1  0  0  0  0  0  0  0  0
   -0.9893    0.2237   -2.6365 N   0  0  0  1  0  0  0  0  0  0  0  0
   -0.7534    0.9431   -1.3772 C   0  0  0  1  0  0  0  0  0  0  0  0
    1.6087    1.0412   -1.7101 O   0  0  0  1  0  0  0  0  0  0  0  0
    0.9575    0.6146    0.3435 N   0  0  0  1  0  0  0  0  0  0  0  0
   -1.4387    0.6913   -3.3712 H   0  0  0  1  0  0  0  0  0  0  0  0
   -0.6125   -1.0457   -2.8147 C   0  0  0  1  0  0  0  0  0  0  0  0
    2.3204    0.5654    0.8513 C   0  0  0  1  0  0  0  0  0  0  0  0
   -1.0277   -1.6777   -4.1290 C   0  0  0  1  0  0  0  0  0  0  0  0
    0.0251   -1.6721   -1.9844 O   0  0  0  1  0  0  0  0  0  0  0  0
    0.2158    0.4533    0.9633 H   0  0  0  1  0  0  0  0  0  0  0  0
    2.7761    1.5277    0.7451 H   0  0  0  1  0  0  0  0  0  0  0  0
    2.8814   -0.1577    0.2969 H   0  0  0  1  0  0  0  0  0  0  0  0
    2.3059    0.2901    1.8851 H   0  0  0  1  0  0  0  0  0  0  0  0
   -0.3363   -1.3954   -4.8953 H   0  0  0  1  0  0  0  0  0  0  0  0
   -2.0086   -1.3409   -4.3923 H   0  0  0  1  0  0  0  0  0  0  0  0
   -1.0312   -2.7428   -4.0269 H   0  0  0  1  0  0  0  0  0  0  0  0
   -1.4436    4.8207   -3.2251 F   0  0  0  1  0  0  0  0  0  0  0  0
   -2.0060    3.8212   -3.9068 C   0  0  0  1  0  0  0  0  0  0  0  0
   -2.5027    4.3625   -5.0201 F   0  0  0  1  0  0  0  0  0  0  0  0
   -1.0086    3.0239   -4.2916 F   0  0  0  1  0  0  0  0  0  0  0  0
   -3.0570    3.0874   -3.0994 C   0  0  0  1  0  0  0  0  0  0  0  0
   -2.7510    2.3929   -1.9393 C   0  0  0  1  0  0  0  0  0  0  0  0
   -3.7486    1.7360   -1.2439 C   0  0  0  1  0  0  0  0  0  0  0  0
   -5.0558    1.7760   -1.7034 C   0  0  0  1  0  0  0  0  0  0  0  0
   -5.3606    2.4684   -2.8600 C   0  0  0  1  0  0  0  0  0  0  0  0
   -4.3603    3.1273   -3.5577 C   0  0  0  1  0  0  0  0  0  0  0  0
   -1.3279    2.3538   -1.4347 C   0  0  0  1  0  0  0  0  0  0  0  0
   -3.5185    1.2117   -0.3757 H   0  0  0  1  0  0  0  0  0  0  0  0
   -5.8070    1.2850   -1.1778 H   0  0  0  1  0  0  0  0  0  0  0  0
   -6.3407    2.4950   -3.2070 H   0  0  0  1  0  0  0  0  0  0  0  0
   -4.5905    3.6516   -4.4258 H   0  0  0  1  0  0  0  0  0  0  0  0
   -0.7187    2.9432   -2.0877 H   0  0  0  1  0  0  0  0  0  0  0  0
   -1.3040    2.7717   -0.4500 H   0  0  0  1  0  0  0  0  0  0  0  0
  1  4  1  0  0  0  0
  2  4  1  0  0  0  0
  2  5  2  0  0  0  0
  2  6  1  0  0  0  0
  3  4  1  0  0  0  0
  3  7  1  0  0  0  0
  3  8  1  0  0  0  0
  4 29  1  0  0  0  0
  6  9  1  0  0  0  0
  6 12  1  0  0  0  0
  8 10  1  0  0  0  0
  8 11  2  0  0  0  0
  9 13  1  0  0  0  0
  9 14  1  0  0  0  0
  9 15  1  0  0  0  0
 10 16  1  0  0  0  0
 10 17  1  0  0  0  0
 10 18  1  0  0  0  0
 19 20  1  0  0  0  0
 20 21  1  0  0  0  0
 20 22  1  0  0  0  0
 20 23  1  0  0  0  0
 23 24  4  0  0  0  0
 23 28  4  0  0  0  0
 24 25  4  0  0  0  0
 24 29  1  0  0  0  0
 25 26  4  0  0  0  0
 25 30  1  0  0  0  0
 26 27  4  0  0  0  0
 26 31  1  0  0  0  0
 27 28  4  0  0  0  0
 27 32  1  0  0  0  0
 28 33  1  0  0  0  0
 29 34  1  0  0  0  0
 29 35  1  0  0  0  0
M  END
> <BCLConfClusterSize>
1

> <ConfClashScore>
0 

> <ConfOneFourInteractionScore>
-0.985807 

> <ConfScore>
0.404971 

> <ConfScorePBest>
0.00569778 

> <ConfTolerance>
0.582164 

> <RosettaParamsInstructions>
M  ROOT 3
M  POLY_N_BB 3
M  POLY_CA_BB 4
M  POLY_C_BB 2
M  POLY_O_BB 5
M  POLY_IGNORE 9 10 11 12 13 14 15 16 17 18 
M  POLY_UPPER 6
M  POLY_LOWER 8
M  POLY_CHG 0
M  POLY_PROPERTIES ALPHA_AA D_AA PROTEIN AROMATIC POLYMER 
M  END

$$$$



 35 35  0  0  0  0  0  0  0  0999 V2000
   -1.9983    4.3807   -0.0952 H   0  0  0  1  0  0  0  0  0  0  0  0
   -0.0251    3.9095    0.4551 C   0  0  0  1  0  0  0  0  0  0  0  0
   -2.0783    2.6986    1.0870 N   0  0  0  1  0  0  0  0  0  0  0  0
   -1.4265    3.4885    0.0531 C   0  0  0  1  0  0  0  0  0  0  0  0
    0.3344    3.8016    1.6245 O   0  0  0  1  0  0  0  0  0  0  0  0
    0.7893    4.3065   -0.5268 N   0  0  0  1  0  0  0  0  0  0  0  0
   -3.0230    2.8671    1.2859 H   0  0  0  1  0  0  0  0  0  0  0  0
   -1.4308    1.7476    1.7774 C   0  0  0  1  0  0  0  0  0  0  0  0
    2.1322    4.8046   -0.2693 C   0  0  0  1  0  0  0  0  0  0  0  0
   -2.2377    1.0524    2.8567 C   0  0  0  1  0  0  0  0  0  0  0  0
   -0.2597    1.4459    1.5631 O   0  0  0  1  0  0  0  0  0  0  0  0
    0.4713    4.2607   -1.4526 H   0  0  0  1  0  0  0  0  0  0  0  0
    2.8226    3.9872   -0.2702 H   0  0  0  1  0  0  0  0  0  0  0  0
    2.1557    5.2899    0.6840 H   0  0  0  1  0  0  0  0  0  0  0  0
    2.4057    5.5030   -1.0324 H   0  0  0  1  0  0  0  0  0  0  0  0
   -2.5592    1.7712    3.5811 H   0  0  0  1  0  0  0  0  0  0  0  0
   -1.6306    0.3120    3.3343 H   0  0  0  1  0  0  0  0  0  0  0  0
   -3.0926    0.5834    2.4161 H   0  0  0  1  0  0  0  0  0  0  0  0
   -0.9338    3.0330   -4.1310 F   0  0  0  1  0  0  0  0  0  0  0  0
   -1.9930    3.8088   -3.8943 C   0  0  0  1  0  0  0  0  0  0  0  0
   -1.5320    4.8833   -3.2521 F   0  0  0  1  0  0  0  0  0  0  0  0
   -2.4154    4.2375   -5.0844 F   0  0  0  1  0  0  0  0  0  0  0  0
   -3.0740    3.0918   -3.1205 C   0  0  0  1  0  0  0  0  0  0  0  0
   -2.7999    2.5725   -1.8648 C   0  0  0  1  0  0  0  0  0  0  0  0
   -3.7882    1.9118   -1.1596 C   0  0  0  1  0  0  0  0  0  0  0  0
   -5.0547    1.7732   -1.7056 C   0  0  0  1  0  0  0  0  0  0  0  0
   -5.3278    2.2910   -2.9576 C   0  0  0  1  0  0  0  0  0  0  0  0
   -4.3369    2.9537   -3.6650 C   0  0  0  1  0  0  0  0  0  0  0  0
   -1.4217    2.7282   -1.2667 C   0  0  0  1  0  0  0  0  0  0  0  0
   -3.5815    1.5187   -0.2192 H   0  0  0  1  0  0  0  0  0  0  0  0
   -5.7994    1.2796   -1.1732 H   0  0  0  1  0  0  0  0  0  0  0  0
   -6.2769    2.1835   -3.3690 H   0  0  0  1  0  0  0  0  0  0  0  0
   -4.5436    3.3468   -4.6054 H   0  0  0  1  0  0  0  0  0  0  0  0
   -1.0120    1.7544   -1.0972 H   0  0  0  1  0  0  0  0  0  0  0  0
   -0.8062    3.2585   -1.9630 H   0  0  0  1  0  0  0  0  0  0  0  0
  1  4  1  0  0  0  0
  2  4  1  0  0  0  0
  2  5  2  0  0  0  0
  2  6  1  0  0  0  0
  3  4  1  0  0  0  0
  3  7  1  0  0  0  0
  3  8  1  0  0  0  0
  4 29  1  0  0  0  0
  6  9  1  0  0  0  0
  6 12  1  0  0  0  0
  8 10  1  0  0  0  0
  8 11  2  0  0  0  0
  9 13  1  0  0  0  0
  9 14  1  0  0  0  0
  9 15  1  0  0  0  0
 10 16  1  0  0  0  0
 10 17  1  0  0  0  0
 10 18  1  0  0  0  0
 19 20  1  0  0  0  0
 20 21  1  0  0  0  0
 20 22  1  0  0  0  0
 20 23  1  0  0  0  0
 23 24  4  0  0  0  0
 23 28  4  0  0  0  0
 24 25  4  0  0  0  0
 24 29  1  0  0  0  0
 25 26  4  0  0  0  0
 25 30  1  0  0  0  0
 26 27  4  0  0  0  0
 26 31  1  0  0  0  0
 27 28  4  0  0  0  0
 27 32  1  0  0  0  0
 28 33  1  0  0  0  0
 29 34  1  0  0  0  0
 29 35  1  0  0  0  0
M  END
> <BCLConfClusterSize>
1

> <ConfClashScore>
0 

> <ConfOneFourInteractionScore>
-0.930059 

> <ConfScore>
0.406986 

> <ConfScorePBest>
0.0056693 

> <ConfTolerance>
0.591553 

> <RosettaParamsInstructions>
M  ROOT 3
M  POLY_N_BB 3
M  POLY_CA_BB 4
M  POLY_C_BB 2
M  POLY_O_BB 5
M  POLY_IGNORE 9 10 11 12 13 14 15 16 17 18 
M  POLY_UPPER 6
M  POLY_LOWER 8
M  POLY_CHG 0
M  POLY_PROPERTIES ALPHA_AA D_AA PROTEIN AROMATIC POLYMER 
M  END

$$$$



 35 35  0  0  0  0  0  0  0  0999 V2000
   -2.3803    3.9563    0.5100 H   0  0  0  1  0  0  0  0  0  0  0  0
   -1.7953    5.4633   -0.8410 C   0  0  0  1  0  0  0  0  0  0  0  0
   -0.3269    4.1836    0.6291 N   0  0  0  1  0  0  0  0  0  0  0  0
   -1.5641    4.1209   -0.1620 C   0  0  0  1  0  0  0  0  0  0  0  0
   -0.8947    6.0316   -1.4529 O   0  0  0  1  0  0  0  0  0  0  0  0
   -3.0268    5.9682   -0.7246 N   0  0  0  1  0  0  0  0  0  0  0  0
    0.3784    3.5253    0.4570 H   0  0  0  1  0  0  0  0  0  0  0  0
   -0.1308    5.1052    1.5732 C   0  0  0  1  0  0  0  0  0  0  0  0
   -3.3589    7.3161   -1.1612 C   0  0  0  1  0  0  0  0  0  0  0  0
    1.1415    4.9567    2.3846 C   0  0  0  1  0  0  0  0  0  0  0  0
   -0.9204    6.0243    1.7865 O   0  0  0  1  0  0  0  0  0  0  0  0
   -3.7310    5.4114   -0.3314 H   0  0  0  1  0  0  0  0  0  0  0  0
   -4.0657    7.2678   -1.9631 H   0  0  0  1  0  0  0  0  0  0  0  0
   -2.4716    7.8105   -1.4976 H   0  0  0  1  0  0  0  0  0  0  0  0
   -3.7835    7.8610   -0.3441 H   0  0  0  1  0  0  0  0  0  0  0  0
    0.9680    5.2922    3.3857 H   0  0  0  1  0  0  0  0  0  0  0  0
    1.9178    5.5447    1.9412 H   0  0  0  1  0  0  0  0  0  0  0  0
    1.4367    3.9283    2.3995 H   0  0  0  1  0  0  0  0  0  0  0  0
   -2.4881    4.6510   -4.8081 F   0  0  0  1  0  0  0  0  0  0  0  0
   -1.9921    3.8049   -3.9036 C   0  0  0  1  0  0  0  0  0  0  0  0
   -1.2027    2.9638   -4.5734 F   0  0  0  1  0  0  0  0  0  0  0  0
   -1.1899    4.5254   -3.1187 F   0  0  0  1  0  0  0  0  0  0  0  0
   -3.0722    3.0902   -3.1265 C   0  0  0  1  0  0  0  0  0  0  0  0
   -2.8347    2.6825   -1.8230 C   0  0  0  1  0  0  0  0  0  0  0  0
   -3.8217    2.0238   -1.1144 C   0  0  0  1  0  0  0  0  0  0  0  0
   -5.0509    1.7754   -1.7052 C   0  0  0  1  0  0  0  0  0  0  0  0
   -5.2875    2.1819   -3.0048 C   0  0  0  1  0  0  0  0  0  0  0  0
   -4.2978    2.8426   -3.7156 C   0  0  0  1  0  0  0  0  0  0  0  0
   -1.5183    2.9300   -1.1251 C   0  0  0  1  0  0  0  0  0  0  0  0
   -3.6422    1.7143   -0.1379 H   0  0  0  1  0  0  0  0  0  0  0  0
   -5.7949    1.2833   -1.1705 H   0  0  0  1  0  0  0  0  0  0  0  0
   -6.2083    1.9921   -3.4494 H   0  0  0  1  0  0  0  0  0  0  0  0
   -4.4773    3.1520   -4.6922 H   0  0  0  1  0  0  0  0  0  0  0  0
   -1.2568    2.0532   -0.5703 H   0  0  0  1  0  0  0  0  0  0  0  0
   -0.7703    3.1199   -1.8662 H   0  0  0  1  0  0  0  0  0  0  0  0
  1  4  1  0  0  0  0
  2  4  1  0  0  0  0
  2  5  2  0  0  0  0
  2  6  1  0  0  0  0
  3  4  1  0  0  0  0
  3  7  1  0  0  0  0
  3  8  1  0  0  0  0
  4 29  1  0  0  0  0
  6  9  1  0  0  0  0
  6 12  1  0  0  0  0
  8 10  1  0  0  0  0
  8 11  2  0  0  0  0
  9 13  1  0  0  0  0
  9 14  1  0  0  0  0
  9 15  1  0  0  0  0
 10 16  1  0  0  0  0
 10 17  1  0  0  0  0
 10 18  1  0  0  0  0
 19 20  1  0  0  0  0
 20 21  1  0  0  0  0
 20 22  1  0  0  0  0
 20 23  1  0  0  0  0
 23 24  4  0  0  0  0
 23 28  4  0  0  0  0
 24 25  4  0  0  0  0
 24 29  1  0  0  0  0
 25 26  4  0  0  0  0
 25 30  1  0  0  0  0
 26 27  4  0  0  0  0
 26 31  1  0  0  0  0
 27 28  4  0  0  0  0
 27 32  1  0  0  0  0
 28 33  1  0  0  0  0
 29 34  1  0  0  0  0
 29 35  1  0  0  0  0
M  END
> <BCLConfClusterSize>
1

> <ConfClashScore>
0.000891015 

> <ConfOneFourInteractionScore>
-0.978127 

> <ConfScore>
0.407407 

> <ConfScorePBest>
0.00564082 

> <ConfTolerance>
0.513981 

> <RosettaParamsInstructions>
M  ROOT 3
M  POLY_N_BB 3
M  POLY_CA_BB 4
M  POLY_C_BB 2
M  POLY_O_BB 5
M  POLY_IGNORE 9 10 11 12 13 14 15 16 17 18 
M  POLY_UPPER 6
M  POLY_LOWER 8
M  POLY_CHG 0
M  POLY_PROPERTIES ALPHA_AA D_AA PROTEIN AROMATIC POLYMER 
M  END

$$$$



 35 35  0  0  0  0  0  0  0  0999 V2000
   -1.7589    4.9447   -1.3395 H   0  0  0  1  0  0  0  0  0  0  0  0
    0.0874    4.7683   -0.4184 C   0  0  0  1  0  0  0  0  0  0  0  0
   -2.1741    4.5214    0.6185 N   0  0  0  1  0  0  0  0  0  0  0  0
   -1.3458    4.3005   -0.5918 C   0  0  0  1  0  0  0  0  0  0  0  0
    0.8641    4.7909   -1.3589 O   0  0  0  1  0  0  0  0  0  0  0  0
    0.4292    5.1462    0.8167 N   0  0  0  1  0  0  0  0  0  0  0  0
   -1.9042    4.0980    1.4601 H   0  0  0  1  0  0  0  0  0  0  0  0
   -3.3171    5.3062    0.6006 C   0  0  0  1  0  0  0  0  0  0  0  0
    1.7931    5.5123    1.1681 C   0  0  0  1  0  0  0  0  0  0  0  0
   -4.1141    5.4647    1.8649 C   0  0  0  1  0  0  0  0  0  0  0  0
   -3.6390    5.8446   -0.4463 O   0  0  0  1  0  0  0  0  0  0  0  0
   -0.2627    5.1781    1.5100 H   0  0  0  1  0  0  0  0  0  0  0  0
    2.2026    6.1399    0.4043 H   0  0  0  1  0  0  0  0  0  0  0  0
    2.3875    4.6272    1.2589 H   0  0  0  1  0  0  0  0  0  0  0  0
    1.7921    6.0389    2.0995 H   0  0  0  1  0  0  0  0  0  0  0  0
   -3.8109    4.7226    2.5737 H   0  0  0  1  0  0  0  0  0  0  0  0
   -5.1550    5.3454    1.6473 H   0  0  0  1  0  0  0  0  0  0  0  0
   -3.9440    6.4387    2.2738 H   0  0  0  1  0  0  0  0  0  0  0  0
   -1.2454    2.9826   -4.6385 F   0  0  0  1  0  0  0  0  0  0  0  0
   -2.0078    3.8080   -3.9191 C   0  0  0  1  0  0  0  0  0  0  0  0
   -1.1465    4.4723   -3.1470 F   0  0  0  1  0  0  0  0  0  0  0  0
   -2.5078    4.7036   -4.7452 F   0  0  0  1  0  0  0  0  0  0  0  0
   -3.0613    3.0863   -3.1042 C   0  0  0  1  0  0  0  0  0  0  0  0
   -2.8283    2.6501   -1.8092 C   0  0  0  1  0  0  0  0  0  0  0  0
   -3.8238    1.9916   -1.1123 C   0  0  0  1  0  0  0  0  0  0  0  0
   -5.0568    1.7721   -1.7062 C   0  0  0  1  0  0  0  0  0  0  0  0
   -5.2890    2.2070   -2.9974 C   0  0  0  1  0  0  0  0  0  0  0  0
   -4.2907    2.8675   -3.6965 C   0  0  0  1  0  0  0  0  0  0  0  0
   -1.4868    2.8941   -1.1592 C   0  0  0  1  0  0  0  0  0  0  0  0
   -3.6477    1.6608   -0.1421 H   0  0  0  1  0  0  0  0  0  0  0  0
   -5.8072    1.2802   -1.1803 H   0  0  0  1  0  0  0  0  0  0  0  0
   -6.2128    2.0388   -3.4445 H   0  0  0  1  0  0  0  0  0  0  0  0
   -4.4669    3.1983   -4.6666 H   0  0  0  1  0  0  0  0  0  0  0  0
   -1.3617    2.1912   -0.3622 H   0  0  0  1  0  0  0  0  0  0  0  0
   -0.7212    2.7439   -1.8914 H   0  0  0  1  0  0  0  0  0  0  0  0
  1  4  1  0  0  0  0
  2  4  1  0  0  0  0
  2  5  2  0  0  0  0
  2  6  1  0  0  0  0
  3  4  1  0  0  0  0
  3  7  1  0  0  0  0
  3  8  1  0  0  0  0
  4 29  1  0  0  0  0
  6  9  1  0  0  0  0
  6 12  1  0  0  0  0
  8 10  1  0  0  0  0
  8 11  2  0  0  0  0
  9 13  1  0  0  0  0
  9 14  1  0  0  0  0
  9 15  1  0  0  0  0
 10 16  1  0  0  0  0
 10 17  1  0  0  0  0
 10 18  1  0  0  0  0
 19 20  1  0  0  0  0
 20 21  1  0  0  0  0
 20 22  1  0  0  0  0
 20 23  1  0  0  0  0
 23 24  4  0  0  0  0
 23 28  4  0  0  0  0
 24 25  4  0  0  0  0
 24 29  1  0  0  0  0
 25 26  4  0  0  0  0
 25 30  1  0  0  0  0
 26 27  4  0  0  0  0
 26 31  1  0  0  0  0
 27 28  4  0  0  0  0
 27 32  1  0  0  0  0
 28 33  1  0  0  0  0
 29 34  1  0  0  0  0
 29 35  1  0  0  0  0
M  END
> <BCLConfClusterSize>
1

> <ConfClashScore>
0 

> <ConfOneFourInteractionScore>
-0.965014 

> <ConfScore>
0.407851 

> <ConfScorePBest>
0.00561234 

> <ConfTolerance>
0.62597 

> <RosettaParamsInstructions>
M  ROOT 3
M  POLY_N_BB 3
M  POLY_CA_BB 4
M  POLY_C_BB 2
M  POLY_O_BB 5
M  POLY_IGNORE 9 10 11 12 13 14 15 16 17 18 
M  POLY_UPPER 6
M  POLY_LOWER 8
M  POLY_CHG 0
M  POLY_PROPERTIES ALPHA_AA D_AA PROTEIN AROMATIC POLYMER 
M  END

$$$$



 35 35  0  0  0  0  0  0  0  0999 V2000
   -2.1808    2.9905    0.8315 H   0  0  0  1  0  0  0  0  0  0  0  0
   -0.0845    2.9763    0.9232 C   0  0  0  1  0  0  0  0  0  0  0  0
   -1.6065    1.0734    0.4095 N   0  0  0  1  0  0  0  0  0  0  0  0
   -1.3946    2.5081    0.2891 C   0  0  0  1  0  0  0  0  0  0  0  0
    0.3002    4.1343    0.7701 O   0  0  0  1  0  0  0  0  0  0  0  0
    0.6475    2.0558    1.5598 N   0  0  0  1  0  0  0  0  0  0  0  0
   -1.4013    0.4989   -0.3575 H   0  0  0  1  0  0  0  0  0  0  0  0
   -2.0712    0.5121    1.5294 C   0  0  0  1  0  0  0  0  0  0  0  0
    2.0221    2.3025    1.9689 C   0  0  0  1  0  0  0  0  0  0  0  0
   -2.2299   -0.9911    1.4938 C   0  0  0  1  0  0  0  0  0  0  0  0
   -2.3569    1.1606    2.5351 O   0  0  0  1  0  0  0  0  0  0  0  0
    0.2443    1.1848    1.7575 H   0  0  0  1  0  0  0  0  0  0  0  0
    2.0758    2.3391    3.0370 H   0  0  0  1  0  0  0  0  0  0  0  0
    2.3527    3.2359    1.5633 H   0  0  0  1  0  0  0  0  0  0  0  0
    2.6486    1.5141    1.6074 H   0  0  0  1  0  0  0  0  0  0  0  0
   -1.6659   -1.3905    0.6769 H   0  0  0  1  0  0  0  0  0  0  0  0
   -3.2635   -1.2374    1.3674 H   0  0  0  1  0  0  0  0  0  0  0  0
   -1.8728   -1.4090    2.4117 H   0  0  0  1  0  0  0  0  0  0  0  0
   -2.4401    4.3229   -5.0424 F   0  0  0  1  0  0  0  0  0  0  0  0
   -1.9922    3.8072   -3.8963 C   0  0  0  1  0  0  0  0  0  0  0  0
   -0.9857    3.0075   -4.2184 F   0  0  0  1  0  0  0  0  0  0  0  0
   -1.4597    4.8215   -3.2134 F   0  0  0  1  0  0  0  0  0  0  0  0
   -3.0740    3.0927   -3.1214 C   0  0  0  1  0  0  0  0  0  0  0  0
   -2.8611    2.7394   -1.7979 C   0  0  0  1  0  0  0  0  0  0  0  0
   -3.8495    2.0808   -1.0911 C   0  0  0  1  0  0  0  0  0  0  0  0
   -5.0556    1.7783   -1.7038 C   0  0  0  1  0  0  0  0  0  0  0  0
   -5.2676    2.1306   -3.0233 C   0  0  0  1  0  0  0  0  0  0  0  0
   -4.2765    2.7911   -3.7324 C   0  0  0  1  0  0  0  0  0  0  0  0
   -1.5189    2.9831   -1.1494 C   0  0  0  1  0  0  0  0  0  0  0  0
   -3.6884    1.8121   -0.0994 H   0  0  0  1  0  0  0  0  0  0  0  0
   -5.8007    1.2863   -1.1707 H   0  0  0  1  0  0  0  0  0  0  0  0
   -6.1710    1.9001   -3.4842 H   0  0  0  1  0  0  0  0  0  0  0  0
   -4.4377    3.0598   -4.7241 H   0  0  0  1  0  0  0  0  0  0  0  0
   -0.7754    2.4775   -1.7294 H   0  0  0  1  0  0  0  0  0  0  0  0
   -1.3304    4.0362   -1.1667 H   0  0  0  1  0  0  0  0  0  0  0  0
  1  4  1  0  0  0  0
  2  4  1  0  0  0  0
  2  5  2  0  0  0  0
  2  6  1  0  0  0  0
  3  4  1  0  0  0  0
  3  7  1  0  0  0  0
  3  8  1  0  0  0  0
  4 29  1  0  0  0  0
  6  9  1  0  0  0  0
  6 12  1  0  0  0  0
  8 10  1  0  0  0  0
  8 11  2  0  0  0  0
  9 13  1  0  0  0  0
  9 14  1  0  0  0  0
  9 15  1  0  0  0  0
 10 16  1  0  0  0  0
 10 17  1  0  0  0  0
 10 18  1  0  0  0  0
 19 20  1  0  0  0  0
 20 21  1  0  0  0  0
 20 22  1  0  0  0  0
 20 23  1  0  0  0  0
 23 24  4  0  0  0  0
 23 28  4  0  0  0  0
 24 25  4  0  0  0  0
 24 29  1  0  0  0  0
 25 26  4  0  0  0  0
 25 30  1  0  0  0  0
 26 27  4  0  0  0  0
 26 31  1  0  0  0  0
 27 28  4  0  0  0  0
 27 32  1  0  0  0  0
 28 33  1  0  0  0  0
 29 34  1  0  0  0  0
 29 35  1  0  0  0  0
M  END
> <BCLConfClusterSize>
1

> <ConfClashScore>
0 

> <ConfOneFourInteractionScore>
-0.949001 

> <ConfScore>
0.408461 

> <ConfScorePBest>
0.00558386 

> <ConfTolerance>
0.526376 

> <RosettaParamsInstructions>
M  ROOT 3
M  POLY_N_BB 3
M  POLY_CA_BB 4
M  POLY_C_BB 2
M  POLY_O_BB 5
M  POLY_IGNORE 9 10 11 12 13 14 15 16 17 18 
M  POLY_UPPER 6
M  POLY_LOWER 8
M  POLY_CHG 0
M  POLY_PROPERTIES ALPHA_AA D_AA PROTEIN AROMATIC POLYMER 
M  END

$$$$



 35 35  0  0  0  0  0  0  0  0999 V2000
   -1.1254    4.4505   -1.2168 H   0  0  0  1  0  0  0  0  0  0  0  0
    0.5171    3.5653   -0.2479 C   0  0  0  1  0  0  0  0  0  0  0  0
   -1.8140    3.6542    0.5514 N   0  0  0  1  0  0  0  0  0  0  0  0
   -0.9540    3.5791   -0.6201 C   0  0  0  1  0  0  0  0  0  0  0  0
    1.0111    2.6778    0.4233 O   0  0  0  1  0  0  0  0  0  0  0  0
    1.3015    4.5588   -0.6686 N   0  0  0  1  0  0  0  0  0  0  0  0
   -2.6079    3.0810    0.5928 H   0  0  0  1  0  0  0  0  0  0  0  0
   -1.5532    4.4960    1.5957 C   0  0  0  1  0  0  0  0  0  0  0  0
    2.7177    4.6899   -0.3601 C   0  0  0  1  0  0  0  0  0  0  0  0
   -2.5966    4.4530    2.6766 C   0  0  0  1  0  0  0  0  0  0  0  0
   -0.5601    5.2050    1.6232 O   0  0  0  1  0  0  0  0  0  0  0  0
    0.8935    5.2527   -1.2275 H   0  0  0  1  0  0  0  0  0  0  0  0
    3.1662    5.3914   -1.0321 H   0  0  0  1  0  0  0  0  0  0  0  0
    3.1953    3.7384   -0.4671 H   0  0  0  1  0  0  0  0  0  0  0  0
    2.8328    5.0362    0.6458 H   0  0  0  1  0  0  0  0  0  0  0  0
   -3.3316    5.2087    2.4938 H   0  0  0  1  0  0  0  0  0  0  0  0
   -2.1341    4.6277    3.6255 H   0  0  0  1  0  0  0  0  0  0  0  0
   -3.0668    3.4918    2.6800 H   0  0  0  1  0  0  0  0  0  0  0  0
   -1.3604    4.7292   -3.1504 F   0  0  0  1  0  0  0  0  0  0  0  0
   -1.9955    3.8178   -3.8893 C   0  0  0  1  0  0  0  0  0  0  0  0
   -2.4737    4.4669   -4.9520 F   0  0  0  1  0  0  0  0  0  0  0  0
   -1.0566    2.9894   -4.3488 F   0  0  0  1  0  0  0  0  0  0  0  0
   -3.0753    3.0972   -3.1172 C   0  0  0  1  0  0  0  0  0  0  0  0
   -2.7547    2.3993   -1.9632 C   0  0  0  1  0  0  0  0  0  0  0  0
   -3.7424    1.7357   -1.2602 C   0  0  0  1  0  0  0  0  0  0  0  0
   -5.0545    1.7726   -1.7059 C   0  0  0  1  0  0  0  0  0  0  0  0
   -5.3740    2.4685   -2.8564 C   0  0  0  1  0  0  0  0  0  0  0  0
   -4.3835    3.1341   -3.5617 C   0  0  0  1  0  0  0  0  0  0  0  0
   -1.3262    2.3634   -1.4737 C   0  0  0  1  0  0  0  0  0  0  0  0
   -3.5013    1.2087   -0.3966 H   0  0  0  1  0  0  0  0  0  0  0  0
   -5.7983    1.2766   -1.1746 H   0  0  0  1  0  0  0  0  0  0  0  0
   -6.3577    2.4929   -3.1930 H   0  0  0  1  0  0  0  0  0  0  0  0
   -4.6247    3.6611   -4.4253 H   0  0  0  1  0  0  0  0  0  0  0  0
   -1.1897    1.4799   -0.8859 H   0  0  0  1  0  0  0  0  0  0  0  0
   -0.6759    2.3315   -2.3228 H   0  0  0  1  0  0  0  0  0  0  0  0
  1  4  1  0  0  0  0
  2  4  1  0  0  0  0
  2  5  2  0  0  0  0
  2  6  1  0  0  0  0
  3  4  1  0  0  0  0
  3  7  1  0  0  0  0
  3  8  1  0  0  0  0
  4 29  1  0  0  0  0
  6  9  1  0  0  0  0
  6 12  1  0  0  0  0
  8 10  1  0  0  0  0
  8 11  2  0  0  0  0
  9 13  1  0  0  0  0
  9 14  1  0  0  0  0
  9 15  1  0  0  0  0
 10 16  1  0  0  0  0
 10 17  1  0  0  0  0
 10 18  1  0  0  0  0
 19 20  1  0  0  0  0
 20 21  1  0  0  0  0
 20 22  1  0  0  0  0
 20 23  1  0  0  0  0
 23 24  4  0  0  0  0
 23 28  4  0  0  0  0
 24 25  4  0  0  0  0
 24 29  1  0  0  0  0
 25 26  4  0  0  0  0
 25 30  1  0  0  0  0
 26 27  4  0  0  0  0
 26 31  1  0  0  0  0
 27 28  4  0  0  0  0
 27 32  1  0  0  0  0
 28 33  1  0  0  0  0
 29 34  1  0  0  0  0
 29 35  1  0  0  0  0
M  END
> <BCLConfClusterSize>
1

> <ConfClashScore>
0 

> <ConfOneFourInteractionScore>
-0.985807 

> <ConfScore>
0.410035 

> <ConfScorePBest>
0.00555537 

> <ConfTolerance>
0.467353 

> <RosettaParamsInstructions>
M  ROOT 3
M  POLY_N_BB 3
M  POLY_CA_BB 4
M  POLY_C_BB 2
M  POLY_O_BB 5
M  POLY_IGNORE 9 10 11 12 13 14 15 16 17 18 
M  POLY_UPPER 6
M  POLY_LOWER 8
M  POLY_CHG 0
M  POLY_PROPERTIES ALPHA_AA D_AA PROTEIN AROMATIC POLYMER 
M  END

$$$$



 35 35  0  0  0  0  0  0  0  0999 V2000
    0.0042    3.2033   -0.1034 H   0  0  0  1  0  0  0  0  0  0  0  0
   -1.4150    2.2029    1.0352 C   0  0  0  1  0  0  0  0  0  0  0  0
   -1.6614    4.3938   -0.0896 N   0  0  0  1  0  0  0  0  0  0  0  0
   -1.0545    3.0573   -0.1559 C   0  0  0  1  0  0  0  0  0  0  0  0
   -0.5208    1.5491    1.5656 O   0  0  0  1  0  0  0  0  0  0  0  0
   -2.6851    2.2022    1.4497 N   0  0  0  1  0  0  0  0  0  0  0  0
   -2.4683    4.5205    0.4520 H   0  0  0  1  0  0  0  0  0  0  0  0
   -1.1515    5.4424   -0.7419 C   0  0  0  1  0  0  0  0  0  0  0  0
   -3.0832    1.3813    2.5836 C   0  0  0  1  0  0  0  0  0  0  0  0
   -2.0137    6.7052   -0.6963 C   0  0  0  1  0  0  0  0  0  0  0  0
   -0.0538    5.4588   -1.2741 O   0  0  0  1  0  0  0  0  0  0  0  0
   -3.3501    2.7555    0.9893 H   0  0  0  1  0  0  0  0  0  0  0  0
   -3.5489    0.4853    2.2298 H   0  0  0  1  0  0  0  0  0  0  0  0
   -3.7744    1.9257    3.1924 H   0  0  0  1  0  0  0  0  0  0  0  0
   -2.2191    1.1294    3.1621 H   0  0  0  1  0  0  0  0  0  0  0  0
   -2.9833    6.4622   -0.3146 H   0  0  0  1  0  0  0  0  0  0  0  0
   -2.1097    7.1071   -1.6833 H   0  0  0  1  0  0  0  0  0  0  0  0
   -1.5511    7.4298   -0.0591 H   0  0  0  1  0  0  0  0  0  0  0  0
   -1.4332    4.7988   -3.1784 F   0  0  0  1  0  0  0  0  0  0  0  0
   -1.9938    3.8147   -3.8835 C   0  0  0  1  0  0  0  0  0  0  0  0
   -2.4507    4.3734   -5.0053 F   0  0  0  1  0  0  0  0  0  0  0  0
   -1.0000    3.0035   -4.2480 F   0  0  0  1  0  0  0  0  0  0  0  0
   -3.0755    3.0947   -3.1134 C   0  0  0  1  0  0  0  0  0  0  0  0
   -2.7583    2.4010   -1.9559 C   0  0  0  1  0  0  0  0  0  0  0  0
   -3.7477    1.7380   -1.2547 C   0  0  0  1  0  0  0  0  0  0  0  0
   -5.0580    1.7711   -1.7058 C   0  0  0  1  0  0  0  0  0  0  0  0
   -5.3741    2.4627   -2.8599 C   0  0  0  1  0  0  0  0  0  0  0  0
   -4.3819    3.1278   -3.5633 C   0  0  0  1  0  0  0  0  0  0  0  0
   -1.3164    2.4022   -1.5057 C   0  0  0  1  0  0  0  0  0  0  0  0
   -3.5091    1.2143   -0.3884 H   0  0  0  1  0  0  0  0  0  0  0  0
   -5.8031    1.2755   -1.1759 H   0  0  0  1  0  0  0  0  0  0  0  0
   -6.3564    2.4842   -3.2006 H   0  0  0  1  0  0  0  0  0  0  0  0
   -4.6205    3.6515   -4.4295 H   0  0  0  1  0  0  0  0  0  0  0  0
   -0.9877    1.3856   -1.4486 H   0  0  0  1  0  0  0  0  0  0  0  0
   -0.7411    2.9228   -2.2425 H   0  0  0  1  0  0  0  0  0  0  0  0
  1  4  1  0  0  0  0
  2  4  1  0  0  0  0
  2  5  2  0  0  0  0
  2  6  1  0  0  0  0
  3  4  1  0  0  0  0
  3  7  1  0  0  0  0
  3  8  1  0  0  0  0
  4 29  1  0  0  0  0
  6  9  1  0  0  0  0
  6 12  1  0  0  0  0
  8 10  1  0  0  0  0
  8 11  2  0  0  0  0
  9 13  1  0  0  0  0
  9 14  1  0  0  0  0
  9 15  1  0  0  0  0
 10 16  1  0  0  0  0
 10 17  1  0  0  0  0
 10 18  1  0  0  0  0
 19 20  1  0  0  0  0
 20 21  1  0  0  0  0
 20 22  1  0  0  0  0
 20 23  1  0  0  0  0
 23 24  4  0  0  0  0
 23 28  4  0  0  0  0
 24 25  4  0  0  0  0
 24 29  1  0  0  0  0
 25 26  4  0  0  0  0
 25 30  1  0  0  0  0
 26 27  4  0  0  0  0
 26 31  1  0  0  0  0
 27 28  4  0  0  0  0
 27 32  1  0  0  0  0
 28 33  1  0  0  0  0
 29 34  1  0  0  0  0
 29 35  1  0  0  0  0
M  END
> <BCLConfClusterSize>
1

> <ConfClashScore>
0.000602322 

> <ConfOneFourInteractionScore>
-0.9553 

> <ConfScore>
0.411853 

> <ConfScorePBest>
0.00552689 

> <ConfTolerance>
0.591069 

> <RosettaParamsInstructions>
M  ROOT 3
M  POLY_N_BB 3
M  POLY_CA_BB 4
M  POLY_C_BB 2
M  POLY_O_BB 5
M  POLY_IGNORE 9 10 11 12 13 14 15 16 17 18 
M  POLY_UPPER 6
M  POLY_LOWER 8
M  POLY_CHG 0
M  POLY_PROPERTIES ALPHA_AA D_AA PROTEIN AROMATIC POLYMER 
M  END

$$$$



 35 35  0  0  0  0  0  0  0  0999 V2000
   -1.0953    4.4166   -1.1718 H   0  0  0  1  0  0  0  0  0  0  0  0
    0.5510    3.4602   -0.2114 C   0  0  0  1  0  0  0  0  0  0  0  0
   -1.8155    3.5814    0.6096 N   0  0  0  1  0  0  0  0  0  0  0  0
   -0.9403    3.5294   -0.5940 C   0  0  0  1  0  0  0  0  0  0  0  0
    0.9189    3.6144    0.9502 O   0  0  0  1  0  0  0  0  0  0  0  0
    1.3980    3.2247   -1.2175 N   0  0  0  1  0  0  0  0  0  0  0  0
   -2.2431    4.4306    0.8471 H   0  0  0  1  0  0  0  0  0  0  0  0
   -2.0380    2.5106    1.3769 C   0  0  0  1  0  0  0  0  0  0  0  0
    2.8490    3.2576   -1.1101 C   0  0  0  1  0  0  0  0  0  0  0  0
   -2.8457    2.7589    2.6360 C   0  0  0  1  0  0  0  0  0  0  0  0
   -1.6230    1.3892    1.0967 O   0  0  0  1  0  0  0  0  0  0  0  0
    1.0132    3.0138   -2.0937 H   0  0  0  1  0  0  0  0  0  0  0  0
    3.1307    3.2620   -0.0779 H   0  0  0  1  0  0  0  0  0  0  0  0
    3.2215    4.1411   -1.5850 H   0  0  0  1  0  0  0  0  0  0  0  0
    3.2615    2.3940   -1.5885 H   0  0  0  1  0  0  0  0  0  0  0  0
   -3.8264    3.0946    2.3708 H   0  0  0  1  0  0  0  0  0  0  0  0
   -2.3612    3.5065    3.2286 H   0  0  0  1  0  0  0  0  0  0  0  0
   -2.9194    1.8507    3.1970 H   0  0  0  1  0  0  0  0  0  0  0  0
   -1.0826    4.4005   -3.1357 F   0  0  0  1  0  0  0  0  0  0  0  0
   -2.0056    3.8217   -3.9057 C   0  0  0  1  0  0  0  0  0  0  0  0
   -2.5251    4.7926   -4.6587 F   0  0  0  1  0  0  0  0  0  0  0  0
   -1.3453    3.0159   -4.7384 F   0  0  0  1  0  0  0  0  0  0  0  0
   -3.0568    3.0873   -3.0992 C   0  0  0  1  0  0  0  0  0  0  0  0
   -2.7487    2.3789   -1.9482 C   0  0  0  1  0  0  0  0  0  0  0  0
   -3.7467    1.7222   -1.2531 C   0  0  0  1  0  0  0  0  0  0  0  0
   -5.0564    1.7764   -1.7038 C   0  0  0  1  0  0  0  0  0  0  0  0
   -5.3634    2.4828   -2.8514 C   0  0  0  1  0  0  0  0  0  0  0  0
   -4.3627    3.1415   -3.5487 C   0  0  0  1  0  0  0  0  0  0  0  0
   -1.3227    2.3241   -1.4532 C   0  0  0  1  0  0  0  0  0  0  0  0
   -3.5149    1.1873   -0.3919 H   0  0  0  1  0  0  0  0  0  0  0  0
   -5.8079    1.2856   -1.1785 H   0  0  0  1  0  0  0  0  0  0  0  0
   -6.3454    2.5202   -3.1918 H   0  0  0  1  0  0  0  0  0  0  0  0
   -4.5945    3.6764   -4.4100 H   0  0  0  1  0  0  0  0  0  0  0  0
   -1.1989    1.4363   -0.8689 H   0  0  0  1  0  0  0  0  0  0  0  0
   -0.6694    2.2885   -2.2999 H   0  0  0  1  0  0  0  0  0  0  0  0
  1  4  1  0  0  0  0
  2  4  1  0  0  0  0
  2  5  2  0  0  0  0
  2  6  1  0  0  0  0
  3  4  1  0  0  0  0
  3  7  1  0  0  0  0
  3  8  1  0  0  0  0
  4 29  1  0  0  0  0
  6  9  1  0  0  0  0
  6 12  1  0  0  0  0
  8 10  1  0  0  0  0
  8 11  2  0  0  0  0
  9 13  1  0  0  0  0
  9 14  1  0  0  0  0
  9 15  1  0  0  0  0
 10 16  1  0  0  0  0
 10 17  1  0  0  0  0
 10 18  1  0  0  0  0
 19 20  1  0  0  0  0
 20 21  1  0  0  0  0
 20 22  1  0  0  0  0
 20 23  1  0  0  0  0
 23 24  4  0  0  0  0
 23 28  4  0  0  0  0
 24 25  4  0  0  0  0
 24 29  1  0  0  0  0
 25 26  4  0  0  0  0
 25 30  1  0  0  0  0
 26 27  4  0  0  0  0
 26 31  1  0  0  0  0
 27 28  4  0  0  0  0
 27 32  1  0  0  0  0
 28 33  1  0  0  0  0
 29 34  1  0  0  0  0
 29 35  1  0  0  0  0
M  END
> <BCLConfClusterSize>
1

> <ConfClashScore>
0 

> <ConfOneFourInteractionScore>
-0.960494 

> <ConfScore>
0.412662 

> <ConfScorePBest>
0.00549841 

> <ConfTolerance>
0.596646 

> <RosettaParamsInstructions>
M  ROOT 3
M  POLY_N_BB 3
M  POLY_CA_BB 4
M  POLY_C_BB 2
M  POLY_O_BB 5
M  POLY_IGNORE 9 10 11 12 13 14 15 16 17 18 
M  POLY_UPPER 6
M  POLY_LOWER 8
M  POLY_CHG 0
M  POLY_PROPERTIES ALPHA_AA D_AA PROTEIN AROMATIC POLYMER 
M  END

$$$$



 35 35  0  0  0  0  0  0  0  0999 V2000
    0.2156    1.5918   -0.5746 H   0  0  0  1  0  0  0  0  0  0  0  0
   -0.9510    0.3626   -1.8361 C   0  0  0  1  0  0  0  0  0  0  0  0
   -1.4768    1.0272    0.4766 N   0  0  0  1  0  0  0  0  0  0  0  0
   -0.8249    1.4297   -0.7646 C   0  0  0  1  0  0  0  0  0  0  0  0
   -0.2516    0.3870   -2.8453 O   0  0  0  1  0  0  0  0  0  0  0  0
   -1.8602   -0.5858   -1.6052 N   0  0  0  1  0  0  0  0  0  0  0  0
   -2.0581    1.6823    0.9162 H   0  0  0  1  0  0  0  0  0  0  0  0
   -1.3399   -0.1775    1.0642 C   0  0  0  1  0  0  0  0  0  0  0  0
   -1.9404   -1.7975   -2.4072 C   0  0  0  1  0  0  0  0  0  0  0  0
   -2.0825   -0.2996    2.3975 C   0  0  0  1  0  0  0  0  0  0  0  0
   -0.6934   -1.1046    0.6051 O   0  0  0  1  0  0  0  0  0  0  0  0
   -2.4962   -0.4622   -0.8700 H   0  0  0  1  0  0  0  0  0  0  0  0
   -2.8973   -2.2554   -2.2677 H   0  0  0  1  0  0  0  0  0  0  0  0
   -1.1721   -2.4775   -2.1034 H   0  0  0  1  0  0  0  0  0  0  0  0
   -1.8107   -1.5504   -3.4402 H   0  0  0  1  0  0  0  0  0  0  0  0
   -2.9714    0.2953    2.3671 H   0  0  0  1  0  0  0  0  0  0  0  0
   -1.4509    0.0436    3.1900 H   0  0  0  1  0  0  0  0  0  0  0  0
   -2.3443   -1.3232    2.5672 H   0  0  0  1  0  0  0  0  0  0  0  0
   -0.9625    3.0135   -4.1889 F   0  0  0  1  0  0  0  0  0  0  0  0
   -1.9928    3.8083   -3.8945 C   0  0  0  1  0  0  0  0  0  0  0  0
   -1.4852    4.8436   -3.2238 F   0  0  0  1  0  0  0  0  0  0  0  0
   -2.4328    4.2948   -5.0557 F   0  0  0  1  0  0  0  0  0  0  0  0
   -3.0739    3.0915   -3.1206 C   0  0  0  1  0  0  0  0  0  0  0  0
   -2.8032    2.5825   -1.8600 C   0  0  0  1  0  0  0  0  0  0  0  0
   -3.7915    1.9220   -1.1547 C   0  0  0  1  0  0  0  0  0  0  0  0
   -5.0547    1.7732   -1.7056 C   0  0  0  1  0  0  0  0  0  0  0  0
   -5.3245    2.2808   -2.9625 C   0  0  0  1  0  0  0  0  0  0  0  0
   -4.3335    2.9432   -3.6700 C   0  0  0  1  0  0  0  0  0  0  0  0
   -1.4286    2.7493   -1.2566 C   0  0  0  1  0  0  0  0  0  0  0  0
   -3.5873    1.5366   -0.2106 H   0  0  0  1  0  0  0  0  0  0  0  0
   -5.7994    1.2798   -1.1732 H   0  0  0  1  0  0  0  0  0  0  0  0
   -6.2711    2.1656   -3.3775 H   0  0  0  1  0  0  0  0  0  0  0  0
   -4.5377    3.3286   -4.6142 H   0  0  0  1  0  0  0  0  0  0  0  0
   -0.7792    3.1653   -1.9984 H   0  0  0  1  0  0  0  0  0  0  0  0
   -1.5000    3.4214   -0.4271 H   0  0  0  1  0  0  0  0  0  0  0  0
  1  4  1  0  0  0  0
  2  4  1  0  0  0  0
  2  5  2  0  0  0  0
  2  6  1  0  0  0  0
  3  4  1  0  0  0  0
  3  7  1  0  0  0  0
  3  8  1  0  0  0  0
  4 29  1  0  0  0  0
  6  9  1  0  0  0  0
  6 12  1  0  0  0  0
  8 10  1  0  0  0  0
  8 11  2  0  0  0  0
  9 13  1  0  0  0  0
  9 14  1  0  0  0  0
  9 15  1  0  0  0  0
 10 16  1  0  0  0  0
 10 17  1  0  0  0  0
 10 18  1  0  0  0  0
 19 20  1  0  0  0  0
 20 21  1  0  0  0  0
 20 22  1  0  0  0  0
 20 23  1  0  0  0  0
 23 24  4  0  0  0  0
 23 28  4  0  0  0  0
 24 25  4  0  0  0  0
 24 29  1  0  0  0  0
 25 26  4  0  0  0  0
 25 30  1  0  0  0  0
 26 27  4  0  0  0  0
 26 31  1  0  0  0  0
 27 28  4  0  0  0  0
 27 32  1  0  0  0  0
 28 33  1  0  0  0  0
 29 34  1  0  0  0  0
 29 35  1  0  0  0  0
M  END
> <BCLConfClusterSize>
1

> <ConfClashScore>
0 

> <ConfOneFourInteractionScore>
-0.957074 

> <ConfScore>
0.412717 

> <ConfScorePBest>
0.00546993 

> <ConfTolerance>
0.412516 

> <RosettaParamsInstructions>
M  ROOT 3
M  POLY_N_BB 3
M  POLY_CA_BB 4
M  POLY_C_BB 2
M  POLY_O_BB 5
M  POLY_IGNORE 9 10 11 12 13 14 15 16 17 18 
M  POLY_UPPER 6
M  POLY_LOWER 8
M  POLY_CHG 0
M  POLY_PROPERTIES ALPHA_AA D_AA PROTEIN AROMATIC POLYMER 
M  END

$$$$



 35 35  0  0  0  0  0  0  0  0999 V2000
    0.0859    2.2136   -0.1384 H   0  0  0  1  0  0  0  0  0  0  0  0
   -0.5082    0.8169   -1.5855 C   0  0  0  1  0  0  0  0  0  0  0  0
   -1.6328    1.2696    0.5205 N   0  0  0  1  0  0  0  0  0  0  0  0
   -0.8374    1.8728   -0.5582 C   0  0  0  1  0  0  0  0  0  0  0  0
    0.5104    0.8094   -2.2506 O   0  0  0  1  0  0  0  0  0  0  0  0
   -1.4213   -0.1536   -1.7426 N   0  0  0  1  0  0  0  0  0  0  0  0
   -1.9170    0.3385    0.4076 H   0  0  0  1  0  0  0  0  0  0  0  0
   -1.9969    1.8939    1.6417 C   0  0  0  1  0  0  0  0  0  0  0  0
   -1.2138   -1.1986   -2.7340 C   0  0  0  1  0  0  0  0  0  0  0  0
   -2.8319    1.0776    2.6088 C   0  0  0  1  0  0  0  0  0  0  0  0
   -1.6847    3.0573    1.8922 O   0  0  0  1  0  0  0  0  0  0  0  0
   -2.2296   -0.1587   -1.1886 H   0  0  0  1  0  0  0  0  0  0  0  0
   -1.4650   -0.8251   -3.7047 H   0  0  0  1  0  0  0  0  0  0  0  0
   -1.8362   -2.0377   -2.5029 H   0  0  0  1  0  0  0  0  0  0  0  0
   -0.1876   -1.5014   -2.7232 H   0  0  0  1  0  0  0  0  0  0  0  0
   -3.0952    1.6819    3.4516 H   0  0  0  1  0  0  0  0  0  0  0  0
   -2.2678    0.2307    2.9399 H   0  0  0  1  0  0  0  0  0  0  0  0
   -3.7220    0.7439    2.1175 H   0  0  0  1  0  0  0  0  0  0  0  0
   -2.3983    4.2531   -5.0803 F   0  0  0  1  0  0  0  0  0  0  0  0
   -1.9814    3.7858   -3.9023 C   0  0  0  1  0  0  0  0  0  0  0  0
   -0.9782    2.9476   -4.1676 F   0  0  0  1  0  0  0  0  0  0  0  0
   -1.4422    4.8222   -3.2591 F   0  0  0  1  0  0  0  0  0  0  0  0
   -3.0936    3.1279   -3.1126 C   0  0  0  1  0  0  0  0  0  0  0  0
   -2.8688    2.7559   -1.7963 C   0  0  0  1  0  0  0  0  0  0  0  0
   -3.8440    2.0715   -1.0957 C   0  0  0  1  0  0  0  0  0  0  0  0
   -5.0487    1.7617   -1.7074 C   0  0  0  1  0  0  0  0  0  0  0  0
   -5.2726    2.1327   -3.0198 C   0  0  0  1  0  0  0  0  0  0  0  0
   -4.2947    2.8191   -3.7227 C   0  0  0  1  0  0  0  0  0  0  0  0
   -1.5586    3.0982   -1.1272 C   0  0  0  1  0  0  0  0  0  0  0  0
   -3.6739    1.7889   -0.1094 H   0  0  0  1  0  0  0  0  0  0  0  0
   -5.7839    1.2502   -1.1789 H   0  0  0  1  0  0  0  0  0  0  0  0
   -6.1749    1.8967   -3.4801 H   0  0  0  1  0  0  0  0  0  0  0  0
   -4.4649    3.1017   -4.7090 H   0  0  0  1  0  0  0  0  0  0  0  0
   -0.9201    3.5652   -1.8477 H   0  0  0  1  0  0  0  0  0  0  0  0
   -1.7532    3.7810   -0.3267 H   0  0  0  1  0  0  0  0  0  0  0  0
  1  4  1  0  0  0  0
  2  4  1  0  0  0  0
  2  5  2  0  0  0  0
  2  6  1  0  0  0  0
  3  4  1  0  0  0  0
  3  7  1  0  0  0  0
  3  8  1  0  0  0  0
  4 29  1  0  0  0  0
  6  9  1  0  0  0  0
  6 12  1  0  0  0  0
  8 10  1  0  0  0  0
  8 11  2  0  0  0  0
  9 13  1  0  0  0  0
  9 14  1  0  0  0  0
  9 15  1  0  0  0  0
 10 16  1  0  0  0  0
 10 17  1  0  0  0  0
 10 18  1  0  0  0  0
 19 20  1  0  0  0  0
 20 21  1  0  0  0  0
 20 22  1  0  0  0  0
 20 23  1  0  0  0  0
 23 24  4  0  0  0  0
 23 28  4  0  0  0  0
 24 25  4  0  0  0  0
 24 29  1  0  0  0  0
 25 26  4  0  0  0  0
 25 30  1  0  0  0  0
 26 27  4  0  0  0  0
 26 31  1  0  0  0  0
 27 28  4  0  0  0  0
 27 32  1  0  0  0  0
 28 33  1  0  0  0  0
 29 34  1  0  0  0  0
 29 35  1  0  0  0  0
M  END
> <BCLConfClusterSize>
1

> <ConfClashScore>
0 

> <ConfOneFourInteractionScore>
-0.952634 

> <ConfScore>
0.41426 

> <ConfScorePBest>
0.00544145 

> <ConfTolerance>
0.470261 

> <RosettaParamsInstructions>
M  ROOT 3
M  POLY_N_BB 3
M  POLY_CA_BB 4
M  POLY_C_BB 2
M  POLY_O_BB 5
M  POLY_IGNORE 9 10 11 12 13 14 15 16 17 18 
M  POLY_UPPER 6
M  POLY_LOWER 8
M  POLY_CHG 0
M  POLY_PROPERTIES ALPHA_AA D_AA PROTEIN AROMATIC POLYMER 
M  END

$$$$



 35 35  0  0  0  0  0  0  0  0999 V2000
   -1.3818    5.0244   -1.1649 H   0  0  0  1  0  0  0  0  0  0  0  0
   -0.0551    4.3068    0.3404 C   0  0  0  1  0  0  0  0  0  0  0  0
   -2.4921    4.4665    0.5041 N   0  0  0  1  0  0  0  0  0  0  0  0
   -1.3812    4.2625   -0.4137 C   0  0  0  1  0  0  0  0  0  0  0  0
    0.5823    3.2771    0.5571 O   0  0  0  1  0  0  0  0  0  0  0  0
    0.3911    5.4953    0.7571 N   0  0  0  1  0  0  0  0  0  0  0  0
   -3.1103    3.7246    0.6706 H   0  0  0  1  0  0  0  0  0  0  0  0
   -2.6987    5.6324    1.1288 C   0  0  0  1  0  0  0  0  0  0  0  0
    1.5678    5.6310    1.6025 C   0  0  0  1  0  0  0  0  0  0  0  0
   -3.8428    5.6529    2.1237 C   0  0  0  1  0  0  0  0  0  0  0  0
   -2.0145    6.6337    0.9218 O   0  0  0  1  0  0  0  0  0  0  0  0
   -0.0908    6.3037    0.4838 H   0  0  0  1  0  0  0  0  0  0  0  0
    2.3840    5.0929    1.1677 H   0  0  0  1  0  0  0  0  0  0  0  0
    1.3566    5.2346    2.5736 H   0  0  0  1  0  0  0  0  0  0  0  0
    1.8280    6.6654    1.6877 H   0  0  0  1  0  0  0  0  0  0  0  0
   -3.6957    6.4512    2.8207 H   0  0  0  1  0  0  0  0  0  0  0  0
   -3.8744    4.7217    2.6497 H   0  0  0  1  0  0  0  0  0  0  0  0
   -4.7657    5.8002    1.6026 H   0  0  0  1  0  0  0  0  0  0  0  0
   -1.3734    3.0138   -4.7883 F   0  0  0  1  0  0  0  0  0  0  0  0
   -1.9984    3.8049   -3.9145 C   0  0  0  1  0  0  0  0  0  0  0  0
   -1.0514    4.3725   -3.1658 F   0  0  0  1  0  0  0  0  0  0  0  0
   -2.5091    4.7988   -4.6424 F   0  0  0  1  0  0  0  0  0  0  0  0
   -3.0546    3.0852   -3.1013 C   0  0  0  1  0  0  0  0  0  0  0  0
   -2.8323    2.6691   -1.7978 C   0  0  0  1  0  0  0  0  0  0  0  0
   -3.8297    2.0114   -1.1029 C   0  0  0  1  0  0  0  0  0  0  0  0
   -5.0540    1.7726   -1.7074 C   0  0  0  1  0  0  0  0  0  0  0  0
   -5.2755    2.1874   -3.0070 C   0  0  0  1  0  0  0  0  0  0  0  0
   -4.2753    2.8471   -3.7041 C   0  0  0  1  0  0  0  0  0  0  0  0
   -1.5217    2.9061   -1.0852 C   0  0  0  1  0  0  0  0  0  0  0  0
   -3.6616    1.6957   -0.1263 H   0  0  0  1  0  0  0  0  0  0  0  0
   -5.8058    1.2812   -1.1830 H   0  0  0  1  0  0  0  0  0  0  0  0
   -6.1926    2.0047   -3.4619 H   0  0  0  1  0  0  0  0  0  0  0  0
   -4.4434    3.1628   -4.6807 H   0  0  0  1  0  0  0  0  0  0  0  0
   -1.4140    2.1527   -0.3331 H   0  0  0  1  0  0  0  0  0  0  0  0
   -0.7338    2.8098   -1.8026 H   0  0  0  1  0  0  0  0  0  0  0  0
  1  4  1  0  0  0  0
  2  4  1  0  0  0  0
  2  5  2  0  0  0  0
  2  6  1  0  0  0  0
  3  4  1  0  0  0  0
  3  7  1  0  0  0  0
  3  8  1  0  0  0  0
  4 29  1  0  0  0  0
  6  9  1  0  0  0  0
  6 12  1  0  0  0  0
  8 10  1  0  0  0  0
  8 11  2  0  0  0  0
  9 13  1  0  0  0  0
  9 14  1  0  0  0  0
  9 15  1  0  0  0  0
 10 16  1  0  0  0  0
 10 17  1  0  0  0  0
 10 18  1  0  0  0  0
 19 20  1  0  0  0  0
 20 21  1  0  0  0  0
 20 22  1  0  0  0  0
 20 23  1  0  0  0  0
 23 24  4  0  0  0  0
 23 28  4  0  0  0  0
 24 25  4  0  0  0  0
 24 29  1  0  0  0  0
 25 26  4  0  0  0  0
 25 30  1  0  0  0  0
 26 27  4  0  0  0  0
 26 31  1  0  0  0  0
 27 28  4  0  0  0  0
 27 32  1  0  0  0  0
 28 33  1  0  0  0  0
 29 34  1  0  0  0  0
 29 35  1  0  0  0  0
M  END
> <BCLConfClusterSize>
1

> <ConfClashScore>
0 

> <ConfOneFourInteractionScore>
-0.979134 

> <ConfScore>
0.415932 

> <ConfScorePBest>
0.00541297 

> <ConfTolerance>
0.65608 

> <RosettaParamsInstructions>
M  ROOT 3
M  POLY_N_BB 3
M  POLY_CA_BB 4
M  POLY_C_BB 2
M  POLY_O_BB 5
M  POLY_IGNORE 9 10 11 12 13 14 15 16 17 18 
M  POLY_UPPER 6
M  POLY_LOWER 8
M  POLY_CHG 0
M  POLY_PROPERTIES ALPHA_AA D_AA PROTEIN AROMATIC POLYMER 
M  END

$$$$



 35 35  0  0  0  0  0  0  0  0999 V2000
   -0.4362    1.6217   -3.1780 H   0  0  0  1  0  0  0  0  0  0  0  0
   -0.8113   -0.1078   -2.0424 C   0  0  0  1  0  0  0  0  0  0  0  0
    0.9677    1.5122   -1.6621 N   0  0  0  1  0  0  0  0  0  0  0  0
   -0.4119    1.3520   -2.1429 C   0  0  0  1  0  0  0  0  0  0  0  0
   -1.9817   -0.4082   -1.8223 O   0  0  0  1  0  0  0  0  0  0  0  0
    0.1464   -1.0154   -2.2898 N   0  0  0  1  0  0  0  0  0  0  0  0
    1.6305    1.9235   -2.2553 H   0  0  0  1  0  0  0  0  0  0  0  0
    1.3489    1.1174   -0.4469 C   0  0  0  1  0  0  0  0  0  0  0  0
   -0.1352   -2.4410   -2.3683 C   0  0  0  1  0  0  0  0  0  0  0  0
    2.8201    1.2974   -0.1271 C   0  0  0  1  0  0  0  0  0  0  0  0
    0.5710    0.6356    0.3755 O   0  0  0  1  0  0  0  0  0  0  0  0
    1.0672   -0.7072   -2.4221 H   0  0  0  1  0  0  0  0  0  0  0  0
   -1.0384   -2.6564   -1.8365 H   0  0  0  1  0  0  0  0  0  0  0  0
    0.6741   -2.9887   -1.9326 H   0  0  0  1  0  0  0  0  0  0  0  0
   -0.2485   -2.7260   -3.3934 H   0  0  0  1  0  0  0  0  0  0  0  0
    3.3755    1.3837   -1.0376 H   0  0  0  1  0  0  0  0  0  0  0  0
    3.1709    0.4510    0.4256 H   0  0  0  1  0  0  0  0  0  0  0  0
    2.9520    2.1846    0.4563 H   0  0  0  1  0  0  0  0  0  0  0  0
   -0.9792    4.2323   -3.1654 F   0  0  0  1  0  0  0  0  0  0  0  0
   -2.0069    3.8244   -3.9120 C   0  0  0  1  0  0  0  0  0  0  0  0
   -2.4915    4.9154   -4.5072 F   0  0  0  1  0  0  0  0  0  0  0  0
   -1.4879    3.0694   -4.8812 F   0  0  0  1  0  0  0  0  0  0  0  0
   -3.0563    3.0899   -3.1033 C   0  0  0  1  0  0  0  0  0  0  0  0
   -2.7467    2.3869   -1.9493 C   0  0  0  1  0  0  0  0  0  0  0  0
   -3.7431    1.7298   -1.2523 C   0  0  0  1  0  0  0  0  0  0  0  0
   -5.0527    1.7781   -1.7041 C   0  0  0  1  0  0  0  0  0  0  0  0
   -5.3612    2.4790   -2.8547 C   0  0  0  1  0  0  0  0  0  0  0  0
   -4.3621    3.1381   -3.5539 C   0  0  0  1  0  0  0  0  0  0  0  0
   -1.3400    2.3035   -1.4056 C   0  0  0  1  0  0  0  0  0  0  0  0
   -3.5102    1.1991   -0.3888 H   0  0  0  1  0  0  0  0  0  0  0  0
   -5.8030    1.2870   -1.1774 H   0  0  0  1  0  0  0  0  0  0  0  0
   -6.3430    2.5119   -3.1959 H   0  0  0  1  0  0  0  0  0  0  0  0
   -4.5950    3.6688   -4.4174 H   0  0  0  1  0  0  0  0  0  0  0  0
   -0.9108    3.2827   -1.4487 H   0  0  0  1  0  0  0  0  0  0  0  0
   -1.3985    1.9838   -0.3862 H   0  0  0  1  0  0  0  0  0  0  0  0
  1  4  1  0  0  0  0
  2  4  1  0  0  0  0
  2  5  2  0  0  0  0
  2  6  1  0  0  0  0
  3  4  1  0  0  0  0
  3  7  1  0  0  0  0
  3  8  1  0  0  0  0
  4 29  1  0  0  0  0
  6  9  1  0  0  0  0
  6 12  1  0  0  0  0
  8 10  1  0  0  0  0
  8 11  2  0  0  0  0
  9 13  1  0  0  0  0
  9 14  1  0  0  0  0
  9 15  1  0  0  0  0
 10 16  1  0  0  0  0
 10 17  1  0  0  0  0
 10 18  1  0  0  0  0
 19 20  1  0  0  0  0
 20 21  1  0  0  0  0
 20 22  1  0  0  0  0
 20 23  1  0  0  0  0
 23 24  4  0  0  0  0
 23 28  4  0  0  0  0
 24 25  4  0  0  0  0
 24 29  1  0  0  0  0
 25 26  4  0  0  0  0
 25 30  1  0  0  0  0
 26 27  4  0  0  0  0
 26 31  1  0  0  0  0
 27 28  4  0  0  0  0
 27 32  1  0  0  0  0
 28 33  1  0  0  0  0
 29 34  1  0  0  0  0
 29 35  1  0  0  0  0
M  END
> <BCLConfClusterSize>
1

> <ConfClashScore>
0 

> <ConfOneFourInteractionScore>
-0.957364 

> <ConfScore>
0.420455 

> <ConfScorePBest>
0.00538449 

> <ConfTolerance>
0.410022 

> <RosettaParamsInstructions>
M  ROOT 3
M  POLY_N_BB 3
M  POLY_CA_BB 4
M  POLY_C_BB 2
M  POLY_O_BB 5
M  POLY_IGNORE 9 10 11 12 13 14 15 16 17 18 
M  POLY_UPPER 6
M  POLY_LOWER 8
M  POLY_CHG 0
M  POLY_PROPERTIES ALPHA_AA D_AA PROTEIN AROMATIC POLYMER 
M  END

$$$$



 35 35  0  0  0  0  0  0  0  0999 V2000
   -2.0248    3.5790    0.5514 H   0  0  0  1  0  0  0  0  0  0  0  0
   -1.7297    5.1555   -0.7871 C   0  0  0  1  0  0  0  0  0  0  0  0
    0.0045    3.8022    0.3579 N   0  0  0  1  0  0  0  0  0  0  0  0
   -1.3304    3.8080   -0.2298 C   0  0  0  1  0  0  0  0  0  0  0  0
   -0.8805    5.9450   -1.1985 O   0  0  0  1  0  0  0  0  0  0  0  0
   -3.0277    5.4613   -0.8191 N   0  0  0  1  0  0  0  0  0  0  0  0
    0.7540    4.0623   -0.2175 H   0  0  0  1  0  0  0  0  0  0  0  0
    0.2914    3.4584    1.6615 C   0  0  0  1  0  0  0  0  0  0  0  0
   -3.5742    6.7277   -1.2834 C   0  0  0  1  0  0  0  0  0  0  0  0
    1.7309    3.5762    2.0695 C   0  0  0  1  0  0  0  0  0  0  0  0
   -0.5977    3.0868    2.4041 O   0  0  0  1  0  0  0  0  0  0  0  0
   -3.6611    4.7820   -0.5063 H   0  0  0  1  0  0  0  0  0  0  0  0
   -4.5439    6.8763   -0.8563 H   0  0  0  1  0  0  0  0  0  0  0  0
   -3.6532    6.7120   -2.3503 H   0  0  0  1  0  0  0  0  0  0  0  0
   -2.9271    7.5259   -0.9849 H   0  0  0  1  0  0  0  0  0  0  0  0
    1.9874    4.6090    2.1805 H   0  0  0  1  0  0  0  0  0  0  0  0
    2.3516    3.1335    1.3187 H   0  0  0  1  0  0  0  0  0  0  0  0
    1.8801    3.0699    3.0003 H   0  0  0  1  0  0  0  0  0  0  0  0
   -0.8965    3.0706   -4.0542 F   0  0  0  1  0  0  0  0  0  0  0  0
   -1.9947    3.8123   -3.9003 C   0  0  0  1  0  0  0  0  0  0  0  0
   -1.6024    4.9403   -3.3061 F   0  0  0  1  0  0  0  0  0  0  0  0
   -2.3893    4.1542   -5.1275 F   0  0  0  1  0  0  0  0  0  0  0  0
   -3.0737    3.0945   -3.1245 C   0  0  0  1  0  0  0  0  0  0  0  0
   -2.7924    2.5610   -1.8764 C   0  0  0  1  0  0  0  0  0  0  0  0
   -3.7788    1.8997   -1.1694 C   0  0  0  1  0  0  0  0  0  0  0  0
   -5.0508    1.7745   -1.7059 C   0  0  0  1  0  0  0  0  0  0  0  0
   -5.3311    2.3065   -2.9503 C   0  0  0  1  0  0  0  0  0  0  0  0
   -4.3420    2.9698   -3.6596 C   0  0  0  1  0  0  0  0  0  0  0  0
   -1.4277    2.6709   -1.2384 C   0  0  0  1  0  0  0  0  0  0  0  0
   -3.5667    1.4959   -0.2347 H   0  0  0  1  0  0  0  0  0  0  0  0
   -5.7941    1.2804   -1.1721 H   0  0  0  1  0  0  0  0  0  0  0  0
   -6.2844    2.2092   -3.3546 H   0  0  0  1  0  0  0  0  0  0  0  0
   -4.5541    3.3736   -4.5942 H   0  0  0  1  0  0  0  0  0  0  0  0
   -1.2112    1.7510   -0.7366 H   0  0  0  1  0  0  0  0  0  0  0  0
   -0.7039    2.8363   -2.0089 H   0  0  0  1  0  0  0  0  0  0  0  0
  1  4  1  0  0  0  0
  2  4  1  0  0  0  0
  2  5  2  0  0  0  0
  2  6  1  0  0  0  0
  3  4  1  0  0  0  0
  3  7  1  0  0  0  0
  3  8  1  0  0  0  0
  4 29  1  0  0  0  0
  6  9  1  0  0  0  0
  6 12  1  0  0  0  0
  8 10  1  0  0  0  0
  8 11  2  0  0  0  0
  9 13  1  0  0  0  0
  9 14  1  0  0  0  0
  9 15  1  0  0  0  0
 10 16  1  0  0  0  0
 10 17  1  0  0  0  0
 10 18  1  0  0  0  0
 19 20  1  0  0  0  0
 20 21  1  0  0  0  0
 20 22  1  0  0  0  0
 20 23  1  0  0  0  0
 23 24  4  0  0  0  0
 23 28  4  0  0  0  0
 24 25  4  0  0  0  0
 24 29  1  0  0  0  0
 25 26  4  0  0  0  0
 25 30  1  0  0  0  0
 26 27  4  0  0  0  0
 26 31  1  0  0  0  0
 27 28  4  0  0  0  0
 27 32  1  0  0  0  0
 28 33  1  0  0  0  0
 29 34  1  0  0  0  0
 29 35  1  0  0  0  0
M  END
> <BCLConfClusterSize>
1

> <ConfClashScore>
0 

> <ConfOneFourInteractionScore>
-0.990503 

> <ConfScore>
0.420993 

> <ConfScorePBest>
0.00535601 

> <ConfTolerance>
0.668167 

> <RosettaParamsInstructions>
M  ROOT 3
M  POLY_N_BB 3
M  POLY_CA_BB 4
M  POLY_C_BB 2
M  POLY_O_BB 5
M  POLY_IGNORE 9 10 11 12 13 14 15 16 17 18 
M  POLY_UPPER 6
M  POLY_LOWER 8
M  POLY_CHG 0
M  POLY_PROPERTIES ALPHA_AA D_AA PROTEIN AROMATIC POLYMER 
M  END

$$$$



 35 35  0  0  0  0  0  0  0  0999 V2000
   -0.0332    2.9488    0.0772 H   0  0  0  1  0  0  0  0  0  0  0  0
   -1.7567    2.1558    1.0090 C   0  0  0  1  0  0  0  0  0  0  0  0
   -1.5426    4.3516   -0.1258 N   0  0  0  1  0  0  0  0  0  0  0  0
   -1.0878    2.9582   -0.1036 C   0  0  0  1  0  0  0  0  0  0  0  0
   -2.3412    2.7146    1.9363 O   0  0  0  1  0  0  0  0  0  0  0  0
   -1.6625    0.8273    0.9038 N   0  0  0  1  0  0  0  0  0  0  0  0
   -2.3931    4.5785    0.3050 H   0  0  0  1  0  0  0  0  0  0  0  0
   -0.8380    5.3231   -0.7129 C   0  0  0  1  0  0  0  0  0  0  0  0
   -2.3154   -0.0750    1.8405 C   0  0  0  1  0  0  0  0  0  0  0  0
   -1.4221    6.7182   -0.6046 C   0  0  0  1  0  0  0  0  0  0  0  0
    0.2103    5.1198   -1.3029 O   0  0  0  1  0  0  0  0  0  0  0  0
   -1.1354    0.4471    0.1702 H   0  0  0  1  0  0  0  0  0  0  0  0
   -1.8128   -0.0349    2.7843 H   0  0  0  1  0  0  0  0  0  0  0  0
   -2.2773   -1.0738    1.4587 H   0  0  0  1  0  0  0  0  0  0  0  0
   -3.3360    0.2203    1.9674 H   0  0  0  1  0  0  0  0  0  0  0  0
   -1.7716    6.8826    0.3933 H   0  0  0  1  0  0  0  0  0  0  0  0
   -2.2386    6.8169   -1.2890 H   0  0  0  1  0  0  0  0  0  0  0  0
   -0.6682    7.4396   -0.8415 H   0  0  0  1  0  0  0  0  0  0  0  0
   -1.2978    4.6612   -3.1262 F   0  0  0  1  0  0  0  0  0  0  0  0
   -1.9955    3.8180   -3.8892 C   0  0  0  1  0  0  0  0  0  0  0  0
   -2.4848    4.5438   -4.8957 F   0  0  0  1  0  0  0  0  0  0  0  0
   -1.1082    2.9812   -4.4288 F   0  0  0  1  0  0  0  0  0  0  0  0
   -3.0753    3.0973   -3.1171 C   0  0  0  1  0  0  0  0  0  0  0  0
   -2.7539    2.3956   -1.9657 C   0  0  0  1  0  0  0  0  0  0  0  0
   -3.7417    1.7320   -1.2626 C   0  0  0  1  0  0  0  0  0  0  0  0
   -5.0545    1.7726   -1.7059 C   0  0  0  1  0  0  0  0  0  0  0  0
   -5.3747    2.4723   -2.8539 C   0  0  0  1  0  0  0  0  0  0  0  0
   -4.3842    3.1379   -3.5592 C   0  0  0  1  0  0  0  0  0  0  0  0
   -1.3247    2.3557   -1.4788 C   0  0  0  1  0  0  0  0  0  0  0  0
   -3.5000    1.2021   -0.4010 H   0  0  0  1  0  0  0  0  0  0  0  0
   -5.7983    1.2766   -1.1746 H   0  0  0  1  0  0  0  0  0  0  0  0
   -6.3590    2.4994   -3.1887 H   0  0  0  1  0  0  0  0  0  0  0  0
   -4.6260    3.6677   -4.4208 H   0  0  0  1  0  0  0  0  0  0  0  0
   -1.0147    1.3321   -1.4486 H   0  0  0  1  0  0  0  0  0  0  0  0
   -0.7214    2.8910   -2.1820 H   0  0  0  1  0  0  0  0  0  0  0  0
  1  4  1  0  0  0  0
  2  4  1  0  0  0  0
  2  5  2  0  0  0  0
  2  6  1  0  0  0  0
  3  4  1  0  0  0  0
  3  7  1  0  0  0  0
  3  8  1  0  0  0  0
  4 29  1  0  0  0  0
  6  9  1  0  0  0  0
  6 12  1  0  0  0  0
  8 10  1  0  0  0  0
  8 11  2  0  0  0  0
  9 13  1  0  0  0  0
  9 14  1  0  0  0  0
  9 15  1  0  0  0  0
 10 16  1  0  0  0  0
 10 17  1  0  0  0  0
 10 18  1  0  0  0  0
 19 20  1  0  0  0  0
 20 21  1  0  0  0  0
 20 22  1  0  0  0  0
 20 23  1  0  0  0  0
 23 24  4  0  0  0  0
 23 28  4  0  0  0  0
 24 25  4  0  0  0  0
 24 29  1  0  0  0  0
 25 26  4  0  0  0  0
 25 30  1  0  0  0  0
 26 27  4  0  0  0  0
 26 31  1  0  0  0  0
 27 28  4  0  0  0  0
 27 32  1  0  0  0  0
 28 33  1  0  0  0  0
 29 34  1  0  0  0  0
 29 35  1  0  0  0  0
M  END
> <BCLConfClusterSize>
1

> <ConfClashScore>
0 

> <ConfOneFourInteractionScore>
-0.954417 

> <ConfScore>
0.422448 

> <ConfScorePBest>
0.00532753 

> <ConfTolerance>
0.435064 

> <RosettaParamsInstructions>
M  ROOT 3
M  POLY_N_BB 3
M  POLY_CA_BB 4
M  POLY_C_BB 2
M  POLY_O_BB 5
M  POLY_IGNORE 9 10 11 12 13 14 15 16 17 18 
M  POLY_UPPER 6
M  POLY_LOWER 8
M  POLY_CHG 0
M  POLY_PROPERTIES ALPHA_AA D_AA PROTEIN AROMATIC POLYMER 
M  END

$$$$



 35 35  0  0  0  0  0  0  0  0999 V2000
   -1.4288    0.4186   -0.6096 H   0  0  0  1  0  0  0  0  0  0  0  0
    0.6157    0.9840   -0.6579 C   0  0  0  1  0  0  0  0  0  0  0  0
   -0.7726    0.2382   -2.5882 N   0  0  0  1  0  0  0  0  0  0  0  0
   -0.7774    0.9399   -1.2796 C   0  0  0  1  0  0  0  0  0  0  0  0
    0.8520    1.6767    0.3309 O   0  0  0  1  0  0  0  0  0  0  0  0
    1.5420    0.2291   -1.2555 N   0  0  0  1  0  0  0  0  0  0  0  0
   -1.3141   -0.5661   -2.7307 H   0  0  0  1  0  0  0  0  0  0  0  0
   -0.0016    0.7393   -3.5754 C   0  0  0  1  0  0  0  0  0  0  0  0
    2.9185    0.1712   -0.7867 C   0  0  0  1  0  0  0  0  0  0  0  0
   -0.0123    0.0324   -4.9168 C   0  0  0  1  0  0  0  0  0  0  0  0
    0.6907    1.7402   -3.3951 O   0  0  0  1  0  0  0  0  0  0  0  0
    1.2857   -0.3042   -2.0367 H   0  0  0  1  0  0  0  0  0  0  0  0
    2.9290    0.0259    0.2734 H   0  0  0  1  0  0  0  0  0  0  0  0
    3.4153    1.0883   -1.0257 H   0  0  0  1  0  0  0  0  0  0  0  0
    3.4234   -0.6431   -1.2630 H   0  0  0  1  0  0  0  0  0  0  0  0
   -0.4392   -0.9422   -4.8036 H   0  0  0  1  0  0  0  0  0  0  0  0
    0.9900   -0.0575   -5.2803 H   0  0  0  1  0  0  0  0  0  0  0  0
   -0.5954    0.5982   -5.6131 H   0  0  0  1  0  0  0  0  0  0  0  0
   -1.4563    4.8226   -3.1977 F   0  0  0  1  0  0  0  0  0  0  0  0
   -1.9954    3.8174   -3.8896 C   0  0  0  1  0  0  0  0  0  0  0  0
   -2.4477    4.3480   -5.0268 F   0  0  0  1  0  0  0  0  0  0  0  0
   -0.9864    3.0135   -4.2277 F   0  0  0  1  0  0  0  0  0  0  0  0
   -3.0753    3.0970   -3.1174 C   0  0  0  1  0  0  0  0  0  0  0  0
   -2.7561    2.4066   -1.9584 C   0  0  0  1  0  0  0  0  0  0  0  0
   -3.7439    1.7432   -1.2552 C   0  0  0  1  0  0  0  0  0  0  0  0
   -5.0545    1.7726   -1.7058 C   0  0  0  1  0  0  0  0  0  0  0  0
   -5.3725    2.4610   -2.8613 C   0  0  0  1  0  0  0  0  0  0  0  0
   -4.3820    3.1264   -3.5667 C   0  0  0  1  0  0  0  0  0  0  0  0
   -1.3293    2.3789   -1.4636 C   0  0  0  1  0  0  0  0  0  0  0  0
   -3.5039    1.2219   -0.3879 H   0  0  0  1  0  0  0  0  0  0  0  0
   -5.7984    1.2768   -1.1745 H   0  0  0  1  0  0  0  0  0  0  0  0
   -6.3550    2.4798   -3.2016 H   0  0  0  1  0  0  0  0  0  0  0  0
   -4.6220    3.6477   -4.4340 H   0  0  0  1  0  0  0  0  0  0  0  0
   -0.7131    2.8920   -2.1721 H   0  0  0  1  0  0  0  0  0  0  0  0
   -1.2859    2.8834   -0.5210 H   0  0  0  1  0  0  0  0  0  0  0  0
  1  4  1  0  0  0  0
  2  4  1  0  0  0  0
  2  5  2  0  0  0  0
  2  6  1  0  0  0  0
  3  4  1  0  0  0  0
  3  7  1  0  0  0  0
  3  8  1  0  0  0  0
  4 29  1  0  0  0  0
  6  9  1  0  0  0  0
  6 12  1  0  0  0  0
  8 10  1  0  0  0  0
  8 11  2  0  0  0  0
  9 13  1  0  0  0  0
  9 14  1  0  0  0  0
  9 15  1  0  0  0  0
 10 16  1  0  0  0  0
 10 17  1  0  0  0  0
 10 18  1  0  0  0  0
 19 20  1  0  0  0  0
 20 21  1  0  0  0  0
 20 22  1  0  0  0  0
 20 23  1  0  0  0  0
 23 24  4  0  0  0  0
 23 28  4  0  0  0  0
 24 25  4  0  0  0  0
 24 29  1  0  0  0  0
 25 26  4  0  0  0  0
 25 30  1  0  0  0  0
 26 27  4  0  0  0  0
 26 31  1  0  0  0  0
 27 28  4  0  0  0  0
 27 32  1  0  0  0  0
 28 33  1  0  0  0  0
 29 34  1  0  0  0  0
 29 35  1  0  0  0  0
M  END
> <BCLConfClusterSize>
1

> <ConfClashScore>
0.000247281 

> <ConfOneFourInteractionScore>
-0.938662 

> <ConfScore>
0.427347 

> <ConfScorePBest>
0.00529905 

> <ConfTolerance>
0.234954 

> <RosettaParamsInstructions>
M  ROOT 3
M  POLY_N_BB 3
M  POLY_CA_BB 4
M  POLY_C_BB 2
M  POLY_O_BB 5
M  POLY_IGNORE 9 10 11 12 13 14 15 16 17 18 
M  POLY_UPPER 6
M  POLY_LOWER 8
M  POLY_CHG 0
M  POLY_PROPERTIES ALPHA_AA D_AA PROTEIN AROMATIC POLYMER 
M  END

$$$$



 35 35  0  0  0  0  0  0  0  0999 V2000
    0.4184    1.7328   -1.6150 H   0  0  0  1  0  0  0  0  0  0  0  0
   -1.0689    0.5389   -2.4976 C   0  0  0  1  0  0  0  0  0  0  0  0
   -0.5845    0.7781   -0.0925 N   0  0  0  1  0  0  0  0  0  0  0  0
   -0.5870    1.4485   -1.3842 C   0  0  0  1  0  0  0  0  0  0  0  0
   -0.7363    0.7258   -3.6564 O   0  0  0  1  0  0  0  0  0  0  0  0
   -1.8731   -0.4679   -2.1212 N   0  0  0  1  0  0  0  0  0  0  0  0
   -1.0541   -0.0773   -0.0027 H   0  0  0  1  0  0  0  0  0  0  0  0
    0.0358    1.2884    0.9752 C   0  0  0  1  0  0  0  0  0  0  0  0
   -2.2862   -1.5180   -3.0402 C   0  0  0  1  0  0  0  0  0  0  0  0
    0.0033    0.4876    2.2831 C   0  0  0  1  0  0  0  0  0  0  0  0
    0.6329    2.3640    0.9731 O   0  0  0  1  0  0  0  0  0  0  0  0
   -2.1931   -0.4968   -1.1954 H   0  0  0  1  0  0  0  0  0  0  0  0
   -1.5565   -1.6212   -3.8159 H   0  0  0  1  0  0  0  0  0  0  0  0
   -3.2314   -1.2624   -3.4717 H   0  0  0  1  0  0  0  0  0  0  0  0
   -2.3746   -2.4424   -2.5086 H   0  0  0  1  0  0  0  0  0  0  0  0
   -0.0324   -0.5585    2.0606 H   0  0  0  1  0  0  0  0  0  0  0  0
   -0.8634    0.7617    2.8474 H   0  0  0  1  0  0  0  0  0  0  0  0
    0.8831    0.7008    2.8535 H   0  0  0  1  0  0  0  0  0  0  0  0
   -0.8989    3.0443   -4.0600 F   0  0  0  1  0  0  0  0  0  0  0  0
   -1.9849    3.8011   -3.8929 C   0  0  0  1  0  0  0  0  0  0  0  0
   -1.5465    4.8760   -3.2359 F   0  0  0  1  0  0  0  0  0  0  0  0
   -2.3494    4.2357   -5.0815 F   0  0  0  1  0  0  0  0  0  0  0  0
   -3.0948    3.0919   -3.1449 C   0  0  0  1  0  0  0  0  0  0  0  0
   -2.8033    2.5752   -1.8921 C   0  0  0  1  0  0  0  0  0  0  0  0
   -3.7813    1.9148   -1.1726 C   0  0  0  1  0  0  0  0  0  0  0  0
   -5.0549    1.7738   -1.7013 C   0  0  0  1  0  0  0  0  0  0  0  0
   -5.3453    2.2891   -2.9504 C   0  0  0  1  0  0  0  0  0  0  0  0
   -4.3646    2.9515   -3.6722 C   0  0  0  1  0  0  0  0  0  0  0  0
   -1.4174    2.7334   -1.3128 C   0  0  0  1  0  0  0  0  0  0  0  0
   -3.5616    1.5235   -0.2343 H   0  0  0  1  0  0  0  0  0  0  0  0
   -5.7918    1.2804   -1.1581 H   0  0  0  1  0  0  0  0  0  0  0  0
   -6.2997    2.1799   -3.3488 H   0  0  0  1  0  0  0  0  0  0  0  0
   -4.5843    3.3427   -4.6105 H   0  0  0  1  0  0  0  0  0  0  0  0
   -0.9063    3.4999   -1.8570 H   0  0  0  1  0  0  0  0  0  0  0  0
   -1.5081    3.0237   -0.2869 H   0  0  0  1  0  0  0  0  0  0  0  0
  1  4  1  0  0  0  0
  2  4  1  0  0  0  0
  2  5  2  0  0  0  0
  2  6  1  0  0  0  0
  3  4  1  0  0  0  0
  3  7  1  0  0  0  0
  3  8  1  0  0  0  0
  4 29  1  0  0  0  0
  6  9  1  0  0  0  0
  6 12  1  0  0  0  0
  8 10  1  0  0  0  0
  8 11  2  0  0  0  0
  9 13  1  0  0  0  0
  9 14  1  0  0  0  0
  9 15  1  0  0  0  0
 10 16  1  0  0  0  0
 10 17  1  0  0  0  0
 10 18  1  0  0  0  0
 19 20  1  0  0  0  0
 20 21  1  0  0  0  0
 20 22  1  0  0  0  0
 20 23  1  0  0  0  0
 23 24  4  0  0  0  0
 23 28  4  0  0  0  0
 24 25  4  0  0  0  0
 24 29  1  0  0  0  0
 25 26  4  0  0  0  0
 25 30  1  0  0  0  0
 26 27  4  0  0  0  0
 26 31  1  0  0  0  0
 27 28  4  0  0  0  0
 27 32  1  0  0  0  0
 28 33  1  0  0  0  0
 29 34  1  0  0  0  0
 29 35  1  0  0  0  0
M  END
> <BCLConfClusterSize>
1

> <ConfClashScore>
0 

> <ConfOneFourInteractionScore>
-0.951423 

> <ConfScore>
0.437267 

> <ConfScorePBest>
0.00527057 

> <ConfTolerance>
0.740792 

> <RosettaParamsInstructions>
M  ROOT 3
M  POLY_N_BB 3
M  POLY_CA_BB 4
M  POLY_C_BB 2
M  POLY_O_BB 5
M  POLY_IGNORE 9 10 11 12 13 14 15 16 17 18 
M  POLY_UPPER 6
M  POLY_LOWER 8
M  POLY_CHG 0
M  POLY_PROPERTIES ALPHA_AA D_AA PROTEIN AROMATIC POLYMER 
M  END

$$$$



 35 35  0  0  0  0  0  0  0  0999 V2000
   -0.9406    1.1493   -1.5442 H   0  0  0  1  0  0  0  0  0  0  0  0
   -0.6242    1.4039    0.5187 C   0  0  0  1  0  0  0  0  0  0  0  0
    0.7233    2.3409   -1.3226 N   0  0  0  1  0  0  0  0  0  0  0  0
   -0.6112    1.9388   -0.9014 C   0  0  0  1  0  0  0  0  0  0  0  0
    0.2815    0.7253    0.9677 O   0  0  0  1  0  0  0  0  0  0  0  0
   -1.6643    1.6848    1.3088 N   0  0  0  1  0  0  0  0  0  0  0  0
    0.8794    3.2763   -1.5698 H   0  0  0  1  0  0  0  0  0  0  0  0
    1.7656    1.4595   -1.3853 C   0  0  0  1  0  0  0  0  0  0  0  0
   -1.7437    1.2176    2.6848 C   0  0  0  1  0  0  0  0  0  0  0  0
    3.0911    2.1121   -1.7264 C   0  0  0  1  0  0  0  0  0  0  0  0
    1.6170    0.2686   -1.1824 O   0  0  0  1  0  0  0  0  0  0  0  0
   -2.3993    2.2241    0.9492 H   0  0  0  1  0  0  0  0  0  0  0  0
   -2.3299    1.9025    3.2612 H   0  0  0  1  0  0  0  0  0  0  0  0
   -0.7586    1.1563    3.0978 H   0  0  0  1  0  0  0  0  0  0  0  0
   -2.2012    0.2506    2.7070 H   0  0  0  1  0  0  0  0  0  0  0  0
    3.5200    2.5333   -0.8413 H   0  0  0  1  0  0  0  0  0  0  0  0
    2.9322    2.8856   -2.4484 H   0  0  0  1  0  0  0  0  0  0  0  0
    3.7564    1.3778   -2.1303 H   0  0  0  1  0  0  0  0  0  0  0  0
   -2.0353    3.5293   -5.2072 F   0  0  0  1  0  0  0  0  0  0  0  0
   -1.9905    3.8010   -3.9051 C   0  0  0  1  0  0  0  0  0  0  0  0
   -0.7644    3.4699   -3.4972 F   0  0  0  1  0  0  0  0  0  0  0  0
   -2.0746    5.1276   -3.7973 F   0  0  0  1  0  0  0  0  0  0  0  0
   -3.0713    3.0876   -3.1277 C   0  0  0  1  0  0  0  0  0  0  0  0
   -2.8663    2.7589   -1.7967 C   0  0  0  1  0  0  0  0  0  0  0  0
   -3.8537    2.1014   -1.0874 C   0  0  0  1  0  0  0  0  0  0  0  0
   -5.0509    1.7754   -1.7054 C   0  0  0  1  0  0  0  0  0  0  0  0
   -5.2551    2.1032   -3.0324 C   0  0  0  1  0  0  0  0  0  0  0  0
   -4.2650    2.7627   -3.7440 C   0  0  0  1  0  0  0  0  0  0  0  0
   -1.5857    3.0931   -1.0687 C   0  0  0  1  0  0  0  0  0  0  0  0
   -3.6984    1.8511   -0.0900 H   0  0  0  1  0  0  0  0  0  0  0  0
   -5.7954    1.2842   -1.1706 H   0  0  0  1  0  0  0  0  0  0  0  0
   -6.1518    1.8551   -3.4972 H   0  0  0  1  0  0  0  0  0  0  0  0
   -4.4203    3.0129   -4.7414 H   0  0  0  1  0  0  0  0  0  0  0  0
   -1.0888    3.8682   -1.6138 H   0  0  0  1  0  0  0  0  0  0  0  0
   -1.8439    3.4510   -0.0940 H   0  0  0  1  0  0  0  0  0  0  0  0
  1  4  1  0  0  0  0
  2  4  1  0  0  0  0
  2  5  2  0  0  0  0
  2  6  1  0  0  0  0
  3  4  1  0  0  0  0
  3  7  1  0  0  0  0
  3  8  1  0  0  0  0
  4 29  1  0  0  0  0
  6  9  1  0  0  0  0
  6 12  1  0  0  0  0
  8 10  1  0  0  0  0
  8 11  2  0  0  0  0
  9 13  1  0  0  0  0
  9 14  1  0  0  0  0
  9 15  1  0  0  0  0
 10 16  1  0  0  0  0
 10 17  1  0  0  0  0
 10 18  1  0  0  0  0
 19 20  1  0  0  0  0
 20 21  1  0  0  0  0
 20 22  1  0  0  0  0
 20 23  1  0  0  0  0
 23 24  4  0  0  0  0
 23 28  4  0  0  0  0
 24 25  4  0  0  0  0
 24 29  1  0  0  0  0
 25 26  4  0  0  0  0
 25 30  1  0  0  0  0
 26 27  4  0  0  0  0
 26 31  1  0  0  0  0
 27 28  4  0  0  0  0
 27 32  1  0  0  0  0
 28 33  1  0  0  0  0
 29 34  1  0  0  0  0
 29 35  1  0  0  0  0
M  END
> <BCLConfClusterSize>
1

> <ConfClashScore>
0.000221994 

> <ConfOneFourInteractionScore>
-0.941057 

> <ConfScore>
0.437595 

> <ConfScorePBest>
0.00524209 

> <ConfTolerance>
0.597365 

> <RosettaParamsInstructions>
M  ROOT 3
M  POLY_N_BB 3
M  POLY_CA_BB 4
M  POLY_C_BB 2
M  POLY_O_BB 5
M  POLY_IGNORE 9 10 11 12 13 14 15 16 17 18 
M  POLY_UPPER 6
M  POLY_LOWER 8
M  POLY_CHG 0
M  POLY_PROPERTIES ALPHA_AA D_AA PROTEIN AROMATIC POLYMER 
M  END

$$$$



 35 35  0  0  0  0  0  0  0  0999 V2000
   -0.3154    4.0623   -0.0419 H   0  0  0  1  0  0  0  0  0  0  0  0
   -1.9090    3.4642    1.1641 C   0  0  0  1  0  0  0  0  0  0  0  0
   -1.9648    5.1295   -0.6396 N   0  0  0  1  0  0  0  0  0  0  0  0
   -1.3555    3.8625   -0.1942 C   0  0  0  1  0  0  0  0  0  0  0  0
   -2.1496    2.2866    1.4267 O   0  0  0  1  0  0  0  0  0  0  0  0
   -2.1255    4.4297    2.0618 N   0  0  0  1  0  0  0  0  0  0  0  0
   -2.7504    5.0965   -1.2245 H   0  0  0  1  0  0  0  0  0  0  0  0
   -1.4678    6.3583   -0.2618 C   0  0  0  1  0  0  0  0  0  0  0  0
   -2.7516    4.1680    3.3492 C   0  0  0  1  0  0  0  0  0  0  0  0
   -2.1306    7.5532   -0.8827 C   0  0  0  1  0  0  0  0  0  0  0  0
   -0.5465    6.4266    0.5297 O   0  0  0  1  0  0  0  0  0  0  0  0
   -1.8533    5.3460    1.8459 H   0  0  0  1  0  0  0  0  0  0  0  0
   -3.7906    4.4189    3.2987 H   0  0  0  1  0  0  0  0  0  0  0  0
   -2.2779    4.7614    4.1031 H   0  0  0  1  0  0  0  0  0  0  0  0
   -2.6467    3.1313    3.5924 H   0  0  0  1  0  0  0  0  0  0  0  0
   -2.7170    8.0600   -0.1450 H   0  0  0  1  0  0  0  0  0  0  0  0
   -2.7642    7.2334   -1.6835 H   0  0  0  1  0  0  0  0  0  0  0  0
   -1.3833    8.2182   -1.2624 H   0  0  0  1  0  0  0  0  0  0  0  0
   -0.9781    3.0193   -4.2340 F   0  0  0  1  0  0  0  0  0  0  0  0
   -2.0004    3.8100   -3.9031 C   0  0  0  1  0  0  0  0  0  0  0  0
   -1.4741    4.8441   -3.2451 F   0  0  0  1  0  0  0  0  0  0  0  0
   -2.4793    4.2998   -5.0474 F   0  0  0  1  0  0  0  0  0  0  0  0
   -3.0569    3.0849   -3.0950 C   0  0  0  1  0  0  0  0  0  0  0  0
   -2.8040    2.5731   -1.8318 C   0  0  0  1  0  0  0  0  0  0  0  0
   -3.8035    1.9152   -1.1401 C   0  0  0  1  0  0  0  0  0  0  0  0
   -5.0602    1.7718   -1.7071 C   0  0  0  1  0  0  0  0  0  0  0  0
   -5.3122    2.2822   -2.9665 C   0  0  0  1  0  0  0  0  0  0  0  0
   -4.3100    2.9421   -3.6605 C   0  0  0  1  0  0  0  0  0  0  0  0
   -1.4194    2.7621   -1.2586 C   0  0  0  1  0  0  0  0  0  0  0  0
   -3.6126    1.5276   -0.1941 H   0  0  0  1  0  0  0  0  0  0  0  0
   -5.8134    1.2803   -1.1849 H   0  0  0  1  0  0  0  0  0  0  0  0
   -6.2539    2.1712   -3.3936 H   0  0  0  1  0  0  0  0  0  0  0  0
   -4.5009    3.3296   -4.6065 H   0  0  0  1  0  0  0  0  0  0  0  0
   -1.1058    1.8404   -0.8148 H   0  0  0  1  0  0  0  0  0  0  0  0
   -0.7532    3.0198   -2.0552 H   0  0  0  1  0  0  0  0  0  0  0  0
  1  4  1  0  0  0  0
  2  4  1  0  0  0  0
  2  5  2  0  0  0  0
  2  6  1  0  0  0  0
  3  4  1  0  0  0  0
  3  7  1  0  0  0  0
  3  8  1  0  0  0  0
  4 29  1  0  0  0  0
  6  9  1  0  0  0  0
  6 12  1  0  0  0  0
  8 10  1  0  0  0  0
  8 11  2  0  0  0  0
  9 13  1  0  0  0  0
  9 14  1  0  0  0  0
  9 15  1  0  0  0  0
 10 16  1  0  0  0  0
 10 17  1  0  0  0  0
 10 18  1  0  0  0  0
 19 20  1  0  0  0  0
 20 21  1  0  0  0  0
 20 22  1  0  0  0  0
 20 23  1  0  0  0  0
 23 24  4  0  0  0  0
 23 28  4  0  0  0  0
 24 25  4  0  0  0  0
 24 29  1  0  0  0  0
 25 26  4  0  0  0  0
 25 30  1  0  0  0  0
 26 27  4  0  0  0  0
 26 31  1  0  0  0  0
 27 28  4  0  0  0  0
 27 32  1  0  0  0  0
 28 33  1  0  0  0  0
 29 34  1  0  0  0  0
 29 35  1  0  0  0  0
M  END
> <BCLConfClusterSize>
1

> <ConfClashScore>
0 

> <ConfOneFourInteractionScore>
-0.931578 

> <ConfScore>
0.441279 

> <ConfScorePBest>
0.00521361 

> <ConfTolerance>
0.44016 

> <RosettaParamsInstructions>
M  ROOT 3
M  POLY_N_BB 3
M  POLY_CA_BB 4
M  POLY_C_BB 2
M  POLY_O_BB 5
M  POLY_IGNORE 9 10 11 12 13 14 15 16 17 18 
M  POLY_UPPER 6
M  POLY_LOWER 8
M  POLY_CHG 0
M  POLY_PROPERTIES ALPHA_AA D_AA PROTEIN AROMATIC POLYMER 
M  END

$$$$



 35 35  0  0  0  0  0  0  0  0999 V2000
   -0.8795    1.1835   -3.2466 H   0  0  0  1  0  0  0  0  0  0  0  0
   -1.1082   -0.1367   -1.6270 C   0  0  0  1  0  0  0  0  0  0  0  0
    0.8354    1.3161   -2.1034 N   0  0  0  1  0  0  0  0  0  0  0  0
   -0.6189    1.1752   -2.2089 C   0  0  0  1  0  0  0  0  0  0  0  0
   -0.8720   -0.4446   -0.4617 O   0  0  0  1  0  0  0  0  0  0  0  0
   -1.8021   -0.9180   -2.4595 N   0  0  0  1  0  0  0  0  0  0  0  0
    1.3021    1.6191   -2.9101 H   0  0  0  1  0  0  0  0  0  0  0  0
    1.6267    1.0694   -0.9918 C   0  0  0  1  0  0  0  0  0  0  0  0
   -2.3076   -2.2428   -2.1319 C   0  0  0  1  0  0  0  0  0  0  0  0
    3.1052    1.3255   -1.0763 C   0  0  0  1  0  0  0  0  0  0  0  0
    1.0946    0.6516    0.0205 O   0  0  0  1  0  0  0  0  0  0  0  0
   -1.9844   -0.5730   -3.3585 H   0  0  0  1  0  0  0  0  0  0  0  0
   -2.8092   -2.6542   -2.9829 H   0  0  0  1  0  0  0  0  0  0  0  0
   -2.9939   -2.1703   -1.3142 H   0  0  0  1  0  0  0  0  0  0  0  0
   -1.4913   -2.8781   -1.8579 H   0  0  0  1  0  0  0  0  0  0  0  0
    3.3647    1.5926   -2.0795 H   0  0  0  1  0  0  0  0  0  0  0  0
    3.6369    0.4409   -0.7942 H   0  0  0  1  0  0  0  0  0  0  0  0
    3.3668    2.1254   -0.4155 H   0  0  0  1  0  0  0  0  0  0  0  0
   -1.4553    4.8363   -3.1719 F   0  0  0  1  0  0  0  0  0  0  0  0
   -1.9865    3.8269   -3.8639 C   0  0  0  1  0  0  0  0  0  0  0  0
   -2.3708    4.3280   -5.0389 F   0  0  0  1  0  0  0  0  0  0  0  0
   -0.9644    3.0186   -4.1476 F   0  0  0  1  0  0  0  0  0  0  0  0
   -3.0982    3.1115   -3.1248 C   0  0  0  1  0  0  0  0  0  0  0  0
   -2.7698    2.4333   -1.9613 C   0  0  0  1  0  0  0  0  0  0  0  0
   -3.7484    1.7606   -1.2541 C   0  0  0  1  0  0  0  0  0  0  0  0
   -5.0590    1.7685   -1.7053 C   0  0  0  1  0  0  0  0  0  0  0  0
   -5.3863    2.4447   -2.8653 C   0  0  0  1  0  0  0  0  0  0  0  0
   -4.4050    3.1195   -3.5748 C   0  0  0  1  0  0  0  0  0  0  0  0
   -1.3164    2.3724   -1.5546 C   0  0  0  1  0  0  0  0  0  0  0  0
   -3.5013    1.2484   -0.3833 H   0  0  0  1  0  0  0  0  0  0  0  0
   -5.7960    1.2656   -1.1709 H   0  0  0  1  0  0  0  0  0  0  0  0
   -6.3689    2.4473   -3.2060 H   0  0  0  1  0  0  0  0  0  0  0  0
   -4.6521    3.6317   -4.4455 H   0  0  0  1  0  0  0  0  0  0  0  0
   -0.8281    3.2736   -1.8615 H   0  0  0  1  0  0  0  0  0  0  0  0
   -1.2536    2.2765   -0.4907 H   0  0  0  1  0  0  0  0  0  0  0  0
  1  4  1  0  0  0  0
  2  4  1  0  0  0  0
  2  5  2  0  0  0  0
  2  6  1  0  0  0  0
  3  4  1  0  0  0  0
  3  7  1  0  0  0  0
  3  8  1  0  0  0  0
  4 29  1  0  0  0  0
  6  9  1  0  0  0  0
  6 12  1  0  0  0  0
  8 10  1  0  0  0  0
  8 11  2  0  0  0  0
  9 13  1  0  0  0  0
  9 14  1  0  0  0  0
  9 15  1  0  0  0  0
 10 16  1  0  0  0  0
 10 17  1  0  0  0  0
 10 18  1  0  0  0  0
 19 20  1  0  0  0  0
 20 21  1  0  0  0  0
 20 22  1  0  0  0  0
 20 23  1  0  0  0  0
 23 24  4  0  0  0  0
 23 28  4  0  0  0  0
 24 25  4  0  0  0  0
 24 29  1  0  0  0  0
 25 26  4  0  0  0  0
 25 30  1  0  0  0  0
 26 27  4  0  0  0  0
 26 31  1  0  0  0  0
 27 28  4  0  0  0  0
 27 32  1  0  0  0  0
 28 33  1  0  0  0  0
 29 34  1  0  0  0  0
 29 35  1  0  0  0  0
M  END
> <BCLConfClusterSize>
1

> <ConfClashScore>
0 

> <ConfOneFourInteractionScore>
-0.987258 

> <ConfScore>
0.44307 

> <ConfScorePBest>
0.00518512 

> <ConfTolerance>
0.622918 

> <RosettaParamsInstructions>
M  ROOT 3
M  POLY_N_BB 3
M  POLY_CA_BB 4
M  POLY_C_BB 2
M  POLY_O_BB 5
M  POLY_IGNORE 9 10 11 12 13 14 15 16 17 18 
M  POLY_UPPER 6
M  POLY_LOWER 8
M  POLY_CHG 0
M  POLY_PROPERTIES ALPHA_AA D_AA PROTEIN AROMATIC POLYMER 
M  END

$$$$



 35 35  0  0  0  0  0  0  0  0999 V2000
   -1.3363    5.0304   -1.8371 H   0  0  0  1  0  0  0  0  0  0  0  0
   -0.2485    4.9975   -0.0391 C   0  0  0  1  0  0  0  0  0  0  0  0
   -2.6705    5.1301   -0.2596 N   0  0  0  1  0  0  0  0  0  0  0  0
   -1.4487    4.5869   -0.8698 C   0  0  0  1  0  0  0  0  0  0  0  0
    0.7875    4.3340   -0.0425 O   0  0  0  1  0  0  0  0  0  0  0  0
   -0.3970    6.1171    0.6866 N   0  0  0  1  0  0  0  0  0  0  0  0
   -3.3433    5.5461   -0.8380 H   0  0  0  1  0  0  0  0  0  0  0  0
   -2.8979    5.0758    1.0692 C   0  0  0  1  0  0  0  0  0  0  0  0
    0.6350    6.6767    1.5466 C   0  0  0  1  0  0  0  0  0  0  0  0
   -4.2283    5.5878    1.5861 C   0  0  0  1  0  0  0  0  0  0  0  0
   -2.0592    4.6283    1.8346 O   0  0  0  1  0  0  0  0  0  0  0  0
   -1.2551    6.5875    0.6338 H   0  0  0  1  0  0  0  0  0  0  0  0
    1.5860    6.2674    1.2762 H   0  0  0  1  0  0  0  0  0  0  0  0
    0.4195    6.4342    2.5662 H   0  0  0  1  0  0  0  0  0  0  0  0
    0.6585    7.7401    1.4296 H   0  0  0  1  0  0  0  0  0  0  0  0
   -4.3909    6.5833    1.2293 H   0  0  0  1  0  0  0  0  0  0  0  0
   -4.2179    5.5899    2.6561 H   0  0  0  1  0  0  0  0  0  0  0  0
   -5.0148    4.9514    1.2378 H   0  0  0  1  0  0  0  0  0  0  0  0
   -1.9602    3.4391   -5.1883 F   0  0  0  1  0  0  0  0  0  0  0  0
   -1.9905    3.8014   -3.9046 C   0  0  0  1  0  0  0  0  0  0  0  0
   -0.7706    3.5622   -3.4209 F   0  0  0  1  0  0  0  0  0  0  0  0
   -2.1435    5.1262   -3.8940 F   0  0  0  1  0  0  0  0  0  0  0  0
   -3.0713    3.0878   -3.1273 C   0  0  0  1  0  0  0  0  0  0  0  0
   -2.8650    2.7557   -1.7974 C   0  0  0  1  0  0  0  0  0  0  0  0
   -3.8524    2.0980   -1.0884 C   0  0  0  1  0  0  0  0  0  0  0  0
   -5.0510    1.7753   -1.7054 C   0  0  0  1  0  0  0  0  0  0  0  0
   -5.2565    2.1065   -3.0314 C   0  0  0  1  0  0  0  0  0  0  0  0
   -4.2663    2.7661   -3.7428 C   0  0  0  1  0  0  0  0  0  0  0  0
   -1.5829    3.0862   -1.0704 C   0  0  0  1  0  0  0  0  0  0  0  0
   -3.6962    1.8452   -0.0917 H   0  0  0  1  0  0  0  0  0  0  0  0
   -5.7955    1.2840   -1.1707 H   0  0  0  1  0  0  0  0  0  0  0  0
   -6.1542    1.8608   -3.4956 H   0  0  0  1  0  0  0  0  0  0  0  0
   -4.4226    3.0189   -4.7394 H   0  0  0  1  0  0  0  0  0  0  0  0
   -1.5867    2.6036   -0.1155 H   0  0  0  1  0  0  0  0  0  0  0  0
   -0.7525    2.7335   -1.6456 H   0  0  0  1  0  0  0  0  0  0  0  0
  1  4  1  0  0  0  0
  2  4  1  0  0  0  0
  2  5  2  0  0  0  0
  2  6  1  0  0  0  0
  3  4  1  0  0  0  0
  3  7  1  0  0  0  0
  3  8  1  0  0  0  0
  4 29  1  0  0  0  0
  6  9  1  0  0  0  0
  6 12  1  0  0  0  0
  8 10  1  0  0  0  0
  8 11  2  0  0  0  0
  9 13  1  0  0  0  0
  9 14  1  0  0  0  0
  9 15  1  0  0  0  0
 10 16  1  0  0  0  0
 10 17  1  0  0  0  0
 10 18  1  0  0  0  0
 19 20  1  0  0  0  0
 20 21  1  0  0  0  0
 20 22  1  0  0  0  0
 20 23  1  0  0  0  0
 23 24  4  0  0  0  0
 23 28  4  0  0  0  0
 24 25  4  0  0  0  0
 24 29  1  0  0  0  0
 25 26  4  0  0  0  0
 25 30  1  0  0  0  0
 26 27  4  0  0  0  0
 26 31  1  0  0  0  0
 27 28  4  0  0  0  0
 27 32  1  0  0  0  0
 28 33  1  0  0  0  0
 29 34  1  0  0  0  0
 29 35  1  0  0  0  0
M  END
> <BCLConfClusterSize>
1

> <ConfClashScore>
2.02777e-05 

> <ConfOneFourInteractionScore>
-0.939055 

> <ConfScore>
0.44459 

> <ConfScorePBest>
0.00515664 

> <ConfTolerance>
0.347079 

> <RosettaParamsInstructions>
M  ROOT 3
M  POLY_N_BB 3
M  POLY_CA_BB 4
M  POLY_C_BB 2
M  POLY_O_BB 5
M  POLY_IGNORE 9 10 11 12 13 14 15 16 17 18 
M  POLY_UPPER 6
M  POLY_LOWER 8
M  POLY_CHG 0
M  POLY_PROPERTIES ALPHA_AA D_AA PROTEIN AROMATIC POLYMER 
M  END

$$$$



 35 35  0  0  0  0  0  0  0  0999 V2000
   -1.7229    1.1445    0.0978 H   0  0  0  1  0  0  0  0  0  0  0  0
   -1.9708    3.0394    0.9045 C   0  0  0  1  0  0  0  0  0  0  0  0
    0.1734    1.8351    0.4339 N   0  0  0  1  0  0  0  0  0  0  0  0
   -1.2198    2.0826   -0.0104 C   0  0  0  1  0  0  0  0  0  0  0  0
   -1.5448    4.1707    1.1332 O   0  0  0  1  0  0  0  0  0  0  0  0
   -3.1051    2.5691    1.4308 N   0  0  0  1  0  0  0  0  0  0  0  0
    0.8906    1.9379   -0.2260 H   0  0  0  1  0  0  0  0  0  0  0  0
    0.5123    1.4817    1.6741 C   0  0  0  1  0  0  0  0  0  0  0  0
   -3.9867    3.3950    2.2424 C   0  0  0  1  0  0  0  0  0  0  0  0
    1.9920    1.2513    1.9123 C   0  0  0  1  0  0  0  0  0  0  0  0
   -0.3020    1.3475    2.5726 O   0  0  0  1  0  0  0  0  0  0  0  0
   -3.3522    1.6354    1.2646 H   0  0  0  1  0  0  0  0  0  0  0  0
   -3.8312    4.4261    2.0024 H   0  0  0  1  0  0  0  0  0  0  0  0
   -3.7724    3.2339    3.2782 H   0  0  0  1  0  0  0  0  0  0  0  0
   -5.0046    3.1323    2.0432 H   0  0  0  1  0  0  0  0  0  0  0  0
    2.1374    0.8476    2.8925 H   0  0  0  1  0  0  0  0  0  0  0  0
    2.5155    2.1808    1.8284 H   0  0  0  1  0  0  0  0  0  0  0  0
    2.3673    0.5631    1.1840 H   0  0  0  1  0  0  0  0  0  0  0  0
   -1.5157    4.8720   -3.2260 F   0  0  0  1  0  0  0  0  0  0  0  0
   -1.9937    3.8143   -3.8837 C   0  0  0  1  0  0  0  0  0  0  0  0
   -2.4223    4.2703   -5.0618 F   0  0  0  1  0  0  0  0  0  0  0  0
   -0.9456    3.0319   -4.1448 F   0  0  0  1  0  0  0  0  0  0  0  0
   -3.0754    3.0945   -3.1135 C   0  0  0  1  0  0  0  0  0  0  0  0
   -2.7598    2.4086   -1.9510 C   0  0  0  1  0  0  0  0  0  0  0  0
   -3.7493    1.7457   -1.2496 C   0  0  0  1  0  0  0  0  0  0  0  0
   -5.0580    1.7712   -1.7058 C   0  0  0  1  0  0  0  0  0  0  0  0
   -5.3725    2.4550   -2.8649 C   0  0  0  1  0  0  0  0  0  0  0  0
   -4.3803    3.1199   -3.5684 C   0  0  0  1  0  0  0  0  0  0  0  0
   -1.3197    2.4179   -1.4956 C   0  0  0  1  0  0  0  0  0  0  0  0
   -3.5119    1.2278   -0.3796 H   0  0  0  1  0  0  0  0  0  0  0  0
   -5.8032    1.2757   -1.1758 H   0  0  0  1  0  0  0  0  0  0  0  0
   -6.3537    2.4708   -3.2093 H   0  0  0  1  0  0  0  0  0  0  0  0
   -4.6177    3.6379   -4.4385 H   0  0  0  1  0  0  0  0  0  0  0  0
   -0.7695    1.6918   -2.0569 H   0  0  0  1  0  0  0  0  0  0  0  0
   -0.9045    3.3895   -1.6646 H   0  0  0  1  0  0  0  0  0  0  0  0
  1  4  1  0  0  0  0
  2  4  1  0  0  0  0
  2  5  2  0  0  0  0
  2  6  1  0  0  0  0
  3  4  1  0  0  0  0
  3  7  1  0  0  0  0
  3  8  1  0  0  0  0
  4 29  1  0  0  0  0
  6  9  1  0  0  0  0
  6 12  1  0  0  0  0
  8 10  1  0  0  0  0
  8 11  2  0  0  0  0
  9 13  1  0  0  0  0
  9 14  1  0  0  0  0
  9 15  1  0  0  0  0
 10 16  1  0  0  0  0
 10 17  1  0  0  0  0
 10 18  1  0  0  0  0
 19 20  1  0  0  0  0
 20 21  1  0  0  0  0
 20 22  1  0  0  0  0
 20 23  1  0  0  0  0
 23 24  4  0  0  0  0
 23 28  4  0  0  0  0
 24 25  4  0  0  0  0
 24 29  1  0  0  0  0
 25 26  4  0  0  0  0
 25 30  1  0  0  0  0
 26 27  4  0  0  0  0
 26 31  1  0  0  0  0
 27 28  4  0  0  0  0
 27 32  1  0  0  0  0
 28 33  1  0  0  0  0
 29 34  1  0  0  0  0
 29 35  1  0  0  0  0
M  END
> <BCLConfClusterSize>
1

> <ConfClashScore>
0 

> <ConfOneFourInteractionScore>
-0.970686 

> <ConfScore>
0.449951 

> <ConfScorePBest>
0.00512816 

> <ConfTolerance>
0.742072 

> <RosettaParamsInstructions>
M  ROOT 3
M  POLY_N_BB 3
M  POLY_CA_BB 4
M  POLY_C_BB 2
M  POLY_O_BB 5
M  POLY_IGNORE 9 10 11 12 13 14 15 16 17 18 
M  POLY_UPPER 6
M  POLY_LOWER 8
M  POLY_CHG 0
M  POLY_PROPERTIES ALPHA_AA D_AA PROTEIN AROMATIC POLYMER 
M  END

$$$$



 35 35  0  0  0  0  0  0  0  0999 V2000
   -0.7725    1.2813   -1.8095 H   0  0  0  1  0  0  0  0  0  0  0  0
   -0.7443    1.1028    0.2609 C   0  0  0  1  0  0  0  0  0  0  0  0
    0.8131    2.4025   -1.1608 N   0  0  0  1  0  0  0  0  0  0  0  0
   -0.5697    1.9365   -0.9883 C   0  0  0  1  0  0  0  0  0  0  0  0
    0.0072    0.1583    0.4993 O   0  0  0  1  0  0  0  0  0  0  0  0
   -1.7356    1.4220    1.0944 N   0  0  0  1  0  0  0  0  0  0  0  0
    1.1223    2.6440   -2.0588 H   0  0  0  1  0  0  0  0  0  0  0  0
    1.6708    2.5092   -0.1273 C   0  0  0  1  0  0  0  0  0  0  0  0
   -2.0211    0.7416    2.3487 C   0  0  0  1  0  0  0  0  0  0  0  0
    3.0881    2.8811   -0.5438 C   0  0  0  1  0  0  0  0  0  0  0  0
    1.3714    2.3302    1.0525 O   0  0  0  1  0  0  0  0  0  0  0  0
   -2.3153    2.1712    0.8431 H   0  0  0  1  0  0  0  0  0  0  0  0
   -2.7793    0.0034    2.1901 H   0  0  0  1  0  0  0  0  0  0  0  0
   -2.3625    1.4537    3.0708 H   0  0  0  1  0  0  0  0  0  0  0  0
   -1.1315    0.2675    2.7076 H   0  0  0  1  0  0  0  0  0  0  0  0
    3.3072    3.8760   -0.2166 H   0  0  0  1  0  0  0  0  0  0  0  0
    3.1715    2.8298   -1.6093 H   0  0  0  1  0  0  0  0  0  0  0  0
    3.7813    2.1986   -0.0981 H   0  0  0  1  0  0  0  0  0  0  0  0
   -2.3530    4.1005   -5.1466 F   0  0  0  1  0  0  0  0  0  0  0  0
   -1.9951    3.8090   -3.8949 C   0  0  0  1  0  0  0  0  0  0  0  0
   -0.8956    3.0650   -4.0252 F   0  0  0  1  0  0  0  0  0  0  0  0
   -1.5985    4.9343   -3.3240 F   0  0  0  1  0  0  0  0  0  0  0  0
   -3.0757    3.0917   -3.1208 C   0  0  0  1  0  0  0  0  0  0  0  0
   -2.8652    2.7444   -1.7953 C   0  0  0  1  0  0  0  0  0  0  0  0
   -3.8524    2.0833   -1.0892 C   0  0  0  1  0  0  0  0  0  0  0  0
   -5.0549    1.7722   -1.7046 C   0  0  0  1  0  0  0  0  0  0  0  0
   -5.2646    2.1185   -3.0261 C   0  0  0  1  0  0  0  0  0  0  0  0
   -4.2746    2.7816   -3.7345 C   0  0  0  1  0  0  0  0  0  0  0  0
   -1.5574    3.0881   -1.1223 C   0  0  0  1  0  0  0  0  0  0  0  0
   -3.6931    1.8191   -0.0960 H   0  0  0  1  0  0  0  0  0  0  0  0
   -5.7992    1.2783   -1.1720 H   0  0  0  1  0  0  0  0  0  0  0  0
   -6.1652    1.8816   -3.4890 H   0  0  0  1  0  0  0  0  0  0  0  0
   -4.4340    3.0457   -4.7277 H   0  0  0  1  0  0  0  0  0  0  0  0
   -1.0867    3.8622   -1.6916 H   0  0  0  1  0  0  0  0  0  0  0  0
   -1.7771    3.4506   -0.1398 H   0  0  0  1  0  0  0  0  0  0  0  0
  1  4  1  0  0  0  0
  2  4  1  0  0  0  0
  2  5  2  0  0  0  0
  2  6  1  0  0  0  0
  3  4  1  0  0  0  0
  3  7  1  0  0  0  0
  3  8  1  0  0  0  0
  4 29  1  0  0  0  0
  6  9  1  0  0  0  0
  6 12  1  0  0  0  0
  8 10  1  0  0  0  0
  8 11  2  0  0  0  0
  9 13  1  0  0  0  0
  9 14  1  0  0  0  0
  9 15  1  0  0  0  0
 10 16  1  0  0  0  0
 10 17  1  0  0  0  0
 10 18  1  0  0  0  0
 19 20  1  0  0  0  0
 20 21  1  0  0  0  0
 20 22  1  0  0  0  0
 20 23  1  0  0  0  0
 23 24  4  0  0  0  0
 23 28  4  0  0  0  0
 24 25  4  0  0  0  0
 24 29  1  0  0  0  0
 25 26  4  0  0  0  0
 25 30  1  0  0  0  0
 26 27  4  0  0  0  0
 26 31  1  0  0  0  0
 27 28  4  0  0  0  0
 27 32  1  0  0  0  0
 28 33  1  0  0  0  0
 29 34  1  0  0  0  0
 29 35  1  0  0  0  0
M  END
> <BCLConfClusterSize>
1

> <ConfClashScore>
0 

> <ConfOneFourInteractionScore>
-0.919941 

> <ConfScore>
0.453562 

> <ConfScorePBest>
0.00509968 

> <ConfTolerance>
0.418013 

> <RosettaParamsInstructions>
M  ROOT 3
M  POLY_N_BB 3
M  POLY_CA_BB 4
M  POLY_C_BB 2
M  POLY_O_BB 5
M  POLY_IGNORE 9 10 11 12 13 14 15 16 17 18 
M  POLY_UPPER 6
M  POLY_LOWER 8
M  POLY_CHG 0
M  POLY_PROPERTIES ALPHA_AA D_AA PROTEIN AROMATIC POLYMER 
M  END

$$$$



 35 35  0  0  0  0  0  0  0  0999 V2000
   -0.3720    1.4384   -2.6991 H   0  0  0  1  0  0  0  0  0  0  0  0
   -0.6809    0.1985   -1.0382 C   0  0  0  1  0  0  0  0  0  0  0  0
    0.9839    2.0048   -1.2518 N   0  0  0  1  0  0  0  0  0  0  0  0
   -0.3697    1.5620   -1.6363 C   0  0  0  1  0  0  0  0  0  0  0  0
   -1.8365   -0.1414   -0.7915 O   0  0  0  1  0  0  0  0  0  0  0  0
    0.3740   -0.5876   -0.8051 N   0  0  0  1  0  0  0  0  0  0  0  0
    1.3239    1.8139   -0.3527 H   0  0  0  1  0  0  0  0  0  0  0  0
    1.7549    2.6721   -2.1354 C   0  0  0  1  0  0  0  0  0  0  0  0
    0.3011   -1.9574   -0.3193 C   0  0  0  1  0  0  0  0  0  0  0  0
    3.0800    3.2262   -1.6493 C   0  0  0  1  0  0  0  0  0  0  0  0
    1.3956    2.8278   -3.3017 O   0  0  0  1  0  0  0  0  0  0  0  0
    1.2639   -0.2134   -0.9740 H   0  0  0  1  0  0  0  0  0  0  0  0
   -0.5594   -2.0691    0.3067 H   0  0  0  1  0  0  0  0  0  0  0  0
    1.1828   -2.1835    0.2432 H   0  0  0  1  0  0  0  0  0  0  0  0
    0.2265   -2.6269   -1.1507 H   0  0  0  1  0  0  0  0  0  0  0  0
    2.9833    4.2765   -1.4689 H   0  0  0  1  0  0  0  0  0  0  0  0
    3.8304    3.0600   -2.3937 H   0  0  0  1  0  0  0  0  0  0  0  0
    3.3612    2.7332   -0.7422 H   0  0  0  1  0  0  0  0  0  0  0  0
   -0.7894    3.2518   -3.7251 F   0  0  0  1  0  0  0  0  0  0  0  0
   -1.9917    3.8045   -3.8954 C   0  0  0  1  0  0  0  0  0  0  0  0
   -1.8684    5.0832   -3.5360 F   0  0  0  1  0  0  0  0  0  0  0  0
   -2.2192    3.8060   -5.2095 F   0  0  0  1  0  0  0  0  0  0  0  0
   -3.0729    3.0876   -3.1217 C   0  0  0  1  0  0  0  0  0  0  0  0
   -2.7753    2.4863   -1.9087 C   0  0  0  1  0  0  0  0  0  0  0  0
   -3.7640    1.8259   -1.2040 C   0  0  0  1  0  0  0  0  0  0  0  0
   -5.0543    1.7695   -1.7074 C   0  0  0  1  0  0  0  0  0  0  0  0
   -5.3509    2.3692   -2.9168 C   0  0  0  1  0  0  0  0  0  0  0  0
   -4.3594    3.0315   -3.6238 C   0  0  0  1  0  0  0  0  0  0  0  0
   -1.3926    2.6411   -1.3208 C   0  0  0  1  0  0  0  0  0  0  0  0
   -3.5398    1.3713   -0.2959 H   0  0  0  1  0  0  0  0  0  0  0  0
   -5.7991    1.2761   -1.1751 H   0  0  0  1  0  0  0  0  0  0  0  0
   -6.3180    2.3234   -3.2964 H   0  0  0  1  0  0  0  0  0  0  0  0
   -4.5836    3.4861   -4.5319 H   0  0  0  1  0  0  0  0  0  0  0  0
   -0.9968    3.5704   -1.6737 H   0  0  0  1  0  0  0  0  0  0  0  0
   -1.4996    2.6795   -0.2568 H   0  0  0  1  0  0  0  0  0  0  0  0
  1  4  1  0  0  0  0
  2  4  1  0  0  0  0
  2  5  2  0  0  0  0
  2  6  1  0  0  0  0
  3  4  1  0  0  0  0
  3  7  1  0  0  0  0
  3  8  1  0  0  0  0
  4 29  1  0  0  0  0
  6  9  1  0  0  0  0
  6 12  1  0  0  0  0
  8 10  1  0  0  0  0
  8 11  2  0  0  0  0
  9 13  1  0  0  0  0
  9 14  1  0  0  0  0
  9 15  1  0  0  0  0
 10 16  1  0  0  0  0
 10 17  1  0  0  0  0
 10 18  1  0  0  0  0
 19 20  1  0  0  0  0
 20 21  1  0  0  0  0
 20 22  1  0  0  0  0
 20 23  1  0  0  0  0
 23 24  4  0  0  0  0
 23 28  4  0  0  0  0
 24 25  4  0  0  0  0
 24 29  1  0  0  0  0
 25 26  4  0  0  0  0
 25 30  1  0  0  0  0
 26 27  4  0  0  0  0
 26 31  1  0  0  0  0
 27 28  4  0  0  0  0
 27 32  1  0  0  0  0
 28 33  1  0  0  0  0
 29 34  1  0  0  0  0
 29 35  1  0  0  0  0
M  END
> <BCLConfClusterSize>
1

> <ConfClashScore>
0 

> <ConfOneFourInteractionScore>
-0.960608 

> <ConfScore>
0.456174 

> <ConfScorePBest>
0.0050712 

> <ConfTolerance>
0.809905 

> <RosettaParamsInstructions>
M  ROOT 3
M  POLY_N_BB 3
M  POLY_CA_BB 4
M  POLY_C_BB 2
M  POLY_O_BB 5
M  POLY_IGNORE 9 10 11 12 13 14 15 16 17 18 
M  POLY_UPPER 6
M  POLY_LOWER 8
M  POLY_CHG 0
M  POLY_PROPERTIES ALPHA_AA D_AA PROTEIN AROMATIC POLYMER 
M  END

$$$$



 35 35  0  0  0  0  0  0  0  0999 V2000
   -1.3665    1.2405   -0.1858 H   0  0  0  1  0  0  0  0  0  0  0  0
    0.3517    2.3389    0.3072 C   0  0  0  1  0  0  0  0  0  0  0  0
   -0.2280    1.3148   -1.8941 N   0  0  0  1  0  0  0  0  0  0  0  0
   -0.7286    1.9427   -0.6805 C   0  0  0  1  0  0  0  0  0  0  0  0
    1.5377    2.2769   -0.0120 O   0  0  0  1  0  0  0  0  0  0  0  0
   -0.0427    2.6632    1.5458 N   0  0  0  1  0  0  0  0  0  0  0  0
   -0.6650    0.5006   -2.2203 H   0  0  0  1  0  0  0  0  0  0  0  0
    0.8396    1.8255   -2.6009 C   0  0  0  1  0  0  0  0  0  0  0  0
    0.9446    2.9634    2.5720 C   0  0  0  1  0  0  0  0  0  0  0  0
    1.3393    0.9799   -3.7385 C   0  0  0  1  0  0  0  0  0  0  0  0
    1.3195    2.9004   -2.2900 O   0  0  0  1  0  0  0  0  0  0  0  0
   -0.9981    2.6983    1.7613 H   0  0  0  1  0  0  0  0  0  0  0  0
    0.5289    3.6531    3.2766 H   0  0  0  1  0  0  0  0  0  0  0  0
    1.8107    3.3970    2.1173 H   0  0  0  1  0  0  0  0  0  0  0  0
    1.2200    2.0609    3.0765 H   0  0  0  1  0  0  0  0  0  0  0  0
    2.3344    0.6484   -3.5268 H   0  0  0  1  0  0  0  0  0  0  0  0
    1.3403    1.5581   -4.6388 H   0  0  0  1  0  0  0  0  0  0  0  0
    0.6991    0.1312   -3.8597 H   0  0  0  1  0  0  0  0  0  0  0  0
   -2.3580    4.0775   -5.1547 F   0  0  0  1  0  0  0  0  0  0  0  0
   -1.9867    3.7929   -3.9052 C   0  0  0  1  0  0  0  0  0  0  0  0
   -0.8693    3.0711   -4.0037 F   0  0  0  1  0  0  0  0  0  0  0  0
   -1.6349    4.9519   -3.3471 F   0  0  0  1  0  0  0  0  0  0  0  0
   -3.0687    3.0812   -3.1279 C   0  0  0  1  0  0  0  0  0  0  0  0
   -2.8549    2.7298   -1.8042 C   0  0  0  1  0  0  0  0  0  0  0  0
   -3.8435    2.0738   -1.0951 C   0  0  0  1  0  0  0  0  0  0  0  0
   -5.0507    1.7721   -1.7060 C   0  0  0  1  0  0  0  0  0  0  0  0
   -5.2637    2.1225   -3.0259 C   0  0  0  1  0  0  0  0  0  0  0  0
   -4.2723    2.7804   -3.7372 C   0  0  0  1  0  0  0  0  0  0  0  0
   -1.5962    3.1316   -1.0723 C   0  0  0  1  0  0  0  0  0  0  0  0
   -3.6817    1.8066   -0.1032 H   0  0  0  1  0  0  0  0  0  0  0  0
   -5.7960    1.2820   -1.1713 H   0  0  0  1  0  0  0  0  0  0  0  0
   -6.1678    1.8925   -3.4854 H   0  0  0  1  0  0  0  0  0  0  0  0
   -4.4342    3.0476   -4.7291 H   0  0  0  1  0  0  0  0  0  0  0  0
   -1.0244    3.7761   -1.7067 H   0  0  0  1  0  0  0  0  0  0  0  0
   -1.8728    3.6590   -0.1833 H   0  0  0  1  0  0  0  0  0  0  0  0
  1  4  1  0  0  0  0
  2  4  1  0  0  0  0
  2  5  2  0  0  0  0
  2  6  1  0  0  0  0
  3  4  1  0  0  0  0
  3  7  1  0  0  0  0
  3  8  1  0  0  0  0
  4 29  1  0  0  0  0
  6  9  1  0  0  0  0
  6 12  1  0  0  0  0
  8 10  1  0  0  0  0
  8 11  2  0  0  0  0
  9 13  1  0  0  0  0
  9 14  1  0  0  0  0
  9 15  1  0  0  0  0
 10 16  1  0  0  0  0
 10 17  1  0  0  0  0
 10 18  1  0  0  0  0
 19 20  1  0  0  0  0
 20 21  1  0  0  0  0
 20 22  1  0  0  0  0
 20 23  1  0  0  0  0
 23 24  4  0  0  0  0
 23 28  4  0  0  0  0
 24 25  4  0  0  0  0
 24 29  1  0  0  0  0
 25 26  4  0  0  0  0
 25 30  1  0  0  0  0
 26 27  4  0  0  0  0
 26 31  1  0  0  0  0
 27 28  4  0  0  0  0
 27 32  1  0  0  0  0
 28 33  1  0  0  0  0
 29 34  1  0  0  0  0
 29 35  1  0  0  0  0
M  END
> <BCLConfClusterSize>
1

> <ConfClashScore>
0 

> <ConfOneFourInteractionScore>
-0.987258 

> <ConfScore>
0.457823 

> <ConfScorePBest>
0.00504272 

> <ConfTolerance>
0.402425 

> <RosettaParamsInstructions>
M  ROOT 3
M  POLY_N_BB 3
M  POLY_CA_BB 4
M  POLY_C_BB 2
M  POLY_O_BB 5
M  POLY_IGNORE 9 10 11 12 13 14 15 16 17 18 
M  POLY_UPPER 6
M  POLY_LOWER 8
M  POLY_CHG 0
M  POLY_PROPERTIES ALPHA_AA D_AA PROTEIN AROMATIC POLYMER 
M  END

$$$$



 35 35  0  0  0  0  0  0  0  0999 V2000
   -1.8372    4.4918   -0.1611 H   0  0  0  1  0  0  0  0  0  0  0  0
    0.0269    3.8332    0.5368 C   0  0  0  1  0  0  0  0  0  0  0  0
   -2.2167    2.8656    1.0417 N   0  0  0  1  0  0  0  0  0  0  0  0
   -1.3828    3.5449    0.0435 C   0  0  0  1  0  0  0  0  0  0  0  0
    0.8992    4.2419   -0.2272 O   0  0  0  1  0  0  0  0  0  0  0  0
    0.2432    3.6136    1.8369 N   0  0  0  1  0  0  0  0  0  0  0  0
   -3.0737    3.2679    1.2948 H   0  0  0  1  0  0  0  0  0  0  0  0
   -1.8482    1.7177    1.6174 C   0  0  0  1  0  0  0  0  0  0  0  0
    1.5684    3.7062    2.4310 C   0  0  0  1  0  0  0  0  0  0  0  0
   -2.7343    1.2340    2.7488 C   0  0  0  1  0  0  0  0  0  0  0  0
   -0.8566    1.0799    1.2657 O   0  0  0  1  0  0  0  0  0  0  0  0
   -0.5171    3.3823    2.4103 H   0  0  0  1  0  0  0  0  0  0  0  0
    2.1543    4.4181    1.8881 H   0  0  0  1  0  0  0  0  0  0  0  0
    2.0444    2.7486    2.3915 H   0  0  0  1  0  0  0  0  0  0  0  0
    1.4810    4.0197    3.4503 H   0  0  0  1  0  0  0  0  0  0  0  0
   -3.2087    2.0725    3.2144 H   0  0  0  1  0  0  0  0  0  0  0  0
   -2.1392    0.7150    3.4707 H   0  0  0  1  0  0  0  0  0  0  0  0
   -3.4805    0.5732    2.3595 H   0  0  0  1  0  0  0  0  0  0  0  0
   -0.9702    3.0090   -4.2037 F   0  0  0  1  0  0  0  0  0  0  0  0
   -1.9928    3.8082   -3.8945 C   0  0  0  1  0  0  0  0  0  0  0  0
   -1.4732    4.8330   -3.2170 F   0  0  0  1  0  0  0  0  0  0  0  0
   -2.4369    4.3095   -5.0479 F   0  0  0  1  0  0  0  0  0  0  0  0
   -3.0739    3.0914   -3.1207 C   0  0  0  1  0  0  0  0  0  0  0  0
   -2.8040    2.5851   -1.8588 C   0  0  0  1  0  0  0  0  0  0  0  0
   -3.7923    1.9246   -1.1535 C   0  0  0  1  0  0  0  0  0  0  0  0
   -5.0547    1.7732   -1.7056 C   0  0  0  1  0  0  0  0  0  0  0  0
   -5.3236    2.2781   -2.9637 C   0  0  0  1  0  0  0  0  0  0  0  0
   -4.3326    2.9405   -3.6713 C   0  0  0  1  0  0  0  0  0  0  0  0
   -1.4304    2.7547   -1.2540 C   0  0  0  1  0  0  0  0  0  0  0  0
   -3.5888    1.5412   -0.2084 H   0  0  0  1  0  0  0  0  0  0  0  0
   -5.7994    1.2798   -1.1731 H   0  0  0  1  0  0  0  0  0  0  0  0
   -6.2696    2.1610   -3.3797 H   0  0  0  1  0  0  0  0  0  0  0  0
   -4.5362    3.3239   -4.6164 H   0  0  0  1  0  0  0  0  0  0  0  0
   -1.0316    1.7806   -1.0621 H   0  0  0  1  0  0  0  0  0  0  0  0
   -0.8145    3.2581   -1.9698 H   0  0  0  1  0  0  0  0  0  0  0  0
  1  4  1  0  0  0  0
  2  4  1  0  0  0  0
  2  5  2  0  0  0  0
  2  6  1  0  0  0  0
  3  4  1  0  0  0  0
  3  7  1  0  0  0  0
  3  8  1  0  0  0  0
  4 29  1  0  0  0  0
  6  9  1  0  0  0  0
  6 12  1  0  0  0  0
  8 10  1  0  0  0  0
  8 11  2  0  0  0  0
  9 13  1  0  0  0  0
  9 14  1  0  0  0  0
  9 15  1  0  0  0  0
 10 16  1  0  0  0  0
 10 17  1  0  0  0  0
 10 18  1  0  0  0  0
 19 20  1  0  0  0  0
 20 21  1  0  0  0  0
 20 22  1  0  0  0  0
 20 23  1  0  0  0  0
 23 24  4  0  0  0  0
 23 28  4  0  0  0  0
 24 25  4  0  0  0  0
 24 29  1  0  0  0  0
 25 26  4  0  0  0  0
 25 30  1  0  0  0  0
 26 27  4  0  0  0  0
 26 31  1  0  0  0  0
 27 28  4  0  0  0  0
 27 32  1  0  0  0  0
 28 33  1  0  0  0  0
 29 34  1  0  0  0  0
 29 35  1  0  0  0  0
M  END
> <BCLConfClusterSize>
1

> <ConfClashScore>
0 

> <ConfOneFourInteractionScore>
-0.953847 

> <ConfScore>
0.458886 

> <ConfScorePBest>
0.00501424 

> <ConfTolerance>
0.509774 

> <RosettaParamsInstructions>
M  ROOT 3
M  POLY_N_BB 3
M  POLY_CA_BB 4
M  POLY_C_BB 2
M  POLY_O_BB 5
M  POLY_IGNORE 9 10 11 12 13 14 15 16 17 18 
M  POLY_UPPER 6
M  POLY_LOWER 8
M  POLY_CHG 0
M  POLY_PROPERTIES ALPHA_AA D_AA PROTEIN AROMATIC POLYMER 
M  END

$$$$



 35 35  0  0  0  0  0  0  0  0999 V2000
   -1.6618    0.4215   -0.8689 H   0  0  0  1  0  0  0  0  0  0  0  0
    0.3043    0.7787   -0.3278 C   0  0  0  1  0  0  0  0  0  0  0  0
   -0.5911    0.2782   -2.6066 N   0  0  0  1  0  0  0  0  0  0  0  0
   -0.8405    0.9487   -1.3074 C   0  0  0  1  0  0  0  0  0  0  0  0
    0.3328    1.2639    0.7881 O   0  0  0  1  0  0  0  0  0  0  0  0
    1.3105    0.0296   -0.8040 N   0  0  0  1  0  0  0  0  0  0  0  0
   -1.0277   -0.5759   -2.8078 H   0  0  0  1  0  0  0  0  0  0  0  0
    0.2283    0.8367   -3.5044 C   0  0  0  1  0  0  0  0  0  0  0  0
    2.4460   -0.2947    0.0465 C   0  0  0  1  0  0  0  0  0  0  0  0
    0.4123    0.0042   -4.7667 C   0  0  0  1  0  0  0  0  0  0  0  0
    0.7957    1.9178   -3.3569 O   0  0  0  1  0  0  0  0  0  0  0  0
    1.2807   -0.2998   -1.7265 H   0  0  0  1  0  0  0  0  0  0  0  0
    2.1262   -0.3425    1.0664 H   0  0  0  1  0  0  0  0  0  0  0  0
    3.1961    0.4613   -0.0568 H   0  0  0  1  0  0  0  0  0  0  0  0
    2.8506   -1.2414   -0.2449 H   0  0  0  1  0  0  0  0  0  0  0  0
   -0.0658   -0.9449   -4.6415 H   0  0  0  1  0  0  0  0  0  0  0  0
    1.4566   -0.1438   -4.9470 H   0  0  0  1  0  0  0  0  0  0  0  0
   -0.0247    0.5164   -5.5983 H   0  0  0  1  0  0  0  0  0  0  0  0
   -1.4590    4.8250   -3.1991 F   0  0  0  1  0  0  0  0  0  0  0  0
   -1.9954    3.8173   -3.8896 C   0  0  0  1  0  0  0  0  0  0  0  0
   -2.4469    4.3447   -5.0286 F   0  0  0  1  0  0  0  0  0  0  0  0
   -0.9846    3.0144   -4.2245 F   0  0  0  1  0  0  0  0  0  0  0  0
   -3.0753    3.0970   -3.1174 C   0  0  0  1  0  0  0  0  0  0  0  0
   -2.7562    2.4068   -1.9583 C   0  0  0  1  0  0  0  0  0  0  0  0
   -3.7440    1.7434   -1.2551 C   0  0  0  1  0  0  0  0  0  0  0  0
   -5.0545    1.7726   -1.7058 C   0  0  0  1  0  0  0  0  0  0  0  0
   -5.3724    2.4608   -2.8615 C   0  0  0  1  0  0  0  0  0  0  0  0
   -4.3819    3.1262   -3.5669 C   0  0  0  1  0  0  0  0  0  0  0  0
   -1.3294    2.3794   -1.4633 C   0  0  0  1  0  0  0  0  0  0  0  0
   -3.5040    1.2223   -0.3877 H   0  0  0  1  0  0  0  0  0  0  0  0
   -5.7984    1.2768   -1.1745 H   0  0  0  1  0  0  0  0  0  0  0  0
   -6.3550    2.4794   -3.2019 H   0  0  0  1  0  0  0  0  0  0  0  0
   -4.6220    3.6473   -4.4343 H   0  0  0  1  0  0  0  0  0  0  0  0
   -0.7043    2.8891   -2.1664 H   0  0  0  1  0  0  0  0  0  0  0  0
   -1.2773    2.8731   -0.5154 H   0  0  0  1  0  0  0  0  0  0  0  0
  1  4  1  0  0  0  0
  2  4  1  0  0  0  0
  2  5  2  0  0  0  0
  2  6  1  0  0  0  0
  3  4  1  0  0  0  0
  3  7  1  0  0  0  0
  3  8  1  0  0  0  0
  4 29  1  0  0  0  0
  6  9  1  0  0  0  0
  6 12  1  0  0  0  0
  8 10  1  0  0  0  0
  8 11  2  0  0  0  0
  9 13  1  0  0  0  0
  9 14  1  0  0  0  0
  9 15  1  0  0  0  0
 10 16  1  0  0  0  0
 10 17  1  0  0  0  0
 10 18  1  0  0  0  0
 19 20  1  0  0  0  0
 20 21  1  0  0  0  0
 20 22  1  0  0  0  0
 20 23  1  0  0  0  0
 23 24  4  0  0  0  0
 23 28  4  0  0  0  0
 24 25  4  0  0  0  0
 24 29  1  0  0  0  0
 25 26  4  0  0  0  0
 25 30  1  0  0  0  0
 26 27  4  0  0  0  0
 26 31  1  0  0  0  0
 27 28  4  0  0  0  0
 27 32  1  0  0  0  0
 28 33  1  0  0  0  0
 29 34  1  0  0  0  0
 29 35  1  0  0  0  0
M  END
> <BCLConfClusterSize>
1

> <ConfClashScore>
0.000352697 

> <ConfOneFourInteractionScore>
-0.940043 

> <ConfScore>
0.466497 

> <ConfScorePBest>
0.00498576 

> <ConfTolerance>
0.313555 

> <RosettaParamsInstructions>
M  ROOT 3
M  POLY_N_BB 3
M  POLY_CA_BB 4
M  POLY_C_BB 2
M  POLY_O_BB 5
M  POLY_IGNORE 9 10 11 12 13 14 15 16 17 18 
M  POLY_UPPER 6
M  POLY_LOWER 8
M  POLY_CHG 0
M  POLY_PROPERTIES ALPHA_AA D_AA PROTEIN AROMATIC POLYMER 
M  END

$$$$



 35 35  0  0  0  0  0  0  0  0999 V2000
   -1.7044    3.9083    0.0121 H   0  0  0  1  0  0  0  0  0  0  0  0
    0.2428    3.1810    0.3690 C   0  0  0  1  0  0  0  0  0  0  0  0
   -1.9160    2.0216    0.8434 N   0  0  0  1  0  0  0  0  0  0  0  0
   -1.2049    2.9628   -0.0255 C   0  0  0  1  0  0  0  0  0  0  0  0
    0.8934    2.2970    0.9248 O   0  0  0  1  0  0  0  0  0  0  0  0
    0.7526    4.3870    0.0726 N   0  0  0  1  0  0  0  0  0  0  0  0
   -2.0721    1.1017    0.5437 H   0  0  0  1  0  0  0  0  0  0  0  0
   -2.3521    2.4148    2.0435 C   0  0  0  1  0  0  0  0  0  0  0  0
    2.1295    4.7455    0.3783 C   0  0  0  1  0  0  0  0  0  0  0  0
   -3.0731    1.3573    2.8838 C   0  0  0  1  0  0  0  0  0  0  0  0
   -2.2249    3.5402    2.5241 O   0  0  0  1  0  0  0  0  0  0  0  0
    0.1775    5.0491   -0.3648 H   0  0  0  1  0  0  0  0  0  0  0  0
    2.7802    3.9500    0.0804 H   0  0  0  1  0  0  0  0  0  0  0  0
    2.2292    4.9123    1.4305 H   0  0  0  1  0  0  0  0  0  0  0  0
    2.3915    5.6376   -0.1512 H   0  0  0  1  0  0  0  0  0  0  0  0
   -2.4053    0.5463    3.0869 H   0  0  0  1  0  0  0  0  0  0  0  0
   -3.9230    0.9929    2.3454 H   0  0  0  1  0  0  0  0  0  0  0  0
   -3.3948    1.7937    3.8062 H   0  0  0  1  0  0  0  0  0  0  0  0
   -1.4621    4.8327   -3.2629 F   0  0  0  1  0  0  0  0  0  0  0  0
   -1.9883    3.7900   -3.9079 C   0  0  0  1  0  0  0  0  0  0  0  0
   -2.4106    4.2903   -5.0460 F   0  0  0  1  0  0  0  0  0  0  0  0
   -0.9725    2.9971   -4.1471 F   0  0  0  1  0  0  0  0  0  0  0  0
   -3.0874    3.1295   -3.1024 C   0  0  0  1  0  0  0  0  0  0  0  0
   -2.7642    2.4346   -1.9473 C   0  0  0  1  0  0  0  0  0  0  0  0
   -3.7455    1.7500   -1.2555 C   0  0  0  1  0  0  0  0  0  0  0  0
   -5.0537    1.7625   -1.7136 C   0  0  0  1  0  0  0  0  0  0  0  0
   -5.3758    2.4553   -2.8653 C   0  0  0  1  0  0  0  0  0  0  0  0
   -4.3918    3.1421   -3.5593 C   0  0  0  1  0  0  0  0  0  0  0  0
   -1.3400    2.4253   -1.4442 C   0  0  0  1  0  0  0  0  0  0  0  0
   -3.5024    1.2253   -0.3911 H   0  0  0  1  0  0  0  0  0  0  0  0
   -5.7928    1.2506   -1.1908 H   0  0  0  1  0  0  0  0  0  0  0  0
   -6.3565    2.4615   -3.2113 H   0  0  0  1  0  0  0  0  0  0  0  0
   -4.6350    3.6667   -4.4237 H   0  0  0  1  0  0  0  0  0  0  0  0
   -0.9789    1.4183   -1.4627 H   0  0  0  1  0  0  0  0  0  0  0  0
   -0.7447    3.0303   -2.0957 H   0  0  0  1  0  0  0  0  0  0  0  0
  1  4  1  0  0  0  0
  2  4  1  0  0  0  0
  2  5  2  0  0  0  0
  2  6  1  0  0  0  0
  3  4  1  0  0  0  0
  3  7  1  0  0  0  0
  3  8  1  0  0  0  0
  4 29  1  0  0  0  0
  6  9  1  0  0  0  0
  6 12  1  0  0  0  0
  8 10  1  0  0  0  0
  8 11  2  0  0  0  0
  9 13  1  0  0  0  0
  9 14  1  0  0  0  0
  9 15  1  0  0  0  0
 10 16  1  0  0  0  0
 10 17  1  0  0  0  0
 10 18  1  0  0  0  0
 19 20  1  0  0  0  0
 20 21  1  0  0  0  0
 20 22  1  0  0  0  0
 20 23  1  0  0  0  0
 23 24  4  0  0  0  0
 23 28  4  0  0  0  0
 24 25  4  0  0  0  0
 24 29  1  0  0  0  0
 25 26  4  0  0  0  0
 25 30  1  0  0  0  0
 26 27  4  0  0  0  0
 26 31  1  0  0  0  0
 27 28  4  0  0  0  0
 27 32  1  0  0  0  0
 28 33  1  0  0  0  0
 29 34  1  0  0  0  0
 29 35  1  0  0  0  0
M  END
> <BCLConfClusterSize>
1

> <ConfClashScore>
0 

> <ConfOneFourInteractionScore>
-0.981931 

> <ConfScore>
0.469664 

> <ConfScorePBest>
0.00495728 

> <ConfTolerance>
0.864768 

> <RosettaParamsInstructions>
M  ROOT 3
M  POLY_N_BB 3
M  POLY_CA_BB 4
M  POLY_C_BB 2
M  POLY_O_BB 5
M  POLY_IGNORE 9 10 11 12 13 14 15 16 17 18 
M  POLY_UPPER 6
M  POLY_LOWER 8
M  POLY_CHG 0
M  POLY_PROPERTIES ALPHA_AA D_AA PROTEIN AROMATIC POLYMER 
M  END

$$$$



 35 35  0  0  0  0  0  0  0  0999 V2000
   -0.4106    3.5672    0.3298 H   0  0  0  1  0  0  0  0  0  0  0  0
   -2.3822    3.5514    0.9602 C   0  0  0  1  0  0  0  0  0  0  0  0
   -1.3108    5.0999   -0.6829 N   0  0  0  1  0  0  0  0  0  0  0  0
   -1.3575    3.7186   -0.1449 C   0  0  0  1  0  0  0  0  0  0  0  0
   -2.1798    2.8048    1.9036 O   0  0  0  1  0  0  0  0  0  0  0  0
   -3.5069    4.2720    0.8265 N   0  0  0  1  0  0  0  0  0  0  0  0
   -1.9185    5.3200   -1.4195 H   0  0  0  1  0  0  0  0  0  0  0  0
   -0.5010    6.0687   -0.2380 C   0  0  0  1  0  0  0  0  0  0  0  0
   -4.5890    4.2115    1.7978 C   0  0  0  1  0  0  0  0  0  0  0  0
   -0.4372    7.3542   -1.0597 C   0  0  0  1  0  0  0  0  0  0  0  0
    0.2312    5.9194    0.7393 O   0  0  0  1  0  0  0  0  0  0  0  0
   -3.6027    4.8591    0.0477 H   0  0  0  1  0  0  0  0  0  0  0  0
   -5.0259    3.2348    1.7854 H   0  0  0  1  0  0  0  0  0  0  0  0
   -5.3335    4.9381    1.5477 H   0  0  0  1  0  0  0  0  0  0  0  0
   -4.2032    4.4170    2.7744 H   0  0  0  1  0  0  0  0  0  0  0  0
   -1.4077    7.5760   -1.4519 H   0  0  0  1  0  0  0  0  0  0  0  0
    0.2531    7.2270   -1.8674 H   0  0  0  1  0  0  0  0  0  0  0  0
   -0.1121    8.1603   -0.4357 H   0  0  0  1  0  0  0  0  0  0  0  0
   -0.8822    3.0865   -4.0482 F   0  0  0  1  0  0  0  0  0  0  0  0
   -1.9919    3.8108   -3.8939 C   0  0  0  1  0  0  0  0  0  0  0  0
   -1.6220    4.9652   -3.3373 F   0  0  0  1  0  0  0  0  0  0  0  0
   -2.3797    4.1288   -5.1312 F   0  0  0  1  0  0  0  0  0  0  0  0
   -3.0726    3.0932   -3.1202 C   0  0  0  1  0  0  0  0  0  0  0  0
   -2.7922    2.5545   -1.8741 C   0  0  0  1  0  0  0  0  0  0  0  0
   -3.7802    1.8934   -1.1690 C   0  0  0  1  0  0  0  0  0  0  0  0
   -5.0527    1.7736   -1.7055 C   0  0  0  1  0  0  0  0  0  0  0  0
   -5.3321    2.3108   -2.9479 C   0  0  0  1  0  0  0  0  0  0  0  0
   -4.3414    2.9739   -3.6552 C   0  0  0  1  0  0  0  0  0  0  0  0
   -1.4270    2.6585   -1.2363 C   0  0  0  1  0  0  0  0  0  0  0  0
   -3.5689    1.4857   -0.2359 H   0  0  0  1  0  0  0  0  0  0  0  0
   -5.7972    1.2796   -1.1731 H   0  0  0  1  0  0  0  0  0  0  0  0
   -6.2857    2.2174   -3.3522 H   0  0  0  1  0  0  0  0  0  0  0  0
   -4.5528    3.3815   -4.5883 H   0  0  0  1  0  0  0  0  0  0  0  0
   -1.1788    1.7105   -0.8065 H   0  0  0  1  0  0  0  0  0  0  0  0
   -0.7142    2.9041   -1.9955 H   0  0  0  1  0  0  0  0  0  0  0  0
  1  4  1  0  0  0  0
  2  4  1  0  0  0  0
  2  5  2  0  0  0  0
  2  6  1  0  0  0  0
  3  4  1  0  0  0  0
  3  7  1  0  0  0  0
  3  8  1  0  0  0  0
  4 29  1  0  0  0  0
  6  9  1  0  0  0  0
  6 12  1  0  0  0  0
  8 10  1  0  0  0  0
  8 11  2  0  0  0  0
  9 13  1  0  0  0  0
  9 14  1  0  0  0  0
  9 15  1  0  0  0  0
 10 16  1  0  0  0  0
 10 17  1  0  0  0  0
 10 18  1  0  0  0  0
 19 20  1  0  0  0  0
 20 21  1  0  0  0  0
 20 22  1  0  0  0  0
 20 23  1  0  0  0  0
 23 24  4  0  0  0  0
 23 28  4  0  0  0  0
 24 25  4  0  0  0  0
 24 29  1  0  0  0  0
 25 26  4  0  0  0  0
 25 30  1  0  0  0  0
 26 27  4  0  0  0  0
 26 31  1  0  0  0  0
 27 28  4  0  0  0  0
 27 32  1  0  0  0  0
 28 33  1  0  0  0  0
 29 34  1  0  0  0  0
 29 35  1  0  0  0  0
M  END
> <BCLConfClusterSize>
1

> <ConfClashScore>
0 

> <ConfOneFourInteractionScore>
-0.957074 

> <ConfScore>
0.470379 

> <ConfScorePBest>
0.0049288 

> <ConfTolerance>
0.53648 

> <RosettaParamsInstructions>
M  ROOT 3
M  POLY_N_BB 3
M  POLY_CA_BB 4
M  POLY_C_BB 2
M  POLY_O_BB 5
M  POLY_IGNORE 9 10 11 12 13 14 15 16 17 18 
M  POLY_UPPER 6
M  POLY_LOWER 8
M  POLY_CHG 0
M  POLY_PROPERTIES ALPHA_AA D_AA PROTEIN AROMATIC POLYMER 
M  END

$$$$



 35 35  0  0  0  0  0  0  0  0999 V2000
   -1.6627    2.9848    0.4845 H   0  0  0  1  0  0  0  0  0  0  0  0
   -1.2701    4.7348   -0.5942 C   0  0  0  1  0  0  0  0  0  0  0  0
    0.3653    3.0039    0.1366 N   0  0  0  1  0  0  0  0  0  0  0  0
   -1.0066    3.2685   -0.3117 C   0  0  0  1  0  0  0  0  0  0  0  0
   -2.4158    5.1828   -0.5869 O   0  0  0  1  0  0  0  0  0  0  0  0
   -0.2121    5.5309   -0.8532 N   0  0  0  1  0  0  0  0  0  0  0  0
    1.0250    3.7273    0.0929 H   0  0  0  1  0  0  0  0  0  0  0  0
    0.7483    1.8053    0.6046 C   0  0  0  1  0  0  0  0  0  0  0  0
   -0.4071    6.9557   -1.0764 C   0  0  0  1  0  0  0  0  0  0  0  0
    2.2291    1.6531    0.8928 C   0  0  0  1  0  0  0  0  0  0  0  0
   -0.0310    0.8856    0.7923 O   0  0  0  1  0  0  0  0  0  0  0  0
    0.6896    5.1490   -0.8911 H   0  0  0  1  0  0  0  0  0  0  0  0
   -0.2221    7.4883   -0.1669 H   0  0  0  1  0  0  0  0  0  0  0  0
   -1.4134    7.1323   -1.3944 H   0  0  0  1  0  0  0  0  0  0  0  0
    0.2709    7.2942   -1.8318 H   0  0  0  1  0  0  0  0  0  0  0  0
    2.4138    0.6865    1.3129 H   0  0  0  1  0  0  0  0  0  0  0  0
    2.5367    2.4078    1.5862 H   0  0  0  1  0  0  0  0  0  0  0  0
    2.7820    1.7577   -0.0173 H   0  0  0  1  0  0  0  0  0  0  0  0
   -1.0615    4.3629   -3.1015 F   0  0  0  1  0  0  0  0  0  0  0  0
   -1.9981    3.8235   -3.8837 C   0  0  0  1  0  0  0  0  0  0  0  0
   -2.4673    4.8065   -4.6536 F   0  0  0  1  0  0  0  0  0  0  0  0
   -1.3394    3.0145   -4.7146 F   0  0  0  1  0  0  0  0  0  0  0  0
   -3.0775    3.1001   -3.1136 C   0  0  0  1  0  0  0  0  0  0  0  0
   -2.7554    2.3932   -1.9656 C   0  0  0  1  0  0  0  0  0  0  0  0
   -3.7429    1.7270   -1.2645 C   0  0  0  1  0  0  0  0  0  0  0  0
   -5.0560    1.7702   -1.7062 C   0  0  0  1  0  0  0  0  0  0  0  0
   -5.3770    2.4751   -2.8509 C   0  0  0  1  0  0  0  0  0  0  0  0
   -4.3869    3.1432   -3.5542 C   0  0  0  1  0  0  0  0  0  0  0  0
   -1.3257    2.3504   -1.4803 C   0  0  0  1  0  0  0  0  0  0  0  0
   -3.5006    1.1933   -0.4053 H   0  0  0  1  0  0  0  0  0  0  0  0
   -5.7996    1.2723   -1.1764 H   0  0  0  1  0  0  0  0  0  0  0  0
   -6.3616    2.5042   -3.1846 H   0  0  0  1  0  0  0  0  0  0  0  0
   -4.6291    3.6769   -4.4133 H   0  0  0  1  0  0  0  0  0  0  0  0
   -1.1089    1.3465   -1.1801 H   0  0  0  1  0  0  0  0  0  0  0  0
   -0.6914    2.6237   -2.2975 H   0  0  0  1  0  0  0  0  0  0  0  0
  1  4  1  0  0  0  0
  2  4  1  0  0  0  0
  2  5  2  0  0  0  0
  2  6  1  0  0  0  0
  3  4  1  0  0  0  0
  3  7  1  0  0  0  0
  3  8  1  0  0  0  0
  4 29  1  0  0  0  0
  6  9  1  0  0  0  0
  6 12  1  0  0  0  0
  8 10  1  0  0  0  0
  8 11  2  0  0  0  0
  9 13  1  0  0  0  0
  9 14  1  0  0  0  0
  9 15  1  0  0  0  0
 10 16  1  0  0  0  0
 10 17  1  0  0  0  0
 10 18  1  0  0  0  0
 19 20  1  0  0  0  0
 20 21  1  0  0  0  0
 20 22  1  0  0  0  0
 20 23  1  0  0  0  0
 23 24  4  0  0  0  0
 23 28  4  0  0  0  0
 24 25  4  0  0  0  0
 24 29  1  0  0  0  0
 25 26  4  0  0  0  0
 25 30  1  0  0  0  0
 26 27  4  0  0  0  0
 26 31  1  0  0  0  0
 27 28  4  0  0  0  0
 27 32  1  0  0  0  0
 28 33  1  0  0  0  0
 29 34  1  0  0  0  0
 29 35  1  0  0  0  0
M  END
> <BCLConfClusterSize>
1

> <ConfClashScore>
0.000245373 

> <ConfOneFourInteractionScore>
-0.962347 

> <ConfScore>
0.471734 

> <ConfScorePBest>
0.00490032 

> <ConfTolerance>
0.676653 

> <RosettaParamsInstructions>
M  ROOT 3
M  POLY_N_BB 3
M  POLY_CA_BB 4
M  POLY_C_BB 2
M  POLY_O_BB 5
M  POLY_IGNORE 9 10 11 12 13 14 15 16 17 18 
M  POLY_UPPER 6
M  POLY_LOWER 8
M  POLY_CHG 0
M  POLY_PROPERTIES ALPHA_AA D_AA PROTEIN AROMATIC POLYMER 
M  END

$$$$



 35 35  0  0  0  0  0  0  0  0999 V2000
    0.3985    1.1110   -1.4147 H   0  0  0  1  0  0  0  0  0  0  0  0
   -0.4971    0.6320   -3.2343 C   0  0  0  1  0  0  0  0  0  0  0  0
   -1.1533   -0.1706   -1.0104 N   0  0  0  1  0  0  0  0  0  0  0  0
   -0.6051    0.9750   -1.7599 C   0  0  0  1  0  0  0  0  0  0  0  0
   -1.2510   -0.1942   -3.7468 O   0  0  0  1  0  0  0  0  0  0  0  0
    0.4439    1.2562   -3.9603 N   0  0  0  1  0  0  0  0  0  0  0  0
   -1.9811   -0.5897   -1.3259 H   0  0  0  1  0  0  0  0  0  0  0  0
   -0.5616   -0.6563    0.0820 C   0  0  0  1  0  0  0  0  0  0  0  0
    0.6231    1.0042   -5.3823 C   0  0  0  1  0  0  0  0  0  0  0  0
   -1.0932   -1.9848    0.5836 C   0  0  0  1  0  0  0  0  0  0  0  0
    0.3507   -0.0823    0.6545 O   0  0  0  1  0  0  0  0  0  0  0  0
    1.0306    1.9042   -3.5172 H   0  0  0  1  0  0  0  0  0  0  0  0
    0.8936   -0.0202   -5.5322 H   0  0  0  1  0  0  0  0  0  0  0  0
    1.3985    1.6366   -5.7614 H   0  0  0  1  0  0  0  0  0  0  0  0
   -0.2909    1.2107   -5.8988 H   0  0  0  1  0  0  0  0  0  0  0  0
   -1.3724   -1.8923    1.6124 H   0  0  0  1  0  0  0  0  0  0  0  0
   -0.3338   -2.7323    0.4863 H   0  0  0  1  0  0  0  0  0  0  0  0
   -1.9485   -2.2674    0.0062 H   0  0  0  1  0  0  0  0  0  0  0  0
   -1.2685    4.6041   -3.0865 F   0  0  0  1  0  0  0  0  0  0  0  0
   -2.0020    3.8349   -3.8928 C   0  0  0  1  0  0  0  0  0  0  0  0
   -2.5174    4.6479   -4.8163 F   0  0  0  1  0  0  0  0  0  0  0  0
   -1.1438    3.0394   -4.5325 F   0  0  0  1  0  0  0  0  0  0  0  0
   -3.0654    3.0587   -3.1447 C   0  0  0  1  0  0  0  0  0  0  0  0
   -2.7443    2.3701   -1.9852 C   0  0  0  1  0  0  0  0  0  0  0  0
   -3.7358    1.7333   -1.2628 C   0  0  0  1  0  0  0  0  0  0  0  0
   -5.0518    1.7876   -1.6947 C   0  0  0  1  0  0  0  0  0  0  0  0
   -5.3718    2.4741   -2.8508 C   0  0  0  1  0  0  0  0  0  0  0  0
   -4.3776    3.1129   -3.5754 C   0  0  0  1  0  0  0  0  0  0  0  0
   -1.3300    2.2810   -1.4625 C   0  0  0  1  0  0  0  0  0  0  0  0
   -3.4944    1.2133   -0.3951 H   0  0  0  1  0  0  0  0  0  0  0  0
   -5.7983    1.3117   -1.1489 H   0  0  0  1  0  0  0  0  0  0  0  0
   -6.3586    2.5115   -3.1770 H   0  0  0  1  0  0  0  0  0  0  0  0
   -4.6191    3.6329   -4.4431 H   0  0  0  1  0  0  0  0  0  0  0  0
   -0.7659    3.0785   -1.8991 H   0  0  0  1  0  0  0  0  0  0  0  0
   -1.3622    2.4061   -0.4003 H   0  0  0  1  0  0  0  0  0  0  0  0
  1  4  1  0  0  0  0
  2  4  1  0  0  0  0
  2  5  2  0  0  0  0
  2  6  1  0  0  0  0
  3  4  1  0  0  0  0
  3  7  1  0  0  0  0
  3  8  1  0  0  0  0
  4 29  1  0  0  0  0
  6  9  1  0  0  0  0
  6 12  1  0  0  0  0
  8 10  1  0  0  0  0
  8 11  2  0  0  0  0
  9 13  1  0  0  0  0
  9 14  1  0  0  0  0
  9 15  1  0  0  0  0
 10 16  1  0  0  0  0
 10 17  1  0  0  0  0
 10 18  1  0  0  0  0
 19 20  1  0  0  0  0
 20 21  1  0  0  0  0
 20 22  1  0  0  0  0
 20 23  1  0  0  0  0
 23 24  4  0  0  0  0
 23 28  4  0  0  0  0
 24 25  4  0  0  0  0
 24 29  1  0  0  0  0
 25 26  4  0  0  0  0
 25 30  1  0  0  0  0
 26 27  4  0  0  0  0
 26 31  1  0  0  0  0
 27 28  4  0  0  0  0
 27 32  1  0  0  0  0
 28 33  1  0  0  0  0
 29 34  1  0  0  0  0
 29 35  1  0  0  0  0
M  END
> <BCLConfClusterSize>
1

> <ConfClashScore>
0 

> <ConfOneFourInteractionScore>
-0.987258 

> <ConfScore>
0.473367 

> <ConfScorePBest>
0.00487184 

> <ConfTolerance>
0.656383 

> <RosettaParamsInstructions>
M  ROOT 3
M  POLY_N_BB 3
M  POLY_CA_BB 4
M  POLY_C_BB 2
M  POLY_O_BB 5
M  POLY_IGNORE 9 10 11 12 13 14 15 16 17 18 
M  POLY_UPPER 6
M  POLY_LOWER 8
M  POLY_CHG 0
M  POLY_PROPERTIES ALPHA_AA D_AA PROTEIN AROMATIC POLYMER 
M  END

$$$$



 35 35  0  0  0  0  0  0  0  0999 V2000
   -1.4875    2.1926    0.6054 H   0  0  0  1  0  0  0  0  0  0  0  0
   -2.0786    4.1471    0.1419 C   0  0  0  1  0  0  0  0  0  0  0  0
    0.2308    3.2355    0.2341 N   0  0  0  1  0  0  0  0  0  0  0  0
   -1.1611    2.9507   -0.0755 C   0  0  0  1  0  0  0  0  0  0  0  0
   -3.2768    4.0824   -0.0786 O   0  0  0  1  0  0  0  0  0  0  0  0
   -1.4395    5.2454    0.5894 N   0  0  0  1  0  0  0  0  0  0  0  0
    0.8092    3.6428   -0.4442 H   0  0  0  1  0  0  0  0  0  0  0  0
    0.7285    2.9398    1.4550 C   0  0  0  1  0  0  0  0  0  0  0  0
   -2.1638    6.4972    0.7514 C   0  0  0  1  0  0  0  0  0  0  0  0
    2.1729    3.3362    1.6912 C   0  0  0  1  0  0  0  0  0  0  0  0
    0.0683    2.3858    2.3300 O   0  0  0  1  0  0  0  0  0  0  0  0
   -0.4848    5.2013    0.8063 H   0  0  0  1  0  0  0  0  0  0  0  0
   -2.9349    6.5619    0.0124 H   0  0  0  1  0  0  0  0  0  0  0  0
   -1.4876    7.3181    0.6336 H   0  0  0  1  0  0  0  0  0  0  0  0
   -2.6014    6.5321    1.7272 H   0  0  0  1  0  0  0  0  0  0  0  0
    2.4240    4.1634    1.0606 H   0  0  0  1  0  0  0  0  0  0  0  0
    2.8114    2.5082    1.4639 H   0  0  0  1  0  0  0  0  0  0  0  0
    2.3026    3.6166    2.7156 H   0  0  0  1  0  0  0  0  0  0  0  0
   -1.3778    4.7471   -3.1581 F   0  0  0  1  0  0  0  0  0  0  0  0
   -1.9955    3.8177   -3.8894 C   0  0  0  1  0  0  0  0  0  0  0  0
   -2.4697    4.4453   -4.9666 F   0  0  0  1  0  0  0  0  0  0  0  0
   -1.0431    2.9928   -4.3266 F   0  0  0  1  0  0  0  0  0  0  0  0
   -3.0753    3.0972   -3.1172 C   0  0  0  1  0  0  0  0  0  0  0  0
   -2.7549    2.4004   -1.9625 C   0  0  0  1  0  0  0  0  0  0  0  0
   -3.7427    1.7369   -1.2594 C   0  0  0  1  0  0  0  0  0  0  0  0
   -5.0545    1.7726   -1.7059 C   0  0  0  1  0  0  0  0  0  0  0  0
   -5.3737    2.4673   -2.8572 C   0  0  0  1  0  0  0  0  0  0  0  0
   -4.3832    3.1328   -3.5625 C   0  0  0  1  0  0  0  0  0  0  0  0
   -1.3267    2.3659   -1.4721 C   0  0  0  1  0  0  0  0  0  0  0  0
   -3.5017    1.2108   -0.3952 H   0  0  0  1  0  0  0  0  0  0  0  0
   -5.7984    1.2767   -1.1745 H   0  0  0  1  0  0  0  0  0  0  0  0
   -6.3573    2.4908   -3.1944 H   0  0  0  1  0  0  0  0  0  0  0  0
   -4.6243    3.6589   -4.4267 H   0  0  0  1  0  0  0  0  0  0  0  0
   -0.9964    1.3483   -1.4566 H   0  0  0  1  0  0  0  0  0  0  0  0
   -0.7199    2.9281   -2.1508 H   0  0  0  1  0  0  0  0  0  0  0  0
  1  4  1  0  0  0  0
  2  4  1  0  0  0  0
  2  5  2  0  0  0  0
  2  6  1  0  0  0  0
  3  4  1  0  0  0  0
  3  7  1  0  0  0  0
  3  8  1  0  0  0  0
  4 29  1  0  0  0  0
  6  9  1  0  0  0  0
  6 12  1  0  0  0  0
  8 10  1  0  0  0  0
  8 11  2  0  0  0  0
  9 13  1  0  0  0  0
  9 14  1  0  0  0  0
  9 15  1  0  0  0  0
 10 16  1  0  0  0  0
 10 17  1  0  0  0  0
 10 18  1  0  0  0  0
 19 20  1  0  0  0  0
 20 21  1  0  0  0  0
 20 22  1  0  0  0  0
 20 23  1  0  0  0  0
 23 24  4  0  0  0  0
 23 28  4  0  0  0  0
 24 25  4  0  0  0  0
 24 29  1  0  0  0  0
 25 26  4  0  0  0  0
 25 30  1  0  0  0  0
 26 27  4  0  0  0  0
 26 31  1  0  0  0  0
 27 28  4  0  0  0  0
 27 32  1  0  0  0  0
 28 33  1  0  0  0  0
 29 34  1  0  0  0  0
 29 35  1  0  0  0  0
M  END
> <BCLConfClusterSize>
1

> <ConfClashScore>
0 

> <ConfOneFourInteractionScore>
-0.946221 

> <ConfScore>
0.474924 

> <ConfScorePBest>
0.00484336 

> <ConfTolerance>
0.593724 

> <RosettaParamsInstructions>
M  ROOT 3
M  POLY_N_BB 3
M  POLY_CA_BB 4
M  POLY_C_BB 2
M  POLY_O_BB 5
M  POLY_IGNORE 9 10 11 12 13 14 15 16 17 18 
M  POLY_UPPER 6
M  POLY_LOWER 8
M  POLY_CHG 0
M  POLY_PROPERTIES ALPHA_AA D_AA PROTEIN AROMATIC POLYMER 
M  END

$$$$



 35 35  0  0  0  0  0  0  0  0999 V2000
   -0.0107    3.2654   -0.1291 H   0  0  0  1  0  0  0  0  0  0  0  0
   -1.6994    2.7660    1.0267 C   0  0  0  1  0  0  0  0  0  0  0  0
   -1.4849    4.6351   -0.5822 N   0  0  0  1  0  0  0  0  0  0  0  0
   -1.0694    3.2514   -0.2835 C   0  0  0  1  0  0  0  0  0  0  0  0
   -2.2748    1.6684    1.1583 O   0  0  0  1  0  0  0  0  0  0  0  0
   -1.5966    3.6605    2.1397 N   0  0  0  1  0  0  0  0  0  0  0  0
   -0.9417    5.1436   -1.2200 H   0  0  0  1  0  0  0  0  0  0  0  0
   -2.5354    5.2411   -0.0539 C   0  0  0  1  0  0  0  0  0  0  0  0
   -2.1437    3.2304    3.4178 C   0  0  0  1  0  0  0  0  0  0  0  0
   -2.7112    6.7208   -0.4293 C   0  0  0  1  0  0  0  0  0  0  0  0
   -3.3403    4.6666    0.7004 O   0  0  0  1  0  0  0  0  0  0  0  0
   -1.1700    4.5375    2.0436 H   0  0  0  1  0  0  0  0  0  0  0  0
   -3.1892    3.0302    3.3096 H   0  0  0  1  0  0  0  0  0  0  0  0
   -2.0021    4.0031    4.1443 H   0  0  0  1  0  0  0  0  0  0  0  0
   -1.6420    2.3416    3.7393 H   0  0  0  1  0  0  0  0  0  0  0  0
   -3.7287    7.0111   -0.2705 H   0  0  0  1  0  0  0  0  0  0  0  0
   -2.4575    6.8597   -1.4594 H   0  0  0  1  0  0  0  0  0  0  0  0
   -2.0697    7.3218    0.1807 H   0  0  0  1  0  0  0  0  0  0  0  0
   -1.1016    4.4048   -3.0909 F   0  0  0  1  0  0  0  0  0  0  0  0
   -1.9957    3.8184   -3.8889 C   0  0  0  1  0  0  0  0  0  0  0  0
   -2.4838    4.7812   -4.6726 F   0  0  0  1  0  0  0  0  0  0  0  0
   -1.3050    3.0008   -4.6870 F   0  0  0  1  0  0  0  0  0  0  0  0
   -3.0754    3.0976   -3.1169 C   0  0  0  1  0  0  0  0  0  0  0  0
   -2.7531    2.3910   -1.9687 C   0  0  0  1  0  0  0  0  0  0  0  0
   -3.7408    1.7272   -1.2658 C   0  0  0  1  0  0  0  0  0  0  0  0
   -5.0545    1.7725   -1.7059 C   0  0  0  1  0  0  0  0  0  0  0  0
   -5.3757    2.4770   -2.8507 C   0  0  0  1  0  0  0  0  0  0  0  0
   -4.3852    3.1428   -3.5559 C   0  0  0  1  0  0  0  0  0  0  0  0
   -1.3228    2.3461   -1.4853 C   0  0  0  1  0  0  0  0  0  0  0  0
   -3.4984    1.1938   -0.4066 H   0  0  0  1  0  0  0  0  0  0  0  0
   -5.7983    1.2763   -1.1747 H   0  0  0  1  0  0  0  0  0  0  0  0
   -6.3606    2.5076   -3.1832 H   0  0  0  1  0  0  0  0  0  0  0  0
   -4.6277    3.6762   -4.4151 H   0  0  0  1  0  0  0  0  0  0  0  0
   -1.0882    1.3394   -1.2087 H   0  0  0  1  0  0  0  0  0  0  0  0
   -0.6830    2.6550   -2.2853 H   0  0  0  1  0  0  0  0  0  0  0  0
  1  4  1  0  0  0  0
  2  4  1  0  0  0  0
  2  5  2  0  0  0  0
  2  6  1  0  0  0  0
  3  4  1  0  0  0  0
  3  7  1  0  0  0  0
  3  8  1  0  0  0  0
  4 29  1  0  0  0  0
  6  9  1  0  0  0  0
  6 12  1  0  0  0  0
  8 10  1  0  0  0  0
  8 11  2  0  0  0  0
  9 13  1  0  0  0  0
  9 14  1  0  0  0  0
  9 15  1  0  0  0  0
 10 16  1  0  0  0  0
 10 17  1  0  0  0  0
 10 18  1  0  0  0  0
 19 20  1  0  0  0  0
 20 21  1  0  0  0  0
 20 22  1  0  0  0  0
 20 23  1  0  0  0  0
 23 24  4  0  0  0  0
 23 28  4  0  0  0  0
 24 25  4  0  0  0  0
 24 29  1  0  0  0  0
 25 26  4  0  0  0  0
 25 30  1  0  0  0  0
 26 27  4  0  0  0  0
 26 31  1  0  0  0  0
 27 28  4  0  0  0  0
 27 32  1  0  0  0  0
 28 33  1  0  0  0  0
 29 34  1  0  0  0  0
 29 35  1  0  0  0  0
M  END
> <BCLConfClusterSize>
1

> <ConfClashScore>
0.0010844 

> <ConfOneFourInteractionScore>
-0.970872 

> <ConfScore>
0.475075 

> <ConfScorePBest>
0.00481488 

> <ConfTolerance>
0.473656 

> <RosettaParamsInstructions>
M  ROOT 3
M  POLY_N_BB 3
M  POLY_CA_BB 4
M  POLY_C_BB 2
M  POLY_O_BB 5
M  POLY_IGNORE 9 10 11 12 13 14 15 16 17 18 
M  POLY_UPPER 6
M  POLY_LOWER 8
M  POLY_CHG 0
M  POLY_PROPERTIES ALPHA_AA D_AA PROTEIN AROMATIC POLYMER 
M  END

$$$$



 35 35  0  0  0  0  0  0  0  0999 V2000
   -0.2821    1.6711   -2.7783 H   0  0  0  1  0  0  0  0  0  0  0  0
   -0.8820    0.2150   -1.3848 C   0  0  0  1  0  0  0  0  0  0  0  0
    0.8920    1.8582   -1.0855 N   0  0  0  1  0  0  0  0  0  0  0  0
   -0.4132    1.6194   -1.7176 C   0  0  0  1  0  0  0  0  0  0  0  0
   -0.4600   -0.7103   -2.0733 O   0  0  0  1  0  0  0  0  0  0  0  0
   -1.7277    0.0580   -0.3625 N   0  0  0  1  0  0  0  0  0  0  0  0
    1.1410    2.7754   -0.8466 H   0  0  0  1  0  0  0  0  0  0  0  0
    1.7508    0.8684   -0.8253 C   0  0  0  1  0  0  0  0  0  0  0  0
   -2.3151   -1.2315   -0.0305 C   0  0  0  1  0  0  0  0  0  0  0  0
    2.8850    1.2119    0.1207 C   0  0  0  1  0  0  0  0  0  0  0  0
    1.6443   -0.2563   -1.3126 O   0  0  0  1  0  0  0  0  0  0  0  0
   -1.9606    0.8382    0.1829 H   0  0  0  1  0  0  0  0  0  0  0  0
   -1.6723   -2.0155   -0.3726 H   0  0  0  1  0  0  0  0  0  0  0  0
   -3.2700   -1.3209   -0.5050 H   0  0  0  1  0  0  0  0  0  0  0  0
   -2.4349   -1.3061    1.0301 H   0  0  0  1  0  0  0  0  0  0  0  0
    3.3530    0.3112    0.4592 H   0  0  0  1  0  0  0  0  0  0  0  0
    2.4979    1.7499    0.9607 H   0  0  0  1  0  0  0  0  0  0  0  0
    3.6043    1.8171   -0.3904 H   0  0  0  1  0  0  0  0  0  0  0  0
   -0.8858    3.0728   -4.0187 F   0  0  0  1  0  0  0  0  0  0  0  0
   -1.9919    3.8073   -3.8878 C   0  0  0  1  0  0  0  0  0  0  0  0
   -1.6162    4.9459   -3.3031 F   0  0  0  1  0  0  0  0  0  0  0  0
   -2.3741    4.1304   -5.1239 F   0  0  0  1  0  0  0  0  0  0  0  0
   -3.0745    3.0903   -3.1162 C   0  0  0  1  0  0  0  0  0  0  0  0
   -2.7968    2.5514   -1.8695 C   0  0  0  1  0  0  0  0  0  0  0  0
   -3.7866    1.8908   -1.1664 C   0  0  0  1  0  0  0  0  0  0  0  0
   -5.0582    1.7718   -1.7053 C   0  0  0  1  0  0  0  0  0  0  0  0
   -5.3348    2.3092   -2.9482 C   0  0  0  1  0  0  0  0  0  0  0  0
   -4.3423    2.9718   -3.6536 C   0  0  0  1  0  0  0  0  0  0  0  0
   -1.3968    2.7145   -1.3266 C   0  0  0  1  0  0  0  0  0  0  0  0
   -3.5773    1.4829   -0.2329 H   0  0  0  1  0  0  0  0  0  0  0  0
   -5.8039    1.2783   -1.1744 H   0  0  0  1  0  0  0  0  0  0  0  0
   -6.2877    2.2165   -3.3544 H   0  0  0  1  0  0  0  0  0  0  0  0
   -4.5517    3.3796   -4.5871 H   0  0  0  1  0  0  0  0  0  0  0  0
   -1.0113    3.6470   -1.6827 H   0  0  0  1  0  0  0  0  0  0  0  0
   -1.4576    2.7377   -0.2586 H   0  0  0  1  0  0  0  0  0  0  0  0
  1  4  1  0  0  0  0
  2  4  1  0  0  0  0
  2  5  2  0  0  0  0
  2  6  1  0  0  0  0
  3  4  1  0  0  0  0
  3  7  1  0  0  0  0
  3  8  1  0  0  0  0
  4 29  1  0  0  0  0
  6  9  1  0  0  0  0
  6 12  1  0  0  0  0
  8 10  1  0  0  0  0
  8 11  2  0  0  0  0
  9 13  1  0  0  0  0
  9 14  1  0  0  0  0
  9 15  1  0  0  0  0
 10 16  1  0  0  0  0
 10 17  1  0  0  0  0
 10 18  1  0  0  0  0
 19 20  1  0  0  0  0
 20 21  1  0  0  0  0
 20 22  1  0  0  0  0
 20 23  1  0  0  0  0
 23 24  4  0  0  0  0
 23 28  4  0  0  0  0
 24 25  4  0  0  0  0
 24 29  1  0  0  0  0
 25 26  4  0  0  0  0
 25 30  1  0  0  0  0
 26 27  4  0  0  0  0
 26 31  1  0  0  0  0
 27 28  4  0  0  0  0
 27 32  1  0  0  0  0
 28 33  1  0  0  0  0
 29 34  1  0  0  0  0
 29 35  1  0  0  0  0
M  END
> <BCLConfClusterSize>
1

> <ConfClashScore>
0.000479813 

> <ConfOneFourInteractionScore>
-0.938444 

> <ConfScore>
0.481787 

> <ConfScorePBest>
0.00478639 

> <ConfTolerance>
0.498582 

> <RosettaParamsInstructions>
M  ROOT 3
M  POLY_N_BB 3
M  POLY_CA_BB 4
M  POLY_C_BB 2
M  POLY_O_BB 5
M  POLY_IGNORE 9 10 11 12 13 14 15 16 17 18 
M  POLY_UPPER 6
M  POLY_LOWER 8
M  POLY_CHG 0
M  POLY_PROPERTIES ALPHA_AA D_AA PROTEIN AROMATIC POLYMER 
M  END

$$$$



 35 35  0  0  0  0  0  0  0  0999 V2000
   -2.2496    2.4099    0.7902 H   0  0  0  1  0  0  0  0  0  0  0  0
   -0.1524    2.6217    0.9499 C   0  0  0  1  0  0  0  0  0  0  0  0
   -1.3767    0.7262   -0.0348 N   0  0  0  1  0  0  0  0  0  0  0  0
   -1.3918    2.1622    0.2005 C   0  0  0  1  0  0  0  0  0  0  0  0
    0.9457    2.6620    0.4012 O   0  0  0  1  0  0  0  0  0  0  0  0
   -0.3418    2.9719    2.2252 N   0  0  0  1  0  0  0  0  0  0  0  0
   -1.3735    0.3648   -0.9458 H   0  0  0  1  0  0  0  0  0  0  0  0
   -1.3671   -0.0935    1.0368 C   0  0  0  1  0  0  0  0  0  0  0  0
    0.7258    3.5222    3.0470 C   0  0  0  1  0  0  0  0  0  0  0  0
   -1.3134   -1.5886    0.7901 C   0  0  0  1  0  0  0  0  0  0  0  0
   -1.4009    0.3564    2.1813 O   0  0  0  1  0  0  0  0  0  0  0  0
   -1.2305    2.8540    2.6211 H   0  0  0  1  0  0  0  0  0  0  0  0
    1.5010    3.9046    2.4163 H   0  0  0  1  0  0  0  0  0  0  0  0
    1.1244    2.7533    3.6753 H   0  0  0  1  0  0  0  0  0  0  0  0
    0.3370    4.3133    3.6535 H   0  0  0  1  0  0  0  0  0  0  0  0
   -2.1904   -2.0491    1.1949 H   0  0  0  1  0  0  0  0  0  0  0  0
   -0.4454   -1.9971    1.2640 H   0  0  0  1  0  0  0  0  0  0  0  0
   -1.2667   -1.7748   -0.2625 H   0  0  0  1  0  0  0  0  0  0  0  0
   -2.4844    4.7309   -4.7291 F   0  0  0  1  0  0  0  0  0  0  0  0
   -1.9924    3.8057   -3.9033 C   0  0  0  1  0  0  0  0  0  0  0  0
   -1.2724    2.9758   -4.6597 F   0  0  0  1  0  0  0  0  0  0  0  0
   -1.1250    4.4363   -3.1104 F   0  0  0  1  0  0  0  0  0  0  0  0
   -3.0724    3.0906   -3.1263 C   0  0  0  1  0  0  0  0  0  0  0  0
   -2.8293    2.6684   -1.8285 C   0  0  0  1  0  0  0  0  0  0  0  0
   -3.8162    2.0094   -1.1201 C   0  0  0  1  0  0  0  0  0  0  0  0
   -5.0509    1.7754   -1.7052 C   0  0  0  1  0  0  0  0  0  0  0  0
   -5.2931    2.1965   -2.9991 C   0  0  0  1  0  0  0  0  0  0  0  0
   -4.3034    2.8574   -3.7098 C   0  0  0  1  0  0  0  0  0  0  0  0
   -1.5066    2.8999   -1.1368 C   0  0  0  1  0  0  0  0  0  0  0  0
   -3.6325    1.6890   -0.1478 H   0  0  0  1  0  0  0  0  0  0  0  0
   -5.7948    1.2831   -1.1706 H   0  0  0  1  0  0  0  0  0  0  0  0
   -6.2181    2.0174   -3.4395 H   0  0  0  1  0  0  0  0  0  0  0  0
   -4.4872    3.1778   -4.6820 H   0  0  0  1  0  0  0  0  0  0  0  0
   -0.7218    2.5618   -1.7807 H   0  0  0  1  0  0  0  0  0  0  0  0
   -1.3949    3.9488   -0.9578 H   0  0  0  1  0  0  0  0  0  0  0  0
  1  4  1  0  0  0  0
  2  4  1  0  0  0  0
  2  5  2  0  0  0  0
  2  6  1  0  0  0  0
  3  4  1  0  0  0  0
  3  7  1  0  0  0  0
  3  8  1  0  0  0  0
  4 29  1  0  0  0  0
  6  9  1  0  0  0  0
  6 12  1  0  0  0  0
  8 10  1  0  0  0  0
  8 11  2  0  0  0  0
  9 13  1  0  0  0  0
  9 14  1  0  0  0  0
  9 15  1  0  0  0  0
 10 16  1  0  0  0  0
 10 17  1  0  0  0  0
 10 18  1  0  0  0  0
 19 20  1  0  0  0  0
 20 21  1  0  0  0  0
 20 22  1  0  0  0  0
 20 23  1  0  0  0  0
 23 24  4  0  0  0  0
 23 28  4  0  0  0  0
 24 25  4  0  0  0  0
 24 29  1  0  0  0  0
 25 26  4  0  0  0  0
 25 30  1  0  0  0  0
 26 27  4  0  0  0  0
 26 31  1  0  0  0  0
 27 28  4  0  0  0  0
 27 32  1  0  0  0  0
 28 33  1  0  0  0  0
 29 34  1  0  0  0  0
 29 35  1  0  0  0  0
M  END
> <BCLConfClusterSize>
1

> <ConfClashScore>
0 

> <ConfOneFourInteractionScore>
-0.960138 

> <ConfScore>
0.486296 

> <ConfScorePBest>
0.00475791 

> <ConfTolerance>
0.808269 

> <RosettaParamsInstructions>
M  ROOT 3
M  POLY_N_BB 3
M  POLY_CA_BB 4
M  POLY_C_BB 2
M  POLY_O_BB 5
M  POLY_IGNORE 9 10 11 12 13 14 15 16 17 18 
M  POLY_UPPER 6
M  POLY_LOWER 8
M  POLY_CHG 0
M  POLY_PROPERTIES ALPHA_AA D_AA PROTEIN AROMATIC POLYMER 
M  END

$$$$



 35 35  0  0  0  0  0  0  0  0999 V2000
    0.3923    1.7907   -0.8285 H   0  0  0  1  0  0  0  0  0  0  0  0
   -0.0336    1.1111   -2.7619 C   0  0  0  1  0  0  0  0  0  0  0  0
   -1.1352    0.4255   -0.6353 N   0  0  0  1  0  0  0  0  0  0  0  0
   -0.4873    1.5163   -1.3725 C   0  0  0  1  0  0  0  0  0  0  0  0
    0.8660    1.7237   -3.3357 O   0  0  0  1  0  0  0  0  0  0  0  0
   -0.6394    0.0712   -3.3422 N   0  0  0  1  0  0  0  0  0  0  0  0
   -2.0202    0.1196   -0.9242 H   0  0  0  1  0  0  0  0  0  0  0  0
   -0.5604   -0.1653    0.4163 C   0  0  0  1  0  0  0  0  0  0  0  0
   -0.3337   -0.3468   -4.7022 C   0  0  0  1  0  0  0  0  0  0  0  0
   -1.3452   -1.3005    1.0444 C   0  0  0  1  0  0  0  0  0  0  0  0
    0.5329    0.1757    0.8599 O   0  0  0  1  0  0  0  0  0  0  0  0
   -1.3130   -0.4275   -2.8342 H   0  0  0  1  0  0  0  0  0  0  0  0
    0.7099   -0.5690   -4.7816 H   0  0  0  1  0  0  0  0  0  0  0  0
   -0.5830    0.4412   -5.3818 H   0  0  0  1  0  0  0  0  0  0  0  0
   -0.9034   -1.2199   -4.9433 H   0  0  0  1  0  0  0  0  0  0  0  0
   -2.2931   -1.3922    0.5566 H   0  0  0  1  0  0  0  0  0  0  0  0
   -1.4974   -1.0963    2.0836 H   0  0  0  1  0  0  0  0  0  0  0  0
   -0.7988   -2.2141    0.9362 H   0  0  0  1  0  0  0  0  0  0  0  0
   -0.9050    3.0683   -4.1113 F   0  0  0  1  0  0  0  0  0  0  0  0
   -1.9851    3.8153   -3.8764 C   0  0  0  1  0  0  0  0  0  0  0  0
   -1.5630    4.8736   -3.1893 F   0  0  0  1  0  0  0  0  0  0  0  0
   -2.3829    4.2720   -5.0534 F   0  0  0  1  0  0  0  0  0  0  0  0
   -3.0747    3.0494   -3.1521 C   0  0  0  1  0  0  0  0  0  0  0  0
   -2.7977    2.5502   -1.8889 C   0  0  0  1  0  0  0  0  0  0  0  0
   -3.7898    1.9190   -1.1625 C   0  0  0  1  0  0  0  0  0  0  0  0
   -5.0631    1.7897   -1.6949 C   0  0  0  1  0  0  0  0  0  0  0  0
   -5.3392    2.2874   -2.9544 C   0  0  0  1  0  0  0  0  0  0  0  0
   -4.3443    2.9206   -3.6830 C   0  0  0  1  0  0  0  0  0  0  0  0
   -1.3957    2.7231   -1.3542 C   0  0  0  1  0  0  0  0  0  0  0  0
   -3.5810    1.5409   -0.2165 H   0  0  0  1  0  0  0  0  0  0  0  0
   -5.8106    1.3183   -1.1467 H   0  0  0  1  0  0  0  0  0  0  0  0
   -6.2934    2.1869   -3.3555 H   0  0  0  1  0  0  0  0  0  0  0  0
   -4.5532    3.2986   -4.6291 H   0  0  0  1  0  0  0  0  0  0  0  0
   -0.9236    3.4880   -1.9347 H   0  0  0  1  0  0  0  0  0  0  0  0
   -1.4783    3.0462   -0.3375 H   0  0  0  1  0  0  0  0  0  0  0  0
  1  4  1  0  0  0  0
  2  4  1  0  0  0  0
  2  5  2  0  0  0  0
  2  6  1  0  0  0  0
  3  4  1  0  0  0  0
  3  7  1  0  0  0  0
  3  8  1  0  0  0  0
  4 29  1  0  0  0  0
  6  9  1  0  0  0  0
  6 12  1  0  0  0  0
  8 10  1  0  0  0  0
  8 11  2  0  0  0  0
  9 13  1  0  0  0  0
  9 14  1  0  0  0  0
  9 15  1  0  0  0  0
 10 16  1  0  0  0  0
 10 17  1  0  0  0  0
 10 18  1  0  0  0  0
 19 20  1  0  0  0  0
 20 21  1  0  0  0  0
 20 22  1  0  0  0  0
 20 23  1  0  0  0  0
 23 24  4  0  0  0  0
 23 28  4  0  0  0  0
 24 25  4  0  0  0  0
 24 29  1  0  0  0  0
 25 26  4  0  0  0  0
 25 30  1  0  0  0  0
 26 27  4  0  0  0  0
 26 31  1  0  0  0  0
 27 28  4  0  0  0  0
 27 32  1  0  0  0  0
 28 33  1  0  0  0  0
 29 34  1  0  0  0  0
 29 35  1  0  0  0  0
M  END
> <BCLConfClusterSize>
1

> <ConfClashScore>
0.000943441 

> <ConfOneFourInteractionScore>
-0.950605 

> <ConfScore>
0.486486 

> <ConfScorePBest>
0.00472943 

> <ConfTolerance>
0.529042 

> <RosettaParamsInstructions>
M  ROOT 3
M  POLY_N_BB 3
M  POLY_CA_BB 4
M  POLY_C_BB 2
M  POLY_O_BB 5
M  POLY_IGNORE 9 10 11 12 13 14 15 16 17 18 
M  POLY_UPPER 6
M  POLY_LOWER 8
M  POLY_CHG 0
M  POLY_PROPERTIES ALPHA_AA D_AA PROTEIN AROMATIC POLYMER 
M  END

$$$$



 35 35  0  0  0  0  0  0  0  0999 V2000
   -1.7959    3.7148    0.1733 H   0  0  0  1  0  0  0  0  0  0  0  0
    0.2619    3.2037    0.3065 C   0  0  0  1  0  0  0  0  0  0  0  0
   -1.6236    1.7989    0.9482 N   0  0  0  1  0  0  0  0  0  0  0  0
   -1.1947    2.8416    0.0280 C   0  0  0  1  0  0  0  0  0  0  0  0
    0.6940    4.3259    0.0463 O   0  0  0  1  0  0  0  0  0  0  0  0
    1.0548    2.2625    0.8427 N   0  0  0  1  0  0  0  0  0  0  0  0
   -2.1396    1.0426    0.5988 H   0  0  0  1  0  0  0  0  0  0  0  0
   -1.3382    1.8369    2.2529 C   0  0  0  1  0  0  0  0  0  0  0  0
    2.4279    2.4769    1.2745 C   0  0  0  1  0  0  0  0  0  0  0  0
   -1.9502    0.7332    3.0935 C   0  0  0  1  0  0  0  0  0  0  0  0
   -0.6264    2.7040    2.7580 O   0  0  0  1  0  0  0  0  0  0  0  0
    0.6808    1.3632    0.9514 H   0  0  0  1  0  0  0  0  0  0  0  0
    2.9071    1.5319    1.4238 H   0  0  0  1  0  0  0  0  0  0  0  0
    2.4311    3.0270    2.1923 H   0  0  0  1  0  0  0  0  0  0  0  0
    2.9551    3.0294    0.5251 H   0  0  0  1  0  0  0  0  0  0  0  0
   -2.8389    1.0956    3.5666 H   0  0  0  1  0  0  0  0  0  0  0  0
   -1.2494    0.4239    3.8406 H   0  0  0  1  0  0  0  0  0  0  0  0
   -2.1942   -0.0987    2.4664 H   0  0  0  1  0  0  0  0  0  0  0  0
   -1.3192    4.6940   -3.1779 F   0  0  0  1  0  0  0  0  0  0  0  0
   -2.0041    3.8137   -3.9099 C   0  0  0  1  0  0  0  0  0  0  0  0
   -2.5273    4.5011   -4.9263 F   0  0  0  1  0  0  0  0  0  0  0  0
   -1.1017    2.9884   -4.4422 F   0  0  0  1  0  0  0  0  0  0  0  0
   -3.0557    3.0808   -3.1025 C   0  0  0  1  0  0  0  0  0  0  0  0
   -2.7470    2.3691   -1.9536 C   0  0  0  1  0  0  0  0  0  0  0  0
   -3.7454    1.7140   -1.2576 C   0  0  0  1  0  0  0  0  0  0  0  0
   -5.0560    1.7730   -1.7053 C   0  0  0  1  0  0  0  0  0  0  0  0
   -5.3635    2.4826   -2.8507 C   0  0  0  1  0  0  0  0  0  0  0  0
   -4.3624    3.1398   -3.5490 C   0  0  0  1  0  0  0  0  0  0  0  0
   -1.3349    2.3960   -1.4184 C   0  0  0  1  0  0  0  0  0  0  0  0
   -3.5133    1.1767   -0.3980 H   0  0  0  1  0  0  0  0  0  0  0  0
   -5.8077    1.2834   -1.1793 H   0  0  0  1  0  0  0  0  0  0  0  0
   -6.3461    2.5236   -3.1889 H   0  0  0  1  0  0  0  0  0  0  0  0
   -4.5945    3.6770   -4.4086 H   0  0  0  1  0  0  0  0  0  0  0  0
   -0.9322    1.4080   -1.4998 H   0  0  0  1  0  0  0  0  0  0  0  0
   -0.7639    3.0657   -2.0269 H   0  0  0  1  0  0  0  0  0  0  0  0
  1  4  1  0  0  0  0
  2  4  1  0  0  0  0
  2  5  2  0  0  0  0
  2  6  1  0  0  0  0
  3  4  1  0  0  0  0
  3  7  1  0  0  0  0
  3  8  1  0  0  0  0
  4 29  1  0  0  0  0
  6  9  1  0  0  0  0
  6 12  1  0  0  0  0
  8 10  1  0  0  0  0
  8 11  2  0  0  0  0
  9 13  1  0  0  0  0
  9 14  1  0  0  0  0
  9 15  1  0  0  0  0
 10 16  1  0  0  0  0
 10 17  1  0  0  0  0
 10 18  1  0  0  0  0
 19 20  1  0  0  0  0
 20 21  1  0  0  0  0
 20 22  1  0  0  0  0
 20 23  1  0  0  0  0
 23 24  4  0  0  0  0
 23 28  4  0  0  0  0
 24 25  4  0  0  0  0
 24 29  1  0  0  0  0
 25 26  4  0  0  0  0
 25 30  1  0  0  0  0
 26 27  4  0  0  0  0
 26 31  1  0  0  0  0
 27 28  4  0  0  0  0
 27 32  1  0  0  0  0
 28 33  1  0  0  0  0
 29 34  1  0  0  0  0
 29 35  1  0  0  0  0
M  END
> <BCLConfClusterSize>
1

> <ConfClashScore>
0 

> <ConfOneFourInteractionScore>
-0.956443 

> <ConfScore>
0.491266 

> <ConfScorePBest>
0.00470095 

> <ConfTolerance>
0.75829 

> <RosettaParamsInstructions>
M  ROOT 3
M  POLY_N_BB 3
M  POLY_CA_BB 4
M  POLY_C_BB 2
M  POLY_O_BB 5
M  POLY_IGNORE 9 10 11 12 13 14 15 16 17 18 
M  POLY_UPPER 6
M  POLY_LOWER 8
M  POLY_CHG 0
M  POLY_PROPERTIES ALPHA_AA D_AA PROTEIN AROMATIC POLYMER 
M  END

$$$$



 35 35  0  0  0  0  0  0  0  0999 V2000
    0.2783    1.0265   -1.2187 H   0  0  0  1  0  0  0  0  0  0  0  0
   -1.0287    0.1153   -2.5840 C   0  0  0  1  0  0  0  0  0  0  0  0
   -1.3375    0.3303   -0.1516 N   0  0  0  1  0  0  0  0  0  0  0  0
   -0.7812    0.9477   -1.3463 C   0  0  0  1  0  0  0  0  0  0  0  0
   -1.8599   -0.7917   -2.5877 O   0  0  0  1  0  0  0  0  0  0  0  0
   -0.2933    0.4310   -3.6512 N   0  0  0  1  0  0  0  0  0  0  0  0
   -1.7871    0.8982    0.5086 H   0  0  0  1  0  0  0  0  0  0  0  0
   -1.2558   -0.9965    0.0787 C   0  0  0  1  0  0  0  0  0  0  0  0
   -0.3389   -0.2633   -4.9294 C   0  0  0  1  0  0  0  0  0  0  0  0
   -1.7920   -1.5247    1.3901 C   0  0  0  1  0  0  0  0  0  0  0  0
   -0.7641   -1.7504   -0.7456 O   0  0  0  1  0  0  0  0  0  0  0  0
    0.3242    1.1875   -3.5682 H   0  0  0  1  0  0  0  0  0  0  0  0
   -1.3123   -0.1548   -5.3602 H   0  0  0  1  0  0  0  0  0  0  0  0
   -0.1296   -1.3017   -4.7786 H   0  0  0  1  0  0  0  0  0  0  0  0
    0.3917    0.1562   -5.5891 H   0  0  0  1  0  0  0  0  0  0  0  0
   -1.0181   -1.4991    2.1286 H   0  0  0  1  0  0  0  0  0  0  0  0
   -2.1259   -2.5327    1.2585 H   0  0  0  1  0  0  0  0  0  0  0  0
   -2.6113   -0.9160    1.7111 H   0  0  0  1  0  0  0  0  0  0  0  0
   -1.2356    4.5774   -3.0727 F   0  0  0  1  0  0  0  0  0  0  0  0
   -1.9820    3.8170   -3.8755 C   0  0  0  1  0  0  0  0  0  0  0  0
   -2.4433    4.6271   -4.8352 F   0  0  0  1  0  0  0  0  0  0  0  0
   -1.1433    2.9696   -4.4732 F   0  0  0  1  0  0  0  0  0  0  0  0
   -3.0938    3.1058   -3.1325 C   0  0  0  1  0  0  0  0  0  0  0  0
   -2.7591    2.4033   -1.9852 C   0  0  0  1  0  0  0  0  0  0  0  0
   -3.7376    1.7334   -1.2752 C   0  0  0  1  0  0  0  0  0  0  0  0
   -5.0542    1.7682   -1.7072 C   0  0  0  1  0  0  0  0  0  0  0  0
   -5.3877    2.4686   -2.8511 C   0  0  0  1  0  0  0  0  0  0  0  0
   -4.4065    3.1406   -3.5634 C   0  0  0  1  0  0  0  0  0  0  0  0
   -1.3256    2.3697   -1.5105 C   0  0  0  1  0  0  0  0  0  0  0  0
   -3.4859    1.2031   -0.4167 H   0  0  0  1  0  0  0  0  0  0  0  0
   -5.7910    1.2674   -1.1707 H   0  0  0  1  0  0  0  0  0  0  0  0
   -6.3749    2.4914   -3.1775 H   0  0  0  1  0  0  0  0  0  0  0  0
   -4.6582    3.6709   -4.4219 H   0  0  0  1  0  0  0  0  0  0  0  0
   -0.7184    2.8866   -2.2240 H   0  0  0  1  0  0  0  0  0  0  0  0
   -1.2681    2.8677   -0.5652 H   0  0  0  1  0  0  0  0  0  0  0  0
  1  4  1  0  0  0  0
  2  4  1  0  0  0  0
  2  5  2  0  0  0  0
  2  6  1  0  0  0  0
  3  4  1  0  0  0  0
  3  7  1  0  0  0  0
  3  8  1  0  0  0  0
  4 29  1  0  0  0  0
  6  9  1  0  0  0  0
  6 12  1  0  0  0  0
  8 10  1  0  0  0  0
  8 11  2  0  0  0  0
  9 13  1  0  0  0  0
  9 14  1  0  0  0  0
  9 15  1  0  0  0  0
 10 16  1  0  0  0  0
 10 17  1  0  0  0  0
 10 18  1  0  0  0  0
 19 20  1  0  0  0  0
 20 21  1  0  0  0  0
 20 22  1  0  0  0  0
 20 23  1  0  0  0  0
 23 24  4  0  0  0  0
 23 28  4  0  0  0  0
 24 25  4  0  0  0  0
 24 29  1  0  0  0  0
 25 26  4  0  0  0  0
 25 30  1  0  0  0  0
 26 27  4  0  0  0  0
 26 31  1  0  0  0  0
 27 28  4  0  0  0  0
 27 32  1  0  0  0  0
 28 33  1  0  0  0  0
 29 34  1  0  0  0  0
 29 35  1  0  0  0  0
M  END
> <BCLConfClusterSize>
1

> <ConfClashScore>
0 

> <ConfOneFourInteractionScore>
-0.982563 

> <ConfScore>
0.491459 

> <ConfScorePBest>
0.00467247 

> <ConfTolerance>
0.52876 

> <RosettaParamsInstructions>
M  ROOT 3
M  POLY_N_BB 3
M  POLY_CA_BB 4
M  POLY_C_BB 2
M  POLY_O_BB 5
M  POLY_IGNORE 9 10 11 12 13 14 15 16 17 18 
M  POLY_UPPER 6
M  POLY_LOWER 8
M  POLY_CHG 0
M  POLY_PROPERTIES ALPHA_AA D_AA PROTEIN AROMATIC POLYMER 
M  END

$$$$



 35 35  0  0  0  0  0  0  0  0999 V2000
   -1.5875    0.9146   -0.0746 H   0  0  0  1  0  0  0  0  0  0  0  0
    0.4277    1.4893    0.0224 C   0  0  0  1  0  0  0  0  0  0  0  0
   -0.7598    0.4003   -1.8799 N   0  0  0  1  0  0  0  0  0  0  0  0
   -0.8624    1.3110   -0.7543 C   0  0  0  1  0  0  0  0  0  0  0  0
    0.6783    2.5400    0.6113 O   0  0  0  1  0  0  0  0  0  0  0  0
    1.2563    0.4412    0.0199 N   0  0  0  1  0  0  0  0  0  0  0  0
   -1.4343   -0.2950   -2.0287 H   0  0  0  1  0  0  0  0  0  0  0  0
    0.3195    0.5420   -2.7387 C   0  0  0  1  0  0  0  0  0  0  0  0
    2.4334    0.3789    0.8732 C   0  0  0  1  0  0  0  0  0  0  0  0
    0.4262   -0.3635   -3.9334 C   0  0  0  1  0  0  0  0  0  0  0  0
    1.1488    1.3995   -2.4948 O   0  0  0  1  0  0  0  0  0  0  0  0
    1.0647   -0.3117   -0.5774 H   0  0  0  1  0  0  0  0  0  0  0  0
    2.3094   -0.3999    1.5964 H   0  0  0  1  0  0  0  0  0  0  0  0
    2.5594    1.3151    1.3757 H   0  0  0  1  0  0  0  0  0  0  0  0
    3.2970    0.1755    0.2750 H   0  0  0  1  0  0  0  0  0  0  0  0
   -0.0464   -1.2985   -3.7162 H   0  0  0  1  0  0  0  0  0  0  0  0
    1.4578   -0.5304   -4.1632 H   0  0  0  1  0  0  0  0  0  0  0  0
   -0.0569    0.0939   -4.7715 H   0  0  0  1  0  0  0  0  0  0  0  0
   -0.8575    3.1328   -4.0137 F   0  0  0  1  0  0  0  0  0  0  0  0
   -1.9997    3.8131   -3.9019 C   0  0  0  1  0  0  0  0  0  0  0  0
   -1.6858    5.0100   -3.4037 F   0  0  0  1  0  0  0  0  0  0  0  0
   -2.3926    4.0493   -5.1543 F   0  0  0  1  0  0  0  0  0  0  0  0
   -3.0554    3.0859   -3.0948 C   0  0  0  1  0  0  0  0  0  0  0  0
   -2.7886    2.5299   -1.8533 C   0  0  0  1  0  0  0  0  0  0  0  0
   -3.7881    1.8721   -1.1616 C   0  0  0  1  0  0  0  0  0  0  0  0
   -5.0588    1.7730   -1.7067 C   0  0  0  1  0  0  0  0  0  0  0  0
   -5.3247    2.3274   -2.9444 C   0  0  0  1  0  0  0  0  0  0  0  0
   -4.3223    2.9871   -3.6384 C   0  0  0  1  0  0  0  0  0  0  0  0
   -1.4058    2.6424   -1.2560 C   0  0  0  1  0  0  0  0  0  0  0  0
   -3.5870    1.4514   -0.2319 H   0  0  0  1  0  0  0  0  0  0  0  0
   -5.8119    1.2816   -1.1843 H   0  0  0  1  0  0  0  0  0  0  0  0
   -6.2769    2.2496   -3.3553 H   0  0  0  1  0  0  0  0  0  0  0  0
   -4.5236    3.4078   -4.5680 H   0  0  0  1  0  0  0  0  0  0  0  0
   -0.7414    3.0212   -2.0043 H   0  0  0  1  0  0  0  0  0  0  0  0
   -1.4446    3.3260   -0.4338 H   0  0  0  1  0  0  0  0  0  0  0  0
  1  4  1  0  0  0  0
  2  4  1  0  0  0  0
  2  5  2  0  0  0  0
  2  6  1  0  0  0  0
  3  4  1  0  0  0  0
  3  7  1  0  0  0  0
  3  8  1  0  0  0  0
  4 29  1  0  0  0  0
  6  9  1  0  0  0  0
  6 12  1  0  0  0  0
  8 10  1  0  0  0  0
  8 11  2  0  0  0  0
  9 13  1  0  0  0  0
  9 14  1  0  0  0  0
  9 15  1  0  0  0  0
 10 16  1  0  0  0  0
 10 17  1  0  0  0  0
 10 18  1  0  0  0  0
 19 20  1  0  0  0  0
 20 21  1  0  0  0  0
 20 22  1  0  0  0  0
 20 23  1  0  0  0  0
 23 24  4  0  0  0  0
 23 28  4  0  0  0  0
 24 25  4  0  0  0  0
 24 29  1  0  0  0  0
 25 26  4  0  0  0  0
 25 30  1  0  0  0  0
 26 27  4  0  0  0  0
 26 31  1  0  0  0  0
 27 28  4  0  0  0  0
 27 32  1  0  0  0  0
 28 33  1  0  0  0  0
 29 34  1  0  0  0  0
 29 35  1  0  0  0  0
M  END
> <BCLConfClusterSize>
1

> <ConfClashScore>
0 

> <ConfOneFourInteractionScore>
-0.957364 

> <ConfScore>
0.491502 

> <ConfScorePBest>
0.00464399 

> <ConfTolerance>
0.396139 

> <RosettaParamsInstructions>
M  ROOT 3
M  POLY_N_BB 3
M  POLY_CA_BB 4
M  POLY_C_BB 2
M  POLY_O_BB 5
M  POLY_IGNORE 9 10 11 12 13 14 15 16 17 18 
M  POLY_UPPER 6
M  POLY_LOWER 8
M  POLY_CHG 0
M  POLY_PROPERTIES ALPHA_AA D_AA PROTEIN AROMATIC POLYMER 
M  END

$$$$



 35 35  0  0  0  0  0  0  0  0999 V2000
   -1.8703    1.6087    0.4451 H   0  0  0  1  0  0  0  0  0  0  0  0
   -2.4031    3.4988    1.1689 C   0  0  0  1  0  0  0  0  0  0  0  0
   -0.1064    2.5971    0.8271 N   0  0  0  1  0  0  0  0  0  0  0  0
   -1.4934    2.6054    0.3482 C   0  0  0  1  0  0  0  0  0  0  0  0
   -3.6001    3.6024    0.9082 O   0  0  0  1  0  0  0  0  0  0  0  0
   -1.8189    4.1526    2.1770 N   0  0  0  1  0  0  0  0  0  0  0  0
    0.5542    3.1605    0.3726 H   0  0  0  1  0  0  0  0  0  0  0  0
    0.2871    1.8481    1.8611 C   0  0  0  1  0  0  0  0  0  0  0  0
   -2.5859    5.0935    2.9797 C   0  0  0  1  0  0  0  0  0  0  0  0
    1.7833    1.7887    2.0997 C   0  0  0  1  0  0  0  0  0  0  0  0
   -0.4995    1.2385    2.5844 O   0  0  0  1  0  0  0  0  0  0  0  0
   -0.8719    3.9983    2.3764 H   0  0  0  1  0  0  0  0  0  0  0  0
   -3.5383    5.2605    2.5214 H   0  0  0  1  0  0  0  0  0  0  0  0
   -2.0552    6.0202    3.0467 H   0  0  0  1  0  0  0  0  0  0  0  0
   -2.7282    4.6916    3.9611 H   0  0  0  1  0  0  0  0  0  0  0  0
    1.9843    1.9215    3.1423 H   0  0  0  1  0  0  0  0  0  0  0  0
    2.2643    2.5652    1.5423 H   0  0  0  1  0  0  0  0  0  0  0  0
    2.1573    0.8375    1.7830 H   0  0  0  1  0  0  0  0  0  0  0  0
   -2.5289    4.6839   -4.7714 F   0  0  0  1  0  0  0  0  0  0  0  0
   -2.0023    3.8080   -3.9138 C   0  0  0  1  0  0  0  0  0  0  0  0
   -1.2597    2.9733   -4.6425 F   0  0  0  1  0  0  0  0  0  0  0  0
   -1.1517    4.4968   -3.1518 F   0  0  0  1  0  0  0  0  0  0  0  0
   -3.0570    3.0867   -3.1001 C   0  0  0  1  0  0  0  0  0  0  0  0
   -2.8311    2.6648   -1.7991 C   0  0  0  1  0  0  0  0  0  0  0  0
   -3.8273    2.0059   -1.1036 C   0  0  0  1  0  0  0  0  0  0  0  0
   -5.0541    1.7717   -1.7050 C   0  0  0  1  0  0  0  0  0  0  0  0
   -5.2791    2.1924   -3.0021 C   0  0  0  1  0  0  0  0  0  0  0  0
   -4.2802    2.8532   -3.6998 C   0  0  0  1  0  0  0  0  0  0  0  0
   -1.4966    2.9249   -1.1410 C   0  0  0  1  0  0  0  0  0  0  0  0
   -3.6565    1.6859   -0.1289 H   0  0  0  1  0  0  0  0  0  0  0  0
   -5.8050    1.2794   -1.1802 H   0  0  0  1  0  0  0  0  0  0  0  0
   -6.1982    2.0131   -3.4547 H   0  0  0  1  0  0  0  0  0  0  0  0
   -4.4510    3.1733   -4.6745 H   0  0  0  1  0  0  0  0  0  0  0  0
   -0.7565    2.3192   -1.6209 H   0  0  0  1  0  0  0  0  0  0  0  0
   -1.2498    3.9582   -1.2682 H   0  0  0  1  0  0  0  0  0  0  0  0
  1  4  1  0  0  0  0
  2  4  1  0  0  0  0
  2  5  2  0  0  0  0
  2  6  1  0  0  0  0
  3  4  1  0  0  0  0
  3  7  1  0  0  0  0
  3  8  1  0  0  0  0
  4 29  1  0  0  0  0
  6  9  1  0  0  0  0
  6 12  1  0  0  0  0
  8 10  1  0  0  0  0
  8 11  2  0  0  0  0
  9 13  1  0  0  0  0
  9 14  1  0  0  0  0
  9 15  1  0  0  0  0
 10 16  1  0  0  0  0
 10 17  1  0  0  0  0
 10 18  1  0  0  0  0
 19 20  1  0  0  0  0
 20 21  1  0  0  0  0
 20 22  1  0  0  0  0
 20 23  1  0  0  0  0
 23 24  4  0  0  0  0
 23 28  4  0  0  0  0
 24 25  4  0  0  0  0
 24 29  1  0  0  0  0
 25 26  4  0  0  0  0
 25 30  1  0  0  0  0
 26 27  4  0  0  0  0
 26 31  1  0  0  0  0
 27 28  4  0  0  0  0
 27 32  1  0  0  0  0
 28 33  1  0  0  0  0
 29 34  1  0  0  0  0
 29 35  1  0  0  0  0
M  END
> <BCLConfClusterSize>
1

> <ConfClashScore>
0 

> <ConfOneFourInteractionScore>
-0.952877 

> <ConfScore>
0.493778 

> <ConfScorePBest>
0.00461551 

> <ConfTolerance>
0.825251 

> <RosettaParamsInstructions>
M  ROOT 3
M  POLY_N_BB 3
M  POLY_CA_BB 4
M  POLY_C_BB 2
M  POLY_O_BB 5
M  POLY_IGNORE 9 10 11 12 13 14 15 16 17 18 
M  POLY_UPPER 6
M  POLY_LOWER 8
M  POLY_CHG 0
M  POLY_PROPERTIES ALPHA_AA D_AA PROTEIN AROMATIC POLYMER 
M  END

$$$$



 35 35  0  0  0  0  0  0  0  0999 V2000
   -0.5211    1.6410   -2.1663 H   0  0  0  1  0  0  0  0  0  0  0  0
   -1.0860    0.7501   -0.3487 C   0  0  0  1  0  0  0  0  0  0  0  0
    0.7317    2.3762   -0.7090 N   0  0  0  1  0  0  0  0  0  0  0  0
   -0.5885    1.9432   -1.1420 C   0  0  0  1  0  0  0  0  0  0  0  0
   -0.7839   -0.3993   -0.6672 O   0  0  0  1  0  0  0  0  0  0  0  0
   -1.8653    1.0352    0.7065 N   0  0  0  1  0  0  0  0  0  0  0  0
    1.3313    2.7920   -1.3633 H   0  0  0  1  0  0  0  0  0  0  0  0
    1.1682    2.2217    0.5892 C   0  0  0  1  0  0  0  0  0  0  0  0
   -2.4911    0.0463    1.5715 C   0  0  0  1  0  0  0  0  0  0  0  0
    2.6079    2.5621    0.8423 C   0  0  0  1  0  0  0  0  0  0  0  0
    0.4008    1.8305    1.4483 O   0  0  0  1  0  0  0  0  0  0  0  0
   -2.0248    1.9806    0.9096 H   0  0  0  1  0  0  0  0  0  0  0  0
   -1.9260   -0.8618    1.5430 H   0  0  0  1  0  0  0  0  0  0  0  0
   -3.4881   -0.1436    1.2327 H   0  0  0  1  0  0  0  0  0  0  0  0
   -2.5194    0.4172    2.5747 H   0  0  0  1  0  0  0  0  0  0  0  0
    2.8827    3.4124    0.2538 H   0  0  0  1  0  0  0  0  0  0  0  0
    3.2236    1.7291    0.5742 H   0  0  0  1  0  0  0  0  0  0  0  0
    2.7438    2.7875    1.8794 H   0  0  0  1  0  0  0  0  0  0  0  0
   -2.0935    3.5418   -5.2183 F   0  0  0  1  0  0  0  0  0  0  0  0
   -1.9996    3.8043   -3.9136 C   0  0  0  1  0  0  0  0  0  0  0  0
   -0.7605    3.4661   -3.5535 F   0  0  0  1  0  0  0  0  0  0  0  0
   -2.0750    5.1303   -3.7931 F   0  0  0  1  0  0  0  0  0  0  0  0
   -3.0568    3.0866   -3.0997 C   0  0  0  1  0  0  0  0  0  0  0  0
   -2.8675    2.7507   -1.7682 C   0  0  0  1  0  0  0  0  0  0  0  0
   -3.8639    2.0910   -1.0737 C   0  0  0  1  0  0  0  0  0  0  0  0
   -5.0544    1.7700   -1.7071 C   0  0  0  1  0  0  0  0  0  0  0  0
   -5.2429    2.1050   -3.0346 C   0  0  0  1  0  0  0  0  0  0  0  0
   -4.2438    2.7666   -3.7313 C   0  0  0  1  0  0  0  0  0  0  0  0
   -1.5728    3.1054   -1.0757 C   0  0  0  1  0  0  0  0  0  0  0  0
   -3.7204    1.8354   -0.0759 H   0  0  0  1  0  0  0  0  0  0  0  0
   -5.8057    1.2772   -1.1833 H   0  0  0  1  0  0  0  0  0  0  0  0
   -6.1346    1.8606   -3.5109 H   0  0  0  1  0  0  0  0  0  0  0  0
   -4.3873    3.0222   -4.7292 H   0  0  0  1  0  0  0  0  0  0  0  0
   -1.1408    3.9588   -1.5553 H   0  0  0  1  0  0  0  0  0  0  0  0
   -1.7750    3.3358   -0.0506 H   0  0  0  1  0  0  0  0  0  0  0  0
  1  4  1  0  0  0  0
  2  4  1  0  0  0  0
  2  5  2  0  0  0  0
  2  6  1  0  0  0  0
  3  4  1  0  0  0  0
  3  7  1  0  0  0  0
  3  8  1  0  0  0  0
  4 29  1  0  0  0  0
  6  9  1  0  0  0  0
  6 12  1  0  0  0  0
  8 10  1  0  0  0  0
  8 11  2  0  0  0  0
  9 13  1  0  0  0  0
  9 14  1  0  0  0  0
  9 15  1  0  0  0  0
 10 16  1  0  0  0  0
 10 17  1  0  0  0  0
 10 18  1  0  0  0  0
 19 20  1  0  0  0  0
 20 21  1  0  0  0  0
 20 22  1  0  0  0  0
 20 23  1  0  0  0  0
 23 24  4  0  0  0  0
 23 28  4  0  0  0  0
 24 25  4  0  0  0  0
 24 29  1  0  0  0  0
 25 26  4  0  0  0  0
 25 30  1  0  0  0  0
 26 27  4  0  0  0  0
 26 31  1  0  0  0  0
 27 28  4  0  0  0  0
 27 32  1  0  0  0  0
 28 33  1  0  0  0  0
 29 34  1  0  0  0  0
 29 35  1  0  0  0  0
M  END
> <BCLConfClusterSize>
1

> <ConfClashScore>
0.000582454 

> <ConfOneFourInteractionScore>
-0.927621 

> <ConfScore>
0.494025 

> <ConfScorePBest>
0.00458703 

> <ConfTolerance>
0.67972 

> <RosettaParamsInstructions>
M  ROOT 3
M  POLY_N_BB 3
M  POLY_CA_BB 4
M  POLY_C_BB 2
M  POLY_O_BB 5
M  POLY_IGNORE 9 10 11 12 13 14 15 16 17 18 
M  POLY_UPPER 6
M  POLY_LOWER 8
M  POLY_CHG 0
M  POLY_PROPERTIES ALPHA_AA D_AA PROTEIN AROMATIC POLYMER 
M  END

$$$$



 35 35  0  0  0  0  0  0  0  0999 V2000
   -1.5395    3.0907    0.5188 H   0  0  0  1  0  0  0  0  0  0  0  0
   -1.8905    4.7415   -0.7107 C   0  0  0  1  0  0  0  0  0  0  0  0
    0.2933    3.7187   -0.1332 N   0  0  0  1  0  0  0  0  0  0  0  0
   -1.1193    3.4769   -0.3863 C   0  0  0  1  0  0  0  0  0  0  0  0
   -1.3159    5.7345   -1.1550 O   0  0  0  1  0  0  0  0  0  0  0  0
   -3.2098    4.7441   -0.4999 N   0  0  0  1  0  0  0  0  0  0  0  0
    0.9522    3.0847   -0.4858 H   0  0  0  1  0  0  0  0  0  0  0  0
    0.7231    4.7749    0.5630 C   0  0  0  1  0  0  0  0  0  0  0  0
   -4.0640    5.8401   -0.9324 C   0  0  0  1  0  0  0  0  0  0  0  0
    2.1971    4.7738    0.9188 C   0  0  0  1  0  0  0  0  0  0  0  0
   -0.0150    5.6987    0.9027 O   0  0  0  1  0  0  0  0  0  0  0  0
   -3.6165    3.9814   -0.0380 H   0  0  0  1  0  0  0  0  0  0  0  0
   -4.7486    5.4876   -1.6753 H   0  0  0  1  0  0  0  0  0  0  0  0
   -3.4602    6.6207   -1.3458 H   0  0  0  1  0  0  0  0  0  0  0  0
   -4.6112    6.2177   -0.0940 H   0  0  0  1  0  0  0  0  0  0  0  0
    2.3230    4.4134    1.9183 H   0  0  0  1  0  0  0  0  0  0  0  0
    2.5815    5.7699    0.8480 H   0  0  0  1  0  0  0  0  0  0  0  0
    2.7268    4.1375    0.2410 H   0  0  0  1  0  0  0  0  0  0  0  0
   -1.5079    4.8815   -3.2424 F   0  0  0  1  0  0  0  0  0  0  0  0
   -1.9998    3.8222   -3.8873 C   0  0  0  1  0  0  0  0  0  0  0  0
   -2.4050    4.2550   -5.0822 F   0  0  0  1  0  0  0  0  0  0  0  0
   -0.9471    3.0427   -4.1378 F   0  0  0  1  0  0  0  0  0  0  0  0
   -3.0787    3.0993   -3.1159 C   0  0  0  1  0  0  0  0  0  0  0  0
   -2.7601    2.4154   -1.9530 C   0  0  0  1  0  0  0  0  0  0  0  0
   -3.7469    1.7497   -1.2506 C   0  0  0  1  0  0  0  0  0  0  0  0
   -5.0560    1.7705   -1.7059 C   0  0  0  1  0  0  0  0  0  0  0  0
   -5.3734    2.4524   -2.8654 C   0  0  0  1  0  0  0  0  0  0  0  0
   -4.3839    3.1201   -3.5700 C   0  0  0  1  0  0  0  0  0  0  0  0
   -1.3349    2.3972   -1.4530 C   0  0  0  1  0  0  0  0  0  0  0  0
   -3.5072    1.2332   -0.3803 H   0  0  0  1  0  0  0  0  0  0  0  0
   -5.7992    1.2729   -1.1751 H   0  0  0  1  0  0  0  0  0  0  0  0
   -6.3549    2.4646   -3.2092 H   0  0  0  1  0  0  0  0  0  0  0  0
   -4.6236    3.6366   -4.4403 H   0  0  0  1  0  0  0  0  0  0  0  0
   -1.1242    1.4378   -1.0287 H   0  0  0  1  0  0  0  0  0  0  0  0
   -0.6728    2.5779   -2.2739 H   0  0  0  1  0  0  0  0  0  0  0  0
  1  4  1  0  0  0  0
  2  4  1  0  0  0  0
  2  5  2  0  0  0  0
  2  6  1  0  0  0  0
  3  4  1  0  0  0  0
  3  7  1  0  0  0  0
  3  8  1  0  0  0  0
  4 29  1  0  0  0  0
  6  9  1  0  0  0  0
  6 12  1  0  0  0  0
  8 10  1  0  0  0  0
  8 11  2  0  0  0  0
  9 13  1  0  0  0  0
  9 14  1  0  0  0  0
  9 15  1  0  0  0  0
 10 16  1  0  0  0  0
 10 17  1  0  0  0  0
 10 18  1  0  0  0  0
 19 20  1  0  0  0  0
 20 21  1  0  0  0  0
 20 22  1  0  0  0  0
 20 23  1  0  0  0  0
 23 24  4  0  0  0  0
 23 28  4  0  0  0  0
 24 25  4  0  0  0  0
 24 29  1  0  0  0  0
 25 26  4  0  0  0  0
 25 30  1  0  0  0  0
 26 27  4  0  0  0  0
 26 31  1  0  0  0  0
 27 28  4  0  0  0  0
 27 32  1  0  0  0  0
 28 33  1  0  0  0  0
 29 34  1  0  0  0  0
 29 35  1  0  0  0  0
M  END
> <BCLConfClusterSize>
1

> <ConfClashScore>
0.000557703 

> <ConfOneFourInteractionScore>
-0.971709 

> <ConfScore>
0.494153 

> <ConfScorePBest>
0.00455855 

> <ConfTolerance>
0.688228 

> <RosettaParamsInstructions>
M  ROOT 3
M  POLY_N_BB 3
M  POLY_CA_BB 4
M  POLY_C_BB 2
M  POLY_O_BB 5
M  POLY_IGNORE 9 10 11 12 13 14 15 16 17 18 
M  POLY_UPPER 6
M  POLY_LOWER 8
M  POLY_CHG 0
M  POLY_PROPERTIES ALPHA_AA D_AA PROTEIN AROMATIC POLYMER 
M  END

$$$$



 35 35  0  0  0  0  0  0  0  0999 V2000
   -0.8798    4.4913   -1.5611 H   0  0  0  1  0  0  0  0  0  0  0  0
    0.5171    3.6395   -0.2316 C   0  0  0  1  0  0  0  0  0  0  0  0
   -1.8753    4.2581    0.2287 N   0  0  0  1  0  0  0  0  0  0  0  0
   -0.9044    3.7931   -0.7506 C   0  0  0  1  0  0  0  0  0  0  0  0
    0.7408    3.1095    0.8550 O   0  0  0  1  0  0  0  0  0  0  0  0
    1.4627    4.1889   -0.9991 N   0  0  0  1  0  0  0  0  0  0  0  0
   -2.2263    3.6214    0.8858 H   0  0  0  1  0  0  0  0  0  0  0  0
   -2.3089    5.5353    0.2634 C   0  0  0  1  0  0  0  0  0  0  0  0
    2.8497    4.1942   -0.5586 C   0  0  0  1  0  0  0  0  0  0  0  0
   -3.2783    5.9294    1.3607 C   0  0  0  1  0  0  0  0  0  0  0  0
   -1.9304    6.3578   -0.5696 O   0  0  0  1  0  0  0  0  0  0  0  0
    1.2217    4.5892   -1.8606 H   0  0  0  1  0  0  0  0  0  0  0  0
    3.4891    3.9800   -1.3893 H   0  0  0  1  0  0  0  0  0  0  0  0
    2.9863    3.4497    0.1976 H   0  0  0  1  0  0  0  0  0  0  0  0
    3.0934    5.1569   -0.1602 H   0  0  0  1  0  0  0  0  0  0  0  0
   -3.8403    6.7853    1.0503 H   0  0  0  1  0  0  0  0  0  0  0  0
   -2.7327    6.1648    2.2506 H   0  0  0  1  0  0  0  0  0  0  0  0
   -3.9458    5.1162    1.5556 H   0  0  0  1  0  0  0  0  0  0  0  0
   -0.7736    3.4537   -3.5631 F   0  0  0  1  0  0  0  0  0  0  0  0
   -2.0059    3.8197   -3.9203 C   0  0  0  1  0  0  0  0  0  0  0  0
   -2.0775    5.1386   -3.7338 F   0  0  0  1  0  0  0  0  0  0  0  0
   -2.1180    3.5986   -5.2307 F   0  0  0  1  0  0  0  0  0  0  0  0
   -3.0556    3.0896   -3.1079 C   0  0  0  1  0  0  0  0  0  0  0  0
   -2.7613    2.4616   -1.9076 C   0  0  0  1  0  0  0  0  0  0  0  0
   -3.7570    1.8048   -1.2093 C   0  0  0  1  0  0  0  0  0  0  0  0
   -5.0507    1.7787   -1.7062 C   0  0  0  1  0  0  0  0  0  0  0  0
   -5.3439    2.4049   -2.9029 C   0  0  0  1  0  0  0  0  0  0  0  0
   -4.3456    3.0636   -3.6035 C   0  0  0  1  0  0  0  0  0  0  0  0
   -1.3725    2.4612   -1.3139 C   0  0  0  1  0  0  0  0  0  0  0  0
   -3.5354    1.3302   -0.3108 H   0  0  0  1  0  0  0  0  0  0  0  0
   -5.8007    1.2879   -1.1786 H   0  0  0  1  0  0  0  0  0  0  0  0
   -6.3137    2.3819   -3.2778 H   0  0  0  1  0  0  0  0  0  0  0  0
   -4.5672    3.5383   -4.5020 H   0  0  0  1  0  0  0  0  0  0  0  0
   -1.3525    1.7424   -0.5215 H   0  0  0  1  0  0  0  0  0  0  0  0
   -0.6860    2.1673   -2.0802 H   0  0  0  1  0  0  0  0  0  0  0  0
  1  4  1  0  0  0  0
  2  4  1  0  0  0  0
  2  5  2  0  0  0  0
  2  6  1  0  0  0  0
  3  4  1  0  0  0  0
  3  7  1  0  0  0  0
  3  8  1  0  0  0  0
  4 29  1  0  0  0  0
  6  9  1  0  0  0  0
  6 12  1  0  0  0  0
  8 10  1  0  0  0  0
  8 11  2  0  0  0  0
  9 13  1  0  0  0  0
  9 14  1  0  0  0  0
  9 15  1  0  0  0  0
 10 16  1  0  0  0  0
 10 17  1  0  0  0  0
 10 18  1  0  0  0  0
 19 20  1  0  0  0  0
 20 21  1  0  0  0  0
 20 22  1  0  0  0  0
 20 23  1  0  0  0  0
 23 24  4  0  0  0  0
 23 28  4  0  0  0  0
 24 25  4  0  0  0  0
 24 29  1  0  0  0  0
 25 26  4  0  0  0  0
 25 30  1  0  0  0  0
 26 27  4  0  0  0  0
 26 31  1  0  0  0  0
 27 28  4  0  0  0  0
 27 32  1  0  0  0  0
 28 33  1  0  0  0  0
 29 34  1  0  0  0  0
 29 35  1  0  0  0  0
M  END
> <BCLConfClusterSize>
1

> <ConfClashScore>
0 

> <ConfOneFourInteractionScore>
-0.985807 

> <ConfScore>
0.494551 

> <ConfScorePBest>
0.00453007 

> <ConfTolerance>
0.807488 

> <RosettaParamsInstructions>
M  ROOT 3
M  POLY_N_BB 3
M  POLY_CA_BB 4
M  POLY_C_BB 2
M  POLY_O_BB 5
M  POLY_IGNORE 9 10 11 12 13 14 15 16 17 18 
M  POLY_UPPER 6
M  POLY_LOWER 8
M  POLY_CHG 0
M  POLY_PROPERTIES ALPHA_AA D_AA PROTEIN AROMATIC POLYMER 
M  END

$$$$



 35 35  0  0  0  0  0  0  0  0999 V2000
   -2.0136    4.0143    0.5600 H   0  0  0  1  0  0  0  0  0  0  0  0
   -2.2400    5.3647   -0.9937 C   0  0  0  1  0  0  0  0  0  0  0  0
   -0.1144    4.6063    0.0821 N   0  0  0  1  0  0  0  0  0  0  0  0
   -1.4816    4.2215   -0.3450 C   0  0  0  1  0  0  0  0  0  0  0  0
   -3.3340    5.1895   -1.5045 O   0  0  0  1  0  0  0  0  0  0  0  0
   -1.6301    6.5595   -0.9646 N   0  0  0  1  0  0  0  0  0  0  0  0
    0.1014    4.5281    1.0349 H   0  0  0  1  0  0  0  0  0  0  0  0
    0.8450    5.0515   -0.7341 C   0  0  0  1  0  0  0  0  0  0  0  0
   -2.1965    7.6868   -1.6899 C   0  0  0  1  0  0  0  0  0  0  0  0
    2.1575    5.4184   -0.0694 C   0  0  0  1  0  0  0  0  0  0  0  0
    0.6921    5.1631   -1.9476 O   0  0  0  1  0  0  0  0  0  0  0  0
   -0.8015    6.6732   -0.4538 H   0  0  0  1  0  0  0  0  0  0  0  0
   -2.2600    7.4464   -2.7306 H   0  0  0  1  0  0  0  0  0  0  0  0
   -1.5708    8.5450   -1.5598 H   0  0  0  1  0  0  0  0  0  0  0  0
   -3.1753    7.8979   -1.3126 H   0  0  0  1  0  0  0  0  0  0  0  0
    1.9832    6.1640    0.6780 H   0  0  0  1  0  0  0  0  0  0  0  0
    2.8343    5.8017   -0.8042 H   0  0  0  1  0  0  0  0  0  0  0  0
    2.5813    4.5484    0.3872 H   0  0  0  1  0  0  0  0  0  0  0  0
   -2.4873    4.6873   -4.7735 F   0  0  0  1  0  0  0  0  0  0  0  0
   -1.9922    3.8053   -3.9034 C   0  0  0  1  0  0  0  0  0  0  0  0
   -1.2334    2.9681   -4.6124 F   0  0  0  1  0  0  0  0  0  0  0  0
   -1.1604    4.4861   -3.1140 F   0  0  0  1  0  0  0  0  0  0  0  0
   -3.0723    3.0904   -3.1264 C   0  0  0  1  0  0  0  0  0  0  0  0
   -2.8323    2.6763   -1.8254 C   0  0  0  1  0  0  0  0  0  0  0  0
   -3.8193    2.0174   -1.1169 C   0  0  0  1  0  0  0  0  0  0  0  0
   -5.0509    1.7754   -1.7052 C   0  0  0  1  0  0  0  0  0  0  0  0
   -5.2900    2.1883   -3.0023 C   0  0  0  1  0  0  0  0  0  0  0  0
   -4.3003    2.8491   -3.7131 C   0  0  0  1  0  0  0  0  0  0  0  0
   -1.5131    2.9167   -1.1302 C   0  0  0  1  0  0  0  0  0  0  0  0
   -3.6379    1.7032   -0.1422 H   0  0  0  1  0  0  0  0  0  0  0  0
   -5.7949    1.2832   -1.1706 H   0  0  0  1  0  0  0  0  0  0  0  0
   -6.2126    2.0032   -3.4451 H   0  0  0  1  0  0  0  0  0  0  0  0
   -4.4817    3.1633   -4.6878 H   0  0  0  1  0  0  0  0  0  0  0  0
   -1.3323    2.1077   -0.4536 H   0  0  0  1  0  0  0  0  0  0  0  0
   -0.7392    2.9448   -1.8685 H   0  0  0  1  0  0  0  0  0  0  0  0
  1  4  1  0  0  0  0
  2  4  1  0  0  0  0
  2  5  2  0  0  0  0
  2  6  1  0  0  0  0
  3  4  1  0  0  0  0
  3  7  1  0  0  0  0
  3  8  1  0  0  0  0
  4 29  1  0  0  0  0
  6  9  1  0  0  0  0
  6 12  1  0  0  0  0
  8 10  1  0  0  0  0
  8 11  2  0  0  0  0
  9 13  1  0  0  0  0
  9 14  1  0  0  0  0
  9 15  1  0  0  0  0
 10 16  1  0  0  0  0
 10 17  1  0  0  0  0
 10 18  1  0  0  0  0
 19 20  1  0  0  0  0
 20 21  1  0  0  0  0
 20 22  1  0  0  0  0
 20 23  1  0  0  0  0
 23 24  4  0  0  0  0
 23 28  4  0  0  0  0
 24 25  4  0  0  0  0
 24 29  1  0  0  0  0
 25 26  4  0  0  0  0
 25 30  1  0  0  0  0
 26 27  4  0  0  0  0
 26 31  1  0  0  0  0
 27 28  4  0  0  0  0
 27 32  1  0  0  0  0
 28 33  1  0  0  0  0
 29 34  1  0  0  0  0
 29 35  1  0  0  0  0
M  END
> <BCLConfClusterSize>
1

> <ConfClashScore>
0 

> <ConfOneFourInteractionScore>
-0.946798 

> <ConfScore>
0.495974 

> <ConfScorePBest>
0.00450159 

> <ConfTolerance>
0.569424 

> <RosettaParamsInstructions>
M  ROOT 3
M  POLY_N_BB 3
M  POLY_CA_BB 4
M  POLY_C_BB 2
M  POLY_O_BB 5
M  POLY_IGNORE 9 10 11 12 13 14 15 16 17 18 
M  POLY_UPPER 6
M  POLY_LOWER 8
M  POLY_CHG 0
M  POLY_PROPERTIES ALPHA_AA D_AA PROTEIN AROMATIC POLYMER 
M  END

$$$$



 35 35  0  0  0  0  0  0  0  0999 V2000
   -1.0972    0.7170   -0.8789 H   0  0  0  1  0  0  0  0  0  0  0  0
    0.7391    1.6489   -0.5017 C   0  0  0  1  0  0  0  0  0  0  0  0
   -0.2993    1.1820   -2.7129 N   0  0  0  1  0  0  0  0  0  0  0  0
   -0.5380    1.5203   -1.3112 C   0  0  0  1  0  0  0  0  0  0  0  0
    1.7984    1.9814   -1.0297 O   0  0  0  1  0  0  0  0  0  0  0  0
    0.6294    1.3792    0.8022 N   0  0  0  1  0  0  0  0  0  0  0  0
    0.2418    1.7885   -3.2603 H   0  0  0  1  0  0  0  0  0  0  0  0
   -0.7981    0.0637   -3.2794 C   0  0  0  1  0  0  0  0  0  0  0  0
    1.7763    1.3922    1.6979 C   0  0  0  1  0  0  0  0  0  0  0  0
   -0.3909   -0.2560   -4.7046 C   0  0  0  1  0  0  0  0  0  0  0  0
   -1.5610   -0.6765   -2.6600 O   0  0  0  1  0  0  0  0  0  0  0  0
   -0.2541    1.1652    1.1683 H   0  0  0  1  0  0  0  0  0  0  0  0
    1.9055    2.3758    2.0987 H   0  0  0  1  0  0  0  0  0  0  0  0
    2.6548    1.1098    1.1562 H   0  0  0  1  0  0  0  0  0  0  0  0
    1.6120    0.7003    2.4974 H   0  0  0  1  0  0  0  0  0  0  0  0
   -0.7616   -1.2230   -4.9736 H   0  0  0  1  0  0  0  0  0  0  0  0
    0.6764   -0.2497   -4.7802 H   0  0  0  1  0  0  0  0  0  0  0  0
   -0.8001    0.4792   -5.3656 H   0  0  0  1  0  0  0  0  0  0  0  0
   -0.9641    3.0173   -4.2160 F   0  0  0  1  0  0  0  0  0  0  0  0
   -1.9897    3.8054   -3.8889 C   0  0  0  1  0  0  0  0  0  0  0  0
   -1.4778    4.8495   -3.2354 F   0  0  0  1  0  0  0  0  0  0  0  0
   -2.4345    4.3017   -5.0441 F   0  0  0  1  0  0  0  0  0  0  0  0
   -3.0726    3.0894   -3.1169 C   0  0  0  1  0  0  0  0  0  0  0  0
   -2.8047    2.5814   -1.8552 C   0  0  0  1  0  0  0  0  0  0  0  0
   -3.7946    1.9216   -1.1516 C   0  0  0  1  0  0  0  0  0  0  0  0
   -5.0567    1.7726   -1.7051 C   0  0  0  1  0  0  0  0  0  0  0  0
   -5.3237    2.2792   -2.9630 C   0  0  0  1  0  0  0  0  0  0  0  0
   -4.3310    2.9409   -3.6689 C   0  0  0  1  0  0  0  0  0  0  0  0
   -1.4314    2.7484   -1.2490 C   0  0  0  1  0  0  0  0  0  0  0  0
   -3.5926    1.5369   -0.2067 H   0  0  0  1  0  0  0  0  0  0  0  0
   -5.8027    1.2797   -1.1739 H   0  0  0  1  0  0  0  0  0  0  0  0
   -6.2694    2.1639   -3.3800 H   0  0  0  1  0  0  0  0  0  0  0  0
   -4.5331    3.3256   -4.6137 H   0  0  0  1  0  0  0  0  0  0  0  0
   -0.9364    3.5432   -1.7668 H   0  0  0  1  0  0  0  0  0  0  0  0
   -1.5550    3.0149   -0.2201 H   0  0  0  1  0  0  0  0  0  0  0  0
  1  4  1  0  0  0  0
  2  4  1  0  0  0  0
  2  5  2  0  0  0  0
  2  6  1  0  0  0  0
  3  4  1  0  0  0  0
  3  7  1  0  0  0  0
  3  8  1  0  0  0  0
  4 29  1  0  0  0  0
  6  9  1  0  0  0  0
  6 12  1  0  0  0  0
  8 10  1  0  0  0  0
  8 11  2  0  0  0  0
  9 13  1  0  0  0  0
  9 14  1  0  0  0  0
  9 15  1  0  0  0  0
 10 16  1  0  0  0  0
 10 17  1  0  0  0  0
 10 18  1  0  0  0  0
 19 20  1  0  0  0  0
 20 21  1  0  0  0  0
 20 22  1  0  0  0  0
 20 23  1  0  0  0  0
 23 24  4  0  0  0  0
 23 28  4  0  0  0  0
 24 25  4  0  0  0  0
 24 29  1  0  0  0  0
 25 26  4  0  0  0  0
 25 30  1  0  0  0  0
 26 27  4  0  0  0  0
 26 31  1  0  0  0  0
 27 28  4  0  0  0  0
 27 32  1  0  0  0  0
 28 33  1  0  0  0  0
 29 34  1  0  0  0  0
 29 35  1  0  0  0  0
M  END
> <BCLConfClusterSize>
1

> <ConfClashScore>
0 

> <ConfOneFourInteractionScore>
-0.985807 

> <ConfScore>
0.499691 

> <ConfScorePBest>
0.00447311 

> <ConfTolerance>
0.635043 

> <RosettaParamsInstructions>
M  ROOT 3
M  POLY_N_BB 3
M  POLY_CA_BB 4
M  POLY_C_BB 2
M  POLY_O_BB 5
M  POLY_IGNORE 9 10 11 12 13 14 15 16 17 18 
M  POLY_UPPER 6
M  POLY_LOWER 8
M  POLY_CHG 0
M  POLY_PROPERTIES ALPHA_AA D_AA PROTEIN AROMATIC POLYMER 
M  END

$$$$



 35 35  0  0  0  0  0  0  0  0999 V2000
   -0.6490    4.3627   -2.0867 H   0  0  0  1  0  0  0  0  0  0  0  0
    0.4102    3.9756   -0.3079 C   0  0  0  1  0  0  0  0  0  0  0  0
   -1.8644    4.8126   -0.4748 N   0  0  0  1  0  0  0  0  0  0  0  0
   -0.8666    3.9648   -1.1176 C   0  0  0  1  0  0  0  0  0  0  0  0
    1.0221    2.9349   -0.0826 O   0  0  0  1  0  0  0  0  0  0  0  0
    0.8512    5.1493    0.1539 N   0  0  0  1  0  0  0  0  0  0  0  0
   -2.1889    5.6053   -0.9510 H   0  0  0  1  0  0  0  0  0  0  0  0
   -2.3561    4.5435    0.7524 C   0  0  0  1  0  0  0  0  0  0  0  0
    2.0697    5.2668    0.9408 C   0  0  0  1  0  0  0  0  0  0  0  0
   -3.3937    5.4879    1.3274 C   0  0  0  1  0  0  0  0  0  0  0  0
   -1.9755    3.5614    1.3882 O   0  0  0  1  0  0  0  0  0  0  0  0
    0.3361    5.9591   -0.0442 H   0  0  0  1  0  0  0  0  0  0  0  0
    2.1788    4.4022    1.5616 H   0  0  0  1  0  0  0  0  0  0  0  0
    2.0147    6.1416    1.5545 H   0  0  0  1  0  0  0  0  0  0  0  0
    2.9116    5.3431    0.2848 H   0  0  0  1  0  0  0  0  0  0  0  0
   -4.0295    5.8407    0.5425 H   0  0  0  1  0  0  0  0  0  0  0  0
   -2.9024    6.3190    1.7888 H   0  0  0  1  0  0  0  0  0  0  0  0
   -3.9813    4.9705    2.0567 H   0  0  0  1  0  0  0  0  0  0  0  0
   -0.7894    3.2752   -3.7172 F   0  0  0  1  0  0  0  0  0  0  0  0
   -1.9957    3.8154   -3.8988 C   0  0  0  1  0  0  0  0  0  0  0  0
   -1.8856    5.0986   -3.5513 F   0  0  0  1  0  0  0  0  0  0  0  0
   -2.2167    3.8021   -5.2139 F   0  0  0  1  0  0  0  0  0  0  0  0
   -3.0743    3.0965   -3.1234 C   0  0  0  1  0  0  0  0  0  0  0  0
   -2.7755    2.5030   -1.9068 C   0  0  0  1  0  0  0  0  0  0  0  0
   -3.7617    1.8407   -1.2005 C   0  0  0  1  0  0  0  0  0  0  0  0
   -5.0508    1.7744   -1.7059 C   0  0  0  1  0  0  0  0  0  0  0  0
   -5.3485    2.3662   -2.9189 C   0  0  0  1  0  0  0  0  0  0  0  0
   -4.3595    3.0305   -3.6275 C   0  0  0  1  0  0  0  0  0  0  0  0
   -1.3915    2.5471   -1.3033 C   0  0  0  1  0  0  0  0  0  0  0  0
   -3.5367    1.3919   -0.2897 H   0  0  0  1  0  0  0  0  0  0  0  0
   -5.7938    1.2795   -1.1725 H   0  0  0  1  0  0  0  0  0  0  0  0
   -6.3147    2.3131   -3.3001 H   0  0  0  1  0  0  0  0  0  0  0  0
   -4.5846    3.4792   -4.5384 H   0  0  0  1  0  0  0  0  0  0  0  0
   -1.4213    2.0670   -0.3475 H   0  0  0  1  0  0  0  0  0  0  0  0
   -0.7217    2.0177   -1.9482 H   0  0  0  1  0  0  0  0  0  0  0  0
  1  4  1  0  0  0  0
  2  4  1  0  0  0  0
  2  5  2  0  0  0  0
  2  6  1  0  0  0  0
  3  4  1  0  0  0  0
  3  7  1  0  0  0  0
  3  8  1  0  0  0  0
  4 29  1  0  0  0  0
  6  9  1  0  0  0  0
  6 12  1  0  0  0  0
  8 10  1  0  0  0  0
  8 11  2  0  0  0  0
  9 13  1  0  0  0  0
  9 14  1  0  0  0  0
  9 15  1  0  0  0  0
 10 16  1  0  0  0  0
 10 17  1  0  0  0  0
 10 18  1  0  0  0  0
 19 20  1  0  0  0  0
 20 21  1  0  0  0  0
 20 22  1  0  0  0  0
 20 23  1  0  0  0  0
 23 24  4  0  0  0  0
 23 28  4  0  0  0  0
 24 25  4  0  0  0  0
 24 29  1  0  0  0  0
 25 26  4  0  0  0  0
 25 30  1  0  0  0  0
 26 27  4  0  0  0  0
 26 31  1  0  0  0  0
 27 28  4  0  0  0  0
 27 32  1  0  0  0  0
 28 33  1  0  0  0  0
 29 34  1  0  0  0  0
 29 35  1  0  0  0  0
M  END
> <BCLConfClusterSize>
1

> <ConfClashScore>
0 

> <ConfOneFourInteractionScore>
-0.957364 

> <ConfScore>
0.501047 

> <ConfScorePBest>
0.00444463 

> <ConfTolerance>
0.689572 

> <RosettaParamsInstructions>
M  ROOT 3
M  POLY_N_BB 3
M  POLY_CA_BB 4
M  POLY_C_BB 2
M  POLY_O_BB 5
M  POLY_IGNORE 9 10 11 12 13 14 15 16 17 18 
M  POLY_UPPER 6
M  POLY_LOWER 8
M  POLY_CHG 0
M  POLY_PROPERTIES ALPHA_AA D_AA PROTEIN AROMATIC POLYMER 
M  END

$$$$



 35 35  0  0  0  0  0  0  0  0999 V2000
   -0.0480    4.0264   -1.1234 H   0  0  0  1  0  0  0  0  0  0  0  0
   -0.6201    3.3611    0.7907 C   0  0  0  1  0  0  0  0  0  0  0  0
   -2.0011    4.6216   -0.8182 N   0  0  0  1  0  0  0  0  0  0  0  0
   -0.9344    3.6384   -0.6666 C   0  0  0  1  0  0  0  0  0  0  0  0
   -0.9254    4.1605    1.6718 O   0  0  0  1  0  0  0  0  0  0  0  0
    0.0044    2.1997    1.0418 N   0  0  0  1  0  0  0  0  0  0  0  0
   -1.9199    5.3317   -1.4888 H   0  0  0  1  0  0  0  0  0  0  0  0
   -3.0869    4.5563   -0.0462 C   0  0  0  1  0  0  0  0  0  0  0  0
    0.5797    1.8956    2.3329 C   0  0  0  1  0  0  0  0  0  0  0  0
   -4.1265    5.6354   -0.2789 C   0  0  0  1  0  0  0  0  0  0  0  0
   -3.2516    3.6854    0.8040 O   0  0  0  1  0  0  0  0  0  0  0  0
    0.0728    1.5348    0.3251 H   0  0  0  1  0  0  0  0  0  0  0  0
    0.5502    0.8386    2.4970 H   0  0  0  1  0  0  0  0  0  0  0  0
    0.0195    2.3909    3.0983 H   0  0  0  1  0  0  0  0  0  0  0  0
    1.5950    2.2321    2.3589 H   0  0  0  1  0  0  0  0  0  0  0  0
   -4.2179    6.2387    0.6000 H   0  0  0  1  0  0  0  0  0  0  0  0
   -5.0696    5.1802   -0.4985 H   0  0  0  1  0  0  0  0  0  0  0  0
   -3.8254    6.2486   -1.1024 H   0  0  0  1  0  0  0  0  0  0  0  0
   -1.2184    4.6095   -3.1798 F   0  0  0  1  0  0  0  0  0  0  0  0
   -1.9981    3.8081   -3.9076 C   0  0  0  1  0  0  0  0  0  0  0  0
   -2.5078    4.5663   -4.8796 F   0  0  0  1  0  0  0  0  0  0  0  0
   -1.1834    2.9341   -4.5033 F   0  0  0  1  0  0  0  0  0  0  0  0
   -3.0702    3.1300   -3.0772 C   0  0  0  1  0  0  0  0  0  0  0  0
   -2.7566    2.4096   -1.9351 C   0  0  0  1  0  0  0  0  0  0  0  0
   -3.7469    1.7246   -1.2567 C   0  0  0  1  0  0  0  0  0  0  0  0
   -5.0545    1.7622   -1.7152 C   0  0  0  1  0  0  0  0  0  0  0  0
   -5.3670    2.4805   -2.8539 C   0  0  0  1  0  0  0  0  0  0  0  0
   -4.3740    3.1676   -3.5344 C   0  0  0  1  0  0  0  0  0  0  0  0
   -1.3330    2.3729   -1.4316 C   0  0  0  1  0  0  0  0  0  0  0  0
   -3.5110    1.1808   -0.4022 H   0  0  0  1  0  0  0  0  0  0  0  0
   -5.8004    1.2500   -1.2024 H   0  0  0  1  0  0  0  0  0  0  0  0
   -6.3474    2.5055   -3.2002 H   0  0  0  1  0  0  0  0  0  0  0  0
   -4.6099    3.7114   -4.3890 H   0  0  0  1  0  0  0  0  0  0  0  0
   -1.2242    1.5320   -0.7791 H   0  0  0  1  0  0  0  0  0  0  0  0
   -0.6779    2.2614   -2.2703 H   0  0  0  1  0  0  0  0  0  0  0  0
  1  4  1  0  0  0  0
  2  4  1  0  0  0  0
  2  5  2  0  0  0  0
  2  6  1  0  0  0  0
  3  4  1  0  0  0  0
  3  7  1  0  0  0  0
  3  8  1  0  0  0  0
  4 29  1  0  0  0  0
  6  9  1  0  0  0  0
  6 12  1  0  0  0  0
  8 10  1  0  0  0  0
  8 11  2  0  0  0  0
  9 13  1  0  0  0  0
  9 14  1  0  0  0  0
  9 15  1  0  0  0  0
 10 16  1  0  0  0  0
 10 17  1  0  0  0  0
 10 18  1  0  0  0  0
 19 20  1  0  0  0  0
 20 21  1  0  0  0  0
 20 22  1  0  0  0  0
 20 23  1  0  0  0  0
 23 24  4  0  0  0  0
 23 28  4  0  0  0  0
 24 25  4  0  0  0  0
 24 29  1  0  0  0  0
 25 26  4  0  0  0  0
 25 30  1  0  0  0  0
 26 27  4  0  0  0  0
 26 31  1  0  0  0  0
 27 28  4  0  0  0  0
 27 32  1  0  0  0  0
 28 33  1  0  0  0  0
 29 34  1  0  0  0  0
 29 35  1  0  0  0  0
M  END
> <BCLConfClusterSize>
1

> <ConfClashScore>
0 

> <ConfOneFourInteractionScore>
-0.910684 

> <ConfScore>
0.502077 

> <ConfScorePBest>
0.00441614 

> <ConfTolerance>
0.67655 

> <RosettaParamsInstructions>
M  ROOT 3
M  POLY_N_BB 3
M  POLY_CA_BB 4
M  POLY_C_BB 2
M  POLY_O_BB 5
M  POLY_IGNORE 9 10 11 12 13 14 15 16 17 18 
M  POLY_UPPER 6
M  POLY_LOWER 8
M  POLY_CHG 0
M  POLY_PROPERTIES ALPHA_AA D_AA PROTEIN AROMATIC POLYMER 
M  END

$$$$



 35 35  0  0  0  0  0  0  0  0999 V2000
   -0.0367    2.9415    0.0993 H   0  0  0  1  0  0  0  0  0  0  0  0
   -1.6778    1.9373    0.9530 C   0  0  0  1  0  0  0  0  0  0  0  0
   -1.6204    4.2541    0.1043 N   0  0  0  1  0  0  0  0  0  0  0  0
   -1.0941    2.9088   -0.0615 C   0  0  0  1  0  0  0  0  0  0  0  0
   -1.1374    0.8551    1.1730 O   0  0  0  1  0  0  0  0  0  0  0  0
   -2.8040    2.2987    1.6021 N   0  0  0  1  0  0  0  0  0  0  0  0
   -1.9149    4.7479   -0.6893 H   0  0  0  1  0  0  0  0  0  0  0  0
   -1.7166    4.8404    1.3010 C   0  0  0  1  0  0  0  0  0  0  0  0
   -3.4650    1.3602    2.4967 C   0  0  0  1  0  0  0  0  0  0  0  0
   -2.2965    6.2399    1.3681 C   0  0  0  1  0  0  0  0  0  0  0  0
   -1.3624    4.3125    2.3543 O   0  0  0  1  0  0  0  0  0  0  0  0
   -3.1777    3.1951    1.4709 H   0  0  0  1  0  0  0  0  0  0  0  0
   -3.3703    0.3682    2.1070 H   0  0  0  1  0  0  0  0  0  0  0  0
   -4.5013    1.6141    2.5771 H   0  0  0  1  0  0  0  0  0  0  0  0
   -3.0093    1.4083    3.4636 H   0  0  0  1  0  0  0  0  0  0  0  0
   -2.6085    6.5444    0.3910 H   0  0  0  1  0  0  0  0  0  0  0  0
   -1.5521    6.9170    1.7317 H   0  0  0  1  0  0  0  0  0  0  0  0
   -3.1380    6.2456    2.0289 H   0  0  0  1  0  0  0  0  0  0  0  0
   -1.5506    4.9005   -3.2487 F   0  0  0  1  0  0  0  0  0  0  0  0
   -1.9936    3.8141   -3.8839 C   0  0  0  1  0  0  0  0  0  0  0  0
   -2.4081    4.2263   -5.0829 F   0  0  0  1  0  0  0  0  0  0  0  0
   -0.9247    3.0468   -4.1014 F   0  0  0  1  0  0  0  0  0  0  0  0
   -3.0754    3.0943   -3.1136 C   0  0  0  1  0  0  0  0  0  0  0  0
   -2.7606    2.4122   -1.9486 C   0  0  0  1  0  0  0  0  0  0  0  0
   -3.7501    1.7494   -1.2473 C   0  0  0  1  0  0  0  0  0  0  0  0
   -5.0580    1.7712   -1.7057 C   0  0  0  1  0  0  0  0  0  0  0  0
   -5.3717    2.4514   -2.8673 C   0  0  0  1  0  0  0  0  0  0  0  0
   -4.3795    3.1162   -3.5709 C   0  0  0  1  0  0  0  0  0  0  0  0
   -1.3213    2.4254   -1.4907 C   0  0  0  1  0  0  0  0  0  0  0  0
   -3.5132    1.2342   -0.3754 H   0  0  0  1  0  0  0  0  0  0  0  0
   -5.8032    1.2758   -1.1758 H   0  0  0  1  0  0  0  0  0  0  0  0
   -6.3523    2.4644   -3.2134 H   0  0  0  1  0  0  0  0  0  0  0  0
   -4.6164    3.6313   -4.4427 H   0  0  0  1  0  0  0  0  0  0  0  0
   -0.9418    1.4278   -1.5660 H   0  0  0  1  0  0  0  0  0  0  0  0
   -0.7718    3.0670   -2.1475 H   0  0  0  1  0  0  0  0  0  0  0  0
  1  4  1  0  0  0  0
  2  4  1  0  0  0  0
  2  5  2  0  0  0  0
  2  6  1  0  0  0  0
  3  4  1  0  0  0  0
  3  7  1  0  0  0  0
  3  8  1  0  0  0  0
  4 29  1  0  0  0  0
  6  9  1  0  0  0  0
  6 12  1  0  0  0  0
  8 10  1  0  0  0  0
  8 11  2  0  0  0  0
  9 13  1  0  0  0  0
  9 14  1  0  0  0  0
  9 15  1  0  0  0  0
 10 16  1  0  0  0  0
 10 17  1  0  0  0  0
 10 18  1  0  0  0  0
 19 20  1  0  0  0  0
 20 21  1  0  0  0  0
 20 22  1  0  0  0  0
 20 23  1  0  0  0  0
 23 24  4  0  0  0  0
 23 28  4  0  0  0  0
 24 25  4  0  0  0  0
 24 29  1  0  0  0  0
 25 26  4  0  0  0  0
 25 30  1  0  0  0  0
 26 27  4  0  0  0  0
 26 31  1  0  0  0  0
 27 28  4  0  0  0  0
 27 32  1  0  0  0  0
 28 33  1  0  0  0  0
 29 34  1  0  0  0  0
 29 35  1  0  0  0  0
M  END
> <BCLConfClusterSize>
1

> <ConfClashScore>
0.00234988 

> <ConfOneFourInteractionScore>
-0.950605 

> <ConfScore>
0.505462 

> <ConfScorePBest>
0.00438766 

> <ConfTolerance>
0.414604 

> <RosettaParamsInstructions>
M  ROOT 3
M  POLY_N_BB 3
M  POLY_CA_BB 4
M  POLY_C_BB 2
M  POLY_O_BB 5
M  POLY_IGNORE 9 10 11 12 13 14 15 16 17 18 
M  POLY_UPPER 6
M  POLY_LOWER 8
M  POLY_CHG 0
M  POLY_PROPERTIES ALPHA_AA D_AA PROTEIN AROMATIC POLYMER 
M  END

$$$$



 35 35  0  0  0  0  0  0  0  0999 V2000
   -1.1005    0.3792   -1.9859 H   0  0  0  1  0  0  0  0  0  0  0  0
   -1.0700    0.4537    0.1240 C   0  0  0  1  0  0  0  0  0  0  0  0
    0.7309    1.1400   -1.4023 N   0  0  0  1  0  0  0  0  0  0  0  0
   -0.7089    1.0293   -1.2316 C   0  0  0  1  0  0  0  0  0  0  0  0
   -2.0587   -0.2599    0.2705 O   0  0  0  1  0  0  0  0  0  0  0  0
   -0.2449    0.7756    1.1328 N   0  0  0  1  0  0  0  0  0  0  0  0
    1.1238    1.9853   -1.7048 H   0  0  0  1  0  0  0  0  0  0  0  0
    1.5225    0.0874   -1.1465 C   0  0  0  1  0  0  0  0  0  0  0  0
   -0.3691    0.1078    2.4198 C   0  0  0  1  0  0  0  0  0  0  0  0
    2.9948    0.2804   -1.4536 C   0  0  0  1  0  0  0  0  0  0  0  0
    1.0990   -0.9745   -0.6919 O   0  0  0  1  0  0  0  0  0  0  0  0
    0.4426    1.4617    1.0022 H   0  0  0  1  0  0  0  0  0  0  0  0
   -1.3906    0.1319    2.7375 H   0  0  0  1  0  0  0  0  0  0  0  0
    0.2407    0.6095    3.1419 H   0  0  0  1  0  0  0  0  0  0  0  0
   -0.0488   -0.9088    2.3263 H   0  0  0  1  0  0  0  0  0  0  0  0
    3.1040    0.6912   -2.4355 H   0  0  0  1  0  0  0  0  0  0  0  0
    3.4959   -0.6637   -1.4045 H   0  0  0  1  0  0  0  0  0  0  0  0
    3.4235    0.9499   -0.7374 H   0  0  0  1  0  0  0  0  0  0  0  0
   -1.3409    4.7061   -3.1547 F   0  0  0  1  0  0  0  0  0  0  0  0
   -1.9950    3.8124   -3.8987 C   0  0  0  1  0  0  0  0  0  0  0  0
   -2.4782    4.4819   -4.9464 F   0  0  0  1  0  0  0  0  0  0  0  0
   -1.0711    2.9802   -4.3809 F   0  0  0  1  0  0  0  0  0  0  0  0
   -3.0737    3.0931   -3.1239 C   0  0  0  1  0  0  0  0  0  0  0  0
   -2.7495    2.3862   -1.9764 C   0  0  0  1  0  0  0  0  0  0  0  0
   -3.7363    1.7238   -1.2710 C   0  0  0  1  0  0  0  0  0  0  0  0
   -5.0510    1.7708   -1.7078 C   0  0  0  1  0  0  0  0  0  0  0  0
   -5.3742    2.4756   -2.8519 C   0  0  0  1  0  0  0  0  0  0  0  0
   -4.3846    3.1400   -3.5596 C   0  0  0  1  0  0  0  0  0  0  0  0
   -1.3492    2.3962   -1.4102 C   0  0  0  1  0  0  0  0  0  0  0  0
   -3.4925    1.1901   -0.4123 H   0  0  0  1  0  0  0  0  0  0  0  0
   -5.7942    1.2757   -1.1747 H   0  0  0  1  0  0  0  0  0  0  0  0
   -6.3599    2.5075   -3.1819 H   0  0  0  1  0  0  0  0  0  0  0  0
   -4.6285    3.6737   -4.4182 H   0  0  0  1  0  0  0  0  0  0  0  0
   -0.7302    2.9669   -2.0705 H   0  0  0  1  0  0  0  0  0  0  0  0
   -1.3838    2.8721   -0.4525 H   0  0  0  1  0  0  0  0  0  0  0  0
  1  4  1  0  0  0  0
  2  4  1  0  0  0  0
  2  5  2  0  0  0  0
  2  6  1  0  0  0  0
  3  4  1  0  0  0  0
  3  7  1  0  0  0  0
  3  8  1  0  0  0  0
  4 29  1  0  0  0  0
  6  9  1  0  0  0  0
  6 12  1  0  0  0  0
  8 10  1  0  0  0  0
  8 11  2  0  0  0  0
  9 13  1  0  0  0  0
  9 14  1  0  0  0  0
  9 15  1  0  0  0  0
 10 16  1  0  0  0  0
 10 17  1  0  0  0  0
 10 18  1  0  0  0  0
 19 20  1  0  0  0  0
 20 21  1  0  0  0  0
 20 22  1  0  0  0  0
 20 23  1  0  0  0  0
 23 24  4  0  0  0  0
 23 28  4  0  0  0  0
 24 25  4  0  0  0  0
 24 29  1  0  0  0  0
 25 26  4  0  0  0  0
 25 30  1  0  0  0  0
 26 27  4  0  0  0  0
 26 31  1  0  0  0  0
 27 28  4  0  0  0  0
 27 32  1  0  0  0  0
 28 33  1  0  0  0  0
 29 34  1  0  0  0  0
 29 35  1  0  0  0  0
M  END
> <BCLConfClusterSize>
1

> <ConfClashScore>
0 

> <ConfOneFourInteractionScore>
-0.940901 

> <ConfScore>
0.507157 

> <ConfScorePBest>
0.00435918 

> <ConfTolerance>
0.881342 

> <RosettaParamsInstructions>
M  ROOT 3
M  POLY_N_BB 3
M  POLY_CA_BB 4
M  POLY_C_BB 2
M  POLY_O_BB 5
M  POLY_IGNORE 9 10 11 12 13 14 15 16 17 18 
M  POLY_UPPER 6
M  POLY_LOWER 8
M  POLY_CHG 0
M  POLY_PROPERTIES ALPHA_AA D_AA PROTEIN AROMATIC POLYMER 
M  END

$$$$



 35 35  0  0  0  0  0  0  0  0999 V2000
   -0.9005    0.8065   -0.5577 H   0  0  0  1  0  0  0  0  0  0  0  0
    0.9263    1.7776   -0.9332 C   0  0  0  1  0  0  0  0  0  0  0  0
   -0.5745    0.8285   -2.6007 N   0  0  0  1  0  0  0  0  0  0  0  0
   -0.5196    1.4887   -1.2887 C   0  0  0  1  0  0  0  0  0  0  0  0
    1.5618    0.8972   -0.3742 O   0  0  0  1  0  0  0  0  0  0  0  0
    1.3881    2.9863   -1.2660 N   0  0  0  1  0  0  0  0  0  0  0  0
   -1.1126    1.2547   -3.3002 H   0  0  0  1  0  0  0  0  0  0  0  0
    0.0528   -0.3071   -2.9111 C   0  0  0  1  0  0  0  0  0  0  0  0
    2.7668    3.3851   -1.0255 C   0  0  0  1  0  0  0  0  0  0  0  0
   -0.1778   -0.8238   -4.3178 C   0  0  0  1  0  0  0  0  0  0  0  0
    0.7749   -0.9096   -2.1212 O   0  0  0  1  0  0  0  0  0  0  0  0
    0.7771    3.6266   -1.6868 H   0  0  0  1  0  0  0  0  0  0  0  0
    3.1371    2.8837   -0.1558 H   0  0  0  1  0  0  0  0  0  0  0  0
    2.8103    4.4432   -0.8725 H   0  0  0  1  0  0  0  0  0  0  0  0
    3.3668    3.1215   -1.8714 H   0  0  0  1  0  0  0  0  0  0  0  0
   -1.0434   -1.4527   -4.3299 H   0  0  0  1  0  0  0  0  0  0  0  0
    0.6755   -1.3858   -4.6355 H   0  0  0  1  0  0  0  0  0  0  0  0
   -0.3283    0.0025   -4.9808 H   0  0  0  1  0  0  0  0  0  0  0  0
   -0.9052    3.0573   -4.0689 F   0  0  0  1  0  0  0  0  0  0  0  0
   -1.9932    3.8094   -3.8940 C   0  0  0  1  0  0  0  0  0  0  0  0
   -1.5825    4.9231   -3.2855 F   0  0  0  1  0  0  0  0  0  0  0  0
   -2.3940    4.1753   -5.1122 F   0  0  0  1  0  0  0  0  0  0  0  0
   -3.0741    3.0921   -3.1203 C   0  0  0  1  0  0  0  0  0  0  0  0
   -2.7965    2.5617   -1.8700 C   0  0  0  1  0  0  0  0  0  0  0  0
   -3.7847    1.9009   -1.1650 C   0  0  0  1  0  0  0  0  0  0  0  0
   -5.0547    1.7732   -1.7056 C   0  0  0  1  0  0  0  0  0  0  0  0
   -5.3313    2.3020   -2.9522 C   0  0  0  1  0  0  0  0  0  0  0  0
   -4.3404    2.9649   -3.6595 C   0  0  0  1  0  0  0  0  0  0  0  0
   -1.4145    2.7056   -1.2777 C   0  0  0  1  0  0  0  0  0  0  0  0
   -3.5754    1.4994   -0.2287 H   0  0  0  1  0  0  0  0  0  0  0  0
   -5.7993    1.2794   -1.1733 H   0  0  0  1  0  0  0  0  0  0  0  0
   -6.2830    2.2027   -3.3596 H   0  0  0  1  0  0  0  0  0  0  0  0
   -4.5497    3.3663   -4.5958 H   0  0  0  1  0  0  0  0  0  0  0  0
   -0.9118    3.4777   -1.8218 H   0  0  0  1  0  0  0  0  0  0  0  0
   -1.5331    3.0065   -0.2578 H   0  0  0  1  0  0  0  0  0  0  0  0
  1  4  1  0  0  0  0
  2  4  1  0  0  0  0
  2  5  2  0  0  0  0
  2  6  1  0  0  0  0
  3  4  1  0  0  0  0
  3  7  1  0  0  0  0
  3  8  1  0  0  0  0
  4 29  1  0  0  0  0
  6  9  1  0  0  0  0
  6 12  1  0  0  0  0
  8 10  1  0  0  0  0
  8 11  2  0  0  0  0
  9 13  1  0  0  0  0
  9 14  1  0  0  0  0
  9 15  1  0  0  0  0
 10 16  1  0  0  0  0
 10 17  1  0  0  0  0
 10 18  1  0  0  0  0
 19 20  1  0  0  0  0
 20 21  1  0  0  0  0
 20 22  1  0  0  0  0
 20 23  1  0  0  0  0
 23 24  4  0  0  0  0
 23 28  4  0  0  0  0
 24 25  4  0  0  0  0
 24 29  1  0  0  0  0
 25 26  4  0  0  0  0
 25 30  1  0  0  0  0
 26 27  4  0  0  0  0
 26 31  1  0  0  0  0
 27 28  4  0  0  0  0
 27 32  1  0  0  0  0
 28 33  1  0  0  0  0
 29 34  1  0  0  0  0
 29 35  1  0  0  0  0
M  END
> <BCLConfClusterSize>
1

> <ConfClashScore>
0 

> <ConfOneFourInteractionScore>
-0.952541 

> <ConfScore>
0.509184 

> <ConfScorePBest>
0.0043307 

> <ConfTolerance>
0.751996 

> <RosettaParamsInstructions>
M  ROOT 3
M  POLY_N_BB 3
M  POLY_CA_BB 4
M  POLY_C_BB 2
M  POLY_O_BB 5
M  POLY_IGNORE 9 10 11 12 13 14 15 16 17 18 
M  POLY_UPPER 6
M  POLY_LOWER 8
M  POLY_CHG 0
M  POLY_PROPERTIES ALPHA_AA D_AA PROTEIN AROMATIC POLYMER 
M  END

$$$$



 35 35  0  0  0  0  0  0  0  0999 V2000
   -0.9381    3.8419    0.4744 H   0  0  0  1  0  0  0  0  0  0  0  0
   -2.5530    4.8818   -0.4259 C   0  0  0  1  0  0  0  0  0  0  0  0
   -0.1113    4.8527   -1.1507 N   0  0  0  1  0  0  0  0  0  0  0  0
   -1.2312    4.0945   -0.5232 C   0  0  0  1  0  0  0  0  0  0  0  0
   -3.5065    4.4504    0.2193 O   0  0  0  1  0  0  0  0  0  0  0  0
   -2.5853    6.0508   -1.0850 N   0  0  0  1  0  0  0  0  0  0  0  0
    0.2224    4.5654   -2.0262 H   0  0  0  1  0  0  0  0  0  0  0  0
    0.4533    5.9103   -0.5608 C   0  0  0  1  0  0  0  0  0  0  0  0
   -3.7009    6.9781   -0.9689 C   0  0  0  1  0  0  0  0  0  0  0  0
    1.5203    6.6233   -1.3684 C   0  0  0  1  0  0  0  0  0  0  0  0
    0.1404    6.2958    0.5648 O   0  0  0  1  0  0  0  0  0  0  0  0
   -1.8314    6.2880   -1.6645 H   0  0  0  1  0  0  0  0  0  0  0  0
   -4.2791    6.7345   -0.1022 H   0  0  0  1  0  0  0  0  0  0  0  0
   -4.3172    6.9052   -1.8405 H   0  0  0  1  0  0  0  0  0  0  0  0
   -3.3266    7.9764   -0.8786 H   0  0  0  1  0  0  0  0  0  0  0  0
    2.1671    5.9015   -1.8218 H   0  0  0  1  0  0  0  0  0  0  0  0
    2.0911    7.2579   -0.7232 H   0  0  0  1  0  0  0  0  0  0  0  0
    1.0556    7.2138   -2.1303 H   0  0  0  1  0  0  0  0  0  0  0  0
   -0.9308    3.0065   -4.0791 F   0  0  0  1  0  0  0  0  0  0  0  0
   -1.9766    3.8112   -3.8825 C   0  0  0  1  0  0  0  0  0  0  0  0
   -1.5422    4.8842   -3.2197 F   0  0  0  1  0  0  0  0  0  0  0  0
   -2.3881    4.2254   -5.0816 F   0  0  0  1  0  0  0  0  0  0  0  0
   -3.0878    3.0984   -3.1401 C   0  0  0  1  0  0  0  0  0  0  0  0
   -2.8003    2.5806   -1.8868 C   0  0  0  1  0  0  0  0  0  0  0  0
   -3.7796    1.9169   -1.1721 C   0  0  0  1  0  0  0  0  0  0  0  0
   -5.0507    1.7737   -1.7063 C   0  0  0  1  0  0  0  0  0  0  0  0
   -5.3372    2.2900   -2.9558 C   0  0  0  1  0  0  0  0  0  0  0  0
   -4.3552    2.9557   -3.6728 C   0  0  0  1  0  0  0  0  0  0  0  0
   -1.4171    2.7414   -1.3016 C   0  0  0  1  0  0  0  0  0  0  0  0
   -3.5628    1.5249   -0.2336 H   0  0  0  1  0  0  0  0  0  0  0  0
   -5.7886    1.2778   -1.1667 H   0  0  0  1  0  0  0  0  0  0  0  0
   -6.2897    2.1790   -3.3583 H   0  0  0  1  0  0  0  0  0  0  0  0
   -4.5720    3.3477   -4.6113 H   0  0  0  1  0  0  0  0  0  0  0  0
   -1.2372    1.9320   -0.6253 H   0  0  0  1  0  0  0  0  0  0  0  0
   -0.7039    2.7062   -2.0985 H   0  0  0  1  0  0  0  0  0  0  0  0
  1  4  1  0  0  0  0
  2  4  1  0  0  0  0
  2  5  2  0  0  0  0
  2  6  1  0  0  0  0
  3  4  1  0  0  0  0
  3  7  1  0  0  0  0
  3  8  1  0  0  0  0
  4 29  1  0  0  0  0
  6  9  1  0  0  0  0
  6 12  1  0  0  0  0
  8 10  1  0  0  0  0
  8 11  2  0  0  0  0
  9 13  1  0  0  0  0
  9 14  1  0  0  0  0
  9 15  1  0  0  0  0
 10 16  1  0  0  0  0
 10 17  1  0  0  0  0
 10 18  1  0  0  0  0
 19 20  1  0  0  0  0
 20 21  1  0  0  0  0
 20 22  1  0  0  0  0
 20 23  1  0  0  0  0
 23 24  4  0  0  0  0
 23 28  4  0  0  0  0
 24 25  4  0  0  0  0
 24 29  1  0  0  0  0
 25 26  4  0  0  0  0
 25 30  1  0  0  0  0
 26 27  4  0  0  0  0
 26 31  1  0  0  0  0
 27 28  4  0  0  0  0
 27 32  1  0  0  0  0
 28 33  1  0  0  0  0
 29 34  1  0  0  0  0
 29 35  1  0  0  0  0
M  END
> <BCLConfClusterSize>
1

> <ConfClashScore>
0 

> <ConfOneFourInteractionScore>
-0.942345 

> <ConfScore>
0.509843 

> <ConfScorePBest>
0.00430222 

> <ConfTolerance>
0.802643 

> <RosettaParamsInstructions>
M  ROOT 3
M  POLY_N_BB 3
M  POLY_CA_BB 4
M  POLY_C_BB 2
M  POLY_O_BB 5
M  POLY_IGNORE 9 10 11 12 13 14 15 16 17 18 
M  POLY_UPPER 6
M  POLY_LOWER 8
M  POLY_CHG 0
M  POLY_PROPERTIES ALPHA_AA D_AA PROTEIN AROMATIC POLYMER 
M  END

$$$$



 35 35  0  0  0  0  0  0  0  0999 V2000
   -0.0513    1.3594   -0.0893 H   0  0  0  1  0  0  0  0  0  0  0  0
   -1.3692   -0.1098   -0.7559 C   0  0  0  1  0  0  0  0  0  0  0  0
   -1.8195    1.6230    0.9204 N   0  0  0  1  0  0  0  0  0  0  0  0
   -1.0938    1.3182   -0.3267 C   0  0  0  1  0  0  0  0  0  0  0  0
   -1.5728   -0.3939   -1.9355 O   0  0  0  1  0  0  0  0  0  0  0  0
   -1.3745   -1.0236    0.2274 N   0  0  0  1  0  0  0  0  0  0  0  0
   -2.6875    2.0744    0.8641 H   0  0  0  1  0  0  0  0  0  0  0  0
   -1.3348    1.3052    2.1241 C   0  0  0  1  0  0  0  0  0  0  0  0
   -1.7390   -2.4229    0.0625 C   0  0  0  1  0  0  0  0  0  0  0  0
   -2.3079    1.5245    3.2839 C   0  0  0  1  0  0  0  0  0  0  0  0
   -0.2407    0.8015    2.3182 O   0  0  0  1  0  0  0  0  0  0  0  0
   -1.1133   -0.7261    1.1239 H   0  0  0  1  0  0  0  0  0  0  0  0
   -2.0053   -2.8369    1.0125 H   0  0  0  1  0  0  0  0  0  0  0  0
   -0.9078   -2.9625   -0.3411 H   0  0  0  1  0  0  0  0  0  0  0  0
   -2.5717   -2.4980   -0.6052 H   0  0  0  1  0  0  0  0  0  0  0  0
   -2.1123    0.8083    4.0545 H   0  0  0  1  0  0  0  0  0  0  0  0
   -3.3120    1.4061    2.9339 H   0  0  0  1  0  0  0  0  0  0  0  0
   -2.1799    2.5123    3.6746 H   0  0  0  1  0  0  0  0  0  0  0  0
   -1.5238    4.8878   -3.2676 F   0  0  0  1  0  0  0  0  0  0  0  0
   -2.0067    3.8208   -3.9067 C   0  0  0  1  0  0  0  0  0  0  0  0
   -2.4780    4.2674   -5.0765 F   0  0  0  1  0  0  0  0  0  0  0  0
   -0.9562    3.0519   -4.1962 F   0  0  0  1  0  0  0  0  0  0  0  0
   -3.0579    3.0873   -3.0994 C   0  0  0  1  0  0  0  0  0  0  0  0
   -2.7536    2.4000   -1.9347 C   0  0  0  1  0  0  0  0  0  0  0  0
   -3.7513    1.7430   -1.2395 C   0  0  0  1  0  0  0  0  0  0  0  0
   -5.0569    1.7757   -1.7040 C   0  0  0  1  0  0  0  0  0  0  0  0
   -5.3601    2.4611   -2.8652 C   0  0  0  1  0  0  0  0  0  0  0  0
   -4.3597    3.1201   -3.5626 C   0  0  0  1  0  0  0  0  0  0  0  0
   -1.3163    2.3683   -1.4191 C   0  0  0  1  0  0  0  0  0  0  0  0
   -3.5224    1.2239   -0.3678 H   0  0  0  1  0  0  0  0  0  0  0  0
   -5.8083    1.2847   -1.1786 H   0  0  0  1  0  0  0  0  0  0  0  0
   -6.3390    2.4823   -3.2159 H   0  0  0  1  0  0  0  0  0  0  0  0
   -4.5886    3.6391   -4.4343 H   0  0  0  1  0  0  0  0  0  0  0  0
   -0.6649    2.1497   -2.2394 H   0  0  0  1  0  0  0  0  0  0  0  0
   -1.0765    3.3315   -1.0195 H   0  0  0  1  0  0  0  0  0  0  0  0
  1  4  1  0  0  0  0
  2  4  1  0  0  0  0
  2  5  2  0  0  0  0
  2  6  1  0  0  0  0
  3  4  1  0  0  0  0
  3  7  1  0  0  0  0
  3  8  1  0  0  0  0
  4 29  1  0  0  0  0
  6  9  1  0  0  0  0
  6 12  1  0  0  0  0
  8 10  1  0  0  0  0
  8 11  2  0  0  0  0
  9 13  1  0  0  0  0
  9 14  1  0  0  0  0
  9 15  1  0  0  0  0
 10 16  1  0  0  0  0
 10 17  1  0  0  0  0
 10 18  1  0  0  0  0
 19 20  1  0  0  0  0
 20 21  1  0  0  0  0
 20 22  1  0  0  0  0
 20 23  1  0  0  0  0
 23 24  4  0  0  0  0
 23 28  4  0  0  0  0
 24 25  4  0  0  0  0
 24 29  1  0  0  0  0
 25 26  4  0  0  0  0
 25 30  1  0  0  0  0
 26 27  4  0  0  0  0
 26 31  1  0  0  0  0
 27 28  4  0  0  0  0
 27 32  1  0  0  0  0
 28 33  1  0  0  0  0
 29 34  1  0  0  0  0
 29 35  1  0  0  0  0
M  END
> <BCLConfClusterSize>
1

> <ConfClashScore>
0 

> <ConfOneFourInteractionScore>
-0.968449 

> <ConfScore>
0.511053 

> <ConfScorePBest>
0.00427374 

> <ConfTolerance>
0.547851 

> <RosettaParamsInstructions>
M  ROOT 3
M  POLY_N_BB 3
M  POLY_CA_BB 4
M  POLY_C_BB 2
M  POLY_O_BB 5
M  POLY_IGNORE 9 10 11 12 13 14 15 16 17 18 
M  POLY_UPPER 6
M  POLY_LOWER 8
M  POLY_CHG 0
M  POLY_PROPERTIES ALPHA_AA D_AA PROTEIN AROMATIC POLYMER 
M  END

$$$$



 35 35  0  0  0  0  0  0  0  0999 V2000
    0.0221    2.3618    0.0080 H   0  0  0  1  0  0  0  0  0  0  0  0
    0.3720    1.8292   -1.9830 C   0  0  0  1  0  0  0  0  0  0  0  0
   -1.1932    0.7613   -0.4131 N   0  0  0  1  0  0  0  0  0  0  0  0
   -0.5849    2.0436   -0.8137 C   0  0  0  1  0  0  0  0  0  0  0  0
    1.4007    2.4569   -2.1542 O   0  0  0  1  0  0  0  0  0  0  0  0
   -0.0220    0.8708   -2.8263 N   0  0  0  1  0  0  0  0  0  0  0  0
   -1.1761    0.0120   -1.0445 H   0  0  0  1  0  0  0  0  0  0  0  0
   -1.7715    0.5840    0.7908 C   0  0  0  1  0  0  0  0  0  0  0  0
    0.7787    0.4662   -3.9721 C   0  0  0  1  0  0  0  0  0  0  0  0
   -2.5364   -0.7274    0.9154 C   0  0  0  1  0  0  0  0  0  0  0  0
   -1.7083    1.3782    1.7155 O   0  0  0  1  0  0  0  0  0  0  0  0
   -0.8800    0.4247   -2.6677 H   0  0  0  1  0  0  0  0  0  0  0  0
    0.9940    1.3218   -4.5775 H   0  0  0  1  0  0  0  0  0  0  0  0
    0.2360   -0.2521   -4.5504 H   0  0  0  1  0  0  0  0  0  0  0  0
    1.6949    0.0313   -3.6310 H   0  0  0  1  0  0  0  0  0  0  0  0
   -3.5860   -0.5254    0.9643 H   0  0  0  1  0  0  0  0  0  0  0  0
   -2.2295   -1.2359    1.8054 H   0  0  0  1  0  0  0  0  0  0  0  0
   -2.3311   -1.3421    0.0640 H   0  0  0  1  0  0  0  0  0  0  0  0
   -2.0800    3.5186   -5.2226 F   0  0  0  1  0  0  0  0  0  0  0  0
   -1.9971    3.7982   -3.9207 C   0  0  0  1  0  0  0  0  0  0  0  0
   -0.7575    3.4754   -3.5483 F   0  0  0  1  0  0  0  0  0  0  0  0
   -2.0848    5.1249   -3.8174 F   0  0  0  1  0  0  0  0  0  0  0  0
   -3.0533    3.0815   -3.1048 C   0  0  0  1  0  0  0  0  0  0  0  0
   -2.8579    2.7363   -1.7766 C   0  0  0  1  0  0  0  0  0  0  0  0
   -3.8538    2.0779   -1.0801 C   0  0  0  1  0  0  0  0  0  0  0  0
   -5.0500    1.7676   -1.7081 C   0  0  0  1  0  0  0  0  0  0  0  0
   -5.2446    2.1119   -3.0324 C   0  0  0  1  0  0  0  0  0  0  0  0
   -4.2460    2.7722   -3.7311 C   0  0  0  1  0  0  0  0  0  0  0  0
   -1.6125    3.1473   -1.0272 C   0  0  0  1  0  0  0  0  0  0  0  0
   -3.7057    1.8153   -0.0848 H   0  0  0  1  0  0  0  0  0  0  0  0
   -5.8008    1.2758   -1.1829 H   0  0  0  1  0  0  0  0  0  0  0  0
   -6.1405    1.8756   -3.5048 H   0  0  0  1  0  0  0  0  0  0  0  0
   -4.3941    3.0348   -4.7264 H   0  0  0  1  0  0  0  0  0  0  0  0
   -1.1414    3.9351   -1.5771 H   0  0  0  1  0  0  0  0  0  0  0  0
   -1.9106    3.5112   -0.0662 H   0  0  0  1  0  0  0  0  0  0  0  0
  1  4  1  0  0  0  0
  2  4  1  0  0  0  0
  2  5  2  0  0  0  0
  2  6  1  0  0  0  0
  3  4  1  0  0  0  0
  3  7  1  0  0  0  0
  3  8  1  0  0  0  0
  4 29  1  0  0  0  0
  6  9  1  0  0  0  0
  6 12  1  0  0  0  0
  8 10  1  0  0  0  0
  8 11  2  0  0  0  0
  9 13  1  0  0  0  0
  9 14  1  0  0  0  0
  9 15  1  0  0  0  0
 10 16  1  0  0  0  0
 10 17  1  0  0  0  0
 10 18  1  0  0  0  0
 19 20  1  0  0  0  0
 20 21  1  0  0  0  0
 20 22  1  0  0  0  0
 20 23  1  0  0  0  0
 23 24  4  0  0  0  0
 23 28  4  0  0  0  0
 24 25  4  0  0  0  0
 24 29  1  0  0  0  0
 25 26  4  0  0  0  0
 25 30  1  0  0  0  0
 26 27  4  0  0  0  0
 26 31  1  0  0  0  0
 27 28  4  0  0  0  0
 27 32  1  0  0  0  0
 28 33  1  0  0  0  0
 29 34  1  0  0  0  0
 29 35  1  0  0  0  0
M  END
> <BCLConfClusterSize>
1

> <ConfClashScore>
0 

> <ConfOneFourInteractionScore>
-0.933966 

> <ConfScore>
0.513761 

> <ConfScorePBest>
0.00424526 

> <ConfTolerance>
0.713383 

> <RosettaParamsInstructions>
M  ROOT 3
M  POLY_N_BB 3
M  POLY_CA_BB 4
M  POLY_C_BB 2
M  POLY_O_BB 5
M  POLY_IGNORE 9 10 11 12 13 14 15 16 17 18 
M  POLY_UPPER 6
M  POLY_LOWER 8
M  POLY_CHG 0
M  POLY_PROPERTIES ALPHA_AA D_AA PROTEIN AROMATIC POLYMER 
M  END

$$$$



 35 35  0  0  0  0  0  0  0  0999 V2000
   -1.8040    2.1660    0.6112 H   0  0  0  1  0  0  0  0  0  0  0  0
    0.2661    1.8941    0.5001 C   0  0  0  1  0  0  0  0  0  0  0  0
   -1.4796    0.3034   -0.1908 N   0  0  0  1  0  0  0  0  0  0  0  0
   -1.1290    1.7328   -0.0971 C   0  0  0  1  0  0  0  0  0  0  0  0
    0.8652    2.9671    0.4424 O   0  0  0  1  0  0  0  0  0  0  0  0
    0.7829    0.7967    1.0834 N   0  0  0  1  0  0  0  0  0  0  0  0
   -2.2247   -0.0173    0.3590 H   0  0  0  1  0  0  0  0  0  0  0  0
   -0.8588   -0.5858   -0.9675 C   0  0  0  1  0  0  0  0  0  0  0  0
    2.0923    0.7976    1.7186 C   0  0  0  1  0  0  0  0  0  0  0  0
   -1.5088   -1.9480   -1.0554 C   0  0  0  1  0  0  0  0  0  0  0  0
    0.1770   -0.3318   -1.5809 O   0  0  0  1  0  0  0  0  0  0  0  0
    0.2593   -0.0316    1.0802 H   0  0  0  1  0  0  0  0  0  0  0  0
    2.7298    1.4988    1.2220 H   0  0  0  1  0  0  0  0  0  0  0  0
    2.5203   -0.1810    1.6542 H   0  0  0  1  0  0  0  0  0  0  0  0
    1.9894    1.0754    2.7468 H   0  0  0  1  0  0  0  0  0  0  0  0
   -0.9699   -2.6410   -0.4436 H   0  0  0  1  0  0  0  0  0  0  0  0
   -1.4958   -2.2843   -2.0711 H   0  0  0  1  0  0  0  0  0  0  0  0
   -2.5206   -1.8829   -0.7136 H   0  0  0  1  0  0  0  0  0  0  0  0
   -1.8491    5.0832   -3.5070 F   0  0  0  1  0  0  0  0  0  0  0  0
   -1.9951    3.8143   -3.8925 C   0  0  0  1  0  0  0  0  0  0  0  0
   -2.2400    3.8486   -5.1944 F   0  0  0  1  0  0  0  0  0  0  0  0
   -0.7989    3.2415   -3.7523 F   0  0  0  1  0  0  0  0  0  0  0  0
   -3.0751    3.0953   -3.1192 C   0  0  0  1  0  0  0  0  0  0  0  0
   -2.7672    2.4568   -1.9279 C   0  0  0  1  0  0  0  0  0  0  0  0
   -3.7549    1.7946   -1.2235 C   0  0  0  1  0  0  0  0  0  0  0  0
   -5.0544    1.7733   -1.7055 C   0  0  0  1  0  0  0  0  0  0  0  0
   -5.3612    2.4099   -2.8933 C   0  0  0  1  0  0  0  0  0  0  0  0
   -4.3708    3.0741   -3.5999 C   0  0  0  1  0  0  0  0  0  0  0  0
   -1.3526    2.4845   -1.3990 C   0  0  0  1  0  0  0  0  0  0  0  0
   -3.5231    1.3122   -0.3318 H   0  0  0  1  0  0  0  0  0  0  0  0
   -5.7984    1.2784   -1.1734 H   0  0  0  1  0  0  0  0  0  0  0  0
   -6.3354    2.3905   -3.2570 H   0  0  0  1  0  0  0  0  0  0  0  0
   -4.6026    3.5565   -4.4916 H   0  0  0  1  0  0  0  0  0  0  0  0
   -0.7139    2.0547   -2.1422 H   0  0  0  1  0  0  0  0  0  0  0  0
   -1.0792    3.5068   -1.2411 H   0  0  0  1  0  0  0  0  0  0  0  0
  1  4  1  0  0  0  0
  2  4  1  0  0  0  0
  2  5  2  0  0  0  0
  2  6  1  0  0  0  0
  3  4  1  0  0  0  0
  3  7  1  0  0  0  0
  3  8  1  0  0  0  0
  4 29  1  0  0  0  0
  6  9  1  0  0  0  0
  6 12  1  0  0  0  0
  8 10  1  0  0  0  0
  8 11  2  0  0  0  0
  9 13  1  0  0  0  0
  9 14  1  0  0  0  0
  9 15  1  0  0  0  0
 10 16  1  0  0  0  0
 10 17  1  0  0  0  0
 10 18  1  0  0  0  0
 19 20  1  0  0  0  0
 20 21  1  0  0  0  0
 20 22  1  0  0  0  0
 20 23  1  0  0  0  0
 23 24  4  0  0  0  0
 23 28  4  0  0  0  0
 24 25  4  0  0  0  0
 24 29  1  0  0  0  0
 25 26  4  0  0  0  0
 25 30  1  0  0  0  0
 26 27  4  0  0  0  0
 26 31  1  0  0  0  0
 27 28  4  0  0  0  0
 27 32  1  0  0  0  0
 28 33  1  0  0  0  0
 29 34  1  0  0  0  0
 29 35  1  0  0  0  0
M  END
> <BCLConfClusterSize>
1

> <ConfClashScore>
0 

> <ConfOneFourInteractionScore>
-0.927738 

> <ConfScore>
0.515662 

> <ConfScorePBest>
0.00421678 

> <ConfTolerance>
0.557677 

> <RosettaParamsInstructions>
M  ROOT 3
M  POLY_N_BB 3
M  POLY_CA_BB 4
M  POLY_C_BB 2
M  POLY_O_BB 5
M  POLY_IGNORE 9 10 11 12 13 14 15 16 17 18 
M  POLY_UPPER 6
M  POLY_LOWER 8
M  POLY_CHG 0
M  POLY_PROPERTIES ALPHA_AA D_AA PROTEIN AROMATIC POLYMER 
M  END

$$$$



 35 35  0  0  0  0  0  0  0  0999 V2000
   -0.1888    2.0262    0.2668 H   0  0  0  1  0  0  0  0  0  0  0  0
   -1.4399    0.3541    0.0318 C   0  0  0  1  0  0  0  0  0  0  0  0
   -2.0827    2.5940    0.8384 N   0  0  0  1  0  0  0  0  0  0  0  0
   -1.1969    1.8492   -0.0452 C   0  0  0  1  0  0  0  0  0  0  0  0
   -1.6745   -0.1924    1.1088 O   0  0  0  1  0  0  0  0  0  0  0  0
   -1.3912   -0.3528   -1.1084 N   0  0  0  1  0  0  0  0  0  0  0  0
   -2.9756    2.2456    1.0426 H   0  0  0  1  0  0  0  0  0  0  0  0
   -1.6768    3.7627    1.3766 C   0  0  0  1  0  0  0  0  0  0  0  0
   -1.3768   -1.8079   -1.1210 C   0  0  0  1  0  0  0  0  0  0  0  0
   -2.6146    4.3794    2.3961 C   0  0  0  1  0  0  0  0  0  0  0  0
   -0.6169    4.3082    1.0720 O   0  0  0  1  0  0  0  0  0  0  0  0
   -1.3643    0.1279   -1.9621 H   0  0  0  1  0  0  0  0  0  0  0  0
   -2.1725   -2.1783   -0.5090 H   0  0  0  1  0  0  0  0  0  0  0  0
   -0.4407   -2.1584   -0.7391 H   0  0  0  1  0  0  0  0  0  0  0  0
   -1.5065   -2.1570   -2.1241 H   0  0  0  1  0  0  0  0  0  0  0  0
   -2.8763    5.3699    2.0874 H   0  0  0  1  0  0  0  0  0  0  0  0
   -2.1288    4.4196    3.3487 H   0  0  0  1  0  0  0  0  0  0  0  0
   -3.5003    3.7838    2.4717 H   0  0  0  1  0  0  0  0  0  0  0  0
   -1.3446    4.7126   -3.1437 F   0  0  0  1  0  0  0  0  0  0  0  0
   -1.9956    3.8180   -3.8892 C   0  0  0  1  0  0  0  0  0  0  0  0
   -2.4771    4.4868   -4.9382 F   0  0  0  1  0  0  0  0  0  0  0  0
   -1.0684    2.9861   -4.3696 F   0  0  0  1  0  0  0  0  0  0  0  0
   -3.0754    3.0974   -3.1171 C   0  0  0  1  0  0  0  0  0  0  0  0
   -2.7545    2.3982   -1.9639 C   0  0  0  1  0  0  0  0  0  0  0  0
   -3.7422    1.7346   -1.2609 C   0  0  0  1  0  0  0  0  0  0  0  0
   -5.0545    1.7725   -1.7059 C   0  0  0  1  0  0  0  0  0  0  0  0
   -5.3743    2.4696   -2.8556 C   0  0  0  1  0  0  0  0  0  0  0  0
   -4.3838    3.1352   -3.5609 C   0  0  0  1  0  0  0  0  0  0  0  0
   -1.3258    2.3613   -1.4752 C   0  0  0  1  0  0  0  0  0  0  0  0
   -3.5009    1.2067   -0.3979 H   0  0  0  1  0  0  0  0  0  0  0  0
   -5.7983    1.2765   -1.1746 H   0  0  0  1  0  0  0  0  0  0  0  0
   -6.3581    2.4947   -3.1917 H   0  0  0  1  0  0  0  0  0  0  0  0
   -4.6252    3.6631   -4.4239 H   0  0  0  1  0  0  0  0  0  0  0  0
   -0.7621    1.7189   -2.1191 H   0  0  0  1  0  0  0  0  0  0  0  0
   -0.9249    3.3524   -1.5195 H   0  0  0  1  0  0  0  0  0  0  0  0
  1  4  1  0  0  0  0
  2  4  1  0  0  0  0
  2  5  2  0  0  0  0
  2  6  1  0  0  0  0
  3  4  1  0  0  0  0
  3  7  1  0  0  0  0
  3  8  1  0  0  0  0
  4 29  1  0  0  0  0
  6  9  1  0  0  0  0
  6 12  1  0  0  0  0
  8 10  1  0  0  0  0
  8 11  2  0  0  0  0
  9 13  1  0  0  0  0
  9 14  1  0  0  0  0
  9 15  1  0  0  0  0
 10 16  1  0  0  0  0
 10 17  1  0  0  0  0
 10 18  1  0  0  0  0
 19 20  1  0  0  0  0
 20 21  1  0  0  0  0
 20 22  1  0  0  0  0
 20 23  1  0  0  0  0
 23 24  4  0  0  0  0
 23 28  4  0  0  0  0
 24 25  4  0  0  0  0
 24 29  1  0  0  0  0
 25 26  4  0  0  0  0
 25 30  1  0  0  0  0
 26 27  4  0  0  0  0
 26 31  1  0  0  0  0
 27 28  4  0  0  0  0
 27 32  1  0  0  0  0
 28 33  1  0  0  0  0
 29 34  1  0  0  0  0
 29 35  1  0  0  0  0
M  END
> <BCLConfClusterSize>
1

> <ConfClashScore>
0 

> <ConfOneFourInteractionScore>
-0.91371 

> <ConfScore>
0.519562 

> <ConfScorePBest>
0.0041883 

> <ConfTolerance>
0.70532 

> <RosettaParamsInstructions>
M  ROOT 3
M  POLY_N_BB 3
M  POLY_CA_BB 4
M  POLY_C_BB 2
M  POLY_O_BB 5
M  POLY_IGNORE 9 10 11 12 13 14 15 16 17 18 
M  POLY_UPPER 6
M  POLY_LOWER 8
M  POLY_CHG 0
M  POLY_PROPERTIES ALPHA_AA D_AA PROTEIN AROMATIC POLYMER 
M  END

$$$$



 35 35  0  0  0  0  0  0  0  0999 V2000
   -0.2218    2.3393   -2.6477 H   0  0  0  1  0  0  0  0  0  0  0  0
   -0.5488    0.6749   -1.3970 C   0  0  0  1  0  0  0  0  0  0  0  0
    0.8803    2.5948   -0.9152 N   0  0  0  1  0  0  0  0  0  0  0  0
   -0.3502    2.1716   -1.5987 C   0  0  0  1  0  0  0  0  0  0  0  0
   -0.4517    0.1813   -0.2742 O   0  0  0  1  0  0  0  0  0  0  0  0
   -0.7374   -0.0660   -2.4901 N   0  0  0  1  0  0  0  0  0  0  0  0
    0.8079    3.0569   -0.0541 H   0  0  0  1  0  0  0  0  0  0  0  0
    2.1059    2.3691   -1.4322 C   0  0  0  1  0  0  0  0  0  0  0  0
   -0.7183   -1.5208   -2.4560 C   0  0  0  1  0  0  0  0  0  0  0  0
    3.3098    2.8625   -0.6536 C   0  0  0  1  0  0  0  0  0  0  0  0
    2.2452    1.7807   -2.5036 O   0  0  0  1  0  0  0  0  0  0  0  0
   -0.8942    0.3850   -3.3459 H   0  0  0  1  0  0  0  0  0  0  0  0
   -1.3316   -1.9046   -3.2443 H   0  0  0  1  0  0  0  0  0  0  0  0
   -1.0952   -1.8602   -1.5138 H   0  0  0  1  0  0  0  0  0  0  0  0
    0.2858   -1.8672   -2.5848 H   0  0  0  1  0  0  0  0  0  0  0  0
    3.0147    3.6648   -0.0101 H   0  0  0  1  0  0  0  0  0  0  0  0
    4.0577    3.2094   -1.3357 H   0  0  0  1  0  0  0  0  0  0  0  0
    3.7067    2.0615   -0.0656 H   0  0  0  1  0  0  0  0  0  0  0  0
   -2.4795    4.4102   -4.9795 F   0  0  0  1  0  0  0  0  0  0  0  0
   -1.9853    3.8074   -3.8967 C   0  0  0  1  0  0  0  0  0  0  0  0
   -1.0540    2.9564   -4.3298 F   0  0  0  1  0  0  0  0  0  0  0  0
   -1.3634    4.7412   -3.1757 F   0  0  0  1  0  0  0  0  0  0  0  0
   -3.0707    3.0900   -3.1208 C   0  0  0  1  0  0  0  0  0  0  0  0
   -2.8498    2.7146   -1.8047 C   0  0  0  1  0  0  0  0  0  0  0  0
   -3.8386    2.0552   -1.0991 C   0  0  0  1  0  0  0  0  0  0  0  0
   -5.0529    1.7741   -1.7055 C   0  0  0  1  0  0  0  0  0  0  0  0
   -5.2730    2.1484   -3.0176 C   0  0  0  1  0  0  0  0  0  0  0  0
   -4.2815    2.8097   -3.7255 C   0  0  0  1  0  0  0  0  0  0  0  0
   -1.5290    3.0257   -1.1414 C   0  0  0  1  0  0  0  0  0  0  0  0
   -3.6715    1.7700   -0.1131 H   0  0  0  1  0  0  0  0  0  0  0  0
   -5.7984    1.2816   -1.1732 H   0  0  0  1  0  0  0  0  0  0  0  0
   -6.1826    1.9340   -3.4739 H   0  0  0  1  0  0  0  0  0  0  0  0
   -4.4486    3.0949   -4.7116 H   0  0  0  1  0  0  0  0  0  0  0  0
   -1.2920    4.0497   -1.3419 H   0  0  0  1  0  0  0  0  0  0  0  0
   -1.6481    2.8864   -0.0872 H   0  0  0  1  0  0  0  0  0  0  0  0
  1  4  1  0  0  0  0
  2  4  1  0  0  0  0
  2  5  2  0  0  0  0
  2  6  1  0  0  0  0
  3  4  1  0  0  0  0
  3  7  1  0  0  0  0
  3  8  1  0  0  0  0
  4 29  1  0  0  0  0
  6  9  1  0  0  0  0
  6 12  1  0  0  0  0
  8 10  1  0  0  0  0
  8 11  2  0  0  0  0
  9 13  1  0  0  0  0
  9 14  1  0  0  0  0
  9 15  1  0  0  0  0
 10 16  1  0  0  0  0
 10 17  1  0  0  0  0
 10 18  1  0  0  0  0
 19 20  1  0  0  0  0
 20 21  1  0  0  0  0
 20 22  1  0  0  0  0
 20 23  1  0  0  0  0
 23 24  4  0  0  0  0
 23 28  4  0  0  0  0
 24 25  4  0  0  0  0
 24 29  1  0  0  0  0
 25 26  4  0  0  0  0
 25 30  1  0  0  0  0
 26 27  4  0  0  0  0
 26 31  1  0  0  0  0
 27 28  4  0  0  0  0
 27 32  1  0  0  0  0
 28 33  1  0  0  0  0
 29 34  1  0  0  0  0
 29 35  1  0  0  0  0
M  END
> <BCLConfClusterSize>
1

> <ConfClashScore>
0 

> <ConfOneFourInteractionScore>
-0.985807 

> <ConfScore>
0.52572 

> <ConfScorePBest>
0.00415982 

> <ConfTolerance>
0.699375 

> <RosettaParamsInstructions>
M  ROOT 3
M  POLY_N_BB 3
M  POLY_CA_BB 4
M  POLY_C_BB 2
M  POLY_O_BB 5
M  POLY_IGNORE 9 10 11 12 13 14 15 16 17 18 
M  POLY_UPPER 6
M  POLY_LOWER 8
M  POLY_CHG 0
M  POLY_PROPERTIES ALPHA_AA D_AA PROTEIN AROMATIC POLYMER 
M  END

$$$$



 35 35  0  0  0  0  0  0  0  0999 V2000
   -0.1041    2.1012    0.2079 H   0  0  0  1  0  0  0  0  0  0  0  0
   -1.4395    0.4572    0.1161 C   0  0  0  1  0  0  0  0  0  0  0  0
   -1.9743    2.7730    0.7919 N   0  0  0  1  0  0  0  0  0  0  0  0
   -1.1284    1.9421   -0.0575 C   0  0  0  1  0  0  0  0  0  0  0  0
   -1.3159   -0.3300   -0.8212 O   0  0  0  1  0  0  0  0  0  0  0  0
   -1.9227    0.1153    1.3169 N   0  0  0  1  0  0  0  0  0  0  0  0
   -2.8962    2.4763    0.9421 H   0  0  0  1  0  0  0  0  0  0  0  0
   -1.5877    3.9064    1.3795 C   0  0  0  1  0  0  0  0  0  0  0  0
   -2.2658   -1.2694    1.5986 C   0  0  0  1  0  0  0  0  0  0  0  0
   -2.6725    4.6722    2.1116 C   0  0  0  1  0  0  0  0  0  0  0  0
   -0.4296    4.3198    1.3408 O   0  0  0  1  0  0  0  0  0  0  0  0
   -2.0454    0.7997    2.0075 H   0  0  0  1  0  0  0  0  0  0  0  0
   -2.0339   -1.8750    0.7475 H   0  0  0  1  0  0  0  0  0  0  0  0
   -3.3118   -1.3409    1.8126 H   0  0  0  1  0  0  0  0  0  0  0  0
   -1.7043   -1.6111    2.4428 H   0  0  0  1  0  0  0  0  0  0  0  0
   -2.6314    5.7044    1.8326 H   0  0  0  1  0  0  0  0  0  0  0  0
   -2.5221    4.5820    3.1671 H   0  0  0  1  0  0  0  0  0  0  0  0
   -3.6296    4.2706    1.8516 H   0  0  0  1  0  0  0  0  0  0  0  0
   -1.5473    4.8836   -3.2199 F   0  0  0  1  0  0  0  0  0  0  0  0
   -1.9893    3.8166   -3.8838 C   0  0  0  1  0  0  0  0  0  0  0  0
   -2.4409    4.2610   -5.0537 F   0  0  0  1  0  0  0  0  0  0  0  0
   -0.9466    3.0544   -4.1320 F   0  0  0  1  0  0  0  0  0  0  0  0
   -3.0716    3.0983   -3.1130 C   0  0  0  1  0  0  0  0  0  0  0  0
   -2.7587    2.4240   -1.9429 C   0  0  0  1  0  0  0  0  0  0  0  0
   -3.7487    1.7624   -1.2410 C   0  0  0  1  0  0  0  0  0  0  0  0
   -5.0551    1.7777   -1.7040 C   0  0  0  1  0  0  0  0  0  0  0  0
   -5.3668    2.4500   -2.8706 C   0  0  0  1  0  0  0  0  0  0  0  0
   -4.3742    3.1136   -3.5748 C   0  0  0  1  0  0  0  0  0  0  0  0
   -1.3096    2.3544   -1.5227 C   0  0  0  1  0  0  0  0  0  0  0  0
   -3.5133    1.2532   -0.3653 H   0  0  0  1  0  0  0  0  0  0  0  0
   -5.8007    1.2833   -1.1737 H   0  0  0  1  0  0  0  0  0  0  0  0
   -6.3463    2.4581   -3.2202 H   0  0  0  1  0  0  0  0  0  0  0  0
   -4.6096    3.6229   -4.4505 H   0  0  0  1  0  0  0  0  0  0  0  0
   -0.8094    1.6395   -2.1420 H   0  0  0  1  0  0  0  0  0  0  0  0
   -0.8679    3.3189   -1.6622 H   0  0  0  1  0  0  0  0  0  0  0  0
  1  4  1  0  0  0  0
  2  4  1  0  0  0  0
  2  5  2  0  0  0  0
  2  6  1  0  0  0  0
  3  4  1  0  0  0  0
  3  7  1  0  0  0  0
  3  8  1  0  0  0  0
  4 29  1  0  0  0  0
  6  9  1  0  0  0  0
  6 12  1  0  0  0  0
  8 10  1  0  0  0  0
  8 11  2  0  0  0  0
  9 13  1  0  0  0  0
  9 14  1  0  0  0  0
  9 15  1  0  0  0  0
 10 16  1  0  0  0  0
 10 17  1  0  0  0  0
 10 18  1  0  0  0  0
 19 20  1  0  0  0  0
 20 21  1  0  0  0  0
 20 22  1  0  0  0  0
 20 23  1  0  0  0  0
 23 24  4  0  0  0  0
 23 28  4  0  0  0  0
 24 25  4  0  0  0  0
 24 29  1  0  0  0  0
 25 26  4  0  0  0  0
 25 30  1  0  0  0  0
 26 27  4  0  0  0  0
 26 31  1  0  0  0  0
 27 28  4  0  0  0  0
 27 32  1  0  0  0  0
 28 33  1  0  0  0  0
 29 34  1  0  0  0  0
 29 35  1  0  0  0  0
M  END
> <BCLConfClusterSize>
1

> <ConfClashScore>
0 

> <ConfOneFourInteractionScore>
-0.924785 

> <ConfScore>
0.527356 

> <ConfScorePBest>
0.00413134 

> <ConfTolerance>
0.766679 

> <RosettaParamsInstructions>
M  ROOT 3
M  POLY_N_BB 3
M  POLY_CA_BB 4
M  POLY_C_BB 2
M  POLY_O_BB 5
M  POLY_IGNORE 9 10 11 12 13 14 15 16 17 18 
M  POLY_UPPER 6
M  POLY_LOWER 8
M  POLY_CHG 0
M  POLY_PROPERTIES ALPHA_AA D_AA PROTEIN AROMATIC POLYMER 
M  END

$$$$



 35 35  0  0  0  0  0  0  0  0999 V2000
    0.4802    1.5387   -1.4349 H   0  0  0  1  0  0  0  0  0  0  0  0
   -0.6113    0.8636   -3.0836 C   0  0  0  1  0  0  0  0  0  0  0  0
   -0.8442    0.1569   -0.7182 N   0  0  0  1  0  0  0  0  0  0  0  0
   -0.5350    1.2552   -1.6195 C   0  0  0  1  0  0  0  0  0  0  0  0
   -1.6789    0.5418   -3.6036 O   0  0  0  1  0  0  0  0  0  0  0  0
    0.5420    0.8934   -3.7521 N   0  0  0  1  0  0  0  0  0  0  0  0
   -1.6276    0.2113   -0.1318 H   0  0  0  1  0  0  0  0  0  0  0  0
   -0.0644   -0.9242   -0.6879 C   0  0  0  1  0  0  0  0  0  0  0  0
    0.6381    0.5141   -5.1545 C   0  0  0  1  0  0  0  0  0  0  0  0
   -0.5329   -2.0901    0.1919 C   0  0  0  1  0  0  0  0  0  0  0  0
    0.9450   -1.0461   -1.3806 O   0  0  0  1  0  0  0  0  0  0  0  0
    1.3532    1.1805   -3.2831 H   0  0  0  1  0  0  0  0  0  0  0  0
    0.9091   -0.5184   -5.2275 H   0  0  0  1  0  0  0  0  0  0  0  0
    1.3830    1.1130   -5.6355 H   0  0  0  1  0  0  0  0  0  0  0  0
   -0.3073    0.6690   -5.6312 H   0  0  0  1  0  0  0  0  0  0  0  0
   -0.2597   -1.9021    1.2092 H   0  0  0  1  0  0  0  0  0  0  0  0
   -0.0696   -2.9957   -0.1400 H   0  0  0  1  0  0  0  0  0  0  0  0
   -1.5962   -2.1857    0.1203 H   0  0  0  1  0  0  0  0  0  0  0  0
   -1.9440    5.1226   -3.6336 F   0  0  0  1  0  0  0  0  0  0  0  0
   -1.9900    3.8142   -3.8903 C   0  0  0  1  0  0  0  0  0  0  0  0
   -2.1824    3.7376   -5.2080 F   0  0  0  1  0  0  0  0  0  0  0  0
   -0.7843    3.3282   -3.6787 F   0  0  0  1  0  0  0  0  0  0  0  0
   -3.0708    3.0958   -3.1175 C   0  0  0  1  0  0  0  0  0  0  0  0
   -2.7680    2.4741   -1.9161 C   0  0  0  1  0  0  0  0  0  0  0  0
   -3.7564    1.8123   -1.2122 C   0  0  0  1  0  0  0  0  0  0  0  0
   -5.0515    1.7748   -1.7049 C   0  0  0  1  0  0  0  0  0  0  0  0
   -5.3533    2.3947   -2.9027 C   0  0  0  1  0  0  0  0  0  0  0  0
   -4.3621    3.0585   -3.6088 C   0  0  0  1  0  0  0  0  0  0  0  0
   -1.3772    2.4862   -1.3269 C   0  0  0  1  0  0  0  0  0  0  0  0
   -3.5284    1.3425   -0.3129 H   0  0  0  1  0  0  0  0  0  0  0  0
   -5.7961    1.2803   -1.1732 H   0  0  0  1  0  0  0  0  0  0  0  0
   -6.3241    2.3632   -3.2743 H   0  0  0  1  0  0  0  0  0  0  0  0
   -4.5902    3.5284   -4.5082 H   0  0  0  1  0  0  0  0  0  0  0  0
   -0.8614    3.3392   -1.7157 H   0  0  0  1  0  0  0  0  0  0  0  0
   -1.4695    2.5781   -0.2648 H   0  0  0  1  0  0  0  0  0  0  0  0
  1  4  1  0  0  0  0
  2  4  1  0  0  0  0
  2  5  2  0  0  0  0
  2  6  1  0  0  0  0
  3  4  1  0  0  0  0
  3  7  1  0  0  0  0
  3  8  1  0  0  0  0
  4 29  1  0  0  0  0
  6  9  1  0  0  0  0
  6 12  1  0  0  0  0
  8 10  1  0  0  0  0
  8 11  2  0  0  0  0
  9 13  1  0  0  0  0
  9 14  1  0  0  0  0
  9 15  1  0  0  0  0
 10 16  1  0  0  0  0
 10 17  1  0  0  0  0
 10 18  1  0  0  0  0
 19 20  1  0  0  0  0
 20 21  1  0  0  0  0
 20 22  1  0  0  0  0
 20 23  1  0  0  0  0
 23 24  4  0  0  0  0
 23 28  4  0  0  0  0
 24 25  4  0  0  0  0
 24 29  1  0  0  0  0
 25 26  4  0  0  0  0
 25 30  1  0  0  0  0
 26 27  4  0  0  0  0
 26 31  1  0  0  0  0
 27 28  4  0  0  0  0
 27 32  1  0  0  0  0
 28 33  1  0  0  0  0
 29 34  1  0  0  0  0
 29 35  1  0  0  0  0
M  END
> <BCLConfClusterSize>
1

> <ConfClashScore>
0 

> <ConfOneFourInteractionScore>
-0.97589 

> <ConfScore>
0.533033 

> <ConfScorePBest>
0.00410286 

> <ConfTolerance>
0.683328 

> <RosettaParamsInstructions>
M  ROOT 3
M  POLY_N_BB 3
M  POLY_CA_BB 4
M  POLY_C_BB 2
M  POLY_O_BB 5
M  POLY_IGNORE 9 10 11 12 13 14 15 16 17 18 
M  POLY_UPPER 6
M  POLY_LOWER 8
M  POLY_CHG 0
M  POLY_PROPERTIES ALPHA_AA D_AA PROTEIN AROMATIC POLYMER 
M  END

$$$$



 35 35  0  0  0  0  0  0  0  0999 V2000
   -1.1948    0.3885   -0.8828 H   0  0  0  1  0  0  0  0  0  0  0  0
    0.7744    1.0995   -1.0741 C   0  0  0  1  0  0  0  0  0  0  0  0
   -0.7885    0.5318   -2.8951 N   0  0  0  1  0  0  0  0  0  0  0  0
   -0.6689    1.0490   -1.5401 C   0  0  0  1  0  0  0  0  0  0  0  0
    1.3078    2.1704   -0.7875 O   0  0  0  1  0  0  0  0  0  0  0  0
    1.4452   -0.0500   -0.9850 N   0  0  0  1  0  0  0  0  0  0  0  0
   -0.8800    1.1657   -3.6369 H   0  0  0  1  0  0  0  0  0  0  0  0
   -0.7776   -0.8185   -3.1715 C   0  0  0  1  0  0  0  0  0  0  0  0
    2.8257   -0.1769   -0.5421 C   0  0  0  1  0  0  0  0  0  0  0  0
   -0.9979   -1.1962   -4.6073 C   0  0  0  1  0  0  0  0  0  0  0  0
   -0.5970   -1.6228   -2.2768 O   0  0  0  1  0  0  0  0  0  0  0  0
    0.9728   -0.8710   -1.2366 H   0  0  0  1  0  0  0  0  0  0  0  0
    2.9358    0.2799    0.4192 H   0  0  0  1  0  0  0  0  0  0  0  0
    3.4711    0.3089   -1.2437 H   0  0  0  1  0  0  0  0  0  0  0  0
    3.0850   -1.2129   -0.4762 H   0  0  0  1  0  0  0  0  0  0  0  0
   -1.9532   -0.8370   -4.9286 H   0  0  0  1  0  0  0  0  0  0  0  0
   -0.9665   -2.2613   -4.7045 H   0  0  0  1  0  0  0  0  0  0  0  0
   -0.2310   -0.7595   -5.2124 H   0  0  0  1  0  0  0  0  0  0  0  0
   -1.6492    4.9748   -3.3263 F   0  0  0  1  0  0  0  0  0  0  0  0
   -1.9951    3.8162   -3.8903 C   0  0  0  1  0  0  0  0  0  0  0  0
   -2.3660    4.1054   -5.1386 F   0  0  0  1  0  0  0  0  0  0  0  0
   -0.8744    3.1001   -3.9898 F   0  0  0  1  0  0  0  0  0  0  0  0
   -3.0751    3.0963   -3.1178 C   0  0  0  1  0  0  0  0  0  0  0  0
   -2.7605    2.4271   -1.9453 C   0  0  0  1  0  0  0  0  0  0  0  0
   -3.7483    1.7641   -1.2418 C   0  0  0  1  0  0  0  0  0  0  0  0
   -5.0545    1.7728   -1.7057 C   0  0  0  1  0  0  0  0  0  0  0  0
   -5.3680    2.4400   -2.8748 C   0  0  0  1  0  0  0  0  0  0  0  0
   -4.3775    3.1050   -3.5805 C   0  0  0  1  0  0  0  0  0  0  0  0
   -1.3385    2.4221   -1.4360 C   0  0  0  1  0  0  0  0  0  0  0  0
   -3.5116    1.2587   -0.3642 H   0  0  0  1  0  0  0  0  0  0  0  0
   -5.7985    1.2772   -1.1742 H   0  0  0  1  0  0  0  0  0  0  0  0
   -6.3473    2.4431   -3.2250 H   0  0  0  1  0  0  0  0  0  0  0  0
   -4.6142    3.6104   -4.4581 H   0  0  0  1  0  0  0  0  0  0  0  0
   -0.7689    3.1232   -2.0095 H   0  0  0  1  0  0  0  0  0  0  0  0
   -1.3436    2.7215   -0.4087 H   0  0  0  1  0  0  0  0  0  0  0  0
  1  4  1  0  0  0  0
  2  4  1  0  0  0  0
  2  5  2  0  0  0  0
  2  6  1  0  0  0  0
  3  4  1  0  0  0  0
  3  7  1  0  0  0  0
  3  8  1  0  0  0  0
  4 29  1  0  0  0  0
  6  9  1  0  0  0  0
  6 12  1  0  0  0  0
  8 10  1  0  0  0  0
  8 11  2  0  0  0  0
  9 13  1  0  0  0  0
  9 14  1  0  0  0  0
  9 15  1  0  0  0  0
 10 16  1  0  0  0  0
 10 17  1  0  0  0  0
 10 18  1  0  0  0  0
 19 20  1  0  0  0  0
 20 21  1  0  0  0  0
 20 22  1  0  0  0  0
 20 23  1  0  0  0  0
 23 24  4  0  0  0  0
 23 28  4  0  0  0  0
 24 25  4  0  0  0  0
 24 29  1  0  0  0  0
 25 26  4  0  0  0  0
 25 30  1  0  0  0  0
 26 27  4  0  0  0  0
 26 31  1  0  0  0  0
 27 28  4  0  0  0  0
 27 32  1  0  0  0  0
 28 33  1  0  0  0  0
 29 34  1  0  0  0  0
 29 35  1  0  0  0  0
M  END
> <BCLConfClusterSize>
1

> <ConfClashScore>
0 

> <ConfOneFourInteractionScore>
-0.979134 

> <ConfScore>
0.534559 

> <ConfScorePBest>
0.00407438 

> <ConfTolerance>
0.611452 

> <RosettaParamsInstructions>
M  ROOT 3
M  POLY_N_BB 3
M  POLY_CA_BB 4
M  POLY_C_BB 2
M  POLY_O_BB 5
M  POLY_IGNORE 9 10 11 12 13 14 15 16 17 18 
M  POLY_UPPER 6
M  POLY_LOWER 8
M  POLY_CHG 0
M  POLY_PROPERTIES ALPHA_AA D_AA PROTEIN AROMATIC POLYMER 
M  END

$$$$



 35 35  0  0  0  0  0  0  0  0999 V2000
   -0.4060    1.6337   -2.1466 H   0  0  0  1  0  0  0  0  0  0  0  0
   -1.0806    0.8138   -0.3282 C   0  0  0  1  0  0  0  0  0  0  0  0
    0.7031    2.5263   -0.6408 N   0  0  0  1  0  0  0  0  0  0  0  0
   -0.5575    1.9745   -1.1438 C   0  0  0  1  0  0  0  0  0  0  0  0
   -0.8032   -0.3459   -0.6311 O   0  0  0  1  0  0  0  0  0  0  0  0
   -1.8512    1.0856    0.7288 N   0  0  0  1  0  0  0  0  0  0  0  0
    0.6750    3.1870    0.0824 H   0  0  0  1  0  0  0  0  0  0  0  0
    1.8896    2.1599   -1.1338 C   0  0  0  1  0  0  0  0  0  0  0  0
   -2.5277    0.0433    1.4862 C   0  0  0  1  0  0  0  0  0  0  0  0
    3.0976    2.8328   -0.5117 C   0  0  0  1  0  0  0  0  0  0  0  0
    2.0127    1.3381   -2.0271 O   0  0  0  1  0  0  0  0  0  0  0  0
   -1.9648    2.0194    1.0037 H   0  0  0  1  0  0  0  0  0  0  0  0
   -2.7363   -0.7867    0.8439 H   0  0  0  1  0  0  0  0  0  0  0  0
   -3.4449    0.4278    1.8809 H   0  0  0  1  0  0  0  0  0  0  0  0
   -1.8994   -0.2776    2.2906 H   0  0  0  1  0  0  0  0  0  0  0  0
    3.3415    3.7138   -1.0678 H   0  0  0  1  0  0  0  0  0  0  0  0
    3.9288    2.1593   -0.5285 H   0  0  0  1  0  0  0  0  0  0  0  0
    2.8750    3.1003    0.5001 H   0  0  0  1  0  0  0  0  0  0  0  0
   -2.2906    4.0046   -5.1582 F   0  0  0  1  0  0  0  0  0  0  0  0
   -1.9685    3.7952   -3.8806 C   0  0  0  1  0  0  0  0  0  0  0  0
   -0.8317    3.0976   -3.8593 F   0  0  0  1  0  0  0  0  0  0  0  0
   -1.7156    4.9760   -3.3409 F   0  0  0  1  0  0  0  0  0  0  0  0
   -3.0832    3.0842   -3.1411 C   0  0  0  1  0  0  0  0  0  0  0  0
   -2.8704    2.7545   -1.8116 C   0  0  0  1  0  0  0  0  0  0  0  0
   -3.8553    2.1005   -1.0957 C   0  0  0  1  0  0  0  0  0  0  0  0
   -5.0579    1.7789   -1.7055 C   0  0  0  1  0  0  0  0  0  0  0  0
   -5.2699    2.1077   -3.0311 C   0  0  0  1  0  0  0  0  0  0  0  0
   -4.2823    2.7637   -3.7493 C   0  0  0  1  0  0  0  0  0  0  0  0
   -1.5447    3.1333   -1.1946 C   0  0  0  1  0  0  0  0  0  0  0  0
   -3.6941    1.8495   -0.0994 H   0  0  0  1  0  0  0  0  0  0  0  0
   -5.8004    1.2903   -1.1657 H   0  0  0  1  0  0  0  0  0  0  0  0
   -6.1706    1.8629   -3.4898 H   0  0  0  1  0  0  0  0  0  0  0  0
   -4.4435    3.0146   -4.7456 H   0  0  0  1  0  0  0  0  0  0  0  0
   -1.1131    3.9232   -1.7731 H   0  0  0  1  0  0  0  0  0  0  0  0
   -1.7193    3.4760   -0.1961 H   0  0  0  1  0  0  0  0  0  0  0  0
  1  4  1  0  0  0  0
  2  4  1  0  0  0  0
  2  5  2  0  0  0  0
  2  6  1  0  0  0  0
  3  4  1  0  0  0  0
  3  7  1  0  0  0  0
  3  8  1  0  0  0  0
  4 29  1  0  0  0  0
  6  9  1  0  0  0  0
  6 12  1  0  0  0  0
  8 10  1  0  0  0  0
  8 11  2  0  0  0  0
  9 13  1  0  0  0  0
  9 14  1  0  0  0  0
  9 15  1  0  0  0  0
 10 16  1  0  0  0  0
 10 17  1  0  0  0  0
 10 18  1  0  0  0  0
 19 20  1  0  0  0  0
 20 21  1  0  0  0  0
 20 22  1  0  0  0  0
 20 23  1  0  0  0  0
 23 24  4  0  0  0  0
 23 28  4  0  0  0  0
 24 25  4  0  0  0  0
 24 29  1  0  0  0  0
 25 26  4  0  0  0  0
 25 30  1  0  0  0  0
 26 27  4  0  0  0  0
 26 31  1  0  0  0  0
 27 28  4  0  0  0  0
 27 32  1  0  0  0  0
 28 33  1  0  0  0  0
 29 34  1  0  0  0  0
 29 35  1  0  0  0  0
M  END
> <BCLConfClusterSize>
1

> <ConfClashScore>
0 

> <ConfOneFourInteractionScore>
-0.948666 

> <ConfScore>
0.534641 

> <ConfScorePBest>
0.00404589 

> <ConfTolerance>
0.824658 

> <RosettaParamsInstructions>
M  ROOT 3
M  POLY_N_BB 3
M  POLY_CA_BB 4
M  POLY_C_BB 2
M  POLY_O_BB 5
M  POLY_IGNORE 9 10 11 12 13 14 15 16 17 18 
M  POLY_UPPER 6
M  POLY_LOWER 8
M  POLY_CHG 0
M  POLY_PROPERTIES ALPHA_AA D_AA PROTEIN AROMATIC POLYMER 
M  END

$$$$



 35 35  0  0  0  0  0  0  0  0999 V2000
   -1.4715    0.6987   -0.8373 H   0  0  0  1  0  0  0  0  0  0  0  0
    0.2549    1.4975    0.0475 C   0  0  0  1  0  0  0  0  0  0  0  0
   -0.1279    0.9853   -2.3495 N   0  0  0  1  0  0  0  0  0  0  0  0
   -0.7250    1.4157   -1.1083 C   0  0  0  1  0  0  0  0  0  0  0  0
   -0.1350    1.5653    1.2102 O   0  0  0  1  0  0  0  0  0  0  0  0
    1.5485    1.4905   -0.2867 N   0  0  0  1  0  0  0  0  0  0  0  0
   -0.2692    1.5480   -3.1393 H   0  0  0  1  0  0  0  0  0  0  0  0
    0.5952   -0.1108   -2.5014 C   0  0  0  1  0  0  0  0  0  0  0  0
    2.6064    1.6704    0.6964 C   0  0  0  1  0  0  0  0  0  0  0  0
    0.9666   -0.4464   -3.9440 C   0  0  0  1  0  0  0  0  0  0  0  0
    0.8947   -0.8585   -1.5851 O   0  0  0  1  0  0  0  0  0  0  0  0
    1.7935    1.3596   -1.2265 H   0  0  0  1  0  0  0  0  0  0  0  0
    3.4127    1.0012    0.4800 H   0  0  0  1  0  0  0  0  0  0  0  0
    2.2236    1.4630    1.6739 H   0  0  0  1  0  0  0  0  0  0  0  0
    2.9605    2.6794    0.6582 H   0  0  0  1  0  0  0  0  0  0  0  0
    1.5412    0.3545   -4.3604 H   0  0  0  1  0  0  0  0  0  0  0  0
    0.0747   -0.5818   -4.5194 H   0  0  0  1  0  0  0  0  0  0  0  0
    1.5441   -1.3469   -3.9631 H   0  0  0  1  0  0  0  0  0  0  0  0
   -0.9880    2.9992   -4.2370 F   0  0  0  1  0  0  0  0  0  0  0  0
   -1.9928    3.8075   -3.8950 C   0  0  0  1  0  0  0  0  0  0  0  0
   -1.4452    4.8116   -3.2009 F   0  0  0  1  0  0  0  0  0  0  0  0
   -2.4456    4.3413   -5.0302 F   0  0  0  1  0  0  0  0  0  0  0  0
   -3.0740    3.0910   -3.1210 C   0  0  0  1  0  0  0  0  0  0  0  0
   -2.8060    2.5907   -1.8563 C   0  0  0  1  0  0  0  0  0  0  0  0
   -3.7943    1.9304   -1.1508 C   0  0  0  1  0  0  0  0  0  0  0  0
   -5.0548    1.7733   -1.7055 C   0  0  0  1  0  0  0  0  0  0  0  0
   -5.3218    2.2721   -2.9665 C   0  0  0  1  0  0  0  0  0  0  0  0
   -4.3308    2.9343   -3.6742 C   0  0  0  1  0  0  0  0  0  0  0  0
   -1.4344    2.7666   -1.2487 C   0  0  0  1  0  0  0  0  0  0  0  0
   -3.5921    1.5515   -0.2036 H   0  0  0  1  0  0  0  0  0  0  0  0
   -5.7996    1.2800   -1.1730 H   0  0  0  1  0  0  0  0  0  0  0  0
   -6.2664    2.1507   -3.3844 H   0  0  0  1  0  0  0  0  0  0  0  0
   -4.5330    3.3132   -4.6214 H   0  0  0  1  0  0  0  0  0  0  0  0
   -0.8510    3.4054   -1.8784 H   0  0  0  1  0  0  0  0  0  0  0  0
   -1.5338    3.2129   -0.2813 H   0  0  0  1  0  0  0  0  0  0  0  0
  1  4  1  0  0  0  0
  2  4  1  0  0  0  0
  2  5  2  0  0  0  0
  2  6  1  0  0  0  0
  3  4  1  0  0  0  0
  3  7  1  0  0  0  0
  3  8  1  0  0  0  0
  4 29  1  0  0  0  0
  6  9  1  0  0  0  0
  6 12  1  0  0  0  0
  8 10  1  0  0  0  0
  8 11  2  0  0  0  0
  9 13  1  0  0  0  0
  9 14  1  0  0  0  0
  9 15  1  0  0  0  0
 10 16  1  0  0  0  0
 10 17  1  0  0  0  0
 10 18  1  0  0  0  0
 19 20  1  0  0  0  0
 20 21  1  0  0  0  0
 20 22  1  0  0  0  0
 20 23  1  0  0  0  0
 23 24  4  0  0  0  0
 23 28  4  0  0  0  0
 24 25  4  0  0  0  0
 24 29  1  0  0  0  0
 25 26  4  0  0  0  0
 25 30  1  0  0  0  0
 26 27  4  0  0  0  0
 26 31  1  0  0  0  0
 27 28  4  0  0  0  0
 27 32  1  0  0  0  0
 28 33  1  0  0  0  0
 29 34  1  0  0  0  0
 29 35  1  0  0  0  0
M  END
> <BCLConfClusterSize>
1

> <ConfClashScore>
0.000101687 

> <ConfOneFourInteractionScore>
-0.952709 

> <ConfScore>
0.53542 

> <ConfScorePBest>
0.00401741 

> <ConfTolerance>
0.73145 

> <RosettaParamsInstructions>
M  ROOT 3
M  POLY_N_BB 3
M  POLY_CA_BB 4
M  POLY_C_BB 2
M  POLY_O_BB 5
M  POLY_IGNORE 9 10 11 12 13 14 15 16 17 18 
M  POLY_UPPER 6
M  POLY_LOWER 8
M  POLY_CHG 0
M  POLY_PROPERTIES ALPHA_AA D_AA PROTEIN AROMATIC POLYMER 
M  END

$$$$



 35 35  0  0  0  0  0  0  0  0999 V2000
   -1.7311    4.3119   -0.7922 H   0  0  0  1  0  0  0  0  0  0  0  0
    0.3365    4.1280   -0.6157 C   0  0  0  1  0  0  0  0  0  0  0  0
   -1.3596    3.1990    0.8927 N   0  0  0  1  0  0  0  0  0  0  0  0
   -1.0541    3.5326   -0.5109 C   0  0  0  1  0  0  0  0  0  0  0  0
    0.9944    4.0239   -1.6379 O   0  0  0  1  0  0  0  0  0  0  0  0
    0.7817    4.7661    0.4782 N   0  0  0  1  0  0  0  0  0  0  0  0
   -2.1196    3.6107    1.3546 H   0  0  0  1  0  0  0  0  0  0  0  0
   -0.5708    2.3196    1.5168 C   0  0  0  1  0  0  0  0  0  0  0  0
    2.0757    5.4308    0.5179 C   0  0  0  1  0  0  0  0  0  0  0  0
   -0.9668    1.9728    2.9388 C   0  0  0  1  0  0  0  0  0  0  0  0
    0.4094    1.8173    0.9921 O   0  0  0  1  0  0  0  0  0  0  0  0
    0.2156    4.7849    1.2780 H   0  0  0  1  0  0  0  0  0  0  0  0
    2.3633    5.7121   -0.4736 H   0  0  0  1  0  0  0  0  0  0  0  0
    2.8066    4.7639    0.9253 H   0  0  0  1  0  0  0  0  0  0  0  0
    2.0087    6.3050    1.1312 H   0  0  0  1  0  0  0  0  0  0  0  0
   -1.8130    2.5606    3.2274 H   0  0  0  1  0  0  0  0  0  0  0  0
   -0.1487    2.1787    3.5969 H   0  0  0  1  0  0  0  0  0  0  0  0
   -1.2182    0.9343    2.9956 H   0  0  0  1  0  0  0  0  0  0  0  0
   -1.0393    4.3018   -3.0896 F   0  0  0  1  0  0  0  0  0  0  0  0
   -2.0004    3.8280   -3.8845 C   0  0  0  1  0  0  0  0  0  0  0  0
   -2.4829    4.8689   -4.5650 F   0  0  0  1  0  0  0  0  0  0  0  0
   -1.3701    3.0808   -4.7917 F   0  0  0  1  0  0  0  0  0  0  0  0
   -3.0669    3.0521   -3.1403 C   0  0  0  1  0  0  0  0  0  0  0  0
   -2.7475    2.3525   -1.9870 C   0  0  0  1  0  0  0  0  0  0  0  0
   -3.7411    1.7157   -1.2677 C   0  0  0  1  0  0  0  0  0  0  0  0
   -5.0577    1.7812   -1.6964 C   0  0  0  1  0  0  0  0  0  0  0  0
   -5.3760    2.4788   -2.8462 C   0  0  0  1  0  0  0  0  0  0  0  0
   -4.3796    3.1174   -3.5679 C   0  0  0  1  0  0  0  0  0  0  0  0
   -1.3272    2.3730   -1.4734 C   0  0  0  1  0  0  0  0  0  0  0  0
   -3.5010    1.1875   -0.4046 H   0  0  0  1  0  0  0  0  0  0  0  0
   -5.8059    1.3054   -1.1528 H   0  0  0  1  0  0  0  0  0  0  0  0
   -6.3632    2.5245   -3.1701 H   0  0  0  1  0  0  0  0  0  0  0  0
   -4.6198    3.6457   -4.4310 H   0  0  0  1  0  0  0  0  0  0  0  0
   -1.1370    1.4531   -0.9610 H   0  0  0  1  0  0  0  0  0  0  0  0
   -0.6642    2.4603   -2.3086 H   0  0  0  1  0  0  0  0  0  0  0  0
  1  4  1  0  0  0  0
  2  4  1  0  0  0  0
  2  5  2  0  0  0  0
  2  6  1  0  0  0  0
  3  4  1  0  0  0  0
  3  7  1  0  0  0  0
  3  8  1  0  0  0  0
  4 29  1  0  0  0  0
  6  9  1  0  0  0  0
  6 12  1  0  0  0  0
  8 10  1  0  0  0  0
  8 11  2  0  0  0  0
  9 13  1  0  0  0  0
  9 14  1  0  0  0  0
  9 15  1  0  0  0  0
 10 16  1  0  0  0  0
 10 17  1  0  0  0  0
 10 18  1  0  0  0  0
 19 20  1  0  0  0  0
 20 21  1  0  0  0  0
 20 22  1  0  0  0  0
 20 23  1  0  0  0  0
 23 24  4  0  0  0  0
 23 28  4  0  0  0  0
 24 25  4  0  0  0  0
 24 29  1  0  0  0  0
 25 26  4  0  0  0  0
 25 30  1  0  0  0  0
 26 27  4  0  0  0  0
 26 31  1  0  0  0  0
 27 28  4  0  0  0  0
 27 32  1  0  0  0  0
 28 33  1  0  0  0  0
 29 34  1  0  0  0  0
 29 35  1  0  0  0  0
M  END
> <BCLConfClusterSize>
1

> <ConfClashScore>
0 

> <ConfOneFourInteractionScore>
-0.949684 

> <ConfScore>
0.537344 

> <ConfScorePBest>
0.00398893 

> <ConfTolerance>
0.847842 

> <RosettaParamsInstructions>
M  ROOT 3
M  POLY_N_BB 3
M  POLY_CA_BB 4
M  POLY_C_BB 2
M  POLY_O_BB 5
M  POLY_IGNORE 9 10 11 12 13 14 15 16 17 18 
M  POLY_UPPER 6
M  POLY_LOWER 8
M  POLY_CHG 0
M  POLY_PROPERTIES ALPHA_AA D_AA PROTEIN AROMATIC POLYMER 
M  END

$$$$



 35 35  0  0  0  0  0  0  0  0999 V2000
   -0.2723    2.4298    0.4539 H   0  0  0  1  0  0  0  0  0  0  0  0
   -1.2506    0.6019    0.1704 C   0  0  0  1  0  0  0  0  0  0  0  0
   -2.2339    2.6849    1.0395 N   0  0  0  1  0  0  0  0  0  0  0  0
   -1.2369    2.1171    0.1122 C   0  0  0  1  0  0  0  0  0  0  0  0
   -2.2756   -0.0367   -0.0647 O   0  0  0  1  0  0  0  0  0  0  0  0
   -0.0842    0.0200    0.4911 N   0  0  0  1  0  0  0  0  0  0  0  0
   -2.7770    3.4447    0.7427 H   0  0  0  1  0  0  0  0  0  0  0  0
   -2.4222    2.1992    2.2698 C   0  0  0  1  0  0  0  0  0  0  0  0
    0.0464   -1.4198    0.6574 C   0  0  0  1  0  0  0  0  0  0  0  0
   -3.4633    2.9150    3.1083 C   0  0  0  1  0  0  0  0  0  0  0  0
   -1.8053    1.2421    2.7078 O   0  0  0  1  0  0  0  0  0  0  0  0
    0.7069    0.5844    0.6177 H   0  0  0  1  0  0  0  0  0  0  0  0
   -0.7067   -1.9157    0.0813 H   0  0  0  1  0  0  0  0  0  0  0  0
   -0.0718   -1.6715    1.6906 H   0  0  0  1  0  0  0  0  0  0  0  0
    1.0139   -1.7310    0.3224 H   0  0  0  1  0  0  0  0  0  0  0  0
   -4.0432    2.1958    3.6481 H   0  0  0  1  0  0  0  0  0  0  0  0
   -4.1059    3.4838    2.4693 H   0  0  0  1  0  0  0  0  0  0  0  0
   -2.9754    3.5704    3.7992 H   0  0  0  1  0  0  0  0  0  0  0  0
   -0.8981    3.0643   -4.0526 F   0  0  0  1  0  0  0  0  0  0  0  0
   -1.9932    3.8095   -3.8939 C   0  0  0  1  0  0  0  0  0  0  0  0
   -1.5959    4.9331   -3.2948 F   0  0  0  1  0  0  0  0  0  0  0  0
   -2.3880    4.1588   -5.1190 F   0  0  0  1  0  0  0  0  0  0  0  0
   -3.0742    3.0922   -3.1203 C   0  0  0  1  0  0  0  0  0  0  0  0
   -2.7957    2.5589   -1.8714 C   0  0  0  1  0  0  0  0  0  0  0  0
   -3.7838    1.8980   -1.1664 C   0  0  0  1  0  0  0  0  0  0  0  0
   -5.0547    1.7731   -1.7056 C   0  0  0  1  0  0  0  0  0  0  0  0
   -5.3322    2.3049   -2.9508 C   0  0  0  1  0  0  0  0  0  0  0  0
   -4.3413    2.9678   -3.6580 C   0  0  0  1  0  0  0  0  0  0  0  0
   -1.4127    2.6996   -1.2806 C   0  0  0  1  0  0  0  0  0  0  0  0
   -3.5739    1.4944   -0.2312 H   0  0  0  1  0  0  0  0  0  0  0  0
   -5.7993    1.2793   -1.1733 H   0  0  0  1  0  0  0  0  0  0  0  0
   -6.2846    2.2078   -3.3571 H   0  0  0  1  0  0  0  0  0  0  0  0
   -4.5513    3.3714   -4.5932 H   0  0  0  1  0  0  0  0  0  0  0  0
   -0.7230    2.2072   -1.9339 H   0  0  0  1  0  0  0  0  0  0  0  0
   -1.1781    3.7426   -1.2342 H   0  0  0  1  0  0  0  0  0  0  0  0
  1  4  1  0  0  0  0
  2  4  1  0  0  0  0
  2  5  2  0  0  0  0
  2  6  1  0  0  0  0
  3  4  1  0  0  0  0
  3  7  1  0  0  0  0
  3  8  1  0  0  0  0
  4 29  1  0  0  0  0
  6  9  1  0  0  0  0
  6 12  1  0  0  0  0
  8 10  1  0  0  0  0
  8 11  2  0  0  0  0
  9 13  1  0  0  0  0
  9 14  1  0  0  0  0
  9 15  1  0  0  0  0
 10 16  1  0  0  0  0
 10 17  1  0  0  0  0
 10 18  1  0  0  0  0
 19 20  1  0  0  0  0
 20 21  1  0  0  0  0
 20 22  1  0  0  0  0
 20 23  1  0  0  0  0
 23 24  4  0  0  0  0
 23 28  4  0  0  0  0
 24 25  4  0  0  0  0
 24 29  1  0  0  0  0
 25 26  4  0  0  0  0
 25 30  1  0  0  0  0
 26 27  4  0  0  0  0
 26 31  1  0  0  0  0
 27 28  4  0  0  0  0
 27 32  1  0  0  0  0
 28 33  1  0  0  0  0
 29 34  1  0  0  0  0
 29 35  1  0  0  0  0
M  END
> <BCLConfClusterSize>
1

> <ConfClashScore>
0 

> <ConfOneFourInteractionScore>
-0.968652 

> <ConfScore>
0.537568 

> <ConfScorePBest>
0.00396045 

> <ConfTolerance>
0.840144 

> <RosettaParamsInstructions>
M  ROOT 3
M  POLY_N_BB 3
M  POLY_CA_BB 4
M  POLY_C_BB 2
M  POLY_O_BB 5
M  POLY_IGNORE 9 10 11 12 13 14 15 16 17 18 
M  POLY_UPPER 6
M  POLY_LOWER 8
M  POLY_CHG 0
M  POLY_PROPERTIES ALPHA_AA D_AA PROTEIN AROMATIC POLYMER 
M  END

$$$$



 35 35  0  0  0  0  0  0  0  0999 V2000
    0.0765    2.4856   -0.0207 H   0  0  0  1  0  0  0  0  0  0  0  0
   -0.2309    1.0417   -1.5179 C   0  0  0  1  0  0  0  0  0  0  0  0
   -1.5509    1.3234    0.5100 N   0  0  0  1  0  0  0  0  0  0  0  0
   -0.7651    2.0375   -0.5062 C   0  0  0  1  0  0  0  0  0  0  0  0
    0.1036    1.4248   -2.6358 O   0  0  0  1  0  0  0  0  0  0  0  0
   -0.0702   -0.2224   -1.0956 N   0  0  0  1  0  0  0  0  0  0  0  0
   -1.7114    0.3634    0.3952 H   0  0  0  1  0  0  0  0  0  0  0  0
   -2.0539    1.9373    1.5847 C   0  0  0  1  0  0  0  0  0  0  0  0
    0.4478   -1.2713   -1.9613 C   0  0  0  1  0  0  0  0  0  0  0  0
   -2.6632    1.0307    2.6363 C   0  0  0  1  0  0  0  0  0  0  0  0
   -2.0333    3.1487    1.7281 O   0  0  0  1  0  0  0  0  0  0  0  0
   -0.3102   -0.4468   -0.1723 H   0  0  0  1  0  0  0  0  0  0  0  0
    0.2562   -2.2266   -1.5190 H   0  0  0  1  0  0  0  0  0  0  0  0
    1.5025   -1.1416   -2.0864 H   0  0  0  1  0  0  0  0  0  0  0  0
   -0.0344   -1.2169   -2.9150 H   0  0  0  1  0  0  0  0  0  0  0  0
   -2.5405    0.0094    2.3419 H   0  0  0  1  0  0  0  0  0  0  0  0
   -3.7058    1.2502    2.7354 H   0  0  0  1  0  0  0  0  0  0  0  0
   -2.1734    1.1928    3.5737 H   0  0  0  1  0  0  0  0  0  0  0  0
   -2.2480    3.8484   -5.2080 F   0  0  0  1  0  0  0  0  0  0  0  0
   -1.9813    3.7856   -3.9023 C   0  0  0  1  0  0  0  0  0  0  0  0
   -0.8217    3.1360   -3.7895 F   0  0  0  1  0  0  0  0  0  0  0  0
   -1.7478    5.0381   -3.5082 F   0  0  0  1  0  0  0  0  0  0  0  0
   -3.0942    3.1273   -3.1140 C   0  0  0  1  0  0  0  0  0  0  0  0
   -2.8804    2.7825   -1.7884 C   0  0  0  1  0  0  0  0  0  0  0  0
   -3.8548    2.0979   -1.0869 C   0  0  0  1  0  0  0  0  0  0  0  0
   -5.0478    1.7607   -1.7071 C   0  0  0  1  0  0  0  0  0  0  0  0
   -5.2607    2.1046   -3.0287 C   0  0  0  1  0  0  0  0  0  0  0  0
   -4.2836    2.7912   -3.7325 C   0  0  0  1  0  0  0  0  0  0  0  0
   -1.5831    3.1546   -1.1102 C   0  0  0  1  0  0  0  0  0  0  0  0
   -3.6930    1.8356   -0.0936 H   0  0  0  1  0  0  0  0  0  0  0  0
   -5.7826    1.2491   -1.1780 H   0  0  0  1  0  0  0  0  0  0  0  0
   -6.1541    1.8481   -3.4952 H   0  0  0  1  0  0  0  0  0  0  0  0
   -4.4455    3.0535   -4.7257 H   0  0  0  1  0  0  0  0  0  0  0  0
   -0.9698    3.6430   -1.8384 H   0  0  0  1  0  0  0  0  0  0  0  0
   -1.8184    3.8406   -0.3235 H   0  0  0  1  0  0  0  0  0  0  0  0
  1  4  1  0  0  0  0
  2  4  1  0  0  0  0
  2  5  2  0  0  0  0
  2  6  1  0  0  0  0
  3  4  1  0  0  0  0
  3  7  1  0  0  0  0
  3  8  1  0  0  0  0
  4 29  1  0  0  0  0
  6  9  1  0  0  0  0
  6 12  1  0  0  0  0
  8 10  1  0  0  0  0
  8 11  2  0  0  0  0
  9 13  1  0  0  0  0
  9 14  1  0  0  0  0
  9 15  1  0  0  0  0
 10 16  1  0  0  0  0
 10 17  1  0  0  0  0
 10 18  1  0  0  0  0
 19 20  1  0  0  0  0
 20 21  1  0  0  0  0
 20 22  1  0  0  0  0
 20 23  1  0  0  0  0
 23 24  4  0  0  0  0
 23 28  4  0  0  0  0
 24 25  4  0  0  0  0
 24 29  1  0  0  0  0
 25 26  4  0  0  0  0
 25 30  1  0  0  0  0
 26 27  4  0  0  0  0
 26 31  1  0  0  0  0
 27 28  4  0  0  0  0
 27 32  1  0  0  0  0
 28 33  1  0  0  0  0
 29 34  1  0  0  0  0
 29 35  1  0  0  0  0
M  END
> <BCLConfClusterSize>
1

> <ConfClashScore>
0 

> <ConfOneFourInteractionScore>
-0.951253 

> <ConfScore>
0.546962 

> <ConfScorePBest>
0.00393197 

> <ConfTolerance>
0.870864 

> <RosettaParamsInstructions>
M  ROOT 3
M  POLY_N_BB 3
M  POLY_CA_BB 4
M  POLY_C_BB 2
M  POLY_O_BB 5
M  POLY_IGNORE 9 10 11 12 13 14 15 16 17 18 
M  POLY_UPPER 6
M  POLY_LOWER 8
M  POLY_CHG 0
M  POLY_PROPERTIES ALPHA_AA D_AA PROTEIN AROMATIC POLYMER 
M  END

$$$$



 35 35  0  0  0  0  0  0  0  0999 V2000
   -1.8888    2.6426    0.5366 H   0  0  0  1  0  0  0  0  0  0  0  0
   -1.0638    4.4536   -0.2249 C   0  0  0  1  0  0  0  0  0  0  0  0
    0.1912    2.5285    0.4486 N   0  0  0  1  0  0  0  0  0  0  0  0
   -1.0916    2.9345   -0.1146 C   0  0  0  1  0  0  0  0  0  0  0  0
   -1.8426    5.0535   -0.9611 O   0  0  0  1  0  0  0  0  0  0  0  0
   -0.1491    5.0720    0.5225 N   0  0  0  1  0  0  0  0  0  0  0  0
    0.2293    2.1385    1.3468 H   0  0  0  1  0  0  0  0  0  0  0  0
    1.3142    2.6873   -0.2575 C   0  0  0  1  0  0  0  0  0  0  0  0
    0.0531    6.5079    0.3911 C   0  0  0  1  0  0  0  0  0  0  0  0
    2.5729    2.1215    0.3708 C   0  0  0  1  0  0  0  0  0  0  0  0
    1.3446    3.2534   -1.3494 O   0  0  0  1  0  0  0  0  0  0  0  0
    0.3882    4.5590    1.1616 H   0  0  0  1  0  0  0  0  0  0  0  0
    0.0310    6.7785   -0.6439 H   0  0  0  1  0  0  0  0  0  0  0  0
    1.0016    6.7739    0.8089 H   0  0  0  1  0  0  0  0  0  0  0  0
   -0.7246    7.0265    0.9117 H   0  0  0  1  0  0  0  0  0  0  0  0
    2.3731    1.8464    1.3853 H   0  0  0  1  0  0  0  0  0  0  0  0
    3.3461    2.8608    0.3477 H   0  0  0  1  0  0  0  0  0  0  0  0
    2.8878    1.2581   -0.1772 H   0  0  0  1  0  0  0  0  0  0  0  0
   -1.4819    4.8510   -3.2061 F   0  0  0  1  0  0  0  0  0  0  0  0
   -1.9971    3.8252   -3.8860 C   0  0  0  1  0  0  0  0  0  0  0  0
   -2.4423    4.3279   -5.0386 F   0  0  0  1  0  0  0  0  0  0  0  0
   -0.9720    3.0303   -4.1961 F   0  0  0  1  0  0  0  0  0  0  0  0
   -3.0763    3.1032   -3.1143 C   0  0  0  1  0  0  0  0  0  0  0  0
   -2.7589    2.4238   -1.9484 C   0  0  0  1  0  0  0  0  0  0  0  0
   -3.7461    1.7589   -1.2457 C   0  0  0  1  0  0  0  0  0  0  0  0
   -5.0542    1.7758   -1.7038 C   0  0  0  1  0  0  0  0  0  0  0  0
   -5.3705    2.4533   -2.8662 C   0  0  0  1  0  0  0  0  0  0  0  0
   -4.3806    3.1202   -3.5712 C   0  0  0  1  0  0  0  0  0  0  0  0
   -1.3231    2.3233   -1.4904 C   0  0  0  1  0  0  0  0  0  0  0  0
   -3.5073    1.2458   -0.3731 H   0  0  0  1  0  0  0  0  0  0  0  0
   -5.7977    1.2789   -1.1728 H   0  0  0  1  0  0  0  0  0  0  0  0
   -6.3512    2.4626   -3.2121 H   0  0  0  1  0  0  0  0  0  0  0  0
   -4.6194    3.6332   -4.4437 H   0  0  0  1  0  0  0  0  0  0  0  0
   -1.0486    1.2897   -1.4544 H   0  0  0  1  0  0  0  0  0  0  0  0
   -0.7034    2.8330   -2.1982 H   0  0  0  1  0  0  0  0  0  0  0  0
  1  4  1  0  0  0  0
  2  4  1  0  0  0  0
  2  5  2  0  0  0  0
  2  6  1  0  0  0  0
  3  4  1  0  0  0  0
  3  7  1  0  0  0  0
  3  8  1  0  0  0  0
  4 29  1  0  0  0  0
  6  9  1  0  0  0  0
  6 12  1  0  0  0  0
  8 10  1  0  0  0  0
  8 11  2  0  0  0  0
  9 13  1  0  0  0  0
  9 14  1  0  0  0  0
  9 15  1  0  0  0  0
 10 16  1  0  0  0  0
 10 17  1  0  0  0  0
 10 18  1  0  0  0  0
 19 20  1  0  0  0  0
 20 21  1  0  0  0  0
 20 22  1  0  0  0  0
 20 23  1  0  0  0  0
 23 24  4  0  0  0  0
 23 28  4  0  0  0  0
 24 25  4  0  0  0  0
 24 29  1  0  0  0  0
 25 26  4  0  0  0  0
 25 30  1  0  0  0  0
 26 27  4  0  0  0  0
 26 31  1  0  0  0  0
 27 28  4  0  0  0  0
 27 32  1  0  0  0  0
 28 33  1  0  0  0  0
 29 34  1  0  0  0  0
 29 35  1  0  0  0  0
M  END
> <BCLConfClusterSize>
1

> <ConfClashScore>
0 

> <ConfOneFourInteractionScore>
-0.938304 

> <ConfScore>
0.55194 

> <ConfScorePBest>
0.00390349 

> <ConfTolerance>
0.720974 

> <RosettaParamsInstructions>
M  ROOT 3
M  POLY_N_BB 3
M  POLY_CA_BB 4
M  POLY_C_BB 2
M  POLY_O_BB 5
M  POLY_IGNORE 9 10 11 12 13 14 15 16 17 18 
M  POLY_UPPER 6
M  POLY_LOWER 8
M  POLY_CHG 0
M  POLY_PROPERTIES ALPHA_AA D_AA PROTEIN AROMATIC POLYMER 
M  END

$$$$



 35 35  0  0  0  0  0  0  0  0999 V2000
   -1.1022    0.6828   -2.7384 H   0  0  0  1  0  0  0  0  0  0  0  0
   -0.9573   -0.0272   -0.7647 C   0  0  0  1  0  0  0  0  0  0  0  0
    0.7635    1.2042   -2.0363 N   0  0  0  1  0  0  0  0  0  0  0  0
   -0.6677    1.0226   -1.8215 C   0  0  0  1  0  0  0  0  0  0  0  0
   -1.9902   -0.0763   -0.1174 O   0  0  0  1  0  0  0  0  0  0  0  0
    0.0037   -0.9332   -0.5627 N   0  0  0  1  0  0  0  0  0  0  0  0
    1.0938    1.1513   -2.9574 H   0  0  0  1  0  0  0  0  0  0  0  0
    1.6567    1.4370   -1.0733 C   0  0  0  1  0  0  0  0  0  0  0  0
   -0.1279   -1.9997    0.4170 C   0  0  0  1  0  0  0  0  0  0  0  0
    3.0694    1.7276   -1.5414 C   0  0  0  1  0  0  0  0  0  0  0  0
    1.3717    1.4211    0.1212 O   0  0  0  1  0  0  0  0  0  0  0  0
    0.8257   -0.8771   -1.0932 H   0  0  0  1  0  0  0  0  0  0  0  0
    0.8359   -2.2401    0.8148 H   0  0  0  1  0  0  0  0  0  0  0  0
   -0.5457   -2.8656   -0.0527 H   0  0  0  1  0  0  0  0  0  0  0  0
   -0.7706   -1.6782    1.2097 H   0  0  0  1  0  0  0  0  0  0  0  0
    3.4656    0.8663   -2.0374 H   0  0  0  1  0  0  0  0  0  0  0  0
    3.6824    1.9666   -0.6976 H   0  0  0  1  0  0  0  0  0  0  0  0
    3.0569    2.5551   -2.2196 H   0  0  0  1  0  0  0  0  0  0  0  0
   -1.3452    4.7132   -3.1441 F   0  0  0  1  0  0  0  0  0  0  0  0
   -1.9955    3.8178   -3.8893 C   0  0  0  1  0  0  0  0  0  0  0  0
   -2.4768    4.4856   -4.9389 F   0  0  0  1  0  0  0  0  0  0  0  0
   -1.0687    2.9869   -4.3681 F   0  0  0  1  0  0  0  0  0  0  0  0
   -3.0753    3.0973   -3.1172 C   0  0  0  1  0  0  0  0  0  0  0  0
   -2.7545    2.3983   -1.9639 C   0  0  0  1  0  0  0  0  0  0  0  0
   -3.7422    1.7347   -1.2608 C   0  0  0  1  0  0  0  0  0  0  0  0
   -5.0545    1.7726   -1.7059 C   0  0  0  1  0  0  0  0  0  0  0  0
   -5.3742    2.4695   -2.8557 C   0  0  0  1  0  0  0  0  0  0  0  0
   -4.3837    3.1351   -3.5610 C   0  0  0  1  0  0  0  0  0  0  0  0
   -1.3258    2.3614   -1.4751 C   0  0  0  1  0  0  0  0  0  0  0  0
   -3.5010    1.2070   -0.3978 H   0  0  0  1  0  0  0  0  0  0  0  0
   -5.7983    1.2766   -1.1746 H   0  0  0  1  0  0  0  0  0  0  0  0
   -6.3580    2.4946   -3.1919 H   0  0  0  1  0  0  0  0  0  0  0  0
   -4.6250    3.6628   -4.4241 H   0  0  0  1  0  0  0  0  0  0  0  0
   -0.7757    3.1532   -1.9391 H   0  0  0  1  0  0  0  0  0  0  0  0
   -1.3147    2.4933   -0.4133 H   0  0  0  1  0  0  0  0  0  0  0  0
  1  4  1  0  0  0  0
  2  4  1  0  0  0  0
  2  5  2  0  0  0  0
  2  6  1  0  0  0  0
  3  4  1  0  0  0  0
  3  7  1  0  0  0  0
  3  8  1  0  0  0  0
  4 29  1  0  0  0  0
  6  9  1  0  0  0  0
  6 12  1  0  0  0  0
  8 10  1  0  0  0  0
  8 11  2  0  0  0  0
  9 13  1  0  0  0  0
  9 14  1  0  0  0  0
  9 15  1  0  0  0  0
 10 16  1  0  0  0  0
 10 17  1  0  0  0  0
 10 18  1  0  0  0  0
 19 20  1  0  0  0  0
 20 21  1  0  0  0  0
 20 22  1  0  0  0  0
 20 23  1  0  0  0  0
 23 24  4  0  0  0  0
 23 28  4  0  0  0  0
 24 25  4  0  0  0  0
 24 29  1  0  0  0  0
 25 26  4  0  0  0  0
 25 30  1  0  0  0  0
 26 27  4  0  0  0  0
 26 31  1  0  0  0  0
 27 28  4  0  0  0  0
 27 32  1  0  0  0  0
 28 33  1  0  0  0  0
 29 34  1  0  0  0  0
 29 35  1  0  0  0  0
M  END
> <BCLConfClusterSize>
1

> <ConfClashScore>
0 

> <ConfOneFourInteractionScore>
-0.949684 

> <ConfScore>
0.55198 

> <ConfScorePBest>
0.00387501 

> <ConfTolerance>
0.752257 

> <RosettaParamsInstructions>
M  ROOT 3
M  POLY_N_BB 3
M  POLY_CA_BB 4
M  POLY_C_BB 2
M  POLY_O_BB 5
M  POLY_IGNORE 9 10 11 12 13 14 15 16 17 18 
M  POLY_UPPER 6
M  POLY_LOWER 8
M  POLY_CHG 0
M  POLY_PROPERTIES ALPHA_AA D_AA PROTEIN AROMATIC POLYMER 
M  END

$$$$



 35 35  0  0  0  0  0  0  0  0999 V2000
   -1.7961    1.7532    0.5531 H   0  0  0  1  0  0  0  0  0  0  0  0
    0.2684    2.1031    0.3793 C   0  0  0  1  0  0  0  0  0  0  0  0
   -1.1015    0.5689   -0.9793 N   0  0  0  1  0  0  0  0  0  0  0  0
   -1.0856    1.8246   -0.2438 C   0  0  0  1  0  0  0  0  0  0  0  0
    0.7397    3.2393    0.4008 O   0  0  0  1  0  0  0  0  0  0  0  0
    0.9027    1.0388    0.8959 N   0  0  0  1  0  0  0  0  0  0  0  0
   -1.8377   -0.0595   -0.8263 H   0  0  0  1  0  0  0  0  0  0  0  0
   -0.1432    0.2418   -1.8596 C   0  0  0  1  0  0  0  0  0  0  0  0
    2.2585    1.1192    1.4153 C   0  0  0  1  0  0  0  0  0  0  0  0
   -0.3215   -1.0897   -2.5629 C   0  0  0  1  0  0  0  0  0  0  0  0
    0.8238    0.9619   -2.0938 O   0  0  0  1  0  0  0  0  0  0  0  0
    0.4357    0.1776    0.9241 H   0  0  0  1  0  0  0  0  0  0  0  0
    2.2272    1.2571    2.4759 H   0  0  0  1  0  0  0  0  0  0  0  0
    2.7649    1.9462    0.9631 H   0  0  0  1  0  0  0  0  0  0  0  0
    2.7812    0.2133    1.1890 H   0  0  0  1  0  0  0  0  0  0  0  0
   -1.3374   -1.1911   -2.8833 H   0  0  0  1  0  0  0  0  0  0  0  0
   -0.0794   -1.8843   -1.8885 H   0  0  0  1  0  0  0  0  0  0  0  0
    0.3264   -1.1331   -3.4133 H   0  0  0  1  0  0  0  0  0  0  0  0
   -2.4351    4.5732   -4.8771 F   0  0  0  1  0  0  0  0  0  0  0  0
   -1.9764    3.8008   -3.8906 C   0  0  0  1  0  0  0  0  0  0  0  0
   -1.1183    2.9587   -4.4481 F   0  0  0  1  0  0  0  0  0  0  0  0
   -1.2605    4.5928   -3.1005 F   0  0  0  1  0  0  0  0  0  0  0  0
   -3.0872    3.0894   -3.1464 C   0  0  0  1  0  0  0  0  0  0  0  0
   -2.8444    2.7015   -1.8379 C   0  0  0  1  0  0  0  0  0  0  0  0
   -3.8250    2.0444   -1.1189 C   0  0  0  1  0  0  0  0  0  0  0  0
   -5.0529    1.7780   -1.7042 C   0  0  0  1  0  0  0  0  0  0  0  0
   -5.2948    2.1648   -3.0088 C   0  0  0  1  0  0  0  0  0  0  0  0
   -4.3116    2.8238   -3.7302 C   0  0  0  1  0  0  0  0  0  0  0  0
   -1.5290    2.9692   -1.1455 C   0  0  0  1  0  0  0  0  0  0  0  0
   -3.6415    1.7497   -0.1385 H   0  0  0  1  0  0  0  0  0  0  0  0
   -5.7921    1.2871   -1.1617 H   0  0  0  1  0  0  0  0  0  0  0  0
   -6.2147    1.9614   -3.4493 H   0  0  0  1  0  0  0  0  0  0  0  0
   -4.4951    3.1185   -4.7106 H   0  0  0  1  0  0  0  0  0  0  0  0
   -0.7776    3.1263   -1.8908 H   0  0  0  1  0  0  0  0  0  0  0  0
   -1.6313    3.8521   -0.5497 H   0  0  0  1  0  0  0  0  0  0  0  0
  1  4  1  0  0  0  0
  2  4  1  0  0  0  0
  2  5  2  0  0  0  0
  2  6  1  0  0  0  0
  3  4  1  0  0  0  0
  3  7  1  0  0  0  0
  3  8  1  0  0  0  0
  4 29  1  0  0  0  0
  6  9  1  0  0  0  0
  6 12  1  0  0  0  0
  8 10  1  0  0  0  0
  8 11  2  0  0  0  0
  9 13  1  0  0  0  0
  9 14  1  0  0  0  0
  9 15  1  0  0  0  0
 10 16  1  0  0  0  0
 10 17  1  0  0  0  0
 10 18  1  0  0  0  0
 19 20  1  0  0  0  0
 20 21  1  0  0  0  0
 20 22  1  0  0  0  0
 20 23  1  0  0  0  0
 23 24  4  0  0  0  0
 23 28  4  0  0  0  0
 24 25  4  0  0  0  0
 24 29  1  0  0  0  0
 25 26  4  0  0  0  0
 25 30  1  0  0  0  0
 26 27  4  0  0  0  0
 26 31  1  0  0  0  0
 27 28  4  0  0  0  0
 27 32  1  0  0  0  0
 28 33  1  0  0  0  0
 29 34  1  0  0  0  0
 29 35  1  0  0  0  0
M  END
> <BCLConfClusterSize>
1

> <ConfClashScore>
0 

> <ConfOneFourInteractionScore>
-0.949923 

> <ConfScore>
0.555567 

> <ConfScorePBest>
0.00384653 

> <ConfTolerance>
0.726691 

> <RosettaParamsInstructions>
M  ROOT 3
M  POLY_N_BB 3
M  POLY_CA_BB 4
M  POLY_C_BB 2
M  POLY_O_BB 5
M  POLY_IGNORE 9 10 11 12 13 14 15 16 17 18 
M  POLY_UPPER 6
M  POLY_LOWER 8
M  POLY_CHG 0
M  POLY_PROPERTIES ALPHA_AA D_AA PROTEIN AROMATIC POLYMER 
M  END

$$$$



 35 35  0  0  0  0  0  0  0  0999 V2000
   -2.0174    2.8939    0.7449 H   0  0  0  1  0  0  0  0  0  0  0  0
   -1.7640    4.8291   -0.0901 C   0  0  0  1  0  0  0  0  0  0  0  0
    0.0154    3.3044    0.5883 N   0  0  0  1  0  0  0  0  0  0  0  0
   -1.3431    3.3814    0.0722 C   0  0  0  1  0  0  0  0  0  0  0  0
   -2.6670    5.3103    0.5892 O   0  0  0  1  0  0  0  0  0  0  0  0
   -1.0928    5.5292   -1.0090 N   0  0  0  1  0  0  0  0  0  0  0  0
    0.7190    2.9350    0.0148 H   0  0  0  1  0  0  0  0  0  0  0  0
    0.3469    3.7330    1.8557 C   0  0  0  1  0  0  0  0  0  0  0  0
   -1.3752    6.9314   -1.2772 C   0  0  0  1  0  0  0  0  0  0  0  0
    1.7862    3.5692    2.2482 C   0  0  0  1  0  0  0  0  0  0  0  0
   -0.5081    4.2109    2.5830 O   0  0  0  1  0  0  0  0  0  0  0  0
   -0.3857    5.0829   -1.5202 H   0  0  0  1  0  0  0  0  0  0  0  0
   -1.2541    7.1265   -2.3223 H   0  0  0  1  0  0  0  0  0  0  0  0
   -0.6983    7.5443   -0.7194 H   0  0  0  1  0  0  0  0  0  0  0  0
   -2.3807    7.1543   -0.9872 H   0  0  0  1  0  0  0  0  0  0  0  0
    2.1641    2.6526    1.8458 H   0  0  0  1  0  0  0  0  0  0  0  0
    1.8647    3.5491    3.3152 H   0  0  0  1  0  0  0  0  0  0  0  0
    2.3561    4.3890    1.8635 H   0  0  0  1  0  0  0  0  0  0  0  0
   -0.8893    3.0735   -4.0320 F   0  0  0  1  0  0  0  0  0  0  0  0
   -1.9933    3.8097   -3.8938 C   0  0  0  1  0  0  0  0  0  0  0  0
   -1.6128    4.9455   -3.3068 F   0  0  0  1  0  0  0  0  0  0  0  0
   -2.3800    4.1379   -5.1273 F   0  0  0  1  0  0  0  0  0  0  0  0
   -3.0742    3.0924   -3.1202 C   0  0  0  1  0  0  0  0  0  0  0  0
   -2.7945    2.5553   -1.8732 C   0  0  0  1  0  0  0  0  0  0  0  0
   -3.7827    1.8944   -1.1682 C   0  0  0  1  0  0  0  0  0  0  0  0
   -5.0547    1.7731   -1.7056 C   0  0  0  1  0  0  0  0  0  0  0  0
   -5.3333    2.3086   -2.9489 C   0  0  0  1  0  0  0  0  0  0  0  0
   -4.3424    2.9715   -3.6562 C   0  0  0  1  0  0  0  0  0  0  0  0
   -1.4103    2.6921   -1.2844 C   0  0  0  1  0  0  0  0  0  0  0  0
   -3.5719    1.4880   -0.2344 H   0  0  0  1  0  0  0  0  0  0  0  0
   -5.7993    1.2793   -1.1734 H   0  0  0  1  0  0  0  0  0  0  0  0
   -6.2866    2.2142   -3.3539 H   0  0  0  1  0  0  0  0  0  0  0  0
   -4.5533    3.3779   -4.5900 H   0  0  0  1  0  0  0  0  0  0  0  0
   -0.9991    1.7102   -1.1764 H   0  0  0  1  0  0  0  0  0  0  0  0
   -0.8138    3.2557   -1.9709 H   0  0  0  1  0  0  0  0  0  0  0  0
  1  4  1  0  0  0  0
  2  4  1  0  0  0  0
  2  5  2  0  0  0  0
  2  6  1  0  0  0  0
  3  4  1  0  0  0  0
  3  7  1  0  0  0  0
  3  8  1  0  0  0  0
  4 29  1  0  0  0  0
  6  9  1  0  0  0  0
  6 12  1  0  0  0  0
  8 10  1  0  0  0  0
  8 11  2  0  0  0  0
  9 13  1  0  0  0  0
  9 14  1  0  0  0  0
  9 15  1  0  0  0  0
 10 16  1  0  0  0  0
 10 17  1  0  0  0  0
 10 18  1  0  0  0  0
 19 20  1  0  0  0  0
 20 21  1  0  0  0  0
 20 22  1  0  0  0  0
 20 23  1  0  0  0  0
 23 24  4  0  0  0  0
 23 28  4  0  0  0  0
 24 25  4  0  0  0  0
 24 29  1  0  0  0  0
 25 26  4  0  0  0  0
 25 30  1  0  0  0  0
 26 27  4  0  0  0  0
 26 31  1  0  0  0  0
 27 28  4  0  0  0  0
 27 32  1  0  0  0  0
 28 33  1  0  0  0  0
 29 34  1  0  0  0  0
 29 35  1  0  0  0  0
M  END
> <BCLConfClusterSize>
1

> <ConfClashScore>
0 

> <ConfOneFourInteractionScore>
-0.952541 

> <ConfScore>
0.558903 

> <ConfScorePBest>
0.00381805 

> <ConfTolerance>
0.624984 

> <RosettaParamsInstructions>
M  ROOT 3
M  POLY_N_BB 3
M  POLY_CA_BB 4
M  POLY_C_BB 2
M  POLY_O_BB 5
M  POLY_IGNORE 9 10 11 12 13 14 15 16 17 18 
M  POLY_UPPER 6
M  POLY_LOWER 8
M  POLY_CHG 0
M  POLY_PROPERTIES ALPHA_AA D_AA PROTEIN AROMATIC POLYMER 
M  END

$$$$



 35 35  0  0  0  0  0  0  0  0999 V2000
   -1.3723    4.8058   -1.0588 H   0  0  0  1  0  0  0  0  0  0  0  0
    0.0538    4.1397    0.3135 C   0  0  0  1  0  0  0  0  0  0  0  0
   -2.3800    4.1519    0.5974 N   0  0  0  1  0  0  0  0  0  0  0  0
   -1.2966    3.9866   -0.3745 C   0  0  0  1  0  0  0  0  0  0  0  0
    0.5758    5.2446    0.4568 O   0  0  0  1  0  0  0  0  0  0  0  0
    0.6215    3.0018    0.7437 N   0  0  0  1  0  0  0  0  0  0  0  0
   -2.7982    3.3397    0.9522 H   0  0  0  1  0  0  0  0  0  0  0  0
   -2.8416    5.3279    1.0373 C   0  0  0  1  0  0  0  0  0  0  0  0
    1.8580    3.0976    1.5051 C   0  0  0  1  0  0  0  0  0  0  0  0
   -4.0625    5.2972    1.9571 C   0  0  0  1  0  0  0  0  0  0  0  0
   -2.3724    6.4021    0.6637 O   0  0  0  1  0  0  0  0  0  0  0  0
    0.2148    2.1314    0.5505 H   0  0  0  1  0  0  0  0  0  0  0  0
    2.5979    2.4613    1.0662 H   0  0  0  1  0  0  0  0  0  0  0  0
    1.6793    2.7927    2.5150 H   0  0  0  1  0  0  0  0  0  0  0  0
    2.2061    4.1094    1.4938 H   0  0  0  1  0  0  0  0  0  0  0  0
   -4.2240    6.2715    2.3690 H   0  0  0  1  0  0  0  0  0  0  0  0
   -3.8940    4.5986    2.7499 H   0  0  0  1  0  0  0  0  0  0  0  0
   -4.9239    5.0001    1.3963 H   0  0  0  1  0  0  0  0  0  0  0  0
   -0.9210    3.0180   -4.0541 F   0  0  0  1  0  0  0  0  0  0  0  0
   -1.9886    3.8037   -3.9028 C   0  0  0  1  0  0  0  0  0  0  0  0
   -1.5485    4.9240   -3.3279 F   0  0  0  1  0  0  0  0  0  0  0  0
   -2.3800    4.1434   -5.1332 F   0  0  0  1  0  0  0  0  0  0  0  0
   -3.0910    3.1374   -3.1066 C   0  0  0  1  0  0  0  0  0  0  0  0
   -2.8026    2.5911   -1.8657 C   0  0  0  1  0  0  0  0  0  0  0  0
   -3.7776    1.8993   -1.1719 C   0  0  0  1  0  0  0  0  0  0  0  0
   -5.0451    1.7565   -1.7144 C   0  0  0  1  0  0  0  0  0  0  0  0
   -5.3325    2.3013   -2.9517 C   0  0  0  1  0  0  0  0  0  0  0  0
   -4.3549    2.9951   -3.6477 C   0  0  0  1  0  0  0  0  0  0  0  0
   -1.4424    2.7191   -1.2216 C   0  0  0  1  0  0  0  0  0  0  0  0
   -3.5601    1.4859   -0.2427 H   0  0  0  1  0  0  0  0  0  0  0  0
   -5.7798    1.2394   -1.1905 H   0  0  0  1  0  0  0  0  0  0  0  0
   -6.2823    2.1907   -3.3606 H   0  0  0  1  0  0  0  0  0  0  0  0
   -4.5724    3.4084   -4.5769 H   0  0  0  1  0  0  0  0  0  0  0  0
   -1.2821    1.8686   -0.5924 H   0  0  0  1  0  0  0  0  0  0  0  0
   -0.7008    2.7376   -1.9928 H   0  0  0  1  0  0  0  0  0  0  0  0
  1  4  1  0  0  0  0
  2  4  1  0  0  0  0
  2  5  2  0  0  0  0
  2  6  1  0  0  0  0
  3  4  1  0  0  0  0
  3  7  1  0  0  0  0
  3  8  1  0  0  0  0
  4 29  1  0  0  0  0
  6  9  1  0  0  0  0
  6 12  1  0  0  0  0
  8 10  1  0  0  0  0
  8 11  2  0  0  0  0
  9 13  1  0  0  0  0
  9 14  1  0  0  0  0
  9 15  1  0  0  0  0
 10 16  1  0  0  0  0
 10 17  1  0  0  0  0
 10 18  1  0  0  0  0
 19 20  1  0  0  0  0
 20 21  1  0  0  0  0
 20 22  1  0  0  0  0
 20 23  1  0  0  0  0
 23 24  4  0  0  0  0
 23 28  4  0  0  0  0
 24 25  4  0  0  0  0
 24 29  1  0  0  0  0
 25 26  4  0  0  0  0
 25 30  1  0  0  0  0
 26 27  4  0  0  0  0
 26 31  1  0  0  0  0
 27 28  4  0  0  0  0
 27 32  1  0  0  0  0
 28 33  1  0  0  0  0
 29 34  1  0  0  0  0
 29 35  1  0  0  0  0
M  END
> <BCLConfClusterSize>
1

> <ConfClashScore>
0 

> <ConfOneFourInteractionScore>
-0.952541 

> <ConfScore>
0.560429 

> <ConfScorePBest>
0.00378957 

> <ConfTolerance>
0.795038 

> <RosettaParamsInstructions>
M  ROOT 3
M  POLY_N_BB 3
M  POLY_CA_BB 4
M  POLY_C_BB 2
M  POLY_O_BB 5
M  POLY_IGNORE 9 10 11 12 13 14 15 16 17 18 
M  POLY_UPPER 6
M  POLY_LOWER 8
M  POLY_CHG 0
M  POLY_PROPERTIES ALPHA_AA D_AA PROTEIN AROMATIC POLYMER 
M  END

$$$$



 35 35  0  0  0  0  0  0  0  0999 V2000
   -0.1276    2.8527   -2.7117 H   0  0  0  1  0  0  0  0  0  0  0  0
   -0.6129    0.8815   -2.1960 C   0  0  0  1  0  0  0  0  0  0  0  0
    0.8852    2.4510   -0.9819 N   0  0  0  1  0  0  0  0  0  0  0  0
   -0.3106    2.3226   -1.8005 C   0  0  0  1  0  0  0  0  0  0  0  0
    0.0765    0.3692   -3.0768 O   0  0  0  1  0  0  0  0  0  0  0  0
   -1.6050    0.2526   -1.5694 N   0  0  0  1  0  0  0  0  0  0  0  0
    0.9601    3.2351   -0.3988 H   0  0  0  1  0  0  0  0  0  0  0  0
    1.8965    1.5605   -0.9745 C   0  0  0  1  0  0  0  0  0  0  0  0
   -2.0827   -1.0567   -1.9883 C   0  0  0  1  0  0  0  0  0  0  0  0
    2.9704    1.8385   -0.0497 C   0  0  0  1  0  0  0  0  0  0  0  0
    1.9204    0.5902   -1.6858 O   0  0  0  1  0  0  0  0  0  0  0  0
   -2.0283    0.6864   -0.7994 H   0  0  0  1  0  0  0  0  0  0  0  0
   -1.6253   -1.3231   -2.9182 H   0  0  0  1  0  0  0  0  0  0  0  0
   -3.1454   -1.0262   -2.1097 H   0  0  0  1  0  0  0  0  0  0  0  0
   -1.8288   -1.7833   -1.2451 H   0  0  0  1  0  0  0  0  0  0  0  0
    2.7768    1.3467    0.8807 H   0  0  0  1  0  0  0  0  0  0  0  0
    3.0372    2.8940    0.1121 H   0  0  0  1  0  0  0  0  0  0  0  0
    3.8929    1.4805   -0.4568 H   0  0  0  1  0  0  0  0  0  0  0  0
   -2.4790    4.5439   -4.8921 F   0  0  0  1  0  0  0  0  0  0  0  0
   -1.9902    3.8015   -3.8971 C   0  0  0  1  0  0  0  0  0  0  0  0
   -1.1196    2.9583   -4.4542 F   0  0  0  1  0  0  0  0  0  0  0  0
   -1.2742    4.6268   -3.1325 F   0  0  0  1  0  0  0  0  0  0  0  0
   -3.0725    3.0876   -3.1223 C   0  0  0  1  0  0  0  0  0  0  0  0
   -2.8444    2.6962   -1.8122 C   0  0  0  1  0  0  0  0  0  0  0  0
   -3.8334    2.0382   -1.1055 C   0  0  0  1  0  0  0  0  0  0  0  0
   -5.0550    1.7744   -1.7050 C   0  0  0  1  0  0  0  0  0  0  0  0
   -5.2823    2.1646   -3.0112 C   0  0  0  1  0  0  0  0  0  0  0  0
   -4.2906    2.8246   -3.7201 C   0  0  0  1  0  0  0  0  0  0  0  0
   -1.5155    2.9885   -1.1563 C   0  0  0  1  0  0  0  0  0  0  0  0
   -3.6609    1.7410   -0.1239 H   0  0  0  1  0  0  0  0  0  0  0  0
   -5.8005    1.2828   -1.1719 H   0  0  0  1  0  0  0  0  0  0  0  0
   -6.1974    1.9631   -3.4623 H   0  0  0  1  0  0  0  0  0  0  0  0
   -4.4631    3.1217   -4.7017 H   0  0  0  1  0  0  0  0  0  0  0  0
   -1.3606    4.0469   -1.1819 H   0  0  0  1  0  0  0  0  0  0  0  0
   -1.5699    2.6600   -0.1395 H   0  0  0  1  0  0  0  0  0  0  0  0
  1  4  1  0  0  0  0
  2  4  1  0  0  0  0
  2  5  2  0  0  0  0
  2  6  1  0  0  0  0
  3  4  1  0  0  0  0
  3  7  1  0  0  0  0
  3  8  1  0  0  0  0
  4 29  1  0  0  0  0
  6  9  1  0  0  0  0
  6 12  1  0  0  0  0
  8 10  1  0  0  0  0
  8 11  2  0  0  0  0
  9 13  1  0  0  0  0
  9 14  1  0  0  0  0
  9 15  1  0  0  0  0
 10 16  1  0  0  0  0
 10 17  1  0  0  0  0
 10 18  1  0  0  0  0
 19 20  1  0  0  0  0
 20 21  1  0  0  0  0
 20 22  1  0  0  0  0
 20 23  1  0  0  0  0
 23 24  4  0  0  0  0
 23 28  4  0  0  0  0
 24 25  4  0  0  0  0
 24 29  1  0  0  0  0
 25 26  4  0  0  0  0
 25 30  1  0  0  0  0
 26 27  4  0  0  0  0
 26 31  1  0  0  0  0
 27 28  4  0  0  0  0
 27 32  1  0  0  0  0
 28 33  1  0  0  0  0
 29 34  1  0  0  0  0
 29 35  1  0  0  0  0
M  END
> <BCLConfClusterSize>
1

> <ConfClashScore>
0 

> <ConfOneFourInteractionScore>
-0.946944 

> <ConfScore>
0.566229 

> <ConfScorePBest>
0.00376109 

> <ConfTolerance>
0.8262 

> <RosettaParamsInstructions>
M  ROOT 3
M  POLY_N_BB 3
M  POLY_CA_BB 4
M  POLY_C_BB 2
M  POLY_O_BB 5
M  POLY_IGNORE 9 10 11 12 13 14 15 16 17 18 
M  POLY_UPPER 6
M  POLY_LOWER 8
M  POLY_CHG 0
M  POLY_PROPERTIES ALPHA_AA D_AA PROTEIN AROMATIC POLYMER 
M  END

$$$$



 35 35  0  0  0  0  0  0  0  0999 V2000
    0.1102    2.2191   -0.1466 H   0  0  0  1  0  0  0  0  0  0  0  0
   -0.4513    0.9305   -1.7144 C   0  0  0  1  0  0  0  0  0  0  0  0
   -1.6278    1.2655    0.4570 N   0  0  0  1  0  0  0  0  0  0  0  0
   -0.8021    1.8760   -0.5880 C   0  0  0  1  0  0  0  0  0  0  0  0
   -0.8480    1.1393   -2.8602 O   0  0  0  1  0  0  0  0  0  0  0  0
    0.3008   -0.1359   -1.4280 N   0  0  0  1  0  0  0  0  0  0  0  0
   -1.9040    1.8339    1.2060 H   0  0  0  1  0  0  0  0  0  0  0  0
   -2.0319   -0.0056    0.4657 C   0  0  0  1  0  0  0  0  0  0  0  0
    0.8157   -1.0238   -2.4598 C   0  0  0  1  0  0  0  0  0  0  0  0
   -2.7246   -0.4891    1.7427 C   0  0  0  1  0  0  0  0  0  0  0  0
   -1.8978   -0.8059   -0.4469 O   0  0  0  1  0  0  0  0  0  0  0  0
    0.5132   -0.3270   -0.4906 H   0  0  0  1  0  0  0  0  0  0  0  0
    0.3838   -0.7631   -3.4034 H   0  0  0  1  0  0  0  0  0  0  0  0
    0.5621   -2.0350   -2.2189 H   0  0  0  1  0  0  0  0  0  0  0  0
    1.8798   -0.9260   -2.5156 H   0  0  0  1  0  0  0  0  0  0  0  0
   -3.1203   -1.4706    1.5847 H   0  0  0  1  0  0  0  0  0  0  0  0
   -3.5212    0.1805    1.9914 H   0  0  0  1  0  0  0  0  0  0  0  0
   -2.0164   -0.5151    2.5443 H   0  0  0  1  0  0  0  0  0  0  0  0
   -2.3590    3.9088   -5.1925 F   0  0  0  1  0  0  0  0  0  0  0  0
   -2.0010    3.8085   -3.9112 C   0  0  0  1  0  0  0  0  0  0  0  0
   -0.8491    3.1543   -3.8934 F   0  0  0  1  0  0  0  0  0  0  0  0
   -1.7609    5.0445   -3.4716 F   0  0  0  1  0  0  0  0  0  0  0  0
   -3.0540    3.0910   -3.1002 C   0  0  0  1  0  0  0  0  0  0  0  0
   -2.8619    2.7492   -1.7706 C   0  0  0  1  0  0  0  0  0  0  0  0
   -3.8575    2.0879   -1.0764 C   0  0  0  1  0  0  0  0  0  0  0  0
   -5.0500    1.7712   -1.7082 C   0  0  0  1  0  0  0  0  0  0  0  0
   -5.2414    2.1121   -3.0338 C   0  0  0  1  0  0  0  0  0  0  0  0
   -4.2430    2.7753   -3.7302 C   0  0  0  1  0  0  0  0  0  0  0  0
   -1.5650    3.0991   -1.0798 C   0  0  0  1  0  0  0  0  0  0  0  0
   -3.7119    1.8279   -0.0801 H   0  0  0  1  0  0  0  0  0  0  0  0
   -5.8007    1.2772   -1.1846 H   0  0  0  1  0  0  0  0  0  0  0  0
   -6.1345    1.8709   -3.5090 H   0  0  0  1  0  0  0  0  0  0  0  0
   -4.3887    3.0353   -4.7266 H   0  0  0  1  0  0  0  0  0  0  0  0
   -0.9450    3.6326   -1.7696 H   0  0  0  1  0  0  0  0  0  0  0  0
   -1.7845    3.7242   -0.2396 H   0  0  0  1  0  0  0  0  0  0  0  0
  1  4  1  0  0  0  0
  2  4  1  0  0  0  0
  2  5  2  0  0  0  0
  2  6  1  0  0  0  0
  3  4  1  0  0  0  0
  3  7  1  0  0  0  0
  3  8  1  0  0  0  0
  4 29  1  0  0  0  0
  6  9  1  0  0  0  0
  6 12  1  0  0  0  0
  8 10  1  0  0  0  0
  8 11  2  0  0  0  0
  9 13  1  0  0  0  0
  9 14  1  0  0  0  0
  9 15  1  0  0  0  0
 10 16  1  0  0  0  0
 10 17  1  0  0  0  0
 10 18  1  0  0  0  0
 19 20  1  0  0  0  0
 20 21  1  0  0  0  0
 20 22  1  0  0  0  0
 20 23  1  0  0  0  0
 23 24  4  0  0  0  0
 23 28  4  0  0  0  0
 24 25  4  0  0  0  0
 24 29  1  0  0  0  0
 25 26  4  0  0  0  0
 25 30  1  0  0  0  0
 26 27  4  0  0  0  0
 26 31  1  0  0  0  0
 27 28  4  0  0  0  0
 27 32  1  0  0  0  0
 28 33  1  0  0  0  0
 29 34  1  0  0  0  0
 29 35  1  0  0  0  0
M  END
> <BCLConfClusterSize>
1

> <ConfClashScore>
0 

> <ConfOneFourInteractionScore>
-0.970872 

> <ConfScore>
0.567603 

> <ConfScorePBest>
0.00373261 

> <ConfTolerance>
0.358029 

> <RosettaParamsInstructions>
M  ROOT 3
M  POLY_N_BB 3
M  POLY_CA_BB 4
M  POLY_C_BB 2
M  POLY_O_BB 5
M  POLY_IGNORE 9 10 11 12 13 14 15 16 17 18 
M  POLY_UPPER 6
M  POLY_LOWER 8
M  POLY_CHG 0
M  POLY_PROPERTIES ALPHA_AA D_AA PROTEIN AROMATIC POLYMER 
M  END

$$$$



 35 35  0  0  0  0  0  0  0  0999 V2000
   -0.1201    2.9548    0.1263 H   0  0  0  1  0  0  0  0  0  0  0  0
   -2.0956    3.0522    0.8127 C   0  0  0  1  0  0  0  0  0  0  0  0
   -0.9601    4.6673   -0.6434 N   0  0  0  1  0  0  0  0  0  0  0  0
   -1.0639    3.2498   -0.2825 C   0  0  0  1  0  0  0  0  0  0  0  0
   -3.0081    3.8566    0.9814 O   0  0  0  1  0  0  0  0  0  0  0  0
   -1.9408    1.9593    1.5655 N   0  0  0  1  0  0  0  0  0  0  0  0
   -1.7627    5.2275   -0.5956 H   0  0  0  1  0  0  0  0  0  0  0  0
    0.1907    5.2215   -1.0352 C   0  0  0  1  0  0  0  0  0  0  0  0
   -2.9422    1.5323    2.5312 C   0  0  0  1  0  0  0  0  0  0  0  0
    0.1248    6.7022   -1.3928 C   0  0  0  1  0  0  0  0  0  0  0  0
    1.2459    4.5933   -1.1090 O   0  0  0  1  0  0  0  0  0  0  0  0
   -1.1245    1.4267    1.4638 H   0  0  0  1  0  0  0  0  0  0  0  0
   -2.6291    0.6177    2.9898 H   0  0  0  1  0  0  0  0  0  0  0  0
   -3.8762    1.3793    2.0321 H   0  0  0  1  0  0  0  0  0  0  0  0
   -3.0577    2.2861    3.2818 H   0  0  0  1  0  0  0  0  0  0  0  0
   -0.4167    7.2289   -0.6350 H   0  0  0  1  0  0  0  0  0  0  0  0
   -0.3721    6.8200   -2.3331 H   0  0  0  1  0  0  0  0  0  0  0  0
    1.1170    7.0968   -1.4613 H   0  0  0  1  0  0  0  0  0  0  0  0
   -1.1096    4.3961   -3.0787 F   0  0  0  1  0  0  0  0  0  0  0  0
   -1.9897    3.8161   -3.8966 C   0  0  0  1  0  0  0  0  0  0  0  0
   -2.4997    4.7886   -4.6540 F   0  0  0  1  0  0  0  0  0  0  0  0
   -1.3031    3.0055   -4.7028 F   0  0  0  1  0  0  0  0  0  0  0  0
   -3.0738    3.0950   -3.1197 C   0  0  0  1  0  0  0  0  0  0  0  0
   -2.7512    2.3891   -1.9711 C   0  0  0  1  0  0  0  0  0  0  0  0
   -3.7391    1.7275   -1.2664 C   0  0  0  1  0  0  0  0  0  0  0  0
   -5.0532    1.7743   -1.7050 C   0  0  0  1  0  0  0  0  0  0  0  0
   -5.3747    2.4782   -2.8502 C   0  0  0  1  0  0  0  0  0  0  0  0
   -4.3840    3.1417   -3.5571 C   0  0  0  1  0  0  0  0  0  0  0  0
   -1.3204    2.3424   -1.4893 C   0  0  0  1  0  0  0  0  0  0  0  0
   -3.4965    1.1945   -0.4069 H   0  0  0  1  0  0  0  0  0  0  0  0
   -5.7972    1.2798   -1.1725 H   0  0  0  1  0  0  0  0  0  0  0  0
   -6.3600    2.5100   -3.1815 H   0  0  0  1  0  0  0  0  0  0  0  0
   -4.6266    3.6747   -4.4166 H   0  0  0  1  0  0  0  0  0  0  0  0
   -1.0864    1.3353   -1.2139 H   0  0  0  1  0  0  0  0  0  0  0  0
   -0.6812    2.6515   -2.2897 H   0  0  0  1  0  0  0  0  0  0  0  0
  1  4  1  0  0  0  0
  2  4  1  0  0  0  0
  2  5  2  0  0  0  0
  2  6  1  0  0  0  0
  3  4  1  0  0  0  0
  3  7  1  0  0  0  0
  3  8  1  0  0  0  0
  4 29  1  0  0  0  0
  6  9  1  0  0  0  0
  6 12  1  0  0  0  0
  8 10  1  0  0  0  0
  8 11  2  0  0  0  0
  9 13  1  0  0  0  0
  9 14  1  0  0  0  0
  9 15  1  0  0  0  0
 10 16  1  0  0  0  0
 10 17  1  0  0  0  0
 10 18  1  0  0  0  0
 19 20  1  0  0  0  0
 20 21  1  0  0  0  0
 20 22  1  0  0  0  0
 20 23  1  0  0  0  0
 23 24  4  0  0  0  0
 23 28  4  0  0  0  0
 24 25  4  0  0  0  0
 24 29  1  0  0  0  0
 25 26  4  0  0  0  0
 25 30  1  0  0  0  0
 26 27  4  0  0  0  0
 26 31  1  0  0  0  0
 27 28  4  0  0  0  0
 27 32  1  0  0  0  0
 28 33  1  0  0  0  0
 29 34  1  0  0  0  0
 29 35  1  0  0  0  0
M  END
> <BCLConfClusterSize>
1

> <ConfClashScore>
0 

> <ConfOneFourInteractionScore>
-0.987258 

> <ConfScore>
0.567719 

> <ConfScorePBest>
0.00370413 

> <ConfTolerance>
0.638245 

> <RosettaParamsInstructions>
M  ROOT 3
M  POLY_N_BB 3
M  POLY_CA_BB 4
M  POLY_C_BB 2
M  POLY_O_BB 5
M  POLY_IGNORE 9 10 11 12 13 14 15 16 17 18 
M  POLY_UPPER 6
M  POLY_LOWER 8
M  POLY_CHG 0
M  POLY_PROPERTIES ALPHA_AA D_AA PROTEIN AROMATIC POLYMER 
M  END

$$$$



 35 35  0  0  0  0  0  0  0  0999 V2000
    0.0559    1.4523   -2.2656 H   0  0  0  1  0  0  0  0  0  0  0  0
   -1.4793    0.1473   -1.6523 C   0  0  0  1  0  0  0  0  0  0  0  0
    0.2240    1.2191   -0.2154 N   0  0  0  1  0  0  0  0  0  0  0  0
   -0.5962    1.3583   -1.4225 C   0  0  0  1  0  0  0  0  0  0  0  0
   -2.2564    0.0953   -2.6046 O   0  0  0  1  0  0  0  0  0  0  0  0
   -1.3535   -0.8402   -0.7612 N   0  0  0  1  0  0  0  0  0  0  0  0
    1.1748    1.0025   -0.3120 H   0  0  0  1  0  0  0  0  0  0  0  0
   -0.2798    1.3772    1.0119 C   0  0  0  1  0  0  0  0  0  0  0  0
   -2.1957   -2.0267   -0.7916 C   0  0  0  1  0  0  0  0  0  0  0  0
    0.7155    1.2726    2.1510 C   0  0  0  1  0  0  0  0  0  0  0  0
   -1.4701    1.5941    1.2234 O   0  0  0  1  0  0  0  0  0  0  0  0
   -0.6703   -0.7629   -0.0629 H   0  0  0  1  0  0  0  0  0  0  0  0
   -3.1437   -1.7808   -1.2225 H   0  0  0  1  0  0  0  0  0  0  0  0
   -2.3401   -2.3868    0.2056 H   0  0  0  1  0  0  0  0  0  0  0  0
   -1.7225   -2.7847   -1.3801 H   0  0  0  1  0  0  0  0  0  0  0  0
    1.4930    1.9947    2.0135 H   0  0  0  1  0  0  0  0  0  0  0  0
    1.1396    0.2903    2.1646 H   0  0  0  1  0  0  0  0  0  0  0  0
    0.2161    1.4589    3.0788 H   0  0  0  1  0  0  0  0  0  0  0  0
   -0.8493    3.1259   -3.8949 F   0  0  0  1  0  0  0  0  0  0  0  0
   -1.9923    3.8140   -3.9020 C   0  0  0  1  0  0  0  0  0  0  0  0
   -1.7198    5.0052   -3.3670 F   0  0  0  1  0  0  0  0  0  0  0  0
   -2.3203    4.0192   -5.1783 F   0  0  0  1  0  0  0  0  0  0  0  0
   -3.0756    3.0936   -3.1235 C   0  0  0  1  0  0  0  0  0  0  0  0
   -2.7872    2.5358   -1.8876 C   0  0  0  1  0  0  0  0  0  0  0  0
   -3.7740    1.8746   -1.1809 C   0  0  0  1  0  0  0  0  0  0  0  0
   -5.0531    1.7737   -1.7053 C   0  0  0  1  0  0  0  0  0  0  0  0
   -5.3404    2.3298   -2.9375 C   0  0  0  1  0  0  0  0  0  0  0  0
   -4.3510    2.9931   -3.6465 C   0  0  0  1  0  0  0  0  0  0  0  0
   -1.3951    2.6504   -1.3128 C   0  0  0  1  0  0  0  0  0  0  0  0
   -3.5567    1.4527   -0.2555 H   0  0  0  1  0  0  0  0  0  0  0  0
   -5.7965    1.2796   -1.1717 H   0  0  0  1  0  0  0  0  0  0  0  0
   -6.2991    2.2507   -3.3329 H   0  0  0  1  0  0  0  0  0  0  0  0
   -4.5683    3.4150   -4.5719 H   0  0  0  1  0  0  0  0  0  0  0  0
   -0.8714    3.4204   -1.8397 H   0  0  0  1  0  0  0  0  0  0  0  0
   -1.4742    2.9152   -0.2791 H   0  0  0  1  0  0  0  0  0  0  0  0
  1  4  1  0  0  0  0
  2  4  1  0  0  0  0
  2  5  2  0  0  0  0
  2  6  1  0  0  0  0
  3  4  1  0  0  0  0
  3  7  1  0  0  0  0
  3  8  1  0  0  0  0
  4 29  1  0  0  0  0
  6  9  1  0  0  0  0
  6 12  1  0  0  0  0
  8 10  1  0  0  0  0
  8 11  2  0  0  0  0
  9 13  1  0  0  0  0
  9 14  1  0  0  0  0
  9 15  1  0  0  0  0
 10 16  1  0  0  0  0
 10 17  1  0  0  0  0
 10 18  1  0  0  0  0
 19 20  1  0  0  0  0
 20 21  1  0  0  0  0
 20 22  1  0  0  0  0
 20 23  1  0  0  0  0
 23 24  4  0  0  0  0
 23 28  4  0  0  0  0
 24 25  4  0  0  0  0
 24 29  1  0  0  0  0
 25 26  4  0  0  0  0
 25 30  1  0  0  0  0
 26 27  4  0  0  0  0
 26 31  1  0  0  0  0
 27 28  4  0  0  0  0
 27 32  1  0  0  0  0
 28 33  1  0  0  0  0
 29 34  1  0  0  0  0
 29 35  1  0  0  0  0
M  END
> <BCLConfClusterSize>
1

> <ConfClashScore>
0 

> <ConfOneFourInteractionScore>
-0.940738 

> <ConfScore>
0.578939 

> <ConfScorePBest>
0.00367564 

> <ConfTolerance>
0.662247 

> <RosettaParamsInstructions>
M  ROOT 3
M  POLY_N_BB 3
M  POLY_CA_BB 4
M  POLY_C_BB 2
M  POLY_O_BB 5
M  POLY_IGNORE 9 10 11 12 13 14 15 16 17 18 
M  POLY_UPPER 6
M  POLY_LOWER 8
M  POLY_CHG 0
M  POLY_PROPERTIES ALPHA_AA D_AA PROTEIN AROMATIC POLYMER 
M  END

$$$$



 35 35  0  0  0  0  0  0  0  0999 V2000
   -2.2371    2.3894    0.4797 H   0  0  0  1  0  0  0  0  0  0  0  0
   -0.4656    3.5308    0.6172 C   0  0  0  1  0  0  0  0  0  0  0  0
   -0.6358    1.0819    0.4774 N   0  0  0  1  0  0  0  0  0  0  0  0
   -1.2439    2.3430    0.0844 C   0  0  0  1  0  0  0  0  0  0  0  0
   -1.0397    4.5230    1.0581 O   0  0  0  1  0  0  0  0  0  0  0  0
    0.8714    3.4196    0.5722 N   0  0  0  1  0  0  0  0  0  0  0  0
   -0.3061    0.4635   -0.2076 H   0  0  0  1  0  0  0  0  0  0  0  0
   -0.5246    0.7614    1.7833 C   0  0  0  1  0  0  0  0  0  0  0  0
    1.8078    4.4697    0.9441 C   0  0  0  1  0  0  0  0  0  0  0  0
    0.0937   -0.5767    2.1387 C   0  0  0  1  0  0  0  0  0  0  0  0
   -0.9127    1.5304    2.6617 O   0  0  0  1  0  0  0  0  0  0  0  0
    1.2451    2.5670    0.2658 H   0  0  0  1  0  0  0  0  0  0  0  0
    1.2919    5.4056    0.9979 H   0  0  0  1  0  0  0  0  0  0  0  0
    2.5835    4.5320    0.2099 H   0  0  0  1  0  0  0  0  0  0  0  0
    2.2363    4.2437    1.8982 H   0  0  0  1  0  0  0  0  0  0  0  0
    1.1426   -0.5525    1.9285 H   0  0  0  1  0  0  0  0  0  0  0  0
   -0.3683   -1.3481    1.5587 H   0  0  0  1  0  0  0  0  0  0  0  0
   -0.0568   -0.7737    3.1796 H   0  0  0  1  0  0  0  0  0  0  0  0
   -1.5765    4.9356   -3.2882 F   0  0  0  1  0  0  0  0  0  0  0  0
   -1.9999    3.8216   -3.8880 C   0  0  0  1  0  0  0  0  0  0  0  0
   -2.3745    4.1684   -5.1204 F   0  0  0  1  0  0  0  0  0  0  0  0
   -0.9079    3.0741   -4.0533 F   0  0  0  1  0  0  0  0  0  0  0  0
   -3.0788    3.0990   -3.1163 C   0  0  0  1  0  0  0  0  0  0  0  0
   -2.7617    2.4228   -1.9485 C   0  0  0  1  0  0  0  0  0  0  0  0
   -3.7485    1.7574   -1.2458 C   0  0  0  1  0  0  0  0  0  0  0  0
   -5.0560    1.7706   -1.7058 C   0  0  0  1  0  0  0  0  0  0  0  0
   -5.3719    2.4448   -2.8702 C   0  0  0  1  0  0  0  0  0  0  0  0
   -4.3825    3.1122   -3.5751 C   0  0  0  1  0  0  0  0  0  0  0  0
   -1.3382    2.4129   -1.4434 C   0  0  0  1  0  0  0  0  0  0  0  0
   -3.5099    1.2467   -0.3718 H   0  0  0  1  0  0  0  0  0  0  0  0
   -5.7991    1.2732   -1.1749 H   0  0  0  1  0  0  0  0  0  0  0  0
   -6.3522    2.4513   -3.2175 H   0  0  0  1  0  0  0  0  0  0  0  0
   -4.6210    3.6229   -4.4491 H   0  0  0  1  0  0  0  0  0  0  0  0
   -0.8368    1.5619   -1.8549 H   0  0  0  1  0  0  0  0  0  0  0  0
   -0.8533    3.3076   -1.7740 H   0  0  0  1  0  0  0  0  0  0  0  0
  1  4  1  0  0  0  0
  2  4  1  0  0  0  0
  2  5  2  0  0  0  0
  2  6  1  0  0  0  0
  3  4  1  0  0  0  0
  3  7  1  0  0  0  0
  3  8  1  0  0  0  0
  4 29  1  0  0  0  0
  6  9  1  0  0  0  0
  6 12  1  0  0  0  0
  8 10  1  0  0  0  0
  8 11  2  0  0  0  0
  9 13  1  0  0  0  0
  9 14  1  0  0  0  0
  9 15  1  0  0  0  0
 10 16  1  0  0  0  0
 10 17  1  0  0  0  0
 10 18  1  0  0  0  0
 19 20  1  0  0  0  0
 20 21  1  0  0  0  0
 20 22  1  0  0  0  0
 20 23  1  0  0  0  0
 23 24  4  0  0  0  0
 23 28  4  0  0  0  0
 24 25  4  0  0  0  0
 24 29  1  0  0  0  0
 25 26  4  0  0  0  0
 25 30  1  0  0  0  0
 26 27  4  0  0  0  0
 26 31  1  0  0  0  0
 27 28  4  0  0  0  0
 27 32  1  0  0  0  0
 28 33  1  0  0  0  0
 29 34  1  0  0  0  0
 29 35  1  0  0  0  0
M  END
> <BCLConfClusterSize>
1

> <ConfClashScore>
0 

> <ConfOneFourInteractionScore>
-0.941392 

> <ConfScore>
0.581777 

> <ConfScorePBest>
0.00364716 

> <ConfTolerance>
0.956947 

> <RosettaParamsInstructions>
M  ROOT 3
M  POLY_N_BB 3
M  POLY_CA_BB 4
M  POLY_C_BB 2
M  POLY_O_BB 5
M  POLY_IGNORE 9 10 11 12 13 14 15 16 17 18 
M  POLY_UPPER 6
M  POLY_LOWER 8
M  POLY_CHG 0
M  POLY_PROPERTIES ALPHA_AA D_AA PROTEIN AROMATIC POLYMER 
M  END

$$$$



 35 35  0  0  0  0  0  0  0  0999 V2000
    0.0853    2.3488   -2.1206 H   0  0  0  1  0  0  0  0  0  0  0  0
   -0.9418    0.6784   -1.4590 C   0  0  0  1  0  0  0  0  0  0  0  0
    0.4853    2.1822   -0.1202 N   0  0  0  1  0  0  0  0  0  0  0  0
   -0.4611    2.0832   -1.2398 C   0  0  0  1  0  0  0  0  0  0  0  0
   -0.9434    0.1211   -2.5404 O   0  0  0  1  0  0  0  0  0  0  0  0
   -1.3856    0.0383   -0.3761 N   0  0  0  1  0  0  0  0  0  0  0  0
    0.3804    1.5556    0.6259 H   0  0  0  1  0  0  0  0  0  0  0  0
    1.4896    3.0807   -0.0540 C   0  0  0  1  0  0  0  0  0  0  0  0
   -1.9703   -1.2943   -0.3771 C   0  0  0  1  0  0  0  0  0  0  0  0
    2.3861    3.0563    1.1632 C   0  0  0  1  0  0  0  0  0  0  0  0
    1.6726    3.8969   -0.9562 O   0  0  0  1  0  0  0  0  0  0  0  0
   -1.3123    0.5002    0.4851 H   0  0  0  1  0  0  0  0  0  0  0  0
   -2.9524   -1.2531   -0.8000 H   0  0  0  1  0  0  0  0  0  0  0  0
   -2.0298   -1.6583    0.6273 H   0  0  0  1  0  0  0  0  0  0  0  0
   -1.3588   -1.9514   -0.9595 H   0  0  0  1  0  0  0  0  0  0  0  0
    2.0268    2.3251    1.8568 H   0  0  0  1  0  0  0  0  0  0  0  0
    2.3825    4.0202    1.6278 H   0  0  0  1  0  0  0  0  0  0  0  0
    3.3833    2.8065    0.8665 H   0  0  0  1  0  0  0  0  0  0  0  0
   -2.0300    3.5250   -5.2031 F   0  0  0  1  0  0  0  0  0  0  0  0
   -1.9890    3.7987   -3.8980 C   0  0  0  1  0  0  0  0  0  0  0  0
   -0.7640    3.4685   -3.4862 F   0  0  0  1  0  0  0  0  0  0  0  0
   -2.0739    5.1254   -3.7919 F   0  0  0  1  0  0  0  0  0  0  0  0
   -3.0718    3.0858   -3.1230 C   0  0  0  1  0  0  0  0  0  0  0  0
   -2.8698    2.7567   -1.7916 C   0  0  0  1  0  0  0  0  0  0  0  0
   -3.8590    2.0996   -1.0846 C   0  0  0  1  0  0  0  0  0  0  0  0
   -5.0551    1.7743   -1.7051 C   0  0  0  1  0  0  0  0  0  0  0  0
   -5.2563    2.1024   -3.0325 C   0  0  0  1  0  0  0  0  0  0  0  0
   -4.2644    2.7615   -3.7418 C   0  0  0  1  0  0  0  0  0  0  0  0
   -1.5690    3.1160   -1.1131 C   0  0  0  1  0  0  0  0  0  0  0  0
   -3.7060    1.8492   -0.0868 H   0  0  0  1  0  0  0  0  0  0  0  0
   -5.8009    1.2834   -1.1719 H   0  0  0  1  0  0  0  0  0  0  0  0
   -6.1521    1.8548   -3.4992 H   0  0  0  1  0  0  0  0  0  0  0  0
   -4.4174    3.0119   -4.7395 H   0  0  0  1  0  0  0  0  0  0  0  0
   -1.2166    4.0321   -1.5390 H   0  0  0  1  0  0  0  0  0  0  0  0
   -1.7686    3.2598   -0.0717 H   0  0  0  1  0  0  0  0  0  0  0  0
  1  4  1  0  0  0  0
  2  4  1  0  0  0  0
  2  5  2  0  0  0  0
  2  6  1  0  0  0  0
  3  4  1  0  0  0  0
  3  7  1  0  0  0  0
  3  8  1  0  0  0  0
  4 29  1  0  0  0  0
  6  9  1  0  0  0  0
  6 12  1  0  0  0  0
  8 10  1  0  0  0  0
  8 11  2  0  0  0  0
  9 13  1  0  0  0  0
  9 14  1  0  0  0  0
  9 15  1  0  0  0  0
 10 16  1  0  0  0  0
 10 17  1  0  0  0  0
 10 18  1  0  0  0  0
 19 20  1  0  0  0  0
 20 21  1  0  0  0  0
 20 22  1  0  0  0  0
 20 23  1  0  0  0  0
 23 24  4  0  0  0  0
 23 28  4  0  0  0  0
 24 25  4  0  0  0  0
 24 29  1  0  0  0  0
 25 26  4  0  0  0  0
 25 30  1  0  0  0  0
 26 27  4  0  0  0  0
 26 31  1  0  0  0  0
 27 28  4  0  0  0  0
 27 32  1  0  0  0  0
 28 33  1  0  0  0  0
 29 34  1  0  0  0  0
 29 35  1  0  0  0  0
M  END
> <BCLConfClusterSize>
1

> <ConfClashScore>
1.31935e-05 

> <ConfOneFourInteractionScore>
-0.95409 

> <ConfScore>
0.582836 

> <ConfScorePBest>
0.00361868 

> <ConfTolerance>
1.01995 

> <RosettaParamsInstructions>
M  ROOT 3
M  POLY_N_BB 3
M  POLY_CA_BB 4
M  POLY_C_BB 2
M  POLY_O_BB 5
M  POLY_IGNORE 9 10 11 12 13 14 15 16 17 18 
M  POLY_UPPER 6
M  POLY_LOWER 8
M  POLY_CHG 0
M  POLY_PROPERTIES ALPHA_AA D_AA PROTEIN AROMATIC POLYMER 
M  END

$$$$



 35 35  0  0  0  0  0  0  0  0999 V2000
    0.0077    2.2165   -0.1379 H   0  0  0  1  0  0  0  0  0  0  0  0
   -0.9320    0.6060   -1.1200 C   0  0  0  1  0  0  0  0  0  0  0  0
   -1.6710    1.7489    0.9488 N   0  0  0  1  0  0  0  0  0  0  0  0
   -1.0048    1.9448   -0.3522 C   0  0  0  1  0  0  0  0  0  0  0  0
   -0.6753   -0.4250   -0.5448 O   0  0  0  1  0  0  0  0  0  0  0  0
   -1.1609    0.6235   -2.4362 N   0  0  0  1  0  0  0  0  0  0  0  0
   -2.5133    2.2114    1.1414 H   0  0  0  1  0  0  0  0  0  0  0  0
   -1.1234    0.9343    1.8745 C   0  0  0  1  0  0  0  0  0  0  0  0
   -0.9952   -0.6132   -3.2372 C   0  0  0  1  0  0  0  0  0  0  0  0
   -1.7597    0.9764    3.2453 C   0  0  0  1  0  0  0  0  0  0  0  0
   -0.1673    0.1975    1.6367 O   0  0  0  1  0  0  0  0  0  0  0  0
   -1.4388    1.4555   -2.8731 H   0  0  0  1  0  0  0  0  0  0  0  0
   -1.2256   -0.4086   -4.2619 H   0  0  0  1  0  0  0  0  0  0  0  0
   -1.6563   -1.3687   -2.8672 H   0  0  0  1  0  0  0  0  0  0  0  0
    0.0160   -0.9547   -3.1606 H   0  0  0  1  0  0  0  0  0  0  0  0
   -2.5901    0.3022    3.2745 H   0  0  0  1  0  0  0  0  0  0  0  0
   -2.0999    1.9700    3.4500 H   0  0  0  1  0  0  0  0  0  0  0  0
   -1.0394    0.6867    3.9816 H   0  0  0  1  0  0  0  0  0  0  0  0
   -2.3671    4.1080   -5.1388 F   0  0  0  1  0  0  0  0  0  0  0  0
   -1.9880    3.7997   -3.8974 C   0  0  0  1  0  0  0  0  0  0  0  0
   -0.8789    3.0684   -4.0171 F   0  0  0  1  0  0  0  0  0  0  0  0
   -1.6197    4.9461   -3.3239 F   0  0  0  1  0  0  0  0  0  0  0  0
   -3.0706    3.0866   -3.1221 C   0  0  0  1  0  0  0  0  0  0  0  0
   -2.8620    2.7430   -1.7955 C   0  0  0  1  0  0  0  0  0  0  0  0
   -3.8510    2.0857   -1.0883 C   0  0  0  1  0  0  0  0  0  0  0  0
   -5.0533    1.7747   -1.7039 C   0  0  0  1  0  0  0  0  0  0  0  0
   -5.2611    2.1173   -3.0267 C   0  0  0  1  0  0  0  0  0  0  0  0
   -4.2694    2.7766   -3.7361 C   0  0  0  1  0  0  0  0  0  0  0  0
   -1.5765    3.0809   -1.1336 C   0  0  0  1  0  0  0  0  0  0  0  0
   -3.6930    1.8244   -0.0941 H   0  0  0  1  0  0  0  0  0  0  0  0
   -5.7990    1.2837   -1.1706 H   0  0  0  1  0  0  0  0  0  0  0  0
   -6.1617    1.8804   -3.4898 H   0  0  0  1  0  0  0  0  0  0  0  0
   -4.4274    3.0379   -4.7303 H   0  0  0  1  0  0  0  0  0  0  0  0
   -0.8709    3.3661   -1.8857 H   0  0  0  1  0  0  0  0  0  0  0  0
   -1.7415    3.9027   -0.4686 H   0  0  0  1  0  0  0  0  0  0  0  0
  1  4  1  0  0  0  0
  2  4  1  0  0  0  0
  2  5  2  0  0  0  0
  2  6  1  0  0  0  0
  3  4  1  0  0  0  0
  3  7  1  0  0  0  0
  3  8  1  0  0  0  0
  4 29  1  0  0  0  0
  6  9  1  0  0  0  0
  6 12  1  0  0  0  0
  8 10  1  0  0  0  0
  8 11  2  0  0  0  0
  9 13  1  0  0  0  0
  9 14  1  0  0  0  0
  9 15  1  0  0  0  0
 10 16  1  0  0  0  0
 10 17  1  0  0  0  0
 10 18  1  0  0  0  0
 19 20  1  0  0  0  0
 20 21  1  0  0  0  0
 20 22  1  0  0  0  0
 20 23  1  0  0  0  0
 23 24  4  0  0  0  0
 23 28  4  0  0  0  0
 24 25  4  0  0  0  0
 24 29  1  0  0  0  0
 25 26  4  0  0  0  0
 25 30  1  0  0  0  0
 26 27  4  0  0  0  0
 26 31  1  0  0  0  0
 27 28  4  0  0  0  0
 27 32  1  0  0  0  0
 28 33  1  0  0  0  0
 29 34  1  0  0  0  0
 29 35  1  0  0  0  0
M  END
> <BCLConfClusterSize>
1

> <ConfClashScore>
0.00197172 

> <ConfOneFourInteractionScore>
-0.949297 

> <ConfScore>
0.587974 

> <ConfScorePBest>
0.0035902 

> <ConfTolerance>
0.498741 

> <RosettaParamsInstructions>
M  ROOT 3
M  POLY_N_BB 3
M  POLY_CA_BB 4
M  POLY_C_BB 2
M  POLY_O_BB 5
M  POLY_IGNORE 9 10 11 12 13 14 15 16 17 18 
M  POLY_UPPER 6
M  POLY_LOWER 8
M  POLY_CHG 0
M  POLY_PROPERTIES ALPHA_AA D_AA PROTEIN AROMATIC POLYMER 
M  END

$$$$



 35 35  0  0  0  0  0  0  0  0999 V2000
   -1.0768    0.8599   -2.9381 H   0  0  0  1  0  0  0  0  0  0  0  0
   -0.3469    0.0102   -1.1626 C   0  0  0  1  0  0  0  0  0  0  0  0
    0.7540    1.7352   -2.5950 N   0  0  0  1  0  0  0  0  0  0  0  0
   -0.5191    1.2057   -2.0930 C   0  0  0  1  0  0  0  0  0  0  0  0
    0.5572   -0.8066   -1.3332 O   0  0  0  1  0  0  0  0  0  0  0  0
   -1.2333   -0.0831   -0.1673 N   0  0  0  1  0  0  0  0  0  0  0  0
    0.9428    1.6817   -3.5551 H   0  0  0  1  0  0  0  0  0  0  0  0
    1.6647    2.2878   -1.7886 C   0  0  0  1  0  0  0  0  0  0  0  0
   -1.2076   -1.1727    0.7970 C   0  0  0  1  0  0  0  0  0  0  0  0
    2.9079    2.8260   -2.4700 C   0  0  0  1  0  0  0  0  0  0  0  0
    1.5226    2.3635   -0.5793 O   0  0  0  1  0  0  0  0  0  0  0  0
   -1.9250    0.6061   -0.0839 H   0  0  0  1  0  0  0  0  0  0  0  0
   -1.8967   -1.9334    0.4950 H   0  0  0  1  0  0  0  0  0  0  0  0
   -1.4862   -0.8018    1.7613 H   0  0  0  1  0  0  0  0  0  0  0  0
   -0.2208   -1.5838    0.8440 H   0  0  0  1  0  0  0  0  0  0  0  0
    3.4174    2.0268   -2.9665 H   0  0  0  1  0  0  0  0  0  0  0  0
    3.5555    3.2612   -1.7378 H   0  0  0  1  0  0  0  0  0  0  0  0
    2.6279    3.5698   -3.1864 H   0  0  0  1  0  0  0  0  0  0  0  0
   -1.2848    4.6236   -3.1034 F   0  0  0  1  0  0  0  0  0  0  0  0
   -1.9919    3.8138   -3.8936 C   0  0  0  1  0  0  0  0  0  0  0  0
   -2.5102    4.5808   -4.8540 F   0  0  0  1  0  0  0  0  0  0  0  0
   -1.1292    2.9798   -4.4756 F   0  0  0  1  0  0  0  0  0  0  0  0
   -3.0722    3.0955   -3.1199 C   0  0  0  1  0  0  0  0  0  0  0  0
   -2.7505    2.3926   -1.9692 C   0  0  0  1  0  0  0  0  0  0  0  0
   -3.7388    1.7312   -1.2648 C   0  0  0  1  0  0  0  0  0  0  0  0
   -5.0521    1.7750   -1.7058 C   0  0  0  1  0  0  0  0  0  0  0  0
   -5.3726    2.4759   -2.8531 C   0  0  0  1  0  0  0  0  0  0  0  0
   -4.3817    3.1394   -3.5598 C   0  0  0  1  0  0  0  0  0  0  0  0
   -1.3206    2.3491   -1.4848 C   0  0  0  1  0  0  0  0  0  0  0  0
   -3.4969    1.2004   -0.4037 H   0  0  0  1  0  0  0  0  0  0  0  0
   -5.7963    1.2806   -1.1735 H   0  0  0  1  0  0  0  0  0  0  0  0
   -6.3574    2.5055   -3.1863 H   0  0  0  1  0  0  0  0  0  0  0  0
   -4.6236    3.6701   -4.4209 H   0  0  0  1  0  0  0  0  0  0  0  0
   -0.8455    3.2727   -1.7422 H   0  0  0  1  0  0  0  0  0  0  0  0
   -1.3247    2.2340   -0.4210 H   0  0  0  1  0  0  0  0  0  0  0  0
  1  4  1  0  0  0  0
  2  4  1  0  0  0  0
  2  5  2  0  0  0  0
  2  6  1  0  0  0  0
  3  4  1  0  0  0  0
  3  7  1  0  0  0  0
  3  8  1  0  0  0  0
  4 29  1  0  0  0  0
  6  9  1  0  0  0  0
  6 12  1  0  0  0  0
  8 10  1  0  0  0  0
  8 11  2  0  0  0  0
  9 13  1  0  0  0  0
  9 14  1  0  0  0  0
  9 15  1  0  0  0  0
 10 16  1  0  0  0  0
 10 17  1  0  0  0  0
 10 18  1  0  0  0  0
 19 20  1  0  0  0  0
 20 21  1  0  0  0  0
 20 22  1  0  0  0  0
 20 23  1  0  0  0  0
 23 24  4  0  0  0  0
 23 28  4  0  0  0  0
 24 25  4  0  0  0  0
 24 29  1  0  0  0  0
 25 26  4  0  0  0  0
 25 30  1  0  0  0  0
 26 27  4  0  0  0  0
 26 31  1  0  0  0  0
 27 28  4  0  0  0  0
 27 32  1  0  0  0  0
 28 33  1  0  0  0  0
 29 34  1  0  0  0  0
 29 35  1  0  0  0  0
M  END
> <BCLConfClusterSize>
1

> <ConfClashScore>
0 

> <ConfOneFourInteractionScore>
-0.919548 

> <ConfScore>
0.588231 

> <ConfScorePBest>
0.00356172 

> <ConfTolerance>
0.988119 

> <RosettaParamsInstructions>
M  ROOT 3
M  POLY_N_BB 3
M  POLY_CA_BB 4
M  POLY_C_BB 2
M  POLY_O_BB 5
M  POLY_IGNORE 9 10 11 12 13 14 15 16 17 18 
M  POLY_UPPER 6
M  POLY_LOWER 8
M  POLY_CHG 0
M  POLY_PROPERTIES ALPHA_AA D_AA PROTEIN AROMATIC POLYMER 
M  END

$$$$



 35 35  0  0  0  0  0  0  0  0999 V2000
   -0.0644    1.8454    0.0089 H   0  0  0  1  0  0  0  0  0  0  0  0
   -1.2988    0.3737   -0.8459 C   0  0  0  1  0  0  0  0  0  0  0  0
   -1.8564    1.8865    1.0200 N   0  0  0  1  0  0  0  0  0  0  0  0
   -1.1050    1.7414   -0.2178 C   0  0  0  1  0  0  0  0  0  0  0  0
   -0.4884   -0.0621   -1.6491 O   0  0  0  1  0  0  0  0  0  0  0  0
   -2.3522   -0.3123   -0.3813 N   0  0  0  1  0  0  0  0  0  0  0  0
   -2.5010    2.6204    1.0986 H   0  0  0  1  0  0  0  0  0  0  0  0
   -1.6930    1.0275    2.0855 C   0  0  0  1  0  0  0  0  0  0  0  0
   -2.6345   -1.7085   -0.6794 C   0  0  0  1  0  0  0  0  0  0  0  0
   -2.5030    1.3395    3.3100 C   0  0  0  1  0  0  0  0  0  0  0  0
   -0.9285    0.0853    1.9978 O   0  0  0  1  0  0  0  0  0  0  0  0
   -2.9797    0.1621    0.2033 H   0  0  0  1  0  0  0  0  0  0  0  0
   -3.6856   -1.8874   -0.5895 H   0  0  0  1  0  0  0  0  0  0  0  0
   -2.1062   -2.3339    0.0096 H   0  0  0  1  0  0  0  0  0  0  0  0
   -2.3192   -1.9306   -1.6775 H   0  0  0  1  0  0  0  0  0  0  0  0
   -3.2835    2.0261    3.0565 H   0  0  0  1  0  0  0  0  0  0  0  0
   -1.8705    1.7776    4.0536 H   0  0  0  1  0  0  0  0  0  0  0  0
   -2.9323    0.4373    3.6928 H   0  0  0  1  0  0  0  0  0  0  0  0
   -2.5048    4.7300   -4.7176 F   0  0  0  1  0  0  0  0  0  0  0  0
   -1.9885    3.8166   -3.8935 C   0  0  0  1  0  0  0  0  0  0  0  0
   -1.2928    2.9707   -4.6550 F   0  0  0  1  0  0  0  0  0  0  0  0
   -1.1174    4.4462   -3.1040 F   0  0  0  1  0  0  0  0  0  0  0  0
   -3.0727    3.0971   -3.1183 C   0  0  0  1  0  0  0  0  0  0  0  0
   -2.8360    2.6825   -1.8169 C   0  0  0  1  0  0  0  0  0  0  0  0
   -3.8240    2.0213   -1.1119 C   0  0  0  1  0  0  0  0  0  0  0  0
   -5.0533    1.7776   -1.7043 C   0  0  0  1  0  0  0  0  0  0  0  0
   -5.2891    2.1910   -3.0018 C   0  0  0  1  0  0  0  0  0  0  0  0
   -4.2983    2.8542   -3.7090 C   0  0  0  1  0  0  0  0  0  0  0  0
   -1.4714    2.8624   -1.1948 C   0  0  0  1  0  0  0  0  0  0  0  0
   -3.6452    1.7067   -0.1370 H   0  0  0  1  0  0  0  0  0  0  0  0
   -5.7981    1.2836   -1.1724 H   0  0  0  1  0  0  0  0  0  0  0  0
   -6.2100    2.0046   -3.4477 H   0  0  0  1  0  0  0  0  0  0  0  0
   -4.4772    3.1688   -4.6840 H   0  0  0  1  0  0  0  0  0  0  0  0
   -0.7411    2.8852   -1.9764 H   0  0  0  1  0  0  0  0  0  0  0  0
   -1.4580    3.7927   -0.6662 H   0  0  0  1  0  0  0  0  0  0  0  0
  1  4  1  0  0  0  0
  2  4  1  0  0  0  0
  2  5  2  0  0  0  0
  2  6  1  0  0  0  0
  3  4  1  0  0  0  0
  3  7  1  0  0  0  0
  3  8  1  0  0  0  0
  4 29  1  0  0  0  0
  6  9  1  0  0  0  0
  6 12  1  0  0  0  0
  8 10  1  0  0  0  0
  8 11  2  0  0  0  0
  9 13  1  0  0  0  0
  9 14  1  0  0  0  0
  9 15  1  0  0  0  0
 10 16  1  0  0  0  0
 10 17  1  0  0  0  0
 10 18  1  0  0  0  0
 19 20  1  0  0  0  0
 20 21  1  0  0  0  0
 20 22  1  0  0  0  0
 20 23  1  0  0  0  0
 23 24  4  0  0  0  0
 23 28  4  0  0  0  0
 24 25  4  0  0  0  0
 24 29  1  0  0  0  0
 25 26  4  0  0  0  0
 25 30  1  0  0  0  0
 26 27  4  0  0  0  0
 26 31  1  0  0  0  0
 27 28  4  0  0  0  0
 27 32  1  0  0  0  0
 28 33  1  0  0  0  0
 29 34  1  0  0  0  0
 29 35  1  0  0  0  0
M  END
> <BCLConfClusterSize>
1

> <ConfClashScore>
0.00132561 

> <ConfOneFourInteractionScore>
-0.949633 

> <ConfScore>
0.595745 

> <ConfScorePBest>
0.00353324 

> <ConfTolerance>
0.784856 

> <RosettaParamsInstructions>
M  ROOT 3
M  POLY_N_BB 3
M  POLY_CA_BB 4
M  POLY_C_BB 2
M  POLY_O_BB 5
M  POLY_IGNORE 9 10 11 12 13 14 15 16 17 18 
M  POLY_UPPER 6
M  POLY_LOWER 8
M  POLY_CHG 0
M  POLY_PROPERTIES ALPHA_AA D_AA PROTEIN AROMATIC POLYMER 
M  END

$$$$



 35 35  0  0  0  0  0  0  0  0999 V2000
   -1.1030    1.1357   -0.4429 H   0  0  0  1  0  0  0  0  0  0  0  0
    0.6989    2.1919   -0.3087 C   0  0  0  1  0  0  0  0  0  0  0  0
   -0.4023    1.3257   -2.3682 N   0  0  0  1  0  0  0  0  0  0  0  0
   -0.6011    1.8805   -1.0245 C   0  0  0  1  0  0  0  0  0  0  0  0
    0.8905    3.2847    0.2180 O   0  0  0  1  0  0  0  0  0  0  0  0
    1.6074    1.2038   -0.2935 N   0  0  0  1  0  0  0  0  0  0  0  0
    0.3649    1.6299   -2.8968 H   0  0  0  1  0  0  0  0  0  0  0  0
   -1.2347    0.4159   -2.8988 C   0  0  0  1  0  0  0  0  0  0  0  0
    2.8452    1.2193    0.4780 C   0  0  0  1  0  0  0  0  0  0  0  0
   -0.8291   -0.1389   -4.2504 C   0  0  0  1  0  0  0  0  0  0  0  0
   -2.2634    0.0445   -2.3400 O   0  0  0  1  0  0  0  0  0  0  0  0
    1.4253    0.4123   -0.8420 H   0  0  0  1  0  0  0  0  0  0  0  0
    3.6813    1.2531   -0.1889 H   0  0  0  1  0  0  0  0  0  0  0  0
    2.9028    0.3347    1.0772 H   0  0  0  1  0  0  0  0  0  0  0  0
    2.8595    2.0815    1.1115 H   0  0  0  1  0  0  0  0  0  0  0  0
    0.1229    0.2617   -4.5299 H   0  0  0  1  0  0  0  0  0  0  0  0
   -1.5599    0.1354   -4.9822 H   0  0  0  1  0  0  0  0  0  0  0  0
   -0.7640   -1.2054   -4.1929 H   0  0  0  1  0  0  0  0  0  0  0  0
   -2.2722    3.9096   -5.1964 F   0  0  0  1  0  0  0  0  0  0  0  0
   -1.9940    3.8131   -3.8952 C   0  0  0  1  0  0  0  0  0  0  0  0
   -0.7894    3.2462   -3.8126 F   0  0  0  1  0  0  0  0  0  0  0  0
   -1.8504    5.0622   -3.4505 F   0  0  0  1  0  0  0  0  0  0  0  0
   -3.0510    3.0434   -3.1315 C   0  0  0  1  0  0  0  0  0  0  0  0
   -2.8581    2.7257   -1.7960 C   0  0  0  1  0  0  0  0  0  0  0  0
   -3.8615    2.0967   -1.0835 C   0  0  0  1  0  0  0  0  0  0  0  0
   -5.0627    1.7882   -1.7027 C   0  0  0  1  0  0  0  0  0  0  0  0
   -5.2549    2.1049   -3.0342 C   0  0  0  1  0  0  0  0  0  0  0  0
   -4.2487    2.7358   -3.7490 C   0  0  0  1  0  0  0  0  0  0  0  0
   -1.5517    3.0668   -1.1189 C   0  0  0  1  0  0  0  0  0  0  0  0
   -3.7154    1.8547   -0.0826 H   0  0  0  1  0  0  0  0  0  0  0  0
   -5.8192    1.3184   -1.1654 H   0  0  0  1  0  0  0  0  0  0  0  0
   -6.1546    1.8698   -3.4999 H   0  0  0  1  0  0  0  0  0  0  0  0
   -4.3949    2.9777   -4.7499 H   0  0  0  1  0  0  0  0  0  0  0  0
   -1.0720    3.8441   -1.6763 H   0  0  0  1  0  0  0  0  0  0  0  0
   -1.7617    3.4146   -0.1291 H   0  0  0  1  0  0  0  0  0  0  0  0
  1  4  1  0  0  0  0
  2  4  1  0  0  0  0
  2  5  2  0  0  0  0
  2  6  1  0  0  0  0
  3  4  1  0  0  0  0
  3  7  1  0  0  0  0
  3  8  1  0  0  0  0
  4 29  1  0  0  0  0
  6  9  1  0  0  0  0
  6 12  1  0  0  0  0
  8 10  1  0  0  0  0
  8 11  2  0  0  0  0
  9 13  1  0  0  0  0
  9 14  1  0  0  0  0
  9 15  1  0  0  0  0
 10 16  1  0  0  0  0
 10 17  1  0  0  0  0
 10 18  1  0  0  0  0
 19 20  1  0  0  0  0
 20 21  1  0  0  0  0
 20 22  1  0  0  0  0
 20 23  1  0  0  0  0
 23 24  4  0  0  0  0
 23 28  4  0  0  0  0
 24 25  4  0  0  0  0
 24 29  1  0  0  0  0
 25 26  4  0  0  0  0
 25 30  1  0  0  0  0
 26 27  4  0  0  0  0
 26 31  1  0  0  0  0
 27 28  4  0  0  0  0
 27 32  1  0  0  0  0
 28 33  1  0  0  0  0
 29 34  1  0  0  0  0
 29 35  1  0  0  0  0
M  END
> <BCLConfClusterSize>
1

> <ConfClashScore>
0 

> <ConfOneFourInteractionScore>
-0.979783 

> <ConfScore>
0.60629 

> <ConfScorePBest>
0.00350476 

> <ConfTolerance>
0.973078 

> <RosettaParamsInstructions>
M  ROOT 3
M  POLY_N_BB 3
M  POLY_CA_BB 4
M  POLY_C_BB 2
M  POLY_O_BB 5
M  POLY_IGNORE 9 10 11 12 13 14 15 16 17 18 
M  POLY_UPPER 6
M  POLY_LOWER 8
M  POLY_CHG 0
M  POLY_PROPERTIES ALPHA_AA D_AA PROTEIN AROMATIC POLYMER 
M  END

$$$$



 35 35  0  0  0  0  0  0  0  0999 V2000
   -0.3967    2.9693    0.4717 H   0  0  0  1  0  0  0  0  0  0  0  0
   -1.3674    1.1194    0.7060 C   0  0  0  1  0  0  0  0  0  0  0  0
   -2.4021    3.3578    0.7200 N   0  0  0  1  0  0  0  0  0  0  0  0
   -1.3300    2.5397    0.1729 C   0  0  0  1  0  0  0  0  0  0  0  0
   -1.0650    0.8461    1.8522 O   0  0  0  1  0  0  0  0  0  0  0  0
   -1.7444    0.1320   -0.1067 N   0  0  0  1  0  0  0  0  0  0  0  0
   -2.5307    4.2375    0.3078 H   0  0  0  1  0  0  0  0  0  0  0  0
   -3.2496    3.0387    1.7433 C   0  0  0  1  0  0  0  0  0  0  0  0
   -1.7743   -1.2727    0.2728 C   0  0  0  1  0  0  0  0  0  0  0  0
   -4.2834    4.1000    2.0221 C   0  0  0  1  0  0  0  0  0  0  0  0
   -3.1571    1.9907    2.3553 O   0  0  0  1  0  0  0  0  0  0  0  0
   -2.0188    0.3670   -1.0177 H   0  0  0  1  0  0  0  0  0  0  0  0
   -1.3871   -1.8674   -0.5281 H   0  0  0  1  0  0  0  0  0  0  0  0
   -2.7828   -1.5649    0.4784 H   0  0  0  1  0  0  0  0  0  0  0  0
   -1.1748   -1.4185    1.1470 H   0  0  0  1  0  0  0  0  0  0  0  0
   -5.2551    3.7253    1.7766 H   0  0  0  1  0  0  0  0  0  0  0  0
   -4.0747    4.9655    1.4286 H   0  0  0  1  0  0  0  0  0  0  0  0
   -4.2541    4.3624    3.0590 H   0  0  0  1  0  0  0  0  0  0  0  0
   -0.7832    3.2952   -3.6794 F   0  0  0  1  0  0  0  0  0  0  0  0
   -1.9943    3.8129   -3.8922 C   0  0  0  1  0  0  0  0  0  0  0  0
   -1.9092    5.1048   -3.5710 F   0  0  0  1  0  0  0  0  0  0  0  0
   -2.1932    3.7679   -5.2102 F   0  0  0  1  0  0  0  0  0  0  0  0
   -3.0747    3.0943   -3.1191 C   0  0  0  1  0  0  0  0  0  0  0  0
   -2.7770    2.4944   -1.9054 C   0  0  0  1  0  0  0  0  0  0  0  0
   -3.7649    1.8324   -1.2011 C   0  0  0  1  0  0  0  0  0  0  0  0
   -5.0546    1.7729   -1.7058 C   0  0  0  1  0  0  0  0  0  0  0  0
   -5.3513    2.3711   -2.9159 C   0  0  0  1  0  0  0  0  0  0  0  0
   -4.3606    3.0350   -3.6224 C   0  0  0  1  0  0  0  0  0  0  0  0
   -1.3732    2.5638   -1.3521 C   0  0  0  1  0  0  0  0  0  0  0  0
   -3.5407    1.3789   -0.2925 H   0  0  0  1  0  0  0  0  0  0  0  0
   -5.7989    1.2782   -1.1738 H   0  0  0  1  0  0  0  0  0  0  0  0
   -6.3180    2.3230   -3.2964 H   0  0  0  1  0  0  0  0  0  0  0  0
   -4.5849    3.4885   -4.5310 H   0  0  0  1  0  0  0  0  0  0  0  0
   -0.8196    1.7261   -1.7217 H   0  0  0  1  0  0  0  0  0  0  0  0
   -0.9178    3.4706   -1.6914 H   0  0  0  1  0  0  0  0  0  0  0  0
  1  4  1  0  0  0  0
  2  4  1  0  0  0  0
  2  5  2  0  0  0  0
  2  6  1  0  0  0  0
  3  4  1  0  0  0  0
  3  7  1  0  0  0  0
  3  8  1  0  0  0  0
  4 29  1  0  0  0  0
  6  9  1  0  0  0  0
  6 12  1  0  0  0  0
  8 10  1  0  0  0  0
  8 11  2  0  0  0  0
  9 13  1  0  0  0  0
  9 14  1  0  0  0  0
  9 15  1  0  0  0  0
 10 16  1  0  0  0  0
 10 17  1  0  0  0  0
 10 18  1  0  0  0  0
 19 20  1  0  0  0  0
 20 21  1  0  0  0  0
 20 22  1  0  0  0  0
 20 23  1  0  0  0  0
 23 24  4  0  0  0  0
 23 28  4  0  0  0  0
 24 25  4  0  0  0  0
 24 29  1  0  0  0  0
 25 26  4  0  0  0  0
 25 30  1  0  0  0  0
 26 27  4  0  0  0  0
 26 31  1  0  0  0  0
 27 28  4  0  0  0  0
 27 32  1  0  0  0  0
 28 33  1  0  0  0  0
 29 34  1  0  0  0  0
 29 35  1  0  0  0  0
M  END
> <BCLConfClusterSize>
1

> <ConfClashScore>
0.00057526 

> <ConfOneFourInteractionScore>
-0.927105 

> <ConfScore>
0.614045 

> <ConfScorePBest>
0.00347628 

> <ConfTolerance>
0.588562 

> <RosettaParamsInstructions>
M  ROOT 3
M  POLY_N_BB 3
M  POLY_CA_BB 4
M  POLY_C_BB 2
M  POLY_O_BB 5
M  POLY_IGNORE 9 10 11 12 13 14 15 16 17 18 
M  POLY_UPPER 6
M  POLY_LOWER 8
M  POLY_CHG 0
M  POLY_PROPERTIES ALPHA_AA D_AA PROTEIN AROMATIC POLYMER 
M  END

$$$$



 35 35  0  0  0  0  0  0  0  0999 V2000
   -2.1071    2.3862    0.7621 H   0  0  0  1  0  0  0  0  0  0  0  0
   -2.8156    4.3704    0.6241 C   0  0  0  1  0  0  0  0  0  0  0  0
   -0.4880    3.6551    0.9716 N   0  0  0  1  0  0  0  0  0  0  0  0
   -1.7614    3.3135    0.3554 C   0  0  0  1  0  0  0  0  0  0  0  0
   -3.7548    4.5468   -0.1508 O   0  0  0  1  0  0  0  0  0  0  0  0
   -2.6513    5.0855    1.7483 N   0  0  0  1  0  0  0  0  0  0  0  0
   -0.0634    3.0063    1.5709 H   0  0  0  1  0  0  0  0  0  0  0  0
    0.1284    4.8339    0.7464 C   0  0  0  1  0  0  0  0  0  0  0  0
   -3.6485    6.0702    2.1402 C   0  0  0  1  0  0  0  0  0  0  0  0
    1.4968    5.0519    1.3622 C   0  0  0  1  0  0  0  0  0  0  0  0
   -0.4020    5.7079    0.0619 O   0  0  0  1  0  0  0  0  0  0  0  0
   -1.8581    4.9441    2.3061 H   0  0  0  1  0  0  0  0  0  0  0  0
   -4.4637    6.0483    1.4474 H   0  0  0  1  0  0  0  0  0  0  0  0
   -3.2066    7.0447    2.1399 H   0  0  0  1  0  0  0  0  0  0  0  0
   -4.0086    5.8417    3.1216 H   0  0  0  1  0  0  0  0  0  0  0  0
    1.7018    4.2698    2.0630 H   0  0  0  1  0  0  0  0  0  0  0  0
    1.5147    5.9957    1.8660 H   0  0  0  1  0  0  0  0  0  0  0  0
    2.2396    5.0440    0.5920 H   0  0  0  1  0  0  0  0  0  0  0  0
   -2.0617    3.6391   -5.2083 F   0  0  0  1  0  0  0  0  0  0  0  0
   -1.9752    3.7955   -3.8861 C   0  0  0  1  0  0  0  0  0  0  0  0
   -0.7650    3.3563   -3.5372 F   0  0  0  1  0  0  0  0  0  0  0  0
   -1.9735    5.1121   -3.6648 F   0  0  0  1  0  0  0  0  0  0  0  0
   -3.0871    3.0838   -3.1437 C   0  0  0  1  0  0  0  0  0  0  0  0
   -2.8743    2.7636   -1.8119 C   0  0  0  1  0  0  0  0  0  0  0  0
   -3.8568    2.1092   -1.0931 C   0  0  0  1  0  0  0  0  0  0  0  0
   -5.0570    1.7777   -1.7024 C   0  0  0  1  0  0  0  0  0  0  0  0
   -5.2690    2.0970   -3.0303 C   0  0  0  1  0  0  0  0  0  0  0  0
   -4.2837    2.7533   -3.7514 C   0  0  0  1  0  0  0  0  0  0  0  0
   -1.5691    3.1297   -1.1456 C   0  0  0  1  0  0  0  0  0  0  0  0
   -3.6957    1.8654   -0.0950 H   0  0  0  1  0  0  0  0  0  0  0  0
   -5.7978    1.2888   -1.1604 H   0  0  0  1  0  0  0  0  0  0  0  0
   -6.1678    1.8447   -3.4886 H   0  0  0  1  0  0  0  0  0  0  0  0
   -4.4449    2.9971   -4.7495 H   0  0  0  1  0  0  0  0  0  0  0  0
   -0.8576    2.3487   -1.3151 H   0  0  0  1  0  0  0  0  0  0  0  0
   -1.2041    4.0430   -1.5670 H   0  0  0  1  0  0  0  0  0  0  0  0
  1  4  1  0  0  0  0
  2  4  1  0  0  0  0
  2  5  2  0  0  0  0
  2  6  1  0  0  0  0
  3  4  1  0  0  0  0
  3  7  1  0  0  0  0
  3  8  1  0  0  0  0
  4 29  1  0  0  0  0
  6  9  1  0  0  0  0
  6 12  1  0  0  0  0
  8 10  1  0  0  0  0
  8 11  2  0  0  0  0
  9 13  1  0  0  0  0
  9 14  1  0  0  0  0
  9 15  1  0  0  0  0
 10 16  1  0  0  0  0
 10 17  1  0  0  0  0
 10 18  1  0  0  0  0
 19 20  1  0  0  0  0
 20 21  1  0  0  0  0
 20 22  1  0  0  0  0
 20 23  1  0  0  0  0
 23 24  4  0  0  0  0
 23 28  4  0  0  0  0
 24 25  4  0  0  0  0
 24 29  1  0  0  0  0
 25 26  4  0  0  0  0
 25 30  1  0  0  0  0
 26 27  4  0  0  0  0
 26 31  1  0  0  0  0
 27 28  4  0  0  0  0
 27 32  1  0  0  0  0
 28 33  1  0  0  0  0
 29 34  1  0  0  0  0
 29 35  1  0  0  0  0
M  END
> <BCLConfClusterSize>
1

> <ConfClashScore>
0 

> <ConfOneFourInteractionScore>
-0.949923 

> <ConfScore>
0.614607 

> <ConfScorePBest>
0.0034478 

> <ConfTolerance>
0.718644 

> <RosettaParamsInstructions>
M  ROOT 3
M  POLY_N_BB 3
M  POLY_CA_BB 4
M  POLY_C_BB 2
M  POLY_O_BB 5
M  POLY_IGNORE 9 10 11 12 13 14 15 16 17 18 
M  POLY_UPPER 6
M  POLY_LOWER 8
M  POLY_CHG 0
M  POLY_PROPERTIES ALPHA_AA D_AA PROTEIN AROMATIC POLYMER 
M  END

$$$$



 35 35  0  0  0  0  0  0  0  0999 V2000
   -0.1197    3.8661   -0.4521 H   0  0  0  1  0  0  0  0  0  0  0  0
   -1.3434    3.0553    1.0575 C   0  0  0  1  0  0  0  0  0  0  0  0
   -2.0172    4.6615   -0.6324 N   0  0  0  1  0  0  0  0  0  0  0  0
   -1.1338    3.5375   -0.3601 C   0  0  0  1  0  0  0  0  0  0  0  0
   -2.4626    2.7686    1.4742 O   0  0  0  1  0  0  0  0  0  0  0  0
   -0.2446    2.9662    1.8074 N   0  0  0  1  0  0  0  0  0  0  0  0
   -2.9856    4.5114   -0.6378 H   0  0  0  1  0  0  0  0  0  0  0  0
   -1.5363    5.9373   -0.8844 C   0  0  0  1  0  0  0  0  0  0  0  0
   -0.2480    2.6506    3.2281 C   0  0  0  1  0  0  0  0  0  0  0  0
   -2.4969    7.0064   -1.3239 C   0  0  0  1  0  0  0  0  0  0  0  0
   -0.3438    6.1504   -0.7401 O   0  0  0  1  0  0  0  0  0  0  0  0
    0.6204    3.1231    1.3744 H   0  0  0  1  0  0  0  0  0  0  0  0
   -0.3188    1.5909    3.3584 H   0  0  0  1  0  0  0  0  0  0  0  0
   -1.0855    3.1241    3.6964 H   0  0  0  1  0  0  0  0  0  0  0  0
    0.6579    3.0048    3.6740 H   0  0  0  1  0  0  0  0  0  0  0  0
   -2.9636    7.4422   -0.4653 H   0  0  0  1  0  0  0  0  0  0  0  0
   -3.2451    6.5753   -1.9559 H   0  0  0  1  0  0  0  0  0  0  0  0
   -1.9660    7.7627   -1.8634 H   0  0  0  1  0  0  0  0  0  0  0  0
   -0.9660    4.1825   -3.1677 F   0  0  0  1  0  0  0  0  0  0  0  0
   -1.9985    3.7978   -3.9201 C   0  0  0  1  0  0  0  0  0  0  0  0
   -2.4658    4.8983   -4.5116 F   0  0  0  1  0  0  0  0  0  0  0  0
   -1.5139    3.0082   -4.8795 F   0  0  0  1  0  0  0  0  0  0  0  0
   -3.0648    3.1249   -3.0885 C   0  0  0  1  0  0  0  0  0  0  0  0
   -2.7480    2.3994   -1.9506 C   0  0  0  1  0  0  0  0  0  0  0  0
   -3.7376    1.7171   -1.2684 C   0  0  0  1  0  0  0  0  0  0  0  0
   -5.0478    1.7626   -1.7189 C   0  0  0  1  0  0  0  0  0  0  0  0
   -5.3635    2.4860   -2.8534 C   0  0  0  1  0  0  0  0  0  0  0  0
   -4.3711    3.1704   -3.5378 C   0  0  0  1  0  0  0  0  0  0  0  0
   -1.3542    2.4091   -1.3687 C   0  0  0  1  0  0  0  0  0  0  0  0
   -3.4993    1.1695   -0.4170 H   0  0  0  1  0  0  0  0  0  0  0  0
   -5.7930    1.2525   -1.2032 H   0  0  0  1  0  0  0  0  0  0  0  0
   -6.3457    2.5169   -3.1938 H   0  0  0  1  0  0  0  0  0  0  0  0
   -4.6095    3.7180   -4.3892 H   0  0  0  1  0  0  0  0  0  0  0  0
   -1.1841    1.4743   -0.8765 H   0  0  0  1  0  0  0  0  0  0  0  0
   -0.6522    2.5248   -2.1680 H   0  0  0  1  0  0  0  0  0  0  0  0
  1  4  1  0  0  0  0
  2  4  1  0  0  0  0
  2  5  2  0  0  0  0
  2  6  1  0  0  0  0
  3  4  1  0  0  0  0
  3  7  1  0  0  0  0
  3  8  1  0  0  0  0
  4 29  1  0  0  0  0
  6  9  1  0  0  0  0
  6 12  1  0  0  0  0
  8 10  1  0  0  0  0
  8 11  2  0  0  0  0
  9 13  1  0  0  0  0
  9 14  1  0  0  0  0
  9 15  1  0  0  0  0
 10 16  1  0  0  0  0
 10 17  1  0  0  0  0
 10 18  1  0  0  0  0
 19 20  1  0  0  0  0
 20 21  1  0  0  0  0
 20 22  1  0  0  0  0
 20 23  1  0  0  0  0
 23 24  4  0  0  0  0
 23 28  4  0  0  0  0
 24 25  4  0  0  0  0
 24 29  1  0  0  0  0
 25 26  4  0  0  0  0
 25 30  1  0  0  0  0
 26 27  4  0  0  0  0
 26 31  1  0  0  0  0
 27 28  4  0  0  0  0
 27 32  1  0  0  0  0
 28 33  1  0  0  0  0
 29 34  1  0  0  0  0
 29 35  1  0  0  0  0
M  END
> <BCLConfClusterSize>
1

> <ConfClashScore>
0 

> <ConfOneFourInteractionScore>
-0.962556 

> <ConfScore>
0.619962 

> <ConfScorePBest>
0.00341932 

> <ConfTolerance>
0.835096 

> <RosettaParamsInstructions>
M  ROOT 3
M  POLY_N_BB 3
M  POLY_CA_BB 4
M  POLY_C_BB 2
M  POLY_O_BB 5
M  POLY_IGNORE 9 10 11 12 13 14 15 16 17 18 
M  POLY_UPPER 6
M  POLY_LOWER 8
M  POLY_CHG 0
M  POLY_PROPERTIES ALPHA_AA D_AA PROTEIN AROMATIC POLYMER 
M  END

$$$$



 35 35  0  0  0  0  0  0  0  0999 V2000
   -1.2981    0.7870   -0.6711 H   0  0  0  1  0  0  0  0  0  0  0  0
    0.4696    1.7250   -0.0265 C   0  0  0  1  0  0  0  0  0  0  0  0
   -0.1138    1.0680   -2.3306 N   0  0  0  1  0  0  0  0  0  0  0  0
   -0.6318    1.5324   -1.0524 C   0  0  0  1  0  0  0  0  0  0  0  0
    1.3905    2.5072   -0.2556 O   0  0  0  1  0  0  0  0  0  0  0  0
    0.3300    1.0798    1.1351 N   0  0  0  1  0  0  0  0  0  0  0  0
   -0.5135    1.4129   -3.1563 H   0  0  0  1  0  0  0  0  0  0  0  0
    0.8876    0.1879   -2.4176 C   0  0  0  1  0  0  0  0  0  0  0  0
    1.2208    1.2184    2.2775 C   0  0  0  1  0  0  0  0  0  0  0  0
    1.3532   -0.1474   -3.8287 C   0  0  0  1  0  0  0  0  0  0  0  0
    1.4126   -0.3290   -1.4323 O   0  0  0  1  0  0  0  0  0  0  0  0
   -0.4295    0.4669    1.2245 H   0  0  0  1  0  0  0  0  0  0  0  0
    2.2100    0.9223    1.9971 H   0  0  0  1  0  0  0  0  0  0  0  0
    0.8755    0.5960    3.0764 H   0  0  0  1  0  0  0  0  0  0  0  0
    1.2319    2.2389    2.5990 H   0  0  0  1  0  0  0  0  0  0  0  0
    0.7740    0.4072   -4.5371 H   0  0  0  1  0  0  0  0  0  0  0  0
    1.2262   -1.1948   -4.0064 H   0  0  0  1  0  0  0  0  0  0  0  0
    2.3865    0.1100   -3.9336 H   0  0  0  1  0  0  0  0  0  0  0  0
   -0.9638    3.0195   -4.1883 F   0  0  0  1  0  0  0  0  0  0  0  0
   -1.9932    3.7923   -3.9073 C   0  0  0  1  0  0  0  0  0  0  0  0
   -1.4692    4.8132   -3.2195 F   0  0  0  1  0  0  0  0  0  0  0  0
   -2.4191    4.3095   -5.0411 F   0  0  0  1  0  0  0  0  0  0  0  0
   -3.0742    3.0805   -3.1287 C   0  0  0  1  0  0  0  0  0  0  0  0
   -2.7995    2.5675   -1.8706 C   0  0  0  1  0  0  0  0  0  0  0  0
   -3.7877    1.9116   -1.1610 C   0  0  0  1  0  0  0  0  0  0  0  0
   -5.0550    1.7716   -1.7050 C   0  0  0  1  0  0  0  0  0  0  0  0
   -5.3287    2.2832   -2.9594 C   0  0  0  1  0  0  0  0  0  0  0  0
   -4.3377    2.9410   -3.6713 C   0  0  0  1  0  0  0  0  0  0  0  0
   -1.4470    2.8146   -1.2451 C   0  0  0  1  0  0  0  0  0  0  0  0
   -3.5806    1.5231   -0.2188 H   0  0  0  1  0  0  0  0  0  0  0  0
   -5.7997    1.2816   -1.1693 H   0  0  0  1  0  0  0  0  0  0  0  0
   -6.2784    2.1747   -3.3693 H   0  0  0  1  0  0  0  0  0  0  0  0
   -4.5450    3.3295   -4.6135 H   0  0  0  1  0  0  0  0  0  0  0  0
   -0.8949    3.4772   -1.8784 H   0  0  0  1  0  0  0  0  0  0  0  0
   -1.5925    3.2727   -0.2892 H   0  0  0  1  0  0  0  0  0  0  0  0
  1  4  1  0  0  0  0
  2  4  1  0  0  0  0
  2  5  2  0  0  0  0
  2  6  1  0  0  0  0
  3  4  1  0  0  0  0
  3  7  1  0  0  0  0
  3  8  1  0  0  0  0
  4 29  1  0  0  0  0
  6  9  1  0  0  0  0
  6 12  1  0  0  0  0
  8 10  1  0  0  0  0
  8 11  2  0  0  0  0
  9 13  1  0  0  0  0
  9 14  1  0  0  0  0
  9 15  1  0  0  0  0
 10 16  1  0  0  0  0
 10 17  1  0  0  0  0
 10 18  1  0  0  0  0
 19 20  1  0  0  0  0
 20 21  1  0  0  0  0
 20 22  1  0  0  0  0
 20 23  1  0  0  0  0
 23 24  4  0  0  0  0
 23 28  4  0  0  0  0
 24 25  4  0  0  0  0
 24 29  1  0  0  0  0
 25 26  4  0  0  0  0
 25 30  1  0  0  0  0
 26 27  4  0  0  0  0
 26 31  1  0  0  0  0
 27 28  4  0  0  0  0
 27 32  1  0  0  0  0
 28 33  1  0  0  0  0
 29 34  1  0  0  0  0
 29 35  1  0  0  0  0
M  END
> <BCLConfClusterSize>
1

> <ConfClashScore>
0 

> <ConfOneFourInteractionScore>
-0.978127 

> <ConfScore>
0.626222 

> <ConfScorePBest>
0.00339084 

> <ConfTolerance>
0.880825 

> <RosettaParamsInstructions>
M  ROOT 3
M  POLY_N_BB 3
M  POLY_CA_BB 4
M  POLY_C_BB 2
M  POLY_O_BB 5
M  POLY_IGNORE 9 10 11 12 13 14 15 16 17 18 
M  POLY_UPPER 6
M  POLY_LOWER 8
M  POLY_CHG 0
M  POLY_PROPERTIES ALPHA_AA D_AA PROTEIN AROMATIC POLYMER 
M  END

$$$$



 35 35  0  0  0  0  0  0  0  0999 V2000
    0.0978    2.1365   -0.0904 H   0  0  0  1  0  0  0  0  0  0  0  0
   -0.6707    0.6534   -1.3601 C   0  0  0  1  0  0  0  0  0  0  0  0
   -1.6400    1.4380    0.7620 N   0  0  0  1  0  0  0  0  0  0  0  0
   -0.8703    1.8158   -0.4140 C   0  0  0  1  0  0  0  0  0  0  0  0
   -1.0741   -0.4722   -1.0707 O   0  0  0  1  0  0  0  0  0  0  0  0
   -0.0442    0.8857   -2.5171 N   0  0  0  1  0  0  0  0  0  0  0  0
   -1.8736    0.4952    0.8915 H   0  0  0  1  0  0  0  0  0  0  0  0
   -2.0391    2.3320    1.6711 C   0  0  0  1  0  0  0  0  0  0  0  0
    0.2358   -0.1728   -3.4757 C   0  0  0  1  0  0  0  0  0  0  0  0
   -2.8922    1.7874    2.8001 C   0  0  0  1  0  0  0  0  0  0  0  0
   -1.7458    3.5148    1.6130 O   0  0  0  1  0  0  0  0  0  0  0  0
    0.2364    1.8008   -2.7275 H   0  0  0  1  0  0  0  0  0  0  0  0
    1.2943   -0.2853   -3.5845 H   0  0  0  1  0  0  0  0  0  0  0  0
   -0.1949    0.0802   -4.4219 H   0  0  0  1  0  0  0  0  0  0  0  0
   -0.1861   -1.0916   -3.1254 H   0  0  0  1  0  0  0  0  0  0  0  0
   -3.7659    1.3213    2.3948 H   0  0  0  1  0  0  0  0  0  0  0  0
   -3.1831    2.5895    3.4459 H   0  0  0  1  0  0  0  0  0  0  0  0
   -2.3296    1.0671    3.3565 H   0  0  0  1  0  0  0  0  0  0  0  0
   -2.5185    4.4660   -4.9522 F   0  0  0  1  0  0  0  0  0  0  0  0
   -2.0015    3.8064   -3.9141 C   0  0  0  1  0  0  0  0  0  0  0  0
   -1.0892    2.9741   -4.4183 F   0  0  0  1  0  0  0  0  0  0  0  0
   -1.3292    4.7074   -3.1966 F   0  0  0  1  0  0  0  0  0  0  0  0
   -3.0570    3.0866   -3.1000 C   0  0  0  1  0  0  0  0  0  0  0  0
   -2.8445    2.6984   -1.7864 C   0  0  0  1  0  0  0  0  0  0  0  0
   -3.8407    2.0393   -1.0910 C   0  0  0  1  0  0  0  0  0  0  0  0
   -5.0540    1.7711   -1.7054 C   0  0  0  1  0  0  0  0  0  0  0  0
   -5.2656    2.1583   -3.0151 C   0  0  0  1  0  0  0  0  0  0  0  0
   -4.2667    2.8194   -3.7127 C   0  0  0  1  0  0  0  0  0  0  0  0
   -1.5248    2.9954   -1.1143 C   0  0  0  1  0  0  0  0  0  0  0  0
   -3.6799    1.7444   -0.1067 H   0  0  0  1  0  0  0  0  0  0  0  0
   -5.8050    1.2787   -1.1808 H   0  0  0  1  0  0  0  0  0  0  0  0
   -6.1745    1.9536   -3.4774 H   0  0  0  1  0  0  0  0  0  0  0  0
   -4.4275    3.1142   -4.6970 H   0  0  0  1  0  0  0  0  0  0  0  0
   -0.8472    3.3532   -1.8612 H   0  0  0  1  0  0  0  0  0  0  0  0
   -1.6904    3.7613   -0.3858 H   0  0  0  1  0  0  0  0  0  0  0  0
  1  4  1  0  0  0  0
  2  4  1  0  0  0  0
  2  5  2  0  0  0  0
  2  6  1  0  0  0  0
  3  4  1  0  0  0  0
  3  7  1  0  0  0  0
  3  8  1  0  0  0  0
  4 29  1  0  0  0  0
  6  9  1  0  0  0  0
  6 12  1  0  0  0  0
  8 10  1  0  0  0  0
  8 11  2  0  0  0  0
  9 13  1  0  0  0  0
  9 14  1  0  0  0  0
  9 15  1  0  0  0  0
 10 16  1  0  0  0  0
 10 17  1  0  0  0  0
 10 18  1  0  0  0  0
 19 20  1  0  0  0  0
 20 21  1  0  0  0  0
 20 22  1  0  0  0  0
 20 23  1  0  0  0  0
 23 24  4  0  0  0  0
 23 28  4  0  0  0  0
 24 25  4  0  0  0  0
 24 29  1  0  0  0  0
 25 26  4  0  0  0  0
 25 30  1  0  0  0  0
 26 27  4  0  0  0  0
 26 31  1  0  0  0  0
 27 28  4  0  0  0  0
 27 32  1  0  0  0  0
 28 33  1  0  0  0  0
 29 34  1  0  0  0  0
 29 35  1  0  0  0  0
M  END
> <BCLConfClusterSize>
1

> <ConfClashScore>
0 

> <ConfOneFourInteractionScore>
-0.984592 

> <ConfScore>
0.628364 

> <ConfScorePBest>
0.00336236 

> <ConfTolerance>
1.02006 

> <RosettaParamsInstructions>
M  ROOT 3
M  POLY_N_BB 3
M  POLY_CA_BB 4
M  POLY_C_BB 2
M  POLY_O_BB 5
M  POLY_IGNORE 9 10 11 12 13 14 15 16 17 18 
M  POLY_UPPER 6
M  POLY_LOWER 8
M  POLY_CHG 0
M  POLY_PROPERTIES ALPHA_AA D_AA PROTEIN AROMATIC POLYMER 
M  END

$$$$



 35 35  0  0  0  0  0  0  0  0999 V2000
   -0.3103    4.4793   -1.0244 H   0  0  0  1  0  0  0  0  0  0  0  0
   -0.6036    3.5900    0.8730 C   0  0  0  1  0  0  0  0  0  0  0  0
   -2.2786    4.7960   -0.4730 N   0  0  0  1  0  0  0  0  0  0  0  0
   -1.0940    3.9521   -0.5216 C   0  0  0  1  0  0  0  0  0  0  0  0
   -0.0967    2.4936    1.1069 O   0  0  0  1  0  0  0  0  0  0  0  0
   -0.7611    4.5326    1.8066 N   0  0  0  1  0  0  0  0  0  0  0  0
   -2.2761    5.6434   -0.9652 H   0  0  0  1  0  0  0  0  0  0  0  0
   -3.3694    4.4556    0.2194 C   0  0  0  1  0  0  0  0  0  0  0  0
   -0.3732    4.3254    3.1939 C   0  0  0  1  0  0  0  0  0  0  0  0
   -4.5693    5.3666    0.0478 C   0  0  0  1  0  0  0  0  0  0  0  0
   -3.4156    3.4782    0.9480 O   0  0  0  1  0  0  0  0  0  0  0  0
   -1.1516    5.3936    1.5483 H   0  0  0  1  0  0  0  0  0  0  0  0
    0.1280    5.1975    3.5587 H   0  0  0  1  0  0  0  0  0  0  0  0
    0.2841    3.4835    3.2582 H   0  0  0  1  0  0  0  0  0  0  0  0
   -1.2464    4.1428    3.7847 H   0  0  0  1  0  0  0  0  0  0  0  0
   -5.1623    5.3478    0.9383 H   0  0  0  1  0  0  0  0  0  0  0  0
   -5.1579    5.0288   -0.7795 H   0  0  0  1  0  0  0  0  0  0  0  0
   -4.2346    6.3661   -0.1365 H   0  0  0  1  0  0  0  0  0  0  0  0
   -0.9490    3.0438   -4.1604 F   0  0  0  1  0  0  0  0  0  0  0  0
   -1.9899    3.8126   -3.8789 C   0  0  0  1  0  0  0  0  0  0  0  0
   -1.5198    4.8718   -3.2521 F   0  0  0  1  0  0  0  0  0  0  0  0
   -2.4210    4.2681   -5.0587 F   0  0  0  1  0  0  0  0  0  0  0  0
   -3.0738    3.0949   -3.1098 C   0  0  0  1  0  0  0  0  0  0  0  0
   -2.8086    2.5875   -1.8474 C   0  0  0  1  0  0  0  0  0  0  0  0
   -3.7994    1.9262   -1.1464 C   0  0  0  1  0  0  0  0  0  0  0  0
   -5.0597    1.7751   -1.7035 C   0  0  0  1  0  0  0  0  0  0  0  0
   -5.3239    2.2811   -2.9622 C   0  0  0  1  0  0  0  0  0  0  0  0
   -4.3304    2.9443   -3.6654 C   0  0  0  1  0  0  0  0  0  0  0  0
   -1.3988    2.6924   -1.3156 C   0  0  0  1  0  0  0  0  0  0  0  0
   -3.5994    1.5420   -0.2009 H   0  0  0  1  0  0  0  0  0  0  0  0
   -5.8064    1.2810   -1.1743 H   0  0  0  1  0  0  0  0  0  0  0  0
   -6.2683    2.1642   -3.3818 H   0  0  0  1  0  0  0  0  0  0  0  0
   -4.5304    3.3285   -4.6108 H   0  0  0  1  0  0  0  0  0  0  0  0
   -1.2225    1.8504   -0.6793 H   0  0  0  1  0  0  0  0  0  0  0  0
   -0.7283    2.6570   -2.1487 H   0  0  0  1  0  0  0  0  0  0  0  0
  1  4  1  0  0  0  0
  2  4  1  0  0  0  0
  2  5  2  0  0  0  0
  2  6  1  0  0  0  0
  3  4  1  0  0  0  0
  3  7  1  0  0  0  0
  3  8  1  0  0  0  0
  4 29  1  0  0  0  0
  6  9  1  0  0  0  0
  6 12  1  0  0  0  0
  8 10  1  0  0  0  0
  8 11  2  0  0  0  0
  9 13  1  0  0  0  0
  9 14  1  0  0  0  0
  9 15  1  0  0  0  0
 10 16  1  0  0  0  0
 10 17  1  0  0  0  0
 10 18  1  0  0  0  0
 19 20  1  0  0  0  0
 20 21  1  0  0  0  0
 20 22  1  0  0  0  0
 20 23  1  0  0  0  0
 23 24  4  0  0  0  0
 23 28  4  0  0  0  0
 24 25  4  0  0  0  0
 24 29  1  0  0  0  0
 25 26  4  0  0  0  0
 25 30  1  0  0  0  0
 26 27  4  0  0  0  0
 26 31  1  0  0  0  0
 27 28  4  0  0  0  0
 27 32  1  0  0  0  0
 28 33  1  0  0  0  0
 29 34  1  0  0  0  0
 29 35  1  0  0  0  0
M  END
> <BCLConfClusterSize>
1

> <ConfClashScore>
0 

> <ConfOneFourInteractionScore>
-0.934113 

> <ConfScore>
0.640122 

> <ConfScorePBest>
0.00333388 

> <ConfTolerance>
0.90359 

> <RosettaParamsInstructions>
M  ROOT 3
M  POLY_N_BB 3
M  POLY_CA_BB 4
M  POLY_C_BB 2
M  POLY_O_BB 5
M  POLY_IGNORE 9 10 11 12 13 14 15 16 17 18 
M  POLY_UPPER 6
M  POLY_LOWER 8
M  POLY_CHG 0
M  POLY_PROPERTIES ALPHA_AA D_AA PROTEIN AROMATIC POLYMER 
M  END

$$$$



 35 35  0  0  0  0  0  0  0  0999 V2000
   -0.6658    4.8329   -0.3115 H   0  0  0  1  0  0  0  0  0  0  0  0
   -2.0564    4.1748    1.1212 C   0  0  0  1  0  0  0  0  0  0  0  0
   -2.5637    5.3521   -0.9502 N   0  0  0  1  0  0  0  0  0  0  0  0
   -1.6422    4.3953   -0.3211 C   0  0  0  1  0  0  0  0  0  0  0  0
   -2.1228    5.0605    1.9526 O   0  0  0  1  0  0  0  0  0  0  0  0
   -2.3593    2.9119    1.4579 N   0  0  0  1  0  0  0  0  0  0  0  0
   -3.0337    5.0878   -1.7685 H   0  0  0  1  0  0  0  0  0  0  0  0
   -2.7849    6.5814   -0.4403 C   0  0  0  1  0  0  0  0  0  0  0  0
   -2.8023    2.6021    2.8091 C   0  0  0  1  0  0  0  0  0  0  0  0
   -3.6903    7.5093   -1.2007 C   0  0  0  1  0  0  0  0  0  0  0  0
   -2.2622    6.9349    0.6159 O   0  0  0  1  0  0  0  0  0  0  0  0
   -2.2821    2.1965    0.7926 H   0  0  0  1  0  0  0  0  0  0  0  0
   -2.2938    3.2354    3.5057 H   0  0  0  1  0  0  0  0  0  0  0  0
   -2.5816    1.5789    3.0308 H   0  0  0  1  0  0  0  0  0  0  0  0
   -3.8573    2.7643    2.8843 H   0  0  0  1  0  0  0  0  0  0  0  0
   -4.4471    6.9407   -1.6994 H   0  0  0  1  0  0  0  0  0  0  0  0
   -3.1181    8.0525   -1.9235 H   0  0  0  1  0  0  0  0  0  0  0  0
   -4.1501    8.1954   -0.5204 H   0  0  0  1  0  0  0  0  0  0  0  0
   -2.2818    3.9708   -5.1700 F   0  0  0  1  0  0  0  0  0  0  0  0
   -1.9766    3.8012   -3.8824 C   0  0  0  1  0  0  0  0  0  0  0  0
   -0.8428    3.0992   -3.8519 F   0  0  0  1  0  0  0  0  0  0  0  0
   -1.7090    5.0069   -3.3791 F   0  0  0  1  0  0  0  0  0  0  0  0
   -3.0848    3.0891   -3.1433 C   0  0  0  1  0  0  0  0  0  0  0  0
   -2.8687    2.7597   -1.8143 C   0  0  0  1  0  0  0  0  0  0  0  0
   -3.8506    2.1028   -1.0969 C   0  0  0  1  0  0  0  0  0  0  0  0
   -5.0534    1.7781   -1.7047 C   0  0  0  1  0  0  0  0  0  0  0  0
   -5.2686    2.1066   -3.0298 C   0  0  0  1  0  0  0  0  0  0  0  0
   -4.2840    2.7655   -3.7495 C   0  0  0  1  0  0  0  0  0  0  0  0
   -1.5607    3.1183   -1.1496 C   0  0  0  1  0  0  0  0  0  0  0  0
   -3.6870    1.8520   -0.1009 H   0  0  0  1  0  0  0  0  0  0  0  0
   -5.7937    1.2874   -1.1637 H   0  0  0  1  0  0  0  0  0  0  0  0
   -6.1694    1.8595   -3.4870 H   0  0  0  1  0  0  0  0  0  0  0  0
   -4.4477    3.0162   -4.7455 H   0  0  0  1  0  0  0  0  0  0  0  0
   -1.2734    2.3129   -0.5064 H   0  0  0  1  0  0  0  0  0  0  0  0
   -0.8183    3.2515   -1.9085 H   0  0  0  1  0  0  0  0  0  0  0  0
  1  4  1  0  0  0  0
  2  4  1  0  0  0  0
  2  5  2  0  0  0  0
  2  6  1  0  0  0  0
  3  4  1  0  0  0  0
  3  7  1  0  0  0  0
  3  8  1  0  0  0  0
  4 29  1  0  0  0  0
  6  9  1  0  0  0  0
  6 12  1  0  0  0  0
  8 10  1  0  0  0  0
  8 11  2  0  0  0  0
  9 13  1  0  0  0  0
  9 14  1  0  0  0  0
  9 15  1  0  0  0  0
 10 16  1  0  0  0  0
 10 17  1  0  0  0  0
 10 18  1  0  0  0  0
 19 20  1  0  0  0  0
 20 21  1  0  0  0  0
 20 22  1  0  0  0  0
 20 23  1  0  0  0  0
 23 24  4  0  0  0  0
 23 28  4  0  0  0  0
 24 25  4  0  0  0  0
 24 29  1  0  0  0  0
 25 26  4  0  0  0  0
 25 30  1  0  0  0  0
 26 27  4  0  0  0  0
 26 31  1  0  0  0  0
 27 28  4  0  0  0  0
 27 32  1  0  0  0  0
 28 33  1  0  0  0  0
 29 34  1  0  0  0  0
 29 35  1  0  0  0  0
M  END
> <BCLConfClusterSize>
1

> <ConfClashScore>
0.00183013 

> <ConfOneFourInteractionScore>
-0.92929 

> <ConfScore>
0.642698 

> <ConfScorePBest>
0.0033054 

> <ConfTolerance>
0.443868 

> <RosettaParamsInstructions>
M  ROOT 3
M  POLY_N_BB 3
M  POLY_CA_BB 4
M  POLY_C_BB 2
M  POLY_O_BB 5
M  POLY_IGNORE 9 10 11 12 13 14 15 16 17 18 
M  POLY_UPPER 6
M  POLY_LOWER 8
M  POLY_CHG 0
M  POLY_PROPERTIES ALPHA_AA D_AA PROTEIN AROMATIC POLYMER 
M  END

$$$$



 35 35  0  0  0  0  0  0  0  0999 V2000
   -0.2072    2.6488   -2.7919 H   0  0  0  1  0  0  0  0  0  0  0  0
   -0.5514    0.7681   -1.9197 C   0  0  0  1  0  0  0  0  0  0  0  0
    0.8994    2.5654   -1.0589 N   0  0  0  1  0  0  0  0  0  0  0  0
   -0.3152    2.2611   -1.8005 C   0  0  0  1  0  0  0  0  0  0  0  0
   -1.2255    0.1600   -1.0894 O   0  0  0  1  0  0  0  0  0  0  0  0
    0.0184    0.1702   -2.9780 N   0  0  0  1  0  0  0  0  0  0  0  0
    1.4101    3.3674   -1.2962 H   0  0  0  1  0  0  0  0  0  0  0  0
    1.3425    1.7893   -0.0657 C   0  0  0  1  0  0  0  0  0  0  0  0
   -0.0794   -1.2725   -3.1425 C   0  0  0  1  0  0  0  0  0  0  0  0
    2.5915    2.2756    0.6433 C   0  0  0  1  0  0  0  0  0  0  0  0
    0.7869    0.7454    0.2660 O   0  0  0  1  0  0  0  0  0  0  0  0
    0.5012    0.7063   -3.6412 H   0  0  0  1  0  0  0  0  0  0  0  0
   -1.0401   -1.6056   -2.8093 H   0  0  0  1  0  0  0  0  0  0  0  0
    0.6838   -1.7497   -2.5640 H   0  0  0  1  0  0  0  0  0  0  0  0
    0.0461   -1.5228   -4.1752 H   0  0  0  1  0  0  0  0  0  0  0  0
    3.0748    1.4498    1.1222 H   0  0  0  1  0  0  0  0  0  0  0  0
    2.3230    3.0061    1.3776 H   0  0  0  1  0  0  0  0  0  0  0  0
    3.2581    2.7141   -0.0697 H   0  0  0  1  0  0  0  0  0  0  0  0
   -2.4686    4.6267   -4.8317 F   0  0  0  1  0  0  0  0  0  0  0  0
   -1.9930    3.7965   -3.9019 C   0  0  0  1  0  0  0  0  0  0  0  0
   -1.1605    2.9707   -4.5186 F   0  0  0  1  0  0  0  0  0  0  0  0
   -1.2182    4.5519   -3.1180 F   0  0  0  1  0  0  0  0  0  0  0  0
   -3.0750    3.0845   -3.1249 C   0  0  0  1  0  0  0  0  0  0  0  0
   -2.8413    2.6833   -1.8187 C   0  0  0  1  0  0  0  0  0  0  0  0
   -3.8301    2.0271   -1.1102 C   0  0  0  1  0  0  0  0  0  0  0  0
   -5.0571    1.7749   -1.7037 C   0  0  0  1  0  0  0  0  0  0  0  0
   -5.2899    2.1749   -3.0059 C   0  0  0  1  0  0  0  0  0  0  0  0
   -4.2984    2.8331   -3.7168 C   0  0  0  1  0  0  0  0  0  0  0  0
   -1.5066    2.9629   -1.1693 C   0  0  0  1  0  0  0  0  0  0  0  0
   -3.6534    1.7225   -0.1316 H   0  0  0  1  0  0  0  0  0  0  0  0
   -5.8024    1.2847   -1.1691 H   0  0  0  1  0  0  0  0  0  0  0  0
   -6.2091    1.9822   -3.4526 H   0  0  0  1  0  0  0  0  0  0  0  0
   -4.4751    3.1376   -4.6954 H   0  0  0  1  0  0  0  0  0  0  0  0
   -1.3312    4.0174   -1.2160 H   0  0  0  1  0  0  0  0  0  0  0  0
   -1.5665    2.6558   -0.1461 H   0  0  0  1  0  0  0  0  0  0  0  0
  1  4  1  0  0  0  0
  2  4  1  0  0  0  0
  2  5  2  0  0  0  0
  2  6  1  0  0  0  0
  3  4  1  0  0  0  0
  3  7  1  0  0  0  0
  3  8  1  0  0  0  0
  4 29  1  0  0  0  0
  6  9  1  0  0  0  0
  6 12  1  0  0  0  0
  8 10  1  0  0  0  0
  8 11  2  0  0  0  0
  9 13  1  0  0  0  0
  9 14  1  0  0  0  0
  9 15  1  0  0  0  0
 10 16  1  0  0  0  0
 10 17  1  0  0  0  0
 10 18  1  0  0  0  0
 19 20  1  0  0  0  0
 20 21  1  0  0  0  0
 20 22  1  0  0  0  0
 20 23  1  0  0  0  0
 23 24  4  0  0  0  0
 23 28  4  0  0  0  0
 24 25  4  0  0  0  0
 24 29  1  0  0  0  0
 25 26  4  0  0  0  0
 25 30  1  0  0  0  0
 26 27  4  0  0  0  0
 26 31  1  0  0  0  0
 27 28  4  0  0  0  0
 27 32  1  0  0  0  0
 28 33  1  0  0  0  0
 29 34  1  0  0  0  0
 29 35  1  0  0  0  0
M  END
> <BCLConfClusterSize>
1

> <ConfClashScore>
0.00019836 

> <ConfOneFourInteractionScore>
-0.976539 

> <ConfScore>
0.644859 

> <ConfScorePBest>
0.00327691 

> <ConfTolerance>
0.801121 

> <RosettaParamsInstructions>
M  ROOT 3
M  POLY_N_BB 3
M  POLY_CA_BB 4
M  POLY_C_BB 2
M  POLY_O_BB 5
M  POLY_IGNORE 9 10 11 12 13 14 15 16 17 18 
M  POLY_UPPER 6
M  POLY_LOWER 8
M  POLY_CHG 0
M  POLY_PROPERTIES ALPHA_AA D_AA PROTEIN AROMATIC POLYMER 
M  END

$$$$



 35 35  0  0  0  0  0  0  0  0999 V2000
   -2.1478    2.8199    0.8548 H   0  0  0  1  0  0  0  0  0  0  0  0
   -0.0446    2.7104    0.8559 C   0  0  0  1  0  0  0  0  0  0  0  0
   -1.6233    0.9862    0.0501 N   0  0  0  1  0  0  0  0  0  0  0  0
   -1.3880    2.4239    0.2138 C   0  0  0  1  0  0  0  0  0  0  0  0
    1.0182    2.2587    0.4624 O   0  0  0  1  0  0  0  0  0  0  0  0
   -0.1216    3.5195    1.9163 N   0  0  0  1  0  0  0  0  0  0  0  0
   -2.3758    0.5917    0.5385 H   0  0  0  1  0  0  0  0  0  0  0  0
   -0.8902    0.1745   -0.7135 C   0  0  0  1  0  0  0  0  0  0  0  0
    1.0547    3.9277    2.6697 C   0  0  0  1  0  0  0  0  0  0  0  0
   -1.3278   -1.2770   -0.7413 C   0  0  0  1  0  0  0  0  0  0  0  0
    0.0804    0.5601   -1.3597 O   0  0  0  1  0  0  0  0  0  0  0  0
   -1.0008    3.8496    2.1965 H   0  0  0  1  0  0  0  0  0  0  0  0
    1.9372    3.6294    2.1434 H   0  0  0  1  0  0  0  0  0  0  0  0
    1.0399    3.4626    3.6332 H   0  0  0  1  0  0  0  0  0  0  0  0
    1.0517    4.9914    2.7864 H   0  0  0  1  0  0  0  0  0  0  0  0
   -2.3890   -1.3326   -0.6163 H   0  0  0  1  0  0  0  0  0  0  0  0
   -0.8470   -1.8095    0.0525 H   0  0  0  1  0  0  0  0  0  0  0  0
   -1.0562   -1.7133   -1.6799 H   0  0  0  1  0  0  0  0  0  0  0  0
   -2.3711    4.1105   -5.1147 F   0  0  0  1  0  0  0  0  0  0  0  0
   -1.9789    3.7987   -3.8782 C   0  0  0  1  0  0  0  0  0  0  0  0
   -0.9032    3.0662   -4.0525 F   0  0  0  1  0  0  0  0  0  0  0  0
   -1.6283    4.9411   -3.3401 F   0  0  0  1  0  0  0  0  0  0  0  0
   -3.0664    3.0850   -3.1103 C   0  0  0  1  0  0  0  0  0  0  0  0
   -2.8638    2.7348   -1.7844 C   0  0  0  1  0  0  0  0  0  0  0  0
   -3.8574    2.0771   -1.0840 C   0  0  0  1  0  0  0  0  0  0  0  0
   -5.0583    1.7724   -1.7056 C   0  0  0  1  0  0  0  0  0  0  0  0
   -5.2601    2.1216   -3.0275 C   0  0  0  1  0  0  0  0  0  0  0  0
   -4.2638    2.7813   -3.7302 C   0  0  0  1  0  0  0  0  0  0  0  0
   -1.5395    3.0959   -1.1541 C   0  0  0  1  0  0  0  0  0  0  0  0
   -3.7039    1.8108   -0.0905 H   0  0  0  1  0  0  0  0  0  0  0  0
   -5.8073    1.2810   -1.1773 H   0  0  0  1  0  0  0  0  0  0  0  0
   -6.1595    1.8894   -3.4952 H   0  0  0  1  0  0  0  0  0  0  0  0
   -4.4172    3.0476   -4.7238 H   0  0  0  1  0  0  0  0  0  0  0  0
   -0.7461    2.7710   -1.7943 H   0  0  0  1  0  0  0  0  0  0  0  0
   -1.4873    4.1575   -1.0311 H   0  0  0  1  0  0  0  0  0  0  0  0
  1  4  1  0  0  0  0
  2  4  1  0  0  0  0
  2  5  2  0  0  0  0
  2  6  1  0  0  0  0
  3  4  1  0  0  0  0
  3  7  1  0  0  0  0
  3  8  1  0  0  0  0
  4 29  1  0  0  0  0
  6  9  1  0  0  0  0
  6 12  1  0  0  0  0
  8 10  1  0  0  0  0
  8 11  2  0  0  0  0
  9 13  1  0  0  0  0
  9 14  1  0  0  0  0
  9 15  1  0  0  0  0
 10 16  1  0  0  0  0
 10 17  1  0  0  0  0
 10 18  1  0  0  0  0
 19 20  1  0  0  0  0
 20 21  1  0  0  0  0
 20 22  1  0  0  0  0
 20 23  1  0  0  0  0
 23 24  4  0  0  0  0
 23 28  4  0  0  0  0
 24 25  4  0  0  0  0
 24 29  1  0  0  0  0
 25 26  4  0  0  0  0
 25 30  1  0  0  0  0
 26 27  4  0  0  0  0
 26 31  1  0  0  0  0
 27 28  4  0  0  0  0
 27 32  1  0  0  0  0
 28 33  1  0  0  0  0
 29 34  1  0  0  0  0
 29 35  1  0  0  0  0
M  END
> <BCLConfClusterSize>
1

> <ConfClashScore>
0 

> <ConfOneFourInteractionScore>
-0.976758 

> <ConfScore>
0.653034 

> <ConfScorePBest>
0.00324843 

> <ConfTolerance>
1.04535 

> <RosettaParamsInstructions>
M  ROOT 3
M  POLY_N_BB 3
M  POLY_CA_BB 4
M  POLY_C_BB 2
M  POLY_O_BB 5
M  POLY_IGNORE 9 10 11 12 13 14 15 16 17 18 
M  POLY_UPPER 6
M  POLY_LOWER 8
M  POLY_CHG 0
M  POLY_PROPERTIES ALPHA_AA D_AA PROTEIN AROMATIC POLYMER 
M  END

$$$$



 35 35  0  0  0  0  0  0  0  0999 V2000
   -1.8884    2.4334    0.6607 H   0  0  0  1  0  0  0  0  0  0  0  0
   -1.4552    4.4005    0.0264 C   0  0  0  1  0  0  0  0  0  0  0  0
    0.1658    2.6123    0.4989 N   0  0  0  1  0  0  0  0  0  0  0  0
   -1.1759    2.9101    0.0203 C   0  0  0  1  0  0  0  0  0  0  0  0
   -1.4700    5.0504   -1.0156 O   0  0  0  1  0  0  0  0  0  0  0  0
   -1.6808    4.9466    1.2318 N   0  0  0  1  0  0  0  0  0  0  0  0
    0.7915    3.3525    0.6437 H   0  0  0  1  0  0  0  0  0  0  0  0
    0.5897    1.3176    0.7572 C   0  0  0  1  0  0  0  0  0  0  0  0
   -1.8400    6.3812    1.4178 C   0  0  0  1  0  0  0  0  0  0  0  0
    2.0186    1.0835    1.1599 C   0  0  0  1  0  0  0  0  0  0  0  0
   -0.2139    0.4094    0.6487 O   0  0  0  1  0  0  0  0  0  0  0  0
   -1.7403    4.3588    2.0137 H   0  0  0  1  0  0  0  0  0  0  0  0
   -1.3318    6.6843    2.3093 H   0  0  0  1  0  0  0  0  0  0  0  0
   -2.8803    6.6162    1.5031 H   0  0  0  1  0  0  0  0  0  0  0  0
   -1.4248    6.8977    0.5777 H   0  0  0  1  0  0  0  0  0  0  0  0
    2.0559    0.3396    1.9281 H   0  0  0  1  0  0  0  0  0  0  0  0
    2.4396    1.9962    1.5268 H   0  0  0  1  0  0  0  0  0  0  0  0
    2.5776    0.7480    0.3114 H   0  0  0  1  0  0  0  0  0  0  0  0
   -1.1716    4.5488   -3.2122 F   0  0  0  1  0  0  0  0  0  0  0  0
   -2.0011    3.8117   -3.9069 C   0  0  0  1  0  0  0  0  0  0  0  0
   -2.4744    4.6189   -4.8344 F   0  0  0  1  0  0  0  0  0  0  0  0
   -1.2388    2.9728   -4.5774 F   0  0  0  1  0  0  0  0  0  0  0  0
   -3.0720    3.1320   -3.0763 C   0  0  0  1  0  0  0  0  0  0  0  0
   -2.7575    2.4150   -1.9324 C   0  0  0  1  0  0  0  0  0  0  0  0
   -3.7465    1.7282   -1.2537 C   0  0  0  1  0  0  0  0  0  0  0  0
   -5.0537    1.7609   -1.7138 C   0  0  0  1  0  0  0  0  0  0  0  0
   -5.3671    2.4758   -2.8543 C   0  0  0  1  0  0  0  0  0  0  0  0
   -4.3754    3.1646   -3.5351 C   0  0  0  1  0  0  0  0  0  0  0  0
   -1.3531    2.3473   -1.3804 C   0  0  0  1  0  0  0  0  0  0  0  0
   -3.5099    1.1870   -0.3978 H   0  0  0  1  0  0  0  0  0  0  0  0
   -5.7985    1.2474   -1.2008 H   0  0  0  1  0  0  0  0  0  0  0  0
   -6.3471    2.4970   -3.2017 H   0  0  0  1  0  0  0  0  0  0  0  0
   -4.6120    3.7059   -4.3911 H   0  0  0  1  0  0  0  0  0  0  0  0
   -1.0542    1.3201   -1.3637 H   0  0  0  1  0  0  0  0  0  0  0  0
   -0.7126    2.8951   -2.0397 H   0  0  0  1  0  0  0  0  0  0  0  0
  1  4  1  0  0  0  0
  2  4  1  0  0  0  0
  2  5  2  0  0  0  0
  2  6  1  0  0  0  0
  3  4  1  0  0  0  0
  3  7  1  0  0  0  0
  3  8  1  0  0  0  0
  4 29  1  0  0  0  0
  6  9  1  0  0  0  0
  6 12  1  0  0  0  0
  8 10  1  0  0  0  0
  8 11  2  0  0  0  0
  9 13  1  0  0  0  0
  9 14  1  0  0  0  0
  9 15  1  0  0  0  0
 10 16  1  0  0  0  0
 10 17  1  0  0  0  0
 10 18  1  0  0  0  0
 19 20  1  0  0  0  0
 20 21  1  0  0  0  0
 20 22  1  0  0  0  0
 20 23  1  0  0  0  0
 23 24  4  0  0  0  0
 23 28  4  0  0  0  0
 24 25  4  0  0  0  0
 24 29  1  0  0  0  0
 25 26  4  0  0  0  0
 25 30  1  0  0  0  0
 26 27  4  0  0  0  0
 26 31  1  0  0  0  0
 27 28  4  0  0  0  0
 27 32  1  0  0  0  0
 28 33  1  0  0  0  0
 29 34  1  0  0  0  0
 29 35  1  0  0  0  0
M  END
> <BCLConfClusterSize>
1

> <ConfClashScore>
0 

> <ConfOneFourInteractionScore>
-0.979783 

> <ConfScore>
0.663522 

> <ConfScorePBest>
0.00321995 

> <ConfTolerance>
0.933647 

> <RosettaParamsInstructions>
M  ROOT 3
M  POLY_N_BB 3
M  POLY_CA_BB 4
M  POLY_C_BB 2
M  POLY_O_BB 5
M  POLY_IGNORE 9 10 11 12 13 14 15 16 17 18 
M  POLY_UPPER 6
M  POLY_LOWER 8
M  POLY_CHG 0
M  POLY_PROPERTIES ALPHA_AA D_AA PROTEIN AROMATIC POLYMER 
M  END

$$$$



 35 35  0  0  0  0  0  0  0  0999 V2000
   -0.3482    3.8512    0.1692 H   0  0  0  1  0  0  0  0  0  0  0  0
   -2.2788    3.5628    0.9475 C   0  0  0  1  0  0  0  0  0  0  0  0
   -1.6066    5.1460   -0.8182 N   0  0  0  1  0  0  0  0  0  0  0  0
   -1.3471    3.8476   -0.2143 C   0  0  0  1  0  0  0  0  0  0  0  0
   -1.9908    2.7344    1.8072 O   0  0  0  1  0  0  0  0  0  0  0  0
   -3.4200    4.2695    0.9667 N   0  0  0  1  0  0  0  0  0  0  0  0
   -2.2981    5.2166   -1.5090 H   0  0  0  1  0  0  0  0  0  0  0  0
   -0.9348    6.2451   -0.4636 C   0  0  0  1  0  0  0  0  0  0  0  0
   -4.3980    4.1380    2.0363 C   0  0  0  1  0  0  0  0  0  0  0  0
   -0.0049    6.0941    0.7245 C   0  0  0  1  0  0  0  0  0  0  0  0
   -1.0501    7.3178   -1.0505 O   0  0  0  1  0  0  0  0  0  0  0  0
   -3.6008    4.8958    0.2349 H   0  0  0  1  0  0  0  0  0  0  0  0
   -5.2000    3.5085    1.7116 H   0  0  0  1  0  0  0  0  0  0  0  0
   -4.7828    5.1042    2.2882 H   0  0  0  1  0  0  0  0  0  0  0  0
   -3.9303    3.7047    2.8956 H   0  0  0  1  0  0  0  0  0  0  0  0
   -0.1492    6.9134    1.3974 H   0  0  0  1  0  0  0  0  0  0  0  0
    1.0096    6.0867    0.3844 H   0  0  0  1  0  0  0  0  0  0  0  0
   -0.2188    5.1757    1.2301 H   0  0  0  1  0  0  0  0  0  0  0  0
   -0.9231    3.0091   -4.0162 F   0  0  0  1  0  0  0  0  0  0  0  0
   -1.9895    3.8030   -3.9042 C   0  0  0  1  0  0  0  0  0  0  0  0
   -1.5679    4.9206   -3.3103 F   0  0  0  1  0  0  0  0  0  0  0  0
   -2.3651    4.1277   -5.1301 F   0  0  0  1  0  0  0  0  0  0  0  0
   -3.0920    3.1369   -3.1074 C   0  0  0  1  0  0  0  0  0  0  0  0
   -2.8028    2.5880   -1.8678 C   0  0  0  1  0  0  0  0  0  0  0  0
   -3.7778    1.8966   -1.1739 C   0  0  0  1  0  0  0  0  0  0  0  0
   -5.0463    1.7565   -1.7149 C   0  0  0  1  0  0  0  0  0  0  0  0
   -5.3345    2.3038   -2.9509 C   0  0  0  1  0  0  0  0  0  0  0  0
   -4.3568    2.9973   -3.6471 C   0  0  0  1  0  0  0  0  0  0  0  0
   -1.4225    2.7453   -1.2749 C   0  0  0  1  0  0  0  0  0  0  0  0
   -3.5597    1.4814   -0.2456 H   0  0  0  1  0  0  0  0  0  0  0  0
   -5.7810    1.2397   -1.1909 H   0  0  0  1  0  0  0  0  0  0  0  0
   -6.2850    2.1953   -3.3587 H   0  0  0  1  0  0  0  0  0  0  0  0
   -4.5749    3.4125   -4.5753 H   0  0  0  1  0  0  0  0  0  0  0  0
   -1.1382    1.8179   -0.8231 H   0  0  0  1  0  0  0  0  0  0  0  0
   -0.7385    2.9832   -2.0626 H   0  0  0  1  0  0  0  0  0  0  0  0
  1  4  1  0  0  0  0
  2  4  1  0  0  0  0
  2  5  2  0  0  0  0
  2  6  1  0  0  0  0
  3  4  1  0  0  0  0
  3  7  1  0  0  0  0
  3  8  1  0  0  0  0
  4 29  1  0  0  0  0
  6  9  1  0  0  0  0
  6 12  1  0  0  0  0
  8 10  1  0  0  0  0
  8 11  2  0  0  0  0
  9 13  1  0  0  0  0
  9 14  1  0  0  0  0
  9 15  1  0  0  0  0
 10 16  1  0  0  0  0
 10 17  1  0  0  0  0
 10 18  1  0  0  0  0
 19 20  1  0  0  0  0
 20 21  1  0  0  0  0
 20 22  1  0  0  0  0
 20 23  1  0  0  0  0
 23 24  4  0  0  0  0
 23 28  4  0  0  0  0
 24 25  4  0  0  0  0
 24 29  1  0  0  0  0
 25 26  4  0  0  0  0
 25 30  1  0  0  0  0
 26 27  4  0  0  0  0
 26 31  1  0  0  0  0
 27 28  4  0  0  0  0
 27 32  1  0  0  0  0
 28 33  1  0  0  0  0
 29 34  1  0  0  0  0
 29 35  1  0  0  0  0
M  END
> <BCLConfClusterSize>
1

> <ConfClashScore>
0.000186057 

> <ConfOneFourInteractionScore>
-0.950605 

> <ConfScore>
0.67805 

> <ConfScorePBest>
0.00319147 

> <ConfTolerance>
0.900018 

> <RosettaParamsInstructions>
M  ROOT 3
M  POLY_N_BB 3
M  POLY_CA_BB 4
M  POLY_C_BB 2
M  POLY_O_BB 5
M  POLY_IGNORE 9 10 11 12 13 14 15 16 17 18 
M  POLY_UPPER 6
M  POLY_LOWER 8
M  POLY_CHG 0
M  POLY_PROPERTIES ALPHA_AA D_AA PROTEIN AROMATIC POLYMER 
M  END

$$$$



 35 35  0  0  0  0  0  0  0  0999 V2000
   -1.5684    2.1900    0.5919 H   0  0  0  1  0  0  0  0  0  0  0  0
   -2.1381    4.1392    0.1043 C   0  0  0  1  0  0  0  0  0  0  0  0
    0.1622    3.2352    0.2928 N   0  0  0  1  0  0  0  0  0  0  0  0
   -1.2154    2.9492   -0.0744 C   0  0  0  1  0  0  0  0  0  0  0  0
   -1.7664    5.2811   -0.1633 O   0  0  0  1  0  0  0  0  0  0  0  0
   -3.3611    3.8614    0.5649 N   0  0  0  1  0  0  0  0  0  0  0  0
    0.5801    2.7101    1.0070 H   0  0  0  1  0  0  0  0  0  0  0  0
    0.8944    4.2107   -0.3233 C   0  0  0  1  0  0  0  0  0  0  0  0
   -4.2968    4.9389    0.8498 C   0  0  0  1  0  0  0  0  0  0  0  0
    2.2622    4.4079    0.2789 C   0  0  0  1  0  0  0  0  0  0  0  0
    0.4587    4.8471   -1.2693 O   0  0  0  1  0  0  0  0  0  0  0  0
   -3.6286    2.9300    0.7111 H   0  0  0  1  0  0  0  0  0  0  0  0
   -4.9137    5.1122   -0.0071 H   0  0  0  1  0  0  0  0  0  0  0  0
   -3.7532    5.8304    1.0838 H   0  0  0  1  0  0  0  0  0  0  0  0
   -4.9114    4.6664    1.6822 H   0  0  0  1  0  0  0  0  0  0  0  0
    2.8096    5.1196   -0.3033 H   0  0  0  1  0  0  0  0  0  0  0  0
    2.7863    3.4751    0.2862 H   0  0  0  1  0  0  0  0  0  0  0  0
    2.1618    4.7691    1.2810 H   0  0  0  1  0  0  0  0  0  0  0  0
   -1.3633    4.7141   -3.1253 F   0  0  0  1  0  0  0  0  0  0  0  0
   -1.9939    3.8225   -3.8917 C   0  0  0  1  0  0  0  0  0  0  0  0
   -2.4859    4.4729   -4.9473 F   0  0  0  1  0  0  0  0  0  0  0  0
   -1.0744    2.9693   -4.3446 F   0  0  0  1  0  0  0  0  0  0  0  0
   -3.0731    3.1008   -3.1198 C   0  0  0  1  0  0  0  0  0  0  0  0
   -2.7515    2.4007   -1.9674 C   0  0  0  1  0  0  0  0  0  0  0  0
   -3.7387    1.7360   -1.2645 C   0  0  0  1  0  0  0  0  0  0  0  0
   -5.0512    1.7739   -1.7089 C   0  0  0  1  0  0  0  0  0  0  0  0
   -5.3717    2.4720   -2.8579 C   0  0  0  1  0  0  0  0  0  0  0  0
   -4.3817    3.1386   -3.5629 C   0  0  0  1  0  0  0  0  0  0  0  0
   -1.3225    2.3637   -1.4793 C   0  0  0  1  0  0  0  0  0  0  0  0
   -3.4968    1.2074   -0.4022 H   0  0  0  1  0  0  0  0  0  0  0  0
   -5.7946    1.2771   -1.1778 H   0  0  0  1  0  0  0  0  0  0  0  0
   -6.3557    2.4971   -3.1935 H   0  0  0  1  0  0  0  0  0  0  0  0
   -4.6237    3.6672   -4.4253 H   0  0  0  1  0  0  0  0  0  0  0  0
   -0.9834    1.3490   -1.4633 H   0  0  0  1  0  0  0  0  0  0  0  0
   -0.7096    2.9347   -2.1450 H   0  0  0  1  0  0  0  0  0  0  0  0
  1  4  1  0  0  0  0
  2  4  1  0  0  0  0
  2  5  2  0  0  0  0
  2  6  1  0  0  0  0
  3  4  1  0  0  0  0
  3  7  1  0  0  0  0
  3  8  1  0  0  0  0
  4 29  1  0  0  0  0
  6  9  1  0  0  0  0
  6 12  1  0  0  0  0
  8 10  1  0  0  0  0
  8 11  2  0  0  0  0
  9 13  1  0  0  0  0
  9 14  1  0  0  0  0
  9 15  1  0  0  0  0
 10 16  1  0  0  0  0
 10 17  1  0  0  0  0
 10 18  1  0  0  0  0
 19 20  1  0  0  0  0
 20 21  1  0  0  0  0
 20 22  1  0  0  0  0
 20 23  1  0  0  0  0
 23 24  4  0  0  0  0
 23 28  4  0  0  0  0
 24 25  4  0  0  0  0
 24 29  1  0  0  0  0
 25 26  4  0  0  0  0
 25 30  1  0  0  0  0
 26 27  4  0  0  0  0
 26 31  1  0  0  0  0
 27 28  4  0  0  0  0
 27 32  1  0  0  0  0
 28 33  1  0  0  0  0
 29 34  1  0  0  0  0
 29 35  1  0  0  0  0
M  END
> <BCLConfClusterSize>
1

> <ConfClashScore>
0 

> <ConfOneFourInteractionScore>
-0.970494 

> <ConfScore>
0.680339 

> <ConfScorePBest>
0.00316299 

> <ConfTolerance>
0.904345 

> <RosettaParamsInstructions>
M  ROOT 3
M  POLY_N_BB 3
M  POLY_CA_BB 4
M  POLY_C_BB 2
M  POLY_O_BB 5
M  POLY_IGNORE 9 10 11 12 13 14 15 16 17 18 
M  POLY_UPPER 6
M  POLY_LOWER 8
M  POLY_CHG 0
M  POLY_PROPERTIES ALPHA_AA D_AA PROTEIN AROMATIC POLYMER 
M  END

$$$$



 35 35  0  0  0  0  0  0  0  0999 V2000
   -1.6105    1.2886    0.1362 H   0  0  0  1  0  0  0  0  0  0  0  0
   -2.3284    2.9653    1.1873 C   0  0  0  1  0  0  0  0  0  0  0  0
    0.0292    2.4581    0.5911 N   0  0  0  1  0  0  0  0  0  0  0  0
   -1.3687    2.3284    0.2079 C   0  0  0  1  0  0  0  0  0  0  0  0
   -2.7627    2.3313    2.1480 O   0  0  0  1  0  0  0  0  0  0  0  0
   -2.6929    4.2470    0.9759 N   0  0  0  1  0  0  0  0  0  0  0  0
    0.6310    1.6977    0.4495 H   0  0  0  1  0  0  0  0  0  0  0  0
    0.5228    3.5826    1.1317 C   0  0  0  1  0  0  0  0  0  0  0  0
   -3.6632    4.8849    1.8530 C   0  0  0  1  0  0  0  0  0  0  0  0
    2.0154    3.5901    1.4632 C   0  0  0  1  0  0  0  0  0  0  0  0
   -0.1455    4.6025    1.2915 O   0  0  0  1  0  0  0  0  0  0  0  0
   -2.3033    4.7495    0.2301 H   0  0  0  1  0  0  0  0  0  0  0  0
   -3.4522    5.9319    1.9177 H   0  0  0  1  0  0  0  0  0  0  0  0
   -3.6034    4.4484    2.8281 H   0  0  0  1  0  0  0  0  0  0  0  0
   -4.6476    4.7435    1.4582 H   0  0  0  1  0  0  0  0  0  0  0  0
    2.1901    4.2208    2.3098 H   0  0  0  1  0  0  0  0  0  0  0  0
    2.5652    3.9605    0.6234 H   0  0  0  1  0  0  0  0  0  0  0  0
    2.3355    2.5943    1.6886 H   0  0  0  1  0  0  0  0  0  0  0  0
   -1.2122    2.9138   -4.5341 F   0  0  0  1  0  0  0  0  0  0  0  0
   -1.9856    3.7960   -3.8988 C   0  0  0  1  0  0  0  0  0  0  0  0
   -1.1710    4.5200   -3.1296 F   0  0  0  1  0  0  0  0  0  0  0  0
   -2.4518    4.6252   -4.8336 F   0  0  0  1  0  0  0  0  0  0  0  0
   -3.0932    3.1325   -3.1075 C   0  0  0  1  0  0  0  0  0  0  0  0
   -2.8355    2.6733   -1.8251 C   0  0  0  1  0  0  0  0  0  0  0  0
   -3.8105    1.9836   -1.1294 C   0  0  0  1  0  0  0  0  0  0  0  0
   -5.0476    1.7557   -1.7116 C   0  0  0  1  0  0  0  0  0  0  0  0
   -5.3043    2.2136   -2.9901 C   0  0  0  1  0  0  0  0  0  0  0  0
   -4.3267    2.9053   -3.6882 C   0  0  0  1  0  0  0  0  0  0  0  0
   -1.4897    2.9262   -1.1877 C   0  0  0  1  0  0  0  0  0  0  0  0
   -3.6159    1.6356   -0.1688 H   0  0  0  1  0  0  0  0  0  0  0  0
   -5.7825    1.2402   -1.1865 H   0  0  0  1  0  0  0  0  0  0  0  0
   -6.2311    2.0391   -3.4286 H   0  0  0  1  0  0  0  0  0  0  0  0
   -4.5213    3.2533   -4.6487 H   0  0  0  1  0  0  0  0  0  0  0  0
   -0.7323    2.4963   -1.8093 H   0  0  0  1  0  0  0  0  0  0  0  0
   -1.3384    3.9833   -1.1197 H   0  0  0  1  0  0  0  0  0  0  0  0
  1  4  1  0  0  0  0
  2  4  1  0  0  0  0
  2  5  2  0  0  0  0
  2  6  1  0  0  0  0
  3  4  1  0  0  0  0
  3  7  1  0  0  0  0
  3  8  1  0  0  0  0
  4 29  1  0  0  0  0
  6  9  1  0  0  0  0
  6 12  1  0  0  0  0
  8 10  1  0  0  0  0
  8 11  2  0  0  0  0
  9 13  1  0  0  0  0
  9 14  1  0  0  0  0
  9 15  1  0  0  0  0
 10 16  1  0  0  0  0
 10 17  1  0  0  0  0
 10 18  1  0  0  0  0
 19 20  1  0  0  0  0
 20 21  1  0  0  0  0
 20 22  1  0  0  0  0
 20 23  1  0  0  0  0
 23 24  4  0  0  0  0
 23 28  4  0  0  0  0
 24 25  4  0  0  0  0
 24 29  1  0  0  0  0
 25 26  4  0  0  0  0
 25 30  1  0  0  0  0
 26 27  4  0  0  0  0
 26 31  1  0  0  0  0
 27 28  4  0  0  0  0
 27 32  1  0  0  0  0
 28 33  1  0  0  0  0
 29 34  1  0  0  0  0
 29 35  1  0  0  0  0
M  END
> <BCLConfClusterSize>
1

> <ConfClashScore>
0 

> <ConfOneFourInteractionScore>
-0.916304 

> <ConfScore>
0.680502 

> <ConfScorePBest>
0.00313451 

> <ConfTolerance>
0.912039 

> <RosettaParamsInstructions>
M  ROOT 3
M  POLY_N_BB 3
M  POLY_CA_BB 4
M  POLY_C_BB 2
M  POLY_O_BB 5
M  POLY_IGNORE 9 10 11 12 13 14 15 16 17 18 
M  POLY_UPPER 6
M  POLY_LOWER 8
M  POLY_CHG 0
M  POLY_PROPERTIES ALPHA_AA D_AA PROTEIN AROMATIC POLYMER 
M  END

$$$$



 35 35  0  0  0  0  0  0  0  0999 V2000
    0.2764    2.4177   -0.4605 H   0  0  0  1  0  0  0  0  0  0  0  0
   -0.2455    1.3141   -2.1703 C   0  0  0  1  0  0  0  0  0  0  0  0
   -1.2003    1.0792    0.0888 N   0  0  0  1  0  0  0  0  0  0  0  0
   -0.6169    2.0052   -0.8809 C   0  0  0  1  0  0  0  0  0  0  0  0
    0.9318    1.2931   -2.5716 O   0  0  0  1  0  0  0  0  0  0  0  0
   -1.2633    0.6375   -2.8194 N   0  0  0  1  0  0  0  0  0  0  0  0
   -1.6491    1.4646    0.8701 H   0  0  0  1  0  0  0  0  0  0  0  0
   -1.1661   -0.3172   -0.0149 C   0  0  0  1  0  0  0  0  0  0  0  0
   -0.9680   -0.1843   -3.9836 C   0  0  0  1  0  0  0  0  0  0  0  0
   -1.7635   -1.0149    1.1555 C   0  0  0  1  0  0  0  0  0  0  0  0
   -0.6861   -0.8828   -0.9841 O   0  0  0  1  0  0  0  0  0  0  0  0
   -2.1848    0.7118   -2.4944 H   0  0  0  1  0  0  0  0  0  0  0  0
   -1.0038    0.4201   -4.8658 H   0  0  0  1  0  0  0  0  0  0  0  0
   -1.6920   -0.9685   -4.0592 H   0  0  0  1  0  0  0  0  0  0  0  0
    0.0089   -0.6087   -3.8818 H   0  0  0  1  0  0  0  0  0  0  0  0
   -2.8277   -1.0451    1.0483 H   0  0  0  1  0  0  0  0  0  0  0  0
   -1.5103   -0.4881    2.0518 H   0  0  0  1  0  0  0  0  0  0  0  0
   -1.3821   -2.0132    1.2081 H   0  0  0  1  0  0  0  0  0  0  0  0
   -2.1888    3.8387   -5.2086 F   0  0  0  1  0  0  0  0  0  0  0  0
   -1.9725    3.7895   -3.8930 C   0  0  0  1  0  0  0  0  0  0  0  0
   -0.7889    3.1958   -3.7319 F   0  0  0  1  0  0  0  0  0  0  0  0
   -1.8149    5.0519   -3.4930 F   0  0  0  1  0  0  0  0  0  0  0  0
   -3.0840    3.0793   -3.1485 C   0  0  0  1  0  0  0  0  0  0  0  0
   -2.8641    2.7472   -1.8207 C   0  0  0  1  0  0  0  0  0  0  0  0
   -3.8461    2.0937   -1.1003 C   0  0  0  1  0  0  0  0  0  0  0  0
   -5.0526    1.7751   -1.7038 C   0  0  0  1  0  0  0  0  0  0  0  0
   -5.2717    2.1063   -3.0276 C   0  0  0  1  0  0  0  0  0  0  0  0
   -4.2870    2.7618   -3.7503 C   0  0  0  1  0  0  0  0  0  0  0  0
   -1.6064    3.1678   -1.0978 C   0  0  0  1  0  0  0  0  0  0  0  0
   -3.6797    1.8409   -0.1053 H   0  0  0  1  0  0  0  0  0  0  0  0
   -5.7930    1.2870   -1.1605 H   0  0  0  1  0  0  0  0  0  0  0  0
   -6.1754    1.8638   -3.4816 H   0  0  0  1  0  0  0  0  0  0  0  0
   -4.4535    3.0146   -4.7453 H   0  0  0  1  0  0  0  0  0  0  0  0
   -1.1196    3.9263   -1.6744 H   0  0  0  1  0  0  0  0  0  0  0  0
   -1.8794    3.5653   -0.1426 H   0  0  0  1  0  0  0  0  0  0  0  0
  1  4  1  0  0  0  0
  2  4  1  0  0  0  0
  2  5  2  0  0  0  0
  2  6  1  0  0  0  0
  3  4  1  0  0  0  0
  3  7  1  0  0  0  0
  3  8  1  0  0  0  0
  4 29  1  0  0  0  0
  6  9  1  0  0  0  0
  6 12  1  0  0  0  0
  8 10  1  0  0  0  0
  8 11  2  0  0  0  0
  9 13  1  0  0  0  0
  9 14  1  0  0  0  0
  9 15  1  0  0  0  0
 10 16  1  0  0  0  0
 10 17  1  0  0  0  0
 10 18  1  0  0  0  0
 19 20  1  0  0  0  0
 20 21  1  0  0  0  0
 20 22  1  0  0  0  0
 20 23  1  0  0  0  0
 23 24  4  0  0  0  0
 23 28  4  0  0  0  0
 24 25  4  0  0  0  0
 24 29  1  0  0  0  0
 25 26  4  0  0  0  0
 25 30  1  0  0  0  0
 26 27  4  0  0  0  0
 26 31  1  0  0  0  0
 27 28  4  0  0  0  0
 27 32  1  0  0  0  0
 28 33  1  0  0  0  0
 29 34  1  0  0  0  0
 29 35  1  0  0  0  0
M  END
> <BCLConfClusterSize>
1

> <ConfClashScore>
0.00253776 

> <ConfOneFourInteractionScore>
-0.958525 

> <ConfScore>
0.695062 

> <ConfScorePBest>
0.00310603 

> <ConfTolerance>
0.477439 

> <RosettaParamsInstructions>
M  ROOT 3
M  POLY_N_BB 3
M  POLY_CA_BB 4
M  POLY_C_BB 2
M  POLY_O_BB 5
M  POLY_IGNORE 9 10 11 12 13 14 15 16 17 18 
M  POLY_UPPER 6
M  POLY_LOWER 8
M  POLY_CHG 0
M  POLY_PROPERTIES ALPHA_AA D_AA PROTEIN AROMATIC POLYMER 
M  END

$$$$



 35 35  0  0  0  0  0  0  0  0999 V2000
   -1.9479    2.2166    0.7603 H   0  0  0  1  0  0  0  0  0  0  0  0
   -2.9596    4.0595    0.7677 C   0  0  0  1  0  0  0  0  0  0  0  0
   -0.5365    3.6888    1.0358 N   0  0  0  1  0  0  0  0  0  0  0  0
   -1.7570    3.2079    0.4056 C   0  0  0  1  0  0  0  0  0  0  0  0
   -3.5268    3.9634    1.8407 O   0  0  0  1  0  0  0  0  0  0  0  0
   -3.4200    4.9547   -0.1257 N   0  0  0  1  0  0  0  0  0  0  0  0
   -0.4812    4.6301    1.3026 H   0  0  0  1  0  0  0  0  0  0  0  0
    0.5509    2.8613    1.2717 C   0  0  0  1  0  0  0  0  0  0  0  0
   -4.6046    5.7246    0.2232 C   0  0  0  1  0  0  0  0  0  0  0  0
    1.7885    3.4418    1.8964 C   0  0  0  1  0  0  0  0  0  0  0  0
    0.4662    1.6865    0.9635 O   0  0  0  1  0  0  0  0  0  0  0  0
   -2.9703    5.0844   -0.9867 H   0  0  0  1  0  0  0  0  0  0  0  0
   -5.1454    5.2178    0.9950 H   0  0  0  1  0  0  0  0  0  0  0  0
   -5.2287    5.8291   -0.6396 H   0  0  0  1  0  0  0  0  0  0  0  0
   -4.3107    6.6929    0.5709 H   0  0  0  1  0  0  0  0  0  0  0  0
    2.4366    3.8105    1.1290 H   0  0  0  1  0  0  0  0  0  0  0  0
    2.2945    2.6833    2.4562 H   0  0  0  1  0  0  0  0  0  0  0  0
    1.5154    4.2449    2.5486 H   0  0  0  1  0  0  0  0  0  0  0  0
   -2.1102    3.6325   -5.2163 F   0  0  0  1  0  0  0  0  0  0  0  0
   -1.9889    3.7986   -3.8981 C   0  0  0  1  0  0  0  0  0  0  0  0
   -0.7663    3.3707   -3.5794 F   0  0  0  1  0  0  0  0  0  0  0  0
   -1.9911    5.1152   -3.6858 F   0  0  0  1  0  0  0  0  0  0  0  0
   -3.0718    3.0857   -3.1230 C   0  0  0  1  0  0  0  0  0  0  0  0
   -2.8705    2.7585   -1.7911 C   0  0  0  1  0  0  0  0  0  0  0  0
   -3.8598    2.1014   -1.0840 C   0  0  0  1  0  0  0  0  0  0  0  0
   -5.0551    1.7744   -1.7051 C   0  0  0  1  0  0  0  0  0  0  0  0
   -5.2556    2.1007   -3.0330 C   0  0  0  1  0  0  0  0  0  0  0  0
   -4.2636    2.7597   -3.7424 C   0  0  0  1  0  0  0  0  0  0  0  0
   -1.5706    3.1196   -1.1120 C   0  0  0  1  0  0  0  0  0  0  0  0
   -3.7073    1.8523   -0.0858 H   0  0  0  1  0  0  0  0  0  0  0  0
   -5.8010    1.2836   -1.1718 H   0  0  0  1  0  0  0  0  0  0  0  0
   -6.1508    1.8518   -3.5001 H   0  0  0  1  0  0  0  0  0  0  0  0
   -4.4161    3.0088   -4.7405 H   0  0  0  1  0  0  0  0  0  0  0  0
   -0.8395    2.3702   -1.3326 H   0  0  0  1  0  0  0  0  0  0  0  0
   -1.2339    4.0663   -1.4797 H   0  0  0  1  0  0  0  0  0  0  0  0
  1  4  1  0  0  0  0
  2  4  1  0  0  0  0
  2  5  2  0  0  0  0
  2  6  1  0  0  0  0
  3  4  1  0  0  0  0
  3  7  1  0  0  0  0
  3  8  1  0  0  0  0
  4 29  1  0  0  0  0
  6  9  1  0  0  0  0
  6 12  1  0  0  0  0
  8 10  1  0  0  0  0
  8 11  2  0  0  0  0
  9 13  1  0  0  0  0
  9 14  1  0  0  0  0
  9 15  1  0  0  0  0
 10 16  1  0  0  0  0
 10 17  1  0  0  0  0
 10 18  1  0  0  0  0
 19 20  1  0  0  0  0
 20 21  1  0  0  0  0
 20 22  1  0  0  0  0
 20 23  1  0  0  0  0
 23 24  4  0  0  0  0
 23 28  4  0  0  0  0
 24 25  4  0  0  0  0
 24 29  1  0  0  0  0
 25 26  4  0  0  0  0
 25 30  1  0  0  0  0
 26 27  4  0  0  0  0
 26 31  1  0  0  0  0
 27 28  4  0  0  0  0
 27 32  1  0  0  0  0
 28 33  1  0  0  0  0
 29 34  1  0  0  0  0
 29 35  1  0  0  0  0
M  END
> <BCLConfClusterSize>
1

> <ConfClashScore>
0 

> <ConfOneFourInteractionScore>
-0.919548 

> <ConfScore>
0.697063 

> <ConfScorePBest>
0.00307755 

> <ConfTolerance>
1.08271 

> <RosettaParamsInstructions>
M  ROOT 3
M  POLY_N_BB 3
M  POLY_CA_BB 4
M  POLY_C_BB 2
M  POLY_O_BB 5
M  POLY_IGNORE 9 10 11 12 13 14 15 16 17 18 
M  POLY_UPPER 6
M  POLY_LOWER 8
M  POLY_CHG 0
M  POLY_PROPERTIES ALPHA_AA D_AA PROTEIN AROMATIC POLYMER 
M  END

$$$$



 35 35  0  0  0  0  0  0  0  0999 V2000
   -0.3474    1.8133   -2.2822 H   0  0  0  1  0  0  0  0  0  0  0  0
   -0.9307    0.6658   -0.6196 C   0  0  0  1  0  0  0  0  0  0  0  0
    0.7576    2.4670   -0.6586 N   0  0  0  1  0  0  0  0  0  0  0  0
   -0.4978    1.9769   -1.2355 C   0  0  0  1  0  0  0  0  0  0  0  0
   -2.0568    0.2178   -0.8185 O   0  0  0  1  0  0  0  0  0  0  0  0
   -0.0486    0.0080    0.1494 N   0  0  0  1  0  0  0  0  0  0  0  0
    0.7195    3.0861    0.1002 H   0  0  0  1  0  0  0  0  0  0  0  0
    1.9518    2.0990   -1.1312 C   0  0  0  1  0  0  0  0  0  0  0  0
   -0.4087   -1.1873    0.8973 C   0  0  0  1  0  0  0  0  0  0  0  0
    1.9334    1.0349   -2.2112 C   0  0  0  1  0  0  0  0  0  0  0  0
    3.0094    2.5815   -0.7282 O   0  0  0  1  0  0  0  0  0  0  0  0
    0.8699    0.3445    0.2093 H   0  0  0  1  0  0  0  0  0  0  0  0
   -1.3294   -1.0200    1.4163 H   0  0  0  1  0  0  0  0  0  0  0  0
    0.3629   -1.4117    1.6038 H   0  0  0  1  0  0  0  0  0  0  0  0
   -0.5246   -2.0090    0.2218 H   0  0  0  1  0  0  0  0  0  0  0  0
    1.0446    0.4466   -2.1180 H   0  0  0  1  0  0  0  0  0  0  0  0
    2.7911    0.4041   -2.1047 H   0  0  0  1  0  0  0  0  0  0  0  0
    1.9517    1.5031   -3.1732 H   0  0  0  1  0  0  0  0  0  0  0  0
   -2.4089    4.0800   -5.1534 F   0  0  0  1  0  0  0  0  0  0  0  0
   -1.9994    3.8044   -3.9139 C   0  0  0  1  0  0  0  0  0  0  0  0
   -0.8872    3.0950   -4.0405 F   0  0  0  1  0  0  0  0  0  0  0  0
   -1.6418    4.9639   -3.3739 F   0  0  0  1  0  0  0  0  0  0  0  0
   -3.0562    3.0865   -3.0998 C   0  0  0  1  0  0  0  0  0  0  0  0
   -2.8602    2.7359   -1.7730 C   0  0  0  1  0  0  0  0  0  0  0  0
   -3.8566    2.0767   -1.0782 C   0  0  0  1  0  0  0  0  0  0  0  0
   -5.0539    1.7709   -1.7063 C   0  0  0  1  0  0  0  0  0  0  0  0
   -5.2491    2.1204   -3.0291 C   0  0  0  1  0  0  0  0  0  0  0  0
   -4.2499    2.7816   -3.7262 C   0  0  0  1  0  0  0  0  0  0  0  0
   -1.5581    3.0741   -1.0862 C   0  0  0  1  0  0  0  0  0  0  0  0
   -3.7081    1.8101   -0.0839 H   0  0  0  1  0  0  0  0  0  0  0  0
   -5.8051    1.2784   -1.1822 H   0  0  0  1  0  0  0  0  0  0  0  0
   -6.1458    1.8874   -3.5015 H   0  0  0  1  0  0  0  0  0  0  0  0
   -4.3984    3.0481   -4.7204 H   0  0  0  1  0  0  0  0  0  0  0  0
   -1.1743    3.9785   -1.5100 H   0  0  0  1  0  0  0  0  0  0  0  0
   -1.7510    3.2217   -0.0441 H   0  0  0  1  0  0  0  0  0  0  0  0
  1  4  1  0  0  0  0
  2  4  1  0  0  0  0
  2  5  2  0  0  0  0
  2  6  1  0  0  0  0
  3  4  1  0  0  0  0
  3  7  1  0  0  0  0
  3  8  1  0  0  0  0
  4 29  1  0  0  0  0
  6  9  1  0  0  0  0
  6 12  1  0  0  0  0
  8 10  1  0  0  0  0
  8 11  2  0  0  0  0
  9 13  1  0  0  0  0
  9 14  1  0  0  0  0
  9 15  1  0  0  0  0
 10 16  1  0  0  0  0
 10 17  1  0  0  0  0
 10 18  1  0  0  0  0
 19 20  1  0  0  0  0
 20 21  1  0  0  0  0
 20 22  1  0  0  0  0
 20 23  1  0  0  0  0
 23 24  4  0  0  0  0
 23 28  4  0  0  0  0
 24 25  4  0  0  0  0
 24 29  1  0  0  0  0
 25 26  4  0  0  0  0
 25 30  1  0  0  0  0
 26 27  4  0  0  0  0
 26 31  1  0  0  0  0
 27 28  4  0  0  0  0
 27 32  1  0  0  0  0
 28 33  1  0  0  0  0
 29 34  1  0  0  0  0
 29 35  1  0  0  0  0
M  END
> <BCLConfClusterSize>
1

> <ConfClashScore>
0 

> <ConfOneFourInteractionScore>
-0.960318 

> <ConfScore>
0.700129 

> <ConfScorePBest>
0.00304907 

> <ConfTolerance>
1.28736 

> <RosettaParamsInstructions>
M  ROOT 3
M  POLY_N_BB 3
M  POLY_CA_BB 4
M  POLY_C_BB 2
M  POLY_O_BB 5
M  POLY_IGNORE 9 10 11 12 13 14 15 16 17 18 
M  POLY_UPPER 6
M  POLY_LOWER 8
M  POLY_CHG 0
M  POLY_PROPERTIES ALPHA_AA D_AA PROTEIN AROMATIC POLYMER 
M  END

$$$$



 35 35  0  0  0  0  0  0  0  0999 V2000
   -0.5927    4.4096   -2.1468 H   0  0  0  1  0  0  0  0  0  0  0  0
    0.2661    4.2553   -0.2550 C   0  0  0  1  0  0  0  0  0  0  0  0
   -2.0191    4.9735   -0.7819 N   0  0  0  1  0  0  0  0  0  0  0  0
   -0.9193    4.0770   -1.1837 C   0  0  0  1  0  0  0  0  0  0  0  0
    1.4092    4.0002   -0.6246 O   0  0  0  1  0  0  0  0  0  0  0  0
   -0.0195    4.7018    0.9714 N   0  0  0  1  0  0  0  0  0  0  0  0
   -2.9337    4.6220   -0.7651 H   0  0  0  1  0  0  0  0  0  0  0  0
   -1.8119    6.2484   -0.4399 C   0  0  0  1  0  0  0  0  0  0  0  0
    1.0522    4.9757    1.9171 C   0  0  0  1  0  0  0  0  0  0  0  0
   -3.0393    7.0182    0.0074 C   0  0  0  1  0  0  0  0  0  0  0  0
   -0.7054    6.7798   -0.4789 O   0  0  0  1  0  0  0  0  0  0  0  0
   -0.9525    4.8452    1.2347 H   0  0  0  1  0  0  0  0  0  0  0  0
    1.8480    4.2763    1.7676 H   0  0  0  1  0  0  0  0  0  0  0  0
    0.6788    4.8827    2.9156 H   0  0  0  1  0  0  0  0  0  0  0  0
    1.4176    5.9696    1.7636 H   0  0  0  1  0  0  0  0  0  0  0  0
   -2.8983    7.3641    1.0100 H   0  0  0  1  0  0  0  0  0  0  0  0
   -3.8955    6.3777   -0.0316 H   0  0  0  1  0  0  0  0  0  0  0  0
   -3.1903    7.8561   -0.6408 H   0  0  0  1  0  0  0  0  0  0  0  0
   -0.8037    3.2149   -3.7725 F   0  0  0  1  0  0  0  0  0  0  0  0
   -1.9925    3.8094   -3.8867 C   0  0  0  1  0  0  0  0  0  0  0  0
   -1.8213    5.0671   -3.4766 F   0  0  0  1  0  0  0  0  0  0  0  0
   -2.2536    3.8745   -5.1929 F   0  0  0  1  0  0  0  0  0  0  0  0
   -3.0749    3.0916   -3.1155 C   0  0  0  1  0  0  0  0  0  0  0  0
   -2.7843    2.5086   -1.8918 C   0  0  0  1  0  0  0  0  0  0  0  0
   -3.7739    1.8473   -1.1892 C   0  0  0  1  0  0  0  0  0  0  0  0
   -5.0581    1.7716   -1.7055 C   0  0  0  1  0  0  0  0  0  0  0  0
   -5.3476    2.3529   -2.9255 C   0  0  0  1  0  0  0  0  0  0  0  0
   -4.3553    3.0161   -3.6304 C   0  0  0  1  0  0  0  0  0  0  0  0
   -1.3706    2.6258   -1.3728 C   0  0  0  1  0  0  0  0  0  0  0  0
   -3.5550    1.4065   -0.2730 H   0  0  0  1  0  0  0  0  0  0  0  0
   -5.8036    1.2775   -1.1748 H   0  0  0  1  0  0  0  0  0  0  0  0
   -6.3101    2.2926   -3.3148 H   0  0  0  1  0  0  0  0  0  0  0  0
   -4.5742    3.4569   -4.5465 H   0  0  0  1  0  0  0  0  0  0  0  0
   -1.3118    2.1251   -0.4290 H   0  0  0  1  0  0  0  0  0  0  0  0
   -0.7115    2.1522   -2.0700 H   0  0  0  1  0  0  0  0  0  0  0  0
  1  4  1  0  0  0  0
  2  4  1  0  0  0  0
  2  5  2  0  0  0  0
  2  6  1  0  0  0  0
  3  4  1  0  0  0  0
  3  7  1  0  0  0  0
  3  8  1  0  0  0  0
  4 29  1  0  0  0  0
  6  9  1  0  0  0  0
  6 12  1  0  0  0  0
  8 10  1  0  0  0  0
  8 11  2  0  0  0  0
  9 13  1  0  0  0  0
  9 14  1  0  0  0  0
  9 15  1  0  0  0  0
 10 16  1  0  0  0  0
 10 17  1  0  0  0  0
 10 18  1  0  0  0  0
 19 20  1  0  0  0  0
 20 21  1  0  0  0  0
 20 22  1  0  0  0  0
 20 23  1  0  0  0  0
 23 24  4  0  0  0  0
 23 28  4  0  0  0  0
 24 25  4  0  0  0  0
 24 29  1  0  0  0  0
 25 26  4  0  0  0  0
 25 30  1  0  0  0  0
 26 27  4  0  0  0  0
 26 31  1  0  0  0  0
 27 28  4  0  0  0  0
 27 32  1  0  0  0  0
 28 33  1  0  0  0  0
 29 34  1  0  0  0  0
 29 35  1  0  0  0  0
M  END
> <BCLConfClusterSize>
1

> <ConfClashScore>
0.000967258 

> <ConfOneFourInteractionScore>
-0.928132 

> <ConfScore>
0.703556 

> <ConfScorePBest>
0.00302059 

> <ConfTolerance>
1.04425 

> <RosettaParamsInstructions>
M  ROOT 3
M  POLY_N_BB 3
M  POLY_CA_BB 4
M  POLY_C_BB 2
M  POLY_O_BB 5
M  POLY_IGNORE 9 10 11 12 13 14 15 16 17 18 
M  POLY_UPPER 6
M  POLY_LOWER 8
M  POLY_CHG 0
M  POLY_PROPERTIES ALPHA_AA D_AA PROTEIN AROMATIC POLYMER 
M  END

$$$$



 35 35  0  0  0  0  0  0  0  0999 V2000
   -0.6079    4.2067    0.3045 H   0  0  0  1  0  0  0  0  0  0  0  0
   -2.4366    3.5493    1.1143 C   0  0  0  1  0  0  0  0  0  0  0  0
   -2.1029    5.2928   -0.6018 N   0  0  0  1  0  0  0  0  0  0  0  0
   -1.6007    4.0398   -0.0581 C   0  0  0  1  0  0  0  0  0  0  0  0
   -3.1711    4.3188    1.7307 O   0  0  0  1  0  0  0  0  0  0  0  0
   -2.3484    2.2625    1.4522 N   0  0  0  1  0  0  0  0  0  0  0  0
   -2.3152    5.3424   -1.5572 H   0  0  0  1  0  0  0  0  0  0  0  0
   -2.2847    6.3778    0.1563 C   0  0  0  1  0  0  0  0  0  0  0  0
   -3.0733    1.6564    2.5589 C   0  0  0  1  0  0  0  0  0  0  0  0
   -2.6526    7.6469   -0.5874 C   0  0  0  1  0  0  0  0  0  0  0  0
   -2.1655    6.3671    1.3808 O   0  0  0  1  0  0  0  0  0  0  0  0
   -1.7577    1.6882    0.9213 H   0  0  0  1  0  0  0  0  0  0  0  0
   -2.5590    1.8573    3.4755 H   0  0  0  1  0  0  0  0  0  0  0  0
   -3.1339    0.5987    2.4087 H   0  0  0  1  0  0  0  0  0  0  0  0
   -4.0600    2.0675    2.6064 H   0  0  0  1  0  0  0  0  0  0  0  0
   -2.7682    7.4299   -1.6288 H   0  0  0  1  0  0  0  0  0  0  0  0
   -1.8773    8.3730   -0.4586 H   0  0  0  1  0  0  0  0  0  0  0  0
   -3.5719    8.0334   -0.1997 H   0  0  0  1  0  0  0  0  0  0  0  0
   -2.5015    4.5730   -4.8615 F   0  0  0  1  0  0  0  0  0  0  0  0
   -1.9842    3.8033   -3.9023 C   0  0  0  1  0  0  0  0  0  0  0  0
   -1.1398    2.9483   -4.4815 F   0  0  0  1  0  0  0  0  0  0  0  0
   -1.2638    4.5940   -3.1058 F   0  0  0  1  0  0  0  0  0  0  0  0
   -3.0699    3.0880   -3.1249 C   0  0  0  1  0  0  0  0  0  0  0  0
   -2.8405    2.6935   -1.8159 C   0  0  0  1  0  0  0  0  0  0  0  0
   -3.8297    2.0362   -1.1089 C   0  0  0  1  0  0  0  0  0  0  0  0
   -5.0529    1.7762   -1.7069 C   0  0  0  1  0  0  0  0  0  0  0  0
   -5.2814    2.1695   -3.0120 C   0  0  0  1  0  0  0  0  0  0  0  0
   -4.2895    2.8287   -3.7212 C   0  0  0  1  0  0  0  0  0  0  0  0
   -1.5099    2.9817   -1.1617 C   0  0  0  1  0  0  0  0  0  0  0  0
   -3.6563    1.7367   -0.1282 H   0  0  0  1  0  0  0  0  0  0  0  0
   -5.7986    1.2851   -1.1736 H   0  0  0  1  0  0  0  0  0  0  0  0
   -6.1977    1.9708   -3.4620 H   0  0  0  1  0  0  0  0  0  0  0  0
   -4.4630    3.1282   -4.7019 H   0  0  0  1  0  0  0  0  0  0  0  0
   -1.1372    2.0745   -0.7339 H   0  0  0  1  0  0  0  0  0  0  0  0
   -0.8299    3.3290   -1.9113 H   0  0  0  1  0  0  0  0  0  0  0  0
  1  4  1  0  0  0  0
  2  4  1  0  0  0  0
  2  5  2  0  0  0  0
  2  6  1  0  0  0  0
  3  4  1  0  0  0  0
  3  7  1  0  0  0  0
  3  8  1  0  0  0  0
  4 29  1  0  0  0  0
  6  9  1  0  0  0  0
  6 12  1  0  0  0  0
  8 10  1  0  0  0  0
  8 11  2  0  0  0  0
  9 13  1  0  0  0  0
  9 14  1  0  0  0  0
  9 15  1  0  0  0  0
 10 16  1  0  0  0  0
 10 17  1  0  0  0  0
 10 18  1  0  0  0  0
 19 20  1  0  0  0  0
 20 21  1  0  0  0  0
 20 22  1  0  0  0  0
 20 23  1  0  0  0  0
 23 24  4  0  0  0  0
 23 28  4  0  0  0  0
 24 25  4  0  0  0  0
 24 29  1  0  0  0  0
 25 26  4  0  0  0  0
 25 30  1  0  0  0  0
 26 27  4  0  0  0  0
 26 31  1  0  0  0  0
 27 28  4  0  0  0  0
 27 32  1  0  0  0  0
 28 33  1  0  0  0  0
 29 34  1  0  0  0  0
 29 35  1  0  0  0  0
M  END
> <BCLConfClusterSize>
1

> <ConfClashScore>
0.00597574 

> <ConfOneFourInteractionScore>
-0.949142 

> <ConfScore>
0.705631 

> <ConfScorePBest>
0.00299211 

> <ConfTolerance>
0.505878 

> <RosettaParamsInstructions>
M  ROOT 3
M  POLY_N_BB 3
M  POLY_CA_BB 4
M  POLY_C_BB 2
M  POLY_O_BB 5
M  POLY_IGNORE 9 10 11 12 13 14 15 16 17 18 
M  POLY_UPPER 6
M  POLY_LOWER 8
M  POLY_CHG 0
M  POLY_PROPERTIES ALPHA_AA D_AA PROTEIN AROMATIC POLYMER 
M  END

$$$$



 35 35  0  0  0  0  0  0  0  0999 V2000
   -1.5674    0.4436   -0.7530 H   0  0  0  1  0  0  0  0  0  0  0  0
    0.2687    1.1466   -0.0089 C   0  0  0  1  0  0  0  0  0  0  0  0
   -0.2091    0.3589   -2.2964 N   0  0  0  1  0  0  0  0  0  0  0  0
   -0.7530    1.0295   -1.1249 C   0  0  0  1  0  0  0  0  0  0  0  0
    0.5858    0.1208    0.5917 O   0  0  0  1  0  0  0  0  0  0  0  0
    0.7682    2.3505    0.2623 N   0  0  0  1  0  0  0  0  0  0  0  0
   -0.6833   -0.4048   -2.6867 H   0  0  0  1  0  0  0  0  0  0  0  0
    0.9352    0.7820   -2.8408 C   0  0  0  1  0  0  0  0  0  0  0  0
    1.8253    2.5508    1.2423 C   0  0  0  1  0  0  0  0  0  0  0  0
    1.3677    0.0913   -4.1195 C   0  0  0  1  0  0  0  0  0  0  0  0
    1.5693    1.7311   -2.3873 O   0  0  0  1  0  0  0  0  0  0  0  0
    0.4117    3.1289   -0.2146 H   0  0  0  1  0  0  0  0  0  0  0  0
    2.7024    2.9179    0.7516 H   0  0  0  1  0  0  0  0  0  0  0  0
    2.0480    1.6204    1.7215 H   0  0  0  1  0  0  0  0  0  0  0  0
    1.5027    3.2614    1.9743 H   0  0  0  1  0  0  0  0  0  0  0  0
    2.4333   -0.0046   -4.1308 H   0  0  0  1  0  0  0  0  0  0  0  0
    1.0530    0.6712   -4.9618 H   0  0  0  1  0  0  0  0  0  0  0  0
    0.9219   -0.8802   -4.1681 H   0  0  0  1  0  0  0  0  0  0  0  0
   -1.3820    4.7488   -3.1529 F   0  0  0  1  0  0  0  0  0  0  0  0
   -1.9940    3.8151   -3.8833 C   0  0  0  1  0  0  0  0  0  0  0  0
   -2.4648    4.4374   -4.9652 F   0  0  0  1  0  0  0  0  0  0  0  0
   -1.0366    2.9899   -4.3134 F   0  0  0  1  0  0  0  0  0  0  0  0
   -3.0756    3.0949   -3.1133 C   0  0  0  1  0  0  0  0  0  0  0  0
   -2.7575    2.3971   -1.9585 C   0  0  0  1  0  0  0  0  0  0  0  0
   -3.7469    1.7339   -1.2574 C   0  0  0  1  0  0  0  0  0  0  0  0
   -5.0580    1.7710   -1.7058 C   0  0  0  1  0  0  0  0  0  0  0  0
   -5.3749    2.4668   -2.8571 C   0  0  0  1  0  0  0  0  0  0  0  0
   -4.3828    3.1320   -3.5605 C   0  0  0  1  0  0  0  0  0  0  0  0
   -1.3148    2.3940   -1.5112 C   0  0  0  1  0  0  0  0  0  0  0  0
   -3.5077    1.2070   -0.3932 H   0  0  0  1  0  0  0  0  0  0  0  0
   -5.8031    1.2753   -1.1760 H   0  0  0  1  0  0  0  0  0  0  0  0
   -6.3579    2.4913   -3.1958 H   0  0  0  1  0  0  0  0  0  0  0  0
   -4.6221    3.6589   -4.4247 H   0  0  0  1  0  0  0  0  0  0  0  0
   -0.7201    2.7811   -2.3121 H   0  0  0  1  0  0  0  0  0  0  0  0
   -1.2315    3.0380   -0.6608 H   0  0  0  1  0  0  0  0  0  0  0  0
  1  4  1  0  0  0  0
  2  4  1  0  0  0  0
  2  5  2  0  0  0  0
  2  6  1  0  0  0  0
  3  4  1  0  0  0  0
  3  7  1  0  0  0  0
  3  8  1  0  0  0  0
  4 29  1  0  0  0  0
  6  9  1  0  0  0  0
  6 12  1  0  0  0  0
  8 10  1  0  0  0  0
  8 11  2  0  0  0  0
  9 13  1  0  0  0  0
  9 14  1  0  0  0  0
  9 15  1  0  0  0  0
 10 16  1  0  0  0  0
 10 17  1  0  0  0  0
 10 18  1  0  0  0  0
 19 20  1  0  0  0  0
 20 21  1  0  0  0  0
 20 22  1  0  0  0  0
 20 23  1  0  0  0  0
 23 24  4  0  0  0  0
 23 28  4  0  0  0  0
 24 25  4  0  0  0  0
 24 29  1  0  0  0  0
 25 26  4  0  0  0  0
 25 30  1  0  0  0  0
 26 27  4  0  0  0  0
 26 31  1  0  0  0  0
 27 28  4  0  0  0  0
 27 32  1  0  0  0  0
 28 33  1  0  0  0  0
 29 34  1  0  0  0  0
 29 35  1  0  0  0  0
M  END
> <BCLConfClusterSize>
1

> <ConfClashScore>
0 

> <ConfOneFourInteractionScore>
-0.919941 

> <ConfScore>
0.722097 

> <ConfScorePBest>
0.00296363 

> <ConfTolerance>
0.665362 

> <RosettaParamsInstructions>
M  ROOT 3
M  POLY_N_BB 3
M  POLY_CA_BB 4
M  POLY_C_BB 2
M  POLY_O_BB 5
M  POLY_IGNORE 9 10 11 12 13 14 15 16 17 18 
M  POLY_UPPER 6
M  POLY_LOWER 8
M  POLY_CHG 0
M  POLY_PROPERTIES ALPHA_AA D_AA PROTEIN AROMATIC POLYMER 
M  END

$$$$



 35 35  0  0  0  0  0  0  0  0999 V2000
   -0.5471    1.4353    0.1316 H   0  0  0  1  0  0  0  0  0  0  0  0
    0.6391    1.2212   -1.5787 C   0  0  0  1  0  0  0  0  0  0  0  0
   -1.5962    0.2606   -1.2001 N   0  0  0  1  0  0  0  0  0  0  0  0
   -0.7160    1.4121   -0.9247 C   0  0  0  1  0  0  0  0  0  0  0  0
    1.3022    2.1885   -1.9504 O   0  0  0  1  0  0  0  0  0  0  0  0
    1.0884   -0.0240   -1.7379 N   0  0  0  1  0  0  0  0  0  0  0  0
   -1.9127   -0.2831   -0.4488 H   0  0  0  1  0  0  0  0  0  0  0  0
   -1.9769   -0.0666   -2.4383 C   0  0  0  1  0  0  0  0  0  0  0  0
    2.2965   -0.3694   -2.4722 C   0  0  0  1  0  0  0  0  0  0  0  0
   -3.0382   -1.1547   -2.5384 C   0  0  0  1  0  0  0  0  0  0  0  0
   -1.5152    0.4612   -3.4366 O   0  0  0  1  0  0  0  0  0  0  0  0
    0.5723   -0.7530   -1.3348 H   0  0  0  1  0  0  0  0  0  0  0  0
    2.9897    0.4441   -2.4223 H   0  0  0  1  0  0  0  0  0  0  0  0
    2.0486   -0.5643   -3.4947 H   0  0  0  1  0  0  0  0  0  0  0  0
    2.7393   -1.2421   -2.0395 H   0  0  0  1  0  0  0  0  0  0  0  0
   -3.9950   -0.7060   -2.7066 H   0  0  0  1  0  0  0  0  0  0  0  0
   -3.0623   -1.7142   -1.6267 H   0  0  0  1  0  0  0  0  0  0  0  0
   -2.8030   -1.8082   -3.3524 H   0  0  0  1  0  0  0  0  0  0  0  0
   -0.9181    3.0677   -4.0564 F   0  0  0  1  0  0  0  0  0  0  0  0
   -2.0043    3.8253   -3.8949 C   0  0  0  1  0  0  0  0  0  0  0  0
   -1.5636    4.9009   -3.2843 F   0  0  0  1  0  0  0  0  0  0  0  0
   -2.3693    4.1507   -5.1109 F   0  0  0  1  0  0  0  0  0  0  0  0
   -3.0808    3.1012   -3.1214 C   0  0  0  1  0  0  0  0  0  0  0  0
   -2.7986    2.5684   -1.8731 C   0  0  0  1  0  0  0  0  0  0  0  0
   -3.7826    1.9012   -1.1682 C   0  0  0  1  0  0  0  0  0  0  0  0
   -5.0530    1.7696   -1.7069 C   0  0  0  1  0  0  0  0  0  0  0  0
   -5.3342    2.3009   -2.9515 C   0  0  0  1  0  0  0  0  0  0  0  0
   -4.3474    2.9700   -3.6586 C   0  0  0  1  0  0  0  0  0  0  0  0
   -1.4161    2.7165   -1.2829 C   0  0  0  1  0  0  0  0  0  0  0  0
   -3.5699    1.4980   -0.2335 H   0  0  0  1  0  0  0  0  0  0  0  0
   -5.7945    1.2711   -1.1747 H   0  0  0  1  0  0  0  0  0  0  0  0
   -6.2862    2.1987   -3.3574 H   0  0  0  1  0  0  0  0  0  0  0  0
   -4.5602    3.3733   -4.5934 H   0  0  0  1  0  0  0  0  0  0  0  0
   -0.8070    3.2334   -1.9947 H   0  0  0  1  0  0  0  0  0  0  0  0
   -1.4989    3.3023   -0.3914 H   0  0  0  1  0  0  0  0  0  0  0  0
  1  4  1  0  0  0  0
  2  4  1  0  0  0  0
  2  5  2  0  0  0  0
  2  6  1  0  0  0  0
  3  4  1  0  0  0  0
  3  7  1  0  0  0  0
  3  8  1  0  0  0  0
  4 29  1  0  0  0  0
  6  9  1  0  0  0  0
  6 12  1  0  0  0  0
  8 10  1  0  0  0  0
  8 11  2  0  0  0  0
  9 13  1  0  0  0  0
  9 14  1  0  0  0  0
  9 15  1  0  0  0  0
 10 16  1  0  0  0  0
 10 17  1  0  0  0  0
 10 18  1  0  0  0  0
 19 20  1  0  0  0  0
 20 21  1  0  0  0  0
 20 22  1  0  0  0  0
 20 23  1  0  0  0  0
 23 24  4  0  0  0  0
 23 28  4  0  0  0  0
 24 25  4  0  0  0  0
 24 29  1  0  0  0  0
 25 26  4  0  0  0  0
 25 30  1  0  0  0  0
 26 27  4  0  0  0  0
 26 31  1  0  0  0  0
 27 28  4  0  0  0  0
 27 32  1  0  0  0  0
 28 33  1  0  0  0  0
 29 34  1  0  0  0  0
 29 35  1  0  0  0  0
M  END
> <BCLConfClusterSize>
1

> <ConfClashScore>
0.000645297 

> <ConfOneFourInteractionScore>
-0.934113 

> <ConfScore>
0.738808 

> <ConfScorePBest>
0.00293515 

> <ConfTolerance>
0.861872 

> <RosettaParamsInstructions>
M  ROOT 3
M  POLY_N_BB 3
M  POLY_CA_BB 4
M  POLY_C_BB 2
M  POLY_O_BB 5
M  POLY_IGNORE 9 10 11 12 13 14 15 16 17 18 
M  POLY_UPPER 6
M  POLY_LOWER 8
M  POLY_CHG 0
M  POLY_PROPERTIES ALPHA_AA D_AA PROTEIN AROMATIC POLYMER 
M  END

$$$$



 35 35  0  0  0  0  0  0  0  0999 V2000
    0.4260    1.7728   -1.6313 H   0  0  0  1  0  0  0  0  0  0  0  0
   -1.0729    0.7021   -2.7656 C   0  0  0  1  0  0  0  0  0  0  0  0
   -0.6610    0.6463   -0.3010 N   0  0  0  1  0  0  0  0  0  0  0  0
   -0.5885    1.4743   -1.4685 C   0  0  0  1  0  0  0  0  0  0  0  0
   -0.5451    0.8964   -3.8574 O   0  0  0  1  0  0  0  0  0  0  0  0
   -2.0785   -0.1593   -2.5867 N   0  0  0  1  0  0  0  0  0  0  0  0
   -0.9568    1.0450    0.5439 H   0  0  0  1  0  0  0  0  0  0  0  0
   -0.3358   -0.6655   -0.3248 C   0  0  0  1  0  0  0  0  0  0  0  0
   -2.5748   -0.9457   -3.7061 C   0  0  0  1  0  0  0  0  0  0  0  0
   -0.2409   -1.3450    1.0269 C   0  0  0  1  0  0  0  0  0  0  0  0
   -0.1333   -1.2646   -1.3327 O   0  0  0  1  0  0  0  0  0  0  0  0
   -2.4827   -0.2617   -1.6999 H   0  0  0  1  0  0  0  0  0  0  0  0
   -3.2759   -1.6713   -3.3498 H   0  0  0  1  0  0  0  0  0  0  0  0
   -1.7565   -1.4445   -4.1820 H   0  0  0  1  0  0  0  0  0  0  0  0
   -3.0571   -0.2996   -4.4096 H   0  0  0  1  0  0  0  0  0  0  0  0
   -1.2011   -1.3368    1.4989 H   0  0  0  1  0  0  0  0  0  0  0  0
    0.4623   -0.8216    1.6404 H   0  0  0  1  0  0  0  0  0  0  0  0
    0.0829   -2.3563    0.8954 H   0  0  0  1  0  0  0  0  0  0  0  0
   -1.0263    2.9937   -4.3000 F   0  0  0  1  0  0  0  0  0  0  0  0
   -1.9952    3.8154   -3.8925 C   0  0  0  1  0  0  0  0  0  0  0  0
   -1.3986    4.7675   -3.1735 F   0  0  0  1  0  0  0  0  0  0  0  0
   -2.4634    4.4133   -4.9888 F   0  0  0  1  0  0  0  0  0  0  0  0
   -3.0756    3.0974   -3.1188 C   0  0  0  1  0  0  0  0  0  0  0  0
   -2.8143    2.6179   -1.8447 C   0  0  0  1  0  0  0  0  0  0  0  0
   -3.8018    1.9562   -1.1395 C   0  0  0  1  0  0  0  0  0  0  0  0
   -5.0550    1.7768   -1.7041 C   0  0  0  1  0  0  0  0  0  0  0  0
   -5.3154    2.2549   -2.9744 C   0  0  0  1  0  0  0  0  0  0  0  0
   -4.3252    2.9185   -3.6819 C   0  0  0  1  0  0  0  0  0  0  0  0
   -1.4271    2.7281   -1.2574 C   0  0  0  1  0  0  0  0  0  0  0  0
   -3.6046    1.5929   -0.1852 H   0  0  0  1  0  0  0  0  0  0  0  0
   -5.7993    1.2824   -1.1718 H   0  0  0  1  0  0  0  0  0  0  0  0
   -6.2544    2.1168   -3.3996 H   0  0  0  1  0  0  0  0  0  0  0  0
   -4.5224    3.2818   -4.6362 H   0  0  0  1  0  0  0  0  0  0  0  0
   -0.9268    3.5540   -1.7183 H   0  0  0  1  0  0  0  0  0  0  0  0
   -1.5155    2.9056   -0.2059 H   0  0  0  1  0  0  0  0  0  0  0  0
  1  4  1  0  0  0  0
  2  4  1  0  0  0  0
  2  5  2  0  0  0  0
  2  6  1  0  0  0  0
  3  4  1  0  0  0  0
  3  7  1  0  0  0  0
  3  8  1  0  0  0  0
  4 29  1  0  0  0  0
  6  9  1  0  0  0  0
  6 12  1  0  0  0  0
  8 10  1  0  0  0  0
  8 11  2  0  0  0  0
  9 13  1  0  0  0  0
  9 14  1  0  0  0  0
  9 15  1  0  0  0  0
 10 16  1  0  0  0  0
 10 17  1  0  0  0  0
 10 18  1  0  0  0  0
 19 20  1  0  0  0  0
 20 21  1  0  0  0  0
 20 22  1  0  0  0  0
 20 23  1  0  0  0  0
 23 24  4  0  0  0  0
 23 28  4  0  0  0  0
 24 25  4  0  0  0  0
 24 29  1  0  0  0  0
 25 26  4  0  0  0  0
 25 30  1  0  0  0  0
 26 27  4  0  0  0  0
 26 31  1  0  0  0  0
 27 28  4  0  0  0  0
 27 32  1  0  0  0  0
 28 33  1  0  0  0  0
 29 34  1  0  0  0  0
 29 35  1  0  0  0  0
M  END
> <BCLConfClusterSize>
1

> <ConfClashScore>
0.00201635 

> <ConfOneFourInteractionScore>
-0.942345 

> <ConfScore>
0.747489 

> <ConfScorePBest>
0.00290666 

> <ConfTolerance>
0.736051 

> <RosettaParamsInstructions>
M  ROOT 3
M  POLY_N_BB 3
M  POLY_CA_BB 4
M  POLY_C_BB 2
M  POLY_O_BB 5
M  POLY_IGNORE 9 10 11 12 13 14 15 16 17 18 
M  POLY_UPPER 6
M  POLY_LOWER 8
M  POLY_CHG 0
M  POLY_PROPERTIES ALPHA_AA D_AA PROTEIN AROMATIC POLYMER 
M  END

$$$$



 35 35  0  0  0  0  0  0  0  0999 V2000
   -1.9646    5.1889   -1.1774 H   0  0  0  1  0  0  0  0  0  0  0  0
   -0.1969    4.9581   -0.0557 C   0  0  0  1  0  0  0  0  0  0  0  0
   -2.5107    4.5160    0.6890 N   0  0  0  1  0  0  0  0  0  0  0  0
   -1.5973    4.5021   -0.4438 C   0  0  0  1  0  0  0  0  0  0  0  0
    0.4454    4.3746    0.8134 O   0  0  0  1  0  0  0  0  0  0  0  0
    0.2722    6.0194   -0.7178 N   0  0  0  1  0  0  0  0  0  0  0  0
   -2.7032    3.6738    1.1517 H   0  0  0  1  0  0  0  0  0  0  0  0
   -3.0961    5.6369    1.1201 C   0  0  0  1  0  0  0  0  0  0  0  0
    1.5809    6.5925   -0.4407 C   0  0  0  1  0  0  0  0  0  0  0  0
   -2.7002    6.9079    0.3942 C   0  0  0  1  0  0  0  0  0  0  0  0
   -3.9068    5.6562    2.0454 O   0  0  0  1  0  0  0  0  0  0  0  0
   -0.2843    6.4262   -1.4144 H   0  0  0  1  0  0  0  0  0  0  0  0
    2.0727    6.8223   -1.3627 H   0  0  0  1  0  0  0  0  0  0  0  0
    2.1686    5.8887    0.1110 H   0  0  0  1  0  0  0  0  0  0  0  0
    1.4637    7.4877    0.1336 H   0  0  0  1  0  0  0  0  0  0  0  0
   -2.5098    7.6822    1.1077 H   0  0  0  1  0  0  0  0  0  0  0  0
   -3.4951    7.2096   -0.2555 H   0  0  0  1  0  0  0  0  0  0  0  0
   -1.8165    6.7289   -0.1819 H   0  0  0  1  0  0  0  0  0  0  0  0
   -2.3841    4.0549   -5.1635 F   0  0  0  1  0  0  0  0  0  0  0  0
   -1.9920    3.7896   -3.9161 C   0  0  0  1  0  0  0  0  0  0  0  0
   -0.8999    3.0310   -4.0221 F   0  0  0  1  0  0  0  0  0  0  0  0
   -1.5917    4.9504   -3.3957 F   0  0  0  1  0  0  0  0  0  0  0  0
   -3.0806    3.1288   -3.0933 C   0  0  0  1  0  0  0  0  0  0  0  0
   -2.8726    2.7661   -1.7717 C   0  0  0  1  0  0  0  0  0  0  0  0
   -3.8533    2.0792   -1.0812 C   0  0  0  1  0  0  0  0  0  0  0  0
   -5.0469    1.7578   -1.7084 C   0  0  0  1  0  0  0  0  0  0  0  0
   -5.2541    2.1195   -3.0262 C   0  0  0  1  0  0  0  0  0  0  0  0
   -4.2707    2.8084   -3.7189 C   0  0  0  1  0  0  0  0  0  0  0  0
   -1.5746    3.1211   -1.0856 C   0  0  0  1  0  0  0  0  0  0  0  0
   -3.6957    1.8035   -0.0908 H   0  0  0  1  0  0  0  0  0  0  0  0
   -5.7863    1.2445   -1.1876 H   0  0  0  1  0  0  0  0  0  0  0  0
   -6.1480    1.8748   -3.4981 H   0  0  0  1  0  0  0  0  0  0  0  0
   -4.4283    3.0840   -4.7092 H   0  0  0  1  0  0  0  0  0  0  0  0
   -1.3821    2.3946   -0.3240 H   0  0  0  1  0  0  0  0  0  0  0  0
   -0.7881    3.0953   -1.8107 H   0  0  0  1  0  0  0  0  0  0  0  0
  1  4  1  0  0  0  0
  2  4  1  0  0  0  0
  2  5  2  0  0  0  0
  2  6  1  0  0  0  0
  3  4  1  0  0  0  0
  3  7  1  0  0  0  0
  3  8  1  0  0  0  0
  4 29  1  0  0  0  0
  6  9  1  0  0  0  0
  6 12  1  0  0  0  0
  8 10  1  0  0  0  0
  8 11  2  0  0  0  0
  9 13  1  0  0  0  0
  9 14  1  0  0  0  0
  9 15  1  0  0  0  0
 10 16  1  0  0  0  0
 10 17  1  0  0  0  0
 10 18  1  0  0  0  0
 19 20  1  0  0  0  0
 20 21  1  0  0  0  0
 20 22  1  0  0  0  0
 20 23  1  0  0  0  0
 23 24  4  0  0  0  0
 23 28  4  0  0  0  0
 24 25  4  0  0  0  0
 24 29  1  0  0  0  0
 25 26  4  0  0  0  0
 25 30  1  0  0  0  0
 26 27  4  0  0  0  0
 26 31  1  0  0  0  0
 27 28  4  0  0  0  0
 27 32  1  0  0  0  0
 28 33  1  0  0  0  0
 29 34  1  0  0  0  0
 29 35  1  0  0  0  0
M  END
> <BCLConfClusterSize>
1

> <ConfClashScore>
0.000490274 

> <ConfOneFourInteractionScore>
-0.978127 

> <ConfScore>
0.74904 

> <ConfScorePBest>
0.00287818 

> <ConfTolerance>
1.28254 

> <RosettaParamsInstructions>
M  ROOT 3
M  POLY_N_BB 3
M  POLY_CA_BB 4
M  POLY_C_BB 2
M  POLY_O_BB 5
M  POLY_IGNORE 9 10 11 12 13 14 15 16 17 18 
M  POLY_UPPER 6
M  POLY_LOWER 8
M  POLY_CHG 0
M  POLY_PROPERTIES ALPHA_AA D_AA PROTEIN AROMATIC POLYMER 
M  END

$$$$



 35 35  0  0  0  0  0  0  0  0999 V2000
   -0.6118    1.3398   -3.2249 H   0  0  0  1  0  0  0  0  0  0  0  0
   -0.8128   -0.0079   -1.5864 C   0  0  0  1  0  0  0  0  0  0  0  0
    0.9618    1.6530   -1.8963 N   0  0  0  1  0  0  0  0  0  0  0  0
   -0.4391    1.3523   -2.1690 C   0  0  0  1  0  0  0  0  0  0  0  0
   -0.4303   -0.3408   -0.4656 O   0  0  0  1  0  0  0  0  0  0  0  0
   -1.5737   -0.8318   -2.3365 N   0  0  0  1  0  0  0  0  0  0  0  0
    1.4042    1.2051   -1.1452 H   0  0  0  1  0  0  0  0  0  0  0  0
    1.6699    2.5264   -2.6420 C   0  0  0  1  0  0  0  0  0  0  0  0
   -1.8790   -0.4891   -3.7175 C   0  0  0  1  0  0  0  0  0  0  0  0
    3.0999    2.8084   -2.2399 C   0  0  0  1  0  0  0  0  0  0  0  0
    1.1691    3.0784   -3.6208 O   0  0  0  1  0  0  0  0  0  0  0  0
   -1.9215   -1.6627   -1.9505 H   0  0  0  1  0  0  0  0  0  0  0  0
   -1.0287   -0.0184   -4.1651 H   0  0  0  1  0  0  0  0  0  0  0  0
   -2.7121    0.1818   -3.7424 H   0  0  0  1  0  0  0  0  0  0  0  0
   -2.1207   -1.3789   -4.2604 H   0  0  0  1  0  0  0  0  0  0  0  0
    3.2146    3.8527   -2.0370 H   0  0  0  1  0  0  0  0  0  0  0  0
    3.7564    2.5259   -3.0362 H   0  0  0  1  0  0  0  0  0  0  0  0
    3.3407    2.2462   -1.3619 H   0  0  0  1  0  0  0  0  0  0  0  0
   -1.4043    4.7665   -3.1350 F   0  0  0  1  0  0  0  0  0  0  0  0
   -1.9803    3.8137   -3.8700 C   0  0  0  1  0  0  0  0  0  0  0  0
   -2.4070    4.4095   -4.9846 F   0  0  0  1  0  0  0  0  0  0  0  0
   -1.0028    2.9853   -4.2399 F   0  0  0  1  0  0  0  0  0  0  0  0
   -3.0938    3.1030   -3.1291 C   0  0  0  1  0  0  0  0  0  0  0  0
   -2.7637    2.4099   -1.9749 C   0  0  0  1  0  0  0  0  0  0  0  0
   -3.7439    1.7408   -1.2666 C   0  0  0  1  0  0  0  0  0  0  0  0
   -5.0579    1.7671   -1.7072 C   0  0  0  1  0  0  0  0  0  0  0  0
   -5.3869    2.4582   -2.8580 C   0  0  0  1  0  0  0  0  0  0  0  0
   -4.4040    3.1293   -3.5686 C   0  0  0  1  0  0  0  0  0  0  0  0
   -1.3183    2.4185   -1.5362 C   0  0  0  1  0  0  0  0  0  0  0  0
   -3.4956    1.2174   -0.4028 H   0  0  0  1  0  0  0  0  0  0  0  0
   -5.7960    1.2669   -1.1720 H   0  0  0  1  0  0  0  0  0  0  0  0
   -6.3720    2.4747   -3.1909 H   0  0  0  1  0  0  0  0  0  0  0  0
   -4.6523    3.6527   -4.4324 H   0  0  0  1  0  0  0  0  0  0  0  0
   -0.9050    3.3748   -1.7803 H   0  0  0  1  0  0  0  0  0  0  0  0
   -1.2945    2.2792   -0.4756 H   0  0  0  1  0  0  0  0  0  0  0  0
  1  4  1  0  0  0  0
  2  4  1  0  0  0  0
  2  5  2  0  0  0  0
  2  6  1  0  0  0  0
  3  4  1  0  0  0  0
  3  7  1  0  0  0  0
  3  8  1  0  0  0  0
  4 29  1  0  0  0  0
  6  9  1  0  0  0  0
  6 12  1  0  0  0  0
  8 10  1  0  0  0  0
  8 11  2  0  0  0  0
  9 13  1  0  0  0  0
  9 14  1  0  0  0  0
  9 15  1  0  0  0  0
 10 16  1  0  0  0  0
 10 17  1  0  0  0  0
 10 18  1  0  0  0  0
 19 20  1  0  0  0  0
 20 21  1  0  0  0  0
 20 22  1  0  0  0  0
 20 23  1  0  0  0  0
 23 24  4  0  0  0  0
 23 28  4  0  0  0  0
 24 25  4  0  0  0  0
 24 29  1  0  0  0  0
 25 26  4  0  0  0  0
 25 30  1  0  0  0  0
 26 27  4  0  0  0  0
 26 31  1  0  0  0  0
 27 28  4  0  0  0  0
 27 32  1  0  0  0  0
 28 33  1  0  0  0  0
 29 34  1  0  0  0  0
 29 35  1  0  0  0  0
M  END
> <BCLConfClusterSize>
1

> <ConfClashScore>
0 

> <ConfOneFourInteractionScore>
-0.990503 

> <ConfScore>
0.75634 

> <ConfScorePBest>
0.0028497 

> <ConfTolerance>
1.46648 

> <RosettaParamsInstructions>
M  ROOT 3
M  POLY_N_BB 3
M  POLY_CA_BB 4
M  POLY_C_BB 2
M  POLY_O_BB 5
M  POLY_IGNORE 9 10 11 12 13 14 15 16 17 18 
M  POLY_UPPER 6
M  POLY_LOWER 8
M  POLY_CHG 0
M  POLY_PROPERTIES ALPHA_AA D_AA PROTEIN AROMATIC POLYMER 
M  END

$$$$



 35 35  0  0  0  0  0  0  0  0999 V2000
   -0.2877    3.5829    0.1845 H   0  0  0  1  0  0  0  0  0  0  0  0
   -2.3100    4.0756    0.5060 C   0  0  0  1  0  0  0  0  0  0  0  0
   -0.8530    4.8894   -1.3186 N   0  0  0  1  0  0  0  0  0  0  0  0
   -1.1500    3.7690   -0.4211 C   0  0  0  1  0  0  0  0  0  0  0  0
   -2.3305    3.6582    1.6609 O   0  0  0  1  0  0  0  0  0  0  0  0
   -3.2942    4.8227   -0.0188 N   0  0  0  1  0  0  0  0  0  0  0  0
   -1.6008    5.4467   -1.6198 H   0  0  0  1  0  0  0  0  0  0  0  0
    0.4185    5.2110   -1.7686 C   0  0  0  1  0  0  0  0  0  0  0  0
   -4.5274    5.1013    0.7020 C   0  0  0  1  0  0  0  0  0  0  0  0
    0.5908    6.3803   -2.6969 C   0  0  0  1  0  0  0  0  0  0  0  0
    1.3593    4.5306   -1.3940 O   0  0  0  1  0  0  0  0  0  0  0  0
   -3.1782    5.1934   -0.9185 H   0  0  0  1  0  0  0  0  0  0  0  0
   -5.3365    5.1845    0.0067 H   0  0  0  1  0  0  0  0  0  0  0  0
   -4.4252    6.0196    1.2415 H   0  0  0  1  0  0  0  0  0  0  0  0
   -4.7273    4.3045    1.3877 H   0  0  0  1  0  0  0  0  0  0  0  0
   -0.3573    6.8483   -2.8617 H   0  0  0  1  0  0  0  0  0  0  0  0
    0.9867    6.0389   -3.6305 H   0  0  0  1  0  0  0  0  0  0  0  0
    1.2655    7.0862   -2.2596 H   0  0  0  1  0  0  0  0  0  0  0  0
   -0.7864    3.2999   -3.7570 F   0  0  0  1  0  0  0  0  0  0  0  0
   -2.0048    3.8204   -3.9133 C   0  0  0  1  0  0  0  0  0  0  0  0
   -1.9063    5.0994   -3.5821 F   0  0  0  1  0  0  0  0  0  0  0  0
   -2.2579    3.7919   -5.2224 F   0  0  0  1  0  0  0  0  0  0  0  0
   -3.0561    3.0903   -3.1030 C   0  0  0  1  0  0  0  0  0  0  0  0
   -2.7718    2.4923   -1.8851 C   0  0  0  1  0  0  0  0  0  0  0  0
   -3.7682    1.8340   -1.1893 C   0  0  0  1  0  0  0  0  0  0  0  0
   -5.0529    1.7762   -1.7067 C   0  0  0  1  0  0  0  0  0  0  0  0
   -5.3362    2.3724   -2.9210 C   0  0  0  1  0  0  0  0  0  0  0  0
   -4.3370    3.0327   -3.6190 C   0  0  0  1  0  0  0  0  0  0  0  0
   -1.3933    2.5272   -1.2688 C   0  0  0  1  0  0  0  0  0  0  0  0
   -3.5541    1.3819   -0.2775 H   0  0  0  1  0  0  0  0  0  0  0  0
   -5.8036    1.2843   -1.1813 H   0  0  0  1  0  0  0  0  0  0  0  0
   -6.2991    2.3256   -3.3112 H   0  0  0  1  0  0  0  0  0  0  0  0
   -4.5511    3.4848   -4.5308 H   0  0  0  1  0  0  0  0  0  0  0  0
   -1.2754    1.6632   -0.6487 H   0  0  0  1  0  0  0  0  0  0  0  0
   -0.6680    2.5042   -2.0551 H   0  0  0  1  0  0  0  0  0  0  0  0
  1  4  1  0  0  0  0
  2  4  1  0  0  0  0
  2  5  2  0  0  0  0
  2  6  1  0  0  0  0
  3  4  1  0  0  0  0
  3  7  1  0  0  0  0
  3  8  1  0  0  0  0
  4 29  1  0  0  0  0
  6  9  1  0  0  0  0
  6 12  1  0  0  0  0
  8 10  1  0  0  0  0
  8 11  2  0  0  0  0
  9 13  1  0  0  0  0
  9 14  1  0  0  0  0
  9 15  1  0  0  0  0
 10 16  1  0  0  0  0
 10 17  1  0  0  0  0
 10 18  1  0  0  0  0
 19 20  1  0  0  0  0
 20 21  1  0  0  0  0
 20 22  1  0  0  0  0
 20 23  1  0  0  0  0
 23 24  4  0  0  0  0
 23 28  4  0  0  0  0
 24 25  4  0  0  0  0
 24 29  1  0  0  0  0
 25 26  4  0  0  0  0
 25 30  1  0  0  0  0
 26 27  4  0  0  0  0
 26 31  1  0  0  0  0
 27 28  4  0  0  0  0
 27 32  1  0  0  0  0
 28 33  1  0  0  0  0
 29 34  1  0  0  0  0
 29 35  1  0  0  0  0
M  END
> <BCLConfClusterSize>
1

> <ConfClashScore>
0.00221628 

> <ConfOneFourInteractionScore>
-0.95409 

> <ConfScore>
0.776762 

> <ConfScorePBest>
0.00282122 

> <ConfTolerance>
0.995741 

> <RosettaParamsInstructions>
M  ROOT 3
M  POLY_N_BB 3
M  POLY_CA_BB 4
M  POLY_C_BB 2
M  POLY_O_BB 5
M  POLY_IGNORE 9 10 11 12 13 14 15 16 17 18 
M  POLY_UPPER 6
M  POLY_LOWER 8
M  POLY_CHG 0
M  POLY_PROPERTIES ALPHA_AA D_AA PROTEIN AROMATIC POLYMER 
M  END

$$$$



 35 35  0  0  0  0  0  0  0  0999 V2000
   -1.2265    4.0487    0.7814 H   0  0  0  1  0  0  0  0  0  0  0  0
   -3.1771    4.5607    0.1572 C   0  0  0  1  0  0  0  0  0  0  0  0
   -1.0625    5.4372   -0.7419 N   0  0  0  1  0  0  0  0  0  0  0  0
   -1.7161    4.2845   -0.1403 C   0  0  0  1  0  0  0  0  0  0  0  0
   -3.9847    4.7321   -0.7410 O   0  0  0  1  0  0  0  0  0  0  0  0
   -3.5099    4.6018    1.4571 N   0  0  0  1  0  0  0  0  0  0  0  0
   -0.8422    5.4111   -1.6965 H   0  0  0  1  0  0  0  0  0  0  0  0
   -0.7424    6.5642   -0.0159 C   0  0  0  1  0  0  0  0  0  0  0  0
   -4.8312    4.9337    1.9687 C   0  0  0  1  0  0  0  0  0  0  0  0
   -0.2436    7.7364   -0.8096 C   0  0  0  1  0  0  0  0  0  0  0  0
   -0.8710    6.5674    1.1938 O   0  0  0  1  0  0  0  0  0  0  0  0
   -2.8104    4.3925    2.1107 H   0  0  0  1  0  0  0  0  0  0  0  0
   -4.9848    4.4426    2.9068 H   0  0  0  1  0  0  0  0  0  0  0  0
   -5.5752    4.6102    1.2710 H   0  0  0  1  0  0  0  0  0  0  0  0
   -4.9052    5.9925    2.1044 H   0  0  0  1  0  0  0  0  0  0  0  0
   -0.8102    7.8229   -1.7132 H   0  0  0  1  0  0  0  0  0  0  0  0
    0.7891    7.5912   -1.0490 H   0  0  0  1  0  0  0  0  0  0  0  0
   -0.3542    8.6306   -0.2325 H   0  0  0  1  0  0  0  0  0  0  0  0
   -2.2611    3.9064   -5.2022 F   0  0  0  1  0  0  0  0  0  0  0  0
   -1.9923    3.8029   -3.8996 C   0  0  0  1  0  0  0  0  0  0  0  0
   -0.8091    3.1896   -3.8424 F   0  0  0  1  0  0  0  0  0  0  0  0
   -1.7812    5.0427   -3.4899 F   0  0  0  1  0  0  0  0  0  0  0  0
   -3.0732    3.0881   -3.1236 C   0  0  0  1  0  0  0  0  0  0  0  0
   -2.8669    2.7536   -1.7943 C   0  0  0  1  0  0  0  0  0  0  0  0
   -3.8544    2.0947   -1.0864 C   0  0  0  1  0  0  0  0  0  0  0  0
   -5.0530    1.7732   -1.7041 C   0  0  0  1  0  0  0  0  0  0  0  0
   -5.2584    2.1068   -3.0294 C   0  0  0  1  0  0  0  0  0  0  0  0
   -4.2682    2.7676   -3.7396 C   0  0  0  1  0  0  0  0  0  0  0  0
   -1.5848    3.0827   -1.0667 C   0  0  0  1  0  0  0  0  0  0  0  0
   -3.6982    1.8401   -0.0902 H   0  0  0  1  0  0  0  0  0  0  0  0
   -5.7975    1.2810   -1.1702 H   0  0  0  1  0  0  0  0  0  0  0  0
   -6.1561    1.8620   -3.4940 H   0  0  0  1  0  0  0  0  0  0  0  0
   -4.4245    3.0221   -4.7358 H   0  0  0  1  0  0  0  0  0  0  0  0
   -1.2964    2.2331   -0.4835 H   0  0  0  1  0  0  0  0  0  0  0  0
   -0.8262    3.2926   -1.7914 H   0  0  0  1  0  0  0  0  0  0  0  0
  1  4  1  0  0  0  0
  2  4  1  0  0  0  0
  2  5  2  0  0  0  0
  2  6  1  0  0  0  0
  3  4  1  0  0  0  0
  3  7  1  0  0  0  0
  3  8  1  0  0  0  0
  4 29  1  0  0  0  0
  6  9  1  0  0  0  0
  6 12  1  0  0  0  0
  8 10  1  0  0  0  0
  8 11  2  0  0  0  0
  9 13  1  0  0  0  0
  9 14  1  0  0  0  0
  9 15  1  0  0  0  0
 10 16  1  0  0  0  0
 10 17  1  0  0  0  0
 10 18  1  0  0  0  0
 19 20  1  0  0  0  0
 20 21  1  0  0  0  0
 20 22  1  0  0  0  0
 20 23  1  0  0  0  0
 23 24  4  0  0  0  0
 23 28  4  0  0  0  0
 24 25  4  0  0  0  0
 24 29  1  0  0  0  0
 25 26  4  0  0  0  0
 25 30  1  0  0  0  0
 26 27  4  0  0  0  0
 26 31  1  0  0  0  0
 27 28  4  0  0  0  0
 27 32  1  0  0  0  0
 28 33  1  0  0  0  0
 29 34  1  0  0  0  0
 29 35  1  0  0  0  0
M  END
> <BCLConfClusterSize>
1

> <ConfClashScore>
0.00186632 

> <ConfOneFourInteractionScore>
-0.961161 

> <ConfScore>
0.778579 

> <ConfScorePBest>
0.00279274 

> <ConfTolerance>
0.962076 

> <RosettaParamsInstructions>
M  ROOT 3
M  POLY_N_BB 3
M  POLY_CA_BB 4
M  POLY_C_BB 2
M  POLY_O_BB 5
M  POLY_IGNORE 9 10 11 12 13 14 15 16 17 18 
M  POLY_UPPER 6
M  POLY_LOWER 8
M  POLY_CHG 0
M  POLY_PROPERTIES ALPHA_AA D_AA PROTEIN AROMATIC POLYMER 
M  END

$$$$



 35 35  0  0  0  0  0  0  0  0999 V2000
    0.2921    1.6014   -0.9129 H   0  0  0  1  0  0  0  0  0  0  0  0
   -0.2813    0.9678   -2.7987 C   0  0  0  1  0  0  0  0  0  0  0  0
   -1.2697    0.3177   -0.5973 N   0  0  0  1  0  0  0  0  0  0  0  0
   -0.6438    1.4024   -1.3919 C   0  0  0  1  0  0  0  0  0  0  0  0
   -1.1450    0.7928   -3.6541 O   0  0  0  1  0  0  0  0  0  0  0  0
    1.0283    0.7919   -3.0355 N   0  0  0  1  0  0  0  0  0  0  0  0
   -1.4760    0.5055    0.3421 H   0  0  0  1  0  0  0  0  0  0  0  0
   -1.5734   -0.8960   -1.0658 C   0  0  0  1  0  0  0  0  0  0  0  0
    1.6028    0.4513   -4.3284 C   0  0  0  1  0  0  0  0  0  0  0  0
   -2.5626   -1.6787   -0.2128 C   0  0  0  1  0  0  0  0  0  0  0  0
   -1.1740   -1.3496   -2.1350 O   0  0  0  1  0  0  0  0  0  0  0  0
    1.6439    0.9012   -2.2808 H   0  0  0  1  0  0  0  0  0  0  0  0
    2.3414    1.1786   -4.5939 H   0  0  0  1  0  0  0  0  0  0  0  0
    0.8311    0.4402   -5.0695 H   0  0  0  1  0  0  0  0  0  0  0  0
    2.0583   -0.5153   -4.2726 H   0  0  0  1  0  0  0  0  0  0  0  0
   -2.1371   -1.8599    0.7521 H   0  0  0  1  0  0  0  0  0  0  0  0
   -2.7812   -2.6127   -0.6870 H   0  0  0  1  0  0  0  0  0  0  0  0
   -3.4647   -1.1136   -0.1041 H   0  0  0  1  0  0  0  0  0  0  0  0
   -0.9718    2.9932   -4.1516 F   0  0  0  1  0  0  0  0  0  0  0  0
   -1.9875    3.8161   -3.8853 C   0  0  0  1  0  0  0  0  0  0  0  0
   -1.4832    4.8176   -3.1627 F   0  0  0  1  0  0  0  0  0  0  0  0
   -2.3920    4.3311   -5.0471 F   0  0  0  1  0  0  0  0  0  0  0  0
   -3.0928    3.1035   -3.1423 C   0  0  0  1  0  0  0  0  0  0  0  0
   -2.8098    2.6119   -1.8774 C   0  0  0  1  0  0  0  0  0  0  0  0
   -3.7866    1.9477   -1.1599 C   0  0  0  1  0  0  0  0  0  0  0  0
   -5.0507    1.7778   -1.7027 C   0  0  0  1  0  0  0  0  0  0  0  0
   -5.3327    2.2680   -2.9637 C   0  0  0  1  0  0  0  0  0  0  0  0
   -4.3532    2.9342   -3.6836 C   0  0  0  1  0  0  0  0  0  0  0  0
   -1.4116    2.7119   -1.3149 C   0  0  0  1  0  0  0  0  0  0  0  0
   -3.5732    1.5753   -0.2125 H   0  0  0  1  0  0  0  0  0  0  0  0
   -5.7869    1.2815   -1.1610 H   0  0  0  1  0  0  0  0  0  0  0  0
   -6.2799    2.1370   -3.3727 H   0  0  0  1  0  0  0  0  0  0  0  0
   -4.5666    3.3065   -4.6309 H   0  0  0  1  0  0  0  0  0  0  0  0
   -0.8746    3.4545   -1.8673 H   0  0  0  1  0  0  0  0  0  0  0  0
   -1.4776    3.0082   -0.2889 H   0  0  0  1  0  0  0  0  0  0  0  0
  1  4  1  0  0  0  0
  2  4  1  0  0  0  0
  2  5  2  0  0  0  0
  2  6  1  0  0  0  0
  3  4  1  0  0  0  0
  3  7  1  0  0  0  0
  3  8  1  0  0  0  0
  4 29  1  0  0  0  0
  6  9  1  0  0  0  0
  6 12  1  0  0  0  0
  8 10  1  0  0  0  0
  8 11  2  0  0  0  0
  9 13  1  0  0  0  0
  9 14  1  0  0  0  0
  9 15  1  0  0  0  0
 10 16  1  0  0  0  0
 10 17  1  0  0  0  0
 10 18  1  0  0  0  0
 19 20  1  0  0  0  0
 20 21  1  0  0  0  0
 20 22  1  0  0  0  0
 20 23  1  0  0  0  0
 23 24  4  0  0  0  0
 23 28  4  0  0  0  0
 24 25  4  0  0  0  0
 24 29  1  0  0  0  0
 25 26  4  0  0  0  0
 25 30  1  0  0  0  0
 26 27  4  0  0  0  0
 26 31  1  0  0  0  0
 27 28  4  0  0  0  0
 27 32  1  0  0  0  0
 28 33  1  0  0  0  0
 29 34  1  0  0  0  0
 29 35  1  0  0  0  0
M  END
> <BCLConfClusterSize>
1

> <ConfClashScore>
0 

> <ConfOneFourInteractionScore>
-0.970872 

> <ConfScore>
0.785372 

> <ConfScorePBest>
0.00276426 

> <ConfTolerance>
0.610945 

> <RosettaParamsInstructions>
M  ROOT 3
M  POLY_N_BB 3
M  POLY_CA_BB 4
M  POLY_C_BB 2
M  POLY_O_BB 5
M  POLY_IGNORE 9 10 11 12 13 14 15 16 17 18 
M  POLY_UPPER 6
M  POLY_LOWER 8
M  POLY_CHG 0
M  POLY_PROPERTIES ALPHA_AA D_AA PROTEIN AROMATIC POLYMER 
M  END

$$$$



 35 35  0  0  0  0  0  0  0  0999 V2000
   -2.7786    4.4788   -0.0729 H   0  0  0  1  0  0  0  0  0  0  0  0
   -0.9513    5.4695   -0.5368 C   0  0  0  1  0  0  0  0  0  0  0  0
   -1.2748    3.8034    1.2093 N   0  0  0  1  0  0  0  0  0  0  0  0
   -1.7393    4.2284   -0.1193 C   0  0  0  1  0  0  0  0  0  0  0  0
    0.2073    5.6460   -0.1624 O   0  0  0  1  0  0  0  0  0  0  0  0
   -1.6011    6.3322   -1.3233 N   0  0  0  1  0  0  0  0  0  0  0  0
   -0.3230    3.6084    1.3375 H   0  0  0  1  0  0  0  0  0  0  0  0
   -2.1051    3.6739    2.2480 C   0  0  0  1  0  0  0  0  0  0  0  0
   -0.9229    7.4224   -2.0084 C   0  0  0  1  0  0  0  0  0  0  0  0
   -1.5189    3.0042    3.4843 C   0  0  0  1  0  0  0  0  0  0  0  0
   -3.2618    4.0610    2.2261 O   0  0  0  1  0  0  0  0  0  0  0  0
   -2.5681    6.2271   -1.4431 H   0  0  0  1  0  0  0  0  0  0  0  0
   -0.4981    7.0611   -2.9216 H   0  0  0  1  0  0  0  0  0  0  0  0
   -0.1459    7.8084   -1.3821 H   0  0  0  1  0  0  0  0  0  0  0  0
   -1.6260    8.1993   -2.2252 H   0  0  0  1  0  0  0  0  0  0  0  0
   -1.5612    1.9413    3.3687 H   0  0  0  1  0  0  0  0  0  0  0  0
   -2.0832    3.2917    4.3467 H   0  0  0  1  0  0  0  0  0  0  0  0
   -0.5005    3.3093    3.6058 H   0  0  0  1  0  0  0  0  0  0  0  0
   -2.4030    4.1345   -5.1205 F   0  0  0  1  0  0  0  0  0  0  0  0
   -1.9881    3.8056   -3.8959 C   0  0  0  1  0  0  0  0  0  0  0  0
   -0.9130    3.0323   -4.0561 F   0  0  0  1  0  0  0  0  0  0  0  0
   -1.5825    4.9290   -3.3026 F   0  0  0  1  0  0  0  0  0  0  0  0
   -3.0701    3.0903   -3.1220 C   0  0  0  1  0  0  0  0  0  0  0  0
   -2.8605    2.7425   -1.7966 C   0  0  0  1  0  0  0  0  0  0  0  0
   -3.8490    2.0833   -1.0906 C   0  0  0  1  0  0  0  0  0  0  0  0
   -5.0520    1.7745   -1.7062 C   0  0  0  1  0  0  0  0  0  0  0  0
   -5.2609    2.1213   -3.0276 C   0  0  0  1  0  0  0  0  0  0  0  0
   -4.2696    2.7825   -3.7359 C   0  0  0  1  0  0  0  0  0  0  0  0
   -1.5521    3.0838   -1.1233 C   0  0  0  1  0  0  0  0  0  0  0  0
   -3.6903    1.8188   -0.0974 H   0  0  0  1  0  0  0  0  0  0  0  0
   -5.7974    1.2820   -1.1737 H   0  0  0  1  0  0  0  0  0  0  0  0
   -6.1619    1.8861   -3.4907 H   0  0  0  1  0  0  0  0  0  0  0  0
   -4.4283    3.0469   -4.7291 H   0  0  0  1  0  0  0  0  0  0  0  0
   -1.1876    2.2204   -0.6071 H   0  0  0  1  0  0  0  0  0  0  0  0
   -0.8424    3.3817   -1.8666 H   0  0  0  1  0  0  0  0  0  0  0  0
  1  4  1  0  0  0  0
  2  4  1  0  0  0  0
  2  5  2  0  0  0  0
  2  6  1  0  0  0  0
  3  4  1  0  0  0  0
  3  7  1  0  0  0  0
  3  8  1  0  0  0  0
  4 29  1  0  0  0  0
  6  9  1  0  0  0  0
  6 12  1  0  0  0  0
  8 10  1  0  0  0  0
  8 11  2  0  0  0  0
  9 13  1  0  0  0  0
  9 14  1  0  0  0  0
  9 15  1  0  0  0  0
 10 16  1  0  0  0  0
 10 17  1  0  0  0  0
 10 18  1  0  0  0  0
 19 20  1  0  0  0  0
 20 21  1  0  0  0  0
 20 22  1  0  0  0  0
 20 23  1  0  0  0  0
 23 24  4  0  0  0  0
 23 28  4  0  0  0  0
 24 25  4  0  0  0  0
 24 29  1  0  0  0  0
 25 26  4  0  0  0  0
 25 30  1  0  0  0  0
 26 27  4  0  0  0  0
 26 31  1  0  0  0  0
 27 28  4  0  0  0  0
 27 32  1  0  0  0  0
 28 33  1  0  0  0  0
 29 34  1  0  0  0  0
 29 35  1  0  0  0  0
M  END
> <BCLConfClusterSize>
1

> <ConfClashScore>
0 

> <ConfOneFourInteractionScore>
-0.979018 

> <ConfScore>
0.790502 

> <ConfScorePBest>
0.00273578 

> <ConfTolerance>
1.20848 

> <RosettaParamsInstructions>
M  ROOT 3
M  POLY_N_BB 3
M  POLY_CA_BB 4
M  POLY_C_BB 2
M  POLY_O_BB 5
M  POLY_IGNORE 9 10 11 12 13 14 15 16 17 18 
M  POLY_UPPER 6
M  POLY_LOWER 8
M  POLY_CHG 0
M  POLY_PROPERTIES ALPHA_AA D_AA PROTEIN AROMATIC POLYMER 
M  END

$$$$



 35 35  0  0  0  0  0  0  0  0999 V2000
   -1.0740    5.0978   -1.2027 H   0  0  0  1  0  0  0  0  0  0  0  0
   -0.2155    4.4040    0.5705 C   0  0  0  1  0  0  0  0  0  0  0  0
   -2.6114    4.8831    0.1320 N   0  0  0  1  0  0  0  0  0  0  0  0
   -1.3527    4.4093   -0.4325 C   0  0  0  1  0  0  0  0  0  0  0  0
   -0.3212    4.9683    1.6586 O   0  0  0  1  0  0  0  0  0  0  0  0
    0.8887    3.7537    0.1925 N   0  0  0  1  0  0  0  0  0  0  0  0
   -2.6956    4.8911    1.1083 H   0  0  0  1  0  0  0  0  0  0  0  0
   -3.6978    5.3232   -0.6087 C   0  0  0  1  0  0  0  0  0  0  0  0
    2.1342    3.7198    0.9444 C   0  0  0  1  0  0  0  0  0  0  0  0
   -4.8655    5.9439    0.1054 C   0  0  0  1  0  0  0  0  0  0  0  0
   -3.6692    5.1910   -1.8212 O   0  0  0  1  0  0  0  0  0  0  0  0
    0.8576    3.2625   -0.6550 H   0  0  0  1  0  0  0  0  0  0  0  0
    1.9350    3.4202    1.9521 H   0  0  0  1  0  0  0  0  0  0  0  0
    2.5780    4.6934    0.9432 H   0  0  0  1  0  0  0  0  0  0  0  0
    2.8055    3.0208    0.4909 H   0  0  0  1  0  0  0  0  0  0  0  0
   -5.7469    5.3674   -0.0831 H   0  0  0  1  0  0  0  0  0  0  0  0
   -5.0103    6.9429   -0.2497 H   0  0  0  1  0  0  0  0  0  0  0  0
   -4.6705    5.9635    1.1573 H   0  0  0  1  0  0  0  0  0  0  0  0
   -2.4261    4.2689   -5.0712 F   0  0  0  1  0  0  0  0  0  0  0  0
   -1.9936    3.8079   -3.8963 C   0  0  0  1  0  0  0  0  0  0  0  0
   -0.9519    3.0196   -4.1658 F   0  0  0  1  0  0  0  0  0  0  0  0
   -1.5054    4.8607   -3.2391 F   0  0  0  1  0  0  0  0  0  0  0  0
   -3.0753    3.0929   -3.1216 C   0  0  0  1  0  0  0  0  0  0  0  0
   -2.8649    2.7451   -1.7964 C   0  0  0  1  0  0  0  0  0  0  0  0
   -3.8531    2.0861   -1.0897 C   0  0  0  1  0  0  0  0  0  0  0  0
   -5.0566    1.7777   -1.7045 C   0  0  0  1  0  0  0  0  0  0  0  0
   -5.2663    2.1246   -3.0258 C   0  0  0  1  0  0  0  0  0  0  0  0
   -4.2753    2.7855   -3.7347 C   0  0  0  1  0  0  0  0  0  0  0  0
   -1.5124    2.9977   -1.1389 C   0  0  0  1  0  0  0  0  0  0  0  0
   -3.6938    1.8216   -0.0966 H   0  0  0  1  0  0  0  0  0  0  0  0
   -5.8017    1.2854   -1.1715 H   0  0  0  1  0  0  0  0  0  0  0  0
   -6.1677    1.8896   -3.4883 H   0  0  0  1  0  0  0  0  0  0  0  0
   -4.4347    3.0500   -4.7278 H   0  0  0  1  0  0  0  0  0  0  0  0
   -1.3579    2.2394   -0.4000 H   0  0  0  1  0  0  0  0  0  0  0  0
   -0.7585    2.9194   -1.8942 H   0  0  0  1  0  0  0  0  0  0  0  0
  1  4  1  0  0  0  0
  2  4  1  0  0  0  0
  2  5  2  0  0  0  0
  2  6  1  0  0  0  0
  3  4  1  0  0  0  0
  3  7  1  0  0  0  0
  3  8  1  0  0  0  0
  4 29  1  0  0  0  0
  6  9  1  0  0  0  0
  6 12  1  0  0  0  0
  8 10  1  0  0  0  0
  8 11  2  0  0  0  0
  9 13  1  0  0  0  0
  9 14  1  0  0  0  0
  9 15  1  0  0  0  0
 10 16  1  0  0  0  0
 10 17  1  0  0  0  0
 10 18  1  0  0  0  0
 19 20  1  0  0  0  0
 20 21  1  0  0  0  0
 20 22  1  0  0  0  0
 20 23  1  0  0  0  0
 23 24  4  0  0  0  0
 23 28  4  0  0  0  0
 24 25  4  0  0  0  0
 24 29  1  0  0  0  0
 25 26  4  0  0  0  0
 25 30  1  0  0  0  0
 26 27  4  0  0  0  0
 26 31  1  0  0  0  0
 27 28  4  0  0  0  0
 27 32  1  0  0  0  0
 28 33  1  0  0  0  0
 29 34  1  0  0  0  0
 29 35  1  0  0  0  0
M  END
> <BCLConfClusterSize>
1

> <ConfClashScore>
0.000890429 

> <ConfOneFourInteractionScore>
-0.952501 

> <ConfScore>
0.795762 

> <ConfScorePBest>
0.0027073 

> <ConfTolerance>
1.27246 

> <RosettaParamsInstructions>
M  ROOT 3
M  POLY_N_BB 3
M  POLY_CA_BB 4
M  POLY_C_BB 2
M  POLY_O_BB 5
M  POLY_IGNORE 9 10 11 12 13 14 15 16 17 18 
M  POLY_UPPER 6
M  POLY_LOWER 8
M  POLY_CHG 0
M  POLY_PROPERTIES ALPHA_AA D_AA PROTEIN AROMATIC POLYMER 
M  END

$$$$



 35 35  0  0  0  0  0  0  0  0999 V2000
   -1.6734    2.6105    0.7023 H   0  0  0  1  0  0  0  0  0  0  0  0
   -1.9933    4.4855   -0.2145 C   0  0  0  1  0  0  0  0  0  0  0  0
    0.1736    3.4070    0.2210 N   0  0  0  1  0  0  0  0  0  0  0  0
   -1.2306    3.1812   -0.0872 C   0  0  0  1  0  0  0  0  0  0  0  0
   -3.2223    4.5208   -0.1707 O   0  0  0  1  0  0  0  0  0  0  0  0
   -1.2005    5.5629   -0.3754 N   0  0  0  1  0  0  0  0  0  0  0  0
    0.8168    3.4614   -0.5163 H   0  0  0  1  0  0  0  0  0  0  0  0
    0.6207    3.5441    1.4866 C   0  0  0  1  0  0  0  0  0  0  0  0
   -1.7877    6.8745   -0.6051 C   0  0  0  1  0  0  0  0  0  0  0  0
   -0.4035    3.5842    2.6040 C   0  0  0  1  0  0  0  0  0  0  0  0
    1.8234    3.6342    1.7294 O   0  0  0  1  0  0  0  0  0  0  0  0
   -0.2263    5.4631   -0.3377 H   0  0  0  1  0  0  0  0  0  0  0  0
   -2.7347    6.9334   -0.1105 H   0  0  0  1  0  0  0  0  0  0  0  0
   -1.9242    7.0248   -1.6556 H   0  0  0  1  0  0  0  0  0  0  0  0
   -1.1358    7.6296   -0.2180 H   0  0  0  1  0  0  0  0  0  0  0  0
   -0.2416    4.4540    3.2059 H   0  0  0  1  0  0  0  0  0  0  0  0
   -0.3043    2.7080    3.2100 H   0  0  0  1  0  0  0  0  0  0  0  0
   -1.3873    3.6190    2.1847 H   0  0  0  1  0  0  0  0  0  0  0  0
   -1.3057    4.6820   -3.1802 F   0  0  0  1  0  0  0  0  0  0  0  0
   -2.0055    3.8162   -3.9156 C   0  0  0  1  0  0  0  0  0  0  0  0
   -2.5328    4.5200   -4.9186 F   0  0  0  1  0  0  0  0  0  0  0  0
   -1.1157    2.9896   -4.4665 F   0  0  0  1  0  0  0  0  0  0  0  0
   -3.0553    3.0830   -3.1062 C   0  0  0  1  0  0  0  0  0  0  0  0
   -2.7443    2.3717   -1.9578 C   0  0  0  1  0  0  0  0  0  0  0  0
   -3.7412    1.7162   -1.2599 C   0  0  0  1  0  0  0  0  0  0  0  0
   -5.0525    1.7745   -1.7053 C   0  0  0  1  0  0  0  0  0  0  0  0
   -5.3624    2.4837   -2.8504 C   0  0  0  1  0  0  0  0  0  0  0  0
   -4.3628    3.1412   -3.5504 C   0  0  0  1  0  0  0  0  0  0  0  0
   -1.3478    2.3694   -1.3823 C   0  0  0  1  0  0  0  0  0  0  0  0
   -3.5073    1.1791   -0.4006 H   0  0  0  1  0  0  0  0  0  0  0  0
   -5.8032    1.2846   -1.1779 H   0  0  0  1  0  0  0  0  0  0  0  0
   -6.3456    2.5242   -3.1868 H   0  0  0  1  0  0  0  0  0  0  0  0
   -4.5967    3.6782   -4.4098 H   0  0  0  1  0  0  0  0  0  0  0  0
   -1.0657    1.3578   -1.1769 H   0  0  0  1  0  0  0  0  0  0  0  0
   -0.6801    2.7862   -2.1071 H   0  0  0  1  0  0  0  0  0  0  0  0
  1  4  1  0  0  0  0
  2  4  1  0  0  0  0
  2  5  2  0  0  0  0
  2  6  1  0  0  0  0
  3  4  1  0  0  0  0
  3  7  1  0  0  0  0
  3  8  1  0  0  0  0
  4 29  1  0  0  0  0
  6  9  1  0  0  0  0
  6 12  1  0  0  0  0
  8 10  1  0  0  0  0
  8 11  2  0  0  0  0
  9 13  1  0  0  0  0
  9 14  1  0  0  0  0
  9 15  1  0  0  0  0
 10 16  1  0  0  0  0
 10 17  1  0  0  0  0
 10 18  1  0  0  0  0
 19 20  1  0  0  0  0
 20 21  1  0  0  0  0
 20 22  1  0  0  0  0
 20 23  1  0  0  0  0
 23 24  4  0  0  0  0
 23 28  4  0  0  0  0
 24 25  4  0  0  0  0
 24 29  1  0  0  0  0
 25 26  4  0  0  0  0
 25 30  1  0  0  0  0
 26 27  4  0  0  0  0
 26 31  1  0  0  0  0
 27 28  4  0  0  0  0
 27 32  1  0  0  0  0
 28 33  1  0  0  0  0
 29 34  1  0  0  0  0
 29 35  1  0  0  0  0
M  END
> <BCLConfClusterSize>
1

> <ConfClashScore>
0 

> <ConfOneFourInteractionScore>
-0.942345 

> <ConfScore>
0.804202 

> <ConfScorePBest>
0.00267882 

> <ConfTolerance>
1.0032 

> <RosettaParamsInstructions>
M  ROOT 3
M  POLY_N_BB 3
M  POLY_CA_BB 4
M  POLY_C_BB 2
M  POLY_O_BB 5
M  POLY_IGNORE 9 10 11 12 13 14 15 16 17 18 
M  POLY_UPPER 6
M  POLY_LOWER 8
M  POLY_CHG 0
M  POLY_PROPERTIES ALPHA_AA D_AA PROTEIN AROMATIC POLYMER 
M  END

$$$$



 35 35  0  0  0  0  0  0  0  0999 V2000
   -1.6088    0.6932   -0.7892 H   0  0  0  1  0  0  0  0  0  0  0  0
   -0.0172    1.4536    0.3556 C   0  0  0  1  0  0  0  0  0  0  0  0
    0.0207    0.8604   -2.0430 N   0  0  0  1  0  0  0  0  0  0  0  0
   -0.7961    1.3719   -0.9442 C   0  0  0  1  0  0  0  0  0  0  0  0
   -0.5706    1.8282    1.3886 O   0  0  0  1  0  0  0  0  0  0  0  0
    1.2953    1.1913    0.2983 N   0  0  0  1  0  0  0  0  0  0  0  0
   -0.1014   -0.0686   -2.3304 H   0  0  0  1  0  0  0  0  0  0  0  0
    0.9439    1.6284   -2.6802 C   0  0  0  1  0  0  0  0  0  0  0  0
    2.1059    1.2549    1.5038 C   0  0  0  1  0  0  0  0  0  0  0  0
    1.8270    0.9635   -3.7337 C   0  0  0  1  0  0  0  0  0  0  0  0
    1.0663    2.8241   -2.4177 O   0  0  0  1  0  0  0  0  0  0  0  0
    1.7099    0.9559   -0.5579 H   0  0  0  1  0  0  0  0  0  0  0  0
    1.4991    1.0257    2.3547 H   0  0  0  1  0  0  0  0  0  0  0  0
    2.5106    2.2398    1.6095 H   0  0  0  1  0  0  0  0  0  0  0  0
    2.9044    0.5462    1.4342 H   0  0  0  1  0  0  0  0  0  0  0  0
    2.4512    0.2311   -3.2659 H   0  0  0  1  0  0  0  0  0  0  0  0
    2.4386    1.7042   -4.2052 H   0  0  0  1  0  0  0  0  0  0  0  0
    1.2101    0.4893   -4.4682 H   0  0  0  1  0  0  0  0  0  0  0  0
   -0.9014    3.0566   -4.0554 F   0  0  0  1  0  0  0  0  0  0  0  0
   -1.9918    3.8069   -3.8879 C   0  0  0  1  0  0  0  0  0  0  0  0
   -1.5862    4.9238   -3.2817 F   0  0  0  1  0  0  0  0  0  0  0  0
   -2.3882    4.1675   -5.1092 F   0  0  0  1  0  0  0  0  0  0  0  0
   -3.0744    3.0901   -3.1163 C   0  0  0  1  0  0  0  0  0  0  0  0
   -2.7988    2.5577   -1.8664 C   0  0  0  1  0  0  0  0  0  0  0  0
   -3.7886    1.8973   -1.1632 C   0  0  0  1  0  0  0  0  0  0  0  0
   -5.0582    1.7719   -1.7053 C   0  0  0  1  0  0  0  0  0  0  0  0
   -5.3328    2.3027   -2.9515 C   0  0  0  1  0  0  0  0  0  0  0  0
   -4.3403    2.9651   -3.6569 C   0  0  0  1  0  0  0  0  0  0  0  0
   -1.4009    2.7278   -1.3200 C   0  0  0  1  0  0  0  0  0  0  0  0
   -3.5808    1.4944   -0.2272 H   0  0  0  1  0  0  0  0  0  0  0  0
   -5.8040    1.2784   -1.1744 H   0  0  0  1  0  0  0  0  0  0  0  0
   -6.2842    2.2051   -3.3600 H   0  0  0  1  0  0  0  0  0  0  0  0
   -4.5481    3.3680   -4.5929 H   0  0  0  1  0  0  0  0  0  0  0  0
   -0.7875    3.1914   -2.0641 H   0  0  0  1  0  0  0  0  0  0  0  0
   -1.4376    3.3490   -0.4496 H   0  0  0  1  0  0  0  0  0  0  0  0
  1  4  1  0  0  0  0
  2  4  1  0  0  0  0
  2  5  2  0  0  0  0
  2  6  1  0  0  0  0
  3  4  1  0  0  0  0
  3  7  1  0  0  0  0
  3  8  1  0  0  0  0
  4 29  1  0  0  0  0
  6  9  1  0  0  0  0
  6 12  1  0  0  0  0
  8 10  1  0  0  0  0
  8 11  2  0  0  0  0
  9 13  1  0  0  0  0
  9 14  1  0  0  0  0
  9 15  1  0  0  0  0
 10 16  1  0  0  0  0
 10 17  1  0  0  0  0
 10 18  1  0  0  0  0
 19 20  1  0  0  0  0
 20 21  1  0  0  0  0
 20 22  1  0  0  0  0
 20 23  1  0  0  0  0
 23 24  4  0  0  0  0
 23 28  4  0  0  0  0
 24 25  4  0  0  0  0
 24 29  1  0  0  0  0
 25 26  4  0  0  0  0
 25 30  1  0  0  0  0
 26 27  4  0  0  0  0
 26 31  1  0  0  0  0
 27 28  4  0  0  0  0
 27 32  1  0  0  0  0
 28 33  1  0  0  0  0
 29 34  1  0  0  0  0
 29 35  1  0  0  0  0
M  END
> <BCLConfClusterSize>
1

> <ConfClashScore>
0.00221051 

> <ConfOneFourInteractionScore>
-0.95103 

> <ConfScore>
0.805125 

> <ConfScorePBest>
0.00265034 

> <ConfTolerance>
0.716001 

> <RosettaParamsInstructions>
M  ROOT 3
M  POLY_N_BB 3
M  POLY_CA_BB 4
M  POLY_C_BB 2
M  POLY_O_BB 5
M  POLY_IGNORE 9 10 11 12 13 14 15 16 17 18 
M  POLY_UPPER 6
M  POLY_LOWER 8
M  POLY_CHG 0
M  POLY_PROPERTIES ALPHA_AA D_AA PROTEIN AROMATIC POLYMER 
M  END

$$$$



 35 35  0  0  0  0  0  0  0  0999 V2000
   -0.6695    4.3436    0.2679 H   0  0  0  1  0  0  0  0  0  0  0  0
   -2.0790    3.2402    1.3623 C   0  0  0  1  0  0  0  0  0  0  0  0
   -2.5114    5.0969   -0.2449 N   0  0  0  1  0  0  0  0  0  0  0  0
   -1.6524    3.9604    0.0895 C   0  0  0  1  0  0  0  0  0  0  0  0
   -2.4193    3.8651    2.3660 O   0  0  0  1  0  0  0  0  0  0  0  0
   -2.0568    1.9054    1.3091 N   0  0  0  1  0  0  0  0  0  0  0  0
   -2.1826    5.7677   -0.8792 H   0  0  0  1  0  0  0  0  0  0  0  0
   -3.7336    5.2525    0.2865 C   0  0  0  1  0  0  0  0  0  0  0  0
   -2.4376    1.0758    2.4426 C   0  0  0  1  0  0  0  0  0  0  0  0
   -4.5457    6.3547   -0.3652 C   0  0  0  1  0  0  0  0  0  0  0  0
   -4.1833    4.5833    1.2130 O   0  0  0  1  0  0  0  0  0  0  0  0
   -1.7742    1.4698    0.4780 H   0  0  0  1  0  0  0  0  0  0  0  0
   -1.7751    0.2384    2.5108 H   0  0  0  1  0  0  0  0  0  0  0  0
   -3.4402    0.7271    2.3081 H   0  0  0  1  0  0  0  0  0  0  0  0
   -2.3775    1.6520    3.3421 H   0  0  0  1  0  0  0  0  0  0  0  0
   -3.9604    6.8277   -1.1258 H   0  0  0  1  0  0  0  0  0  0  0  0
   -4.8220    7.0781    0.3733 H   0  0  0  1  0  0  0  0  0  0  0  0
   -5.4279    5.9363   -0.8028 H   0  0  0  1  0  0  0  0  0  0  0  0
   -2.3112    4.0129   -5.1752 F   0  0  0  1  0  0  0  0  0  0  0  0
   -1.9934    3.8055   -3.8983 C   0  0  0  1  0  0  0  0  0  0  0  0
   -0.8088    3.2123   -3.8922 F   0  0  0  1  0  0  0  0  0  0  0  0
   -1.7781    5.0186   -3.3878 F   0  0  0  1  0  0  0  0  0  0  0  0
   -3.0516    3.0386   -3.1332 C   0  0  0  1  0  0  0  0  0  0  0  0
   -2.8565    2.7177   -1.7988 C   0  0  0  1  0  0  0  0  0  0  0  0
   -3.8606    2.0915   -1.0849 C   0  0  0  1  0  0  0  0  0  0  0  0
   -5.0647    1.7891   -1.7015 C   0  0  0  1  0  0  0  0  0  0  0  0
   -5.2591    2.1091   -3.0319 C   0  0  0  1  0  0  0  0  0  0  0  0
   -4.2522    2.7372   -3.7482 C   0  0  0  1  0  0  0  0  0  0  0  0
   -1.5469    3.0521   -1.1246 C   0  0  0  1  0  0  0  0  0  0  0  0
   -3.7128    1.8470   -0.0848 H   0  0  0  1  0  0  0  0  0  0  0  0
   -5.8217    1.3215   -1.1631 H   0  0  0  1  0  0  0  0  0  0  0  0
   -6.1610    1.8786   -3.4956 H   0  0  0  1  0  0  0  0  0  0  0  0
   -4.4000    2.9816   -4.7482 H   0  0  0  1  0  0  0  0  0  0  0  0
   -1.0928    2.1350   -0.8123 H   0  0  0  1  0  0  0  0  0  0  0  0
   -0.9190    3.5347   -1.8442 H   0  0  0  1  0  0  0  0  0  0  0  0
  1  4  1  0  0  0  0
  2  4  1  0  0  0  0
  2  5  2  0  0  0  0
  2  6  1  0  0  0  0
  3  4  1  0  0  0  0
  3  7  1  0  0  0  0
  3  8  1  0  0  0  0
  4 29  1  0  0  0  0
  6  9  1  0  0  0  0
  6 12  1  0  0  0  0
  8 10  1  0  0  0  0
  8 11  2  0  0  0  0
  9 13  1  0  0  0  0
  9 14  1  0  0  0  0
  9 15  1  0  0  0  0
 10 16  1  0  0  0  0
 10 17  1  0  0  0  0
 10 18  1  0  0  0  0
 19 20  1  0  0  0  0
 20 21  1  0  0  0  0
 20 22  1  0  0  0  0
 20 23  1  0  0  0  0
 23 24  4  0  0  0  0
 23 28  4  0  0  0  0
 24 25  4  0  0  0  0
 24 29  1  0  0  0  0
 25 26  4  0  0  0  0
 25 30  1  0  0  0  0
 26 27  4  0  0  0  0
 26 31  1  0  0  0  0
 27 28  4  0  0  0  0
 27 32  1  0  0  0  0
 28 33  1  0  0  0  0
 29 34  1  0  0  0  0
 29 35  1  0  0  0  0
M  END
> <BCLConfClusterSize>
1

> <ConfClashScore>
0.00701552 

> <ConfOneFourInteractionScore>
-0.917907 

> <ConfScore>
0.853729 

> <ConfScorePBest>
0.00262186 

> <ConfTolerance>
0.453236 

> <RosettaParamsInstructions>
M  ROOT 3
M  POLY_N_BB 3
M  POLY_CA_BB 4
M  POLY_C_BB 2
M  POLY_O_BB 5
M  POLY_IGNORE 9 10 11 12 13 14 15 16 17 18 
M  POLY_UPPER 6
M  POLY_LOWER 8
M  POLY_CHG 0
M  POLY_PROPERTIES ALPHA_AA D_AA PROTEIN AROMATIC POLYMER 
M  END

$$$$



 35 35  0  0  0  0  0  0  0  0999 V2000
    0.1110    1.2256   -0.5292 H   0  0  0  1  0  0  0  0  0  0  0  0
   -0.0819    0.5153   -2.4882 C   0  0  0  1  0  0  0  0  0  0  0  0
   -1.6063    0.0783   -0.5059 N   0  0  0  1  0  0  0  0  0  0  0  0
   -0.7119    1.0725   -1.1957 C   0  0  0  1  0  0  0  0  0  0  0  0
    0.0971    1.2048   -3.4756 O   0  0  0  1  0  0  0  0  0  0  0  0
    0.2840   -0.7748   -2.5316 N   0  0  0  1  0  0  0  0  0  0  0  0
   -1.7551    0.1937    0.4559 H   0  0  0  1  0  0  0  0  0  0  0  0
   -2.1971   -0.9233   -1.0902 C   0  0  0  1  0  0  0  0  0  0  0  0
    1.1344   -1.2573   -3.6096 C   0  0  0  1  0  0  0  0  0  0  0  0
   -3.0193   -1.8394   -0.2537 C   0  0  0  1  0  0  0  0  0  0  0  0
   -2.1171   -1.1594   -2.2950 O   0  0  0  1  0  0  0  0  0  0  0  0
   -0.0220   -1.3936   -1.8360 H   0  0  0  1  0  0  0  0  0  0  0  0
    1.4247   -2.2677   -3.4105 H   0  0  0  1  0  0  0  0  0  0  0  0
    2.0074   -0.6424   -3.6773 H   0  0  0  1  0  0  0  0  0  0  0  0
    0.5963   -1.2165   -4.5335 H   0  0  0  1  0  0  0  0  0  0  0  0
   -3.8116   -2.2486   -0.8452 H   0  0  0  1  0  0  0  0  0  0  0  0
   -3.4334   -1.2953    0.5693 H   0  0  0  1  0  0  0  0  0  0  0  0
   -2.4041   -2.6329    0.1161 H   0  0  0  1  0  0  0  0  0  0  0  0
   -1.8795    5.0860   -3.4801 F   0  0  0  1  0  0  0  0  0  0  0  0
   -1.9925    3.8210   -3.8885 C   0  0  0  1  0  0  0  0  0  0  0  0
   -2.2636    3.9126   -5.1954 F   0  0  0  1  0  0  0  0  0  0  0  0
   -0.7972    3.2734   -3.8115 F   0  0  0  1  0  0  0  0  0  0  0  0
   -3.0580    3.0475   -3.1405 C   0  0  0  1  0  0  0  0  0  0  0  0
   -2.7535    2.4108   -1.9474 C   0  0  0  1  0  0  0  0  0  0  0  0
   -3.7496    1.7774   -1.2284 C   0  0  0  1  0  0  0  0  0  0  0  0
   -5.0539    1.7833   -1.6977 C   0  0  0  1  0  0  0  0  0  0  0  0
   -5.3574    2.4181   -2.8872 C   0  0  0  1  0  0  0  0  0  0  0  0
   -4.3585    3.0534   -3.6085 C   0  0  0  1  0  0  0  0  0  0  0  0
   -1.3674    2.4701   -1.3503 C   0  0  0  1  0  0  0  0  0  0  0  0
   -3.5205    1.2963   -0.3353 H   0  0  0  1  0  0  0  0  0  0  0  0
   -5.8041    1.3101   -1.1546 H   0  0  0  1  0  0  0  0  0  0  0  0
   -6.3352    2.4191   -3.2413 H   0  0  0  1  0  0  0  0  0  0  0  0
   -4.5877    3.5345   -4.5016 H   0  0  0  1  0  0  0  0  0  0  0  0
   -0.7482    3.0683   -1.9856 H   0  0  0  1  0  0  0  0  0  0  0  0
   -1.4320    2.9247   -0.3838 H   0  0  0  1  0  0  0  0  0  0  0  0
  1  4  1  0  0  0  0
  2  4  1  0  0  0  0
  2  5  2  0  0  0  0
  2  6  1  0  0  0  0
  3  4  1  0  0  0  0
  3  7  1  0  0  0  0
  3  8  1  0  0  0  0
  4 29  1  0  0  0  0
  6  9  1  0  0  0  0
  6 12  1  0  0  0  0
  8 10  1  0  0  0  0
  8 11  2  0  0  0  0
  9 13  1  0  0  0  0
  9 14  1  0  0  0  0
  9 15  1  0  0  0  0
 10 16  1  0  0  0  0
 10 17  1  0  0  0  0
 10 18  1  0  0  0  0
 19 20  1  0  0  0  0
 20 21  1  0  0  0  0
 20 22  1  0  0  0  0
 20 23  1  0  0  0  0
 23 24  4  0  0  0  0
 23 28  4  0  0  0  0
 24 25  4  0  0  0  0
 24 29  1  0  0  0  0
 25 26  4  0  0  0  0
 25 30  1  0  0  0  0
 26 27  4  0  0  0  0
 26 31  1  0  0  0  0
 27 28  4  0  0  0  0
 27 32  1  0  0  0  0
 28 33  1  0  0  0  0
 29 34  1  0  0  0  0
 29 35  1  0  0  0  0
M  END
> <BCLConfClusterSize>
1

> <ConfClashScore>
0.0039642 

> <ConfOneFourInteractionScore>
-0.966825 

> <ConfScore>
0.940666 

> <ConfScorePBest>
0.00259338 

> <ConfTolerance>
0.619263 

> <RosettaParamsInstructions>
M  ROOT 3
M  POLY_N_BB 3
M  POLY_CA_BB 4
M  POLY_C_BB 2
M  POLY_O_BB 5
M  POLY_IGNORE 9 10 11 12 13 14 15 16 17 18 
M  POLY_UPPER 6
M  POLY_LOWER 8
M  POLY_CHG 0
M  POLY_PROPERTIES ALPHA_AA D_AA PROTEIN AROMATIC POLYMER 
M  END

$$$$



 35 35  0  0  0  0  0  0  0  0999 V2000
    0.2750    0.9907   -1.2456 H   0  0  0  1  0  0  0  0  0  0  0  0
   -0.0295    1.2180   -3.3084 C   0  0  0  1  0  0  0  0  0  0  0  0
   -1.3918   -0.1180   -1.7436 N   0  0  0  1  0  0  0  0  0  0  0  0
   -0.5723    1.0999   -1.8900 C   0  0  0  1  0  0  0  0  0  0  0  0
    1.0887    1.6820   -3.5275 O   0  0  0  1  0  0  0  0  0  0  0  0
   -0.8405    0.7893   -4.2768 N   0  0  0  1  0  0  0  0  0  0  0  0
   -2.3217   -0.0065   -1.4552 H   0  0  0  1  0  0  0  0  0  0  0  0
   -0.9623   -1.3597   -1.9741 C   0  0  0  1  0  0  0  0  0  0  0  0
   -0.4408    0.5581   -5.6569 C   0  0  0  1  0  0  0  0  0  0  0  0
   -1.9824   -2.4604   -1.7574 C   0  0  0  1  0  0  0  0  0  0  0  0
    0.1748   -1.6127   -2.3367 O   0  0  0  1  0  0  0  0  0  0  0  0
   -1.7760    0.6171   -4.0411 H   0  0  0  1  0  0  0  0  0  0  0  0
   -0.2205   -0.4798   -5.7958 H   0  0  0  1  0  0  0  0  0  0  0  0
    0.4296    1.1398   -5.8781 H   0  0  0  1  0  0  0  0  0  0  0  0
   -1.2374    0.8441   -6.3114 H   0  0  0  1  0  0  0  0  0  0  0  0
   -1.5511   -3.2339   -1.1569 H   0  0  0  1  0  0  0  0  0  0  0  0
   -2.2761   -2.8655   -2.7032 H   0  0  0  1  0  0  0  0  0  0  0  0
   -2.8398   -2.0586   -1.2591 H   0  0  0  1  0  0  0  0  0  0  0  0
   -0.9130    4.0641   -3.1851 F   0  0  0  1  0  0  0  0  0  0  0  0
   -2.0070    3.8279   -3.9114 C   0  0  0  1  0  0  0  0  0  0  0  0
   -2.4554    5.0012   -4.3603 F   0  0  0  1  0  0  0  0  0  0  0  0
   -1.6305    3.1145   -4.9734 F   0  0  0  1  0  0  0  0  0  0  0  0
   -3.0530    3.0943   -3.1057 C   0  0  0  1  0  0  0  0  0  0  0  0
   -2.7444    2.3969   -1.9481 C   0  0  0  1  0  0  0  0  0  0  0  0
   -3.7404    1.7384   -1.2520 C   0  0  0  1  0  0  0  0  0  0  0  0
   -5.0487    1.7798   -1.7082 C   0  0  0  1  0  0  0  0  0  0  0  0
   -5.3562    2.4752   -2.8623 C   0  0  0  1  0  0  0  0  0  0  0  0
   -4.3575    3.1357   -3.5607 C   0  0  0  1  0  0  0  0  0  0  0  0
   -1.3391    2.3211   -1.3996 C   0  0  0  1  0  0  0  0  0  0  0  0
   -3.5083    1.2118   -0.3857 H   0  0  0  1  0  0  0  0  0  0  0  0
   -5.7987    1.2876   -1.1821 H   0  0  0  1  0  0  0  0  0  0  0  0
   -6.3371    2.5029   -3.2068 H   0  0  0  1  0  0  0  0  0  0  0  0
   -4.5896    3.6623   -4.4269 H   0  0  0  1  0  0  0  0  0  0  0  0
   -0.8082    3.2000   -1.7004 H   0  0  0  1  0  0  0  0  0  0  0  0
   -1.3920    2.2837   -0.3315 H   0  0  0  1  0  0  0  0  0  0  0  0
  1  4  1  0  0  0  0
  2  4  1  0  0  0  0
  2  5  2  0  0  0  0
  2  6  1  0  0  0  0
  3  4  1  0  0  0  0
  3  7  1  0  0  0  0
  3  8  1  0  0  0  0
  4 29  1  0  0  0  0
  6  9  1  0  0  0  0
  6 12  1  0  0  0  0
  8 10  1  0  0  0  0
  8 11  2  0  0  0  0
  9 13  1  0  0  0  0
  9 14  1  0  0  0  0
  9 15  1  0  0  0  0
 10 16  1  0  0  0  0
 10 17  1  0  0  0  0
 10 18  1  0  0  0  0
 19 20  1  0  0  0  0
 20 21  1  0  0  0  0
 20 22  1  0  0  0  0
 20 23  1  0  0  0  0
 23 24  4  0  0  0  0
 23 28  4  0  0  0  0
 24 25  4  0  0  0  0
 24 29  1  0  0  0  0
 25 26  4  0  0  0  0
 25 30  1  0  0  0  0
 26 27  4  0  0  0  0
 26 31  1  0  0  0  0
 27 28  4  0  0  0  0
 27 32  1  0  0  0  0
 28 33  1  0  0  0  0
 29 34  1  0  0  0  0
 29 35  1  0  0  0  0
M  END
> <BCLConfClusterSize>
1

> <ConfClashScore>
0.00717048 

> <ConfOneFourInteractionScore>
-0.931937 

> <ConfScore>
1.02896 

> <ConfScorePBest>
0.0025649 

> <ConfTolerance>
0.534073 

> <RosettaParamsInstructions>
M  ROOT 3
M  POLY_N_BB 3
M  POLY_CA_BB 4
M  POLY_C_BB 2
M  POLY_O_BB 5
M  POLY_IGNORE 9 10 11 12 13 14 15 16 17 18 
M  POLY_UPPER 6
M  POLY_LOWER 8
M  POLY_CHG 0
M  POLY_PROPERTIES ALPHA_AA D_AA PROTEIN AROMATIC POLYMER 
M  END

$$$$



 35 35  0  0  0  0  0  0  0  0999 V2000
   -0.3454    1.1244   -0.3152 H   0  0  0  1  0  0  0  0  0  0  0  0
    0.6714    1.6032   -2.0920 C   0  0  0  1  0  0  0  0  0  0  0  0
   -1.4246    0.3225   -1.8732 N   0  0  0  1  0  0  0  0  0  0  0  0
   -0.6151    1.3952   -1.3146 C   0  0  0  1  0  0  0  0  0  0  0  0
    1.6878    2.0196   -1.5426 O   0  0  0  1  0  0  0  0  0  0  0  0
    0.6172    1.3026   -3.4062 N   0  0  0  1  0  0  0  0  0  0  0  0
   -2.3372    0.5234   -2.1686 H   0  0  0  1  0  0  0  0  0  0  0  0
   -0.9496   -0.9737   -2.0021 C   0  0  0  1  0  0  0  0  0  0  0  0
    1.7619    1.5688   -4.2644 C   0  0  0  1  0  0  0  0  0  0  0  0
   -1.8769   -2.0450   -2.5035 C   0  0  0  1  0  0  0  0  0  0  0  0
    0.2085   -1.2018   -1.7034 O   0  0  0  1  0  0  0  0  0  0  0  0
   -0.1948    0.9042   -3.7836 H   0  0  0  1  0  0  0  0  0  0  0  0
    2.0061    2.6097   -4.2216 H   0  0  0  1  0  0  0  0  0  0  0  0
    1.5220    1.3002   -5.2720 H   0  0  0  1  0  0  0  0  0  0  0  0
    2.5993    0.9923   -3.9308 H   0  0  0  1  0  0  0  0  0  0  0  0
   -1.3140   -2.7865   -3.0310 H   0  0  0  1  0  0  0  0  0  0  0  0
   -2.5999   -1.6110   -3.1621 H   0  0  0  1  0  0  0  0  0  0  0  0
   -2.3769   -2.5003   -1.6743 H   0  0  0  1  0  0  0  0  0  0  0  0
   -0.9163    3.0517   -4.0990 F   0  0  0  1  0  0  0  0  0  0  0  0
   -1.9946    3.8119   -3.9005 C   0  0  0  1  0  0  0  0  0  0  0  0
   -1.5657    4.9126   -3.2809 F   0  0  0  1  0  0  0  0  0  0  0  0
   -2.4057    4.1993   -5.1086 F   0  0  0  1  0  0  0  0  0  0  0  0
   -3.0737    3.0943   -3.1246 C   0  0  0  1  0  0  0  0  0  0  0  0
   -2.7948    2.5687   -1.8726 C   0  0  0  1  0  0  0  0  0  0  0  0
   -3.7813    1.9075   -1.1655 C   0  0  0  1  0  0  0  0  0  0  0  0
   -5.0508    1.7745   -1.7059 C   0  0  0  1  0  0  0  0  0  0  0  0
   -5.3287    2.2986   -2.9542 C   0  0  0  1  0  0  0  0  0  0  0  0
   -4.3395    2.9618   -3.6636 C   0  0  0  1  0  0  0  0  0  0  0  0
   -1.4328    2.6874   -1.2303 C   0  0  0  1  0  0  0  0  0  0  0  0
   -3.5710    1.5097   -0.2279 H   0  0  0  1  0  0  0  0  0  0  0  0
   -5.7941    1.2805   -1.1720 H   0  0  0  1  0  0  0  0  0  0  0  0
   -6.2800    2.1953   -3.3614 H   0  0  0  1  0  0  0  0  0  0  0  0
   -4.5498    3.3596   -4.6012 H   0  0  0  1  0  0  0  0  0  0  0  0
   -0.8903    3.4665   -1.7238 H   0  0  0  1  0  0  0  0  0  0  0  0
   -1.5636    2.9411   -0.1991 H   0  0  0  1  0  0  0  0  0  0  0  0
  1  4  1  0  0  0  0
  2  4  1  0  0  0  0
  2  5  2  0  0  0  0
  2  6  1  0  0  0  0
  3  4  1  0  0  0  0
  3  7  1  0  0  0  0
  3  8  1  0  0  0  0
  4 29  1  0  0  0  0
  6  9  1  0  0  0  0
  6 12  1  0  0  0  0
  8 10  1  0  0  0  0
  8 11  2  0  0  0  0
  9 13  1  0  0  0  0
  9 14  1  0  0  0  0
  9 15  1  0  0  0  0
 10 16  1  0  0  0  0
 10 17  1  0  0  0  0
 10 18  1  0  0  0  0
 19 20  1  0  0  0  0
 20 21  1  0  0  0  0
 20 22  1  0  0  0  0
 20 23  1  0  0  0  0
 23 24  4  0  0  0  0
 23 28  4  0  0  0  0
 24 25  4  0  0  0  0
 24 29  1  0  0  0  0
 25 26  4  0  0  0  0
 25 30  1  0  0  0  0
 26 27  4  0  0  0  0
 26 31  1  0  0  0  0
 27 28  4  0  0  0  0
 27 32  1  0  0  0  0
 28 33  1  0  0  0  0
 29 34  1  0  0  0  0
 29 35  1  0  0  0  0
M  END
> <BCLConfClusterSize>
1

> <ConfClashScore>
0.00530316 

> <ConfOneFourInteractionScore>
-0.937067 

> <ConfScore>
1.07682 

> <ConfScorePBest>
0.00253641 

> <ConfTolerance>
0.848021 

> <RosettaParamsInstructions>
M  ROOT 3
M  POLY_N_BB 3
M  POLY_CA_BB 4
M  POLY_C_BB 2
M  POLY_O_BB 5
M  POLY_IGNORE 9 10 11 12 13 14 15 16 17 18 
M  POLY_UPPER 6
M  POLY_LOWER 8
M  POLY_CHG 0
M  POLY_PROPERTIES ALPHA_AA D_AA PROTEIN AROMATIC POLYMER 
M  END

$$$$



 35 35  0  0  0  0  0  0  0  0999 V2000
   -0.0125    0.8409   -0.7950 H   0  0  0  1  0  0  0  0  0  0  0  0
    0.3270    1.2500   -2.8507 C   0  0  0  1  0  0  0  0  0  0  0  0
   -1.5540    0.0086   -1.9169 N   0  0  0  1  0  0  0  0  0  0  0  0
   -0.5963    1.0741   -1.6609 C   0  0  0  1  0  0  0  0  0  0  0  0
    0.5451    0.3178   -3.6234 O   0  0  0  1  0  0  0  0  0  0  0  0
    0.8950    2.4454   -3.0338 N   0  0  0  1  0  0  0  0  0  0  0  0
   -1.6945   -0.6761   -1.2300 H   0  0  0  1  0  0  0  0  0  0  0  0
   -2.2550   -0.0692   -3.0670 C   0  0  0  1  0  0  0  0  0  0  0  0
    1.7445    2.7352   -4.1792 C   0  0  0  1  0  0  0  0  0  0  0  0
   -3.1630   -1.2668   -3.2687 C   0  0  0  1  0  0  0  0  0  0  0  0
   -2.1621    0.8043   -3.9283 O   0  0  0  1  0  0  0  0  0  0  0  0
    0.7339    3.1516   -2.3737 H   0  0  0  1  0  0  0  0  0  0  0  0
    2.1942    3.6982   -4.0558 H   0  0  0  1  0  0  0  0  0  0  0  0
    1.1540    2.7293   -5.0715 H   0  0  0  1  0  0  0  0  0  0  0  0
    2.5100    1.9912   -4.2526 H   0  0  0  1  0  0  0  0  0  0  0  0
   -3.2911   -1.4455   -4.3158 H   0  0  0  1  0  0  0  0  0  0  0  0
   -4.1152   -1.0714   -2.8214 H   0  0  0  1  0  0  0  0  0  0  0  0
   -2.7235   -2.1284   -2.8112 H   0  0  0  1  0  0  0  0  0  0  0  0
   -1.2671    4.6233   -3.1286 F   0  0  0  1  0  0  0  0  0  0  0  0
   -1.9950    3.8127   -3.8986 C   0  0  0  1  0  0  0  0  0  0  0  0
   -2.4891    4.5725   -4.8773 F   0  0  0  1  0  0  0  0  0  0  0  0
   -1.1342    2.9732   -4.4755 F   0  0  0  1  0  0  0  0  0  0  0  0
   -3.0738    3.0933   -3.1238 C   0  0  0  1  0  0  0  0  0  0  0  0
   -2.7487    2.3823   -1.9791 C   0  0  0  1  0  0  0  0  0  0  0  0
   -3.7356    1.7199   -1.2737 C   0  0  0  1  0  0  0  0  0  0  0  0
   -5.0510    1.7708   -1.7078 C   0  0  0  1  0  0  0  0  0  0  0  0
   -5.3749    2.4796   -2.8492 C   0  0  0  1  0  0  0  0  0  0  0  0
   -4.3854    3.1441   -3.5568 C   0  0  0  1  0  0  0  0  0  0  0  0
   -1.3474    2.3878   -1.4155 C   0  0  0  1  0  0  0  0  0  0  0  0
   -3.4912    1.1832   -0.4170 H   0  0  0  1  0  0  0  0  0  0  0  0
   -5.7942    1.2756   -1.1747 H   0  0  0  1  0  0  0  0  0  0  0  0
   -6.3612    2.5145   -3.1772 H   0  0  0  1  0  0  0  0  0  0  0  0
   -4.6298    3.6808   -4.4135 H   0  0  0  1  0  0  0  0  0  0  0  0
   -0.7991    3.1843   -1.8737 H   0  0  0  1  0  0  0  0  0  0  0  0
   -1.4053    2.5550   -0.3602 H   0  0  0  1  0  0  0  0  0  0  0  0
  1  4  1  0  0  0  0
  2  4  1  0  0  0  0
  2  5  2  0  0  0  0
  2  6  1  0  0  0  0
  3  4  1  0  0  0  0
  3  7  1  0  0  0  0
  3  8  1  0  0  0  0
  4 29  1  0  0  0  0
  6  9  1  0  0  0  0
  6 12  1  0  0  0  0
  8 10  1  0  0  0  0
  8 11  2  0  0  0  0
  9 13  1  0  0  0  0
  9 14  1  0  0  0  0
  9 15  1  0  0  0  0
 10 16  1  0  0  0  0
 10 17  1  0  0  0  0
 10 18  1  0  0  0  0
 19 20  1  0  0  0  0
 20 21  1  0  0  0  0
 20 22  1  0  0  0  0
 20 23  1  0  0  0  0
 23 24  4  0  0  0  0
 23 28  4  0  0  0  0
 24 25  4  0  0  0  0
 24 29  1  0  0  0  0
 25 26  4  0  0  0  0
 25 30  1  0  0  0  0
 26 27  4  0  0  0  0
 26 31  1  0  0  0  0
 27 28  4  0  0  0  0
 27 32  1  0  0  0  0
 28 33  1  0  0  0  0
 29 34  1  0  0  0  0
 29 35  1  0  0  0  0
M  END
> <BCLConfClusterSize>
1

> <ConfClashScore>
0.00571456 

> <ConfOneFourInteractionScore>
-0.910684 

> <ConfScore>
1.1587 

> <ConfScorePBest>
0.00250793 

> <ConfTolerance>
0.951412 

> <RosettaParamsInstructions>
M  ROOT 3
M  POLY_N_BB 3
M  POLY_CA_BB 4
M  POLY_C_BB 2
M  POLY_O_BB 5
M  POLY_IGNORE 9 10 11 12 13 14 15 16 17 18 
M  POLY_UPPER 6
M  POLY_LOWER 8
M  POLY_CHG 0
M  POLY_PROPERTIES ALPHA_AA D_AA PROTEIN AROMATIC POLYMER 
M  END

$$$$



 35 35  0  0  0  0  0  0  0  0999 V2000
   -1.8278    4.0448    0.1905 H   0  0  0  1  0  0  0  0  0  0  0  0
   -1.0920    5.1384   -1.4485 C   0  0  0  1  0  0  0  0  0  0  0  0
    0.2269    3.8131    0.1139 N   0  0  0  1  0  0  0  0  0  0  0  0
   -1.0763    3.9090   -0.5590 C   0  0  0  1  0  0  0  0  0  0  0  0
   -2.1214    5.7848   -1.6242 O   0  0  0  1  0  0  0  0  0  0  0  0
    0.0799    5.4611   -2.0182 N   0  0  0  1  0  0  0  0  0  0  0  0
    0.7857    3.0183   -0.0137 H   0  0  0  1  0  0  0  0  0  0  0  0
    0.6530    4.8115    0.9025 C   0  0  0  1  0  0  0  0  0  0  0  0
    0.1759    6.4173   -3.1110 C   0  0  0  1  0  0  0  0  0  0  0  0
    2.0169    4.6150    1.5351 C   0  0  0  1  0  0  0  0  0  0  0  0
   -0.0013    5.8203    1.1091 O   0  0  0  1  0  0  0  0  0  0  0  0
    0.8994    5.0380   -1.6866 H   0  0  0  1  0  0  0  0  0  0  0  0
    0.3426    7.3971   -2.7146 H   0  0  0  1  0  0  0  0  0  0  0  0
   -0.7352    6.4100   -3.6720 H   0  0  0  1  0  0  0  0  0  0  0  0
    0.9909    6.1479   -3.7498 H   0  0  0  1  0  0  0  0  0  0  0  0
    2.6531    4.0873    0.8556 H   0  0  0  1  0  0  0  0  0  0  0  0
    1.9131    4.0501    2.4379 H   0  0  0  1  0  0  0  0  0  0  0  0
    2.4471    5.5690    1.7582 H   0  0  0  1  0  0  0  0  0  0  0  0
   -2.2043    5.1344   -3.9393 F   0  0  0  1  0  0  0  0  0  0  0  0
   -2.0054    3.8155   -3.9110 C   0  0  0  1  0  0  0  0  0  0  0  0
   -1.9738    3.4159   -5.1833 F   0  0  0  1  0  0  0  0  0  0  0  0
   -0.7719    3.6334   -3.4307 F   0  0  0  1  0  0  0  0  0  0  0  0
   -3.0573    3.0871   -3.0999 C   0  0  0  1  0  0  0  0  0  0  0  0
   -2.7806    2.5155   -1.8678 C   0  0  0  1  0  0  0  0  0  0  0  0
   -3.7773    1.8575   -1.1720 C   0  0  0  1  0  0  0  0  0  0  0  0
   -5.0547    1.7739   -1.7037 C   0  0  0  1  0  0  0  0  0  0  0  0
   -5.3304    2.3439   -2.9321 C   0  0  0  1  0  0  0  0  0  0  0  0
   -4.3310    3.0038   -3.6302 C   0  0  0  1  0  0  0  0  0  0  0  0
   -1.3904    2.6112   -1.2851 C   0  0  0  1  0  0  0  0  0  0  0  0
   -3.5688    1.4251   -0.2494 H   0  0  0  1  0  0  0  0  0  0  0  0
   -5.8055    1.2823   -1.1782 H   0  0  0  1  0  0  0  0  0  0  0  0
   -6.2878    2.2777   -3.3329 H   0  0  0  1  0  0  0  0  0  0  0  0
   -4.5396    3.4362   -4.5528 H   0  0  0  1  0  0  0  0  0  0  0  0
   -1.2674    1.8064   -0.5908 H   0  0  0  1  0  0  0  0  0  0  0  0
   -0.6888    2.5027   -2.0856 H   0  0  0  1  0  0  0  0  0  0  0  0
  1  4  1  0  0  0  0
  2  4  1  0  0  0  0
  2  5  2  0  0  0  0
  2  6  1  0  0  0  0
  3  4  1  0  0  0  0
  3  7  1  0  0  0  0
  3  8  1  0  0  0  0
  4 29  1  0  0  0  0
  6  9  1  0  0  0  0
  6 12  1  0  0  0  0
  8 10  1  0  0  0  0
  8 11  2  0  0  0  0
  9 13  1  0  0  0  0
  9 14  1  0  0  0  0
  9 15  1  0  0  0  0
 10 16  1  0  0  0  0
 10 17  1  0  0  0  0
 10 18  1  0  0  0  0
 19 20  1  0  0  0  0
 20 21  1  0  0  0  0
 20 22  1  0  0  0  0
 20 23  1  0  0  0  0
 23 24  4  0  0  0  0
 23 28  4  0  0  0  0
 24 25  4  0  0  0  0
 24 29  1  0  0  0  0
 25 26  4  0  0  0  0
 25 30  1  0  0  0  0
 26 27  4  0  0  0  0
 26 31  1  0  0  0  0
 27 28  4  0  0  0  0
 27 32  1  0  0  0  0
 28 33  1  0  0  0  0
 29 34  1  0  0  0  0
 29 35  1  0  0  0  0
M  END
> <BCLConfClusterSize>
1

> <ConfClashScore>
0.00844702 

> <ConfOneFourInteractionScore>
-0.960318 

> <ConfScore>
1.23507 

> <ConfScorePBest>
0.00247945 

> <ConfTolerance>
1.61064 

> <RosettaParamsInstructions>
M  ROOT 3
M  POLY_N_BB 3
M  POLY_CA_BB 4
M  POLY_C_BB 2
M  POLY_O_BB 5
M  POLY_IGNORE 9 10 11 12 13 14 15 16 17 18 
M  POLY_UPPER 6
M  POLY_LOWER 8
M  POLY_CHG 0
M  POLY_PROPERTIES ALPHA_AA D_AA PROTEIN AROMATIC POLYMER 
M  END

$$$$



 35 35  0  0  0  0  0  0  0  0999 V2000
    0.3583    2.4833   -0.5198 H   0  0  0  1  0  0  0  0  0  0  0  0
   -0.2795    1.1119   -1.9804 C   0  0  0  1  0  0  0  0  0  0  0  0
   -1.0362    1.1923    0.3519 N   0  0  0  1  0  0  0  0  0  0  0  0
   -0.5623    2.0170   -0.8024 C   0  0  0  1  0  0  0  0  0  0  0  0
   -1.0076    1.0098   -2.9497 O   0  0  0  1  0  0  0  0  0  0  0  0
    0.8467    0.4003   -1.9120 N   0  0  0  1  0  0  0  0  0  0  0  0
   -1.3894    1.6670    1.1331 H   0  0  0  1  0  0  0  0  0  0  0  0
   -1.0137   -0.1789    0.3994 C   0  0  0  1  0  0  0  0  0  0  0  0
    1.7511    0.3764   -0.7679 C   0  0  0  1  0  0  0  0  0  0  0  0
   -1.4897   -0.8005    1.6965 C   0  0  0  1  0  0  0  0  0  0  0  0
   -0.6281   -0.8876   -0.5572 O   0  0  0  1  0  0  0  0  0  0  0  0
    1.0843   -0.1477   -2.6889 H   0  0  0  1  0  0  0  0  0  0  0  0
    2.6803    0.8332   -1.0375 H   0  0  0  1  0  0  0  0  0  0  0  0
    1.9247   -0.6371   -0.4720 H   0  0  0  1  0  0  0  0  0  0  0  0
    1.3116    0.9156    0.0452 H   0  0  0  1  0  0  0  0  0  0  0  0
   -2.3666   -0.2902    2.0364 H   0  0  0  1  0  0  0  0  0  0  0  0
   -0.7201   -0.7172    2.4351 H   0  0  0  1  0  0  0  0  0  0  0  0
   -1.7186   -1.8330    1.5340 H   0  0  0  1  0  0  0  0  0  0  0  0
   -2.2856    3.9238   -5.1925 F   0  0  0  1  0  0  0  0  0  0  0  0
   -1.9853    3.7903   -3.8995 C   0  0  0  1  0  0  0  0  0  0  0  0
   -0.8176    3.1471   -3.8525 F   0  0  0  1  0  0  0  0  0  0  0  0
   -1.7525    5.0222   -3.4406 F   0  0  0  1  0  0  0  0  0  0  0  0
   -3.0691    3.0792   -3.1241 C   0  0  0  1  0  0  0  0  0  0  0  0
   -2.8616    2.7365   -1.7970 C   0  0  0  1  0  0  0  0  0  0  0  0
   -3.8518    2.0811   -1.0898 C   0  0  0  1  0  0  0  0  0  0  0  0
   -5.0543    1.7712   -1.7057 C   0  0  0  1  0  0  0  0  0  0  0  0
   -5.2610    2.1129   -3.0288 C   0  0  0  1  0  0  0  0  0  0  0  0
   -4.2681    2.7702   -3.7384 C   0  0  0  1  0  0  0  0  0  0  0  0
   -1.5895    3.1690   -1.1068 C   0  0  0  1  0  0  0  0  0  0  0  0
   -3.6946    1.8204   -0.0953 H   0  0  0  1  0  0  0  0  0  0  0  0
   -5.8008    1.2816   -1.1723 H   0  0  0  1  0  0  0  0  0  0  0  0
   -6.1617    1.8769   -3.4922 H   0  0  0  1  0  0  0  0  0  0  0  0
   -4.4252    3.0309   -4.7328 H   0  0  0  1  0  0  0  0  0  0  0  0
   -1.1030    3.8884   -1.7319 H   0  0  0  1  0  0  0  0  0  0  0  0
   -1.8575    3.6265   -0.1774 H   0  0  0  1  0  0  0  0  0  0  0  0
  1  4  1  0  0  0  0
  2  4  1  0  0  0  0
  2  5  2  0  0  0  0
  2  6  1  0  0  0  0
  3  4  1  0  0  0  0
  3  7  1  0  0  0  0
  3  8  1  0  0  0  0
  4 29  1  0  0  0  0
  6  9  1  0  0  0  0
  6 12  1  0  0  0  0
  8 10  1  0  0  0  0
  8 11  2  0  0  0  0
  9 13  1  0  0  0  0
  9 14  1  0  0  0  0
  9 15  1  0  0  0  0
 10 16  1  0  0  0  0
 10 17  1  0  0  0  0
 10 18  1  0  0  0  0
 19 20  1  0  0  0  0
 20 21  1  0  0  0  0
 20 22  1  0  0  0  0
 20 23  1  0  0  0  0
 23 24  4  0  0  0  0
 23 28  4  0  0  0  0
 24 25  4  0  0  0  0
 24 29  1  0  0  0  0
 25 26  4  0  0  0  0
 25 30  1  0  0  0  0
 26 27  4  0  0  0  0
 26 31  1  0  0  0  0
 27 28  4  0  0  0  0
 27 32  1  0  0  0  0
 28 33  1  0  0  0  0
 29 34  1  0  0  0  0
 29 35  1  0  0  0  0
M  END
> <BCLConfClusterSize>
1

> <ConfClashScore>
0.00486116 

> <ConfOneFourInteractionScore>
-0.970293 

> <ConfScore>
1.27131 

> <ConfScorePBest>
0.00245097 

> <ConfTolerance>
1.04087 

> <RosettaParamsInstructions>
M  ROOT 3
M  POLY_N_BB 3
M  POLY_CA_BB 4
M  POLY_C_BB 2
M  POLY_O_BB 5
M  POLY_IGNORE 9 10 11 12 13 14 15 16 17 18 
M  POLY_UPPER 6
M  POLY_LOWER 8
M  POLY_CHG 0
M  POLY_PROPERTIES ALPHA_AA D_AA PROTEIN AROMATIC POLYMER 
M  END

$$$$



 35 35  0  0  0  0  0  0  0  0999 V2000
   -0.9736    0.2649   -1.4220 H   0  0  0  1  0  0  0  0  0  0  0  0
    0.9280    1.1244   -1.4838 C   0  0  0  1  0  0  0  0  0  0  0  0
   -0.6433    0.8709   -3.3560 N   0  0  0  1  0  0  0  0  0  0  0  0
   -0.5345    1.1125   -1.9053 C   0  0  0  1  0  0  0  0  0  0  0  0
    1.2821    0.6568   -0.4152 O   0  0  0  1  0  0  0  0  0  0  0  0
    1.7827    1.6773   -2.3589 N   0  0  0  1  0  0  0  0  0  0  0  0
   -0.2677    1.5314   -3.9750 H   0  0  0  1  0  0  0  0  0  0  0  0
   -1.2361   -0.2171   -3.8559 C   0  0  0  1  0  0  0  0  0  0  0  0
    3.2262    1.5609   -2.2151 C   0  0  0  1  0  0  0  0  0  0  0  0
   -1.9878   -1.0753   -2.8571 C   0  0  0  1  0  0  0  0  0  0  0  0
   -1.1862   -0.5194   -5.0471 O   0  0  0  1  0  0  0  0  0  0  0  0
    1.4221    2.1767   -3.1211 H   0  0  0  1  0  0  0  0  0  0  0  0
    3.6785    1.5088   -3.1834 H   0  0  0  1  0  0  0  0  0  0  0  0
    3.4591    0.6734   -1.6647 H   0  0  0  1  0  0  0  0  0  0  0  0
    3.6022    2.4150   -1.6916 H   0  0  0  1  0  0  0  0  0  0  0  0
   -2.3741   -0.4567   -2.0741 H   0  0  0  1  0  0  0  0  0  0  0  0
   -1.3230   -1.8032   -2.4411 H   0  0  0  1  0  0  0  0  0  0  0  0
   -2.7968   -1.5715   -3.3512 H   0  0  0  1  0  0  0  0  0  0  0  0
   -1.0811    4.3763   -3.1001 F   0  0  0  1  0  0  0  0  0  0  0  0
   -1.9972    3.8212   -3.8955 C   0  0  0  1  0  0  0  0  0  0  0  0
   -2.4832    4.8082   -4.6497 F   0  0  0  1  0  0  0  0  0  0  0  0
   -1.3332    3.0118   -4.7217 F   0  0  0  1  0  0  0  0  0  0  0  0
   -3.0750    3.1000   -3.1212 C   0  0  0  1  0  0  0  0  0  0  0  0
   -2.7503    2.3953   -1.9725 C   0  0  0  1  0  0  0  0  0  0  0  0
   -3.7363    1.7312   -1.2675 C   0  0  0  1  0  0  0  0  0  0  0  0
   -5.0506    1.7742   -1.7059 C   0  0  0  1  0  0  0  0  0  0  0  0
   -5.3742    2.4769   -2.8512 C   0  0  0  1  0  0  0  0  0  0  0  0
   -4.3854    3.1430   -3.5585 C   0  0  0  1  0  0  0  0  0  0  0  0
   -1.3378    2.3173   -1.4432 C   0  0  0  1  0  0  0  0  0  0  0  0
   -3.4921    1.1991   -0.4079 H   0  0  0  1  0  0  0  0  0  0  0  0
   -5.7931    1.2778   -1.1731 H   0  0  0  1  0  0  0  0  0  0  0  0
   -6.3596    2.5059   -3.1824 H   0  0  0  1  0  0  0  0  0  0  0  0
   -4.6297    3.6751   -4.4180 H   0  0  0  1  0  0  0  0  0  0  0  0
   -0.8190    3.1994   -1.7557 H   0  0  0  1  0  0  0  0  0  0  0  0
   -1.3866    2.2913   -0.3747 H   0  0  0  1  0  0  0  0  0  0  0  0
  1  4  1  0  0  0  0
  2  4  1  0  0  0  0
  2  5  2  0  0  0  0
  2  6  1  0  0  0  0
  3  4  1  0  0  0  0
  3  7  1  0  0  0  0
  3  8  1  0  0  0  0
  4 29  1  0  0  0  0
  6  9  1  0  0  0  0
  6 12  1  0  0  0  0
  8 10  1  0  0  0  0
  8 11  2  0  0  0  0
  9 13  1  0  0  0  0
  9 14  1  0  0  0  0
  9 15  1  0  0  0  0
 10 16  1  0  0  0  0
 10 17  1  0  0  0  0
 10 18  1  0  0  0  0
 19 20  1  0  0  0  0
 20 21  1  0  0  0  0
 20 22  1  0  0  0  0
 20 23  1  0  0  0  0
 23 24  4  0  0  0  0
 23 28  4  0  0  0  0
 24 25  4  0  0  0  0
 24 29  1  0  0  0  0
 25 26  4  0  0  0  0
 25 30  1  0  0  0  0
 26 27  4  0  0  0  0
 26 31  1  0  0  0  0
 27 28  4  0  0  0  0
 27 32  1  0  0  0  0
 28 33  1  0  0  0  0
 29 34  1  0  0  0  0
 29 35  1  0  0  0  0
M  END
> <BCLConfClusterSize>
1

> <ConfClashScore>
0.00611846 

> <ConfOneFourInteractionScore>
-0.946346 

> <ConfScore>
1.28459 

> <ConfScorePBest>
0.00242249 

> <ConfTolerance>
1.41515 

> <RosettaParamsInstructions>
M  ROOT 3
M  POLY_N_BB 3
M  POLY_CA_BB 4
M  POLY_C_BB 2
M  POLY_O_BB 5
M  POLY_IGNORE 9 10 11 12 13 14 15 16 17 18 
M  POLY_UPPER 6
M  POLY_LOWER 8
M  POLY_CHG 0
M  POLY_PROPERTIES ALPHA_AA D_AA PROTEIN AROMATIC POLYMER 
M  END

$$$$



 35 35  0  0  0  0  0  0  0  0999 V2000
   -0.3098    3.4375   -0.0131 H   0  0  0  1  0  0  0  0  0  0  0  0
   -1.0712    1.7291    0.9468 C   0  0  0  1  0  0  0  0  0  0  0  0
   -2.3323    3.7253    0.2356 N   0  0  0  1  0  0  0  0  0  0  0  0
   -1.2054    2.8541   -0.0627 C   0  0  0  1  0  0  0  0  0  0  0  0
   -0.3428    1.8094    1.9190 O   0  0  0  1  0  0  0  0  0  0  0  0
   -1.7755    0.6080    0.7670 N   0  0  0  1  0  0  0  0  0  0  0  0
   -2.3848    4.5785   -0.2437 H   0  0  0  1  0  0  0  0  0  0  0  0
   -3.2992    3.4501    1.1124 C   0  0  0  1  0  0  0  0  0  0  0  0
   -1.9092   -0.4013    1.8069 C   0  0  0  1  0  0  0  0  0  0  0  0
   -4.3794    4.5047    1.2544 C   0  0  0  1  0  0  0  0  0  0  0  0
   -3.3293    2.4141    1.7713 O   0  0  0  1  0  0  0  0  0  0  0  0
   -2.2173    0.4602   -0.0952 H   0  0  0  1  0  0  0  0  0  0  0  0
   -2.8359   -0.9215    1.6826 H   0  0  0  1  0  0  0  0  0  0  0  0
   -1.8917    0.0714    2.7666 H   0  0  0  1  0  0  0  0  0  0  0  0
   -1.0982   -1.0957    1.7360 H   0  0  0  1  0  0  0  0  0  0  0  0
   -4.0878    5.2168    1.9978 H   0  0  0  1  0  0  0  0  0  0  0  0
   -5.2965    4.0382    1.5480 H   0  0  0  1  0  0  0  0  0  0  0  0
   -4.5162    5.0031    0.3175 H   0  0  0  1  0  0  0  0  0  0  0  0
   -1.3734    4.7268   -3.1240 F   0  0  0  1  0  0  0  0  0  0  0  0
   -1.9935    3.8225   -3.8841 C   0  0  0  1  0  0  0  0  0  0  0  0
   -2.5008    4.5270   -4.8968 F   0  0  0  1  0  0  0  0  0  0  0  0
   -1.0668    3.0526   -4.4163 F   0  0  0  1  0  0  0  0  0  0  0  0
   -3.0616    3.0505   -3.1382 C   0  0  0  1  0  0  0  0  0  0  0  0
   -2.7474    2.3671   -1.9738 C   0  0  0  1  0  0  0  0  0  0  0  0
   -3.7433    1.7344   -1.2539 C   0  0  0  1  0  0  0  0  0  0  0  0
   -5.0569    1.7877   -1.6933 C   0  0  0  1  0  0  0  0  0  0  0  0
   -5.3700    2.4691   -2.8543 C   0  0  0  1  0  0  0  0  0  0  0  0
   -4.3714    3.1037   -3.5764 C   0  0  0  1  0  0  0  0  0  0  0  0
   -1.3171    2.3135   -1.4912 C   0  0  0  1  0  0  0  0  0  0  0  0
   -3.5071    1.2183   -0.3825 H   0  0  0  1  0  0  0  0  0  0  0  0
   -5.8068    1.3150   -1.1494 H   0  0  0  1  0  0  0  0  0  0  0  0
   -6.3549    2.5057   -3.1861 H   0  0  0  1  0  0  0  0  0  0  0  0
   -4.6076    3.6198   -4.4479 H   0  0  0  1  0  0  0  0  0  0  0  0
   -0.9784    1.2987   -1.5098 H   0  0  0  1  0  0  0  0  0  0  0  0
   -0.7058    2.9060   -2.1394 H   0  0  0  1  0  0  0  0  0  0  0  0
  1  4  1  0  0  0  0
  2  4  1  0  0  0  0
  2  5  2  0  0  0  0
  2  6  1  0  0  0  0
  3  4  1  0  0  0  0
  3  7  1  0  0  0  0
  3  8  1  0  0  0  0
  4 29  1  0  0  0  0
  6  9  1  0  0  0  0
  6 12  1  0  0  0  0
  8 10  1  0  0  0  0
  8 11  2  0  0  0  0
  9 13  1  0  0  0  0
  9 14  1  0  0  0  0
  9 15  1  0  0  0  0
 10 16  1  0  0  0  0
 10 17  1  0  0  0  0
 10 18  1  0  0  0  0
 19 20  1  0  0  0  0
 20 21  1  0  0  0  0
 20 22  1  0  0  0  0
 20 23  1  0  0  0  0
 23 24  4  0  0  0  0
 23 28  4  0  0  0  0
 24 25  4  0  0  0  0
 24 29  1  0  0  0  0
 25 26  4  0  0  0  0
 25 30  1  0  0  0  0
 26 27  4  0  0  0  0
 26 31  1  0  0  0  0
 27 28  4  0  0  0  0
 27 32  1  0  0  0  0
 28 33  1  0  0  0  0
 29 34  1  0  0  0  0
 29 35  1  0  0  0  0
M  END
> <BCLConfClusterSize>
1

> <ConfClashScore>
0.00705649 

> <ConfOneFourInteractionScore>
-0.930742 

> <ConfScore>
1.35066 

> <ConfScorePBest>
0.00239401 

> <ConfTolerance>
0.907971 

> <RosettaParamsInstructions>
M  ROOT 3
M  POLY_N_BB 3
M  POLY_CA_BB 4
M  POLY_C_BB 2
M  POLY_O_BB 5
M  POLY_IGNORE 9 10 11 12 13 14 15 16 17 18 
M  POLY_UPPER 6
M  POLY_LOWER 8
M  POLY_CHG 0
M  POLY_PROPERTIES ALPHA_AA D_AA PROTEIN AROMATIC POLYMER 
M  END

$$$$



 35 35  0  0  0  0  0  0  0  0999 V2000
    0.0093    3.0019   -0.0100 H   0  0  0  1  0  0  0  0  0  0  0  0
   -1.9138    2.8132    0.8421 C   0  0  0  1  0  0  0  0  0  0  0  0
   -1.0631    4.6296   -0.6780 N   0  0  0  1  0  0  0  0  0  0  0  0
   -0.9948    3.2261   -0.3040 C   0  0  0  1  0  0  0  0  0  0  0  0
   -3.0267    3.2984    0.9679 O   0  0  0  1  0  0  0  0  0  0  0  0
   -1.4198    1.8988    1.6817 N   0  0  0  1  0  0  0  0  0  0  0  0
   -0.2597    5.0641   -1.0331 H   0  0  0  1  0  0  0  0  0  0  0  0
   -2.1832    5.3474   -0.5546 C   0  0  0  1  0  0  0  0  0  0  0  0
   -2.1803    1.3918    2.8141 C   0  0  0  1  0  0  0  0  0  0  0  0
   -2.0321    6.8432   -0.7520 C   0  0  0  1  0  0  0  0  0  0  0  0
   -3.2743    4.8454   -0.2979 O   0  0  0  1  0  0  0  0  0  0  0  0
   -0.5137    1.5577    1.5296 H   0  0  0  1  0  0  0  0  0  0  0  0
   -2.2582    2.1533    3.5617 H   0  0  0  1  0  0  0  0  0  0  0  0
   -1.6819    0.5387    3.2249 H   0  0  0  1  0  0  0  0  0  0  0  0
   -3.1599    1.1106    2.4883 H   0  0  0  1  0  0  0  0  0  0  0  0
   -1.6039    7.2780    0.1269 H   0  0  0  1  0  0  0  0  0  0  0  0
   -2.9931    7.2777   -0.9327 H   0  0  0  1  0  0  0  0  0  0  0  0
   -1.3928    7.0294   -1.5895 H   0  0  0  1  0  0  0  0  0  0  0  0
   -1.2046    4.5457   -3.0935 F   0  0  0  1  0  0  0  0  0  0  0  0
   -1.9940    3.8154   -3.8831 C   0  0  0  1  0  0  0  0  0  0  0  0
   -2.4881    4.6543   -4.7949 F   0  0  0  1  0  0  0  0  0  0  0  0
   -1.1916    2.9780   -4.5416 F   0  0  0  1  0  0  0  0  0  0  0  0
   -3.0756    3.0951   -3.1131 C   0  0  0  1  0  0  0  0  0  0  0  0
   -2.7557    2.3882   -1.9644 C   0  0  0  1  0  0  0  0  0  0  0  0
   -3.7451    1.7250   -1.2633 C   0  0  0  1  0  0  0  0  0  0  0  0
   -5.0580    1.7710   -1.7059 C   0  0  0  1  0  0  0  0  0  0  0  0
   -5.3767    2.4758   -2.8512 C   0  0  0  1  0  0  0  0  0  0  0  0
   -4.3845    3.1411   -3.5545 C   0  0  0  1  0  0  0  0  0  0  0  0
   -1.3112    2.3756   -1.5233 C   0  0  0  1  0  0  0  0  0  0  0  0
   -3.5046    1.1913   -0.4037 H   0  0  0  1  0  0  0  0  0  0  0  0
   -5.8030    1.2752   -1.1761 H   0  0  0  1  0  0  0  0  0  0  0  0
   -6.3610    2.5070   -3.1855 H   0  0  0  1  0  0  0  0  0  0  0  0
   -4.6251    3.6747   -4.4141 H   0  0  0  1  0  0  0  0  0  0  0  0
   -1.0434    1.3643   -1.2988 H   0  0  0  1  0  0  0  0  0  0  0  0
   -0.7144    2.7308   -2.3373 H   0  0  0  1  0  0  0  0  0  0  0  0
  1  4  1  0  0  0  0
  2  4  1  0  0  0  0
  2  5  2  0  0  0  0
  2  6  1  0  0  0  0
  3  4  1  0  0  0  0
  3  7  1  0  0  0  0
  3  8  1  0  0  0  0
  4 29  1  0  0  0  0
  6  9  1  0  0  0  0
  6 12  1  0  0  0  0
  8 10  1  0  0  0  0
  8 11  2  0  0  0  0
  9 13  1  0  0  0  0
  9 14  1  0  0  0  0
  9 15  1  0  0  0  0
 10 16  1  0  0  0  0
 10 17  1  0  0  0  0
 10 18  1  0  0  0  0
 19 20  1  0  0  0  0
 20 21  1  0  0  0  0
 20 22  1  0  0  0  0
 20 23  1  0  0  0  0
 23 24  4  0  0  0  0
 23 28  4  0  0  0  0
 24 25  4  0  0  0  0
 24 29  1  0  0  0  0
 25 26  4  0  0  0  0
 25 30  1  0  0  0  0
 26 27  4  0  0  0  0
 26 31  1  0  0  0  0
 27 28  4  0  0  0  0
 27 32  1  0  0  0  0
 28 33  1  0  0  0  0
 29 34  1  0  0  0  0
 29 35  1  0  0  0  0
M  END
> <BCLConfClusterSize>
1

> <ConfClashScore>
0.00816766 

> <ConfOneFourInteractionScore>
-0.984014 

> <ConfScore>
1.37671 

> <ConfScorePBest>
0.00236553 

> <ConfTolerance>
0.678399 

> <RosettaParamsInstructions>
M  ROOT 3
M  POLY_N_BB 3
M  POLY_CA_BB 4
M  POLY_C_BB 2
M  POLY_O_BB 5
M  POLY_IGNORE 9 10 11 12 13 14 15 16 17 18 
M  POLY_UPPER 6
M  POLY_LOWER 8
M  POLY_CHG 0
M  POLY_PROPERTIES ALPHA_AA D_AA PROTEIN AROMATIC POLYMER 
M  END

$$$$



 35 35  0  0  0  0  0  0  0  0999 V2000
    0.3456    1.1216   -1.3290 H   0  0  0  1  0  0  0  0  0  0  0  0
   -0.9149    0.2199   -2.7660 C   0  0  0  1  0  0  0  0  0  0  0  0
   -1.2733    0.3238   -0.3136 N   0  0  0  1  0  0  0  0  0  0  0  0
   -0.7083    1.0118   -1.4784 C   0  0  0  1  0  0  0  0  0  0  0  0
   -1.8527   -0.5502   -2.8921 O   0  0  0  1  0  0  0  0  0  0  0  0
   -0.0065    0.4290   -3.7311 N   0  0  0  1  0  0  0  0  0  0  0  0
   -2.1192    0.6319    0.0734 H   0  0  0  1  0  0  0  0  0  0  0  0
   -0.6373   -0.7224    0.2213 C   0  0  0  1  0  0  0  0  0  0  0  0
    0.0319   -0.2727   -5.0054 C   0  0  0  1  0  0  0  0  0  0  0  0
    0.5885   -1.2030   -0.5308 C   0  0  0  1  0  0  0  0  0  0  0  0
   -1.0077   -1.2735    1.2570 O   0  0  0  1  0  0  0  0  0  0  0  0
    0.6831    1.1053   -3.5653 H   0  0  0  1  0  0  0  0  0  0  0  0
    0.6135   -1.1652   -4.9043 H   0  0  0  1  0  0  0  0  0  0  0  0
    0.4745    0.3590   -5.7470 H   0  0  0  1  0  0  0  0  0  0  0  0
   -0.9640   -0.5280   -5.3018 H   0  0  0  1  0  0  0  0  0  0  0  0
    0.2927   -1.8972   -1.2894 H   0  0  0  1  0  0  0  0  0  0  0  0
    1.2589   -1.6839    0.1505 H   0  0  0  1  0  0  0  0  0  0  0  0
    1.0789   -0.3671   -0.9843 H   0  0  0  1  0  0  0  0  0  0  0  0
   -1.3351    4.6695   -3.0726 F   0  0  0  1  0  0  0  0  0  0  0  0
   -1.9809    3.8173   -3.8705 C   0  0  0  1  0  0  0  0  0  0  0  0
   -2.4396    4.5095   -4.9144 F   0  0  0  1  0  0  0  0  0  0  0  0
   -1.0804    2.9499   -4.3344 F   0  0  0  1  0  0  0  0  0  0  0  0
   -3.0908    3.1074   -3.1319 C   0  0  0  1  0  0  0  0  0  0  0  0
   -2.7585    2.4066   -1.9829 C   0  0  0  1  0  0  0  0  0  0  0  0
   -3.7381    1.7360   -1.2751 C   0  0  0  1  0  0  0  0  0  0  0  0
   -5.0536    1.7688   -1.7109 C   0  0  0  1  0  0  0  0  0  0  0  0
   -5.3847    2.4675   -2.8564 C   0  0  0  1  0  0  0  0  0  0  0  0
   -4.4024    3.1401   -3.5666 C   0  0  0  1  0  0  0  0  0  0  0  0
   -1.3116    2.4084   -1.5494 C   0  0  0  1  0  0  0  0  0  0  0  0
   -3.4883    1.2069   -0.4153 H   0  0  0  1  0  0  0  0  0  0  0  0
   -5.7913    1.2675   -1.1760 H   0  0  0  1  0  0  0  0  0  0  0  0
   -6.3710    2.4888   -3.1857 H   0  0  0  1  0  0  0  0  0  0  0  0
   -4.6523    3.6692   -4.4263 H   0  0  0  1  0  0  0  0  0  0  0  0
   -0.7471    2.9881   -2.2494 H   0  0  0  1  0  0  0  0  0  0  0  0
   -1.2472    2.8570   -0.5801 H   0  0  0  1  0  0  0  0  0  0  0  0
  1  4  1  0  0  0  0
  2  4  1  0  0  0  0
  2  5  2  0  0  0  0
  2  6  1  0  0  0  0
  3  4  1  0  0  0  0
  3  7  1  0  0  0  0
  3  8  1  0  0  0  0
  4 29  1  0  0  0  0
  6  9  1  0  0  0  0
  6 12  1  0  0  0  0
  8 10  1  0  0  0  0
  8 11  2  0  0  0  0
  9 13  1  0  0  0  0
  9 14  1  0  0  0  0
  9 15  1  0  0  0  0
 10 16  1  0  0  0  0
 10 17  1  0  0  0  0
 10 18  1  0  0  0  0
 19 20  1  0  0  0  0
 20 21  1  0  0  0  0
 20 22  1  0  0  0  0
 20 23  1  0  0  0  0
 23 24  4  0  0  0  0
 23 28  4  0  0  0  0
 24 25  4  0  0  0  0
 24 29  1  0  0  0  0
 25 26  4  0  0  0  0
 25 30  1  0  0  0  0
 26 27  4  0  0  0  0
 26 31  1  0  0  0  0
 27 28  4  0  0  0  0
 27 32  1  0  0  0  0
 28 33  1  0  0  0  0
 29 34  1  0  0  0  0
 29 35  1  0  0  0  0
M  END
> <BCLConfClusterSize>
1

> <ConfClashScore>
0.00606748 

> <ConfOneFourInteractionScore>
-0.982563 

> <ConfScore>
1.43386 

> <ConfScorePBest>
0.00233705 

> <ConfTolerance>
1.1333 

> <RosettaParamsInstructions>
M  ROOT 3
M  POLY_N_BB 3
M  POLY_CA_BB 4
M  POLY_C_BB 2
M  POLY_O_BB 5
M  POLY_IGNORE 9 10 11 12 13 14 15 16 17 18 
M  POLY_UPPER 6
M  POLY_LOWER 8
M  POLY_CHG 0
M  POLY_PROPERTIES ALPHA_AA D_AA PROTEIN AROMATIC POLYMER 
M  END

$$$$



 35 35  0  0  0  0  0  0  0  0999 V2000
   -0.9311    0.9971   -1.0449 H   0  0  0  1  0  0  0  0  0  0  0  0
    0.6942    2.2098   -0.3844 C   0  0  0  1  0  0  0  0  0  0  0  0
    0.0068    1.9198   -2.6623 N   0  0  0  1  0  0  0  0  0  0  0  0
   -0.5012    1.9444   -1.2953 C   0  0  0  1  0  0  0  0  0  0  0  0
    1.8443    2.0087   -0.7715 O   0  0  0  1  0  0  0  0  0  0  0  0
    0.4235    2.7490    0.8052 N   0  0  0  1  0  0  0  0  0  0  0  0
   -0.3478    1.2529   -3.2867 H   0  0  0  1  0  0  0  0  0  0  0  0
    0.9372    2.7736   -3.0922 C   0  0  0  1  0  0  0  0  0  0  0  0
    1.5056    3.0868    1.7177 C   0  0  0  1  0  0  0  0  0  0  0  0
    1.2739    2.7333   -4.5882 C   0  0  0  1  0  0  0  0  0  0  0  0
    1.4565    3.6124   -2.3746 O   0  0  0  1  0  0  0  0  0  0  0  0
   -0.5062    2.9181    1.0653 H   0  0  0  1  0  0  0  0  0  0  0  0
    1.5026    2.4058    2.5430 H   0  0  0  1  0  0  0  0  0  0  0  0
    1.3691    4.0848    2.0786 H   0  0  0  1  0  0  0  0  0  0  0  0
    2.4409    3.0182    1.2024 H   0  0  0  1  0  0  0  0  0  0  0  0
    1.0410    3.6785   -5.0323 H   0  0  0  1  0  0  0  0  0  0  0  0
    0.6992    1.9654   -5.0624 H   0  0  0  1  0  0  0  0  0  0  0  0
    2.3165    2.5280   -4.7134 H   0  0  0  1  0  0  0  0  0  0  0  0
   -2.4965    4.5010   -4.9159 F   0  0  0  1  0  0  0  0  0  0  0  0
   -1.9853    3.7999   -3.9024 C   0  0  0  1  0  0  0  0  0  0  0  0
   -1.1208    2.9367   -4.4380 F   0  0  0  1  0  0  0  0  0  0  0  0
   -1.2828    4.6489   -3.1512 F   0  0  0  1  0  0  0  0  0  0  0  0
   -3.0668    3.0858   -3.1265 C   0  0  0  1  0  0  0  0  0  0  0  0
   -2.8349    2.6883   -1.8189 C   0  0  0  1  0  0  0  0  0  0  0  0
   -3.8231    2.0302   -1.1113 C   0  0  0  1  0  0  0  0  0  0  0  0
   -5.0478    1.7724   -1.7073 C   0  0  0  1  0  0  0  0  0  0  0  0
   -5.2788    2.1688   -3.0110 C   0  0  0  1  0  0  0  0  0  0  0  0
   -4.2878    2.8288   -3.7208 C   0  0  0  1  0  0  0  0  0  0  0  0
   -1.5543    3.0412   -1.0999 C   0  0  0  1  0  0  0  0  0  0  0  0
   -3.6478    1.7283   -0.1316 H   0  0  0  1  0  0  0  0  0  0  0  0
   -5.7927    1.2807   -1.1735 H   0  0  0  1  0  0  0  0  0  0  0  0
   -6.1962    1.9718   -3.4595 H   0  0  0  1  0  0  0  0  0  0  0  0
   -4.4631    3.1306   -4.7005 H   0  0  0  1  0  0  0  0  0  0  0  0
   -1.1764    3.9636   -1.4887 H   0  0  0  1  0  0  0  0  0  0  0  0
   -1.7573    3.1505   -0.0550 H   0  0  0  1  0  0  0  0  0  0  0  0
  1  4  1  0  0  0  0
  2  4  1  0  0  0  0
  2  5  2  0  0  0  0
  2  6  1  0  0  0  0
  3  4  1  0  0  0  0
  3  7  1  0  0  0  0
  3  8  1  0  0  0  0
  4 29  1  0  0  0  0
  6  9  1  0  0  0  0
  6 12  1  0  0  0  0
  8 10  1  0  0  0  0
  8 11  2  0  0  0  0
  9 13  1  0  0  0  0
  9 14  1  0  0  0  0
  9 15  1  0  0  0  0
 10 16  1  0  0  0  0
 10 17  1  0  0  0  0
 10 18  1  0  0  0  0
 19 20  1  0  0  0  0
 20 21  1  0  0  0  0
 20 22  1  0  0  0  0
 20 23  1  0  0  0  0
 23 24  4  0  0  0  0
 23 28  4  0  0  0  0
 24 25  4  0  0  0  0
 24 29  1  0  0  0  0
 25 26  4  0  0  0  0
 25 30  1  0  0  0  0
 26 27  4  0  0  0  0
 26 31  1  0  0  0  0
 27 28  4  0  0  0  0
 27 32  1  0  0  0  0
 28 33  1  0  0  0  0
 29 34  1  0  0  0  0
 29 35  1  0  0  0  0
M  END
> <BCLConfClusterSize>
1

> <ConfClashScore>
0.0129507 

> <ConfOneFourInteractionScore>
-0.930059 

> <ConfScore>
1.45832 

> <ConfScorePBest>
0.00230857 

> <ConfTolerance>
1.50882 

> <RosettaParamsInstructions>
M  ROOT 3
M  POLY_N_BB 3
M  POLY_CA_BB 4
M  POLY_C_BB 2
M  POLY_O_BB 5
M  POLY_IGNORE 9 10 11 12 13 14 15 16 17 18 
M  POLY_UPPER 6
M  POLY_LOWER 8
M  POLY_CHG 0
M  POLY_PROPERTIES ALPHA_AA D_AA PROTEIN AROMATIC POLYMER 
M  END

$$$$



 35 35  0  0  0  0  0  0  0  0999 V2000
    0.0278    3.4534   -0.1691 H   0  0  0  1  0  0  0  0  0  0  0  0
   -1.7674    3.4017    0.9327 C   0  0  0  1  0  0  0  0  0  0  0  0
   -1.2774    4.8400   -0.9778 N   0  0  0  1  0  0  0  0  0  0  0  0
   -1.0176    3.5192   -0.3876 C   0  0  0  1  0  0  0  0  0  0  0  0
   -1.2312    2.7785    1.8451 O   0  0  0  1  0  0  0  0  0  0  0  0
   -2.9673    3.9812    1.0305 N   0  0  0  1  0  0  0  0  0  0  0  0
   -1.3106    4.9237   -1.9537 H   0  0  0  1  0  0  0  0  0  0  0  0
   -1.4701    5.9304   -0.2302 C   0  0  0  1  0  0  0  0  0  0  0  0
   -3.8007    3.8479    2.2160 C   0  0  0  1  0  0  0  0  0  0  0  0
   -1.7384    7.2131   -0.9931 C   0  0  0  1  0  0  0  0  0  0  0  0
   -1.4356    5.9142    0.9995 O   0  0  0  1  0  0  0  0  0  0  0  0
   -3.2976    4.5147    0.2777 H   0  0  0  1  0  0  0  0  0  0  0  0
   -3.4443    3.0350    2.8136 H   0  0  0  1  0  0  0  0  0  0  0  0
   -4.8116    3.6573    1.9215 H   0  0  0  1  0  0  0  0  0  0  0  0
   -3.7591    4.7533    2.7847 H   0  0  0  1  0  0  0  0  0  0  0  0
   -2.0870    6.9773   -1.9768 H   0  0  0  1  0  0  0  0  0  0  0  0
   -0.8351    7.7824   -1.0619 H   0  0  0  1  0  0  0  0  0  0  0  0
   -2.4826    7.7846   -0.4787 H   0  0  0  1  0  0  0  0  0  0  0  0
   -0.7810    3.6870   -3.3905 F   0  0  0  1  0  0  0  0  0  0  0  0
   -2.0043    3.8193   -3.9062 C   0  0  0  1  0  0  0  0  0  0  0  0
   -2.2377    5.1306   -3.9803 F   0  0  0  1  0  0  0  0  0  0  0  0
   -1.9288    3.3816   -5.1637 F   0  0  0  1  0  0  0  0  0  0  0  0
   -3.0566    3.0872   -3.0990 C   0  0  0  1  0  0  0  0  0  0  0  0
   -2.7588    2.4246   -1.9184 C   0  0  0  1  0  0  0  0  0  0  0  0
   -3.7571    1.7677   -1.2240 C   0  0  0  1  0  0  0  0  0  0  0  0
   -5.0570    1.7759   -1.7053 C   0  0  0  1  0  0  0  0  0  0  0  0
   -5.3538    2.4366   -2.8824 C   0  0  0  1  0  0  0  0  0  0  0  0
   -4.3527    3.0955   -3.5790 C   0  0  0  1  0  0  0  0  0  0  0  0
   -1.3437    2.4201   -1.3903 C   0  0  0  1  0  0  0  0  0  0  0  0
   -3.5330    1.2671   -0.3404 H   0  0  0  1  0  0  0  0  0  0  0  0
   -5.8089    1.2849   -1.1807 H   0  0  0  1  0  0  0  0  0  0  0  0
   -6.3283    2.4394   -3.2456 H   0  0  0  1  0  0  0  0  0  0  0  0
   -4.5769    3.5960   -4.4626 H   0  0  0  1  0  0  0  0  0  0  0  0
   -1.1721    1.4774   -0.9141 H   0  0  0  1  0  0  0  0  0  0  0  0
   -0.6802    2.5256   -2.2231 H   0  0  0  1  0  0  0  0  0  0  0  0
  1  4  1  0  0  0  0
  2  4  1  0  0  0  0
  2  5  2  0  0  0  0
  2  6  1  0  0  0  0
  3  4  1  0  0  0  0
  3  7  1  0  0  0  0
  3  8  1  0  0  0  0
  4 29  1  0  0  0  0
  6  9  1  0  0  0  0
  6 12  1  0  0  0  0
  8 10  1  0  0  0  0
  8 11  2  0  0  0  0
  9 13  1  0  0  0  0
  9 14  1  0  0  0  0
  9 15  1  0  0  0  0
 10 16  1  0  0  0  0
 10 17  1  0  0  0  0
 10 18  1  0  0  0  0
 19 20  1  0  0  0  0
 20 21  1  0  0  0  0
 20 22  1  0  0  0  0
 20 23  1  0  0  0  0
 23 24  4  0  0  0  0
 23 28  4  0  0  0  0
 24 25  4  0  0  0  0
 24 29  1  0  0  0  0
 25 26  4  0  0  0  0
 25 30  1  0  0  0  0
 26 27  4  0  0  0  0
 26 31  1  0  0  0  0
 27 28  4  0  0  0  0
 27 32  1  0  0  0  0
 28 33  1  0  0  0  0
 29 34  1  0  0  0  0
 29 35  1  0  0  0  0
M  END
> <BCLConfClusterSize>
1

> <ConfClashScore>
0.0126127 

> <ConfOneFourInteractionScore>
-0.943556 

> <ConfScore>
1.55432 

> <ConfScorePBest>
0.00228009 

> <ConfTolerance>
0.547934 

> <RosettaParamsInstructions>
M  ROOT 3
M  POLY_N_BB 3
M  POLY_CA_BB 4
M  POLY_C_BB 2
M  POLY_O_BB 5
M  POLY_IGNORE 9 10 11 12 13 14 15 16 17 18 
M  POLY_UPPER 6
M  POLY_LOWER 8
M  POLY_CHG 0
M  POLY_PROPERTIES ALPHA_AA D_AA PROTEIN AROMATIC POLYMER 
M  END

$$$$



 35 35  0  0  0  0  0  0  0  0999 V2000
    0.0339    3.6036   -0.2210 H   0  0  0  1  0  0  0  0  0  0  0  0
   -1.7744    3.4523    0.8831 C   0  0  0  1  0  0  0  0  0  0  0  0
   -1.3461    4.9423   -0.9975 N   0  0  0  1  0  0  0  0  0  0  0  0
   -1.0152    3.6449   -0.4272 C   0  0  0  1  0  0  0  0  0  0  0  0
   -2.2840    2.3987    1.2275 O   0  0  0  1  0  0  0  0  0  0  0  0
   -1.8625    4.5279    1.6707 N   0  0  0  1  0  0  0  0  0  0  0  0
   -0.6229    5.5034   -1.3475 H   0  0  0  1  0  0  0  0  0  0  0  0
   -2.6015    5.3951   -1.0604 C   0  0  0  1  0  0  0  0  0  0  0  0
   -2.4601    4.4738    2.9965 C   0  0  0  1  0  0  0  0  0  0  0  0
   -2.7652    6.8146   -1.5676 C   0  0  0  1  0  0  0  0  0  0  0  0
   -3.5750    4.7182   -0.7321 O   0  0  0  1  0  0  0  0  0  0  0  0
   -1.5124    5.3831    1.3443 H   0  0  0  1  0  0  0  0  0  0  0  0
   -3.5245    4.5421    2.9116 H   0  0  0  1  0  0  0  0  0  0  0  0
   -2.0964    5.2902    3.5850 H   0  0  0  1  0  0  0  0  0  0  0  0
   -2.1987    3.5495    3.4679 H   0  0  0  1  0  0  0  0  0  0  0  0
   -2.6270    7.5011   -0.7586 H   0  0  0  1  0  0  0  0  0  0  0  0
   -3.7471    6.9366   -1.9748 H   0  0  0  1  0  0  0  0  0  0  0  0
   -2.0369    7.0078   -2.3274 H   0  0  0  1  0  0  0  0  0  0  0  0
   -1.9496    5.1180   -3.6147 F   0  0  0  1  0  0  0  0  0  0  0  0
   -1.9946    3.8137   -3.8919 C   0  0  0  1  0  0  0  0  0  0  0  0
   -2.1615    3.7187   -5.2119 F   0  0  0  1  0  0  0  0  0  0  0  0
   -0.7756    3.3344   -3.6334 F   0  0  0  1  0  0  0  0  0  0  0  0
   -3.0749    3.0948   -3.1188 C   0  0  0  1  0  0  0  0  0  0  0  0
   -2.7717    2.4745   -1.9167 C   0  0  0  1  0  0  0  0  0  0  0  0
   -3.7596    1.8123   -1.2126 C   0  0  0  1  0  0  0  0  0  0  0  0
   -5.0546    1.7730   -1.7055 C   0  0  0  1  0  0  0  0  0  0  0  0
   -5.3567    2.3916   -2.9040 C   0  0  0  1  0  0  0  0  0  0  0  0
   -4.3660    3.0557   -3.6104 C   0  0  0  1  0  0  0  0  0  0  0  0
   -1.3622    2.5218   -1.3760 C   0  0  0  1  0  0  0  0  0  0  0  0
   -3.5314    1.3435   -0.3127 H   0  0  0  1  0  0  0  0  0  0  0  0
   -5.7987    1.2782   -1.1736 H   0  0  0  1  0  0  0  0  0  0  0  0
   -6.3273    2.3587   -3.2759 H   0  0  0  1  0  0  0  0  0  0  0  0
   -4.5943    3.5246   -4.5102 H   0  0  0  1  0  0  0  0  0  0  0  0
   -1.1860    1.6010   -0.8602 H   0  0  0  1  0  0  0  0  0  0  0  0
   -0.7002    2.5943   -2.2136 H   0  0  0  1  0  0  0  0  0  0  0  0
  1  4  1  0  0  0  0
  2  4  1  0  0  0  0
  2  5  2  0  0  0  0
  2  6  1  0  0  0  0
  3  4  1  0  0  0  0
  3  7  1  0  0  0  0
  3  8  1  0  0  0  0
  4 29  1  0  0  0  0
  6  9  1  0  0  0  0
  6 12  1  0  0  0  0
  8 10  1  0  0  0  0
  8 11  2  0  0  0  0
  9 13  1  0  0  0  0
  9 14  1  0  0  0  0
  9 15  1  0  0  0  0
 10 16  1  0  0  0  0
 10 17  1  0  0  0  0
 10 18  1  0  0  0  0
 19 20  1  0  0  0  0
 20 21  1  0  0  0  0
 20 22  1  0  0  0  0
 20 23  1  0  0  0  0
 23 24  4  0  0  0  0
 23 28  4  0  0  0  0
 24 25  4  0  0  0  0
 24 29  1  0  0  0  0
 25 26  4  0  0  0  0
 25 30  1  0  0  0  0
 26 27  4  0  0  0  0
 26 31  1  0  0  0  0
 27 28  4  0  0  0  0
 27 32  1  0  0  0  0
 28 33  1  0  0  0  0
 29 34  1  0  0  0  0
 29 35  1  0  0  0  0
M  END
> <BCLConfClusterSize>
1

> <ConfClashScore>
0.0119207 

> <ConfOneFourInteractionScore>
-0.947651 

> <ConfScore>
1.60975 

> <ConfScorePBest>
0.00225161 

> <ConfTolerance>
0.523688 

> <RosettaParamsInstructions>
M  ROOT 3
M  POLY_N_BB 3
M  POLY_CA_BB 4
M  POLY_C_BB 2
M  POLY_O_BB 5
M  POLY_IGNORE 9 10 11 12 13 14 15 16 17 18 
M  POLY_UPPER 6
M  POLY_LOWER 8
M  POLY_CHG 0
M  POLY_PROPERTIES ALPHA_AA D_AA PROTEIN AROMATIC POLYMER 
M  END

$$$$



 35 35  0  0  0  0  0  0  0  0999 V2000
    0.0064    3.8840   -0.8050 H   0  0  0  1  0  0  0  0  0  0  0  0
   -1.0065    3.2080    0.9145 C   0  0  0  1  0  0  0  0  0  0  0  0
   -1.9100    4.6641   -0.8697 N   0  0  0  1  0  0  0  0  0  0  0  0
   -0.9862    3.5689   -0.5595 C   0  0  0  1  0  0  0  0  0  0  0  0
   -0.3809    3.8374    1.7481 O   0  0  0  1  0  0  0  0  0  0  0  0
   -1.7385    2.1587    1.3189 N   0  0  0  1  0  0  0  0  0  0  0  0
   -2.4752    4.5945   -1.6673 H   0  0  0  1  0  0  0  0  0  0  0  0
   -2.0086    5.7584   -0.0997 C   0  0  0  1  0  0  0  0  0  0  0  0
   -1.8414    1.8422    2.7356 C   0  0  0  1  0  0  0  0  0  0  0  0
   -2.8339    6.9212   -0.6157 C   0  0  0  1  0  0  0  0  0  0  0  0
   -1.4470    5.8192    0.9932 O   0  0  0  1  0  0  0  0  0  0  0  0
   -2.2047    1.6043    0.6588 H   0  0  0  1  0  0  0  0  0  0  0  0
   -2.3218    2.6494    3.2479 H   0  0  0  1  0  0  0  0  0  0  0  0
   -0.8617    1.6959    3.1402 H   0  0  0  1  0  0  0  0  0  0  0  0
   -2.4164    0.9485    2.8602 H   0  0  0  1  0  0  0  0  0  0  0  0
   -2.7025    7.0106   -1.6738 H   0  0  0  1  0  0  0  0  0  0  0  0
   -2.5142    7.8243   -0.1392 H   0  0  0  1  0  0  0  0  0  0  0  0
   -3.8673    6.7490   -0.3981 H   0  0  0  1  0  0  0  0  0  0  0  0
   -0.8696    3.9744   -3.1925 F   0  0  0  1  0  0  0  0  0  0  0  0
   -1.9915    3.8046   -3.8942 C   0  0  0  1  0  0  0  0  0  0  0  0
   -2.3587    5.0387   -4.2431 F   0  0  0  1  0  0  0  0  0  0  0  0
   -1.6661    3.2000   -5.0181 F   0  0  0  1  0  0  0  0  0  0  0  0
   -3.0733    3.0897   -3.1195 C   0  0  0  1  0  0  0  0  0  0  0  0
   -2.7565    2.4052   -1.9564 C   0  0  0  1  0  0  0  0  0  0  0  0
   -3.7460    1.7468   -1.2510 C   0  0  0  1  0  0  0  0  0  0  0  0
   -5.0559    1.7753   -1.7034 C   0  0  0  1  0  0  0  0  0  0  0  0
   -5.3716    2.4578   -2.8630 C   0  0  0  1  0  0  0  0  0  0  0  0
   -4.3793    3.1182   -3.5708 C   0  0  0  1  0  0  0  0  0  0  0  0
   -1.3303    2.3785   -1.4596 C   0  0  0  1  0  0  0  0  0  0  0  0
   -3.5077    1.2299   -0.3805 H   0  0  0  1  0  0  0  0  0  0  0  0
   -5.8011    1.2832   -1.1704 H   0  0  0  1  0  0  0  0  0  0  0  0
   -6.3537    2.4759   -3.2047 H   0  0  0  1  0  0  0  0  0  0  0  0
   -4.6177    3.6351   -4.4412 H   0  0  0  1  0  0  0  0  0  0  0  0
   -1.1801    1.4767   -0.9037 H   0  0  0  1  0  0  0  0  0  0  0  0
   -0.6748    2.3903   -2.3052 H   0  0  0  1  0  0  0  0  0  0  0  0
  1  4  1  0  0  0  0
  2  4  1  0  0  0  0
  2  5  2  0  0  0  0
  2  6  1  0  0  0  0
  3  4  1  0  0  0  0
  3  7  1  0  0  0  0
  3  8  1  0  0  0  0
  4 29  1  0  0  0  0
  6  9  1  0  0  0  0
  6 12  1  0  0  0  0
  8 10  1  0  0  0  0
  8 11  2  0  0  0  0
  9 13  1  0  0  0  0
  9 14  1  0  0  0  0
  9 15  1  0  0  0  0
 10 16  1  0  0  0  0
 10 17  1  0  0  0  0
 10 18  1  0  0  0  0
 19 20  1  0  0  0  0
 20 21  1  0  0  0  0
 20 22  1  0  0  0  0
 20 23  1  0  0  0  0
 23 24  4  0  0  0  0
 23 28  4  0  0  0  0
 24 25  4  0  0  0  0
 24 29  1  0  0  0  0
 25 26  4  0  0  0  0
 25 30  1  0  0  0  0
 26 27  4  0  0  0  0
 26 31  1  0  0  0  0
 27 28  4  0  0  0  0
 27 32  1  0  0  0  0
 28 33  1  0  0  0  0
 29 34  1  0  0  0  0
 29 35  1  0  0  0  0
M  END
> <BCLConfClusterSize>
1

> <ConfClashScore>
0.0114917 

> <ConfOneFourInteractionScore>
-0.92929 

> <ConfScore>
1.79672 

> <ConfScorePBest>
0.00222313 

> <ConfTolerance>
1.05029 

> <RosettaParamsInstructions>
M  ROOT 3
M  POLY_N_BB 3
M  POLY_CA_BB 4
M  POLY_C_BB 2
M  POLY_O_BB 5
M  POLY_IGNORE 9 10 11 12 13 14 15 16 17 18 
M  POLY_UPPER 6
M  POLY_LOWER 8
M  POLY_CHG 0
M  POLY_PROPERTIES ALPHA_AA D_AA PROTEIN AROMATIC POLYMER 
M  END

$$$$



 35 35  0  0  0  0  0  0  0  0999 V2000
    0.2241    1.1079   -0.8979 H   0  0  0  1  0  0  0  0  0  0  0  0
   -0.5975    0.2470   -2.6175 C   0  0  0  1  0  0  0  0  0  0  0  0
   -1.5302    0.2326   -0.3168 N   0  0  0  1  0  0  0  0  0  0  0  0
   -0.7605    0.9830   -1.2978 C   0  0  0  1  0  0  0  0  0  0  0  0
    0.1148   -0.7275   -2.7691 O   0  0  0  1  0  0  0  0  0  0  0  0
   -1.2964    0.7327   -3.6474 N   0  0  0  1  0  0  0  0  0  0  0  0
   -1.6121    0.5884    0.5927 H   0  0  0  1  0  0  0  0  0  0  0  0
   -2.1341   -0.9342   -0.6154 C   0  0  0  1  0  0  0  0  0  0  0  0
   -1.3024    0.0920   -4.9540 C   0  0  0  1  0  0  0  0  0  0  0  0
   -2.9605   -1.5064    0.5291 C   0  0  0  1  0  0  0  0  0  0  0  0
   -2.0476   -1.5101   -1.6992 O   0  0  0  1  0  0  0  0  0  0  0  0
   -1.8233    1.5489   -3.5184 H   0  0  0  1  0  0  0  0  0  0  0  0
   -1.4629    0.8293   -5.7126 H   0  0  0  1  0  0  0  0  0  0  0  0
   -2.0872   -0.6344   -4.9911 H   0  0  0  1  0  0  0  0  0  0  0  0
   -0.3615   -0.3901   -5.1189 H   0  0  0  1  0  0  0  0  0  0  0  0
   -3.9360   -1.0668    0.5199 H   0  0  0  1  0  0  0  0  0  0  0  0
   -2.4799   -1.2877    1.4598 H   0  0  0  1  0  0  0  0  0  0  0  0
   -3.0461   -2.5664    0.4117 H   0  0  0  1  0  0  0  0  0  0  0  0
   -1.3743    4.7511   -3.1658 F   0  0  0  1  0  0  0  0  0  0  0  0
   -1.9869    3.8056   -3.8805 C   0  0  0  1  0  0  0  0  0  0  0  0
   -2.4704    4.4497   -4.9439 F   0  0  0  1  0  0  0  0  0  0  0  0
   -1.0564    2.9988   -4.3470 F   0  0  0  1  0  0  0  0  0  0  0  0
   -3.0715    3.0895   -3.1109 C   0  0  0  1  0  0  0  0  0  0  0  0
   -2.7568    2.3926   -1.9546 C   0  0  0  1  0  0  0  0  0  0  0  0
   -3.7489    1.7331   -1.2538 C   0  0  0  1  0  0  0  0  0  0  0  0
   -5.0593    1.7729   -1.7041 C   0  0  0  1  0  0  0  0  0  0  0  0
   -5.3728    2.4678   -2.8569 C   0  0  0  1  0  0  0  0  0  0  0  0
   -4.3780    3.1293   -3.5600 C   0  0  0  1  0  0  0  0  0  0  0  0
   -1.3147    2.3864   -1.5053 C   0  0  0  1  0  0  0  0  0  0  0  0
   -3.5122    1.2069   -0.3885 H   0  0  0  1  0  0  0  0  0  0  0  0
   -5.8064    1.2800   -1.1745 H   0  0  0  1  0  0  0  0  0  0  0  0
   -6.3553    2.4943   -3.1970 H   0  0  0  1  0  0  0  0  0  0  0  0
   -4.6147    3.6555   -4.4253 H   0  0  0  1  0  0  0  0  0  0  0  0
   -0.7242    2.8793   -2.2491 H   0  0  0  1  0  0  0  0  0  0  0  0
   -1.2437    2.9208   -0.5810 H   0  0  0  1  0  0  0  0  0  0  0  0
  1  4  1  0  0  0  0
  2  4  1  0  0  0  0
  2  5  2  0  0  0  0
  2  6  1  0  0  0  0
  3  4  1  0  0  0  0
  3  7  1  0  0  0  0
  3  8  1  0  0  0  0
  4 29  1  0  0  0  0
  6  9  1  0  0  0  0
  6 12  1  0  0  0  0
  8 10  1  0  0  0  0
  8 11  2  0  0  0  0
  9 13  1  0  0  0  0
  9 14  1  0  0  0  0
  9 15  1  0  0  0  0
 10 16  1  0  0  0  0
 10 17  1  0  0  0  0
 10 18  1  0  0  0  0
 19 20  1  0  0  0  0
 20 21  1  0  0  0  0
 20 22  1  0  0  0  0
 20 23  1  0  0  0  0
 23 24  4  0  0  0  0
 23 28  4  0  0  0  0
 24 25  4  0  0  0  0
 24 29  1  0  0  0  0
 25 26  4  0  0  0  0
 25 30  1  0  0  0  0
 26 27  4  0  0  0  0
 26 31  1  0  0  0  0
 27 28  4  0  0  0  0
 27 32  1  0  0  0  0
 28 33  1  0  0  0  0
 29 34  1  0  0  0  0
 29 35  1  0  0  0  0
M  END
> <BCLConfClusterSize>
1

> <ConfClashScore>
0.0234462 

> <ConfOneFourInteractionScore>
-0.917907 

> <ConfScore>
2.58732 

> <ConfScorePBest>
0.00219465 

> <ConfTolerance>
1.17548 

> <RosettaParamsInstructions>
M  ROOT 3
M  POLY_N_BB 3
M  POLY_CA_BB 4
M  POLY_C_BB 2
M  POLY_O_BB 5
M  POLY_IGNORE 9 10 11 12 13 14 15 16 17 18 
M  POLY_UPPER 6
M  POLY_LOWER 8
M  POLY_CHG 0
M  POLY_PROPERTIES ALPHA_AA D_AA PROTEIN AROMATIC POLYMER 
M  END

$$$$



 35 35  0  0  0  0  0  0  0  0999 V2000
   -0.3642    2.9798    0.4629 H   0  0  0  1  0  0  0  0  0  0  0  0
   -2.1093    2.0553    1.0713 C   0  0  0  1  0  0  0  0  0  0  0  0
   -1.7973    4.4380    0.3987 N   0  0  0  1  0  0  0  0  0  0  0  0
   -1.3910    3.0307    0.1665 C   0  0  0  1  0  0  0  0  0  0  0  0
   -2.3066    0.8937    0.7169 O   0  0  0  1  0  0  0  0  0  0  0  0
   -2.5242    2.4945    2.2701 N   0  0  0  1  0  0  0  0  0  0  0  0
   -1.1407    5.0651    0.7675 H   0  0  0  1  0  0  0  0  0  0  0  0
   -3.0274    4.8805    0.1227 C   0  0  0  1  0  0  0  0  0  0  0  0
   -3.0113    1.5921    3.3027 C   0  0  0  1  0  0  0  0  0  0  0  0
   -3.2894    6.3396    0.4414 C   0  0  0  1  0  0  0  0  0  0  0  0
   -3.9043    4.1648   -0.3593 O   0  0  0  1  0  0  0  0  0  0  0  0
   -2.4981    3.4563    2.4564 H   0  0  0  1  0  0  0  0  0  0  0  0
   -3.7059    2.1097    3.9308 H   0  0  0  1  0  0  0  0  0  0  0  0
   -2.1874    1.2464    3.8915 H   0  0  0  1  0  0  0  0  0  0  0  0
   -3.4986    0.7566    2.8450 H   0  0  0  1  0  0  0  0  0  0  0  0
   -3.2653    6.4837    1.5014 H   0  0  0  1  0  0  0  0  0  0  0  0
   -4.2514    6.6194    0.0656 H   0  0  0  1  0  0  0  0  0  0  0  0
   -2.5365    6.9456   -0.0178 H   0  0  0  1  0  0  0  0  0  0  0  0
   -0.8420    3.1374   -3.9070 F   0  0  0  1  0  0  0  0  0  0  0  0
   -1.9936    3.8109   -3.8931 C   0  0  0  1  0  0  0  0  0  0  0  0
   -1.7161    5.0135   -3.3872 F   0  0  0  1  0  0  0  0  0  0  0  0
   -2.3255    4.0101   -5.1709 F   0  0  0  1  0  0  0  0  0  0  0  0
   -3.0744    3.0930   -3.1197 C   0  0  0  1  0  0  0  0  0  0  0  0
   -2.7880    2.5337   -1.8841 C   0  0  0  1  0  0  0  0  0  0  0  0
   -3.7761    1.8724   -1.1794 C   0  0  0  1  0  0  0  0  0  0  0  0
   -5.0547    1.7730   -1.7057 C   0  0  0  1  0  0  0  0  0  0  0  0
   -5.3400    2.3307   -2.9376 C   0  0  0  1  0  0  0  0  0  0  0  0
   -4.3491    2.9940   -3.6446 C   0  0  0  1  0  0  0  0  0  0  0  0
   -1.3966    2.6466   -1.3073 C   0  0  0  1  0  0  0  0  0  0  0  0
   -3.5604    1.4492   -0.2542 H   0  0  0  1  0  0  0  0  0  0  0  0
   -5.7992    1.2789   -1.1735 H   0  0  0  1  0  0  0  0  0  0  0  0
   -6.2982    2.2527   -3.3343 H   0  0  0  1  0  0  0  0  0  0  0  0
   -4.5649    3.4172   -4.5698 H   0  0  0  1  0  0  0  0  0  0  0  0
   -0.9057    1.7020   -1.4150 H   0  0  0  1  0  0  0  0  0  0  0  0
   -0.8601    3.3925   -1.8557 H   0  0  0  1  0  0  0  0  0  0  0  0
  1  4  1  0  0  0  0
  2  4  1  0  0  0  0
  2  5  2  0  0  0  0
  2  6  1  0  0  0  0
  3  4  1  0  0  0  0
  3  7  1  0  0  0  0
  3  8  1  0  0  0  0
  4 29  1  0  0  0  0
  6  9  1  0  0  0  0
  6 12  1  0  0  0  0
  8 10  1  0  0  0  0
  8 11  2  0  0  0  0
  9 13  1  0  0  0  0
  9 14  1  0  0  0  0
  9 15  1  0  0  0  0
 10 16  1  0  0  0  0
 10 17  1  0  0  0  0
 10 18  1  0  0  0  0
 19 20  1  0  0  0  0
 20 21  1  0  0  0  0
 20 22  1  0  0  0  0
 20 23  1  0  0  0  0
 23 24  4  0  0  0  0
 23 28  4  0  0  0  0
 24 25  4  0  0  0  0
 24 29  1  0  0  0  0
 25 26  4  0  0  0  0
 25 30  1  0  0  0  0
 26 27  4  0  0  0  0
 26 31  1  0  0  0  0
 27 28  4  0  0  0  0
 27 32  1  0  0  0  0
 28 33  1  0  0  0  0
 29 34  1  0  0  0  0
 29 35  1  0  0  0  0
M  END
> <BCLConfClusterSize>
1

> <ConfClashScore>
0.022053 

> <ConfOneFourInteractionScore>
-0.953727 

> <ConfScore>
2.77226 

> <ConfScorePBest>
0.00216617 

> <ConfTolerance>
2.48713 

> <RosettaParamsInstructions>
M  ROOT 3
M  POLY_N_BB 3
M  POLY_CA_BB 4
M  POLY_C_BB 2
M  POLY_O_BB 5
M  POLY_IGNORE 9 10 11 12 13 14 15 16 17 18 
M  POLY_UPPER 6
M  POLY_LOWER 8
M  POLY_CHG 0
M  POLY_PROPERTIES ALPHA_AA D_AA PROTEIN AROMATIC POLYMER 
M  END

$$$$
