


 32 32  0  0  0  0  0  0  0  0999 V2000
   -3.0591    1.4514    0.8252 H   0  0  0  1  0  0  0  0  0  0  0  0
   -1.6898    0.2698    1.9337 C   0  0  0  1  0  0  0  0  0  0  0  0
   -3.2278    1.9527    2.8247 N   0  0  0  1  0  0  0  0  0  0  0  0
   -2.4186    1.5889    1.6711 C   0  0  0  1  0  0  0  0  0  0  0  0
   -1.5845   -0.5685    1.0517 O   0  0  0  1  0  0  0  0  0  0  0  0
   -1.1263    0.1723    3.1457 N   0  0  0  1  0  0  0  0  0  0  0  0
   -3.0571    2.8082    3.2713 H   0  0  0  1  0  0  0  0  0  0  0  0
   -4.2048    1.1533    3.3007 C   0  0  0  1  0  0  0  0  0  0  0  0
   -0.4206   -1.0060    3.6267 C   0  0  0  1  0  0  0  0  0  0  0  0
   -5.0045    1.6383    4.4886 C   0  0  0  1  0  0  0  0  0  0  0  0
   -4.4397    0.0632    2.7860 O   0  0  0  1  0  0  0  0  0  0  0  0
   -1.1937    0.9437    3.7464 H   0  0  0  1  0  0  0  0  0  0  0  0
   -0.1901   -1.6461    2.8009 H   0  0  0  1  0  0  0  0  0  0  0  0
   -1.0390   -1.5321    4.3236 H   0  0  0  1  0  0  0  0  0  0  0  0
    0.4861   -0.7062    4.1092 H   0  0  0  1  0  0  0  0  0  0  0  0
   -5.4695    2.5717    4.2490 H   0  0  0  1  0  0  0  0  0  0  0  0
   -4.3531    1.7695    5.3272 H   0  0  0  1  0  0  0  0  0  0  0  0
   -5.7570    0.9170    4.7302 H   0  0  0  1  0  0  0  0  0  0  0  0
   -4.4301    8.0052    0.4437 Br  0  0  0  1  0  0  0  0  0  0  0  0
   -3.4402    6.4149    0.6951 C   0  0  0  1  0  0  0  0  0  0  0  0
   -2.9395    6.1049    1.9500 C   0  0  0  1  0  0  0  0  0  0  0  0
   -2.2831    4.9061    2.1555 C   0  0  0  1  0  0  0  0  0  0  0  0
   -2.1302    4.0114    1.1079 C   0  0  0  1  0  0  0  0  0  0  0  0
   -2.6293    4.3203   -0.1435 C   0  0  0  1  0  0  0  0  0  0  0  0
   -3.2876    5.5227   -0.3494 C   0  0  0  1  0  0  0  0  0  0  0  0
   -1.4180    2.6985    1.3331 C   0  0  0  1  0  0  0  0  0  0  0  0
   -3.0578    6.7744    2.7369 H   0  0  0  1  0  0  0  0  0  0  0  0
   -1.9040    4.6754    3.0960 H   0  0  0  1  0  0  0  0  0  0  0  0
   -2.5109    3.6507   -0.9304 H   0  0  0  1  0  0  0  0  0  0  0  0
   -3.6667    5.7534   -1.2900 H   0  0  0  1  0  0  0  0  0  0  0  0
   -0.8850    2.4316    0.4445 H   0  0  0  1  0  0  0  0  0  0  0  0
   -0.7285    2.8081    2.1439 H   0  0  0  1  0  0  0  0  0  0  0  0
  1  4  1  0  0  0  0
  2  4  1  0  0  0  0
  2  5  2  0  0  0  0
  2  6  1  0  0  0  0
  3  4  1  0  0  0  0
  3  7  1  0  0  0  0
  3  8  1  0  0  0  0
  4 26  1  0  0  0  0
  6  9  1  0  0  0  0
  6 12  1  0  0  0  0
  8 10  1  0  0  0  0
  8 11  2  0  0  0  0
  9 13  1  0  0  0  0
  9 14  1  0  0  0  0
  9 15  1  0  0  0  0
 10 16  1  0  0  0  0
 10 17  1  0  0  0  0
 10 18  1  0  0  0  0
 19 20  1  0  0  0  0
 20 21  4  0  0  0  0
 20 25  4  0  0  0  0
 21 22  4  0  0  0  0
 21 27  1  0  0  0  0
 22 23  4  0  0  0  0
 22 28  1  0  0  0  0
 23 24  4  0  0  0  0
 23 26  1  0  0  0  0
 24 25  4  0  0  0  0
 24 29  1  0  0  0  0
 25 30  1  0  0  0  0
 26 31  1  0  0  0  0
 26 32  1  0  0  0  0
M  END
> <BCLConfClusterSize>
1

> <ConfClashScore>
0 

> <ConfOneFourInteractionScore>
-0.960318 

> <ConfScore>
-0.307138 

> <ConfScorePBest>
0.00783383 

> <ConfTolerance>
0.143931 

> <RosettaParamsInstructions>
M  ROOT 3
M  POLY_N_BB 3
M  POLY_CA_BB 4
M  POLY_C_BB 2
M  POLY_O_BB 5
M  POLY_IGNORE 9 10 11 12 13 14 15 16 17 18 
M  POLY_UPPER 6
M  POLY_LOWER 8
M  POLY_CHG 0
M  POLY_PROPERTIES ALPHA_AA L_AA PROTEIN AROMATIC POLYMER 
M  END

$$$$



 32 32  0  0  0  0  0  0  0  0999 V2000
   -3.0974    1.4778    0.9431 H   0  0  0  1  0  0  0  0  0  0  0  0
   -1.6311    0.2324    1.7940 C   0  0  0  1  0  0  0  0  0  0  0  0
   -3.0571    1.8868    2.9593 N   0  0  0  1  0  0  0  0  0  0  0  0
   -2.3668    1.5600    1.7205 C   0  0  0  1  0  0  0  0  0  0  0  0
   -1.3960   -0.3958    0.7632 O   0  0  0  1  0  0  0  0  0  0  0  0
   -1.1948   -0.1489    2.9993 N   0  0  0  1  0  0  0  0  0  0  0  0
   -2.7619    2.6356    3.5183 H   0  0  0  1  0  0  0  0  0  0  0  0
   -4.1152    1.1296    3.3162 C   0  0  0  1  0  0  0  0  0  0  0  0
   -0.4892   -1.4043    3.2093 C   0  0  0  1  0  0  0  0  0  0  0  0
   -4.8208    1.4587    4.6174 C   0  0  0  1  0  0  0  0  0  0  0  0
   -4.4984    0.1990    2.6085 O   0  0  0  1  0  0  0  0  0  0  0  0
   -1.3558    0.4374    3.7678 H   0  0  0  1  0  0  0  0  0  0  0  0
    0.1231   -1.6166    2.3579 H   0  0  0  1  0  0  0  0  0  0  0  0
   -1.1988   -2.1938    3.3437 H   0  0  0  1  0  0  0  0  0  0  0  0
    0.1268   -1.3255    4.0806 H   0  0  0  1  0  0  0  0  0  0  0  0
   -5.2920    2.4159    4.5360 H   0  0  0  1  0  0  0  0  0  0  0  0
   -4.1072    1.4792    5.4144 H   0  0  0  1  0  0  0  0  0  0  0  0
   -5.5610    0.7130    4.8199 H   0  0  0  1  0  0  0  0  0  0  0  0
   -4.4301    8.0052    0.4437 Br  0  0  0  1  0  0  0  0  0  0  0  0
   -3.4402    6.4149    0.6951 C   0  0  0  1  0  0  0  0  0  0  0  0
   -2.9395    6.1049    1.9500 C   0  0  0  1  0  0  0  0  0  0  0  0
   -2.2831    4.9061    2.1555 C   0  0  0  1  0  0  0  0  0  0  0  0
   -2.1302    4.0114    1.1079 C   0  0  0  1  0  0  0  0  0  0  0  0
   -2.6293    4.3203   -0.1435 C   0  0  0  1  0  0  0  0  0  0  0  0
   -3.2876    5.5227   -0.3494 C   0  0  0  1  0  0  0  0  0  0  0  0
   -1.4180    2.6985    1.3331 C   0  0  0  1  0  0  0  0  0  0  0  0
   -3.0578    6.7744    2.7369 H   0  0  0  1  0  0  0  0  0  0  0  0
   -1.9040    4.6754    3.0960 H   0  0  0  1  0  0  0  0  0  0  0  0
   -2.5109    3.6507   -0.9304 H   0  0  0  1  0  0  0  0  0  0  0  0
   -3.6667    5.7534   -1.2900 H   0  0  0  1  0  0  0  0  0  0  0  0
   -0.9108    2.4271    0.4309 H   0  0  0  1  0  0  0  0  0  0  0  0
   -0.7038    2.8290    2.1191 H   0  0  0  1  0  0  0  0  0  0  0  0
  1  4  1  0  0  0  0
  2  4  1  0  0  0  0
  2  5  2  0  0  0  0
  2  6  1  0  0  0  0
  3  4  1  0  0  0  0
  3  7  1  0  0  0  0
  3  8  1  0  0  0  0
  4 26  1  0  0  0  0
  6  9  1  0  0  0  0
  6 12  1  0  0  0  0
  8 10  1  0  0  0  0
  8 11  2  0  0  0  0
  9 13  1  0  0  0  0
  9 14  1  0  0  0  0
  9 15  1  0  0  0  0
 10 16  1  0  0  0  0
 10 17  1  0  0  0  0
 10 18  1  0  0  0  0
 19 20  1  0  0  0  0
 20 21  4  0  0  0  0
 20 25  4  0  0  0  0
 21 22  4  0  0  0  0
 21 27  1  0  0  0  0
 22 23  4  0  0  0  0
 22 28  1  0  0  0  0
 23 24  4  0  0  0  0
 23 26  1  0  0  0  0
 24 25  4  0  0  0  0
 24 29  1  0  0  0  0
 25 30  1  0  0  0  0
 26 31  1  0  0  0  0
 26 32  1  0  0  0  0
M  END
> <BCLConfClusterSize>
1

> <ConfClashScore>
0 

> <ConfOneFourInteractionScore>
-0.960318 

> <ConfScore>
-0.307138 

> <ConfScorePBest>
0.00780535 

> <ConfTolerance>
0.125859 

> <RosettaParamsInstructions>
M  ROOT 3
M  POLY_N_BB 3
M  POLY_CA_BB 4
M  POLY_C_BB 2
M  POLY_O_BB 5
M  POLY_IGNORE 9 10 11 12 13 14 15 16 17 18 
M  POLY_UPPER 6
M  POLY_LOWER 8
M  POLY_CHG 0
M  POLY_PROPERTIES ALPHA_AA L_AA PROTEIN AROMATIC POLYMER 
M  END

$$$$



 32 32  0  0  0  0  0  0  0  0999 V2000
   -3.0611    1.3986    0.9024 H   0  0  0  1  0  0  0  0  0  0  0  0
   -1.5395    0.3001    1.9093 C   0  0  0  1  0  0  0  0  0  0  0  0
   -3.0810    1.8492    2.9378 N   0  0  0  1  0  0  0  0  0  0  0  0
   -2.3689    1.5559    1.7030 C   0  0  0  1  0  0  0  0  0  0  0  0
   -1.1351   -0.3341    0.9360 O   0  0  0  1  0  0  0  0  0  0  0  0
   -1.2158   -0.0080    3.1697 N   0  0  0  1  0  0  0  0  0  0  0  0
   -2.9804    2.7260    3.3638 H   0  0  0  1  0  0  0  0  0  0  0  0
   -3.8795    0.9166    3.4972 C   0  0  0  1  0  0  0  0  0  0  0  0
   -0.5155   -1.2499    3.4616 C   0  0  0  1  0  0  0  0  0  0  0  0
   -4.4563    1.2308    4.8779 C   0  0  0  1  0  0  0  0  0  0  0  0
   -4.0798   -0.1793    2.9752 O   0  0  0  1  0  0  0  0  0  0  0  0
   -1.4507    0.6038    3.8984 H   0  0  0  1  0  0  0  0  0  0  0  0
    0.1145   -1.5072    2.6359 H   0  0  0  1  0  0  0  0  0  0  0  0
   -1.2282   -2.0314    3.6233 H   0  0  0  1  0  0  0  0  0  0  0  0
    0.0821   -1.1241    4.3402 H   0  0  0  1  0  0  0  0  0  0  0  0
   -5.1312    2.0577    4.8033 H   0  0  0  1  0  0  0  0  0  0  0  0
   -3.6604    1.4797    5.5484 H   0  0  0  1  0  0  0  0  0  0  0  0
   -4.9808    0.3748    5.2482 H   0  0  0  1  0  0  0  0  0  0  0  0
   -4.4301    8.0052    0.4437 Br  0  0  0  1  0  0  0  0  0  0  0  0
   -3.4402    6.4149    0.6951 C   0  0  0  1  0  0  0  0  0  0  0  0
   -2.9395    6.1049    1.9500 C   0  0  0  1  0  0  0  0  0  0  0  0
   -2.2831    4.9061    2.1555 C   0  0  0  1  0  0  0  0  0  0  0  0
   -2.1302    4.0114    1.1079 C   0  0  0  1  0  0  0  0  0  0  0  0
   -2.6293    4.3203   -0.1435 C   0  0  0  1  0  0  0  0  0  0  0  0
   -3.2876    5.5227   -0.3494 C   0  0  0  1  0  0  0  0  0  0  0  0
   -1.4180    2.6985    1.3331 C   0  0  0  1  0  0  0  0  0  0  0  0
   -3.0578    6.7744    2.7369 H   0  0  0  1  0  0  0  0  0  0  0  0
   -1.9040    4.6754    3.0960 H   0  0  0  1  0  0  0  0  0  0  0  0
   -2.5109    3.6507   -0.9304 H   0  0  0  1  0  0  0  0  0  0  0  0
   -3.6667    5.7534   -1.2900 H   0  0  0  1  0  0  0  0  0  0  0  0
   -0.9002    2.4335    0.4350 H   0  0  0  1  0  0  0  0  0  0  0  0
   -0.7129    2.8255    2.1278 H   0  0  0  1  0  0  0  0  0  0  0  0
  1  4  1  0  0  0  0
  2  4  1  0  0  0  0
  2  5  2  0  0  0  0
  2  6  1  0  0  0  0
  3  4  1  0  0  0  0
  3  7  1  0  0  0  0
  3  8  1  0  0  0  0
  4 26  1  0  0  0  0
  6  9  1  0  0  0  0
  6 12  1  0  0  0  0
  8 10  1  0  0  0  0
  8 11  2  0  0  0  0
  9 13  1  0  0  0  0
  9 14  1  0  0  0  0
  9 15  1  0  0  0  0
 10 16  1  0  0  0  0
 10 17  1  0  0  0  0
 10 18  1  0  0  0  0
 19 20  1  0  0  0  0
 20 21  4  0  0  0  0
 20 25  4  0  0  0  0
 21 22  4  0  0  0  0
 21 27  1  0  0  0  0
 22 23  4  0  0  0  0
 22 28  1  0  0  0  0
 23 24  4  0  0  0  0
 23 26  1  0  0  0  0
 24 25  4  0  0  0  0
 24 29  1  0  0  0  0
 25 30  1  0  0  0  0
 26 31  1  0  0  0  0
 26 32  1  0  0  0  0
M  END
> <BCLConfClusterSize>
1

> <ConfClashScore>
0 

> <ConfOneFourInteractionScore>
-0.94165 

> <ConfScore>
-0.307138 

> <ConfScorePBest>
0.00777687 

> <ConfTolerance>
0.152623 

> <RosettaParamsInstructions>
M  ROOT 3
M  POLY_N_BB 3
M  POLY_CA_BB 4
M  POLY_C_BB 2
M  POLY_O_BB 5
M  POLY_IGNORE 9 10 11 12 13 14 15 16 17 18 
M  POLY_UPPER 6
M  POLY_LOWER 8
M  POLY_CHG 0
M  POLY_PROPERTIES ALPHA_AA L_AA PROTEIN AROMATIC POLYMER 
M  END

$$$$



 32 32  0  0  0  0  0  0  0  0999 V2000
    0.4986    3.5529    1.1307 H   0  0  0  1  0  0  0  0  0  0  0  0
    0.7734    1.4710    1.2574 C   0  0  0  1  0  0  0  0  0  0  0  0
   -0.0482    2.7638   -0.6957 N   0  0  0  1  0  0  0  0  0  0  0  0
   -0.0023    2.6813    0.7644 C   0  0  0  1  0  0  0  0  0  0  0  0
    1.3321    1.4782    2.3532 O   0  0  0  1  0  0  0  0  0  0  0  0
    0.7357    0.3846    0.4784 N   0  0  0  1  0  0  0  0  0  0  0  0
   -0.9259    2.7255   -1.1300 H   0  0  0  1  0  0  0  0  0  0  0  0
    1.0285    2.8880   -1.4733 C   0  0  0  1  0  0  0  0  0  0  0  0
    1.3195   -0.8847    0.8858 C   0  0  0  1  0  0  0  0  0  0  0  0
    0.7555    3.0371   -2.9574 C   0  0  0  1  0  0  0  0  0  0  0  0
    2.1752    2.8839   -1.0334 O   0  0  0  1  0  0  0  0  0  0  0  0
    0.2999    0.4454   -0.3972 H   0  0  0  1  0  0  0  0  0  0  0  0
    1.9787   -0.7254    1.7134 H   0  0  0  1  0  0  0  0  0  0  0  0
    1.8684   -1.3032    0.0683 H   0  0  0  1  0  0  0  0  0  0  0  0
    0.5405   -1.5587    1.1752 H   0  0  0  1  0  0  0  0  0  0  0  0
    0.0607    3.8356   -3.1143 H   0  0  0  1  0  0  0  0  0  0  0  0
    0.3430    2.1258   -3.3373 H   0  0  0  1  0  0  0  0  0  0  0  0
    1.6703    3.2552   -3.4679 H   0  0  0  1  0  0  0  0  0  0  0  0
   -4.4301    8.0052    0.4437 Br  0  0  0  1  0  0  0  0  0  0  0  0
   -3.4402    6.4149    0.6951 C   0  0  0  1  0  0  0  0  0  0  0  0
   -2.9395    6.1049    1.9500 C   0  0  0  1  0  0  0  0  0  0  0  0
   -2.2831    4.9061    2.1555 C   0  0  0  1  0  0  0  0  0  0  0  0
   -2.1302    4.0114    1.1079 C   0  0  0  1  0  0  0  0  0  0  0  0
   -2.6293    4.3203   -0.1435 C   0  0  0  1  0  0  0  0  0  0  0  0
   -3.2876    5.5227   -0.3494 C   0  0  0  1  0  0  0  0  0  0  0  0
   -1.4180    2.6985    1.3331 C   0  0  0  1  0  0  0  0  0  0  0  0
   -3.0578    6.7744    2.7369 H   0  0  0  1  0  0  0  0  0  0  0  0
   -1.9040    4.6754    3.0960 H   0  0  0  1  0  0  0  0  0  0  0  0
   -2.5109    3.6507   -0.9304 H   0  0  0  1  0  0  0  0  0  0  0  0
   -3.6667    5.7534   -1.2900 H   0  0  0  1  0  0  0  0  0  0  0  0
   -1.3643    2.5165    2.3861 H   0  0  0  1  0  0  0  0  0  0  0  0
   -1.9828    1.9199    0.8644 H   0  0  0  1  0  0  0  0  0  0  0  0
  1  4  1  0  0  0  0
  2  4  1  0  0  0  0
  2  5  2  0  0  0  0
  2  6  1  0  0  0  0
  3  4  1  0  0  0  0
  3  7  1  0  0  0  0
  3  8  1  0  0  0  0
  4 26  1  0  0  0  0
  6  9  1  0  0  0  0
  6 12  1  0  0  0  0
  8 10  1  0  0  0  0
  8 11  2  0  0  0  0
  9 13  1  0  0  0  0
  9 14  1  0  0  0  0
  9 15  1  0  0  0  0
 10 16  1  0  0  0  0
 10 17  1  0  0  0  0
 10 18  1  0  0  0  0
 19 20  1  0  0  0  0
 20 21  4  0  0  0  0
 20 25  4  0  0  0  0
 21 22  4  0  0  0  0
 21 27  1  0  0  0  0
 22 23  4  0  0  0  0
 22 28  1  0  0  0  0
 23 24  4  0  0  0  0
 23 26  1  0  0  0  0
 24 25  4  0  0  0  0
 24 29  1  0  0  0  0
 25 30  1  0  0  0  0
 26 31  1  0  0  0  0
 26 32  1  0  0  0  0
M  END
> <BCLConfClusterSize>
1

> <ConfClashScore>
0 

> <ConfOneFourInteractionScore>
-0.956443 

> <ConfScore>
-0.306225 

> <ConfScorePBest>
0.00774839 

> <ConfTolerance>
0.150765 

> <RosettaParamsInstructions>
M  ROOT 3
M  POLY_N_BB 3
M  POLY_CA_BB 4
M  POLY_C_BB 2
M  POLY_O_BB 5
M  POLY_IGNORE 9 10 11 12 13 14 15 16 17 18 
M  POLY_UPPER 6
M  POLY_LOWER 8
M  POLY_CHG 0
M  POLY_PROPERTIES ALPHA_AA L_AA PROTEIN AROMATIC POLYMER 
M  END

$$$$



 32 32  0  0  0  0  0  0  0  0999 V2000
    0.4245    3.2571    2.1111 H   0  0  0  1  0  0  0  0  0  0  0  0
    0.6957    1.3495    1.2682 C   0  0  0  1  0  0  0  0  0  0  0  0
    0.5210    3.5099    0.0720 N   0  0  0  1  0  0  0  0  0  0  0  0
    0.0926    2.7439    1.2329 C   0  0  0  1  0  0  0  0  0  0  0  0
    0.8188    0.7621    2.3419 O   0  0  0  1  0  0  0  0  0  0  0  0
    0.9897    0.7901    0.0897 N   0  0  0  1  0  0  0  0  0  0  0  0
   -0.1744    3.9364   -0.4711 H   0  0  0  1  0  0  0  0  0  0  0  0
    1.7887    3.6751   -0.3085 C   0  0  0  1  0  0  0  0  0  0  0  0
    1.5927   -0.5334    0.0392 C   0  0  0  1  0  0  0  0  0  0  0  0
    1.9953    4.4634   -1.5872 C   0  0  0  1  0  0  0  0  0  0  0  0
    2.7424    3.2241    0.3246 O   0  0  0  1  0  0  0  0  0  0  0  0
    0.7988    1.2724   -0.7418 H   0  0  0  1  0  0  0  0  0  0  0  0
    1.2915   -1.0961    0.8981 H   0  0  0  1  0  0  0  0  0  0  0  0
    2.6585   -0.4394    0.0305 H   0  0  0  1  0  0  0  0  0  0  0  0
    1.2714   -1.0379   -0.8480 H   0  0  0  1  0  0  0  0  0  0  0  0
    1.7363    3.8544   -2.4280 H   0  0  0  1  0  0  0  0  0  0  0  0
    3.0213    4.7576   -1.6628 H   0  0  0  1  0  0  0  0  0  0  0  0
    1.3741    5.3345   -1.5732 H   0  0  0  1  0  0  0  0  0  0  0  0
   -4.4309    8.0037    0.4382 Br  0  0  0  1  0  0  0  0  0  0  0  0
   -3.4400    6.4150    0.6957 C   0  0  0  1  0  0  0  0  0  0  0  0
   -2.9409    6.1090    1.9522 C   0  0  0  1  0  0  0  0  0  0  0  0
   -2.2839    4.9114    2.1622 C   0  0  0  1  0  0  0  0  0  0  0  0
   -2.1287    4.0137    1.1174 C   0  0  0  1  0  0  0  0  0  0  0  0
   -2.6263    4.3185   -0.1355 C   0  0  0  1  0  0  0  0  0  0  0  0
   -3.2853    5.5198   -0.3459 C   0  0  0  1  0  0  0  0  0  0  0  0
   -1.4253    2.6879    1.2878 C   0  0  0  1  0  0  0  0  0  0  0  0
   -3.0609    6.7808    2.7370 H   0  0  0  1  0  0  0  0  0  0  0  0
   -1.9059    4.6837    3.1039 H   0  0  0  1  0  0  0  0  0  0  0  0
   -2.5063    3.6467   -0.9203 H   0  0  0  1  0  0  0  0  0  0  0  0
   -3.6632    5.7475   -1.2877 H   0  0  0  1  0  0  0  0  0  0  0  0
   -1.7066    2.2848    2.2382 H   0  0  0  1  0  0  0  0  0  0  0  0
   -1.7599    2.0344    0.5094 H   0  0  0  1  0  0  0  0  0  0  0  0
  1  4  1  0  0  0  0
  2  4  1  0  0  0  0
  2  5  2  0  0  0  0
  2  6  1  0  0  0  0
  3  4  1  0  0  0  0
  3  7  1  0  0  0  0
  3  8  1  0  0  0  0
  4 26  1  0  0  0  0
  6  9  1  0  0  0  0
  6 12  1  0  0  0  0
  8 10  1  0  0  0  0
  8 11  2  0  0  0  0
  9 13  1  0  0  0  0
  9 14  1  0  0  0  0
  9 15  1  0  0  0  0
 10 16  1  0  0  0  0
 10 17  1  0  0  0  0
 10 18  1  0  0  0  0
 19 20  1  0  0  0  0
 20 21  4  0  0  0  0
 20 25  4  0  0  0  0
 21 22  4  0  0  0  0
 21 27  1  0  0  0  0
 22 23  4  0  0  0  0
 22 28  1  0  0  0  0
 23 24  4  0  0  0  0
 23 26  1  0  0  0  0
 24 25  4  0  0  0  0
 24 29  1  0  0  0  0
 25 30  1  0  0  0  0
 26 31  1  0  0  0  0
 26 32  1  0  0  0  0
M  END
> <BCLConfClusterSize>
1

> <ConfClashScore>
0 

> <ConfOneFourInteractionScore>
-0.960318 

> <ConfScore>
-0.305883 

> <ConfScorePBest>
0.00771991 

> <ConfTolerance>
0.204433 

> <RosettaParamsInstructions>
M  ROOT 3
M  POLY_N_BB 3
M  POLY_CA_BB 4
M  POLY_C_BB 2
M  POLY_O_BB 5
M  POLY_IGNORE 9 10 11 12 13 14 15 16 17 18 
M  POLY_UPPER 6
M  POLY_LOWER 8
M  POLY_CHG 0
M  POLY_PROPERTIES ALPHA_AA L_AA PROTEIN AROMATIC POLYMER 
M  END

$$$$



 32 32  0  0  0  0  0  0  0  0999 V2000
    0.4324    3.4897    1.9740 H   0  0  0  1  0  0  0  0  0  0  0  0
    0.7067    1.4175    1.6469 C   0  0  0  1  0  0  0  0  0  0  0  0
    0.5445    3.1527   -0.0632 N   0  0  0  1  0  0  0  0  0  0  0  0
    0.0992    2.7603    1.2656 C   0  0  0  1  0  0  0  0  0  0  0  0
    1.0262    1.1724    2.8091 O   0  0  0  1  0  0  0  0  0  0  0  0
    0.7865    0.5045    0.6731 N   0  0  0  1  0  0  0  0  0  0  0  0
   -0.1211    3.2480   -0.7761 H   0  0  0  1  0  0  0  0  0  0  0  0
    1.8401    3.3895   -0.3472 C   0  0  0  1  0  0  0  0  0  0  0  0
    1.0906   -0.8932    0.9409 C   0  0  0  1  0  0  0  0  0  0  0  0
    2.0942    3.7170   -1.8058 C   0  0  0  1  0  0  0  0  0  0  0  0
    2.7552    3.3521    0.4742 O   0  0  0  1  0  0  0  0  0  0  0  0
    0.6350    0.7865   -0.2532 H   0  0  0  1  0  0  0  0  0  0  0  0
    0.9081   -1.1070    1.9733 H   0  0  0  1  0  0  0  0  0  0  0  0
    2.1186   -1.0842    0.7137 H   0  0  0  1  0  0  0  0  0  0  0  0
    0.4687   -1.5162    0.3326 H   0  0  0  1  0  0  0  0  0  0  0  0
    1.3537    3.2399   -2.4132 H   0  0  0  1  0  0  0  0  0  0  0  0
    3.0653    3.3657   -2.0860 H   0  0  0  1  0  0  0  0  0  0  0  0
    2.0429    4.7763   -1.9474 H   0  0  0  1  0  0  0  0  0  0  0  0
   -4.4301    8.0052    0.4437 Br  0  0  0  1  0  0  0  0  0  0  0  0
   -3.4402    6.4149    0.6951 C   0  0  0  1  0  0  0  0  0  0  0  0
   -2.9395    6.1049    1.9500 C   0  0  0  1  0  0  0  0  0  0  0  0
   -2.2831    4.9061    2.1555 C   0  0  0  1  0  0  0  0  0  0  0  0
   -2.1302    4.0114    1.1079 C   0  0  0  1  0  0  0  0  0  0  0  0
   -2.6293    4.3203   -0.1435 C   0  0  0  1  0  0  0  0  0  0  0  0
   -3.2876    5.5227   -0.3494 C   0  0  0  1  0  0  0  0  0  0  0  0
   -1.4180    2.6985    1.3331 C   0  0  0  1  0  0  0  0  0  0  0  0
   -3.0578    6.7744    2.7369 H   0  0  0  1  0  0  0  0  0  0  0  0
   -1.9040    4.6754    3.0960 H   0  0  0  1  0  0  0  0  0  0  0  0
   -2.5109    3.6507   -0.9304 H   0  0  0  1  0  0  0  0  0  0  0  0
   -3.6667    5.7534   -1.2900 H   0  0  0  1  0  0  0  0  0  0  0  0
   -1.6908    2.3371    2.3026 H   0  0  0  1  0  0  0  0  0  0  0  0
   -1.7538    2.0087    0.5873 H   0  0  0  1  0  0  0  0  0  0  0  0
  1  4  1  0  0  0  0
  2  4  1  0  0  0  0
  2  5  2  0  0  0  0
  2  6  1  0  0  0  0
  3  4  1  0  0  0  0
  3  7  1  0  0  0  0
  3  8  1  0  0  0  0
  4 26  1  0  0  0  0
  6  9  1  0  0  0  0
  6 12  1  0  0  0  0
  8 10  1  0  0  0  0
  8 11  2  0  0  0  0
  9 13  1  0  0  0  0
  9 14  1  0  0  0  0
  9 15  1  0  0  0  0
 10 16  1  0  0  0  0
 10 17  1  0  0  0  0
 10 18  1  0  0  0  0
 19 20  1  0  0  0  0
 20 21  4  0  0  0  0
 20 25  4  0  0  0  0
 21 22  4  0  0  0  0
 21 27  1  0  0  0  0
 22 23  4  0  0  0  0
 22 28  1  0  0  0  0
 23 24  4  0  0  0  0
 23 26  1  0  0  0  0
 24 25  4  0  0  0  0
 24 29  1  0  0  0  0
 25 30  1  0  0  0  0
 26 31  1  0  0  0  0
 26 32  1  0  0  0  0
M  END
> <BCLConfClusterSize>
1

> <ConfClashScore>
0 

> <ConfOneFourInteractionScore>
-0.960318 

> <ConfScore>
-0.289114 

> <ConfScorePBest>
0.00769143 

> <ConfTolerance>
0.166867 

> <RosettaParamsInstructions>
M  ROOT 3
M  POLY_N_BB 3
M  POLY_CA_BB 4
M  POLY_C_BB 2
M  POLY_O_BB 5
M  POLY_IGNORE 9 10 11 12 13 14 15 16 17 18 
M  POLY_UPPER 6
M  POLY_LOWER 8
M  POLY_CHG 0
M  POLY_PROPERTIES ALPHA_AA L_AA PROTEIN AROMATIC POLYMER 
M  END

$$$$



 32 32  0  0  0  0  0  0  0  0999 V2000
   -3.1580    1.4888    1.1353 H   0  0  0  1  0  0  0  0  0  0  0  0
   -1.5485    0.2105    1.6732 C   0  0  0  1  0  0  0  0  0  0  0  0
   -2.7402    1.7701    3.1415 N   0  0  0  1  0  0  0  0  0  0  0  0
   -2.3005    1.5438    1.7728 C   0  0  0  1  0  0  0  0  0  0  0  0
   -1.4931   -0.3829    0.5972 O   0  0  0  1  0  0  0  0  0  0  0  0
   -0.9065   -0.2028    2.7711 N   0  0  0  1  0  0  0  0  0  0  0  0
   -2.5157    2.6193    3.5761 H   0  0  0  1  0  0  0  0  0  0  0  0
   -3.4393    0.8605    3.8262 C   0  0  0  1  0  0  0  0  0  0  0  0
   -0.1328   -1.4314    2.8710 C   0  0  0  1  0  0  0  0  0  0  0  0
   -3.8510    1.2648    5.2284 C   0  0  0  1  0  0  0  0  0  0  0  0
   -3.7386   -0.2381    3.3659 O   0  0  0  1  0  0  0  0  0  0  0  0
   -0.9612    0.3643    3.5684 H   0  0  0  1  0  0  0  0  0  0  0  0
   -0.4784   -2.1316    2.1394 H   0  0  0  1  0  0  0  0  0  0  0  0
   -0.2523   -1.8493    3.8487 H   0  0  0  1  0  0  0  0  0  0  0  0
    0.9010   -1.2165    2.6983 H   0  0  0  1  0  0  0  0  0  0  0  0
   -3.9077    2.3315    5.2904 H   0  0  0  1  0  0  0  0  0  0  0  0
   -3.1277    0.9050    5.9300 H   0  0  0  1  0  0  0  0  0  0  0  0
   -4.8082    0.8433    5.4543 H   0  0  0  1  0  0  0  0  0  0  0  0
   -4.4309    8.0037    0.4382 Br  0  0  0  1  0  0  0  0  0  0  0  0
   -3.4400    6.4150    0.6957 C   0  0  0  1  0  0  0  0  0  0  0  0
   -2.9409    6.1090    1.9522 C   0  0  0  1  0  0  0  0  0  0  0  0
   -2.2839    4.9114    2.1622 C   0  0  0  1  0  0  0  0  0  0  0  0
   -2.1287    4.0137    1.1174 C   0  0  0  1  0  0  0  0  0  0  0  0
   -2.6263    4.3185   -0.1355 C   0  0  0  1  0  0  0  0  0  0  0  0
   -3.2853    5.5198   -0.3459 C   0  0  0  1  0  0  0  0  0  0  0  0
   -1.4253    2.6879    1.2878 C   0  0  0  1  0  0  0  0  0  0  0  0
   -3.0609    6.7808    2.7370 H   0  0  0  1  0  0  0  0  0  0  0  0
   -1.9059    4.6837    3.1039 H   0  0  0  1  0  0  0  0  0  0  0  0
   -2.5063    3.6467   -0.9203 H   0  0  0  1  0  0  0  0  0  0  0  0
   -3.6632    5.7475   -1.2877 H   0  0  0  1  0  0  0  0  0  0  0  0
   -1.0125    2.4092    0.3408 H   0  0  0  1  0  0  0  0  0  0  0  0
   -0.6349    2.8223    1.9964 H   0  0  0  1  0  0  0  0  0  0  0  0
  1  4  1  0  0  0  0
  2  4  1  0  0  0  0
  2  5  2  0  0  0  0
  2  6  1  0  0  0  0
  3  4  1  0  0  0  0
  3  7  1  0  0  0  0
  3  8  1  0  0  0  0
  4 26  1  0  0  0  0
  6  9  1  0  0  0  0
  6 12  1  0  0  0  0
  8 10  1  0  0  0  0
  8 11  2  0  0  0  0
  9 13  1  0  0  0  0
  9 14  1  0  0  0  0
  9 15  1  0  0  0  0
 10 16  1  0  0  0  0
 10 17  1  0  0  0  0
 10 18  1  0  0  0  0
 19 20  1  0  0  0  0
 20 21  4  0  0  0  0
 20 25  4  0  0  0  0
 21 22  4  0  0  0  0
 21 27  1  0  0  0  0
 22 23  4  0  0  0  0
 22 28  1  0  0  0  0
 23 24  4  0  0  0  0
 23 26  1  0  0  0  0
 24 25  4  0  0  0  0
 24 29  1  0  0  0  0
 25 30  1  0  0  0  0
 26 31  1  0  0  0  0
 26 32  1  0  0  0  0
M  END
> <BCLConfClusterSize>
1

> <ConfClashScore>
0 

> <ConfOneFourInteractionScore>
-0.956443 

> <ConfScore>
-0.288315 

> <ConfScorePBest>
0.00766295 

> <ConfTolerance>
0.163476 

> <RosettaParamsInstructions>
M  ROOT 3
M  POLY_N_BB 3
M  POLY_CA_BB 4
M  POLY_C_BB 2
M  POLY_O_BB 5
M  POLY_IGNORE 9 10 11 12 13 14 15 16 17 18 
M  POLY_UPPER 6
M  POLY_LOWER 8
M  POLY_CHG 0
M  POLY_PROPERTIES ALPHA_AA L_AA PROTEIN AROMATIC POLYMER 
M  END

$$$$



 32 32  0  0  0  0  0  0  0  0999 V2000
   -3.2334    1.4974    1.2295 H   0  0  0  1  0  0  0  0  0  0  0  0
   -1.7433    0.3033    2.1609 C   0  0  0  1  0  0  0  0  0  0  0  0
   -3.0200    2.1261    3.1886 N   0  0  0  1  0  0  0  0  0  0  0  0
   -2.4469    1.6482    1.9391 C   0  0  0  1  0  0  0  0  0  0  0  0
   -1.1662    0.0658    3.2209 O   0  0  0  1  0  0  0  0  0  0  0  0
   -1.8931   -0.5771    1.1655 N   0  0  0  1  0  0  0  0  0  0  0  0
   -2.4322    2.4282    3.9122 H   0  0  0  1  0  0  0  0  0  0  0  0
   -4.3514    2.1539    3.3519 C   0  0  0  1  0  0  0  0  0  0  0  0
   -1.2695   -1.8918    1.1900 C   0  0  0  1  0  0  0  0  0  0  0  0
   -4.8392    2.6314    4.7059 C   0  0  0  1  0  0  0  0  0  0  0  0
   -5.1402    1.8179    2.4725 O   0  0  0  1  0  0  0  0  0  0  0  0
   -2.4420   -0.3284    0.3927 H   0  0  0  1  0  0  0  0  0  0  0  0
   -1.3040   -2.2850    2.1846 H   0  0  0  1  0  0  0  0  0  0  0  0
   -0.2504   -1.8088    0.8747 H   0  0  0  1  0  0  0  0  0  0  0  0
   -1.7956   -2.5482    0.5288 H   0  0  0  1  0  0  0  0  0  0  0  0
   -4.4788    3.6226    4.8862 H   0  0  0  1  0  0  0  0  0  0  0  0
   -4.4738    1.9752    5.4680 H   0  0  0  1  0  0  0  0  0  0  0  0
   -5.9091    2.6332    4.7190 H   0  0  0  1  0  0  0  0  0  0  0  0
   -4.4484    7.9948    0.4502 Br  0  0  0  1  0  0  0  0  0  0  0  0
   -3.4440    6.4128    0.6961 C   0  0  0  1  0  0  0  0  0  0  0  0
   -2.9376    6.1047    1.9491 C   0  0  0  1  0  0  0  0  0  0  0  0
   -2.2702    4.9114    2.1507 C   0  0  0  1  0  0  0  0  0  0  0  0
   -2.1119    4.0201    1.1010 C   0  0  0  1  0  0  0  0  0  0  0  0
   -2.6167    4.3270   -0.1486 C   0  0  0  1  0  0  0  0  0  0  0  0
   -3.2861    5.5240   -0.3506 C   0  0  0  1  0  0  0  0  0  0  0  0
   -1.4720    2.6759    1.3562 C   0  0  0  1  0  0  0  0  0  0  0  0
   -3.0599    6.7717    2.7377 H   0  0  0  1  0  0  0  0  0  0  0  0
   -1.8869    4.6821    3.0899 H   0  0  0  1  0  0  0  0  0  0  0  0
   -2.4944    3.6601   -0.9371 H   0  0  0  1  0  0  0  0  0  0  0  0
   -3.6694    5.7533   -1.2897 H   0  0  0  1  0  0  0  0  0  0  0  0
   -1.0923    2.2981    0.4299 H   0  0  0  1  0  0  0  0  0  0  0  0
   -0.6645    2.8086    2.0456 H   0  0  0  1  0  0  0  0  0  0  0  0
  1  4  1  0  0  0  0
  2  4  1  0  0  0  0
  2  5  2  0  0  0  0
  2  6  1  0  0  0  0
  3  4  1  0  0  0  0
  3  7  1  0  0  0  0
  3  8  1  0  0  0  0
  4 26  1  0  0  0  0
  6  9  1  0  0  0  0
  6 12  1  0  0  0  0
  8 10  1  0  0  0  0
  8 11  2  0  0  0  0
  9 13  1  0  0  0  0
  9 14  1  0  0  0  0
  9 15  1  0  0  0  0
 10 16  1  0  0  0  0
 10 17  1  0  0  0  0
 10 18  1  0  0  0  0
 19 20  1  0  0  0  0
 20 21  4  0  0  0  0
 20 25  4  0  0  0  0
 21 22  4  0  0  0  0
 21 27  1  0  0  0  0
 22 23  4  0  0  0  0
 22 28  1  0  0  0  0
 23 24  4  0  0  0  0
 23 26  1  0  0  0  0
 24 25  4  0  0  0  0
 24 29  1  0  0  0  0
 25 30  1  0  0  0  0
 26 31  1  0  0  0  0
 26 32  1  0  0  0  0
M  END
> <BCLConfClusterSize>
1

> <ConfClashScore>
0 

> <ConfOneFourInteractionScore>
-0.985807 

> <ConfScore>
-0.287569 

> <ConfScorePBest>
0.00763447 

> <ConfTolerance>
0.168686 

> <RosettaParamsInstructions>
M  ROOT 3
M  POLY_N_BB 3
M  POLY_CA_BB 4
M  POLY_C_BB 2
M  POLY_O_BB 5
M  POLY_IGNORE 9 10 11 12 13 14 15 16 17 18 
M  POLY_UPPER 6
M  POLY_LOWER 8
M  POLY_CHG 0
M  POLY_PROPERTIES ALPHA_AA L_AA PROTEIN AROMATIC POLYMER 
M  END

$$$$



 32 32  0  0  0  0  0  0  0  0999 V2000
   -2.8277    1.5442    0.3228 H   0  0  0  1  0  0  0  0  0  0  0  0
   -1.5645    0.1637    1.2961 C   0  0  0  1  0  0  0  0  0  0  0  0
   -3.3233    1.4761    2.3215 N   0  0  0  1  0  0  0  0  0  0  0  0
   -2.3231    1.4847    1.2644 C   0  0  0  1  0  0  0  0  0  0  0  0
   -0.9389   -0.2329    0.3141 O   0  0  0  1  0  0  0  0  0  0  0  0
   -1.5473   -0.4825    2.4668 N   0  0  0  1  0  0  0  0  0  0  0  0
   -3.2356    2.1134    3.0608 H   0  0  0  1  0  0  0  0  0  0  0  0
   -4.3569    0.6295    2.3191 C   0  0  0  1  0  0  0  0  0  0  0  0
   -0.9001   -1.7815    2.5749 C   0  0  0  1  0  0  0  0  0  0  0  0
   -5.2419    0.6670    3.5498 C   0  0  0  1  0  0  0  0  0  0  0  0
   -4.5914   -0.1387    1.3872 O   0  0  0  1  0  0  0  0  0  0  0  0
   -1.9715   -0.0806    3.2535 H   0  0  0  1  0  0  0  0  0  0  0  0
   -1.1713   -2.3867    1.7353 H   0  0  0  1  0  0  0  0  0  0  0  0
   -1.2147   -2.2624    3.4775 H   0  0  0  1  0  0  0  0  0  0  0  0
    0.1617   -1.6503    2.5916 H   0  0  0  1  0  0  0  0  0  0  0  0
   -5.8314    1.5599    3.5387 H   0  0  0  1  0  0  0  0  0  0  0  0
   -4.6314    0.6539    4.4284 H   0  0  0  1  0  0  0  0  0  0  0  0
   -5.8875   -0.1863    3.5507 H   0  0  0  1  0  0  0  0  0  0  0  0
   -4.4293    8.0064    0.4488 Br  0  0  0  1  0  0  0  0  0  0  0  0
   -3.4402    6.4147    0.6945 C   0  0  0  1  0  0  0  0  0  0  0  0
   -2.9381    6.1009    1.9479 C   0  0  0  1  0  0  0  0  0  0  0  0
   -2.2824    4.9010    2.1493 C   0  0  0  1  0  0  0  0  0  0  0  0
   -2.1315    4.0091    1.0990 C   0  0  0  1  0  0  0  0  0  0  0  0
   -2.6320    4.3218   -0.1508 C   0  0  0  1  0  0  0  0  0  0  0  0
   -3.2897    5.5252   -0.3526 C   0  0  0  1  0  0  0  0  0  0  0  0
   -1.4121    2.7100    1.3751 C   0  0  0  1  0  0  0  0  0  0  0  0
   -3.0549    6.7683    2.7368 H   0  0  0  1  0  0  0  0  0  0  0  0
   -1.9022    4.6674    3.0887 H   0  0  0  1  0  0  0  0  0  0  0  0
   -2.5152    3.6543   -0.9397 H   0  0  0  1  0  0  0  0  0  0  0  0
   -3.6699    5.7589   -1.2920 H   0  0  0  1  0  0  0  0  0  0  0  0
   -0.6141    2.6059    0.6699 H   0  0  0  1  0  0  0  0  0  0  0  0
   -1.0103    2.7472    2.3661 H   0  0  0  1  0  0  0  0  0  0  0  0
  1  4  1  0  0  0  0
  2  4  1  0  0  0  0
  2  5  2  0  0  0  0
  2  6  1  0  0  0  0
  3  4  1  0  0  0  0
  3  7  1  0  0  0  0
  3  8  1  0  0  0  0
  4 26  1  0  0  0  0
  6  9  1  0  0  0  0
  6 12  1  0  0  0  0
  8 10  1  0  0  0  0
  8 11  2  0  0  0  0
  9 13  1  0  0  0  0
  9 14  1  0  0  0  0
  9 15  1  0  0  0  0
 10 16  1  0  0  0  0
 10 17  1  0  0  0  0
 10 18  1  0  0  0  0
 19 20  1  0  0  0  0
 20 21  4  0  0  0  0
 20 25  4  0  0  0  0
 21 22  4  0  0  0  0
 21 27  1  0  0  0  0
 22 23  4  0  0  0  0
 22 28  1  0  0  0  0
 23 24  4  0  0  0  0
 23 26  1  0  0  0  0
 24 25  4  0  0  0  0
 24 29  1  0  0  0  0
 25 30  1  0  0  0  0
 26 31  1  0  0  0  0
 26 32  1  0  0  0  0
M  END
> <BCLConfClusterSize>
1

> <ConfClashScore>
0 

> <ConfOneFourInteractionScore>
-0.960318 

> <ConfScore>
-0.283156 

> <ConfScorePBest>
0.00760599 

> <ConfTolerance>
0.17008 

> <RosettaParamsInstructions>
M  ROOT 3
M  POLY_N_BB 3
M  POLY_CA_BB 4
M  POLY_C_BB 2
M  POLY_O_BB 5
M  POLY_IGNORE 9 10 11 12 13 14 15 16 17 18 
M  POLY_UPPER 6
M  POLY_LOWER 8
M  POLY_CHG 0
M  POLY_PROPERTIES ALPHA_AA L_AA PROTEIN AROMATIC POLYMER 
M  END

$$$$



 32 32  0  0  0  0  0  0  0  0999 V2000
   -3.1222    1.4503    1.3057 H   0  0  0  1  0  0  0  0  0  0  0  0
   -1.5625    0.3225    2.1574 C   0  0  0  1  0  0  0  0  0  0  0  0
   -2.8630    2.1387    3.2275 N   0  0  0  1  0  0  0  0  0  0  0  0
   -2.3111    1.6345    1.9788 C   0  0  0  1  0  0  0  0  0  0  0  0
   -1.4420   -0.4715    1.2258 O   0  0  0  1  0  0  0  0  0  0  0  0
   -0.9768    0.1305    3.3442 N   0  0  0  1  0  0  0  0  0  0  0  0
   -2.4700    2.9421    3.6281 H   0  0  0  1  0  0  0  0  0  0  0  0
   -3.8868    1.5442    3.8467 C   0  0  0  1  0  0  0  0  0  0  0  0
   -0.2191   -1.0546    3.7173 C   0  0  0  1  0  0  0  0  0  0  0  0
   -4.2594    2.1159    5.2008 C   0  0  0  1  0  0  0  0  0  0  0  0
   -4.4991    0.5945    3.3656 O   0  0  0  1  0  0  0  0  0  0  0  0
   -1.0645    0.8414    4.0130 H   0  0  0  1  0  0  0  0  0  0  0  0
   -0.1507   -1.7139    2.8773 H   0  0  0  1  0  0  0  0  0  0  0  0
   -0.7138   -1.5548    4.5236 H   0  0  0  1  0  0  0  0  0  0  0  0
    0.7643   -0.7666    4.0254 H   0  0  0  1  0  0  0  0  0  0  0  0
   -3.5280    1.8241    5.9252 H   0  0  0  1  0  0  0  0  0  0  0  0
   -5.2189    1.7436    5.4932 H   0  0  0  1  0  0  0  0  0  0  0  0
   -4.2941    3.1836    5.1396 H   0  0  0  1  0  0  0  0  0  0  0  0
   -4.4301    8.0052    0.4437 Br  0  0  0  1  0  0  0  0  0  0  0  0
   -3.4402    6.4149    0.6951 C   0  0  0  1  0  0  0  0  0  0  0  0
   -2.9395    6.1049    1.9500 C   0  0  0  1  0  0  0  0  0  0  0  0
   -2.2831    4.9061    2.1555 C   0  0  0  1  0  0  0  0  0  0  0  0
   -2.1302    4.0114    1.1079 C   0  0  0  1  0  0  0  0  0  0  0  0
   -2.6293    4.3203   -0.1435 C   0  0  0  1  0  0  0  0  0  0  0  0
   -3.2876    5.5227   -0.3494 C   0  0  0  1  0  0  0  0  0  0  0  0
   -1.4180    2.6985    1.3331 C   0  0  0  1  0  0  0  0  0  0  0  0
   -3.0578    6.7744    2.7369 H   0  0  0  1  0  0  0  0  0  0  0  0
   -1.9040    4.6754    3.0960 H   0  0  0  1  0  0  0  0  0  0  0  0
   -2.5109    3.6507   -0.9304 H   0  0  0  1  0  0  0  0  0  0  0  0
   -3.6667    5.7534   -1.2900 H   0  0  0  1  0  0  0  0  0  0  0  0
   -1.0772    2.3295    0.3884 H   0  0  0  1  0  0  0  0  0  0  0  0
   -0.5781    2.8721    1.9728 H   0  0  0  1  0  0  0  0  0  0  0  0
  1  4  1  0  0  0  0
  2  4  1  0  0  0  0
  2  5  2  0  0  0  0
  2  6  1  0  0  0  0
  3  4  1  0  0  0  0
  3  7  1  0  0  0  0
  3  8  1  0  0  0  0
  4 26  1  0  0  0  0
  6  9  1  0  0  0  0
  6 12  1  0  0  0  0
  8 10  1  0  0  0  0
  8 11  2  0  0  0  0
  9 13  1  0  0  0  0
  9 14  1  0  0  0  0
  9 15  1  0  0  0  0
 10 16  1  0  0  0  0
 10 17  1  0  0  0  0
 10 18  1  0  0  0  0
 19 20  1  0  0  0  0
 20 21  4  0  0  0  0
 20 25  4  0  0  0  0
 21 22  4  0  0  0  0
 21 27  1  0  0  0  0
 22 23  4  0  0  0  0
 22 28  1  0  0  0  0
 23 24  4  0  0  0  0
 23 26  1  0  0  0  0
 24 25  4  0  0  0  0
 24 29  1  0  0  0  0
 25 30  1  0  0  0  0
 26 31  1  0  0  0  0
 26 32  1  0  0  0  0
M  END
> <BCLConfClusterSize>
1

> <ConfClashScore>
0 

> <ConfOneFourInteractionScore>
-0.960318 

> <ConfScore>
-0.275168 

> <ConfScorePBest>
0.00757751 

> <ConfTolerance>
0.183806 

> <RosettaParamsInstructions>
M  ROOT 3
M  POLY_N_BB 3
M  POLY_CA_BB 4
M  POLY_C_BB 2
M  POLY_O_BB 5
M  POLY_IGNORE 9 10 11 12 13 14 15 16 17 18 
M  POLY_UPPER 6
M  POLY_LOWER 8
M  POLY_CHG 0
M  POLY_PROPERTIES ALPHA_AA L_AA PROTEIN AROMATIC POLYMER 
M  END

$$$$



 32 32  0  0  0  0  0  0  0  0999 V2000
   -3.1685    1.5398    1.2046 H   0  0  0  1  0  0  0  0  0  0  0  0
   -1.5966    0.2178    1.6561 C   0  0  0  1  0  0  0  0  0  0  0  0
   -2.7139    1.8037    3.1924 N   0  0  0  1  0  0  0  0  0  0  0  0
   -2.2948    1.5573    1.8220 C   0  0  0  1  0  0  0  0  0  0  0  0
   -0.9545   -0.2821    2.5785 O   0  0  0  1  0  0  0  0  0  0  0  0
   -1.7952   -0.4149    0.4947 N   0  0  0  1  0  0  0  0  0  0  0  0
   -2.0620    2.1147    3.8547 H   0  0  0  1  0  0  0  0  0  0  0  0
   -3.9860    1.6068    3.5506 C   0  0  0  1  0  0  0  0  0  0  0  0
   -1.0967   -1.6440    0.1497 C   0  0  0  1  0  0  0  0  0  0  0  0
   -4.3208    1.9267    4.9944 C   0  0  0  1  0  0  0  0  0  0  0  0
   -4.8374    1.1966    2.7791 O   0  0  0  1  0  0  0  0  0  0  0  0
   -2.4334   -0.0376   -0.1463 H   0  0  0  1  0  0  0  0  0  0  0  0
   -0.7535   -2.1226    1.0431 H   0  0  0  1  0  0  0  0  0  0  0  0
   -0.2595   -1.4146   -0.4759 H   0  0  0  1  0  0  0  0  0  0  0  0
   -1.7634   -2.2986   -0.3717 H   0  0  0  1  0  0  0  0  0  0  0  0
   -3.7075    1.3361    5.6425 H   0  0  0  1  0  0  0  0  0  0  0  0
   -5.3512    1.7049    5.1789 H   0  0  0  1  0  0  0  0  0  0  0  0
   -4.1400    2.9647    5.1807 H   0  0  0  1  0  0  0  0  0  0  0  0
   -4.4301    8.0052    0.4437 Br  0  0  0  1  0  0  0  0  0  0  0  0
   -3.4402    6.4149    0.6951 C   0  0  0  1  0  0  0  0  0  0  0  0
   -2.9395    6.1049    1.9500 C   0  0  0  1  0  0  0  0  0  0  0  0
   -2.2831    4.9061    2.1555 C   0  0  0  1  0  0  0  0  0  0  0  0
   -2.1302    4.0114    1.1079 C   0  0  0  1  0  0  0  0  0  0  0  0
   -2.6293    4.3203   -0.1435 C   0  0  0  1  0  0  0  0  0  0  0  0
   -3.2876    5.5227   -0.3494 C   0  0  0  1  0  0  0  0  0  0  0  0
   -1.4180    2.6985    1.3331 C   0  0  0  1  0  0  0  0  0  0  0  0
   -3.0578    6.7744    2.7369 H   0  0  0  1  0  0  0  0  0  0  0  0
   -1.9040    4.6754    3.0960 H   0  0  0  1  0  0  0  0  0  0  0  0
   -2.5109    3.6507   -0.9304 H   0  0  0  1  0  0  0  0  0  0  0  0
   -3.6667    5.7534   -1.2900 H   0  0  0  1  0  0  0  0  0  0  0  0
   -0.9745    2.4003    0.4061 H   0  0  0  1  0  0  0  0  0  0  0  0
   -0.6503    2.8600    2.0607 H   0  0  0  1  0  0  0  0  0  0  0  0
  1  4  1  0  0  0  0
  2  4  1  0  0  0  0
  2  5  2  0  0  0  0
  2  6  1  0  0  0  0
  3  4  1  0  0  0  0
  3  7  1  0  0  0  0
  3  8  1  0  0  0  0
  4 26  1  0  0  0  0
  6  9  1  0  0  0  0
  6 12  1  0  0  0  0
  8 10  1  0  0  0  0
  8 11  2  0  0  0  0
  9 13  1  0  0  0  0
  9 14  1  0  0  0  0
  9 15  1  0  0  0  0
 10 16  1  0  0  0  0
 10 17  1  0  0  0  0
 10 18  1  0  0  0  0
 19 20  1  0  0  0  0
 20 21  4  0  0  0  0
 20 25  4  0  0  0  0
 21 22  4  0  0  0  0
 21 27  1  0  0  0  0
 22 23  4  0  0  0  0
 22 28  1  0  0  0  0
 23 24  4  0  0  0  0
 23 26  1  0  0  0  0
 24 25  4  0  0  0  0
 24 29  1  0  0  0  0
 25 30  1  0  0  0  0
 26 31  1  0  0  0  0
 26 32  1  0  0  0  0
M  END
> <BCLConfClusterSize>
1

> <ConfClashScore>
0 

> <ConfOneFourInteractionScore>
-0.978127 

> <ConfScore>
-0.273186 

> <ConfScorePBest>
0.00754903 

> <ConfTolerance>
0.159294 

> <RosettaParamsInstructions>
M  ROOT 3
M  POLY_N_BB 3
M  POLY_CA_BB 4
M  POLY_C_BB 2
M  POLY_O_BB 5
M  POLY_IGNORE 9 10 11 12 13 14 15 16 17 18 
M  POLY_UPPER 6
M  POLY_LOWER 8
M  POLY_CHG 0
M  POLY_PROPERTIES ALPHA_AA L_AA PROTEIN AROMATIC POLYMER 
M  END

$$$$



 32 32  0  0  0  0  0  0  0  0999 V2000
   -3.0837    1.5236    0.7615 H   0  0  0  1  0  0  0  0  0  0  0  0
   -1.5664    0.1616    1.3738 C   0  0  0  1  0  0  0  0  0  0  0  0
   -2.9392    1.4893    2.8283 N   0  0  0  1  0  0  0  0  0  0  0  0
   -2.3216    1.4895    1.5118 C   0  0  0  1  0  0  0  0  0  0  0  0
   -1.4885   -0.3879    0.2762 O   0  0  0  1  0  0  0  0  0  0  0  0
   -0.9463   -0.2955    2.4669 N   0  0  0  1  0  0  0  0  0  0  0  0
   -2.6007    2.0869    3.5273 H   0  0  0  1  0  0  0  0  0  0  0  0
   -3.9672    0.6760    3.0869 C   0  0  0  1  0  0  0  0  0  0  0  0
   -0.1359   -1.5042    2.4528 C   0  0  0  1  0  0  0  0  0  0  0  0
   -4.4779    0.6933    4.5145 C   0  0  0  1  0  0  0  0  0  0  0  0
   -4.4797   -0.0479    2.2342 O   0  0  0  1  0  0  0  0  0  0  0  0
   -1.0409    0.2007    3.3067 H   0  0  0  1  0  0  0  0  0  0  0  0
    0.6012   -1.4311    1.6806 H   0  0  0  1  0  0  0  0  0  0  0  0
   -0.7627   -2.3515    2.2681 H   0  0  0  1  0  0  0  0  0  0  0  0
    0.3497   -1.6188    3.3994 H   0  0  0  1  0  0  0  0  0  0  0  0
   -4.2331    1.6300    4.9701 H   0  0  0  1  0  0  0  0  0  0  0  0
   -4.0209   -0.1015    5.0662 H   0  0  0  1  0  0  0  0  0  0  0  0
   -5.5400    0.5636    4.5147 H   0  0  0  1  0  0  0  0  0  0  0  0
   -4.4301    8.0052    0.4437 Br  0  0  0  1  0  0  0  0  0  0  0  0
   -3.4402    6.4149    0.6951 C   0  0  0  1  0  0  0  0  0  0  0  0
   -2.9395    6.1049    1.9500 C   0  0  0  1  0  0  0  0  0  0  0  0
   -2.2831    4.9061    2.1555 C   0  0  0  1  0  0  0  0  0  0  0  0
   -2.1302    4.0114    1.1079 C   0  0  0  1  0  0  0  0  0  0  0  0
   -2.6293    4.3203   -0.1435 C   0  0  0  1  0  0  0  0  0  0  0  0
   -3.2876    5.5227   -0.3494 C   0  0  0  1  0  0  0  0  0  0  0  0
   -1.4180    2.6985    1.3331 C   0  0  0  1  0  0  0  0  0  0  0  0
   -3.0578    6.7744    2.7369 H   0  0  0  1  0  0  0  0  0  0  0  0
   -1.9040    4.6754    3.0960 H   0  0  0  1  0  0  0  0  0  0  0  0
   -2.5109    3.6507   -0.9304 H   0  0  0  1  0  0  0  0  0  0  0  0
   -3.6667    5.7534   -1.2900 H   0  0  0  1  0  0  0  0  0  0  0  0
   -0.7864    2.5166    0.4888 H   0  0  0  1  0  0  0  0  0  0  0  0
   -0.8181    2.7953    2.2138 H   0  0  0  1  0  0  0  0  0  0  0  0
  1  4  1  0  0  0  0
  2  4  1  0  0  0  0
  2  5  2  0  0  0  0
  2  6  1  0  0  0  0
  3  4  1  0  0  0  0
  3  7  1  0  0  0  0
  3  8  1  0  0  0  0
  4 26  1  0  0  0  0
  6  9  1  0  0  0  0
  6 12  1  0  0  0  0
  8 10  1  0  0  0  0
  8 11  2  0  0  0  0
  9 13  1  0  0  0  0
  9 14  1  0  0  0  0
  9 15  1  0  0  0  0
 10 16  1  0  0  0  0
 10 17  1  0  0  0  0
 10 18  1  0  0  0  0
 19 20  1  0  0  0  0
 20 21  4  0  0  0  0
 20 25  4  0  0  0  0
 21 22  4  0  0  0  0
 21 27  1  0  0  0  0
 22 23  4  0  0  0  0
 22 28  1  0  0  0  0
 23 24  4  0  0  0  0
 23 26  1  0  0  0  0
 24 25  4  0  0  0  0
 24 29  1  0  0  0  0
 25 30  1  0  0  0  0
 26 31  1  0  0  0  0
 26 32  1  0  0  0  0
M  END
> <BCLConfClusterSize>
1

> <ConfClashScore>
0 

> <ConfOneFourInteractionScore>
-0.956443 

> <ConfScore>
-0.268835 

> <ConfScorePBest>
0.00752055 

> <ConfTolerance>
0.189888 

> <RosettaParamsInstructions>
M  ROOT 3
M  POLY_N_BB 3
M  POLY_CA_BB 4
M  POLY_C_BB 2
M  POLY_O_BB 5
M  POLY_IGNORE 9 10 11 12 13 14 15 16 17 18 
M  POLY_UPPER 6
M  POLY_LOWER 8
M  POLY_CHG 0
M  POLY_PROPERTIES ALPHA_AA L_AA PROTEIN AROMATIC POLYMER 
M  END

$$$$



 32 32  0  0  0  0  0  0  0  0999 V2000
    0.3970    3.5852    2.0300 H   0  0  0  1  0  0  0  0  0  0  0  0
    0.8030    1.5427    1.6730 C   0  0  0  1  0  0  0  0  0  0  0  0
    0.4781    3.2946   -0.0154 N   0  0  0  1  0  0  0  0  0  0  0  0
    0.1040    2.8434    1.3167 C   0  0  0  1  0  0  0  0  0  0  0  0
    1.2258    0.7887    0.7980 O   0  0  0  1  0  0  0  0  0  0  0  0
    1.0065    1.3160    2.9752 N   0  0  0  1  0  0  0  0  0  0  0  0
    0.1275    2.7909   -0.7794 H   0  0  0  1  0  0  0  0  0  0  0  0
    1.2635    4.3437   -0.2751 C   0  0  0  1  0  0  0  0  0  0  0  0
    1.7305    0.1769    3.5194 C   0  0  0  1  0  0  0  0  0  0  0  0
    1.3878    4.7248   -1.7284 C   0  0  0  1  0  0  0  0  0  0  0  0
    1.8543    4.9699    0.6008 O   0  0  0  1  0  0  0  0  0  0  0  0
    0.6404    1.9659    3.6108 H   0  0  0  1  0  0  0  0  0  0  0  0
    1.1587   -0.7148    3.3688 H   0  0  0  1  0  0  0  0  0  0  0  0
    1.8916    0.3244    4.5668 H   0  0  0  1  0  0  0  0  0  0  0  0
    2.6736    0.0838    3.0226 H   0  0  0  1  0  0  0  0  0  0  0  0
    0.4238    4.9845   -2.1133 H   0  0  0  1  0  0  0  0  0  0  0  0
    1.7814    3.8977   -2.2813 H   0  0  0  1  0  0  0  0  0  0  0  0
    2.0465    5.5629   -1.8220 H   0  0  0  1  0  0  0  0  0  0  0  0
   -4.4293    8.0064    0.4488 Br  0  0  0  1  0  0  0  0  0  0  0  0
   -3.4402    6.4147    0.6945 C   0  0  0  1  0  0  0  0  0  0  0  0
   -2.9381    6.1009    1.9479 C   0  0  0  1  0  0  0  0  0  0  0  0
   -2.2824    4.9010    2.1493 C   0  0  0  1  0  0  0  0  0  0  0  0
   -2.1315    4.0091    1.0990 C   0  0  0  1  0  0  0  0  0  0  0  0
   -2.6320    4.3218   -0.1508 C   0  0  0  1  0  0  0  0  0  0  0  0
   -3.2897    5.5252   -0.3526 C   0  0  0  1  0  0  0  0  0  0  0  0
   -1.4121    2.7100    1.3751 C   0  0  0  1  0  0  0  0  0  0  0  0
   -3.0549    6.7683    2.7368 H   0  0  0  1  0  0  0  0  0  0  0  0
   -1.9022    4.6674    3.0887 H   0  0  0  1  0  0  0  0  0  0  0  0
   -2.5152    3.6543   -0.9397 H   0  0  0  1  0  0  0  0  0  0  0  0
   -3.6699    5.7589   -1.2920 H   0  0  0  1  0  0  0  0  0  0  0  0
   -1.6866    2.3696    2.3517 H   0  0  0  1  0  0  0  0  0  0  0  0
   -1.7189    1.9892    0.6463 H   0  0  0  1  0  0  0  0  0  0  0  0
  1  4  1  0  0  0  0
  2  4  1  0  0  0  0
  2  5  2  0  0  0  0
  2  6  1  0  0  0  0
  3  4  1  0  0  0  0
  3  7  1  0  0  0  0
  3  8  1  0  0  0  0
  4 26  1  0  0  0  0
  6  9  1  0  0  0  0
  6 12  1  0  0  0  0
  8 10  1  0  0  0  0
  8 11  2  0  0  0  0
  9 13  1  0  0  0  0
  9 14  1  0  0  0  0
  9 15  1  0  0  0  0
 10 16  1  0  0  0  0
 10 17  1  0  0  0  0
 10 18  1  0  0  0  0
 19 20  1  0  0  0  0
 20 21  4  0  0  0  0
 20 25  4  0  0  0  0
 21 22  4  0  0  0  0
 21 27  1  0  0  0  0
 22 23  4  0  0  0  0
 22 28  1  0  0  0  0
 23 24  4  0  0  0  0
 23 26  1  0  0  0  0
 24 25  4  0  0  0  0
 24 29  1  0  0  0  0
 25 30  1  0  0  0  0
 26 31  1  0  0  0  0
 26 32  1  0  0  0  0
M  END
> <BCLConfClusterSize>
1

> <ConfClashScore>
0 

> <ConfOneFourInteractionScore>
-0.985807 

> <ConfScore>
-0.267798 

> <ConfScorePBest>
0.00749207 

> <ConfTolerance>
0.191174 

> <RosettaParamsInstructions>
M  ROOT 3
M  POLY_N_BB 3
M  POLY_CA_BB 4
M  POLY_C_BB 2
M  POLY_O_BB 5
M  POLY_IGNORE 9 10 11 12 13 14 15 16 17 18 
M  POLY_UPPER 6
M  POLY_LOWER 8
M  POLY_CHG 0
M  POLY_PROPERTIES ALPHA_AA L_AA PROTEIN AROMATIC POLYMER 
M  END

$$$$



 32 32  0  0  0  0  0  0  0  0999 V2000
    0.5221    3.4813    1.5306 H   0  0  0  1  0  0  0  0  0  0  0  0
    0.7945    1.4273    1.1568 C   0  0  0  1  0  0  0  0  0  0  0  0
    0.1283    3.1794   -0.4724 N   0  0  0  1  0  0  0  0  0  0  0  0
    0.0487    2.7375    0.9243 C   0  0  0  1  0  0  0  0  0  0  0  0
    1.1306    1.0910    2.2910 O   0  0  0  1  0  0  0  0  0  0  0  0
    0.9569    0.6726    0.0608 N   0  0  0  1  0  0  0  0  0  0  0  0
   -0.6989    3.4156   -0.9417 H   0  0  0  1  0  0  0  0  0  0  0  0
    1.2834    3.2703   -1.1234 C   0  0  0  1  0  0  0  0  0  0  0  0
    1.5773   -0.6411   -0.0234 C   0  0  0  1  0  0  0  0  0  0  0  0
    1.2240    3.8701   -2.5308 C   0  0  0  1  0  0  0  0  0  0  0  0
    2.3815    2.9181   -0.6963 O   0  0  0  1  0  0  0  0  0  0  0  0
    0.6195    1.0482   -0.7791 H   0  0  0  1  0  0  0  0  0  0  0  0
    2.3302   -0.7296    0.7317 H   0  0  0  1  0  0  0  0  0  0  0  0
    2.0240   -0.7631   -0.9880 H   0  0  0  1  0  0  0  0  0  0  0  0
    0.8340   -1.3965    0.1242 H   0  0  0  1  0  0  0  0  0  0  0  0
    1.1139    3.0849   -3.2493 H   0  0  0  1  0  0  0  0  0  0  0  0
    2.1274    4.4088   -2.7271 H   0  0  0  1  0  0  0  0  0  0  0  0
    0.3891    4.5358   -2.5996 H   0  0  0  1  0  0  0  0  0  0  0  0
   -4.4301    8.0052    0.4437 Br  0  0  0  1  0  0  0  0  0  0  0  0
   -3.4402    6.4149    0.6951 C   0  0  0  1  0  0  0  0  0  0  0  0
   -2.9395    6.1049    1.9500 C   0  0  0  1  0  0  0  0  0  0  0  0
   -2.2831    4.9061    2.1555 C   0  0  0  1  0  0  0  0  0  0  0  0
   -2.1302    4.0114    1.1079 C   0  0  0  1  0  0  0  0  0  0  0  0
   -2.6293    4.3203   -0.1435 C   0  0  0  1  0  0  0  0  0  0  0  0
   -3.2876    5.5227   -0.3494 C   0  0  0  1  0  0  0  0  0  0  0  0
   -1.4180    2.6985    1.3331 C   0  0  0  1  0  0  0  0  0  0  0  0
   -3.0578    6.7744    2.7369 H   0  0  0  1  0  0  0  0  0  0  0  0
   -1.9040    4.6754    3.0960 H   0  0  0  1  0  0  0  0  0  0  0  0
   -2.5109    3.6507   -0.9304 H   0  0  0  1  0  0  0  0  0  0  0  0
   -3.6667    5.7534   -1.2900 H   0  0  0  1  0  0  0  0  0  0  0  0
   -1.4753    2.4541    2.3732 H   0  0  0  1  0  0  0  0  0  0  0  0
   -1.9111    1.9410    0.7605 H   0  0  0  1  0  0  0  0  0  0  0  0
  1  4  1  0  0  0  0
  2  4  1  0  0  0  0
  2  5  2  0  0  0  0
  2  6  1  0  0  0  0
  3  4  1  0  0  0  0
  3  7  1  0  0  0  0
  3  8  1  0  0  0  0
  4 26  1  0  0  0  0
  6  9  1  0  0  0  0
  6 12  1  0  0  0  0
  8 10  1  0  0  0  0
  8 11  2  0  0  0  0
  9 13  1  0  0  0  0
  9 14  1  0  0  0  0
  9 15  1  0  0  0  0
 10 16  1  0  0  0  0
 10 17  1  0  0  0  0
 10 18  1  0  0  0  0
 19 20  1  0  0  0  0
 20 21  4  0  0  0  0
 20 25  4  0  0  0  0
 21 22  4  0  0  0  0
 21 27  1  0  0  0  0
 22 23  4  0  0  0  0
 22 28  1  0  0  0  0
 23 24  4  0  0  0  0
 23 26  1  0  0  0  0
 24 25  4  0  0  0  0
 24 29  1  0  0  0  0
 25 30  1  0  0  0  0
 26 31  1  0  0  0  0
 26 32  1  0  0  0  0
M  END
> <BCLConfClusterSize>
1

> <ConfClashScore>
0 

> <ConfOneFourInteractionScore>
-0.960318 

> <ConfScore>
-0.263479 

> <ConfScorePBest>
0.00746359 

> <ConfTolerance>
0.271752 

> <RosettaParamsInstructions>
M  ROOT 3
M  POLY_N_BB 3
M  POLY_CA_BB 4
M  POLY_C_BB 2
M  POLY_O_BB 5
M  POLY_IGNORE 9 10 11 12 13 14 15 16 17 18 
M  POLY_UPPER 6
M  POLY_LOWER 8
M  POLY_CHG 0
M  POLY_PROPERTIES ALPHA_AA L_AA PROTEIN AROMATIC POLYMER 
M  END

$$$$



 32 32  0  0  0  0  0  0  0  0999 V2000
   -3.0489    1.3489    1.1708 H   0  0  0  1  0  0  0  0  0  0  0  0
   -1.5913    0.4277    2.4120 C   0  0  0  1  0  0  0  0  0  0  0  0
   -3.1280    2.2312    3.0401 N   0  0  0  1  0  0  0  0  0  0  0  0
   -2.3698    1.6609    1.9366 C   0  0  0  1  0  0  0  0  0  0  0  0
   -1.4935   -0.5552    1.6793 O   0  0  0  1  0  0  0  0  0  0  0  0
   -0.9745    0.5234    3.5947 N   0  0  0  1  0  0  0  0  0  0  0  0
   -2.8518    3.0973    3.4060 H   0  0  0  1  0  0  0  0  0  0  0  0
   -4.2211    1.5954    3.5885 C   0  0  0  1  0  0  0  0  0  0  0  0
   -0.1408   -0.5448    4.1254 C   0  0  0  1  0  0  0  0  0  0  0  0
   -4.9178    2.3278    4.6981 C   0  0  0  1  0  0  0  0  0  0  0  0
   -4.5675    0.5071    3.1696 O   0  0  0  1  0  0  0  0  0  0  0  0
   -1.0879    1.3414    4.1224 H   0  0  0  1  0  0  0  0  0  0  0  0
   -0.2841   -1.4318    3.5444 H   0  0  0  1  0  0  0  0  0  0  0  0
   -0.4124   -0.7371    5.1424 H   0  0  0  1  0  0  0  0  0  0  0  0
    0.8870   -0.2509    4.0797 H   0  0  0  1  0  0  0  0  0  0  0  0
   -4.2566    3.0593    5.1134 H   0  0  0  1  0  0  0  0  0  0  0  0
   -5.2037    1.6326    5.4595 H   0  0  0  1  0  0  0  0  0  0  0  0
   -5.7896    2.8135    4.3122 H   0  0  0  1  0  0  0  0  0  0  0  0
   -4.4301    8.0052    0.4437 Br  0  0  0  1  0  0  0  0  0  0  0  0
   -3.4402    6.4149    0.6951 C   0  0  0  1  0  0  0  0  0  0  0  0
   -2.9395    6.1049    1.9500 C   0  0  0  1  0  0  0  0  0  0  0  0
   -2.2831    4.9061    2.1555 C   0  0  0  1  0  0  0  0  0  0  0  0
   -2.1302    4.0114    1.1079 C   0  0  0  1  0  0  0  0  0  0  0  0
   -2.6293    4.3203   -0.1435 C   0  0  0  1  0  0  0  0  0  0  0  0
   -3.2876    5.5227   -0.3494 C   0  0  0  1  0  0  0  0  0  0  0  0
   -1.4180    2.6985    1.3331 C   0  0  0  1  0  0  0  0  0  0  0  0
   -3.0578    6.7744    2.7369 H   0  0  0  1  0  0  0  0  0  0  0  0
   -1.9040    4.6754    3.0960 H   0  0  0  1  0  0  0  0  0  0  0  0
   -2.5109    3.6507   -0.9304 H   0  0  0  1  0  0  0  0  0  0  0  0
   -3.6667    5.7534   -1.2900 H   0  0  0  1  0  0  0  0  0  0  0  0
   -1.0497    2.3341    0.3969 H   0  0  0  1  0  0  0  0  0  0  0  0
   -0.5985    2.8544    2.0031 H   0  0  0  1  0  0  0  0  0  0  0  0
  1  4  1  0  0  0  0
  2  4  1  0  0  0  0
  2  5  2  0  0  0  0
  2  6  1  0  0  0  0
  3  4  1  0  0  0  0
  3  7  1  0  0  0  0
  3  8  1  0  0  0  0
  4 26  1  0  0  0  0
  6  9  1  0  0  0  0
  6 12  1  0  0  0  0
  8 10  1  0  0  0  0
  8 11  2  0  0  0  0
  9 13  1  0  0  0  0
  9 14  1  0  0  0  0
  9 15  1  0  0  0  0
 10 16  1  0  0  0  0
 10 17  1  0  0  0  0
 10 18  1  0  0  0  0
 19 20  1  0  0  0  0
 20 21  4  0  0  0  0
 20 25  4  0  0  0  0
 21 22  4  0  0  0  0
 21 27  1  0  0  0  0
 22 23  4  0  0  0  0
 22 28  1  0  0  0  0
 23 24  4  0  0  0  0
 23 26  1  0  0  0  0
 24 25  4  0  0  0  0
 24 29  1  0  0  0  0
 25 30  1  0  0  0  0
 26 31  1  0  0  0  0
 26 32  1  0  0  0  0
M  END
> <BCLConfClusterSize>
1

> <ConfClashScore>
0 

> <ConfOneFourInteractionScore>
-0.928132 

> <ConfScore>
-0.258399 

> <ConfScorePBest>
0.0074351 

> <ConfTolerance>
0.25822 

> <RosettaParamsInstructions>
M  ROOT 3
M  POLY_N_BB 3
M  POLY_CA_BB 4
M  POLY_C_BB 2
M  POLY_O_BB 5
M  POLY_IGNORE 9 10 11 12 13 14 15 16 17 18 
M  POLY_UPPER 6
M  POLY_LOWER 8
M  POLY_CHG 0
M  POLY_PROPERTIES ALPHA_AA L_AA PROTEIN AROMATIC POLYMER 
M  END

$$$$



 32 32  0  0  0  0  0  0  0  0999 V2000
    0.4962    3.3897    1.9356 H   0  0  0  1  0  0  0  0  0  0  0  0
    0.6886    1.4026    1.2169 C   0  0  0  1  0  0  0  0  0  0  0  0
    0.3905    3.4205   -0.1377 N   0  0  0  1  0  0  0  0  0  0  0  0
    0.0899    2.7973    1.1426 C   0  0  0  1  0  0  0  0  0  0  0  0
    0.7660    0.6909    0.2169 O   0  0  0  1  0  0  0  0  0  0  0  0
    1.1992    1.0384    2.3980 N   0  0  0  1  0  0  0  0  0  0  0  0
    0.0010    3.0395   -0.9523 H   0  0  0  1  0  0  0  0  0  0  0  0
    1.1972    4.5184   -0.2436 C   0  0  0  1  0  0  0  0  0  0  0  0
    1.7383   -0.2925    2.6347 C   0  0  0  1  0  0  0  0  0  0  0  0
    1.5215    4.8941   -1.6718 C   0  0  0  1  0  0  0  0  0  0  0  0
    1.6023    5.1186    0.7347 O   0  0  0  1  0  0  0  0  0  0  0  0
    1.2107    1.6904    3.1296 H   0  0  0  1  0  0  0  0  0  0  0  0
    2.4849   -0.5113    1.9001 H   0  0  0  1  0  0  0  0  0  0  0  0
    0.9504   -1.0133    2.5678 H   0  0  0  1  0  0  0  0  0  0  0  0
    2.1761   -0.3313    3.6103 H   0  0  0  1  0  0  0  0  0  0  0  0
    1.4210    4.0332   -2.2992 H   0  0  0  1  0  0  0  0  0  0  0  0
    2.5260    5.2587   -1.7251 H   0  0  0  1  0  0  0  0  0  0  0  0
    0.8469    5.6563   -2.0018 H   0  0  0  1  0  0  0  0  0  0  0  0
   -4.4301    8.0052    0.4437 Br  0  0  0  1  0  0  0  0  0  0  0  0
   -3.4402    6.4149    0.6951 C   0  0  0  1  0  0  0  0  0  0  0  0
   -2.9395    6.1049    1.9500 C   0  0  0  1  0  0  0  0  0  0  0  0
   -2.2831    4.9061    2.1555 C   0  0  0  1  0  0  0  0  0  0  0  0
   -2.1302    4.0114    1.1079 C   0  0  0  1  0  0  0  0  0  0  0  0
   -2.6293    4.3203   -0.1435 C   0  0  0  1  0  0  0  0  0  0  0  0
   -3.2876    5.5227   -0.3494 C   0  0  0  1  0  0  0  0  0  0  0  0
   -1.4180    2.6985    1.3331 C   0  0  0  1  0  0  0  0  0  0  0  0
   -3.0578    6.7744    2.7369 H   0  0  0  1  0  0  0  0  0  0  0  0
   -1.9040    4.6754    3.0960 H   0  0  0  1  0  0  0  0  0  0  0  0
   -2.5109    3.6507   -0.9304 H   0  0  0  1  0  0  0  0  0  0  0  0
   -3.6667    5.7534   -1.2900 H   0  0  0  1  0  0  0  0  0  0  0  0
   -1.6143    2.3718    2.3329 H   0  0  0  1  0  0  0  0  0  0  0  0
   -1.8024    1.9793    0.6404 H   0  0  0  1  0  0  0  0  0  0  0  0
  1  4  1  0  0  0  0
  2  4  1  0  0  0  0
  2  5  2  0  0  0  0
  2  6  1  0  0  0  0
  3  4  1  0  0  0  0
  3  7  1  0  0  0  0
  3  8  1  0  0  0  0
  4 26  1  0  0  0  0
  6  9  1  0  0  0  0
  6 12  1  0  0  0  0
  8 10  1  0  0  0  0
  8 11  2  0  0  0  0
  9 13  1  0  0  0  0
  9 14  1  0  0  0  0
  9 15  1  0  0  0  0
 10 16  1  0  0  0  0
 10 17  1  0  0  0  0
 10 18  1  0  0  0  0
 19 20  1  0  0  0  0
 20 21  4  0  0  0  0
 20 25  4  0  0  0  0
 21 22  4  0  0  0  0
 21 27  1  0  0  0  0
 22 23  4  0  0  0  0
 22 28  1  0  0  0  0
 23 24  4  0  0  0  0
 23 26  1  0  0  0  0
 24 25  4  0  0  0  0
 24 29  1  0  0  0  0
 25 30  1  0  0  0  0
 26 31  1  0  0  0  0
 26 32  1  0  0  0  0
M  END
> <BCLConfClusterSize>
1

> <ConfClashScore>
0 

> <ConfOneFourInteractionScore>
-0.985807 

> <ConfScore>
-0.258028 

> <ConfScorePBest>
0.00740662 

> <ConfTolerance>
0.200295 

> <RosettaParamsInstructions>
M  ROOT 3
M  POLY_N_BB 3
M  POLY_CA_BB 4
M  POLY_C_BB 2
M  POLY_O_BB 5
M  POLY_IGNORE 9 10 11 12 13 14 15 16 17 18 
M  POLY_UPPER 6
M  POLY_LOWER 8
M  POLY_CHG 0
M  POLY_PROPERTIES ALPHA_AA L_AA PROTEIN AROMATIC POLYMER 
M  END

$$$$



 32 32  0  0  0  0  0  0  0  0999 V2000
    0.4792    3.4854    1.3669 H   0  0  0  1  0  0  0  0  0  0  0  0
    0.6915    1.3979    1.5170 C   0  0  0  1  0  0  0  0  0  0  0  0
    0.1184    2.7081   -0.5038 N   0  0  0  1  0  0  0  0  0  0  0  0
    0.0027    2.6255    0.9445 C   0  0  0  1  0  0  0  0  0  0  0  0
    1.2861    1.4746    2.5795 O   0  0  0  1  0  0  0  0  0  0  0  0
    0.5327    0.2509    0.8481 N   0  0  0  1  0  0  0  0  0  0  0  0
   -0.6257    2.3901   -1.0566 H   0  0  0  1  0  0  0  0  0  0  0  0
    1.2145    3.2070   -1.1119 C   0  0  0  1  0  0  0  0  0  0  0  0
    1.1281   -0.9992    1.2961 C   0  0  0  1  0  0  0  0  0  0  0  0
    1.2246    3.2658   -2.6271 C   0  0  0  1  0  0  0  0  0  0  0  0
    2.1788    3.6033   -0.4587 O   0  0  0  1  0  0  0  0  0  0  0  0
   -0.0033    0.2521    0.0276 H   0  0  0  1  0  0  0  0  0  0  0  0
    1.0720   -1.0593    2.3630 H   0  0  0  1  0  0  0  0  0  0  0  0
    2.1529   -1.0356    0.9905 H   0  0  0  1  0  0  0  0  0  0  0  0
    0.5972   -1.8217    0.8644 H   0  0  0  1  0  0  0  0  0  0  0  0
    0.4092    3.8699   -2.9665 H   0  0  0  1  0  0  0  0  0  0  0  0
    1.1243    2.2768   -3.0228 H   0  0  0  1  0  0  0  0  0  0  0  0
    2.1473    3.6924   -2.9611 H   0  0  0  1  0  0  0  0  0  0  0  0
   -4.4484    7.9948    0.4502 Br  0  0  0  1  0  0  0  0  0  0  0  0
   -3.4440    6.4128    0.6961 C   0  0  0  1  0  0  0  0  0  0  0  0
   -2.9376    6.1047    1.9491 C   0  0  0  1  0  0  0  0  0  0  0  0
   -2.2702    4.9114    2.1507 C   0  0  0  1  0  0  0  0  0  0  0  0
   -2.1119    4.0201    1.1010 C   0  0  0  1  0  0  0  0  0  0  0  0
   -2.6167    4.3270   -0.1486 C   0  0  0  1  0  0  0  0  0  0  0  0
   -3.2861    5.5240   -0.3506 C   0  0  0  1  0  0  0  0  0  0  0  0
   -1.4720    2.6759    1.3562 C   0  0  0  1  0  0  0  0  0  0  0  0
   -3.0599    6.7717    2.7377 H   0  0  0  1  0  0  0  0  0  0  0  0
   -1.8869    4.6821    3.0899 H   0  0  0  1  0  0  0  0  0  0  0  0
   -2.4944    3.6601   -0.9371 H   0  0  0  1  0  0  0  0  0  0  0  0
   -3.6694    5.7533   -1.2897 H   0  0  0  1  0  0  0  0  0  0  0  0
   -1.5413    2.4587    2.4017 H   0  0  0  1  0  0  0  0  0  0  0  0
   -2.0061    1.9335    0.8010 H   0  0  0  1  0  0  0  0  0  0  0  0
  1  4  1  0  0  0  0
  2  4  1  0  0  0  0
  2  5  2  0  0  0  0
  2  6  1  0  0  0  0
  3  4  1  0  0  0  0
  3  7  1  0  0  0  0
  3  8  1  0  0  0  0
  4 26  1  0  0  0  0
  6  9  1  0  0  0  0
  6 12  1  0  0  0  0
  8 10  1  0  0  0  0
  8 11  2  0  0  0  0
  9 13  1  0  0  0  0
  9 14  1  0  0  0  0
  9 15  1  0  0  0  0
 10 16  1  0  0  0  0
 10 17  1  0  0  0  0
 10 18  1  0  0  0  0
 19 20  1  0  0  0  0
 20 21  4  0  0  0  0
 20 25  4  0  0  0  0
 21 22  4  0  0  0  0
 21 27  1  0  0  0  0
 22 23  4  0  0  0  0
 22 28  1  0  0  0  0
 23 24  4  0  0  0  0
 23 26  1  0  0  0  0
 24 25  4  0  0  0  0
 24 29  1  0  0  0  0
 25 30  1  0  0  0  0
 26 31  1  0  0  0  0
 26 32  1  0  0  0  0
M  END
> <BCLConfClusterSize>
1

> <ConfClashScore>
0 

> <ConfOneFourInteractionScore>
-0.944706 

> <ConfScore>
-0.257036 

> <ConfScorePBest>
0.00737814 

> <ConfTolerance>
0.192461 

> <RosettaParamsInstructions>
M  ROOT 3
M  POLY_N_BB 3
M  POLY_CA_BB 4
M  POLY_C_BB 2
M  POLY_O_BB 5
M  POLY_IGNORE 9 10 11 12 13 14 15 16 17 18 
M  POLY_UPPER 6
M  POLY_LOWER 8
M  POLY_CHG 0
M  POLY_PROPERTIES ALPHA_AA L_AA PROTEIN AROMATIC POLYMER 
M  END

$$$$



 32 32  0  0  0  0  0  0  0  0999 V2000
   -3.1412    1.6359    0.6516 H   0  0  0  1  0  0  0  0  0  0  0  0
   -1.8465    0.2175    1.5102 C   0  0  0  1  0  0  0  0  0  0  0  0
   -3.2571    1.8757    2.6944 N   0  0  0  1  0  0  0  0  0  0  0  0
   -2.4796    1.5988    1.4918 C   0  0  0  1  0  0  0  0  0  0  0  0
   -1.7639   -0.4292    2.5533 O   0  0  0  1  0  0  0  0  0  0  0  0
   -1.4728   -0.2796    0.3263 N   0  0  0  1  0  0  0  0  0  0  0  0
   -2.8043    1.8641    3.5634 H   0  0  0  1  0  0  0  0  0  0  0  0
   -4.5651    2.1448    2.6524 C   0  0  0  1  0  0  0  0  0  0  0  0
   -0.9401   -1.6334    0.2884 C   0  0  0  1  0  0  0  0  0  0  0  0
   -5.2555    2.2693    3.9967 C   0  0  0  1  0  0  0  0  0  0  0  0
   -5.1866    2.2858    1.6000 O   0  0  0  1  0  0  0  0  0  0  0  0
   -1.5552    0.2526   -0.4924 H   0  0  0  1  0  0  0  0  0  0  0  0
   -1.0515   -2.0336   -0.6976 H   0  0  0  1  0  0  0  0  0  0  0  0
   -1.4742   -2.2462    0.9842 H   0  0  0  1  0  0  0  0  0  0  0  0
    0.0971   -1.6158    0.5508 H   0  0  0  1  0  0  0  0  0  0  0  0
   -4.7160    2.9579    4.6128 H   0  0  0  1  0  0  0  0  0  0  0  0
   -5.2838    1.3116    4.4729 H   0  0  0  1  0  0  0  0  0  0  0  0
   -6.2539    2.6264    3.8529 H   0  0  0  1  0  0  0  0  0  0  0  0
   -4.4309    8.0037    0.4382 Br  0  0  0  1  0  0  0  0  0  0  0  0
   -3.4400    6.4150    0.6957 C   0  0  0  1  0  0  0  0  0  0  0  0
   -2.9409    6.1090    1.9522 C   0  0  0  1  0  0  0  0  0  0  0  0
   -2.2839    4.9114    2.1622 C   0  0  0  1  0  0  0  0  0  0  0  0
   -2.1287    4.0137    1.1174 C   0  0  0  1  0  0  0  0  0  0  0  0
   -2.6263    4.3185   -0.1355 C   0  0  0  1  0  0  0  0  0  0  0  0
   -3.2853    5.5198   -0.3459 C   0  0  0  1  0  0  0  0  0  0  0  0
   -1.4253    2.6879    1.2878 C   0  0  0  1  0  0  0  0  0  0  0  0
   -3.0609    6.7808    2.7370 H   0  0  0  1  0  0  0  0  0  0  0  0
   -1.9059    4.6837    3.1039 H   0  0  0  1  0  0  0  0  0  0  0  0
   -2.5063    3.6467   -0.9203 H   0  0  0  1  0  0  0  0  0  0  0  0
   -3.6632    5.7475   -1.2877 H   0  0  0  1  0  0  0  0  0  0  0  0
   -0.8480    2.4713    0.4133 H   0  0  0  1  0  0  0  0  0  0  0  0
   -0.7803    2.7292    2.1405 H   0  0  0  1  0  0  0  0  0  0  0  0
  1  4  1  0  0  0  0
  2  4  1  0  0  0  0
  2  5  2  0  0  0  0
  2  6  1  0  0  0  0
  3  4  1  0  0  0  0
  3  7  1  0  0  0  0
  3  8  1  0  0  0  0
  4 26  1  0  0  0  0
  6  9  1  0  0  0  0
  6 12  1  0  0  0  0
  8 10  1  0  0  0  0
  8 11  2  0  0  0  0
  9 13  1  0  0  0  0
  9 14  1  0  0  0  0
  9 15  1  0  0  0  0
 10 16  1  0  0  0  0
 10 17  1  0  0  0  0
 10 18  1  0  0  0  0
 19 20  1  0  0  0  0
 20 21  4  0  0  0  0
 20 25  4  0  0  0  0
 21 22  4  0  0  0  0
 21 27  1  0  0  0  0
 22 23  4  0  0  0  0
 22 28  1  0  0  0  0
 23 24  4  0  0  0  0
 23 26  1  0  0  0  0
 24 25  4  0  0  0  0
 24 29  1  0  0  0  0
 25 30  1  0  0  0  0
 26 31  1  0  0  0  0
 26 32  1  0  0  0  0
M  END
> <BCLConfClusterSize>
1

> <ConfClashScore>
0 

> <ConfOneFourInteractionScore>
-0.985807 

> <ConfScore>
-0.256794 

> <ConfScorePBest>
0.00734966 

> <ConfTolerance>
0.213109 

> <RosettaParamsInstructions>
M  ROOT 3
M  POLY_N_BB 3
M  POLY_CA_BB 4
M  POLY_C_BB 2
M  POLY_O_BB 5
M  POLY_IGNORE 9 10 11 12 13 14 15 16 17 18 
M  POLY_UPPER 6
M  POLY_LOWER 8
M  POLY_CHG 0
M  POLY_PROPERTIES ALPHA_AA L_AA PROTEIN AROMATIC POLYMER 
M  END

$$$$



 32 32  0  0  0  0  0  0  0  0999 V2000
    0.0718    3.3532    2.6552 H   0  0  0  1  0  0  0  0  0  0  0  0
    0.7591    1.5373    1.8868 C   0  0  0  1  0  0  0  0  0  0  0  0
    0.7318    3.7634    0.7668 N   0  0  0  1  0  0  0  0  0  0  0  0
    0.0583    2.8722    1.6995 C   0  0  0  1  0  0  0  0  0  0  0  0
    0.6786    0.9369    2.9458 O   0  0  0  1  0  0  0  0  0  0  0  0
    1.3684    1.0672    0.7931 N   0  0  0  1  0  0  0  0  0  0  0  0
    0.2241    4.1310    0.0135 H   0  0  0  1  0  0  0  0  0  0  0  0
    2.0183    4.0978    0.9017 C   0  0  0  1  0  0  0  0  0  0  0  0
    1.9116   -0.2812    0.7248 C   0  0  0  1  0  0  0  0  0  0  0  0
    2.6107    4.9089   -0.2343 C   0  0  0  1  0  0  0  0  0  0  0  0
    2.6949    3.7773    1.8779 O   0  0  0  1  0  0  0  0  0  0  0  0
    1.4519    1.6509    0.0104 H   0  0  0  1  0  0  0  0  0  0  0  0
    2.6773   -0.3204   -0.0215 H   0  0  0  1  0  0  0  0  0  0  0  0
    1.1310   -0.9675    0.4709 H   0  0  0  1  0  0  0  0  0  0  0  0
    2.3259   -0.5471    1.6749 H   0  0  0  1  0  0  0  0  0  0  0  0
    1.9668    5.7336   -0.4580 H   0  0  0  1  0  0  0  0  0  0  0  0
    2.7100    4.2890   -1.1008 H   0  0  0  1  0  0  0  0  0  0  0  0
    3.5733    5.2762    0.0542 H   0  0  0  1  0  0  0  0  0  0  0  0
   -4.4301    8.0052    0.4437 Br  0  0  0  1  0  0  0  0  0  0  0  0
   -3.4402    6.4149    0.6951 C   0  0  0  1  0  0  0  0  0  0  0  0
   -2.9395    6.1049    1.9500 C   0  0  0  1  0  0  0  0  0  0  0  0
   -2.2831    4.9061    2.1555 C   0  0  0  1  0  0  0  0  0  0  0  0
   -2.1302    4.0114    1.1079 C   0  0  0  1  0  0  0  0  0  0  0  0
   -2.6293    4.3203   -0.1435 C   0  0  0  1  0  0  0  0  0  0  0  0
   -3.2876    5.5227   -0.3494 C   0  0  0  1  0  0  0  0  0  0  0  0
   -1.4180    2.6985    1.3331 C   0  0  0  1  0  0  0  0  0  0  0  0
   -3.0578    6.7744    2.7369 H   0  0  0  1  0  0  0  0  0  0  0  0
   -1.9040    4.6754    3.0960 H   0  0  0  1  0  0  0  0  0  0  0  0
   -2.5109    3.6507   -0.9304 H   0  0  0  1  0  0  0  0  0  0  0  0
   -3.6667    5.7534   -1.2900 H   0  0  0  1  0  0  0  0  0  0  0  0
   -1.9076    2.1778    2.1294 H   0  0  0  1  0  0  0  0  0  0  0  0
   -1.4803    2.1190    0.4358 H   0  0  0  1  0  0  0  0  0  0  0  0
  1  4  1  0  0  0  0
  2  4  1  0  0  0  0
  2  5  2  0  0  0  0
  2  6  1  0  0  0  0
  3  4  1  0  0  0  0
  3  7  1  0  0  0  0
  3  8  1  0  0  0  0
  4 26  1  0  0  0  0
  6  9  1  0  0  0  0
  6 12  1  0  0  0  0
  8 10  1  0  0  0  0
  8 11  2  0  0  0  0
  9 13  1  0  0  0  0
  9 14  1  0  0  0  0
  9 15  1  0  0  0  0
 10 16  1  0  0  0  0
 10 17  1  0  0  0  0
 10 18  1  0  0  0  0
 19 20  1  0  0  0  0
 20 21  4  0  0  0  0
 20 25  4  0  0  0  0
 21 22  4  0  0  0  0
 21 27  1  0  0  0  0
 22 23  4  0  0  0  0
 22 28  1  0  0  0  0
 23 24  4  0  0  0  0
 23 26  1  0  0  0  0
 24 25  4  0  0  0  0
 24 29  1  0  0  0  0
 25 30  1  0  0  0  0
 26 31  1  0  0  0  0
 26 32  1  0  0  0  0
M  END
> <BCLConfClusterSize>
1

> <ConfClashScore>
0 

> <ConfOneFourInteractionScore>
-0.94165 

> <ConfScore>
-0.254182 

> <ConfScorePBest>
0.00732118 

> <ConfTolerance>
0.182079 

> <RosettaParamsInstructions>
M  ROOT 3
M  POLY_N_BB 3
M  POLY_CA_BB 4
M  POLY_C_BB 2
M  POLY_O_BB 5
M  POLY_IGNORE 9 10 11 12 13 14 15 16 17 18 
M  POLY_UPPER 6
M  POLY_LOWER 8
M  POLY_CHG 0
M  POLY_PROPERTIES ALPHA_AA L_AA PROTEIN AROMATIC POLYMER 
M  END

$$$$



 32 32  0  0  0  0  0  0  0  0999 V2000
   -2.7842    2.0975    2.8743 H   0  0  0  1  0  0  0  0  0  0  0  0
   -3.3959    1.2068    1.0565 C   0  0  0  1  0  0  0  0  0  0  0  0
   -1.5278    0.5037    2.4652 N   0  0  0  1  0  0  0  0  0  0  0  0
   -2.3106    1.6527    2.0242 C   0  0  0  1  0  0  0  0  0  0  0  0
   -4.4799    1.7860    1.0076 O   0  0  0  1  0  0  0  0  0  0  0  0
   -3.0709    0.2203    0.2142 N   0  0  0  1  0  0  0  0  0  0  0  0
   -0.5627    0.5212    2.2962 H   0  0  0  1  0  0  0  0  0  0  0  0
   -2.0275   -0.5709    3.0822 C   0  0  0  1  0  0  0  0  0  0  0  0
   -3.9838   -0.3544   -0.7627 C   0  0  0  1  0  0  0  0  0  0  0  0
   -1.0610   -1.6695    3.5105 C   0  0  0  1  0  0  0  0  0  0  0  0
   -3.2231   -0.7281    3.3263 O   0  0  0  1  0  0  0  0  0  0  0  0
   -2.1600   -0.1385    0.2575 H   0  0  0  1  0  0  0  0  0  0  0  0
   -4.9396   -0.5127   -0.3085 H   0  0  0  1  0  0  0  0  0  0  0  0
   -3.5940   -1.2892   -1.1079 H   0  0  0  1  0  0  0  0  0  0  0  0
   -4.0889    0.3161   -1.5899 H   0  0  0  1  0  0  0  0  0  0  0  0
   -0.6683   -2.1579    2.6432 H   0  0  0  1  0  0  0  0  0  0  0  0
   -1.5784   -2.3827    4.1176 H   0  0  0  1  0  0  0  0  0  0  0  0
   -0.2579   -1.2389    4.0713 H   0  0  0  1  0  0  0  0  0  0  0  0
   -4.4293    8.0064    0.4488 Br  0  0  0  1  0  0  0  0  0  0  0  0
   -3.4402    6.4147    0.6945 C   0  0  0  1  0  0  0  0  0  0  0  0
   -2.9381    6.1009    1.9479 C   0  0  0  1  0  0  0  0  0  0  0  0
   -2.2824    4.9010    2.1493 C   0  0  0  1  0  0  0  0  0  0  0  0
   -2.1315    4.0091    1.0990 C   0  0  0  1  0  0  0  0  0  0  0  0
   -2.6320    4.3218   -0.1508 C   0  0  0  1  0  0  0  0  0  0  0  0
   -3.2897    5.5252   -0.3526 C   0  0  0  1  0  0  0  0  0  0  0  0
   -1.4121    2.7100    1.3751 C   0  0  0  1  0  0  0  0  0  0  0  0
   -3.0549    6.7683    2.7368 H   0  0  0  1  0  0  0  0  0  0  0  0
   -1.9022    4.6674    3.0887 H   0  0  0  1  0  0  0  0  0  0  0  0
   -2.5152    3.6543   -0.9397 H   0  0  0  1  0  0  0  0  0  0  0  0
   -3.6699    5.7589   -1.2920 H   0  0  0  1  0  0  0  0  0  0  0  0
   -1.0432    2.3214    0.4490 H   0  0  0  1  0  0  0  0  0  0  0  0
   -0.5907    2.9084    2.0316 H   0  0  0  1  0  0  0  0  0  0  0  0
  1  4  1  0  0  0  0
  2  4  1  0  0  0  0
  2  5  2  0  0  0  0
  2  6  1  0  0  0  0
  3  4  1  0  0  0  0
  3  7  1  0  0  0  0
  3  8  1  0  0  0  0
  4 26  1  0  0  0  0
  6  9  1  0  0  0  0
  6 12  1  0  0  0  0
  8 10  1  0  0  0  0
  8 11  2  0  0  0  0
  9 13  1  0  0  0  0
  9 14  1  0  0  0  0
  9 15  1  0  0  0  0
 10 16  1  0  0  0  0
 10 17  1  0  0  0  0
 10 18  1  0  0  0  0
 19 20  1  0  0  0  0
 20 21  4  0  0  0  0
 20 25  4  0  0  0  0
 21 22  4  0  0  0  0
 21 27  1  0  0  0  0
 22 23  4  0  0  0  0
 22 28  1  0  0  0  0
 23 24  4  0  0  0  0
 23 26  1  0  0  0  0
 24 25  4  0  0  0  0
 24 29  1  0  0  0  0
 25 30  1  0  0  0  0
 26 31  1  0  0  0  0
 26 32  1  0  0  0  0
M  END
> <BCLConfClusterSize>
1

> <ConfClashScore>
0 

> <ConfOneFourInteractionScore>
-0.960318 

> <ConfScore>
-0.253125 

> <ConfScorePBest>
0.0072927 

> <ConfTolerance>
0.150974 

> <RosettaParamsInstructions>
M  ROOT 3
M  POLY_N_BB 3
M  POLY_CA_BB 4
M  POLY_C_BB 2
M  POLY_O_BB 5
M  POLY_IGNORE 9 10 11 12 13 14 15 16 17 18 
M  POLY_UPPER 6
M  POLY_LOWER 8
M  POLY_CHG 0
M  POLY_PROPERTIES ALPHA_AA L_AA PROTEIN AROMATIC POLYMER 
M  END

$$$$



 32 32  0  0  0  0  0  0  0  0999 V2000
   -2.7252    1.6943    2.6527 H   0  0  0  1  0  0  0  0  0  0  0  0
   -3.4697    1.3786    0.6994 C   0  0  0  1  0  0  0  0  0  0  0  0
   -1.5035    0.3159    1.7159 N   0  0  0  1  0  0  0  0  0  0  0  0
   -2.3154    1.5217    1.6795 C   0  0  0  1  0  0  0  0  0  0  0  0
   -4.5703    1.8659    0.9529 O   0  0  0  1  0  0  0  0  0  0  0  0
   -3.1544    0.7763   -0.4522 N   0  0  0  1  0  0  0  0  0  0  0  0
   -0.5579    0.3918    1.4700 H   0  0  0  1  0  0  0  0  0  0  0  0
   -1.9646   -0.8890    2.0633 C   0  0  0  1  0  0  0  0  0  0  0  0
   -4.1266    0.5757   -1.5163 C   0  0  0  1  0  0  0  0  0  0  0  0
   -0.9259   -2.0109    2.0113 C   0  0  0  1  0  0  0  0  0  0  0  0
   -3.1025   -1.1078    2.4767 O   0  0  0  1  0  0  0  0  0  0  0  0
   -2.2366    0.4588   -0.5840 H   0  0  0  1  0  0  0  0  0  0  0  0
   -5.1043    0.4771   -1.0929 H   0  0  0  1  0  0  0  0  0  0  0  0
   -3.8822   -0.3132   -2.0595 H   0  0  0  1  0  0  0  0  0  0  0  0
   -4.1082    1.4157   -2.1789 H   0  0  0  1  0  0  0  0  0  0  0  0
   -0.4634   -2.0250    1.0465 H   0  0  0  1  0  0  0  0  0  0  0  0
   -1.4064   -2.9501    2.1899 H   0  0  0  1  0  0  0  0  0  0  0  0
   -0.1813   -1.8423    2.7610 H   0  0  0  1  0  0  0  0  0  0  0  0
   -4.4301    8.0052    0.4437 Br  0  0  0  1  0  0  0  0  0  0  0  0
   -3.4402    6.4149    0.6951 C   0  0  0  1  0  0  0  0  0  0  0  0
   -2.9395    6.1049    1.9500 C   0  0  0  1  0  0  0  0  0  0  0  0
   -2.2831    4.9061    2.1555 C   0  0  0  1  0  0  0  0  0  0  0  0
   -2.1302    4.0114    1.1079 C   0  0  0  1  0  0  0  0  0  0  0  0
   -2.6293    4.3203   -0.1435 C   0  0  0  1  0  0  0  0  0  0  0  0
   -3.2876    5.5227   -0.3494 C   0  0  0  1  0  0  0  0  0  0  0  0
   -1.4180    2.6985    1.3331 C   0  0  0  1  0  0  0  0  0  0  0  0
   -3.0578    6.7744    2.7369 H   0  0  0  1  0  0  0  0  0  0  0  0
   -1.9040    4.6754    3.0960 H   0  0  0  1  0  0  0  0  0  0  0  0
   -2.5109    3.6507   -0.9304 H   0  0  0  1  0  0  0  0  0  0  0  0
   -3.6667    5.7534   -1.2900 H   0  0  0  1  0  0  0  0  0  0  0  0
   -0.8845    2.4546    0.4383 H   0  0  0  1  0  0  0  0  0  0  0  0
   -0.7247    2.8328    2.1370 H   0  0  0  1  0  0  0  0  0  0  0  0
  1  4  1  0  0  0  0
  2  4  1  0  0  0  0
  2  5  2  0  0  0  0
  2  6  1  0  0  0  0
  3  4  1  0  0  0  0
  3  7  1  0  0  0  0
  3  8  1  0  0  0  0
  4 26  1  0  0  0  0
  6  9  1  0  0  0  0
  6 12  1  0  0  0  0
  8 10  1  0  0  0  0
  8 11  2  0  0  0  0
  9 13  1  0  0  0  0
  9 14  1  0  0  0  0
  9 15  1  0  0  0  0
 10 16  1  0  0  0  0
 10 17  1  0  0  0  0
 10 18  1  0  0  0  0
 19 20  1  0  0  0  0
 20 21  4  0  0  0  0
 20 25  4  0  0  0  0
 21 22  4  0  0  0  0
 21 27  1  0  0  0  0
 22 23  4  0  0  0  0
 22 28  1  0  0  0  0
 23 24  4  0  0  0  0
 23 26  1  0  0  0  0
 24 25  4  0  0  0  0
 24 29  1  0  0  0  0
 25 30  1  0  0  0  0
 26 31  1  0  0  0  0
 26 32  1  0  0  0  0
M  END
> <BCLConfClusterSize>
1

> <ConfClashScore>
0 

> <ConfOneFourInteractionScore>
-0.956443 

> <ConfScore>
-0.253125 

> <ConfScorePBest>
0.00726422 

> <ConfTolerance>
0.189054 

> <RosettaParamsInstructions>
M  ROOT 3
M  POLY_N_BB 3
M  POLY_CA_BB 4
M  POLY_C_BB 2
M  POLY_O_BB 5
M  POLY_IGNORE 9 10 11 12 13 14 15 16 17 18 
M  POLY_UPPER 6
M  POLY_LOWER 8
M  POLY_CHG 0
M  POLY_PROPERTIES ALPHA_AA L_AA PROTEIN AROMATIC POLYMER 
M  END

$$$$



 32 32  0  0  0  0  0  0  0  0999 V2000
   -2.7517    1.5557    0.1218 H   0  0  0  1  0  0  0  0  0  0  0  0
   -1.3930    0.2246    1.0428 C   0  0  0  1  0  0  0  0  0  0  0  0
   -3.3580    1.3424    2.0847 N   0  0  0  1  0  0  0  0  0  0  0  0
   -2.3035    1.4439    1.0869 C   0  0  0  1  0  0  0  0  0  0  0  0
   -0.9200   -0.1486   -0.0296 O   0  0  0  1  0  0  0  0  0  0  0  0
   -1.0823   -0.3383    2.2154 N   0  0  0  1  0  0  0  0  0  0  0  0
   -3.3957    2.0357    2.7763 H   0  0  0  1  0  0  0  0  0  0  0  0
   -4.2772    0.3767    2.1289 C   0  0  0  1  0  0  0  0  0  0  0  0
   -0.2579   -1.5266    2.3767 C   0  0  0  1  0  0  0  0  0  0  0  0
   -5.3200    0.5094    3.2216 C   0  0  0  1  0  0  0  0  0  0  0  0
   -4.2938   -0.5688    1.3419 O   0  0  0  1  0  0  0  0  0  0  0  0
   -1.4364    0.0811    3.0273 H   0  0  0  1  0  0  0  0  0  0  0  0
    0.7312   -1.3262    2.0210 H   0  0  0  1  0  0  0  0  0  0  0  0
   -0.6817   -2.3332    1.8158 H   0  0  0  1  0  0  0  0  0  0  0  0
   -0.2170   -1.7942    3.4119 H   0  0  0  1  0  0  0  0  0  0  0  0
   -5.5136    1.5453    3.4068 H   0  0  0  1  0  0  0  0  0  0  0  0
   -4.9585    0.0487    4.1171 H   0  0  0  1  0  0  0  0  0  0  0  0
   -6.2240    0.0277    2.9120 H   0  0  0  1  0  0  0  0  0  0  0  0
   -4.4484    7.9948    0.4502 Br  0  0  0  1  0  0  0  0  0  0  0  0
   -3.4440    6.4128    0.6961 C   0  0  0  1  0  0  0  0  0  0  0  0
   -2.9376    6.1047    1.9491 C   0  0  0  1  0  0  0  0  0  0  0  0
   -2.2702    4.9114    2.1507 C   0  0  0  1  0  0  0  0  0  0  0  0
   -2.1119    4.0201    1.1010 C   0  0  0  1  0  0  0  0  0  0  0  0
   -2.6167    4.3270   -0.1486 C   0  0  0  1  0  0  0  0  0  0  0  0
   -3.2861    5.5240   -0.3506 C   0  0  0  1  0  0  0  0  0  0  0  0
   -1.4720    2.6759    1.3562 C   0  0  0  1  0  0  0  0  0  0  0  0
   -3.0599    6.7717    2.7377 H   0  0  0  1  0  0  0  0  0  0  0  0
   -1.8869    4.6821    3.0899 H   0  0  0  1  0  0  0  0  0  0  0  0
   -2.4944    3.6601   -0.9371 H   0  0  0  1  0  0  0  0  0  0  0  0
   -3.6694    5.7533   -1.2897 H   0  0  0  1  0  0  0  0  0  0  0  0
   -0.5996    2.6144    0.7397 H   0  0  0  1  0  0  0  0  0  0  0  0
   -1.1839    2.6489    2.3864 H   0  0  0  1  0  0  0  0  0  0  0  0
  1  4  1  0  0  0  0
  2  4  1  0  0  0  0
  2  5  2  0  0  0  0
  2  6  1  0  0  0  0
  3  4  1  0  0  0  0
  3  7  1  0  0  0  0
  3  8  1  0  0  0  0
  4 26  1  0  0  0  0
  6  9  1  0  0  0  0
  6 12  1  0  0  0  0
  8 10  1  0  0  0  0
  8 11  2  0  0  0  0
  9 13  1  0  0  0  0
  9 14  1  0  0  0  0
  9 15  1  0  0  0  0
 10 16  1  0  0  0  0
 10 17  1  0  0  0  0
 10 18  1  0  0  0  0
 19 20  1  0  0  0  0
 20 21  4  0  0  0  0
 20 25  4  0  0  0  0
 21 22  4  0  0  0  0
 21 27  1  0  0  0  0
 22 23  4  0  0  0  0
 22 28  1  0  0  0  0
 23 24  4  0  0  0  0
 23 26  1  0  0  0  0
 24 25  4  0  0  0  0
 24 29  1  0  0  0  0
 25 30  1  0  0  0  0
 26 31  1  0  0  0  0
 26 32  1  0  0  0  0
M  END
> <BCLConfClusterSize>
1

> <ConfClashScore>
0 

> <ConfOneFourInteractionScore>
-0.960318 

> <ConfScore>
-0.252623 

> <ConfScorePBest>
0.00723574 

> <ConfTolerance>
0.219414 

> <RosettaParamsInstructions>
M  ROOT 3
M  POLY_N_BB 3
M  POLY_CA_BB 4
M  POLY_C_BB 2
M  POLY_O_BB 5
M  POLY_IGNORE 9 10 11 12 13 14 15 16 17 18 
M  POLY_UPPER 6
M  POLY_LOWER 8
M  POLY_CHG 0
M  POLY_PROPERTIES ALPHA_AA L_AA PROTEIN AROMATIC POLYMER 
M  END

$$$$



 32 32  0  0  0  0  0  0  0  0999 V2000
    0.3670    3.3962    2.1302 H   0  0  0  1  0  0  0  0  0  0  0  0
    0.6899    1.3612    1.7473 C   0  0  0  1  0  0  0  0  0  0  0  0
    0.6728    3.2347    0.1217 N   0  0  0  1  0  0  0  0  0  0  0  0
    0.0924    2.7170    1.3503 C   0  0  0  1  0  0  0  0  0  0  0  0
    0.7585    1.0455    2.9341 O   0  0  0  1  0  0  0  0  0  0  0  0
    1.0359    0.5400    0.7501 N   0  0  0  1  0  0  0  0  0  0  0  0
    0.2391    3.0535   -0.7383 H   0  0  0  1  0  0  0  0  0  0  0  0
    1.7961    3.9569    0.1627 C   0  0  0  1  0  0  0  0  0  0  0  0
    1.4705   -0.8066    1.0904 C   0  0  0  1  0  0  0  0  0  0  0  0
    2.3203    4.4363   -1.1769 C   0  0  0  1  0  0  0  0  0  0  0  0
    2.3817    4.2259    1.2107 O   0  0  0  1  0  0  0  0  0  0  0  0
    0.9979    0.8365   -0.1832 H   0  0  0  1  0  0  0  0  0  0  0  0
    0.6920   -1.3085    1.6261 H   0  0  0  1  0  0  0  0  0  0  0  0
    2.3473   -0.7544    1.7014 H   0  0  0  1  0  0  0  0  0  0  0  0
    1.6917   -1.3470    0.1937 H   0  0  0  1  0  0  0  0  0  0  0  0
    2.3984    3.6063   -1.8477 H   0  0  0  1  0  0  0  0  0  0  0  0
    3.2851    4.8794   -1.0442 H   0  0  0  1  0  0  0  0  0  0  0  0
    1.6471    5.1615   -1.5842 H   0  0  0  1  0  0  0  0  0  0  0  0
   -4.4301    8.0052    0.4437 Br  0  0  0  1  0  0  0  0  0  0  0  0
   -3.4402    6.4149    0.6951 C   0  0  0  1  0  0  0  0  0  0  0  0
   -2.9395    6.1049    1.9500 C   0  0  0  1  0  0  0  0  0  0  0  0
   -2.2831    4.9061    2.1555 C   0  0  0  1  0  0  0  0  0  0  0  0
   -2.1302    4.0114    1.1079 C   0  0  0  1  0  0  0  0  0  0  0  0
   -2.6293    4.3203   -0.1435 C   0  0  0  1  0  0  0  0  0  0  0  0
   -3.2876    5.5227   -0.3494 C   0  0  0  1  0  0  0  0  0  0  0  0
   -1.4180    2.6985    1.3331 C   0  0  0  1  0  0  0  0  0  0  0  0
   -3.0578    6.7744    2.7369 H   0  0  0  1  0  0  0  0  0  0  0  0
   -1.9040    4.6754    3.0960 H   0  0  0  1  0  0  0  0  0  0  0  0
   -2.5109    3.6507   -0.9304 H   0  0  0  1  0  0  0  0  0  0  0  0
   -3.6667    5.7534   -1.2900 H   0  0  0  1  0  0  0  0  0  0  0  0
   -1.7443    2.3152    2.2773 H   0  0  0  1  0  0  0  0  0  0  0  0
   -1.7212    2.0319    0.5530 H   0  0  0  1  0  0  0  0  0  0  0  0
  1  4  1  0  0  0  0
  2  4  1  0  0  0  0
  2  5  2  0  0  0  0
  2  6  1  0  0  0  0
  3  4  1  0  0  0  0
  3  7  1  0  0  0  0
  3  8  1  0  0  0  0
  4 26  1  0  0  0  0
  6  9  1  0  0  0  0
  6 12  1  0  0  0  0
  8 10  1  0  0  0  0
  8 11  2  0  0  0  0
  9 13  1  0  0  0  0
  9 14  1  0  0  0  0
  9 15  1  0  0  0  0
 10 16  1  0  0  0  0
 10 17  1  0  0  0  0
 10 18  1  0  0  0  0
 19 20  1  0  0  0  0
 20 21  4  0  0  0  0
 20 25  4  0  0  0  0
 21 22  4  0  0  0  0
 21 27  1  0  0  0  0
 22 23  4  0  0  0  0
 22 28  1  0  0  0  0
 23 24  4  0  0  0  0
 23 26  1  0  0  0  0
 24 25  4  0  0  0  0
 24 29  1  0  0  0  0
 25 30  1  0  0  0  0
 26 31  1  0  0  0  0
 26 32  1  0  0  0  0
M  END
> <BCLConfClusterSize>
1

> <ConfClashScore>
0 

> <ConfOneFourInteractionScore>
-0.960318 

> <ConfScore>
-0.244264 

> <ConfScorePBest>
0.00720726 

> <ConfTolerance>
0.197461 

> <RosettaParamsInstructions>
M  ROOT 3
M  POLY_N_BB 3
M  POLY_CA_BB 4
M  POLY_C_BB 2
M  POLY_O_BB 5
M  POLY_IGNORE 9 10 11 12 13 14 15 16 17 18 
M  POLY_UPPER 6
M  POLY_LOWER 8
M  POLY_CHG 0
M  POLY_PROPERTIES ALPHA_AA L_AA PROTEIN AROMATIC POLYMER 
M  END

$$$$



 32 32  0  0  0  0  0  0  0  0999 V2000
   -3.1083    1.5948    0.6275 H   0  0  0  1  0  0  0  0  0  0  0  0
   -1.6704    0.1794    1.2332 C   0  0  0  1  0  0  0  0  0  0  0  0
   -3.1052    1.5856    2.6853 N   0  0  0  1  0  0  0  0  0  0  0  0
   -2.3931    1.5077    1.4185 C   0  0  0  1  0  0  0  0  0  0  0  0
   -1.1732   -0.4025    2.1961 O   0  0  0  1  0  0  0  0  0  0  0  0
   -1.7102   -0.3101   -0.0106 N   0  0  0  1  0  0  0  0  0  0  0  0
   -2.6076    1.5518    3.5288 H   0  0  0  1  0  0  0  0  0  0  0  0
   -4.4360    1.7033    2.7006 C   0  0  0  1  0  0  0  0  0  0  0  0
   -1.1200   -1.5936   -0.3601 C   0  0  0  1  0  0  0  0  0  0  0  0
   -5.0771    1.7534    4.0738 C   0  0  0  1  0  0  0  0  0  0  0  0
   -5.1146    1.7682    1.6764 O   0  0  0  1  0  0  0  0  0  0  0  0
   -2.1521    0.2136   -0.7112 H   0  0  0  1  0  0  0  0  0  0  0  0
   -0.2487   -1.7608    0.2380 H   0  0  0  1  0  0  0  0  0  0  0  0
   -0.8468   -1.5905   -1.3947 H   0  0  0  1  0  0  0  0  0  0  0  0
   -1.8305   -2.3733   -0.1807 H   0  0  0  1  0  0  0  0  0  0  0  0
   -5.5074    0.8007    4.3020 H   0  0  0  1  0  0  0  0  0  0  0  0
   -5.8421    2.5014    4.0829 H   0  0  0  1  0  0  0  0  0  0  0  0
   -4.3341    1.9934    4.8054 H   0  0  0  1  0  0  0  0  0  0  0  0
   -4.4309    8.0037    0.4382 Br  0  0  0  1  0  0  0  0  0  0  0  0
   -3.4400    6.4150    0.6957 C   0  0  0  1  0  0  0  0  0  0  0  0
   -2.9409    6.1090    1.9522 C   0  0  0  1  0  0  0  0  0  0  0  0
   -2.2839    4.9114    2.1622 C   0  0  0  1  0  0  0  0  0  0  0  0
   -2.1287    4.0137    1.1174 C   0  0  0  1  0  0  0  0  0  0  0  0
   -2.6263    4.3185   -0.1355 C   0  0  0  1  0  0  0  0  0  0  0  0
   -3.2853    5.5198   -0.3459 C   0  0  0  1  0  0  0  0  0  0  0  0
   -1.4253    2.6879    1.2878 C   0  0  0  1  0  0  0  0  0  0  0  0
   -3.0609    6.7808    2.7370 H   0  0  0  1  0  0  0  0  0  0  0  0
   -1.9059    4.6837    3.1039 H   0  0  0  1  0  0  0  0  0  0  0  0
   -2.5063    3.6467   -0.9203 H   0  0  0  1  0  0  0  0  0  0  0  0
   -3.6632    5.7475   -1.2877 H   0  0  0  1  0  0  0  0  0  0  0  0
   -0.7995    2.5224    0.4358 H   0  0  0  1  0  0  0  0  0  0  0  0
   -0.8223    2.7333    2.1705 H   0  0  0  1  0  0  0  0  0  0  0  0
  1  4  1  0  0  0  0
  2  4  1  0  0  0  0
  2  5  2  0  0  0  0
  2  6  1  0  0  0  0
  3  4  1  0  0  0  0
  3  7  1  0  0  0  0
  3  8  1  0  0  0  0
  4 26  1  0  0  0  0
  6  9  1  0  0  0  0
  6 12  1  0  0  0  0
  8 10  1  0  0  0  0
  8 11  2  0  0  0  0
  9 13  1  0  0  0  0
  9 14  1  0  0  0  0
  9 15  1  0  0  0  0
 10 16  1  0  0  0  0
 10 17  1  0  0  0  0
 10 18  1  0  0  0  0
 19 20  1  0  0  0  0
 20 21  4  0  0  0  0
 20 25  4  0  0  0  0
 21 22  4  0  0  0  0
 21 27  1  0  0  0  0
 22 23  4  0  0  0  0
 22 28  1  0  0  0  0
 23 24  4  0  0  0  0
 23 26  1  0  0  0  0
 24 25  4  0  0  0  0
 24 29  1  0  0  0  0
 25 30  1  0  0  0  0
 26 31  1  0  0  0  0
 26 32  1  0  0  0  0
M  END
> <BCLConfClusterSize>
1

> <ConfClashScore>
0 

> <ConfOneFourInteractionScore>
-0.974251 

> <ConfScore>
-0.24391 

> <ConfScorePBest>
0.00717878 

> <ConfTolerance>
0.216631 

> <RosettaParamsInstructions>
M  ROOT 3
M  POLY_N_BB 3
M  POLY_CA_BB 4
M  POLY_C_BB 2
M  POLY_O_BB 5
M  POLY_IGNORE 9 10 11 12 13 14 15 16 17 18 
M  POLY_UPPER 6
M  POLY_LOWER 8
M  POLY_CHG 0
M  POLY_PROPERTIES ALPHA_AA L_AA PROTEIN AROMATIC POLYMER 
M  END

$$$$



 32 32  0  0  0  0  0  0  0  0999 V2000
    0.5044    3.5986    1.3513 H   0  0  0  1  0  0  0  0  0  0  0  0
    0.7443    1.4882    1.4508 C   0  0  0  1  0  0  0  0  0  0  0  0
    0.1503    2.8029   -0.5337 N   0  0  0  1  0  0  0  0  0  0  0  0
    0.0465    2.7350    0.9163 C   0  0  0  1  0  0  0  0  0  0  0  0
    0.7470    0.4543    0.7846 O   0  0  0  1  0  0  0  0  0  0  0  0
    1.4054    1.6161    2.6099 N   0  0  0  1  0  0  0  0  0  0  0  0
   -0.0911    2.0013   -1.0433 H   0  0  0  1  0  0  0  0  0  0  0  0
    0.5493    3.8739   -1.2214 C   0  0  0  1  0  0  0  0  0  0  0  0
    1.9822    0.4755    3.3058 C   0  0  0  1  0  0  0  0  0  0  0  0
    0.4584    3.7591   -2.7306 C   0  0  0  1  0  0  0  0  0  0  0  0
    0.9671    4.8982   -0.6830 O   0  0  0  1  0  0  0  0  0  0  0  0
    1.5038    2.5087    3.0023 H   0  0  0  1  0  0  0  0  0  0  0  0
    2.0066    0.6736    4.3571 H   0  0  0  1  0  0  0  0  0  0  0  0
    2.9778    0.3080    2.9515 H   0  0  0  1  0  0  0  0  0  0  0  0
    1.3862   -0.3936    3.1207 H   0  0  0  1  0  0  0  0  0  0  0  0
    1.0139    2.9051   -3.0579 H   0  0  0  1  0  0  0  0  0  0  0  0
    0.8636    4.6415   -3.1803 H   0  0  0  1  0  0  0  0  0  0  0  0
   -0.5662    3.6497   -3.0187 H   0  0  0  1  0  0  0  0  0  0  0  0
   -4.4301    8.0052    0.4437 Br  0  0  0  1  0  0  0  0  0  0  0  0
   -3.4402    6.4149    0.6951 C   0  0  0  1  0  0  0  0  0  0  0  0
   -2.9395    6.1049    1.9500 C   0  0  0  1  0  0  0  0  0  0  0  0
   -2.2831    4.9061    2.1555 C   0  0  0  1  0  0  0  0  0  0  0  0
   -2.1302    4.0114    1.1079 C   0  0  0  1  0  0  0  0  0  0  0  0
   -2.6293    4.3203   -0.1435 C   0  0  0  1  0  0  0  0  0  0  0  0
   -3.2876    5.5227   -0.3494 C   0  0  0  1  0  0  0  0  0  0  0  0
   -1.4180    2.6985    1.3331 C   0  0  0  1  0  0  0  0  0  0  0  0
   -3.0578    6.7744    2.7369 H   0  0  0  1  0  0  0  0  0  0  0  0
   -1.9040    4.6754    3.0960 H   0  0  0  1  0  0  0  0  0  0  0  0
   -2.5109    3.6507   -0.9304 H   0  0  0  1  0  0  0  0  0  0  0  0
   -3.6667    5.7534   -1.2900 H   0  0  0  1  0  0  0  0  0  0  0  0
   -1.4699    2.4572    2.3742 H   0  0  0  1  0  0  0  0  0  0  0  0
   -1.9149    1.9398    0.7654 H   0  0  0  1  0  0  0  0  0  0  0  0
  1  4  1  0  0  0  0
  2  4  1  0  0  0  0
  2  5  2  0  0  0  0
  2  6  1  0  0  0  0
  3  4  1  0  0  0  0
  3  7  1  0  0  0  0
  3  8  1  0  0  0  0
  4 26  1  0  0  0  0
  6  9  1  0  0  0  0
  6 12  1  0  0  0  0
  8 10  1  0  0  0  0
  8 11  2  0  0  0  0
  9 13  1  0  0  0  0
  9 14  1  0  0  0  0
  9 15  1  0  0  0  0
 10 16  1  0  0  0  0
 10 17  1  0  0  0  0
 10 18  1  0  0  0  0
 19 20  1  0  0  0  0
 20 21  4  0  0  0  0
 20 25  4  0  0  0  0
 21 22  4  0  0  0  0
 21 27  1  0  0  0  0
 22 23  4  0  0  0  0
 22 28  1  0  0  0  0
 23 24  4  0  0  0  0
 23 26  1  0  0  0  0
 24 25  4  0  0  0  0
 24 29  1  0  0  0  0
 25 30  1  0  0  0  0
 26 31  1  0  0  0  0
 26 32  1  0  0  0  0
M  END
> <BCLConfClusterSize>
1

> <ConfClashScore>
0 

> <ConfOneFourInteractionScore>
-0.986627 

> <ConfScore>
-0.240943 

> <ConfScorePBest>
0.0071503 

> <ConfTolerance>
0.220194 

> <RosettaParamsInstructions>
M  ROOT 3
M  POLY_N_BB 3
M  POLY_CA_BB 4
M  POLY_C_BB 2
M  POLY_O_BB 5
M  POLY_IGNORE 9 10 11 12 13 14 15 16 17 18 
M  POLY_UPPER 6
M  POLY_LOWER 8
M  POLY_CHG 0
M  POLY_PROPERTIES ALPHA_AA L_AA PROTEIN AROMATIC POLYMER 
M  END

$$$$



 32 32  0  0  0  0  0  0  0  0999 V2000
    0.4292    3.5368    1.7462 H   0  0  0  1  0  0  0  0  0  0  0  0
    0.6723    1.4268    1.7946 C   0  0  0  1  0  0  0  0  0  0  0  0
    0.4290    2.8324   -0.1987 N   0  0  0  1  0  0  0  0  0  0  0  0
    0.0518    2.6975    1.2003 C   0  0  0  1  0  0  0  0  0  0  0  0
    0.7015    1.2717    3.0145 O   0  0  0  1  0  0  0  0  0  0  0  0
    1.0830    0.4946    0.9281 N   0  0  0  1  0  0  0  0  0  0  0  0
   -0.0626    2.3184   -0.8729 H   0  0  0  1  0  0  0  0  0  0  0  0
    1.4223    3.6328   -0.5961 C   0  0  0  1  0  0  0  0  0  0  0  0
    1.6453   -0.7905    1.3156 C   0  0  0  1  0  0  0  0  0  0  0  0
    1.7110    3.7324   -2.0813 C   0  0  0  1  0  0  0  0  0  0  0  0
    2.1186    4.2956    0.1718 O   0  0  0  1  0  0  0  0  0  0  0  0
    1.0000    0.6893   -0.0287 H   0  0  0  1  0  0  0  0  0  0  0  0
    1.2503   -1.0811    2.2666 H   0  0  0  1  0  0  0  0  0  0  0  0
    2.7101   -0.7082    1.3821 H   0  0  0  1  0  0  0  0  0  0  0  0
    1.3890   -1.5271    0.5831 H   0  0  0  1  0  0  0  0  0  0  0  0
    0.8071    3.5759   -2.6321 H   0  0  0  1  0  0  0  0  0  0  0  0
    2.4289    2.9878   -2.3555 H   0  0  0  1  0  0  0  0  0  0  0  0
    2.1008    4.7036   -2.3043 H   0  0  0  1  0  0  0  0  0  0  0  0
   -4.4484    7.9948    0.4502 Br  0  0  0  1  0  0  0  0  0  0  0  0
   -3.4440    6.4128    0.6961 C   0  0  0  1  0  0  0  0  0  0  0  0
   -2.9376    6.1047    1.9491 C   0  0  0  1  0  0  0  0  0  0  0  0
   -2.2702    4.9114    2.1507 C   0  0  0  1  0  0  0  0  0  0  0  0
   -2.1119    4.0201    1.1010 C   0  0  0  1  0  0  0  0  0  0  0  0
   -2.6167    4.3270   -0.1486 C   0  0  0  1  0  0  0  0  0  0  0  0
   -3.2861    5.5240   -0.3506 C   0  0  0  1  0  0  0  0  0  0  0  0
   -1.4720    2.6759    1.3562 C   0  0  0  1  0  0  0  0  0  0  0  0
   -3.0599    6.7717    2.7377 H   0  0  0  1  0  0  0  0  0  0  0  0
   -1.8869    4.6821    3.0899 H   0  0  0  1  0  0  0  0  0  0  0  0
   -2.4944    3.6601   -0.9371 H   0  0  0  1  0  0  0  0  0  0  0  0
   -3.6694    5.7533   -1.2897 H   0  0  0  1  0  0  0  0  0  0  0  0
   -1.7079    2.3704    2.3542 H   0  0  0  1  0  0  0  0  0  0  0  0
   -1.8754    1.9692    0.6615 H   0  0  0  1  0  0  0  0  0  0  0  0
  1  4  1  0  0  0  0
  2  4  1  0  0  0  0
  2  5  2  0  0  0  0
  2  6  1  0  0  0  0
  3  4  1  0  0  0  0
  3  7  1  0  0  0  0
  3  8  1  0  0  0  0
  4 26  1  0  0  0  0
  6  9  1  0  0  0  0
  6 12  1  0  0  0  0
  8 10  1  0  0  0  0
  8 11  2  0  0  0  0
  9 13  1  0  0  0  0
  9 14  1  0  0  0  0
  9 15  1  0  0  0  0
 10 16  1  0  0  0  0
 10 17  1  0  0  0  0
 10 18  1  0  0  0  0
 19 20  1  0  0  0  0
 20 21  4  0  0  0  0
 20 25  4  0  0  0  0
 21 22  4  0  0  0  0
 21 27  1  0  0  0  0
 22 23  4  0  0  0  0
 22 28  1  0  0  0  0
 23 24  4  0  0  0  0
 23 26  1  0  0  0  0
 24 25  4  0  0  0  0
 24 29  1  0  0  0  0
 25 30  1  0  0  0  0
 26 31  1  0  0  0  0
 26 32  1  0  0  0  0
M  END
> <BCLConfClusterSize>
1

> <ConfClashScore>
0 

> <ConfOneFourInteractionScore>
-0.960318 

> <ConfScore>
-0.23921 

> <ConfScorePBest>
0.00712182 

> <ConfTolerance>
0.178766 

> <RosettaParamsInstructions>
M  ROOT 3
M  POLY_N_BB 3
M  POLY_CA_BB 4
M  POLY_C_BB 2
M  POLY_O_BB 5
M  POLY_IGNORE 9 10 11 12 13 14 15 16 17 18 
M  POLY_UPPER 6
M  POLY_LOWER 8
M  POLY_CHG 0
M  POLY_PROPERTIES ALPHA_AA L_AA PROTEIN AROMATIC POLYMER 
M  END

$$$$



 32 32  0  0  0  0  0  0  0  0999 V2000
    0.5216    3.5284    1.5709 H   0  0  0  1  0  0  0  0  0  0  0  0
    0.7599    1.4307    1.3328 C   0  0  0  1  0  0  0  0  0  0  0  0
    0.2623    3.0622   -0.4277 N   0  0  0  1  0  0  0  0  0  0  0  0
    0.0720    2.7562    0.9823 C   0  0  0  1  0  0  0  0  0  0  0  0
    0.6729    0.4734    0.5652 O   0  0  0  1  0  0  0  0  0  0  0  0
    1.5058    1.4138    2.4426 N   0  0  0  1  0  0  0  0  0  0  0  0
    0.0718    2.3677   -1.0923 H   0  0  0  1  0  0  0  0  0  0  0  0
    0.6879    4.2571   -0.8475 C   0  0  0  1  0  0  0  0  0  0  0  0
    2.2963    0.2377    2.7739 C   0  0  0  1  0  0  0  0  0  0  0  0
    0.8764    4.4164   -2.3436 C   0  0  0  1  0  0  0  0  0  0  0  0
    0.8433    5.2084   -0.0830 O   0  0  0  1  0  0  0  0  0  0  0  0
    1.5202    2.1951    3.0340 H   0  0  0  1  0  0  0  0  0  0  0  0
    2.4012    0.1655    3.8363 H   0  0  0  1  0  0  0  0  0  0  0  0
    3.2641    0.3207    2.3250 H   0  0  0  1  0  0  0  0  0  0  0  0
    1.8049   -0.6378    2.4039 H   0  0  0  1  0  0  0  0  0  0  0  0
   -0.0441    4.2004   -2.8446 H   0  0  0  1  0  0  0  0  0  0  0  0
    1.6333    3.7398   -2.6815 H   0  0  0  1  0  0  0  0  0  0  0  0
    1.1730    5.4213   -2.5604 H   0  0  0  1  0  0  0  0  0  0  0  0
   -4.4301    8.0052    0.4437 Br  0  0  0  1  0  0  0  0  0  0  0  0
   -3.4402    6.4149    0.6951 C   0  0  0  1  0  0  0  0  0  0  0  0
   -2.9395    6.1049    1.9500 C   0  0  0  1  0  0  0  0  0  0  0  0
   -2.2831    4.9061    2.1555 C   0  0  0  1  0  0  0  0  0  0  0  0
   -2.1302    4.0114    1.1079 C   0  0  0  1  0  0  0  0  0  0  0  0
   -2.6293    4.3203   -0.1435 C   0  0  0  1  0  0  0  0  0  0  0  0
   -3.2876    5.5227   -0.3494 C   0  0  0  1  0  0  0  0  0  0  0  0
   -1.4180    2.6985    1.3331 C   0  0  0  1  0  0  0  0  0  0  0  0
   -3.0578    6.7744    2.7369 H   0  0  0  1  0  0  0  0  0  0  0  0
   -1.9040    4.6754    3.0960 H   0  0  0  1  0  0  0  0  0  0  0  0
   -2.5109    3.6507   -0.9304 H   0  0  0  1  0  0  0  0  0  0  0  0
   -3.6667    5.7534   -1.2900 H   0  0  0  1  0  0  0  0  0  0  0  0
   -1.5150    2.4311    2.3646 H   0  0  0  1  0  0  0  0  0  0  0  0
   -1.8824    1.9505    0.7250 H   0  0  0  1  0  0  0  0  0  0  0  0
  1  4  1  0  0  0  0
  2  4  1  0  0  0  0
  2  5  2  0  0  0  0
  2  6  1  0  0  0  0
  3  4  1  0  0  0  0
  3  7  1  0  0  0  0
  3  8  1  0  0  0  0
  4 26  1  0  0  0  0
  6  9  1  0  0  0  0
  6 12  1  0  0  0  0
  8 10  1  0  0  0  0
  8 11  2  0  0  0  0
  9 13  1  0  0  0  0
  9 14  1  0  0  0  0
  9 15  1  0  0  0  0
 10 16  1  0  0  0  0
 10 17  1  0  0  0  0
 10 18  1  0  0  0  0
 19 20  1  0  0  0  0
 20 21  4  0  0  0  0
 20 25  4  0  0  0  0
 21 22  4  0  0  0  0
 21 27  1  0  0  0  0
 22 23  4  0  0  0  0
 22 28  1  0  0  0  0
 23 24  4  0  0  0  0
 23 26  1  0  0  0  0
 24 25  4  0  0  0  0
 24 29  1  0  0  0  0
 25 30  1  0  0  0  0
 26 31  1  0  0  0  0
 26 32  1  0  0  0  0
M  END
> <BCLConfClusterSize>
1

> <ConfClashScore>
0 

> <ConfOneFourInteractionScore>
-0.990503 

> <ConfScore>
-0.236877 

> <ConfScorePBest>
0.00709334 

> <ConfTolerance>
0.21235 

> <RosettaParamsInstructions>
M  ROOT 3
M  POLY_N_BB 3
M  POLY_CA_BB 4
M  POLY_C_BB 2
M  POLY_O_BB 5
M  POLY_IGNORE 9 10 11 12 13 14 15 16 17 18 
M  POLY_UPPER 6
M  POLY_LOWER 8
M  POLY_CHG 0
M  POLY_PROPERTIES ALPHA_AA L_AA PROTEIN AROMATIC POLYMER 
M  END

$$$$



 32 32  0  0  0  0  0  0  0  0999 V2000
    0.4563    3.2676    0.5024 H   0  0  0  1  0  0  0  0  0  0  0  0
    0.5156    3.5968    2.6157 C   0  0  0  1  0  0  0  0  0  0  0  0
    0.6236    1.4255    1.4626 N   0  0  0  1  0  0  0  0  0  0  0  0
    0.0988    2.7807    1.3856 C   0  0  0  1  0  0  0  0  0  0  0  0
    0.7666    4.7954    2.4997 O   0  0  0  1  0  0  0  0  0  0  0  0
    0.5017    2.9623    3.7928 N   0  0  0  1  0  0  0  0  0  0  0  0
    0.0072    0.6903    1.6623 H   0  0  0  1  0  0  0  0  0  0  0  0
    1.9165    1.1489    1.2704 C   0  0  0  1  0  0  0  0  0  0  0  0
    0.7743    3.6943    5.0207 C   0  0  0  1  0  0  0  0  0  0  0  0
    2.3097   -0.3067    1.4313 C   0  0  0  1  0  0  0  0  0  0  0  0
    2.7424    1.9998    0.9834 O   0  0  0  1  0  0  0  0  0  0  0  0
    0.3075    2.0024    3.8286 H   0  0  0  1  0  0  0  0  0  0  0  0
    1.8052    3.9797    5.0451 H   0  0  0  1  0  0  0  0  0  0  0  0
    0.5570    3.0710    5.8629 H   0  0  0  1  0  0  0  0  0  0  0  0
    0.1610    4.5704    5.0571 H   0  0  0  1  0  0  0  0  0  0  0  0
    1.8045   -0.8965    0.6953 H   0  0  0  1  0  0  0  0  0  0  0  0
    2.0347   -0.6442    2.4087 H   0  0  0  1  0  0  0  0  0  0  0  0
    3.3673   -0.4064    1.3034 H   0  0  0  1  0  0  0  0  0  0  0  0
   -4.4301    8.0052    0.4437 Br  0  0  0  1  0  0  0  0  0  0  0  0
   -3.4402    6.4149    0.6951 C   0  0  0  1  0  0  0  0  0  0  0  0
   -2.9395    6.1049    1.9500 C   0  0  0  1  0  0  0  0  0  0  0  0
   -2.2831    4.9061    2.1555 C   0  0  0  1  0  0  0  0  0  0  0  0
   -2.1302    4.0114    1.1079 C   0  0  0  1  0  0  0  0  0  0  0  0
   -2.6293    4.3203   -0.1435 C   0  0  0  1  0  0  0  0  0  0  0  0
   -3.2876    5.5227   -0.3494 C   0  0  0  1  0  0  0  0  0  0  0  0
   -1.4180    2.6985    1.3331 C   0  0  0  1  0  0  0  0  0  0  0  0
   -3.0578    6.7744    2.7369 H   0  0  0  1  0  0  0  0  0  0  0  0
   -1.9040    4.6754    3.0960 H   0  0  0  1  0  0  0  0  0  0  0  0
   -2.5109    3.6507   -0.9304 H   0  0  0  1  0  0  0  0  0  0  0  0
   -3.6667    5.7534   -1.2900 H   0  0  0  1  0  0  0  0  0  0  0  0
   -1.7590    2.2934    2.2629 H   0  0  0  1  0  0  0  0  0  0  0  0
   -1.6853    2.0370    0.5357 H   0  0  0  1  0  0  0  0  0  0  0  0
  1  4  1  0  0  0  0
  2  4  1  0  0  0  0
  2  5  2  0  0  0  0
  2  6  1  0  0  0  0
  3  4  1  0  0  0  0
  3  7  1  0  0  0  0
  3  8  1  0  0  0  0
  4 26  1  0  0  0  0
  6  9  1  0  0  0  0
  6 12  1  0  0  0  0
  8 10  1  0  0  0  0
  8 11  2  0  0  0  0
  9 13  1  0  0  0  0
  9 14  1  0  0  0  0
  9 15  1  0  0  0  0
 10 16  1  0  0  0  0
 10 17  1  0  0  0  0
 10 18  1  0  0  0  0
 19 20  1  0  0  0  0
 20 21  4  0  0  0  0
 20 25  4  0  0  0  0
 21 22  4  0  0  0  0
 21 27  1  0  0  0  0
 22 23  4  0  0  0  0
 22 28  1  0  0  0  0
 23 24  4  0  0  0  0
 23 26  1  0  0  0  0
 24 25  4  0  0  0  0
 24 29  1  0  0  0  0
 25 30  1  0  0  0  0
 26 31  1  0  0  0  0
 26 32  1  0  0  0  0
M  END
> <BCLConfClusterSize>
1

> <ConfClashScore>
0 

> <ConfOneFourInteractionScore>
-0.960318 

> <ConfScore>
-0.235522 

> <ConfScorePBest>
0.00706485 

> <ConfTolerance>
0.225152 

> <RosettaParamsInstructions>
M  ROOT 3
M  POLY_N_BB 3
M  POLY_CA_BB 4
M  POLY_C_BB 2
M  POLY_O_BB 5
M  POLY_IGNORE 9 10 11 12 13 14 15 16 17 18 
M  POLY_UPPER 6
M  POLY_LOWER 8
M  POLY_CHG 0
M  POLY_PROPERTIES ALPHA_AA L_AA PROTEIN AROMATIC POLYMER 
M  END

$$$$



 32 32  0  0  0  0  0  0  0  0999 V2000
   -0.1836    3.1416    2.9889 H   0  0  0  1  0  0  0  0  0  0  0  0
    0.6289    1.4397    2.0281 C   0  0  0  1  0  0  0  0  0  0  0  0
    0.7939    3.7588    1.2713 N   0  0  0  1  0  0  0  0  0  0  0  0
   -0.0480    2.8036    1.9828 C   0  0  0  1  0  0  0  0  0  0  0  0
    0.5927    0.7464    3.0435 O   0  0  0  1  0  0  0  0  0  0  0  0
    1.1795    1.0107    0.8836 N   0  0  0  1  0  0  0  0  0  0  0  0
    0.5018    4.0446    0.3806 H   0  0  0  1  0  0  0  0  0  0  0  0
    1.9315    4.2726    1.7416 C   0  0  0  1  0  0  0  0  0  0  0  0
    1.9267   -0.2353    0.7996 C   0  0  0  1  0  0  0  0  0  0  0  0
    2.6654    5.2705    0.8368 C   0  0  0  1  0  0  0  0  0  0  0  0
    2.3578    4.0420    2.8719 O   0  0  0  1  0  0  0  0  0  0  0  0
    1.0752    1.5551    0.0755 H   0  0  0  1  0  0  0  0  0  0  0  0
    1.2489   -1.0620    0.8451 H   0  0  0  1  0  0  0  0  0  0  0  0
    2.6154   -0.2937    1.6164 H   0  0  0  1  0  0  0  0  0  0  0  0
    2.4651   -0.2663   -0.1246 H   0  0  0  1  0  0  0  0  0  0  0  0
    3.5445    5.6238    1.3340 H   0  0  0  1  0  0  0  0  0  0  0  0
    2.0210    6.0972    0.6217 H   0  0  0  1  0  0  0  0  0  0  0  0
    2.9425    4.7866   -0.0764 H   0  0  0  1  0  0  0  0  0  0  0  0
   -4.4301    8.0052    0.4437 Br  0  0  0  1  0  0  0  0  0  0  0  0
   -3.4402    6.4149    0.6951 C   0  0  0  1  0  0  0  0  0  0  0  0
   -2.9395    6.1049    1.9500 C   0  0  0  1  0  0  0  0  0  0  0  0
   -2.2831    4.9061    2.1555 C   0  0  0  1  0  0  0  0  0  0  0  0
   -2.1302    4.0114    1.1079 C   0  0  0  1  0  0  0  0  0  0  0  0
   -2.6293    4.3203   -0.1435 C   0  0  0  1  0  0  0  0  0  0  0  0
   -3.2876    5.5227   -0.3494 C   0  0  0  1  0  0  0  0  0  0  0  0
   -1.4180    2.6985    1.3331 C   0  0  0  1  0  0  0  0  0  0  0  0
   -3.0578    6.7744    2.7369 H   0  0  0  1  0  0  0  0  0  0  0  0
   -1.9040    4.6754    3.0960 H   0  0  0  1  0  0  0  0  0  0  0  0
   -2.5109    3.6507   -0.9304 H   0  0  0  1  0  0  0  0  0  0  0  0
   -3.6667    5.7534   -1.2900 H   0  0  0  1  0  0  0  0  0  0  0  0
   -2.0357    2.0916    1.9616 H   0  0  0  1  0  0  0  0  0  0  0  0
   -1.2971    2.2214    0.3831 H   0  0  0  1  0  0  0  0  0  0  0  0
  1  4  1  0  0  0  0
  2  4  1  0  0  0  0
  2  5  2  0  0  0  0
  2  6  1  0  0  0  0
  3  4  1  0  0  0  0
  3  7  1  0  0  0  0
  3  8  1  0  0  0  0
  4 26  1  0  0  0  0
  6  9  1  0  0  0  0
  6 12  1  0  0  0  0
  8 10  1  0  0  0  0
  8 11  2  0  0  0  0
  9 13  1  0  0  0  0
  9 14  1  0  0  0  0
  9 15  1  0  0  0  0
 10 16  1  0  0  0  0
 10 17  1  0  0  0  0
 10 18  1  0  0  0  0
 19 20  1  0  0  0  0
 20 21  4  0  0  0  0
 20 25  4  0  0  0  0
 21 22  4  0  0  0  0
 21 27  1  0  0  0  0
 22 23  4  0  0  0  0
 22 28  1  0  0  0  0
 23 24  4  0  0  0  0
 23 26  1  0  0  0  0
 24 25  4  0  0  0  0
 24 29  1  0  0  0  0
 25 30  1  0  0  0  0
 26 31  1  0  0  0  0
 26 32  1  0  0  0  0
M  END
> <BCLConfClusterSize>
1

> <ConfClashScore>
0 

> <ConfOneFourInteractionScore>
-0.960318 

> <ConfScore>
-0.235162 

> <ConfScorePBest>
0.00703637 

> <ConfTolerance>
0.221433 

> <RosettaParamsInstructions>
M  ROOT 3
M  POLY_N_BB 3
M  POLY_CA_BB 4
M  POLY_C_BB 2
M  POLY_O_BB 5
M  POLY_IGNORE 9 10 11 12 13 14 15 16 17 18 
M  POLY_UPPER 6
M  POLY_LOWER 8
M  POLY_CHG 0
M  POLY_PROPERTIES ALPHA_AA L_AA PROTEIN AROMATIC POLYMER 
M  END

$$$$



 32 32  0  0  0  0  0  0  0  0999 V2000
   -2.6110    2.0588    2.9689 H   0  0  0  1  0  0  0  0  0  0  0  0
   -3.5125    1.3420    1.1827 C   0  0  0  1  0  0  0  0  0  0  0  0
   -1.5660    0.4151    2.2474 N   0  0  0  1  0  0  0  0  0  0  0  0
   -2.2873    1.6602    2.0302 C   0  0  0  1  0  0  0  0  0  0  0  0
   -4.5087    2.0603    1.2515 O   0  0  0  1  0  0  0  0  0  0  0  0
   -3.4039    0.3211    0.3258 N   0  0  0  1  0  0  0  0  0  0  0  0
   -0.6410    0.3431    1.9319 H   0  0  0  1  0  0  0  0  0  0  0  0
   -2.1265   -0.6437    2.8681 C   0  0  0  1  0  0  0  0  0  0  0  0
   -4.4890   -0.0666   -0.5630 C   0  0  0  1  0  0  0  0  0  0  0  0
   -1.2965   -1.8918    3.0291 C   0  0  0  1  0  0  0  0  0  0  0  0
   -3.2807   -0.5946    3.2911 O   0  0  0  1  0  0  0  0  0  0  0  0
   -2.5644   -0.1836    0.2954 H   0  0  0  1  0  0  0  0  0  0  0  0
   -5.3783   -0.2300    0.0091 H   0  0  0  1  0  0  0  0  0  0  0  0
   -4.2248   -0.9676   -1.0762 H   0  0  0  1  0  0  0  0  0  0  0  0
   -4.6618    0.7127   -1.2755 H   0  0  0  1  0  0  0  0  0  0  0  0
   -0.9736   -2.2326    2.0676 H   0  0  0  1  0  0  0  0  0  0  0  0
   -1.8845   -2.6529    3.4980 H   0  0  0  1  0  0  0  0  0  0  0  0
   -0.4421   -1.6758    3.6361 H   0  0  0  1  0  0  0  0  0  0  0  0
   -4.4301    8.0052    0.4437 Br  0  0  0  1  0  0  0  0  0  0  0  0
   -3.4402    6.4149    0.6951 C   0  0  0  1  0  0  0  0  0  0  0  0
   -2.9395    6.1049    1.9500 C   0  0  0  1  0  0  0  0  0  0  0  0
   -2.2831    4.9061    2.1555 C   0  0  0  1  0  0  0  0  0  0  0  0
   -2.1302    4.0114    1.1079 C   0  0  0  1  0  0  0  0  0  0  0  0
   -2.6293    4.3203   -0.1435 C   0  0  0  1  0  0  0  0  0  0  0  0
   -3.2876    5.5227   -0.3494 C   0  0  0  1  0  0  0  0  0  0  0  0
   -1.4180    2.6985    1.3331 C   0  0  0  1  0  0  0  0  0  0  0  0
   -3.0578    6.7744    2.7369 H   0  0  0  1  0  0  0  0  0  0  0  0
   -1.9040    4.6754    3.0960 H   0  0  0  1  0  0  0  0  0  0  0  0
   -2.5109    3.6507   -0.9304 H   0  0  0  1  0  0  0  0  0  0  0  0
   -3.6667    5.7534   -1.2900 H   0  0  0  1  0  0  0  0  0  0  0  0
   -1.1157    2.3078    0.3840 H   0  0  0  1  0  0  0  0  0  0  0  0
   -0.5533    2.8793    1.9368 H   0  0  0  1  0  0  0  0  0  0  0  0
  1  4  1  0  0  0  0
  2  4  1  0  0  0  0
  2  5  2  0  0  0  0
  2  6  1  0  0  0  0
  3  4  1  0  0  0  0
  3  7  1  0  0  0  0
  3  8  1  0  0  0  0
  4 26  1  0  0  0  0
  6  9  1  0  0  0  0
  6 12  1  0  0  0  0
  8 10  1  0  0  0  0
  8 11  2  0  0  0  0
  9 13  1  0  0  0  0
  9 14  1  0  0  0  0
  9 15  1  0  0  0  0
 10 16  1  0  0  0  0
 10 17  1  0  0  0  0
 10 18  1  0  0  0  0
 19 20  1  0  0  0  0
 20 21  4  0  0  0  0
 20 25  4  0  0  0  0
 21 22  4  0  0  0  0
 21 27  1  0  0  0  0
 22 23  4  0  0  0  0
 22 28  1  0  0  0  0
 23 24  4  0  0  0  0
 23 26  1  0  0  0  0
 24 25  4  0  0  0  0
 24 29  1  0  0  0  0
 25 30  1  0  0  0  0
 26 31  1  0  0  0  0
 26 32  1  0  0  0  0
M  END
> <BCLConfClusterSize>
1

> <ConfClashScore>
0 

> <ConfOneFourInteractionScore>
-0.94165 

> <ConfScore>
-0.234267 

> <ConfScorePBest>
0.00700789 

> <ConfTolerance>
0.163871 

> <RosettaParamsInstructions>
M  ROOT 3
M  POLY_N_BB 3
M  POLY_CA_BB 4
M  POLY_C_BB 2
M  POLY_O_BB 5
M  POLY_IGNORE 9 10 11 12 13 14 15 16 17 18 
M  POLY_UPPER 6
M  POLY_LOWER 8
M  POLY_CHG 0
M  POLY_PROPERTIES ALPHA_AA L_AA PROTEIN AROMATIC POLYMER 
M  END

$$$$



 32 32  0  0  0  0  0  0  0  0999 V2000
   -3.0051    1.4425    1.6353 H   0  0  0  1  0  0  0  0  0  0  0  0
   -1.2533    0.3670    2.1727 C   0  0  0  1  0  0  0  0  0  0  0  0
   -2.3729    2.1046    3.4903 N   0  0  0  1  0  0  0  0  0  0  0  0
   -2.0840    1.6561    2.1363 C   0  0  0  1  0  0  0  0  0  0  0  0
   -1.4275   -0.5241    1.3430 O   0  0  0  1  0  0  0  0  0  0  0  0
   -0.2835    0.3120    3.0919 N   0  0  0  1  0  0  0  0  0  0  0  0
   -1.9973    2.9564    3.7966 H   0  0  0  1  0  0  0  0  0  0  0  0
   -3.1324    1.3956    4.3302 C   0  0  0  1  0  0  0  0  0  0  0  0
    0.7042   -0.7565    3.1169 C   0  0  0  1  0  0  0  0  0  0  0  0
   -3.3629    2.0169    5.6940 C   0  0  0  1  0  0  0  0  0  0  0  0
   -3.6219    0.3065    4.0338 O   0  0  0  1  0  0  0  0  0  0  0  0
   -0.2363    1.0157    3.7723 H   0  0  0  1  0  0  0  0  0  0  0  0
    0.8408   -1.0931    4.1233 H   0  0  0  1  0  0  0  0  0  0  0  0
    1.6341   -0.3912    2.7338 H   0  0  0  1  0  0  0  0  0  0  0  0
    0.3638   -1.5707    2.5118 H   0  0  0  1  0  0  0  0  0  0  0  0
   -2.6583    1.6165    6.3926 H   0  0  0  1  0  0  0  0  0  0  0  0
   -4.3566    1.7952    6.0233 H   0  0  0  1  0  0  0  0  0  0  0  0
   -3.2367    3.0774    5.6285 H   0  0  0  1  0  0  0  0  0  0  0  0
   -4.4104    8.0163    0.4421 Br  0  0  0  1  0  0  0  0  0  0  0  0
   -3.4362    6.4164    0.6936 C   0  0  0  1  0  0  0  0  0  0  0  0
   -2.9399    6.1008    1.9488 C   0  0  0  1  0  0  0  0  0  0  0  0
   -2.2954    4.8956    2.1543 C   0  0  0  1  0  0  0  0  0  0  0  0
   -2.1498    4.0001    1.1063 C   0  0  0  1  0  0  0  0  0  0  0  0
   -2.6445    4.3146   -0.1454 C   0  0  0  1  0  0  0  0  0  0  0  0
   -3.2910    5.5234   -0.3513 C   0  0  0  1  0  0  0  0  0  0  0  0
   -1.3595    2.7362    1.3498 C   0  0  0  1  0  0  0  0  0  0  0  0
   -3.0527    6.7709    2.7361 H   0  0  0  1  0  0  0  0  0  0  0  0
   -1.9195    4.6606    3.0951 H   0  0  0  1  0  0  0  0  0  0  0  0
   -2.5318    3.6444   -0.9326 H   0  0  0  1  0  0  0  0  0  0  0  0
   -3.6668    5.7584   -1.2921 H   0  0  0  1  0  0  0  0  0  0  0  0
   -1.0898    2.3271    0.3986 H   0  0  0  1  0  0  0  0  0  0  0  0
   -0.4738    2.9995    1.8895 H   0  0  0  1  0  0  0  0  0  0  0  0
  1  4  1  0  0  0  0
  2  4  1  0  0  0  0
  2  5  2  0  0  0  0
  2  6  1  0  0  0  0
  3  4  1  0  0  0  0
  3  7  1  0  0  0  0
  3  8  1  0  0  0  0
  4 26  1  0  0  0  0
  6  9  1  0  0  0  0
  6 12  1  0  0  0  0
  8 10  1  0  0  0  0
  8 11  2  0  0  0  0
  9 13  1  0  0  0  0
  9 14  1  0  0  0  0
  9 15  1  0  0  0  0
 10 16  1  0  0  0  0
 10 17  1  0  0  0  0
 10 18  1  0  0  0  0
 19 20  1  0  0  0  0
 20 21  4  0  0  0  0
 20 25  4  0  0  0  0
 21 22  4  0  0  0  0
 21 27  1  0  0  0  0
 22 23  4  0  0  0  0
 22 28  1  0  0  0  0
 23 24  4  0  0  0  0
 23 26  1  0  0  0  0
 24 25  4  0  0  0  0
 24 29  1  0  0  0  0
 25 30  1  0  0  0  0
 26 31  1  0  0  0  0
 26 32  1  0  0  0  0
M  END
> <BCLConfClusterSize>
1

> <ConfClashScore>
0 

> <ConfOneFourInteractionScore>
-0.956443 

> <ConfScore>
-0.230823 

> <ConfScorePBest>
0.00697941 

> <ConfTolerance>
0.268806 

> <RosettaParamsInstructions>
M  ROOT 3
M  POLY_N_BB 3
M  POLY_CA_BB 4
M  POLY_C_BB 2
M  POLY_O_BB 5
M  POLY_IGNORE 9 10 11 12 13 14 15 16 17 18 
M  POLY_UPPER 6
M  POLY_LOWER 8
M  POLY_CHG 0
M  POLY_PROPERTIES ALPHA_AA L_AA PROTEIN AROMATIC POLYMER 
M  END

$$$$



 32 32  0  0  0  0  0  0  0  0999 V2000
   -3.0342    1.7476    2.3529 H   0  0  0  1  0  0  0  0  0  0  0  0
   -3.1610    1.3083    0.2933 C   0  0  0  1  0  0  0  0  0  0  0  0
   -1.6531    0.2842    1.8974 N   0  0  0  1  0  0  0  0  0  0  0  0
   -2.3476    1.5226    1.5637 C   0  0  0  1  0  0  0  0  0  0  0  0
   -4.0950    2.0637    0.0289 O   0  0  0  1  0  0  0  0  0  0  0  0
   -2.7509    0.3358   -0.5279 N   0  0  0  1  0  0  0  0  0  0  0  0
   -0.6877    0.3352    2.0580 H   0  0  0  1  0  0  0  0  0  0  0  0
   -2.2339   -0.9146    2.0004 C   0  0  0  1  0  0  0  0  0  0  0  0
   -3.3574    0.1120   -1.8317 C   0  0  0  1  0  0  0  0  0  0  0  0
   -1.3504   -2.0547    2.5077 C   0  0  0  1  0  0  0  0  0  0  0  0
   -3.4039   -1.1750    1.7253 O   0  0  0  1  0  0  0  0  0  0  0  0
   -2.0163   -0.2464   -0.2418 H   0  0  0  1  0  0  0  0  0  0  0  0
   -3.7786    1.0275   -2.1916 H   0  0  0  1  0  0  0  0  0  0  0  0
   -4.1283   -0.6249   -1.7444 H   0  0  0  1  0  0  0  0  0  0  0  0
   -2.6114   -0.2311   -2.5177 H   0  0  0  1  0  0  0  0  0  0  0  0
   -0.3321   -1.7282    2.5444 H   0  0  0  1  0  0  0  0  0  0  0  0
   -1.4329   -2.8912    1.8456 H   0  0  0  1  0  0  0  0  0  0  0  0
   -1.6680   -2.3425    3.4881 H   0  0  0  1  0  0  0  0  0  0  0  0
   -4.4284    8.0074    0.4539 Br  0  0  0  1  0  0  0  0  0  0  0  0
   -3.4402    6.4143    0.6940 C   0  0  0  1  0  0  0  0  0  0  0  0
   -2.9367    6.0968    1.9459 C   0  0  0  1  0  0  0  0  0  0  0  0
   -2.2816    4.8959    2.1431 C   0  0  0  1  0  0  0  0  0  0  0  0
   -2.1327    4.0067    1.0903 C   0  0  0  1  0  0  0  0  0  0  0  0
   -2.6346    4.3231   -0.1580 C   0  0  0  1  0  0  0  0  0  0  0  0
   -3.2917    5.5276   -0.3557 C   0  0  0  1  0  0  0  0  0  0  0  0
   -1.4070    2.7227    1.4163 C   0  0  0  1  0  0  0  0  0  0  0  0
   -3.0520    6.7622    2.7367 H   0  0  0  1  0  0  0  0  0  0  0  0
   -1.9003    4.6595    3.0814 H   0  0  0  1  0  0  0  0  0  0  0  0
   -2.5194    3.6576   -0.9489 H   0  0  0  1  0  0  0  0  0  0  0  0
   -3.6729    5.7640   -1.2940 H   0  0  0  1  0  0  0  0  0  0  0  0
   -0.7114    2.5156    0.6301 H   0  0  0  1  0  0  0  0  0  0  0  0
   -0.8771    2.8552    2.3364 H   0  0  0  1  0  0  0  0  0  0  0  0
  1  4  1  0  0  0  0
  2  4  1  0  0  0  0
  2  5  2  0  0  0  0
  2  6  1  0  0  0  0
  3  4  1  0  0  0  0
  3  7  1  0  0  0  0
  3  8  1  0  0  0  0
  4 26  1  0  0  0  0
  6  9  1  0  0  0  0
  6 12  1  0  0  0  0
  8 10  1  0  0  0  0
  8 11  2  0  0  0  0
  9 13  1  0  0  0  0
  9 14  1  0  0  0  0
  9 15  1  0  0  0  0
 10 16  1  0  0  0  0
 10 17  1  0  0  0  0
 10 18  1  0  0  0  0
 19 20  1  0  0  0  0
 20 21  4  0  0  0  0
 20 25  4  0  0  0  0
 21 22  4  0  0  0  0
 21 27  1  0  0  0  0
 22 23  4  0  0  0  0
 22 28  1  0  0  0  0
 23 24  4  0  0  0  0
 23 26  1  0  0  0  0
 24 25  4  0  0  0  0
 24 29  1  0  0  0  0
 25 30  1  0  0  0  0
 26 31  1  0  0  0  0
 26 32  1  0  0  0  0
M  END
> <BCLConfClusterSize>
1

> <ConfClashScore>
0 

> <ConfOneFourInteractionScore>
-0.937775 

> <ConfScore>
-0.230518 

> <ConfScorePBest>
0.00695093 

> <ConfTolerance>
0.245603 

> <RosettaParamsInstructions>
M  ROOT 3
M  POLY_N_BB 3
M  POLY_CA_BB 4
M  POLY_C_BB 2
M  POLY_O_BB 5
M  POLY_IGNORE 9 10 11 12 13 14 15 16 17 18 
M  POLY_UPPER 6
M  POLY_LOWER 8
M  POLY_CHG 0
M  POLY_PROPERTIES ALPHA_AA L_AA PROTEIN AROMATIC POLYMER 
M  END

$$$$



 32 32  0  0  0  0  0  0  0  0999 V2000
    0.4625    3.4825    1.5447 H   0  0  0  1  0  0  0  0  0  0  0  0
    0.5884    1.3996    1.8372 C   0  0  0  1  0  0  0  0  0  0  0  0
    0.3493    2.5985   -0.3124 N   0  0  0  1  0  0  0  0  0  0  0  0
    0.0258    2.6095    1.1064 C   0  0  0  1  0  0  0  0  0  0  0  0
    0.8241    1.4397    3.0435 O   0  0  0  1  0  0  0  0  0  0  0  0
    0.7238    0.2813    1.1164 N   0  0  0  1  0  0  0  0  0  0  0  0
   -0.3668    2.6686   -0.9778 H   0  0  0  1  0  0  0  0  0  0  0  0
    1.6259    2.4926   -0.7116 C   0  0  0  1  0  0  0  0  0  0  0  0
    1.1406   -0.9562    1.7590 C   0  0  0  1  0  0  0  0  0  0  0  0
    1.8746    2.7179   -2.1903 C   0  0  0  1  0  0  0  0  0  0  0  0
    2.5490    2.2303    0.0584 O   0  0  0  1  0  0  0  0  0  0  0  0
    0.5419    0.2951    0.1536 H   0  0  0  1  0  0  0  0  0  0  0  0
    0.4273   -1.2269    2.5092 H   0  0  0  1  0  0  0  0  0  0  0  0
    2.0995   -0.8167    2.2127 H   0  0  0  1  0  0  0  0  0  0  0  0
    1.2014   -1.7347    1.0274 H   0  0  0  1  0  0  0  0  0  0  0  0
    2.9225    2.6396   -2.3922 H   0  0  0  1  0  0  0  0  0  0  0  0
    1.5306    3.6931   -2.4651 H   0  0  0  1  0  0  0  0  0  0  0  0
    1.3464    1.9799   -2.7570 H   0  0  0  1  0  0  0  0  0  0  0  0
   -4.4484    7.9948    0.4502 Br  0  0  0  1  0  0  0  0  0  0  0  0
   -3.4440    6.4128    0.6961 C   0  0  0  1  0  0  0  0  0  0  0  0
   -2.9376    6.1047    1.9491 C   0  0  0  1  0  0  0  0  0  0  0  0
   -2.2702    4.9114    2.1507 C   0  0  0  1  0  0  0  0  0  0  0  0
   -2.1119    4.0201    1.1010 C   0  0  0  1  0  0  0  0  0  0  0  0
   -2.6167    4.3270   -0.1486 C   0  0  0  1  0  0  0  0  0  0  0  0
   -3.2861    5.5240   -0.3506 C   0  0  0  1  0  0  0  0  0  0  0  0
   -1.4720    2.6759    1.3562 C   0  0  0  1  0  0  0  0  0  0  0  0
   -3.0599    6.7717    2.7377 H   0  0  0  1  0  0  0  0  0  0  0  0
   -1.8869    4.6821    3.0899 H   0  0  0  1  0  0  0  0  0  0  0  0
   -2.4944    3.6601   -0.9371 H   0  0  0  1  0  0  0  0  0  0  0  0
   -3.6694    5.7533   -1.2897 H   0  0  0  1  0  0  0  0  0  0  0  0
   -1.6479    2.4155    2.3790 H   0  0  0  1  0  0  0  0  0  0  0  0
   -1.9451    1.9587    0.7186 H   0  0  0  1  0  0  0  0  0  0  0  0
  1  4  1  0  0  0  0
  2  4  1  0  0  0  0
  2  5  2  0  0  0  0
  2  6  1  0  0  0  0
  3  4  1  0  0  0  0
  3  7  1  0  0  0  0
  3  8  1  0  0  0  0
  4 26  1  0  0  0  0
  6  9  1  0  0  0  0
  6 12  1  0  0  0  0
  8 10  1  0  0  0  0
  8 11  2  0  0  0  0
  9 13  1  0  0  0  0
  9 14  1  0  0  0  0
  9 15  1  0  0  0  0
 10 16  1  0  0  0  0
 10 17  1  0  0  0  0
 10 18  1  0  0  0  0
 19 20  1  0  0  0  0
 20 21  4  0  0  0  0
 20 25  4  0  0  0  0
 21 22  4  0  0  0  0
 21 27  1  0  0  0  0
 22 23  4  0  0  0  0
 22 28  1  0  0  0  0
 23 24  4  0  0  0  0
 23 26  1  0  0  0  0
 24 25  4  0  0  0  0
 24 29  1  0  0  0  0
 25 30  1  0  0  0  0
 26 31  1  0  0  0  0
 26 32  1  0  0  0  0
M  END
> <BCLConfClusterSize>
1

> <ConfClashScore>
0 

> <ConfOneFourInteractionScore>
-0.956443 

> <ConfScore>
-0.225518 

> <ConfScorePBest>
0.00692245 

> <ConfTolerance>
0.312348 

> <RosettaParamsInstructions>
M  ROOT 3
M  POLY_N_BB 3
M  POLY_CA_BB 4
M  POLY_C_BB 2
M  POLY_O_BB 5
M  POLY_IGNORE 9 10 11 12 13 14 15 16 17 18 
M  POLY_UPPER 6
M  POLY_LOWER 8
M  POLY_CHG 0
M  POLY_PROPERTIES ALPHA_AA L_AA PROTEIN AROMATIC POLYMER 
M  END

$$$$



 32 32  0  0  0  0  0  0  0  0999 V2000
   -3.1426    1.5714    1.0179 H   0  0  0  1  0  0  0  0  0  0  0  0
   -1.6696    0.2728    1.8142 C   0  0  0  1  0  0  0  0  0  0  0  0
   -3.0480    1.9484    3.0469 N   0  0  0  1  0  0  0  0  0  0  0  0
   -2.3999    1.6167    1.7869 C   0  0  0  1  0  0  0  0  0  0  0  0
   -1.5916   -0.4182    0.7996 O   0  0  0  1  0  0  0  0  0  0  0  0
   -1.0744   -0.0167    2.9762 N   0  0  0  1  0  0  0  0  0  0  0  0
   -2.5242    2.3937    3.7453 H   0  0  0  1  0  0  0  0  0  0  0  0
   -4.3323    1.6670    3.2847 C   0  0  0  1  0  0  0  0  0  0  0  0
   -0.2956   -1.2308    3.1695 C   0  0  0  1  0  0  0  0  0  0  0  0
   -4.8460    2.0463    4.6600 C   0  0  0  1  0  0  0  0  0  0  0  0
   -5.0665    1.1346    2.4534 O   0  0  0  1  0  0  0  0  0  0  0  0
   -1.1658    0.6105    3.7236 H   0  0  0  1  0  0  0  0  0  0  0  0
    0.0114   -1.6134    2.2185 H   0  0  0  1  0  0  0  0  0  0  0  0
   -0.8941   -1.9620    3.6714 H   0  0  0  1  0  0  0  0  0  0  0  0
    0.5685   -1.0097    3.7605 H   0  0  0  1  0  0  0  0  0  0  0  0
   -5.2638    3.0307    4.6263 H   0  0  0  1  0  0  0  0  0  0  0  0
   -4.0375    2.0260    5.3606 H   0  0  0  1  0  0  0  0  0  0  0  0
   -5.5993    1.3496    4.9637 H   0  0  0  1  0  0  0  0  0  0  0  0
   -4.4284    8.0074    0.4539 Br  0  0  0  1  0  0  0  0  0  0  0  0
   -3.4402    6.4143    0.6940 C   0  0  0  1  0  0  0  0  0  0  0  0
   -2.9367    6.0968    1.9459 C   0  0  0  1  0  0  0  0  0  0  0  0
   -2.2816    4.8959    2.1431 C   0  0  0  1  0  0  0  0  0  0  0  0
   -2.1327    4.0067    1.0903 C   0  0  0  1  0  0  0  0  0  0  0  0
   -2.6346    4.3231   -0.1580 C   0  0  0  1  0  0  0  0  0  0  0  0
   -3.2917    5.5276   -0.3557 C   0  0  0  1  0  0  0  0  0  0  0  0
   -1.4070    2.7227    1.4163 C   0  0  0  1  0  0  0  0  0  0  0  0
   -3.0520    6.7622    2.7367 H   0  0  0  1  0  0  0  0  0  0  0  0
   -1.9003    4.6595    3.0814 H   0  0  0  1  0  0  0  0  0  0  0  0
   -2.5194    3.6576   -0.9489 H   0  0  0  1  0  0  0  0  0  0  0  0
   -3.6729    5.7640   -1.2940 H   0  0  0  1  0  0  0  0  0  0  0  0
   -0.8401    2.4138    0.5630 H   0  0  0  1  0  0  0  0  0  0  0  0
   -0.7470    2.8925    2.2412 H   0  0  0  1  0  0  0  0  0  0  0  0
  1  4  1  0  0  0  0
  2  4  1  0  0  0  0
  2  5  2  0  0  0  0
  2  6  1  0  0  0  0
  3  4  1  0  0  0  0
  3  7  1  0  0  0  0
  3  8  1  0  0  0  0
  4 26  1  0  0  0  0
  6  9  1  0  0  0  0
  6 12  1  0  0  0  0
  8 10  1  0  0  0  0
  8 11  2  0  0  0  0
  9 13  1  0  0  0  0
  9 14  1  0  0  0  0
  9 15  1  0  0  0  0
 10 16  1  0  0  0  0
 10 17  1  0  0  0  0
 10 18  1  0  0  0  0
 19 20  1  0  0  0  0
 20 21  4  0  0  0  0
 20 25  4  0  0  0  0
 21 22  4  0  0  0  0
 21 27  1  0  0  0  0
 22 23  4  0  0  0  0
 22 28  1  0  0  0  0
 23 24  4  0  0  0  0
 23 26  1  0  0  0  0
 24 25  4  0  0  0  0
 24 29  1  0  0  0  0
 25 30  1  0  0  0  0
 26 31  1  0  0  0  0
 26 32  1  0  0  0  0
M  END
> <BCLConfClusterSize>
1

> <ConfClashScore>
0 

> <ConfOneFourInteractionScore>
-0.960318 

> <ConfScore>
-0.222987 

> <ConfScorePBest>
0.00689397 

> <ConfTolerance>
0.19557 

> <RosettaParamsInstructions>
M  ROOT 3
M  POLY_N_BB 3
M  POLY_CA_BB 4
M  POLY_C_BB 2
M  POLY_O_BB 5
M  POLY_IGNORE 9 10 11 12 13 14 15 16 17 18 
M  POLY_UPPER 6
M  POLY_LOWER 8
M  POLY_CHG 0
M  POLY_PROPERTIES ALPHA_AA L_AA PROTEIN AROMATIC POLYMER 
M  END

$$$$



 32 32  0  0  0  0  0  0  0  0999 V2000
   -2.7662    1.6958   -0.0606 H   0  0  0  1  0  0  0  0  0  0  0  0
   -1.8857    0.2165    1.1614 C   0  0  0  1  0  0  0  0  0  0  0  0
   -3.7093    1.7912    1.7734 N   0  0  0  1  0  0  0  0  0  0  0  0
   -2.5123    1.5881    0.9733 C   0  0  0  1  0  0  0  0  0  0  0  0
   -1.3632   -0.3774    0.2195 O   0  0  0  1  0  0  0  0  0  0  0  0
   -1.8585   -0.2568    2.4119 N   0  0  0  1  0  0  0  0  0  0  0  0
   -3.7159    2.4708    2.4795 H   0  0  0  1  0  0  0  0  0  0  0  0
   -4.8108    1.0461    1.5459 C   0  0  0  1  0  0  0  0  0  0  0  0
   -1.0597   -1.4304    2.7317 C   0  0  0  1  0  0  0  0  0  0  0  0
   -6.0259    1.3939    2.3836 C   0  0  0  1  0  0  0  0  0  0  0  0
   -4.8459    0.1386    0.7160 O   0  0  0  1  0  0  0  0  0  0  0  0
   -2.3776    0.1876    3.1143 H   0  0  0  1  0  0  0  0  0  0  0  0
   -1.5854   -2.0388    3.4377 H   0  0  0  1  0  0  0  0  0  0  0  0
   -0.1257   -1.1219    3.1530 H   0  0  0  1  0  0  0  0  0  0  0  0
   -0.8805   -1.9935    1.8397 H   0  0  0  1  0  0  0  0  0  0  0  0
   -6.4862    0.4945    2.7359 H   0  0  0  1  0  0  0  0  0  0  0  0
   -6.7250    1.9420    1.7871 H   0  0  0  1  0  0  0  0  0  0  0  0
   -5.7241    1.9906    3.2188 H   0  0  0  1  0  0  0  0  0  0  0  0
   -4.4494    7.9934    0.4454 Br  0  0  0  1  0  0  0  0  0  0  0  0
   -3.4439    6.4129    0.6966 C   0  0  0  1  0  0  0  0  0  0  0  0
   -2.9388    6.1084    1.9511 C   0  0  0  1  0  0  0  0  0  0  0  0
   -2.2707    4.9161    2.1565 C   0  0  0  1  0  0  0  0  0  0  0  0
   -2.1103    4.0223    1.1093 C   0  0  0  1  0  0  0  0  0  0  0  0
   -2.6139    4.3256   -0.1416 C   0  0  0  1  0  0  0  0  0  0  0  0
   -3.2840    5.5215   -0.3475 C   0  0  0  1  0  0  0  0  0  0  0  0
   -1.4790    2.6659    1.3166 C   0  0  0  1  0  0  0  0  0  0  0  0
   -3.0627    6.7773    2.7378 H   0  0  0  1  0  0  0  0  0  0  0  0
   -1.8883    4.6896    3.0968 H   0  0  0  1  0  0  0  0  0  0  0  0
   -2.4900    3.6568   -0.9283 H   0  0  0  1  0  0  0  0  0  0  0  0
   -3.6664    5.7481   -1.2878 H   0  0  0  1  0  0  0  0  0  0  0  0
   -0.6263    2.5640    0.6784 H   0  0  0  1  0  0  0  0  0  0  0  0
   -1.1756    2.5620    2.3374 H   0  0  0  1  0  0  0  0  0  0  0  0
  1  4  1  0  0  0  0
  2  4  1  0  0  0  0
  2  5  2  0  0  0  0
  2  6  1  0  0  0  0
  3  4  1  0  0  0  0
  3  7  1  0  0  0  0
  3  8  1  0  0  0  0
  4 26  1  0  0  0  0
  6  9  1  0  0  0  0
  6 12  1  0  0  0  0
  8 10  1  0  0  0  0
  8 11  2  0  0  0  0
  9 13  1  0  0  0  0
  9 14  1  0  0  0  0
  9 15  1  0  0  0  0
 10 16  1  0  0  0  0
 10 17  1  0  0  0  0
 10 18  1  0  0  0  0
 19 20  1  0  0  0  0
 20 21  4  0  0  0  0
 20 25  4  0  0  0  0
 21 22  4  0  0  0  0
 21 27  1  0  0  0  0
 22 23  4  0  0  0  0
 22 28  1  0  0  0  0
 23 24  4  0  0  0  0
 23 26  1  0  0  0  0
 24 25  4  0  0  0  0
 24 29  1  0  0  0  0
 25 30  1  0  0  0  0
 26 31  1  0  0  0  0
 26 32  1  0  0  0  0
M  END
> <BCLConfClusterSize>
1

> <ConfClashScore>
0 

> <ConfOneFourInteractionScore>
-0.960318 

> <ConfScore>
-0.220703 

> <ConfScorePBest>
0.00686549 

> <ConfTolerance>
0.320248 

> <RosettaParamsInstructions>
M  ROOT 3
M  POLY_N_BB 3
M  POLY_CA_BB 4
M  POLY_C_BB 2
M  POLY_O_BB 5
M  POLY_IGNORE 9 10 11 12 13 14 15 16 17 18 
M  POLY_UPPER 6
M  POLY_LOWER 8
M  POLY_CHG 0
M  POLY_PROPERTIES ALPHA_AA L_AA PROTEIN AROMATIC POLYMER 
M  END

$$$$



 32 32  0  0  0  0  0  0  0  0999 V2000
    0.0154    2.8712   -0.1216 H   0  0  0  1  0  0  0  0  0  0  0  0
    0.8273    3.6431    1.6609 C   0  0  0  1  0  0  0  0  0  0  0  0
    0.4943    1.2619    1.0658 N   0  0  0  1  0  0  0  0  0  0  0  0
   -0.0148    2.6158    0.9171 C   0  0  0  1  0  0  0  0  0  0  0  0
    0.7971    4.8331    1.3510 O   0  0  0  1  0  0  0  0  0  0  0  0
    1.5210    3.1928    2.7118 N   0  0  0  1  0  0  0  0  0  0  0  0
   -0.1250    0.5790    1.3983 H   0  0  0  1  0  0  0  0  0  0  0  0
    1.7406    0.8794    0.7838 C   0  0  0  1  0  0  0  0  0  0  0  0
    2.3147    4.0743    3.5549 C   0  0  0  1  0  0  0  0  0  0  0  0
    2.0331   -0.6052    0.9600 C   0  0  0  1  0  0  0  0  0  0  0  0
    2.6044    1.6546    0.4077 O   0  0  0  1  0  0  0  0  0  0  0  0
    1.4938    2.2358    2.9214 H   0  0  0  1  0  0  0  0  0  0  0  0
    1.9400    5.0736    3.4793 H   0  0  0  1  0  0  0  0  0  0  0  0
    3.3351    4.0510    3.2337 H   0  0  0  1  0  0  0  0  0  0  0  0
    2.2526    3.7463    4.5715 H   0  0  0  1  0  0  0  0  0  0  0  0
    2.1973   -1.0530    0.0022 H   0  0  0  1  0  0  0  0  0  0  0  0
    1.2002   -1.0784    1.4366 H   0  0  0  1  0  0  0  0  0  0  0  0
    2.9073   -0.7269    1.5649 H   0  0  0  1  0  0  0  0  0  0  0  0
   -4.4484    7.9948    0.4502 Br  0  0  0  1  0  0  0  0  0  0  0  0
   -3.4440    6.4128    0.6961 C   0  0  0  1  0  0  0  0  0  0  0  0
   -2.9376    6.1047    1.9491 C   0  0  0  1  0  0  0  0  0  0  0  0
   -2.2702    4.9114    2.1507 C   0  0  0  1  0  0  0  0  0  0  0  0
   -2.1119    4.0201    1.1010 C   0  0  0  1  0  0  0  0  0  0  0  0
   -2.6167    4.3270   -0.1486 C   0  0  0  1  0  0  0  0  0  0  0  0
   -3.2861    5.5240   -0.3506 C   0  0  0  1  0  0  0  0  0  0  0  0
   -1.4720    2.6759    1.3562 C   0  0  0  1  0  0  0  0  0  0  0  0
   -3.0599    6.7717    2.7377 H   0  0  0  1  0  0  0  0  0  0  0  0
   -1.8869    4.6821    3.0899 H   0  0  0  1  0  0  0  0  0  0  0  0
   -2.4944    3.6601   -0.9371 H   0  0  0  1  0  0  0  0  0  0  0  0
   -3.6694    5.7533   -1.2897 H   0  0  0  1  0  0  0  0  0  0  0  0
   -1.5204    2.4693    2.4050 H   0  0  0  1  0  0  0  0  0  0  0  0
   -2.0204    1.9302    0.8196 H   0  0  0  1  0  0  0  0  0  0  0  0
  1  4  1  0  0  0  0
  2  4  1  0  0  0  0
  2  5  2  0  0  0  0
  2  6  1  0  0  0  0
  3  4  1  0  0  0  0
  3  7  1  0  0  0  0
  3  8  1  0  0  0  0
  4 26  1  0  0  0  0
  6  9  1  0  0  0  0
  6 12  1  0  0  0  0
  8 10  1  0  0  0  0
  8 11  2  0  0  0  0
  9 13  1  0  0  0  0
  9 14  1  0  0  0  0
  9 15  1  0  0  0  0
 10 16  1  0  0  0  0
 10 17  1  0  0  0  0
 10 18  1  0  0  0  0
 19 20  1  0  0  0  0
 20 21  4  0  0  0  0
 20 25  4  0  0  0  0
 21 22  4  0  0  0  0
 21 27  1  0  0  0  0
 22 23  4  0  0  0  0
 22 28  1  0  0  0  0
 23 24  4  0  0  0  0
 23 26  1  0  0  0  0
 24 25  4  0  0  0  0
 24 29  1  0  0  0  0
 25 30  1  0  0  0  0
 26 31  1  0  0  0  0
 26 32  1  0  0  0  0
M  END
> <BCLConfClusterSize>
1

> <ConfClashScore>
0 

> <ConfOneFourInteractionScore>
-0.960318 

> <ConfScore>
-0.217094 

> <ConfScorePBest>
0.00683701 

> <ConfTolerance>
0.235014 

> <RosettaParamsInstructions>
M  ROOT 3
M  POLY_N_BB 3
M  POLY_CA_BB 4
M  POLY_C_BB 2
M  POLY_O_BB 5
M  POLY_IGNORE 9 10 11 12 13 14 15 16 17 18 
M  POLY_UPPER 6
M  POLY_LOWER 8
M  POLY_CHG 0
M  POLY_PROPERTIES ALPHA_AA L_AA PROTEIN AROMATIC POLYMER 
M  END

$$$$



 32 32  0  0  0  0  0  0  0  0999 V2000
    0.4814    3.6006    1.2704 H   0  0  0  1  0  0  0  0  0  0  0  0
    0.8218    1.5347    1.4116 C   0  0  0  1  0  0  0  0  0  0  0  0
    0.1517    2.7989   -0.5903 N   0  0  0  1  0  0  0  0  0  0  0  0
    0.0368    2.7174    0.8615 C   0  0  0  1  0  0  0  0  0  0  0  0
    0.6983    1.1803    2.5830 O   0  0  0  1  0  0  0  0  0  0  0  0
    1.5729    0.8613    0.5337 N   0  0  0  1  0  0  0  0  0  0  0  0
   -0.5709    2.4346   -1.1431 H   0  0  0  1  0  0  0  0  0  0  0  0
    1.2078    3.3528   -1.1927 C   0  0  0  1  0  0  0  0  0  0  0  0
    2.3390   -0.2983    0.9655 C   0  0  0  1  0  0  0  0  0  0  0  0
    1.1911    3.3246   -2.7087 C   0  0  0  1  0  0  0  0  0  0  0  0
    2.1416    3.8573   -0.5748 O   0  0  0  1  0  0  0  0  0  0  0  0
    1.6076    1.1493   -0.4024 H   0  0  0  1  0  0  0  0  0  0  0  0
    1.7274   -0.9195    1.5860 H   0  0  0  1  0  0  0  0  0  0  0  0
    3.1950    0.0262    1.5194 H   0  0  0  1  0  0  0  0  0  0  0  0
    2.6577   -0.8541    0.1085 H   0  0  0  1  0  0  0  0  0  0  0  0
    0.5721    2.5189   -3.0442 H   0  0  0  1  0  0  0  0  0  0  0  0
    2.1872    3.1845   -3.0735 H   0  0  0  1  0  0  0  0  0  0  0  0
    0.8024    4.2505   -3.0781 H   0  0  0  1  0  0  0  0  0  0  0  0
   -4.4301    8.0052    0.4437 Br  0  0  0  1  0  0  0  0  0  0  0  0
   -3.4402    6.4149    0.6951 C   0  0  0  1  0  0  0  0  0  0  0  0
   -2.9395    6.1049    1.9500 C   0  0  0  1  0  0  0  0  0  0  0  0
   -2.2831    4.9061    2.1555 C   0  0  0  1  0  0  0  0  0  0  0  0
   -2.1302    4.0114    1.1079 C   0  0  0  1  0  0  0  0  0  0  0  0
   -2.6293    4.3203   -0.1435 C   0  0  0  1  0  0  0  0  0  0  0  0
   -3.2876    5.5227   -0.3494 C   0  0  0  1  0  0  0  0  0  0  0  0
   -1.4180    2.6985    1.3331 C   0  0  0  1  0  0  0  0  0  0  0  0
   -3.0578    6.7744    2.7369 H   0  0  0  1  0  0  0  0  0  0  0  0
   -1.9040    4.6754    3.0960 H   0  0  0  1  0  0  0  0  0  0  0  0
   -2.5109    3.6507   -0.9304 H   0  0  0  1  0  0  0  0  0  0  0  0
   -3.6667    5.7534   -1.2900 H   0  0  0  1  0  0  0  0  0  0  0  0
   -1.4338    2.4777    2.3800 H   0  0  0  1  0  0  0  0  0  0  0  0
   -1.9394    1.9322    0.7985 H   0  0  0  1  0  0  0  0  0  0  0  0
  1  4  1  0  0  0  0
  2  4  1  0  0  0  0
  2  5  2  0  0  0  0
  2  6  1  0  0  0  0
  3  4  1  0  0  0  0
  3  7  1  0  0  0  0
  3  8  1  0  0  0  0
  4 26  1  0  0  0  0
  6  9  1  0  0  0  0
  6 12  1  0  0  0  0
  8 10  1  0  0  0  0
  8 11  2  0  0  0  0
  9 13  1  0  0  0  0
  9 14  1  0  0  0  0
  9 15  1  0  0  0  0
 10 16  1  0  0  0  0
 10 17  1  0  0  0  0
 10 18  1  0  0  0  0
 19 20  1  0  0  0  0
 20 21  4  0  0  0  0
 20 25  4  0  0  0  0
 21 22  4  0  0  0  0
 21 27  1  0  0  0  0
 22 23  4  0  0  0  0
 22 28  1  0  0  0  0
 23 24  4  0  0  0  0
 23 26  1  0  0  0  0
 24 25  4  0  0  0  0
 24 29  1  0  0  0  0
 25 30  1  0  0  0  0
 26 31  1  0  0  0  0
 26 32  1  0  0  0  0
M  END
> <BCLConfClusterSize>
1

> <ConfClashScore>
0 

> <ConfOneFourInteractionScore>
-0.937775 

> <ConfScore>
-0.212671 

> <ConfScorePBest>
0.00680853 

> <ConfTolerance>
0.191155 

> <RosettaParamsInstructions>
M  ROOT 3
M  POLY_N_BB 3
M  POLY_CA_BB 4
M  POLY_C_BB 2
M  POLY_O_BB 5
M  POLY_IGNORE 9 10 11 12 13 14 15 16 17 18 
M  POLY_UPPER 6
M  POLY_LOWER 8
M  POLY_CHG 0
M  POLY_PROPERTIES ALPHA_AA L_AA PROTEIN AROMATIC POLYMER 
M  END

$$$$



 32 32  0  0  0  0  0  0  0  0999 V2000
   -2.9742    1.5298    0.5378 H   0  0  0  1  0  0  0  0  0  0  0  0
   -1.6887    0.1529    1.4660 C   0  0  0  1  0  0  0  0  0  0  0  0
   -3.2653    1.6728    2.5810 N   0  0  0  1  0  0  0  0  0  0  0  0
   -2.3684    1.5115    1.4196 C   0  0  0  1  0  0  0  0  0  0  0  0
   -0.7918   -0.1113    0.6668 O   0  0  0  1  0  0  0  0  0  0  0  0
   -2.0556   -0.6711    2.4533 N   0  0  0  1  0  0  0  0  0  0  0  0
   -2.9523    2.1903    3.3521 H   0  0  0  1  0  0  0  0  0  0  0  0
   -4.4891    1.1378    2.6174 C   0  0  0  1  0  0  0  0  0  0  0  0
   -1.4060   -1.9705    2.5390 C   0  0  0  1  0  0  0  0  0  0  0  0
   -5.2805    1.4222    3.8875 C   0  0  0  1  0  0  0  0  0  0  0  0
   -4.9413    0.4036    1.7399 O   0  0  0  1  0  0  0  0  0  0  0  0
   -2.7424   -0.4074    3.1007 H   0  0  0  1  0  0  0  0  0  0  0  0
   -1.3919   -2.4273    1.5715 H   0  0  0  1  0  0  0  0  0  0  0  0
   -1.9459   -2.5947    3.2200 H   0  0  0  1  0  0  0  0  0  0  0  0
   -0.4025   -1.8449    2.8885 H   0  0  0  1  0  0  0  0  0  0  0  0
   -5.3510    2.4796    4.0351 H   0  0  0  1  0  0  0  0  0  0  0  0
   -4.7833    0.9778    4.7243 H   0  0  0  1  0  0  0  0  0  0  0  0
   -6.2631    1.0089    3.7952 H   0  0  0  1  0  0  0  0  0  0  0  0
   -4.4301    8.0052    0.4437 Br  0  0  0  1  0  0  0  0  0  0  0  0
   -3.4402    6.4149    0.6951 C   0  0  0  1  0  0  0  0  0  0  0  0
   -2.9395    6.1049    1.9500 C   0  0  0  1  0  0  0  0  0  0  0  0
   -2.2831    4.9061    2.1555 C   0  0  0  1  0  0  0  0  0  0  0  0
   -2.1302    4.0114    1.1079 C   0  0  0  1  0  0  0  0  0  0  0  0
   -2.6293    4.3203   -0.1435 C   0  0  0  1  0  0  0  0  0  0  0  0
   -3.2876    5.5227   -0.3494 C   0  0  0  1  0  0  0  0  0  0  0  0
   -1.4180    2.6985    1.3331 C   0  0  0  1  0  0  0  0  0  0  0  0
   -3.0578    6.7744    2.7369 H   0  0  0  1  0  0  0  0  0  0  0  0
   -1.9040    4.6754    3.0960 H   0  0  0  1  0  0  0  0  0  0  0  0
   -2.5109    3.6507   -0.9304 H   0  0  0  1  0  0  0  0  0  0  0  0
   -3.6667    5.7534   -1.2900 H   0  0  0  1  0  0  0  0  0  0  0  0
   -0.7412    2.5345    0.5208 H   0  0  0  1  0  0  0  0  0  0  0  0
   -0.8682    2.7620    2.2489 H   0  0  0  1  0  0  0  0  0  0  0  0
  1  4  1  0  0  0  0
  2  4  1  0  0  0  0
  2  5  2  0  0  0  0
  2  6  1  0  0  0  0
  3  4  1  0  0  0  0
  3  7  1  0  0  0  0
  3  8  1  0  0  0  0
  4 26  1  0  0  0  0
  6  9  1  0  0  0  0
  6 12  1  0  0  0  0
  8 10  1  0  0  0  0
  8 11  2  0  0  0  0
  9 13  1  0  0  0  0
  9 14  1  0  0  0  0
  9 15  1  0  0  0  0
 10 16  1  0  0  0  0
 10 17  1  0  0  0  0
 10 18  1  0  0  0  0
 19 20  1  0  0  0  0
 20 21  4  0  0  0  0
 20 25  4  0  0  0  0
 21 22  4  0  0  0  0
 21 27  1  0  0  0  0
 22 23  4  0  0  0  0
 22 28  1  0  0  0  0
 23 24  4  0  0  0  0
 23 26  1  0  0  0  0
 24 25  4  0  0  0  0
 24 29  1  0  0  0  0
 25 30  1  0  0  0  0
 26 31  1  0  0  0  0
 26 32  1  0  0  0  0
M  END
> <BCLConfClusterSize>
1

> <ConfClashScore>
0 

> <ConfOneFourInteractionScore>
-0.94165 

> <ConfScore>
-0.211554 

> <ConfScorePBest>
0.00678005 

> <ConfTolerance>
0.188403 

> <RosettaParamsInstructions>
M  ROOT 3
M  POLY_N_BB 3
M  POLY_CA_BB 4
M  POLY_C_BB 2
M  POLY_O_BB 5
M  POLY_IGNORE 9 10 11 12 13 14 15 16 17 18 
M  POLY_UPPER 6
M  POLY_LOWER 8
M  POLY_CHG 0
M  POLY_PROPERTIES ALPHA_AA L_AA PROTEIN AROMATIC POLYMER 
M  END

$$$$



 32 32  0  0  0  0  0  0  0  0999 V2000
   -3.0026    1.3915    0.8579 H   0  0  0  1  0  0  0  0  0  0  0  0
   -1.5585    0.2082    1.8364 C   0  0  0  1  0  0  0  0  0  0  0  0
   -3.0855    1.7699    2.8811 N   0  0  0  1  0  0  0  0  0  0  0  0
   -2.3181    1.5171    1.6707 C   0  0  0  1  0  0  0  0  0  0  0  0
   -0.6803    0.0978    2.6906 O   0  0  0  1  0  0  0  0  0  0  0  0
   -1.9870   -0.7898    1.0562 N   0  0  0  1  0  0  0  0  0  0  0  0
   -2.6074    1.8853    3.7287 H   0  0  0  1  0  0  0  0  0  0  0  0
   -4.4322    1.8508    2.8769 C   0  0  0  1  0  0  0  0  0  0  0  0
   -1.5762   -2.1703    1.2640 C   0  0  0  1  0  0  0  0  0  0  0  0
   -5.1474    1.9035    4.2129 C   0  0  0  1  0  0  0  0  0  0  0  0
   -5.0638    1.8810    1.8215 O   0  0  0  1  0  0  0  0  0  0  0  0
   -2.5989   -0.5843    0.3188 H   0  0  0  1  0  0  0  0  0  0  0  0
   -0.6392   -2.1903    1.7804 H   0  0  0  1  0  0  0  0  0  0  0  0
   -1.4718   -2.6575    0.3171 H   0  0  0  1  0  0  0  0  0  0  0  0
   -2.3155   -2.6782    1.8474 H   0  0  0  1  0  0  0  0  0  0  0  0
   -5.1319    0.9337    4.6648 H   0  0  0  1  0  0  0  0  0  0  0  0
   -6.1613    2.2105    4.0626 H   0  0  0  1  0  0  0  0  0  0  0  0
   -4.6536    2.6034    4.8541 H   0  0  0  1  0  0  0  0  0  0  0  0
   -4.4301    8.0052    0.4437 Br  0  0  0  1  0  0  0  0  0  0  0  0
   -3.4402    6.4149    0.6951 C   0  0  0  1  0  0  0  0  0  0  0  0
   -2.9395    6.1049    1.9500 C   0  0  0  1  0  0  0  0  0  0  0  0
   -2.2831    4.9061    2.1555 C   0  0  0  1  0  0  0  0  0  0  0  0
   -2.1302    4.0114    1.1079 C   0  0  0  1  0  0  0  0  0  0  0  0
   -2.6293    4.3203   -0.1435 C   0  0  0  1  0  0  0  0  0  0  0  0
   -3.2876    5.5227   -0.3494 C   0  0  0  1  0  0  0  0  0  0  0  0
   -1.4180    2.6985    1.3331 C   0  0  0  1  0  0  0  0  0  0  0  0
   -3.0578    6.7744    2.7369 H   0  0  0  1  0  0  0  0  0  0  0  0
   -1.9040    4.6754    3.0960 H   0  0  0  1  0  0  0  0  0  0  0  0
   -2.5109    3.6507   -0.9304 H   0  0  0  1  0  0  0  0  0  0  0  0
   -3.6667    5.7534   -1.2900 H   0  0  0  1  0  0  0  0  0  0  0  0
   -0.8787    2.4582    0.4408 H   0  0  0  1  0  0  0  0  0  0  0  0
   -0.7298    2.8308    2.1417 H   0  0  0  1  0  0  0  0  0  0  0  0
  1  4  1  0  0  0  0
  2  4  1  0  0  0  0
  2  5  2  0  0  0  0
  2  6  1  0  0  0  0
  3  4  1  0  0  0  0
  3  7  1  0  0  0  0
  3  8  1  0  0  0  0
  4 26  1  0  0  0  0
  6  9  1  0  0  0  0
  6 12  1  0  0  0  0
  8 10  1  0  0  0  0
  8 11  2  0  0  0  0
  9 13  1  0  0  0  0
  9 14  1  0  0  0  0
  9 15  1  0  0  0  0
 10 16  1  0  0  0  0
 10 17  1  0  0  0  0
 10 18  1  0  0  0  0
 19 20  1  0  0  0  0
 20 21  4  0  0  0  0
 20 25  4  0  0  0  0
 21 22  4  0  0  0  0
 21 27  1  0  0  0  0
 22 23  4  0  0  0  0
 22 28  1  0  0  0  0
 23 24  4  0  0  0  0
 23 26  1  0  0  0  0
 24 25  4  0  0  0  0
 24 29  1  0  0  0  0
 25 30  1  0  0  0  0
 26 31  1  0  0  0  0
 26 32  1  0  0  0  0
M  END
> <BCLConfClusterSize>
1

> <ConfClashScore>
0 

> <ConfOneFourInteractionScore>
-0.990503 

> <ConfScore>
-0.20794 

> <ConfScorePBest>
0.00675157 

> <ConfTolerance>
0.204758 

> <RosettaParamsInstructions>
M  ROOT 3
M  POLY_N_BB 3
M  POLY_CA_BB 4
M  POLY_C_BB 2
M  POLY_O_BB 5
M  POLY_IGNORE 9 10 11 12 13 14 15 16 17 18 
M  POLY_UPPER 6
M  POLY_LOWER 8
M  POLY_CHG 0
M  POLY_PROPERTIES ALPHA_AA L_AA PROTEIN AROMATIC POLYMER 
M  END

$$$$



 32 32  0  0  0  0  0  0  0  0999 V2000
   -3.0040    1.5382    0.5579 H   0  0  0  1  0  0  0  0  0  0  0  0
   -1.6154    0.1888    1.3803 C   0  0  0  1  0  0  0  0  0  0  0  0
   -3.2162    1.6284    2.6026 N   0  0  0  1  0  0  0  0  0  0  0  0
   -2.3740    1.5049    1.4221 C   0  0  0  1  0  0  0  0  0  0  0  0
   -1.4136   -0.4605    2.4053 O   0  0  0  1  0  0  0  0  0  0  0  0
   -1.2656   -0.2559    0.1686 N   0  0  0  1  0  0  0  0  0  0  0  0
   -2.8454    2.1023    3.3761 H   0  0  0  1  0  0  0  0  0  0  0  0
   -4.4547    1.1451    2.7110 C   0  0  0  1  0  0  0  0  0  0  0  0
   -0.4726   -1.4690    0.0364 C   0  0  0  1  0  0  0  0  0  0  0  0
   -5.1477    1.4000    4.0353 C   0  0  0  1  0  0  0  0  0  0  0  0
   -5.0152    0.5294    1.8052 O   0  0  0  1  0  0  0  0  0  0  0  0
   -1.5438    0.2360   -0.6320 H   0  0  0  1  0  0  0  0  0  0  0  0
   -0.7452   -2.1597    0.8068 H   0  0  0  1  0  0  0  0  0  0  0  0
    0.5660   -1.2274    0.1256 H   0  0  0  1  0  0  0  0  0  0  0  0
   -0.6554   -1.9119   -0.9203 H   0  0  0  1  0  0  0  0  0  0  0  0
   -4.8595    2.3598    4.4103 H   0  0  0  1  0  0  0  0  0  0  0  0
   -4.8647    0.6435    4.7371 H   0  0  0  1  0  0  0  0  0  0  0  0
   -6.2080    1.3767    3.8931 H   0  0  0  1  0  0  0  0  0  0  0  0
   -4.4301    8.0052    0.4437 Br  0  0  0  1  0  0  0  0  0  0  0  0
   -3.4402    6.4149    0.6951 C   0  0  0  1  0  0  0  0  0  0  0  0
   -2.9395    6.1049    1.9500 C   0  0  0  1  0  0  0  0  0  0  0  0
   -2.2831    4.9061    2.1555 C   0  0  0  1  0  0  0  0  0  0  0  0
   -2.1302    4.0114    1.1079 C   0  0  0  1  0  0  0  0  0  0  0  0
   -2.6293    4.3203   -0.1435 C   0  0  0  1  0  0  0  0  0  0  0  0
   -3.2876    5.5227   -0.3494 C   0  0  0  1  0  0  0  0  0  0  0  0
   -1.4180    2.6985    1.3331 C   0  0  0  1  0  0  0  0  0  0  0  0
   -3.0578    6.7744    2.7369 H   0  0  0  1  0  0  0  0  0  0  0  0
   -1.9040    4.6754    3.0960 H   0  0  0  1  0  0  0  0  0  0  0  0
   -2.5109    3.6507   -0.9304 H   0  0  0  1  0  0  0  0  0  0  0  0
   -3.6667    5.7534   -1.2900 H   0  0  0  1  0  0  0  0  0  0  0  0
   -0.7423    2.5337    0.5200 H   0  0  0  1  0  0  0  0  0  0  0  0
   -0.8670    2.7626    2.2481 H   0  0  0  1  0  0  0  0  0  0  0  0
  1  4  1  0  0  0  0
  2  4  1  0  0  0  0
  2  5  2  0  0  0  0
  2  6  1  0  0  0  0
  3  4  1  0  0  0  0
  3  7  1  0  0  0  0
  3  8  1  0  0  0  0
  4 26  1  0  0  0  0
  6  9  1  0  0  0  0
  6 12  1  0  0  0  0
  8 10  1  0  0  0  0
  8 11  2  0  0  0  0
  9 13  1  0  0  0  0
  9 14  1  0  0  0  0
  9 15  1  0  0  0  0
 10 16  1  0  0  0  0
 10 17  1  0  0  0  0
 10 18  1  0  0  0  0
 19 20  1  0  0  0  0
 20 21  4  0  0  0  0
 20 25  4  0  0  0  0
 21 22  4  0  0  0  0
 21 27  1  0  0  0  0
 22 23  4  0  0  0  0
 22 28  1  0  0  0  0
 23 24  4  0  0  0  0
 23 26  1  0  0  0  0
 24 25  4  0  0  0  0
 24 29  1  0  0  0  0
 25 30  1  0  0  0  0
 26 31  1  0  0  0  0
 26 32  1  0  0  0  0
M  END
> <BCLConfClusterSize>
1

> <ConfClashScore>
0 

> <ConfOneFourInteractionScore>
-0.985807 

> <ConfScore>
-0.204208 

> <ConfScorePBest>
0.00672309 

> <ConfTolerance>
0.15436 

> <RosettaParamsInstructions>
M  ROOT 3
M  POLY_N_BB 3
M  POLY_CA_BB 4
M  POLY_C_BB 2
M  POLY_O_BB 5
M  POLY_IGNORE 9 10 11 12 13 14 15 16 17 18 
M  POLY_UPPER 6
M  POLY_LOWER 8
M  POLY_CHG 0
M  POLY_PROPERTIES ALPHA_AA L_AA PROTEIN AROMATIC POLYMER 
M  END

$$$$



 32 32  0  0  0  0  0  0  0  0999 V2000
    0.5402    3.4182    1.6045 H   0  0  0  1  0  0  0  0  0  0  0  0
    0.6672    1.3253    1.2571 C   0  0  0  1  0  0  0  0  0  0  0  0
    0.3172    3.0121   -0.4203 N   0  0  0  1  0  0  0  0  0  0  0  0
    0.0625    2.6950    0.9770 C   0  0  0  1  0  0  0  0  0  0  0  0
    0.8241    0.5247    0.3366 O   0  0  0  1  0  0  0  0  0  0  0  0
    1.0825    1.0941    2.5071 N   0  0  0  1  0  0  0  0  0  0  0  0
   -0.3878    2.8433   -1.0798 H   0  0  0  1  0  0  0  0  0  0  0  0
    1.4788    3.5254   -0.8354 C   0  0  0  1  0  0  0  0  0  0  0  0
    1.5653   -0.2259    2.8844 C   0  0  0  1  0  0  0  0  0  0  0  0
    1.5874    3.7933   -2.3332 C   0  0  0  1  0  0  0  0  0  0  0  0
    2.4124    3.7726   -0.0732 O   0  0  0  1  0  0  0  0  0  0  0  0
    1.0616    1.8151    3.1705 H   0  0  0  1  0  0  0  0  0  0  0  0
    2.1920   -0.6124    2.1080 H   0  0  0  1  0  0  0  0  0  0  0  0
    0.7325   -0.8819    3.0299 H   0  0  0  1  0  0  0  0  0  0  0  0
    2.1263   -0.1541    3.7926 H   0  0  0  1  0  0  0  0  0  0  0  0
    0.8652    3.2011   -2.8553 H   0  0  0  1  0  0  0  0  0  0  0  0
    2.5698    3.5369   -2.6709 H   0  0  0  1  0  0  0  0  0  0  0  0
    1.4034    4.8299   -2.5241 H   0  0  0  1  0  0  0  0  0  0  0  0
   -4.4309    8.0037    0.4382 Br  0  0  0  1  0  0  0  0  0  0  0  0
   -3.4400    6.4150    0.6957 C   0  0  0  1  0  0  0  0  0  0  0  0
   -2.9409    6.1090    1.9522 C   0  0  0  1  0  0  0  0  0  0  0  0
   -2.2839    4.9114    2.1622 C   0  0  0  1  0  0  0  0  0  0  0  0
   -2.1287    4.0137    1.1174 C   0  0  0  1  0  0  0  0  0  0  0  0
   -2.6263    4.3185   -0.1355 C   0  0  0  1  0  0  0  0  0  0  0  0
   -3.2853    5.5198   -0.3459 C   0  0  0  1  0  0  0  0  0  0  0  0
   -1.4253    2.6879    1.2878 C   0  0  0  1  0  0  0  0  0  0  0  0
   -3.0609    6.7808    2.7370 H   0  0  0  1  0  0  0  0  0  0  0  0
   -1.9059    4.6837    3.1039 H   0  0  0  1  0  0  0  0  0  0  0  0
   -2.5063    3.6467   -0.9203 H   0  0  0  1  0  0  0  0  0  0  0  0
   -3.6632    5.7475   -1.2877 H   0  0  0  1  0  0  0  0  0  0  0  0
   -1.5487    2.3771    2.3042 H   0  0  0  1  0  0  0  0  0  0  0  0
   -1.8949    1.9793    0.6380 H   0  0  0  1  0  0  0  0  0  0  0  0
  1  4  1  0  0  0  0
  2  4  1  0  0  0  0
  2  5  2  0  0  0  0
  2  6  1  0  0  0  0
  3  4  1  0  0  0  0
  3  7  1  0  0  0  0
  3  8  1  0  0  0  0
  4 26  1  0  0  0  0
  6  9  1  0  0  0  0
  6 12  1  0  0  0  0
  8 10  1  0  0  0  0
  8 11  2  0  0  0  0
  9 13  1  0  0  0  0
  9 14  1  0  0  0  0
  9 15  1  0  0  0  0
 10 16  1  0  0  0  0
 10 17  1  0  0  0  0
 10 18  1  0  0  0  0
 19 20  1  0  0  0  0
 20 21  4  0  0  0  0
 20 25  4  0  0  0  0
 21 22  4  0  0  0  0
 21 27  1  0  0  0  0
 22 23  4  0  0  0  0
 22 28  1  0  0  0  0
 23 24  4  0  0  0  0
 23 26  1  0  0  0  0
 24 25  4  0  0  0  0
 24 29  1  0  0  0  0
 25 30  1  0  0  0  0
 26 31  1  0  0  0  0
 26 32  1  0  0  0  0
M  END
> <BCLConfClusterSize>
1

> <ConfClashScore>
0 

> <ConfOneFourInteractionScore>
-0.987695 

> <ConfScore>
-0.204095 

> <ConfScorePBest>
0.0066946 

> <ConfTolerance>
0.183699 

> <RosettaParamsInstructions>
M  ROOT 3
M  POLY_N_BB 3
M  POLY_CA_BB 4
M  POLY_C_BB 2
M  POLY_O_BB 5
M  POLY_IGNORE 9 10 11 12 13 14 15 16 17 18 
M  POLY_UPPER 6
M  POLY_LOWER 8
M  POLY_CHG 0
M  POLY_PROPERTIES ALPHA_AA L_AA PROTEIN AROMATIC POLYMER 
M  END

$$$$



 32 32  0  0  0  0  0  0  0  0999 V2000
   -3.0063    1.5256    0.7377 H   0  0  0  1  0  0  0  0  0  0  0  0
   -1.7062    0.1596    1.6127 C   0  0  0  1  0  0  0  0  0  0  0  0
   -3.2499    1.7378    2.7578 N   0  0  0  1  0  0  0  0  0  0  0  0
   -2.3650    1.5314    1.5943 C   0  0  0  1  0  0  0  0  0  0  0  0
   -1.1477   -0.2899    0.6132 O   0  0  0  1  0  0  0  0  0  0  0  0
   -1.6944   -0.4770    2.7886 N   0  0  0  1  0  0  0  0  0  0  0  0
   -2.8916    2.1893    3.5503 H   0  0  0  1  0  0  0  0  0  0  0  0
   -4.5348    1.3265    2.7679 C   0  0  0  1  0  0  0  0  0  0  0  0
   -1.0655   -1.7779    2.9621 C   0  0  0  1  0  0  0  0  0  0  0  0
   -5.4099    1.7571    3.9233 C   0  0  0  1  0  0  0  0  0  0  0  0
   -4.9837    0.6218    1.8649 O   0  0  0  1  0  0  0  0  0  0  0  0
   -2.1243   -0.0528    3.5604 H   0  0  0  1  0  0  0  0  0  0  0  0
   -0.0243   -1.6462    3.1709 H   0  0  0  1  0  0  0  0  0  0  0  0
   -1.1795   -2.3512    2.0659 H   0  0  0  1  0  0  0  0  0  0  0  0
   -1.5301   -2.2926    3.7769 H   0  0  0  1  0  0  0  0  0  0  0  0
   -5.4600    2.8255    3.9545 H   0  0  0  1  0  0  0  0  0  0  0  0
   -4.9949    1.3928    4.8398 H   0  0  0  1  0  0  0  0  0  0  0  0
   -6.3940    1.3578    3.7932 H   0  0  0  1  0  0  0  0  0  0  0  0
   -4.4293    8.0064    0.4488 Br  0  0  0  1  0  0  0  0  0  0  0  0
   -3.4402    6.4147    0.6945 C   0  0  0  1  0  0  0  0  0  0  0  0
   -2.9381    6.1009    1.9479 C   0  0  0  1  0  0  0  0  0  0  0  0
   -2.2824    4.9010    2.1493 C   0  0  0  1  0  0  0  0  0  0  0  0
   -2.1315    4.0091    1.0990 C   0  0  0  1  0  0  0  0  0  0  0  0
   -2.6320    4.3218   -0.1508 C   0  0  0  1  0  0  0  0  0  0  0  0
   -3.2897    5.5252   -0.3526 C   0  0  0  1  0  0  0  0  0  0  0  0
   -1.4121    2.7100    1.3751 C   0  0  0  1  0  0  0  0  0  0  0  0
   -3.0549    6.7683    2.7368 H   0  0  0  1  0  0  0  0  0  0  0  0
   -1.9022    4.6674    3.0887 H   0  0  0  1  0  0  0  0  0  0  0  0
   -2.5152    3.6543   -0.9397 H   0  0  0  1  0  0  0  0  0  0  0  0
   -3.6699    5.7589   -1.2920 H   0  0  0  1  0  0  0  0  0  0  0  0
   -0.7802    2.4866    0.5410 H   0  0  0  1  0  0  0  0  0  0  0  0
   -0.8138    2.8321    2.2538 H   0  0  0  1  0  0  0  0  0  0  0  0
  1  4  1  0  0  0  0
  2  4  1  0  0  0  0
  2  5  2  0  0  0  0
  2  6  1  0  0  0  0
  3  4  1  0  0  0  0
  3  7  1  0  0  0  0
  3  8  1  0  0  0  0
  4 26  1  0  0  0  0
  6  9  1  0  0  0  0
  6 12  1  0  0  0  0
  8 10  1  0  0  0  0
  8 11  2  0  0  0  0
  9 13  1  0  0  0  0
  9 14  1  0  0  0  0
  9 15  1  0  0  0  0
 10 16  1  0  0  0  0
 10 17  1  0  0  0  0
 10 18  1  0  0  0  0
 19 20  1  0  0  0  0
 20 21  4  0  0  0  0
 20 25  4  0  0  0  0
 21 22  4  0  0  0  0
 21 27  1  0  0  0  0
 22 23  4  0  0  0  0
 22 28  1  0  0  0  0
 23 24  4  0  0  0  0
 23 26  1  0  0  0  0
 24 25  4  0  0  0  0
 24 29  1  0  0  0  0
 25 30  1  0  0  0  0
 26 31  1  0  0  0  0
 26 32  1  0  0  0  0
M  END
> <BCLConfClusterSize>
1

> <ConfClashScore>
0 

> <ConfOneFourInteractionScore>
-0.94165 

> <ConfScore>
-0.203067 

> <ConfScorePBest>
0.00666612 

> <ConfTolerance>
0.220475 

> <RosettaParamsInstructions>
M  ROOT 3
M  POLY_N_BB 3
M  POLY_CA_BB 4
M  POLY_C_BB 2
M  POLY_O_BB 5
M  POLY_IGNORE 9 10 11 12 13 14 15 16 17 18 
M  POLY_UPPER 6
M  POLY_LOWER 8
M  POLY_CHG 0
M  POLY_PROPERTIES ALPHA_AA L_AA PROTEIN AROMATIC POLYMER 
M  END

$$$$



 32 32  0  0  0  0  0  0  0  0999 V2000
    0.2871    3.1420    0.0765 H   0  0  0  1  0  0  0  0  0  0  0  0
    0.5579    4.2498    1.8624 C   0  0  0  1  0  0  0  0  0  0  0  0
    0.8854    1.7997    1.5272 N   0  0  0  1  0  0  0  0  0  0  0  0
    0.1362    2.9787    1.1232 C   0  0  0  1  0  0  0  0  0  0  0  0
    0.5991    5.3278    1.2898 O   0  0  0  1  0  0  0  0  0  0  0  0
    0.7883    4.1245    3.1767 N   0  0  0  1  0  0  0  0  0  0  0  0
    0.4202    1.0876    2.0139 H   0  0  0  1  0  0  0  0  0  0  0  0
    2.1858    1.6536    1.2581 C   0  0  0  1  0  0  0  0  0  0  0  0
    1.1544    5.2892    3.9687 C   0  0  0  1  0  0  0  0  0  0  0  0
    2.8262    0.3795    1.7738 C   0  0  0  1  0  0  0  0  0  0  0  0
    2.8385    2.4885    0.6332 O   0  0  0  1  0  0  0  0  0  0  0  0
    0.7100    3.2467    3.6053 H   0  0  0  1  0  0  0  0  0  0  0  0
    0.7489    6.1703    3.5168 H   0  0  0  1  0  0  0  0  0  0  0  0
    2.2205    5.3696    4.0126 H   0  0  0  1  0  0  0  0  0  0  0  0
    0.7631    5.1842    4.9590 H   0  0  0  1  0  0  0  0  0  0  0  0
    3.7202    0.1800    1.2210 H   0  0  0  1  0  0  0  0  0  0  0  0
    2.1438   -0.4359    1.6545 H   0  0  0  1  0  0  0  0  0  0  0  0
    3.0663    0.4955    2.8101 H   0  0  0  1  0  0  0  0  0  0  0  0
   -4.4104    8.0163    0.4421 Br  0  0  0  1  0  0  0  0  0  0  0  0
   -3.4362    6.4164    0.6936 C   0  0  0  1  0  0  0  0  0  0  0  0
   -2.9399    6.1008    1.9488 C   0  0  0  1  0  0  0  0  0  0  0  0
   -2.2954    4.8956    2.1543 C   0  0  0  1  0  0  0  0  0  0  0  0
   -2.1498    4.0001    1.1063 C   0  0  0  1  0  0  0  0  0  0  0  0
   -2.6445    4.3146   -0.1454 C   0  0  0  1  0  0  0  0  0  0  0  0
   -3.2910    5.5234   -0.3513 C   0  0  0  1  0  0  0  0  0  0  0  0
   -1.3595    2.7362    1.3498 C   0  0  0  1  0  0  0  0  0  0  0  0
   -3.0527    6.7709    2.7361 H   0  0  0  1  0  0  0  0  0  0  0  0
   -1.9195    4.6606    3.0951 H   0  0  0  1  0  0  0  0  0  0  0  0
   -2.5318    3.6444   -0.9326 H   0  0  0  1  0  0  0  0  0  0  0  0
   -3.6668    5.7584   -1.2921 H   0  0  0  1  0  0  0  0  0  0  0  0
   -1.5138    2.4148    2.3587 H   0  0  0  1  0  0  0  0  0  0  0  0
   -1.6975    1.9759    0.6770 H   0  0  0  1  0  0  0  0  0  0  0  0
  1  4  1  0  0  0  0
  2  4  1  0  0  0  0
  2  5  2  0  0  0  0
  2  6  1  0  0  0  0
  3  4  1  0  0  0  0
  3  7  1  0  0  0  0
  3  8  1  0  0  0  0
  4 26  1  0  0  0  0
  6  9  1  0  0  0  0
  6 12  1  0  0  0  0
  8 10  1  0  0  0  0
  8 11  2  0  0  0  0
  9 13  1  0  0  0  0
  9 14  1  0  0  0  0
  9 15  1  0  0  0  0
 10 16  1  0  0  0  0
 10 17  1  0  0  0  0
 10 18  1  0  0  0  0
 19 20  1  0  0  0  0
 20 21  4  0  0  0  0
 20 25  4  0  0  0  0
 21 22  4  0  0  0  0
 21 27  1  0  0  0  0
 22 23  4  0  0  0  0
 22 28  1  0  0  0  0
 23 24  4  0  0  0  0
 23 26  1  0  0  0  0
 24 25  4  0  0  0  0
 24 29  1  0  0  0  0
 25 30  1  0  0  0  0
 26 31  1  0  0  0  0
 26 32  1  0  0  0  0
M  END
> <BCLConfClusterSize>
1

> <ConfClashScore>
0 

> <ConfOneFourInteractionScore>
-0.960318 

> <ConfScore>
-0.202436 

> <ConfScorePBest>
0.00663764 

> <ConfTolerance>
0.288024 

> <RosettaParamsInstructions>
M  ROOT 3
M  POLY_N_BB 3
M  POLY_CA_BB 4
M  POLY_C_BB 2
M  POLY_O_BB 5
M  POLY_IGNORE 9 10 11 12 13 14 15 16 17 18 
M  POLY_UPPER 6
M  POLY_LOWER 8
M  POLY_CHG 0
M  POLY_PROPERTIES ALPHA_AA L_AA PROTEIN AROMATIC POLYMER 
M  END

$$$$



 32 32  0  0  0  0  0  0  0  0999 V2000
    0.3945    3.7334    1.7194 H   0  0  0  1  0  0  0  0  0  0  0  0
    0.8674    1.6793    1.5373 C   0  0  0  1  0  0  0  0  0  0  0  0
    0.3608    3.2240   -0.2845 N   0  0  0  1  0  0  0  0  0  0  0  0
    0.0825    2.9116    1.1094 C   0  0  0  1  0  0  0  0  0  0  0  0
    0.7379    0.6227    0.9415 O   0  0  0  1  0  0  0  0  0  0  0  0
    1.7401    1.8886    2.5288 N   0  0  0  1  0  0  0  0  0  0  0  0
   -0.0697    2.6895   -0.9840 H   0  0  0  1  0  0  0  0  0  0  0  0
    1.1828    4.2142   -0.6436 C   0  0  0  1  0  0  0  0  0  0  0  0
    2.6281    0.8437    3.0163 C   0  0  0  1  0  0  0  0  0  0  0  0
    1.3661    4.4095   -2.1361 C   0  0  0  1  0  0  0  0  0  0  0  0
    1.7626    4.9319    0.1702 O   0  0  0  1  0  0  0  0  0  0  0  0
    1.7832    2.7764    2.9414 H   0  0  0  1  0  0  0  0  0  0  0  0
    2.9368    0.2269    2.1982 H   0  0  0  1  0  0  0  0  0  0  0  0
    2.1123    0.2459    3.7385 H   0  0  0  1  0  0  0  0  0  0  0  0
    3.4879    1.2899    3.4705 H   0  0  0  1  0  0  0  0  0  0  0  0
    1.3014    3.4629   -2.6308 H   0  0  0  1  0  0  0  0  0  0  0  0
    2.3255    4.8447   -2.3234 H   0  0  0  1  0  0  0  0  0  0  0  0
    0.6008    5.0587   -2.5072 H   0  0  0  1  0  0  0  0  0  0  0  0
   -4.4301    8.0052    0.4437 Br  0  0  0  1  0  0  0  0  0  0  0  0
   -3.4402    6.4149    0.6951 C   0  0  0  1  0  0  0  0  0  0  0  0
   -2.9395    6.1049    1.9500 C   0  0  0  1  0  0  0  0  0  0  0  0
   -2.2831    4.9061    2.1555 C   0  0  0  1  0  0  0  0  0  0  0  0
   -2.1302    4.0114    1.1079 C   0  0  0  1  0  0  0  0  0  0  0  0
   -2.6293    4.3203   -0.1435 C   0  0  0  1  0  0  0  0  0  0  0  0
   -3.2876    5.5227   -0.3494 C   0  0  0  1  0  0  0  0  0  0  0  0
   -1.4180    2.6985    1.3331 C   0  0  0  1  0  0  0  0  0  0  0  0
   -3.0578    6.7744    2.7369 H   0  0  0  1  0  0  0  0  0  0  0  0
   -1.9040    4.6754    3.0960 H   0  0  0  1  0  0  0  0  0  0  0  0
   -2.5109    3.6507   -0.9304 H   0  0  0  1  0  0  0  0  0  0  0  0
   -3.6667    5.7534   -1.2900 H   0  0  0  1  0  0  0  0  0  0  0  0
   -1.5889    2.3631    2.3347 H   0  0  0  1  0  0  0  0  0  0  0  0
   -1.7848    1.9668    0.6439 H   0  0  0  1  0  0  0  0  0  0  0  0
  1  4  1  0  0  0  0
  2  4  1  0  0  0  0
  2  5  2  0  0  0  0
  2  6  1  0  0  0  0
  3  4  1  0  0  0  0
  3  7  1  0  0  0  0
  3  8  1  0  0  0  0
  4 26  1  0  0  0  0
  6  9  1  0  0  0  0
  6 12  1  0  0  0  0
  8 10  1  0  0  0  0
  8 11  2  0  0  0  0
  9 13  1  0  0  0  0
  9 14  1  0  0  0  0
  9 15  1  0  0  0  0
 10 16  1  0  0  0  0
 10 17  1  0  0  0  0
 10 18  1  0  0  0  0
 19 20  1  0  0  0  0
 20 21  4  0  0  0  0
 20 25  4  0  0  0  0
 21 22  4  0  0  0  0
 21 27  1  0  0  0  0
 22 23  4  0  0  0  0
 22 28  1  0  0  0  0
 23 24  4  0  0  0  0
 23 26  1  0  0  0  0
 24 25  4  0  0  0  0
 24 29  1  0  0  0  0
 25 30  1  0  0  0  0
 26 31  1  0  0  0  0
 26 32  1  0  0  0  0
M  END
> <BCLConfClusterSize>
1

> <ConfClashScore>
0 

> <ConfOneFourInteractionScore>
-0.978127 

> <ConfScore>
-0.200077 

> <ConfScorePBest>
0.00660916 

> <ConfTolerance>
0.194816 

> <RosettaParamsInstructions>
M  ROOT 3
M  POLY_N_BB 3
M  POLY_CA_BB 4
M  POLY_C_BB 2
M  POLY_O_BB 5
M  POLY_IGNORE 9 10 11 12 13 14 15 16 17 18 
M  POLY_UPPER 6
M  POLY_LOWER 8
M  POLY_CHG 0
M  POLY_PROPERTIES ALPHA_AA L_AA PROTEIN AROMATIC POLYMER 
M  END

$$$$



 32 32  0  0  0  0  0  0  0  0999 V2000
    0.3373    3.2674    2.3876 H   0  0  0  1  0  0  0  0  0  0  0  0
    0.7354    1.3738    1.5483 C   0  0  0  1  0  0  0  0  0  0  0  0
    0.6779    3.4879    0.3675 N   0  0  0  1  0  0  0  0  0  0  0  0
    0.0942    2.7543    1.4807 C   0  0  0  1  0  0  0  0  0  0  0  0
    0.7714    0.6414    0.5607 O   0  0  0  1  0  0  0  0  0  0  0  0
    1.3259    1.0499    2.7036 N   0  0  0  1  0  0  0  0  0  0  0  0
    0.5718    3.1536   -0.5476 H   0  0  0  1  0  0  0  0  0  0  0  0
    1.3569    4.6142    0.5902 C   0  0  0  1  0  0  0  0  0  0  0  0
    2.1126   -0.1702    2.8053 C   0  0  0  1  0  0  0  0  0  0  0  0
    2.0807    5.1950   -0.6089 C   0  0  0  1  0  0  0  0  0  0  0  0
    1.4042    5.1613    1.6912 O   0  0  0  1  0  0  0  0  0  0  0  0
    1.2288    1.6354    3.4834 H   0  0  0  1  0  0  0  0  0  0  0  0
    2.8809   -0.1629    2.0606 H   0  0  0  1  0  0  0  0  0  0  0  0
    1.4772   -1.0176    2.6535 H   0  0  0  1  0  0  0  0  0  0  0  0
    2.5581   -0.2272    3.7764 H   0  0  0  1  0  0  0  0  0  0  0  0
    1.4062    5.2585   -1.4370 H   0  0  0  1  0  0  0  0  0  0  0  0
    2.9047    4.5635   -0.8680 H   0  0  0  1  0  0  0  0  0  0  0  0
    2.4422    6.1728   -0.3678 H   0  0  0  1  0  0  0  0  0  0  0  0
   -4.4293    8.0064    0.4488 Br  0  0  0  1  0  0  0  0  0  0  0  0
   -3.4402    6.4147    0.6945 C   0  0  0  1  0  0  0  0  0  0  0  0
   -2.9381    6.1009    1.9479 C   0  0  0  1  0  0  0  0  0  0  0  0
   -2.2824    4.9010    2.1493 C   0  0  0  1  0  0  0  0  0  0  0  0
   -2.1315    4.0091    1.0990 C   0  0  0  1  0  0  0  0  0  0  0  0
   -2.6320    4.3218   -0.1508 C   0  0  0  1  0  0  0  0  0  0  0  0
   -3.2897    5.5252   -0.3526 C   0  0  0  1  0  0  0  0  0  0  0  0
   -1.4121    2.7100    1.3751 C   0  0  0  1  0  0  0  0  0  0  0  0
   -3.0549    6.7683    2.7368 H   0  0  0  1  0  0  0  0  0  0  0  0
   -1.9022    4.6674    3.0887 H   0  0  0  1  0  0  0  0  0  0  0  0
   -2.5152    3.6543   -0.9397 H   0  0  0  1  0  0  0  0  0  0  0  0
   -3.6699    5.7589   -1.2920 H   0  0  0  1  0  0  0  0  0  0  0  0
   -1.7868    2.3271    2.3014 H   0  0  0  1  0  0  0  0  0  0  0  0
   -1.6578    2.0334    0.5835 H   0  0  0  1  0  0  0  0  0  0  0  0
  1  4  1  0  0  0  0
  2  4  1  0  0  0  0
  2  5  2  0  0  0  0
  2  6  1  0  0  0  0
  3  4  1  0  0  0  0
  3  7  1  0  0  0  0
  3  8  1  0  0  0  0
  4 26  1  0  0  0  0
  6  9  1  0  0  0  0
  6 12  1  0  0  0  0
  8 10  1  0  0  0  0
  8 11  2  0  0  0  0
  9 13  1  0  0  0  0
  9 14  1  0  0  0  0
  9 15  1  0  0  0  0
 10 16  1  0  0  0  0
 10 17  1  0  0  0  0
 10 18  1  0  0  0  0
 19 20  1  0  0  0  0
 20 21  4  0  0  0  0
 20 25  4  0  0  0  0
 21 22  4  0  0  0  0
 21 27  1  0  0  0  0
 22 23  4  0  0  0  0
 22 28  1  0  0  0  0
 23 24  4  0  0  0  0
 23 26  1  0  0  0  0
 24 25  4  0  0  0  0
 24 29  1  0  0  0  0
 25 30  1  0  0  0  0
 26 31  1  0  0  0  0
 26 32  1  0  0  0  0
M  END
> <BCLConfClusterSize>
1

> <ConfClashScore>
0 

> <ConfOneFourInteractionScore>
-0.990503 

> <ConfScore>
-0.198591 

> <ConfScorePBest>
0.00658068 

> <ConfTolerance>
0.23808 

> <RosettaParamsInstructions>
M  ROOT 3
M  POLY_N_BB 3
M  POLY_CA_BB 4
M  POLY_C_BB 2
M  POLY_O_BB 5
M  POLY_IGNORE 9 10 11 12 13 14 15 16 17 18 
M  POLY_UPPER 6
M  POLY_LOWER 8
M  POLY_CHG 0
M  POLY_PROPERTIES ALPHA_AA L_AA PROTEIN AROMATIC POLYMER 
M  END

$$$$



 32 32  0  0  0  0  0  0  0  0999 V2000
   -2.9943    1.5303    0.5878 H   0  0  0  1  0  0  0  0  0  0  0  0
   -1.5916    0.1438    1.3103 C   0  0  0  1  0  0  0  0  0  0  0  0
   -3.1175    1.5247    2.6533 N   0  0  0  1  0  0  0  0  0  0  0  0
   -2.3167    1.4754    1.4141 C   0  0  0  1  0  0  0  0  0  0  0  0
   -1.1578   -0.3986    2.3255 O   0  0  0  1  0  0  0  0  0  0  0  0
   -1.5375   -0.4202    0.0989 N   0  0  0  1  0  0  0  0  0  0  0  0
   -2.7591    2.0040    3.4293 H   0  0  0  1  0  0  0  0  0  0  0  0
   -4.3139    0.9385    2.7537 C   0  0  0  1  0  0  0  0  0  0  0  0
   -0.9355   -1.7169   -0.1729 C   0  0  0  1  0  0  0  0  0  0  0  0
   -4.9947    1.0577    4.1033 C   0  0  0  1  0  0  0  0  0  0  0  0
   -4.8406    0.3411    1.8295 O   0  0  0  1  0  0  0  0  0  0  0  0
   -1.9282    0.0711   -0.6537 H   0  0  0  1  0  0  0  0  0  0  0  0
    0.1000   -1.6933    0.0956 H   0  0  0  1  0  0  0  0  0  0  0  0
   -1.0285   -1.9416   -1.2149 H   0  0  0  1  0  0  0  0  0  0  0  0
   -1.4354   -2.4692    0.4008 H   0  0  0  1  0  0  0  0  0  0  0  0
   -4.3060    0.7864    4.8760 H   0  0  0  1  0  0  0  0  0  0  0  0
   -5.8411    0.4038    4.1346 H   0  0  0  1  0  0  0  0  0  0  0  0
   -5.3174    2.0670    4.2518 H   0  0  0  1  0  0  0  0  0  0  0  0
   -4.4301    8.0052    0.4437 Br  0  0  0  1  0  0  0  0  0  0  0  0
   -3.4402    6.4149    0.6951 C   0  0  0  1  0  0  0  0  0  0  0  0
   -2.9395    6.1049    1.9500 C   0  0  0  1  0  0  0  0  0  0  0  0
   -2.2831    4.9061    2.1555 C   0  0  0  1  0  0  0  0  0  0  0  0
   -2.1302    4.0114    1.1079 C   0  0  0  1  0  0  0  0  0  0  0  0
   -2.6293    4.3203   -0.1435 C   0  0  0  1  0  0  0  0  0  0  0  0
   -3.2876    5.5227   -0.3494 C   0  0  0  1  0  0  0  0  0  0  0  0
   -1.4180    2.6985    1.3331 C   0  0  0  1  0  0  0  0  0  0  0  0
   -3.0578    6.7744    2.7369 H   0  0  0  1  0  0  0  0  0  0  0  0
   -1.9040    4.6754    3.0960 H   0  0  0  1  0  0  0  0  0  0  0  0
   -2.5109    3.6507   -0.9304 H   0  0  0  1  0  0  0  0  0  0  0  0
   -3.6667    5.7534   -1.2900 H   0  0  0  1  0  0  0  0  0  0  0  0
   -0.7328    2.5517    0.5245 H   0  0  0  1  0  0  0  0  0  0  0  0
   -0.8754    2.7709    2.2525 H   0  0  0  1  0  0  0  0  0  0  0  0
  1  4  1  0  0  0  0
  2  4  1  0  0  0  0
  2  5  2  0  0  0  0
  2  6  1  0  0  0  0
  3  4  1  0  0  0  0
  3  7  1  0  0  0  0
  3  8  1  0  0  0  0
  4 26  1  0  0  0  0
  6  9  1  0  0  0  0
  6 12  1  0  0  0  0
  8 10  1  0  0  0  0
  8 11  2  0  0  0  0
  9 13  1  0  0  0  0
  9 14  1  0  0  0  0
  9 15  1  0  0  0  0
 10 16  1  0  0  0  0
 10 17  1  0  0  0  0
 10 18  1  0  0  0  0
 19 20  1  0  0  0  0
 20 21  4  0  0  0  0
 20 25  4  0  0  0  0
 21 22  4  0  0  0  0
 21 27  1  0  0  0  0
 22 23  4  0  0  0  0
 22 28  1  0  0  0  0
 23 24  4  0  0  0  0
 23 26  1  0  0  0  0
 24 25  4  0  0  0  0
 24 29  1  0  0  0  0
 25 30  1  0  0  0  0
 26 31  1  0  0  0  0
 26 32  1  0  0  0  0
M  END
> <BCLConfClusterSize>
1

> <ConfClashScore>
0 

> <ConfOneFourInteractionScore>
-0.985807 

> <ConfScore>
-0.197254 

> <ConfScorePBest>
0.0065522 

> <ConfTolerance>
0.187145 

> <RosettaParamsInstructions>
M  ROOT 3
M  POLY_N_BB 3
M  POLY_CA_BB 4
M  POLY_C_BB 2
M  POLY_O_BB 5
M  POLY_IGNORE 9 10 11 12 13 14 15 16 17 18 
M  POLY_UPPER 6
M  POLY_LOWER 8
M  POLY_CHG 0
M  POLY_PROPERTIES ALPHA_AA L_AA PROTEIN AROMATIC POLYMER 
M  END

$$$$



 32 32  0  0  0  0  0  0  0  0999 V2000
   -2.9140    1.4746    0.5082 H   0  0  0  1  0  0  0  0  0  0  0  0
   -1.5997    0.2075    1.5483 C   0  0  0  1  0  0  0  0  0  0  0  0
   -3.3182    1.7657    2.5020 N   0  0  0  1  0  0  0  0  0  0  0  0
   -2.3690    1.5126    1.4283 C   0  0  0  1  0  0  0  0  0  0  0  0
   -1.3065   -0.2311    2.6595 O   0  0  0  1  0  0  0  0  0  0  0  0
   -1.3505   -0.4519    0.4119 N   0  0  0  1  0  0  0  0  0  0  0  0
   -3.0886    2.4588    3.1557 H   0  0  0  1  0  0  0  0  0  0  0  0
   -4.4790    1.1242    2.6637 C   0  0  0  1  0  0  0  0  0  0  0  0
   -0.5858   -1.6897    0.3830 C   0  0  0  1  0  0  0  0  0  0  0  0
   -5.4064    1.6418    3.7705 C   0  0  0  1  0  0  0  0  0  0  0  0
   -4.8525    0.2129    1.9279 O   0  0  0  1  0  0  0  0  0  0  0  0
   -1.6949   -0.0890   -0.4307 H   0  0  0  1  0  0  0  0  0  0  0  0
    0.4137   -1.4999    0.7146 H   0  0  0  1  0  0  0  0  0  0  0  0
   -0.5633   -2.0716   -0.6163 H   0  0  0  1  0  0  0  0  0  0  0  0
   -1.0454   -2.4078    1.0295 H   0  0  0  1  0  0  0  0  0  0  0  0
   -4.8569    1.7306    4.6844 H   0  0  0  1  0  0  0  0  0  0  0  0
   -6.2161    0.9558    3.9067 H   0  0  0  1  0  0  0  0  0  0  0  0
   -5.7929    2.6000    3.4925 H   0  0  0  1  0  0  0  0  0  0  0  0
   -4.4301    8.0052    0.4437 Br  0  0  0  1  0  0  0  0  0  0  0  0
   -3.4402    6.4149    0.6951 C   0  0  0  1  0  0  0  0  0  0  0  0
   -2.9395    6.1049    1.9500 C   0  0  0  1  0  0  0  0  0  0  0  0
   -2.2831    4.9061    2.1555 C   0  0  0  1  0  0  0  0  0  0  0  0
   -2.1302    4.0114    1.1079 C   0  0  0  1  0  0  0  0  0  0  0  0
   -2.6293    4.3203   -0.1435 C   0  0  0  1  0  0  0  0  0  0  0  0
   -3.2876    5.5227   -0.3494 C   0  0  0  1  0  0  0  0  0  0  0  0
   -1.4180    2.6985    1.3331 C   0  0  0  1  0  0  0  0  0  0  0  0
   -3.0578    6.7744    2.7369 H   0  0  0  1  0  0  0  0  0  0  0  0
   -1.9040    4.6754    3.0960 H   0  0  0  1  0  0  0  0  0  0  0  0
   -2.5109    3.6507   -0.9304 H   0  0  0  1  0  0  0  0  0  0  0  0
   -3.6667    5.7534   -1.2900 H   0  0  0  1  0  0  0  0  0  0  0  0
   -0.7458    2.5314    0.5176 H   0  0  0  1  0  0  0  0  0  0  0  0
   -0.8632    2.7642    2.2457 H   0  0  0  1  0  0  0  0  0  0  0  0
  1  4  1  0  0  0  0
  2  4  1  0  0  0  0
  2  5  2  0  0  0  0
  2  6  1  0  0  0  0
  3  4  1  0  0  0  0
  3  7  1  0  0  0  0
  3  8  1  0  0  0  0
  4 26  1  0  0  0  0
  6  9  1  0  0  0  0
  6 12  1  0  0  0  0
  8 10  1  0  0  0  0
  8 11  2  0  0  0  0
  9 13  1  0  0  0  0
  9 14  1  0  0  0  0
  9 15  1  0  0  0  0
 10 16  1  0  0  0  0
 10 17  1  0  0  0  0
 10 18  1  0  0  0  0
 19 20  1  0  0  0  0
 20 21  4  0  0  0  0
 20 25  4  0  0  0  0
 21 22  4  0  0  0  0
 21 27  1  0  0  0  0
 22 23  4  0  0  0  0
 22 28  1  0  0  0  0
 23 24  4  0  0  0  0
 23 26  1  0  0  0  0
 24 25  4  0  0  0  0
 24 29  1  0  0  0  0
 25 30  1  0  0  0  0
 26 31  1  0  0  0  0
 26 32  1  0  0  0  0
M  END
> <BCLConfClusterSize>
1

> <ConfClashScore>
0 

> <ConfOneFourInteractionScore>
-0.985807 

> <ConfScore>
-0.196697 

> <ConfScorePBest>
0.00652372 

> <ConfTolerance>
0.233119 

> <RosettaParamsInstructions>
M  ROOT 3
M  POLY_N_BB 3
M  POLY_CA_BB 4
M  POLY_C_BB 2
M  POLY_O_BB 5
M  POLY_IGNORE 9 10 11 12 13 14 15 16 17 18 
M  POLY_UPPER 6
M  POLY_LOWER 8
M  POLY_CHG 0
M  POLY_PROPERTIES ALPHA_AA L_AA PROTEIN AROMATIC POLYMER 
M  END

$$$$



 32 32  0  0  0  0  0  0  0  0999 V2000
    0.3601    3.5971    2.0681 H   0  0  0  1  0  0  0  0  0  0  0  0
    0.7629    1.5272    1.8048 C   0  0  0  1  0  0  0  0  0  0  0  0
    0.6153    3.2331    0.0417 N   0  0  0  1  0  0  0  0  0  0  0  0
    0.1072    2.8394    1.3562 C   0  0  0  1  0  0  0  0  0  0  0  0
    0.9881    0.6418    0.9812 O   0  0  0  1  0  0  0  0  0  0  0  0
    1.1399    1.4490    3.0854 N   0  0  0  1  0  0  0  0  0  0  0  0
   -0.0422    3.4439   -0.6537 H   0  0  0  1  0  0  0  0  0  0  0  0
    1.9492    3.3299   -0.2920 C   0  0  0  1  0  0  0  0  0  0  0  0
    1.8504    0.2958    3.6176 C   0  0  0  1  0  0  0  0  0  0  0  0
    2.2475    3.5457   -1.7470 C   0  0  0  1  0  0  0  0  0  0  0  0
    2.8019    3.2403    0.5710 O   0  0  0  1  0  0  0  0  0  0  0  0
    0.9305    2.1942    3.6865 H   0  0  0  1  0  0  0  0  0  0  0  0
    1.4359   -0.6004    3.2056 H   0  0  0  1  0  0  0  0  0  0  0  0
    1.7522    0.2771    4.6829 H   0  0  0  1  0  0  0  0  0  0  0  0
    2.8857    0.3629    3.3555 H   0  0  0  1  0  0  0  0  0  0  0  0
    2.0044    2.6604   -2.2966 H   0  0  0  1  0  0  0  0  0  0  0  0
    3.2874    3.7665   -1.8687 H   0  0  0  1  0  0  0  0  0  0  0  0
    1.6634    4.3641   -2.1130 H   0  0  0  1  0  0  0  0  0  0  0  0
   -4.4301    8.0052    0.4437 Br  0  0  0  1  0  0  0  0  0  0  0  0
   -3.4402    6.4149    0.6951 C   0  0  0  1  0  0  0  0  0  0  0  0
   -2.9395    6.1049    1.9500 C   0  0  0  1  0  0  0  0  0  0  0  0
   -2.2831    4.9061    2.1555 C   0  0  0  1  0  0  0  0  0  0  0  0
   -2.1302    4.0114    1.1079 C   0  0  0  1  0  0  0  0  0  0  0  0
   -2.6293    4.3203   -0.1435 C   0  0  0  1  0  0  0  0  0  0  0  0
   -3.2876    5.5227   -0.3494 C   0  0  0  1  0  0  0  0  0  0  0  0
   -1.4180    2.6985    1.3331 C   0  0  0  1  0  0  0  0  0  0  0  0
   -3.0578    6.7744    2.7369 H   0  0  0  1  0  0  0  0  0  0  0  0
   -1.9040    4.6754    3.0960 H   0  0  0  1  0  0  0  0  0  0  0  0
   -2.5109    3.6507   -0.9304 H   0  0  0  1  0  0  0  0  0  0  0  0
   -3.6667    5.7534   -1.2900 H   0  0  0  1  0  0  0  0  0  0  0  0
   -1.7370    2.2947    2.2712 H   0  0  0  1  0  0  0  0  0  0  0  0
   -1.6861    2.0261    0.5451 H   0  0  0  1  0  0  0  0  0  0  0  0
  1  4  1  0  0  0  0
  2  4  1  0  0  0  0
  2  5  2  0  0  0  0
  2  6  1  0  0  0  0
  3  4  1  0  0  0  0
  3  7  1  0  0  0  0
  3  8  1  0  0  0  0
  4 26  1  0  0  0  0
  6  9  1  0  0  0  0
  6 12  1  0  0  0  0
  8 10  1  0  0  0  0
  8 11  2  0  0  0  0
  9 13  1  0  0  0  0
  9 14  1  0  0  0  0
  9 15  1  0  0  0  0
 10 16  1  0  0  0  0
 10 17  1  0  0  0  0
 10 18  1  0  0  0  0
 19 20  1  0  0  0  0
 20 21  4  0  0  0  0
 20 25  4  0  0  0  0
 21 22  4  0  0  0  0
 21 27  1  0  0  0  0
 22 23  4  0  0  0  0
 22 28  1  0  0  0  0
 23 24  4  0  0  0  0
 23 26  1  0  0  0  0
 24 25  4  0  0  0  0
 24 29  1  0  0  0  0
 25 30  1  0  0  0  0
 26 31  1  0  0  0  0
 26 32  1  0  0  0  0
M  END
> <BCLConfClusterSize>
1

> <ConfClashScore>
0 

> <ConfOneFourInteractionScore>
-0.985807 

> <ConfScore>
-0.193268 

> <ConfScorePBest>
0.00649524 

> <ConfTolerance>
0.220018 

> <RosettaParamsInstructions>
M  ROOT 3
M  POLY_N_BB 3
M  POLY_CA_BB 4
M  POLY_C_BB 2
M  POLY_O_BB 5
M  POLY_IGNORE 9 10 11 12 13 14 15 16 17 18 
M  POLY_UPPER 6
M  POLY_LOWER 8
M  POLY_CHG 0
M  POLY_PROPERTIES ALPHA_AA L_AA PROTEIN AROMATIC POLYMER 
M  END

$$$$



 32 32  0  0  0  0  0  0  0  0999 V2000
    0.4031    3.7016    1.7489 H   0  0  0  1  0  0  0  0  0  0  0  0
    0.8000    1.6266    1.6956 C   0  0  0  1  0  0  0  0  0  0  0  0
    0.3949    3.1400   -0.2388 N   0  0  0  1  0  0  0  0  0  0  0  0
    0.0950    2.8643    1.1583 C   0  0  0  1  0  0  0  0  0  0  0  0
    0.4952    1.1785    2.7998 O   0  0  0  1  0  0  0  0  0  0  0  0
    1.6760    1.0302    0.8799 N   0  0  0  1  0  0  0  0  0  0  0  0
   -0.0422    2.6194   -0.9447 H   0  0  0  1  0  0  0  0  0  0  0  0
    1.2687    4.1054   -0.5624 C   0  0  0  1  0  0  0  0  0  0  0  0
    2.4247   -0.1536    1.2749 C   0  0  0  1  0  0  0  0  0  0  0  0
    1.4544    4.4314   -2.0178 C   0  0  0  1  0  0  0  0  0  0  0  0
    1.9004    4.7076    0.3047 O   0  0  0  1  0  0  0  0  0  0  0  0
    1.8188    1.4034   -0.0149 H   0  0  0  1  0  0  0  0  0  0  0  0
    2.8142   -0.0170    2.2621 H   0  0  0  1  0  0  0  0  0  0  0  0
    3.2330   -0.3087    0.5911 H   0  0  0  1  0  0  0  0  0  0  0  0
    1.7774   -1.0054    1.2618 H   0  0  0  1  0  0  0  0  0  0  0  0
    0.9653    3.6904   -2.6150 H   0  0  0  1  0  0  0  0  0  0  0  0
    2.4989    4.4436   -2.2498 H   0  0  0  1  0  0  0  0  0  0  0  0
    1.0313    5.3921   -2.2246 H   0  0  0  1  0  0  0  0  0  0  0  0
   -4.4301    8.0052    0.4437 Br  0  0  0  1  0  0  0  0  0  0  0  0
   -3.4402    6.4149    0.6951 C   0  0  0  1  0  0  0  0  0  0  0  0
   -2.9395    6.1049    1.9500 C   0  0  0  1  0  0  0  0  0  0  0  0
   -2.2831    4.9061    2.1555 C   0  0  0  1  0  0  0  0  0  0  0  0
   -2.1302    4.0114    1.1079 C   0  0  0  1  0  0  0  0  0  0  0  0
   -2.6293    4.3203   -0.1435 C   0  0  0  1  0  0  0  0  0  0  0  0
   -3.2876    5.5227   -0.3494 C   0  0  0  1  0  0  0  0  0  0  0  0
   -1.4180    2.6985    1.3331 C   0  0  0  1  0  0  0  0  0  0  0  0
   -3.0578    6.7744    2.7369 H   0  0  0  1  0  0  0  0  0  0  0  0
   -1.9040    4.6754    3.0960 H   0  0  0  1  0  0  0  0  0  0  0  0
   -2.5109    3.6507   -0.9304 H   0  0  0  1  0  0  0  0  0  0  0  0
   -3.6667    5.7534   -1.2900 H   0  0  0  1  0  0  0  0  0  0  0  0
   -1.6210    2.3552    2.3260 H   0  0  0  1  0  0  0  0  0  0  0  0
   -1.7761    1.9794    0.6263 H   0  0  0  1  0  0  0  0  0  0  0  0
  1  4  1  0  0  0  0
  2  4  1  0  0  0  0
  2  5  2  0  0  0  0
  2  6  1  0  0  0  0
  3  4  1  0  0  0  0
  3  7  1  0  0  0  0
  3  8  1  0  0  0  0
  4 26  1  0  0  0  0
  6  9  1  0  0  0  0
  6 12  1  0  0  0  0
  8 10  1  0  0  0  0
  8 11  2  0  0  0  0
  9 13  1  0  0  0  0
  9 14  1  0  0  0  0
  9 15  1  0  0  0  0
 10 16  1  0  0  0  0
 10 17  1  0  0  0  0
 10 18  1  0  0  0  0
 19 20  1  0  0  0  0
 20 21  4  0  0  0  0
 20 25  4  0  0  0  0
 21 22  4  0  0  0  0
 21 27  1  0  0  0  0
 22 23  4  0  0  0  0
 22 28  1  0  0  0  0
 23 24  4  0  0  0  0
 23 26  1  0  0  0  0
 24 25  4  0  0  0  0
 24 29  1  0  0  0  0
 25 30  1  0  0  0  0
 26 31  1  0  0  0  0
 26 32  1  0  0  0  0
M  END
> <BCLConfClusterSize>
1

> <ConfClashScore>
0 

> <ConfOneFourInteractionScore>
-0.960318 

> <ConfScore>
-0.188606 

> <ConfScorePBest>
0.00646676 

> <ConfTolerance>
0.209623 

> <RosettaParamsInstructions>
M  ROOT 3
M  POLY_N_BB 3
M  POLY_CA_BB 4
M  POLY_C_BB 2
M  POLY_O_BB 5
M  POLY_IGNORE 9 10 11 12 13 14 15 16 17 18 
M  POLY_UPPER 6
M  POLY_LOWER 8
M  POLY_CHG 0
M  POLY_PROPERTIES ALPHA_AA L_AA PROTEIN AROMATIC POLYMER 
M  END

$$$$



 32 32  0  0  0  0  0  0  0  0999 V2000
    0.5366    3.4128    1.6580 H   0  0  0  1  0  0  0  0  0  0  0  0
    0.6624    1.3105    1.5167 C   0  0  0  1  0  0  0  0  0  0  0  0
    0.4364    2.8670   -0.3200 N   0  0  0  1  0  0  0  0  0  0  0  0
    0.0664    2.6518    1.0709 C   0  0  0  1  0  0  0  0  0  0  0  0
    0.6189    0.9842    2.7019 O   0  0  0  1  0  0  0  0  0  0  0  0
    1.1342    0.5110    0.5541 N   0  0  0  1  0  0  0  0  0  0  0  0
   -0.2094    2.6783   -1.0326 H   0  0  0  1  0  0  0  0  0  0  0  0
    1.6665    3.3259   -0.6306 C   0  0  0  1  0  0  0  0  0  0  0  0
    1.8048   -0.7468    0.8475 C   0  0  0  1  0  0  0  0  0  0  0  0
    2.0411    3.4253   -2.0966 C   0  0  0  1  0  0  0  0  0  0  0  0
    2.4627    3.6546    0.2478 O   0  0  0  1  0  0  0  0  0  0  0  0
    1.0245    0.7816   -0.3814 H   0  0  0  1  0  0  0  0  0  0  0  0
    2.6261   -0.8791    0.1745 H   0  0  0  1  0  0  0  0  0  0  0  0
    1.1137   -1.5551    0.7297 H   0  0  0  1  0  0  0  0  0  0  0  0
    2.1678   -0.7309    1.8539 H   0  0  0  1  0  0  0  0  0  0  0  0
    1.3472    2.8588   -2.6818 H   0  0  0  1  0  0  0  0  0  0  0  0
    3.0280    3.0371   -2.2394 H   0  0  0  1  0  0  0  0  0  0  0  0
    2.0127    4.4500   -2.4030 H   0  0  0  1  0  0  0  0  0  0  0  0
   -4.4293    8.0064    0.4488 Br  0  0  0  1  0  0  0  0  0  0  0  0
   -3.4402    6.4147    0.6945 C   0  0  0  1  0  0  0  0  0  0  0  0
   -2.9381    6.1009    1.9479 C   0  0  0  1  0  0  0  0  0  0  0  0
   -2.2824    4.9010    2.1493 C   0  0  0  1  0  0  0  0  0  0  0  0
   -2.1315    4.0091    1.0990 C   0  0  0  1  0  0  0  0  0  0  0  0
   -2.6320    4.3218   -0.1508 C   0  0  0  1  0  0  0  0  0  0  0  0
   -3.2897    5.5252   -0.3526 C   0  0  0  1  0  0  0  0  0  0  0  0
   -1.4121    2.7100    1.3751 C   0  0  0  1  0  0  0  0  0  0  0  0
   -3.0549    6.7683    2.7368 H   0  0  0  1  0  0  0  0  0  0  0  0
   -1.9022    4.6674    3.0887 H   0  0  0  1  0  0  0  0  0  0  0  0
   -2.5152    3.6543   -0.9397 H   0  0  0  1  0  0  0  0  0  0  0  0
   -3.6699    5.7589   -1.2920 H   0  0  0  1  0  0  0  0  0  0  0  0
   -1.5337    2.4916    2.4155 H   0  0  0  1  0  0  0  0  0  0  0  0
   -1.8890    1.9498    0.7924 H   0  0  0  1  0  0  0  0  0  0  0  0
  1  4  1  0  0  0  0
  2  4  1  0  0  0  0
  2  5  2  0  0  0  0
  2  6  1  0  0  0  0
  3  4  1  0  0  0  0
  3  7  1  0  0  0  0
  3  8  1  0  0  0  0
  4 26  1  0  0  0  0
  6  9  1  0  0  0  0
  6 12  1  0  0  0  0
  8 10  1  0  0  0  0
  8 11  2  0  0  0  0
  9 13  1  0  0  0  0
  9 14  1  0  0  0  0
  9 15  1  0  0  0  0
 10 16  1  0  0  0  0
 10 17  1  0  0  0  0
 10 18  1  0  0  0  0
 19 20  1  0  0  0  0
 20 21  4  0  0  0  0
 20 25  4  0  0  0  0
 21 22  4  0  0  0  0
 21 27  1  0  0  0  0
 22 23  4  0  0  0  0
 22 28  1  0  0  0  0
 23 24  4  0  0  0  0
 23 26  1  0  0  0  0
 24 25  4  0  0  0  0
 24 29  1  0  0  0  0
 25 30  1  0  0  0  0
 26 31  1  0  0  0  0
 26 32  1  0  0  0  0
M  END
> <BCLConfClusterSize>
1

> <ConfClashScore>
0 

> <ConfOneFourInteractionScore>
-0.94165 

> <ConfScore>
-0.183415 

> <ConfScorePBest>
0.00643828 

> <ConfTolerance>
0.313054 

> <RosettaParamsInstructions>
M  ROOT 3
M  POLY_N_BB 3
M  POLY_CA_BB 4
M  POLY_C_BB 2
M  POLY_O_BB 5
M  POLY_IGNORE 9 10 11 12 13 14 15 16 17 18 
M  POLY_UPPER 6
M  POLY_LOWER 8
M  POLY_CHG 0
M  POLY_PROPERTIES ALPHA_AA L_AA PROTEIN AROMATIC POLYMER 
M  END

$$$$



 32 32  0  0  0  0  0  0  0  0999 V2000
   -2.3767    2.1293    3.1236 H   0  0  0  1  0  0  0  0  0  0  0  0
   -3.6150    1.4977    1.5356 C   0  0  0  1  0  0  0  0  0  0  0  0
   -1.5859    0.4117    2.3056 N   0  0  0  1  0  0  0  0  0  0  0  0
   -2.2349    1.7050    2.1516 C   0  0  0  1  0  0  0  0  0  0  0  0
   -4.4896    2.3485    1.6910 O   0  0  0  1  0  0  0  0  0  0  0  0
   -3.7768    0.4106    0.7681 N   0  0  0  1  0  0  0  0  0  0  0  0
   -0.6644    0.3043    1.9898 H   0  0  0  1  0  0  0  0  0  0  0  0
   -2.2025   -0.6345    2.8627 C   0  0  0  1  0  0  0  0  0  0  0  0
   -5.0360    0.0270    0.1503 C   0  0  0  1  0  0  0  0  0  0  0  0
   -1.4151   -1.9180    3.0411 C   0  0  0  1  0  0  0  0  0  0  0  0
   -3.3712   -0.6198    3.2399 O   0  0  0  1  0  0  0  0  0  0  0  0
   -2.9967   -0.1621    0.6135 H   0  0  0  1  0  0  0  0  0  0  0  0
   -5.8468    0.2996    0.7931 H   0  0  0  1  0  0  0  0  0  0  0  0
   -5.0473   -1.0310   -0.0087 H   0  0  0  1  0  0  0  0  0  0  0  0
   -5.1405    0.5303   -0.7881 H   0  0  0  1  0  0  0  0  0  0  0  0
   -1.1542   -2.3133    2.0816 H   0  0  0  1  0  0  0  0  0  0  0  0
   -2.0116   -2.6314    3.5704 H   0  0  0  1  0  0  0  0  0  0  0  0
   -0.5238   -1.7149    3.5972 H   0  0  0  1  0  0  0  0  0  0  0  0
   -4.4303    8.0055    0.4436 Br  0  0  0  1  0  0  0  0  0  0  0  0
   -3.4404    6.4152    0.6950 C   0  0  0  1  0  0  0  0  0  0  0  0
   -2.9397    6.1052    1.9499 C   0  0  0  1  0  0  0  0  0  0  0  0
   -2.2833    4.9064    2.1554 C   0  0  0  1  0  0  0  0  0  0  0  0
   -2.1303    4.0117    1.1078 C   0  0  0  1  0  0  0  0  0  0  0  0
   -2.6294    4.3206   -0.1435 C   0  0  0  1  0  0  0  0  0  0  0  0
   -3.2878    5.5230   -0.3495 C   0  0  0  1  0  0  0  0  0  0  0  0
   -1.4162    2.6952    1.3337 C   0  0  0  1  0  0  0  0  0  0  0  0
   -3.0580    6.7747    2.7369 H   0  0  0  1  0  0  0  0  0  0  0  0
   -1.9042    4.6757    3.0960 H   0  0  0  1  0  0  0  0  0  0  0  0
   -2.5111    3.6510   -0.9304 H   0  0  0  1  0  0  0  0  0  0  0  0
   -3.6669    5.7538   -1.2900 H   0  0  0  1  0  0  0  0  0  0  0  0
   -1.2025    2.2560    0.3817 H   0  0  0  1  0  0  0  0  0  0  0  0
   -0.5001    2.8891    1.8513 H   0  0  0  1  0  0  0  0  0  0  0  0
  1  4  1  0  0  0  0
  2  4  1  0  0  0  0
  2  5  2  0  0  0  0
  2  6  1  0  0  0  0
  3  4  1  0  0  0  0
  3  7  1  0  0  0  0
  3  8  1  0  0  0  0
  4 26  1  0  0  0  0
  6  9  1  0  0  0  0
  6 12  1  0  0  0  0
  8 10  1  0  0  0  0
  8 11  2  0  0  0  0
  9 13  1  0  0  0  0
  9 14  1  0  0  0  0
  9 15  1  0  0  0  0
 10 16  1  0  0  0  0
 10 17  1  0  0  0  0
 10 18  1  0  0  0  0
 19 20  1  0  0  0  0
 20 21  4  0  0  0  0
 20 25  4  0  0  0  0
 21 22  4  0  0  0  0
 21 27  1  0  0  0  0
 22 23  4  0  0  0  0
 22 28  1  0  0  0  0
 23 24  4  0  0  0  0
 23 26  1  0  0  0  0
 24 25  4  0  0  0  0
 24 29  1  0  0  0  0
 25 30  1  0  0  0  0
 26 31  1  0  0  0  0
 26 32  1  0  0  0  0
M  END
> <BCLConfClusterSize>
1

> <ConfClashScore>
0 

> <ConfOneFourInteractionScore>
-0.94165 

> <ConfScore>
-0.182939 

> <ConfScorePBest>
0.0064098 

> <ConfTolerance>
0.240271 

> <RosettaParamsInstructions>
M  ROOT 3
M  POLY_N_BB 3
M  POLY_CA_BB 4
M  POLY_C_BB 2
M  POLY_O_BB 5
M  POLY_IGNORE 9 10 11 12 13 14 15 16 17 18 
M  POLY_UPPER 6
M  POLY_LOWER 8
M  POLY_CHG 0
M  POLY_PROPERTIES ALPHA_AA L_AA PROTEIN AROMATIC POLYMER 
M  END

$$$$



 32 32  0  0  0  0  0  0  0  0999 V2000
    0.3852    3.6040    2.1354 H   0  0  0  1  0  0  0  0  0  0  0  0
    0.9639    1.6917    1.4908 C   0  0  0  1  0  0  0  0  0  0  0  0
    0.4825    3.6666    0.0755 N   0  0  0  1  0  0  0  0  0  0  0  0
    0.1469    2.9587    1.3159 C   0  0  0  1  0  0  0  0  0  0  0  0
    1.0085    0.8379    0.6065 O   0  0  0  1  0  0  0  0  0  0  0  0
    1.6913    1.6046    2.6096 N   0  0  0  1  0  0  0  0  0  0  0  0
    0.4205    3.1848   -0.7756 H   0  0  0  1  0  0  0  0  0  0  0  0
    0.8690    4.9433    0.0659 C   0  0  0  1  0  0  0  0  0  0  0  0
    2.4280    0.4012    2.9661 C   0  0  0  1  0  0  0  0  0  0  0  0
    1.1215    5.6048   -1.2749 C   0  0  0  1  0  0  0  0  0  0  0  0
    1.0331    5.6171    1.0796 O   0  0  0  1  0  0  0  0  0  0  0  0
    1.7295    2.3779    3.2103 H   0  0  0  1  0  0  0  0  0  0  0  0
    2.4876    0.3214    4.0315 H   0  0  0  1  0  0  0  0  0  0  0  0
    3.4153    0.4535    2.5569 H   0  0  0  1  0  0  0  0  0  0  0  0
    1.9229   -0.4558    2.5721 H   0  0  0  1  0  0  0  0  0  0  0  0
    2.0272    5.2221   -1.6971 H   0  0  0  1  0  0  0  0  0  0  0  0
    1.2106    6.6625   -1.1393 H   0  0  0  1  0  0  0  0  0  0  0  0
    0.3051    5.3968   -1.9344 H   0  0  0  1  0  0  0  0  0  0  0  0
   -4.4104    8.0163    0.4421 Br  0  0  0  1  0  0  0  0  0  0  0  0
   -3.4362    6.4164    0.6936 C   0  0  0  1  0  0  0  0  0  0  0  0
   -2.9399    6.1008    1.9488 C   0  0  0  1  0  0  0  0  0  0  0  0
   -2.2954    4.8956    2.1543 C   0  0  0  1  0  0  0  0  0  0  0  0
   -2.1498    4.0001    1.1063 C   0  0  0  1  0  0  0  0  0  0  0  0
   -2.6445    4.3146   -0.1454 C   0  0  0  1  0  0  0  0  0  0  0  0
   -3.2910    5.5234   -0.3513 C   0  0  0  1  0  0  0  0  0  0  0  0
   -1.3595    2.7362    1.3498 C   0  0  0  1  0  0  0  0  0  0  0  0
   -3.0527    6.7709    2.7361 H   0  0  0  1  0  0  0  0  0  0  0  0
   -1.9195    4.6606    3.0951 H   0  0  0  1  0  0  0  0  0  0  0  0
   -2.5318    3.6444   -0.9326 H   0  0  0  1  0  0  0  0  0  0  0  0
   -3.6668    5.7584   -1.2921 H   0  0  0  1  0  0  0  0  0  0  0  0
   -1.6249    2.3484    2.3111 H   0  0  0  1  0  0  0  0  0  0  0  0
   -1.6156    2.0234    0.5940 H   0  0  0  1  0  0  0  0  0  0  0  0
  1  4  1  0  0  0  0
  2  4  1  0  0  0  0
  2  5  2  0  0  0  0
  2  6  1  0  0  0  0
  3  4  1  0  0  0  0
  3  7  1  0  0  0  0
  3  8  1  0  0  0  0
  4 26  1  0  0  0  0
  6  9  1  0  0  0  0
  6 12  1  0  0  0  0
  8 10  1  0  0  0  0
  8 11  2  0  0  0  0
  9 13  1  0  0  0  0
  9 14  1  0  0  0  0
  9 15  1  0  0  0  0
 10 16  1  0  0  0  0
 10 17  1  0  0  0  0
 10 18  1  0  0  0  0
 19 20  1  0  0  0  0
 20 21  4  0  0  0  0
 20 25  4  0  0  0  0
 21 22  4  0  0  0  0
 21 27  1  0  0  0  0
 22 23  4  0  0  0  0
 22 28  1  0  0  0  0
 23 24  4  0  0  0  0
 23 26  1  0  0  0  0
 24 25  4  0  0  0  0
 24 29  1  0  0  0  0
 25 30  1  0  0  0  0
 26 31  1  0  0  0  0
 26 32  1  0  0  0  0
M  END
> <BCLConfClusterSize>
1

> <ConfClashScore>
0 

> <ConfOneFourInteractionScore>
-0.990503 

> <ConfScore>
-0.178967 

> <ConfScorePBest>
0.00638132 

> <ConfTolerance>
0.306192 

> <RosettaParamsInstructions>
M  ROOT 3
M  POLY_N_BB 3
M  POLY_CA_BB 4
M  POLY_C_BB 2
M  POLY_O_BB 5
M  POLY_IGNORE 9 10 11 12 13 14 15 16 17 18 
M  POLY_UPPER 6
M  POLY_LOWER 8
M  POLY_CHG 0
M  POLY_PROPERTIES ALPHA_AA L_AA PROTEIN AROMATIC POLYMER 
M  END

$$$$



 32 32  0  0  0  0  0  0  0  0999 V2000
    0.5168    3.5462    1.4800 H   0  0  0  1  0  0  0  0  0  0  0  0
    0.7061    1.4432    1.6306 C   0  0  0  1  0  0  0  0  0  0  0  0
    0.2858    2.7810   -0.4192 N   0  0  0  1  0  0  0  0  0  0  0  0
    0.0649    2.6941    1.0166 C   0  0  0  1  0  0  0  0  0  0  0  0
    1.0169    0.4870    0.9220 O   0  0  0  1  0  0  0  0  0  0  0  0
    0.9637    1.5321    2.9398 N   0  0  0  1  0  0  0  0  0  0  0  0
   -0.3851    2.4020   -1.0248 H   0  0  0  1  0  0  0  0  0  0  0  0
    1.3714    3.3595   -0.9406 C   0  0  0  1  0  0  0  0  0  0  0  0
    1.5465    0.4322    3.6938 C   0  0  0  1  0  0  0  0  0  0  0  0
    1.4141    3.4363   -2.4544 C   0  0  0  1  0  0  0  0  0  0  0  0
    2.2802    3.8032   -0.2582 O   0  0  0  1  0  0  0  0  0  0  0  0
    0.7528    2.3669    3.4077 H   0  0  0  1  0  0  0  0  0  0  0  0
    2.4414    0.1015    3.2092 H   0  0  0  1  0  0  0  0  0  0  0  0
    0.8476   -0.3766    3.7421 H   0  0  0  1  0  0  0  0  0  0  0  0
    1.7790    0.7629    4.6845 H   0  0  0  1  0  0  0  0  0  0  0  0
    2.4315    3.4954   -2.7804 H   0  0  0  1  0  0  0  0  0  0  0  0
    0.8838    4.3059   -2.7822 H   0  0  0  1  0  0  0  0  0  0  0  0
    0.9573    2.5620   -2.8687 H   0  0  0  1  0  0  0  0  0  0  0  0
   -4.4293    8.0064    0.4488 Br  0  0  0  1  0  0  0  0  0  0  0  0
   -3.4402    6.4147    0.6945 C   0  0  0  1  0  0  0  0  0  0  0  0
   -2.9381    6.1009    1.9479 C   0  0  0  1  0  0  0  0  0  0  0  0
   -2.2824    4.9010    2.1493 C   0  0  0  1  0  0  0  0  0  0  0  0
   -2.1315    4.0091    1.0990 C   0  0  0  1  0  0  0  0  0  0  0  0
   -2.6320    4.3218   -0.1508 C   0  0  0  1  0  0  0  0  0  0  0  0
   -3.2897    5.5252   -0.3526 C   0  0  0  1  0  0  0  0  0  0  0  0
   -1.4121    2.7100    1.3751 C   0  0  0  1  0  0  0  0  0  0  0  0
   -3.0549    6.7683    2.7368 H   0  0  0  1  0  0  0  0  0  0  0  0
   -1.9022    4.6674    3.0887 H   0  0  0  1  0  0  0  0  0  0  0  0
   -2.5152    3.6543   -0.9397 H   0  0  0  1  0  0  0  0  0  0  0  0
   -3.6699    5.7589   -1.2920 H   0  0  0  1  0  0  0  0  0  0  0  0
   -1.5002    2.4996    2.4206 H   0  0  0  1  0  0  0  0  0  0  0  0
   -1.8964    1.9386    0.8135 H   0  0  0  1  0  0  0  0  0  0  0  0
  1  4  1  0  0  0  0
  2  4  1  0  0  0  0
  2  5  2  0  0  0  0
  2  6  1  0  0  0  0
  3  4  1  0  0  0  0
  3  7  1  0  0  0  0
  3  8  1  0  0  0  0
  4 26  1  0  0  0  0
  6  9  1  0  0  0  0
  6 12  1  0  0  0  0
  8 10  1  0  0  0  0
  8 11  2  0  0  0  0
  9 13  1  0  0  0  0
  9 14  1  0  0  0  0
  9 15  1  0  0  0  0
 10 16  1  0  0  0  0
 10 17  1  0  0  0  0
 10 18  1  0  0  0  0
 19 20  1  0  0  0  0
 20 21  4  0  0  0  0
 20 25  4  0  0  0  0
 21 22  4  0  0  0  0
 21 27  1  0  0  0  0
 22 23  4  0  0  0  0
 22 28  1  0  0  0  0
 23 24  4  0  0  0  0
 23 26  1  0  0  0  0
 24 25  4  0  0  0  0
 24 29  1  0  0  0  0
 25 30  1  0  0  0  0
 26 31  1  0  0  0  0
 26 32  1  0  0  0  0
M  END
> <BCLConfClusterSize>
1

> <ConfClashScore>
0 

> <ConfOneFourInteractionScore>
-0.981931 

> <ConfScore>
-0.176389 

> <ConfScorePBest>
0.00635284 

> <ConfTolerance>
0.238215 

> <RosettaParamsInstructions>
M  ROOT 3
M  POLY_N_BB 3
M  POLY_CA_BB 4
M  POLY_C_BB 2
M  POLY_O_BB 5
M  POLY_IGNORE 9 10 11 12 13 14 15 16 17 18 
M  POLY_UPPER 6
M  POLY_LOWER 8
M  POLY_CHG 0
M  POLY_PROPERTIES ALPHA_AA L_AA PROTEIN AROMATIC POLYMER 
M  END

$$$$



 32 32  0  0  0  0  0  0  0  0999 V2000
    0.0959    3.3743    2.5581 H   0  0  0  1  0  0  0  0  0  0  0  0
    0.7194    1.4938    1.8982 C   0  0  0  1  0  0  0  0  0  0  0  0
    0.7531    3.6471    0.6439 N   0  0  0  1  0  0  0  0  0  0  0  0
    0.0595    2.8365    1.6338 C   0  0  0  1  0  0  0  0  0  0  0  0
    1.5011    1.0300    1.0845 O   0  0  0  1  0  0  0  0  0  0  0  0
    0.4640    0.9188    3.0782 N   0  0  0  1  0  0  0  0  0  0  0  0
    0.7747    3.3411   -0.2868 H   0  0  0  1  0  0  0  0  0  0  0  0
    1.3613    4.7939    0.9600 C   0  0  0  1  0  0  0  0  0  0  0  0
    1.0454   -0.3336    3.5379 C   0  0  0  1  0  0  0  0  0  0  0  0
    2.0046    5.5381   -0.1940 C   0  0  0  1  0  0  0  0  0  0  0  0
    1.4069    5.2338    2.1080 O   0  0  0  1  0  0  0  0  0  0  0  0
   -0.1617    1.3752    3.6787 H   0  0  0  1  0  0  0  0  0  0  0  0
    2.0577   -0.4034    3.1983 H   0  0  0  1  0  0  0  0  0  0  0  0
    0.4807   -1.1537    3.1462 H   0  0  0  1  0  0  0  0  0  0  0  0
    1.0254   -0.3645    4.6073 H   0  0  0  1  0  0  0  0  0  0  0  0
    2.7590    4.9235   -0.6391 H   0  0  0  1  0  0  0  0  0  0  0  0
    2.4489    6.4417    0.1681 H   0  0  0  1  0  0  0  0  0  0  0  0
    1.2600    5.7742   -0.9251 H   0  0  0  1  0  0  0  0  0  0  0  0
   -4.4309    8.0037    0.4382 Br  0  0  0  1  0  0  0  0  0  0  0  0
   -3.4400    6.4150    0.6957 C   0  0  0  1  0  0  0  0  0  0  0  0
   -2.9409    6.1090    1.9522 C   0  0  0  1  0  0  0  0  0  0  0  0
   -2.2839    4.9114    2.1622 C   0  0  0  1  0  0  0  0  0  0  0  0
   -2.1287    4.0137    1.1174 C   0  0  0  1  0  0  0  0  0  0  0  0
   -2.6263    4.3185   -0.1355 C   0  0  0  1  0  0  0  0  0  0  0  0
   -3.2853    5.5198   -0.3459 C   0  0  0  1  0  0  0  0  0  0  0  0
   -1.4253    2.6879    1.2878 C   0  0  0  1  0  0  0  0  0  0  0  0
   -3.0609    6.7808    2.7370 H   0  0  0  1  0  0  0  0  0  0  0  0
   -1.9059    4.6837    3.1039 H   0  0  0  1  0  0  0  0  0  0  0  0
   -2.5063    3.6467   -0.9203 H   0  0  0  1  0  0  0  0  0  0  0  0
   -3.6632    5.7475   -1.2877 H   0  0  0  1  0  0  0  0  0  0  0  0
   -1.9060    2.1461    2.0754 H   0  0  0  1  0  0  0  0  0  0  0  0
   -1.5086    2.1382    0.3736 H   0  0  0  1  0  0  0  0  0  0  0  0
  1  4  1  0  0  0  0
  2  4  1  0  0  0  0
  2  5  2  0  0  0  0
  2  6  1  0  0  0  0
  3  4  1  0  0  0  0
  3  7  1  0  0  0  0
  3  8  1  0  0  0  0
  4 26  1  0  0  0  0
  6  9  1  0  0  0  0
  6 12  1  0  0  0  0
  8 10  1  0  0  0  0
  8 11  2  0  0  0  0
  9 13  1  0  0  0  0
  9 14  1  0  0  0  0
  9 15  1  0  0  0  0
 10 16  1  0  0  0  0
 10 17  1  0  0  0  0
 10 18  1  0  0  0  0
 19 20  1  0  0  0  0
 20 21  4  0  0  0  0
 20 25  4  0  0  0  0
 21 22  4  0  0  0  0
 21 27  1  0  0  0  0
 22 23  4  0  0  0  0
 22 28  1  0  0  0  0
 23 24  4  0  0  0  0
 23 26  1  0  0  0  0
 24 25  4  0  0  0  0
 24 29  1  0  0  0  0
 25 30  1  0  0  0  0
 26 31  1  0  0  0  0
 26 32  1  0  0  0  0
M  END
> <BCLConfClusterSize>
1

> <ConfClashScore>
0 

> <ConfOneFourInteractionScore>
-0.985807 

> <ConfScore>
-0.173465 

> <ConfScorePBest>
0.00632436 

> <ConfTolerance>
0.215251 

> <RosettaParamsInstructions>
M  ROOT 3
M  POLY_N_BB 3
M  POLY_CA_BB 4
M  POLY_C_BB 2
M  POLY_O_BB 5
M  POLY_IGNORE 9 10 11 12 13 14 15 16 17 18 
M  POLY_UPPER 6
M  POLY_LOWER 8
M  POLY_CHG 0
M  POLY_PROPERTIES ALPHA_AA L_AA PROTEIN AROMATIC POLYMER 
M  END

$$$$



 32 32  0  0  0  0  0  0  0  0999 V2000
   -3.1668    1.5144    1.2852 H   0  0  0  1  0  0  0  0  0  0  0  0
   -1.6184    0.2752    1.9868 C   0  0  0  1  0  0  0  0  0  0  0  0
   -2.8080    2.0483    3.2397 N   0  0  0  1  0  0  0  0  0  0  0  0
   -2.3239    1.6202    1.9358 C   0  0  0  1  0  0  0  0  0  0  0  0
   -0.8586   -0.0084    2.9116 O   0  0  0  1  0  0  0  0  0  0  0  0
   -1.9393   -0.5997    1.0277 N   0  0  0  1  0  0  0  0  0  0  0  0
   -2.1867    2.5312    3.8239 H   0  0  0  1  0  0  0  0  0  0  0  0
   -4.0576    1.8227    3.6956 C   0  0  0  1  0  0  0  0  0  0  0  0
   -1.3676   -1.9308    0.8891 C   0  0  0  1  0  0  0  0  0  0  0  0
   -4.4579    2.4481    5.0177 C   0  0  0  1  0  0  0  0  0  0  0  0
   -4.8510    1.1304    3.0592 O   0  0  0  1  0  0  0  0  0  0  0  0
   -2.6099   -0.3237    0.3686 H   0  0  0  1  0  0  0  0  0  0  0  0
   -0.3223   -1.8959    1.1152 H   0  0  0  1  0  0  0  0  0  0  0  0
   -1.5037   -2.2744   -0.1151 H   0  0  0  1  0  0  0  0  0  0  0  0
   -1.8563   -2.6008    1.5652 H   0  0  0  1  0  0  0  0  0  0  0  0
   -3.6120    2.4709    5.6726 H   0  0  0  1  0  0  0  0  0  0  0  0
   -5.2387    1.8685    5.4642 H   0  0  0  1  0  0  0  0  0  0  0  0
   -4.8053    3.4460    4.8493 H   0  0  0  1  0  0  0  0  0  0  0  0
   -4.4301    8.0052    0.4437 Br  0  0  0  1  0  0  0  0  0  0  0  0
   -3.4402    6.4149    0.6951 C   0  0  0  1  0  0  0  0  0  0  0  0
   -2.9395    6.1049    1.9500 C   0  0  0  1  0  0  0  0  0  0  0  0
   -2.2831    4.9061    2.1555 C   0  0  0  1  0  0  0  0  0  0  0  0
   -2.1302    4.0114    1.1079 C   0  0  0  1  0  0  0  0  0  0  0  0
   -2.6293    4.3203   -0.1435 C   0  0  0  1  0  0  0  0  0  0  0  0
   -3.2876    5.5227   -0.3494 C   0  0  0  1  0  0  0  0  0  0  0  0
   -1.4180    2.6985    1.3331 C   0  0  0  1  0  0  0  0  0  0  0  0
   -3.0578    6.7744    2.7369 H   0  0  0  1  0  0  0  0  0  0  0  0
   -1.9040    4.6754    3.0960 H   0  0  0  1  0  0  0  0  0  0  0  0
   -2.5109    3.6507   -0.9304 H   0  0  0  1  0  0  0  0  0  0  0  0
   -3.6667    5.7534   -1.2900 H   0  0  0  1  0  0  0  0  0  0  0  0
   -1.0480    2.3461    0.3930 H   0  0  0  1  0  0  0  0  0  0  0  0
   -0.5979    2.8659    1.9996 H   0  0  0  1  0  0  0  0  0  0  0  0
  1  4  1  0  0  0  0
  2  4  1  0  0  0  0
  2  5  2  0  0  0  0
  2  6  1  0  0  0  0
  3  4  1  0  0  0  0
  3  7  1  0  0  0  0
  3  8  1  0  0  0  0
  4 26  1  0  0  0  0
  6  9  1  0  0  0  0
  6 12  1  0  0  0  0
  8 10  1  0  0  0  0
  8 11  2  0  0  0  0
  9 13  1  0  0  0  0
  9 14  1  0  0  0  0
  9 15  1  0  0  0  0
 10 16  1  0  0  0  0
 10 17  1  0  0  0  0
 10 18  1  0  0  0  0
 19 20  1  0  0  0  0
 20 21  4  0  0  0  0
 20 25  4  0  0  0  0
 21 22  4  0  0  0  0
 21 27  1  0  0  0  0
 22 23  4  0  0  0  0
 22 28  1  0  0  0  0
 23 24  4  0  0  0  0
 23 26  1  0  0  0  0
 24 25  4  0  0  0  0
 24 29  1  0  0  0  0
 25 30  1  0  0  0  0
 26 31  1  0  0  0  0
 26 32  1  0  0  0  0
M  END
> <BCLConfClusterSize>
1

> <ConfClashScore>
0 

> <ConfOneFourInteractionScore>
-0.985807 

> <ConfScore>
-0.170213 

> <ConfScorePBest>
0.00629587 

> <ConfTolerance>
0.260066 

> <RosettaParamsInstructions>
M  ROOT 3
M  POLY_N_BB 3
M  POLY_CA_BB 4
M  POLY_C_BB 2
M  POLY_O_BB 5
M  POLY_IGNORE 9 10 11 12 13 14 15 16 17 18 
M  POLY_UPPER 6
M  POLY_LOWER 8
M  POLY_CHG 0
M  POLY_PROPERTIES ALPHA_AA L_AA PROTEIN AROMATIC POLYMER 
M  END

$$$$



 32 32  0  0  0  0  0  0  0  0999 V2000
   -2.6013    1.4712    0.2039 H   0  0  0  1  0  0  0  0  0  0  0  0
   -1.4743    0.2060    1.4506 C   0  0  0  1  0  0  0  0  0  0  0  0
   -3.4544    1.5544    2.0745 N   0  0  0  1  0  0  0  0  0  0  0  0
   -2.2765    1.4764    1.2234 C   0  0  0  1  0  0  0  0  0  0  0  0
   -0.6233   -0.1363    0.6310 O   0  0  0  1  0  0  0  0  0  0  0  0
   -1.6850   -0.4422    2.6012 N   0  0  0  1  0  0  0  0  0  0  0  0
   -3.6724    2.4083    2.5032 H   0  0  0  1  0  0  0  0  0  0  0  0
   -4.2567    0.4921    2.2939 C   0  0  0  1  0  0  0  0  0  0  0  0
   -1.0689   -1.7278    2.8933 C   0  0  0  1  0  0  0  0  0  0  0  0
   -5.3864    0.6476    3.2867 C   0  0  0  1  0  0  0  0  0  0  0  0
   -4.0764   -0.5728    1.7049 O   0  0  0  1  0  0  0  0  0  0  0  0
   -2.2748   -0.0373    3.2710 H   0  0  0  1  0  0  0  0  0  0  0  0
   -1.7976   -2.5046    2.7908 H   0  0  0  1  0  0  0  0  0  0  0  0
   -0.6917   -1.7230    3.8946 H   0  0  0  1  0  0  0  0  0  0  0  0
   -0.2645   -1.9012    2.2094 H   0  0  0  1  0  0  0  0  0  0  0  0
   -6.0488    1.4201    2.9559 H   0  0  0  1  0  0  0  0  0  0  0  0
   -4.9861    0.9073    4.2444 H   0  0  0  1  0  0  0  0  0  0  0  0
   -5.9239   -0.2745    3.3623 H   0  0  0  1  0  0  0  0  0  0  0  0
   -4.4284    8.0074    0.4539 Br  0  0  0  1  0  0  0  0  0  0  0  0
   -3.4402    6.4143    0.6940 C   0  0  0  1  0  0  0  0  0  0  0  0
   -2.9367    6.0968    1.9459 C   0  0  0  1  0  0  0  0  0  0  0  0
   -2.2816    4.8959    2.1431 C   0  0  0  1  0  0  0  0  0  0  0  0
   -2.1327    4.0067    1.0903 C   0  0  0  1  0  0  0  0  0  0  0  0
   -2.6346    4.3231   -0.1580 C   0  0  0  1  0  0  0  0  0  0  0  0
   -3.2917    5.5276   -0.3557 C   0  0  0  1  0  0  0  0  0  0  0  0
   -1.4070    2.7227    1.4163 C   0  0  0  1  0  0  0  0  0  0  0  0
   -3.0520    6.7622    2.7367 H   0  0  0  1  0  0  0  0  0  0  0  0
   -1.9003    4.6595    3.0814 H   0  0  0  1  0  0  0  0  0  0  0  0
   -2.5194    3.6576   -0.9489 H   0  0  0  1  0  0  0  0  0  0  0  0
   -3.6729    5.7640   -1.2940 H   0  0  0  1  0  0  0  0  0  0  0  0
   -0.5518    2.6434    0.7781 H   0  0  0  1  0  0  0  0  0  0  0  0
   -1.0886    2.7612    2.4371 H   0  0  0  1  0  0  0  0  0  0  0  0
  1  4  1  0  0  0  0
  2  4  1  0  0  0  0
  2  5  2  0  0  0  0
  2  6  1  0  0  0  0
  3  4  1  0  0  0  0
  3  7  1  0  0  0  0
  3  8  1  0  0  0  0
  4 26  1  0  0  0  0
  6  9  1  0  0  0  0
  6 12  1  0  0  0  0
  8 10  1  0  0  0  0
  8 11  2  0  0  0  0
  9 13  1  0  0  0  0
  9 14  1  0  0  0  0
  9 15  1  0  0  0  0
 10 16  1  0  0  0  0
 10 17  1  0  0  0  0
 10 18  1  0  0  0  0
 19 20  1  0  0  0  0
 20 21  4  0  0  0  0
 20 25  4  0  0  0  0
 21 22  4  0  0  0  0
 21 27  1  0  0  0  0
 22 23  4  0  0  0  0
 22 28  1  0  0  0  0
 23 24  4  0  0  0  0
 23 26  1  0  0  0  0
 24 25  4  0  0  0  0
 24 29  1  0  0  0  0
 25 30  1  0  0  0  0
 26 31  1  0  0  0  0
 26 32  1  0  0  0  0
M  END
> <BCLConfClusterSize>
1

> <ConfClashScore>
0 

> <ConfOneFourInteractionScore>
-0.960318 

> <ConfScore>
-0.167954 

> <ConfScorePBest>
0.00626739 

> <ConfTolerance>
0.372707 

> <RosettaParamsInstructions>
M  ROOT 3
M  POLY_N_BB 3
M  POLY_CA_BB 4
M  POLY_C_BB 2
M  POLY_O_BB 5
M  POLY_IGNORE 9 10 11 12 13 14 15 16 17 18 
M  POLY_UPPER 6
M  POLY_LOWER 8
M  POLY_CHG 0
M  POLY_PROPERTIES ALPHA_AA L_AA PROTEIN AROMATIC POLYMER 
M  END

$$$$



 32 32  0  0  0  0  0  0  0  0999 V2000
    0.4460    3.3777    2.0891 H   0  0  0  1  0  0  0  0  0  0  0  0
    0.7960    1.5110    1.1368 C   0  0  0  1  0  0  0  0  0  0  0  0
    0.4358    3.6744    0.0420 N   0  0  0  1  0  0  0  0  0  0  0  0
    0.0986    2.8753    1.2106 C   0  0  0  1  0  0  0  0  0  0  0  0
    0.5507    0.6570    1.9728 O   0  0  0  1  0  0  0  0  0  0  0  0
    1.5927    1.2976    0.0841 N   0  0  0  1  0  0  0  0  0  0  0  0
   -0.0290    3.4972   -0.8024 H   0  0  0  1  0  0  0  0  0  0  0  0
    1.3571    4.6413    0.0802 C   0  0  0  1  0  0  0  0  0  0  0  0
    2.1771   -0.0170   -0.1354 C   0  0  0  1  0  0  0  0  0  0  0  0
    1.6940    5.2589   -1.2796 C   0  0  0  1  0  0  0  0  0  0  0  0
    1.8587    5.0864    1.1117 O   0  0  0  1  0  0  0  0  0  0  0  0
    1.7833    2.0280   -0.5409 H   0  0  0  1  0  0  0  0  0  0  0  0
    1.4922   -0.7714    0.1913 H   0  0  0  1  0  0  0  0  0  0  0  0
    3.0886   -0.0989    0.4191 H   0  0  0  1  0  0  0  0  0  0  0  0
    2.3802   -0.1473   -1.1778 H   0  0  0  1  0  0  0  0  0  0  0  0
    2.0900    6.2426   -1.1369 H   0  0  0  1  0  0  0  0  0  0  0  0
    0.8069    5.3147   -1.8753 H   0  0  0  1  0  0  0  0  0  0  0  0
    2.4206    4.6509   -1.7770 H   0  0  0  1  0  0  0  0  0  0  0  0
   -4.4301    8.0052    0.4437 Br  0  0  0  1  0  0  0  0  0  0  0  0
   -3.4402    6.4149    0.6951 C   0  0  0  1  0  0  0  0  0  0  0  0
   -2.9395    6.1049    1.9500 C   0  0  0  1  0  0  0  0  0  0  0  0
   -2.2831    4.9061    2.1555 C   0  0  0  1  0  0  0  0  0  0  0  0
   -2.1302    4.0114    1.1079 C   0  0  0  1  0  0  0  0  0  0  0  0
   -2.6293    4.3203   -0.1435 C   0  0  0  1  0  0  0  0  0  0  0  0
   -3.2876    5.5227   -0.3494 C   0  0  0  1  0  0  0  0  0  0  0  0
   -1.4180    2.6985    1.3331 C   0  0  0  1  0  0  0  0  0  0  0  0
   -3.0578    6.7744    2.7369 H   0  0  0  1  0  0  0  0  0  0  0  0
   -1.9040    4.6754    3.0960 H   0  0  0  1  0  0  0  0  0  0  0  0
   -2.5109    3.6507   -0.9304 H   0  0  0  1  0  0  0  0  0  0  0  0
   -3.6667    5.7534   -1.2900 H   0  0  0  1  0  0  0  0  0  0  0  0
   -1.6510    2.3366    2.3127 H   0  0  0  1  0  0  0  0  0  0  0  0
   -1.7488    1.9901    0.6026 H   0  0  0  1  0  0  0  0  0  0  0  0
  1  4  1  0  0  0  0
  2  4  1  0  0  0  0
  2  5  2  0  0  0  0
  2  6  1  0  0  0  0
  3  4  1  0  0  0  0
  3  7  1  0  0  0  0
  3  8  1  0  0  0  0
  4 26  1  0  0  0  0
  6  9  1  0  0  0  0
  6 12  1  0  0  0  0
  8 10  1  0  0  0  0
  8 11  2  0  0  0  0
  9 13  1  0  0  0  0
  9 14  1  0  0  0  0
  9 15  1  0  0  0  0
 10 16  1  0  0  0  0
 10 17  1  0  0  0  0
 10 18  1  0  0  0  0
 19 20  1  0  0  0  0
 20 21  4  0  0  0  0
 20 25  4  0  0  0  0
 21 22  4  0  0  0  0
 21 27  1  0  0  0  0
 22 23  4  0  0  0  0
 22 28  1  0  0  0  0
 23 24  4  0  0  0  0
 23 26  1  0  0  0  0
 24 25  4  0  0  0  0
 24 29  1  0  0  0  0
 25 30  1  0  0  0  0
 26 31  1  0  0  0  0
 26 32  1  0  0  0  0
M  END
> <BCLConfClusterSize>
1

> <ConfClashScore>
0 

> <ConfOneFourInteractionScore>
-0.928132 

> <ConfScore>
-0.165614 

> <ConfScorePBest>
0.00623891 

> <ConfTolerance>
0.256983 

> <RosettaParamsInstructions>
M  ROOT 3
M  POLY_N_BB 3
M  POLY_CA_BB 4
M  POLY_C_BB 2
M  POLY_O_BB 5
M  POLY_IGNORE 9 10 11 12 13 14 15 16 17 18 
M  POLY_UPPER 6
M  POLY_LOWER 8
M  POLY_CHG 0
M  POLY_PROPERTIES ALPHA_AA L_AA PROTEIN AROMATIC POLYMER 
M  END

$$$$



 32 32  0  0  0  0  0  0  0  0999 V2000
    0.5465    3.5105    1.1308 H   0  0  0  1  0  0  0  0  0  0  0  0
    0.7306    1.3817    1.1238 C   0  0  0  1  0  0  0  0  0  0  0  0
   -0.0890    2.7578   -0.7024 N   0  0  0  1  0  0  0  0  0  0  0  0
   -0.0025    2.6756    0.7480 C   0  0  0  1  0  0  0  0  0  0  0  0
    1.3773    1.2983    2.1668 O   0  0  0  1  0  0  0  0  0  0  0  0
    0.5518    0.3394    0.3053 N   0  0  0  1  0  0  0  0  0  0  0  0
   -0.7812    2.2245   -1.1459 H   0  0  0  1  0  0  0  0  0  0  0  0
    0.7031    3.5043   -1.4735 C   0  0  0  1  0  0  0  0  0  0  0  0
    1.0558   -0.9897    0.6175 C   0  0  0  1  0  0  0  0  0  0  0  0
    0.4660    3.3904   -2.9668 C   0  0  0  1  0  0  0  0  0  0  0  0
    1.5741    4.2426   -1.0209 O   0  0  0  1  0  0  0  0  0  0  0  0
    0.0644    0.4753   -0.5340 H   0  0  0  1  0  0  0  0  0  0  0  0
    0.2719   -1.5768    1.0485 H   0  0  0  1  0  0  0  0  0  0  0  0
    1.8649   -0.9097    1.3131 H   0  0  0  1  0  0  0  0  0  0  0  0
    1.4011   -1.4597   -0.2796 H   0  0  0  1  0  0  0  0  0  0  0  0
    1.2581    2.8253   -3.4121 H   0  0  0  1  0  0  0  0  0  0  0  0
    0.4395    4.3688   -3.3991 H   0  0  0  1  0  0  0  0  0  0  0  0
   -0.4668    2.8966   -3.1429 H   0  0  0  1  0  0  0  0  0  0  0  0
   -4.4301    8.0052    0.4437 Br  0  0  0  1  0  0  0  0  0  0  0  0
   -3.4402    6.4149    0.6951 C   0  0  0  1  0  0  0  0  0  0  0  0
   -2.9395    6.1049    1.9500 C   0  0  0  1  0  0  0  0  0  0  0  0
   -2.2831    4.9061    2.1555 C   0  0  0  1  0  0  0  0  0  0  0  0
   -2.1302    4.0114    1.1079 C   0  0  0  1  0  0  0  0  0  0  0  0
   -2.6293    4.3203   -0.1435 C   0  0  0  1  0  0  0  0  0  0  0  0
   -3.2876    5.5227   -0.3494 C   0  0  0  1  0  0  0  0  0  0  0  0
   -1.4180    2.6985    1.3331 C   0  0  0  1  0  0  0  0  0  0  0  0
   -3.0578    6.7744    2.7369 H   0  0  0  1  0  0  0  0  0  0  0  0
   -1.9040    4.6754    3.0960 H   0  0  0  1  0  0  0  0  0  0  0  0
   -2.5109    3.6507   -0.9304 H   0  0  0  1  0  0  0  0  0  0  0  0
   -3.6667    5.7534   -1.2900 H   0  0  0  1  0  0  0  0  0  0  0  0
   -1.3540    2.5221    2.3865 H   0  0  0  1  0  0  0  0  0  0  0  0
   -1.9888    1.9184    0.8744 H   0  0  0  1  0  0  0  0  0  0  0  0
  1  4  1  0  0  0  0
  2  4  1  0  0  0  0
  2  5  2  0  0  0  0
  2  6  1  0  0  0  0
  3  4  1  0  0  0  0
  3  7  1  0  0  0  0
  3  8  1  0  0  0  0
  4 26  1  0  0  0  0
  6  9  1  0  0  0  0
  6 12  1  0  0  0  0
  8 10  1  0  0  0  0
  8 11  2  0  0  0  0
  9 13  1  0  0  0  0
  9 14  1  0  0  0  0
  9 15  1  0  0  0  0
 10 16  1  0  0  0  0
 10 17  1  0  0  0  0
 10 18  1  0  0  0  0
 19 20  1  0  0  0  0
 20 21  4  0  0  0  0
 20 25  4  0  0  0  0
 21 22  4  0  0  0  0
 21 27  1  0  0  0  0
 22 23  4  0  0  0  0
 22 28  1  0  0  0  0
 23 24  4  0  0  0  0
 23 26  1  0  0  0  0
 24 25  4  0  0  0  0
 24 29  1  0  0  0  0
 25 30  1  0  0  0  0
 26 31  1  0  0  0  0
 26 32  1  0  0  0  0
M  END
> <BCLConfClusterSize>
1

> <ConfClashScore>
0 

> <ConfOneFourInteractionScore>
-0.956443 

> <ConfScore>
-0.165065 

> <ConfScorePBest>
0.00621043 

> <ConfTolerance>
0.277336 

> <RosettaParamsInstructions>
M  ROOT 3
M  POLY_N_BB 3
M  POLY_CA_BB 4
M  POLY_C_BB 2
M  POLY_O_BB 5
M  POLY_IGNORE 9 10 11 12 13 14 15 16 17 18 
M  POLY_UPPER 6
M  POLY_LOWER 8
M  POLY_CHG 0
M  POLY_PROPERTIES ALPHA_AA L_AA PROTEIN AROMATIC POLYMER 
M  END

$$$$



 32 32  0  0  0  0  0  0  0  0999 V2000
   -1.3276    2.9780    3.4235 H   0  0  0  1  0  0  0  0  0  0  0  0
   -0.2368    1.2242    3.0020 C   0  0  0  1  0  0  0  0  0  0  0  0
    0.4703    3.5695    2.6182 N   0  0  0  1  0  0  0  0  0  0  0  0
   -0.6555    2.6501    2.6581 C   0  0  0  1  0  0  0  0  0  0  0  0
   -1.0235    0.4419    3.5129 O   0  0  0  1  0  0  0  0  0  0  0  0
    0.9995    0.8621    2.6325 N   0  0  0  1  0  0  0  0  0  0  0  0
    0.6348    4.1065    1.8151 H   0  0  0  1  0  0  0  0  0  0  0  0
    1.2887    3.6848    3.6842 C   0  0  0  1  0  0  0  0  0  0  0  0
    1.4447   -0.5231    2.6596 C   0  0  0  1  0  0  0  0  0  0  0  0
    2.4661    4.6520    3.5572 C   0  0  0  1  0  0  0  0  0  0  0  0
    1.1613    2.9905    4.6918 O   0  0  0  1  0  0  0  0  0  0  0  0
    1.6256    1.5543    2.3337 H   0  0  0  1  0  0  0  0  0  0  0  0
    0.9186   -1.0524    3.4264 H   0  0  0  1  0  0  0  0  0  0  0  0
    2.4952   -0.5561    2.8602 H   0  0  0  1  0  0  0  0  0  0  0  0
    1.2475   -0.9794    1.7121 H   0  0  0  1  0  0  0  0  0  0  0  0
    3.1215    4.3168    2.7807 H   0  0  0  1  0  0  0  0  0  0  0  0
    3.0000    4.6871    4.4838 H   0  0  0  1  0  0  0  0  0  0  0  0
    2.1007    5.6289    3.3182 H   0  0  0  1  0  0  0  0  0  0  0  0
   -4.4301    8.0052    0.4437 Br  0  0  0  1  0  0  0  0  0  0  0  0
   -3.4402    6.4149    0.6951 C   0  0  0  1  0  0  0  0  0  0  0  0
   -2.9395    6.1049    1.9500 C   0  0  0  1  0  0  0  0  0  0  0  0
   -2.2831    4.9061    2.1555 C   0  0  0  1  0  0  0  0  0  0  0  0
   -2.1302    4.0114    1.1079 C   0  0  0  1  0  0  0  0  0  0  0  0
   -2.6293    4.3203   -0.1435 C   0  0  0  1  0  0  0  0  0  0  0  0
   -3.2876    5.5227   -0.3494 C   0  0  0  1  0  0  0  0  0  0  0  0
   -1.4180    2.6985    1.3331 C   0  0  0  1  0  0  0  0  0  0  0  0
   -3.0578    6.7744    2.7369 H   0  0  0  1  0  0  0  0  0  0  0  0
   -1.9040    4.6754    3.0960 H   0  0  0  1  0  0  0  0  0  0  0  0
   -2.5109    3.6507   -0.9304 H   0  0  0  1  0  0  0  0  0  0  0  0
   -3.6667    5.7534   -1.2900 H   0  0  0  1  0  0  0  0  0  0  0  0
   -2.1438    1.9123    1.3289 H   0  0  0  1  0  0  0  0  0  0  0  0
   -0.7225    2.5469    0.5342 H   0  0  0  1  0  0  0  0  0  0  0  0
  1  4  1  0  0  0  0
  2  4  1  0  0  0  0
  2  5  2  0  0  0  0
  2  6  1  0  0  0  0
  3  4  1  0  0  0  0
  3  7  1  0  0  0  0
  3  8  1  0  0  0  0
  4 26  1  0  0  0  0
  6  9  1  0  0  0  0
  6 12  1  0  0  0  0
  8 10  1  0  0  0  0
  8 11  2  0  0  0  0
  9 13  1  0  0  0  0
  9 14  1  0  0  0  0
  9 15  1  0  0  0  0
 10 16  1  0  0  0  0
 10 17  1  0  0  0  0
 10 18  1  0  0  0  0
 19 20  1  0  0  0  0
 20 21  4  0  0  0  0
 20 25  4  0  0  0  0
 21 22  4  0  0  0  0
 21 27  1  0  0  0  0
 22 23  4  0  0  0  0
 22 28  1  0  0  0  0
 23 24  4  0  0  0  0
 23 26  1  0  0  0  0
 24 25  4  0  0  0  0
 24 29  1  0  0  0  0
 25 30  1  0  0  0  0
 26 31  1  0  0  0  0
 26 32  1  0  0  0  0
M  END
> <BCLConfClusterSize>
1

> <ConfClashScore>
0 

> <ConfOneFourInteractionScore>
-0.949001 

> <ConfScore>
-0.162167 

> <ConfScorePBest>
0.00618195 

> <ConfTolerance>
0.244272 

> <RosettaParamsInstructions>
M  ROOT 3
M  POLY_N_BB 3
M  POLY_CA_BB 4
M  POLY_C_BB 2
M  POLY_O_BB 5
M  POLY_IGNORE 9 10 11 12 13 14 15 16 17 18 
M  POLY_UPPER 6
M  POLY_LOWER 8
M  POLY_CHG 0
M  POLY_PROPERTIES ALPHA_AA L_AA PROTEIN AROMATIC POLYMER 
M  END

$$$$



 32 32  0  0  0  0  0  0  0  0999 V2000
   -3.0912    1.9922    2.5161 H   0  0  0  1  0  0  0  0  0  0  0  0
   -3.5318    1.4482    0.5284 C   0  0  0  1  0  0  0  0  0  0  0  0
   -1.9521    0.3459    2.0706 N   0  0  0  1  0  0  0  0  0  0  0  0
   -2.5345    1.6214    1.6809 C   0  0  0  1  0  0  0  0  0  0  0  0
   -4.5637    2.1173    0.5051 O   0  0  0  1  0  0  0  0  0  0  0  0
   -3.1753    0.6179   -0.4574 N   0  0  0  1  0  0  0  0  0  0  0  0
   -0.9866    0.2151    1.9657 H   0  0  0  1  0  0  0  0  0  0  0  0
   -2.6880   -0.6530    2.5663 C   0  0  0  1  0  0  0  0  0  0  0  0
   -4.0419    0.3427   -1.5937 C   0  0  0  1  0  0  0  0  0  0  0  0
   -1.9261   -1.9093    2.9410 C   0  0  0  1  0  0  0  0  0  0  0  0
   -3.9067   -0.5766    2.7165 O   0  0  0  1  0  0  0  0  0  0  0  0
   -2.3000    0.1794   -0.4131 H   0  0  0  1  0  0  0  0  0  0  0  0
   -4.3117   -0.6927   -1.5946 H   0  0  0  1  0  0  0  0  0  0  0  0
   -3.5254    0.5773   -2.5009 H   0  0  0  1  0  0  0  0  0  0  0  0
   -4.9259    0.9413   -1.5209 H   0  0  0  1  0  0  0  0  0  0  0  0
   -0.8791   -1.7514    2.7871 H   0  0  0  1  0  0  0  0  0  0  0  0
   -2.2575   -2.7227    2.3299 H   0  0  0  1  0  0  0  0  0  0  0  0
   -2.1042   -2.1404    3.9705 H   0  0  0  1  0  0  0  0  0  0  0  0
   -4.4484    7.9948    0.4502 Br  0  0  0  1  0  0  0  0  0  0  0  0
   -3.4440    6.4128    0.6961 C   0  0  0  1  0  0  0  0  0  0  0  0
   -2.9376    6.1047    1.9491 C   0  0  0  1  0  0  0  0  0  0  0  0
   -2.2702    4.9114    2.1507 C   0  0  0  1  0  0  0  0  0  0  0  0
   -2.1119    4.0201    1.1010 C   0  0  0  1  0  0  0  0  0  0  0  0
   -2.6167    4.3270   -0.1486 C   0  0  0  1  0  0  0  0  0  0  0  0
   -3.2861    5.5240   -0.3506 C   0  0  0  1  0  0  0  0  0  0  0  0
   -1.4720    2.6759    1.3562 C   0  0  0  1  0  0  0  0  0  0  0  0
   -3.0599    6.7717    2.7377 H   0  0  0  1  0  0  0  0  0  0  0  0
   -1.8869    4.6821    3.0899 H   0  0  0  1  0  0  0  0  0  0  0  0
   -2.4944    3.6601   -0.9371 H   0  0  0  1  0  0  0  0  0  0  0  0
   -3.6694    5.7533   -1.2897 H   0  0  0  1  0  0  0  0  0  0  0  0
   -0.9322    2.3729    0.4834 H   0  0  0  1  0  0  0  0  0  0  0  0
   -0.7971    2.7599    2.1823 H   0  0  0  1  0  0  0  0  0  0  0  0
  1  4  1  0  0  0  0
  2  4  1  0  0  0  0
  2  5  2  0  0  0  0
  2  6  1  0  0  0  0
  3  4  1  0  0  0  0
  3  7  1  0  0  0  0
  3  8  1  0  0  0  0
  4 26  1  0  0  0  0
  6  9  1  0  0  0  0
  6 12  1  0  0  0  0
  8 10  1  0  0  0  0
  8 11  2  0  0  0  0
  9 13  1  0  0  0  0
  9 14  1  0  0  0  0
  9 15  1  0  0  0  0
 10 16  1  0  0  0  0
 10 17  1  0  0  0  0
 10 18  1  0  0  0  0
 19 20  1  0  0  0  0
 20 21  4  0  0  0  0
 20 25  4  0  0  0  0
 21 22  4  0  0  0  0
 21 27  1  0  0  0  0
 22 23  4  0  0  0  0
 22 28  1  0  0  0  0
 23 24  4  0  0  0  0
 23 26  1  0  0  0  0
 24 25  4  0  0  0  0
 24 29  1  0  0  0  0
 25 30  1  0  0  0  0
 26 31  1  0  0  0  0
 26 32  1  0  0  0  0
M  END
> <BCLConfClusterSize>
1

> <ConfClashScore>
0 

> <ConfOneFourInteractionScore>
-0.960318 

> <ConfScore>
-0.153194 

> <ConfScorePBest>
0.00615347 

> <ConfTolerance>
0.302612 

> <RosettaParamsInstructions>
M  ROOT 3
M  POLY_N_BB 3
M  POLY_CA_BB 4
M  POLY_C_BB 2
M  POLY_O_BB 5
M  POLY_IGNORE 9 10 11 12 13 14 15 16 17 18 
M  POLY_UPPER 6
M  POLY_LOWER 8
M  POLY_CHG 0
M  POLY_PROPERTIES ALPHA_AA L_AA PROTEIN AROMATIC POLYMER 
M  END

$$$$



 32 32  0  0  0  0  0  0  0  0999 V2000
   -3.1777    1.5066    1.2133 H   0  0  0  1  0  0  0  0  0  0  0  0
   -1.5076    0.2581    1.6703 C   0  0  0  1  0  0  0  0  0  0  0  0
   -2.6495    1.7276    3.2183 N   0  0  0  1  0  0  0  0  0  0  0  0
   -2.2958    1.5559    1.8171 C   0  0  0  1  0  0  0  0  0  0  0  0
   -0.4394    0.0941    2.2577 O   0  0  0  1  0  0  0  0  0  0  0  0
   -2.0860   -0.7101    0.9458 N   0  0  0  1  0  0  0  0  0  0  0  0
   -1.9590    1.6525    3.9097 H   0  0  0  1  0  0  0  0  0  0  0  0
   -3.9260    1.9899    3.5675 C   0  0  0  1  0  0  0  0  0  0  0  0
   -1.5734   -2.0649    0.8056 C   0  0  0  1  0  0  0  0  0  0  0  0
   -4.2842    1.9479    5.0358 C   0  0  0  1  0  0  0  0  0  0  0  0
   -4.7754    2.2557    2.7181 O   0  0  0  1  0  0  0  0  0  0  0  0
   -2.9166   -0.4890    0.4750 H   0  0  0  1  0  0  0  0  0  0  0  0
   -2.3903   -2.7558    0.7874 H   0  0  0  1  0  0  0  0  0  0  0  0
   -0.9336   -2.2913    1.6328 H   0  0  0  1  0  0  0  0  0  0  0  0
   -1.0195   -2.1438   -0.1064 H   0  0  0  1  0  0  0  0  0  0  0  0
   -3.4979    1.4698    5.5817 H   0  0  0  1  0  0  0  0  0  0  0  0
   -5.1932    1.3985    5.1653 H   0  0  0  1  0  0  0  0  0  0  0  0
   -4.4150    2.9457    5.3994 H   0  0  0  1  0  0  0  0  0  0  0  0
   -4.4301    8.0052    0.4437 Br  0  0  0  1  0  0  0  0  0  0  0  0
   -3.4402    6.4149    0.6951 C   0  0  0  1  0  0  0  0  0  0  0  0
   -2.9395    6.1049    1.9500 C   0  0  0  1  0  0  0  0  0  0  0  0
   -2.2831    4.9061    2.1555 C   0  0  0  1  0  0  0  0  0  0  0  0
   -2.1302    4.0114    1.1079 C   0  0  0  1  0  0  0  0  0  0  0  0
   -2.6293    4.3203   -0.1435 C   0  0  0  1  0  0  0  0  0  0  0  0
   -3.2876    5.5227   -0.3494 C   0  0  0  1  0  0  0  0  0  0  0  0
   -1.4180    2.6985    1.3331 C   0  0  0  1  0  0  0  0  0  0  0  0
   -3.0578    6.7744    2.7369 H   0  0  0  1  0  0  0  0  0  0  0  0
   -1.9040    4.6754    3.0960 H   0  0  0  1  0  0  0  0  0  0  0  0
   -2.5109    3.6507   -0.9304 H   0  0  0  1  0  0  0  0  0  0  0  0
   -3.6667    5.7534   -1.2900 H   0  0  0  1  0  0  0  0  0  0  0  0
   -0.9713    2.4022    0.4071 H   0  0  0  1  0  0  0  0  0  0  0  0
   -0.6528    2.8592    2.0635 H   0  0  0  1  0  0  0  0  0  0  0  0
  1  4  1  0  0  0  0
  2  4  1  0  0  0  0
  2  5  2  0  0  0  0
  2  6  1  0  0  0  0
  3  4  1  0  0  0  0
  3  7  1  0  0  0  0
  3  8  1  0  0  0  0
  4 26  1  0  0  0  0
  6  9  1  0  0  0  0
  6 12  1  0  0  0  0
  8 10  1  0  0  0  0
  8 11  2  0  0  0  0
  9 13  1  0  0  0  0
  9 14  1  0  0  0  0
  9 15  1  0  0  0  0
 10 16  1  0  0  0  0
 10 17  1  0  0  0  0
 10 18  1  0  0  0  0
 19 20  1  0  0  0  0
 20 21  4  0  0  0  0
 20 25  4  0  0  0  0
 21 22  4  0  0  0  0
 21 27  1  0  0  0  0
 22 23  4  0  0  0  0
 22 28  1  0  0  0  0
 23 24  4  0  0  0  0
 23 26  1  0  0  0  0
 24 25  4  0  0  0  0
 24 29  1  0  0  0  0
 25 30  1  0  0  0  0
 26 31  1  0  0  0  0
 26 32  1  0  0  0  0
M  END
> <BCLConfClusterSize>
1

> <ConfClashScore>
0 

> <ConfOneFourInteractionScore>
-0.978947 

> <ConfScore>
-0.152155 

> <ConfScorePBest>
0.00612499 

> <ConfTolerance>
0.306113 

> <RosettaParamsInstructions>
M  ROOT 3
M  POLY_N_BB 3
M  POLY_CA_BB 4
M  POLY_C_BB 2
M  POLY_O_BB 5
M  POLY_IGNORE 9 10 11 12 13 14 15 16 17 18 
M  POLY_UPPER 6
M  POLY_LOWER 8
M  POLY_CHG 0
M  POLY_PROPERTIES ALPHA_AA L_AA PROTEIN AROMATIC POLYMER 
M  END

$$$$



 32 32  0  0  0  0  0  0  0  0999 V2000
   -2.0247    2.5272    3.3459 H   0  0  0  1  0  0  0  0  0  0  0  0
   -3.4325    1.4024    2.2665 C   0  0  0  1  0  0  0  0  0  0  0  0
   -1.1258    0.7448    2.8011 N   0  0  0  1  0  0  0  0  0  0  0  0
   -2.0090    1.8860    2.4894 C   0  0  0  1  0  0  0  0  0  0  0  0
   -4.3957    2.0725    2.6354 O   0  0  0  1  0  0  0  0  0  0  0  0
   -3.5715    0.2657    1.5760 N   0  0  0  1  0  0  0  0  0  0  0  0
   -0.4053    0.5199    2.1762 H   0  0  0  1  0  0  0  0  0  0  0  0
   -1.2747    0.0080    3.9057 C   0  0  0  1  0  0  0  0  0  0  0  0
   -4.8736   -0.2466    1.1760 C   0  0  0  1  0  0  0  0  0  0  0  0
   -0.2359   -1.0756    4.1196 C   0  0  0  1  0  0  0  0  0  0  0  0
   -2.1882    0.1826    4.7079 O   0  0  0  1  0  0  0  0  0  0  0  0
   -2.7687   -0.2400    1.3309 H   0  0  0  1  0  0  0  0  0  0  0  0
   -5.5074    0.5686    0.8956 H   0  0  0  1  0  0  0  0  0  0  0  0
   -5.3150   -0.7762    1.9942 H   0  0  0  1  0  0  0  0  0  0  0  0
   -4.7558   -0.9089    0.3438 H   0  0  0  1  0  0  0  0  0  0  0  0
    0.6312   -0.6527    4.5824 H   0  0  0  1  0  0  0  0  0  0  0  0
    0.0352   -1.5008    3.1759 H   0  0  0  1  0  0  0  0  0  0  0  0
   -0.6412   -1.8380    4.7516 H   0  0  0  1  0  0  0  0  0  0  0  0
   -4.4301    8.0052    0.4437 Br  0  0  0  1  0  0  0  0  0  0  0  0
   -3.4402    6.4149    0.6951 C   0  0  0  1  0  0  0  0  0  0  0  0
   -2.9395    6.1049    1.9500 C   0  0  0  1  0  0  0  0  0  0  0  0
   -2.2831    4.9061    2.1555 C   0  0  0  1  0  0  0  0  0  0  0  0
   -2.1302    4.0114    1.1079 C   0  0  0  1  0  0  0  0  0  0  0  0
   -2.6293    4.3203   -0.1435 C   0  0  0  1  0  0  0  0  0  0  0  0
   -3.2876    5.5227   -0.3494 C   0  0  0  1  0  0  0  0  0  0  0  0
   -1.4180    2.6985    1.3331 C   0  0  0  1  0  0  0  0  0  0  0  0
   -3.0578    6.7744    2.7369 H   0  0  0  1  0  0  0  0  0  0  0  0
   -1.9040    4.6754    3.0960 H   0  0  0  1  0  0  0  0  0  0  0  0
   -2.5109    3.6507   -0.9304 H   0  0  0  1  0  0  0  0  0  0  0  0
   -3.6667    5.7534   -1.2900 H   0  0  0  1  0  0  0  0  0  0  0  0
   -1.4860    2.1162    0.4380 H   0  0  0  1  0  0  0  0  0  0  0  0
   -0.3901    2.9015    1.5499 H   0  0  0  1  0  0  0  0  0  0  0  0
  1  4  1  0  0  0  0
  2  4  1  0  0  0  0
  2  5  2  0  0  0  0
  2  6  1  0  0  0  0
  3  4  1  0  0  0  0
  3  7  1  0  0  0  0
  3  8  1  0  0  0  0
  4 26  1  0  0  0  0
  6  9  1  0  0  0  0
  6 12  1  0  0  0  0
  8 10  1  0  0  0  0
  8 11  2  0  0  0  0
  9 13  1  0  0  0  0
  9 14  1  0  0  0  0
  9 15  1  0  0  0  0
 10 16  1  0  0  0  0
 10 17  1  0  0  0  0
 10 18  1  0  0  0  0
 19 20  1  0  0  0  0
 20 21  4  0  0  0  0
 20 25  4  0  0  0  0
 21 22  4  0  0  0  0
 21 27  1  0  0  0  0
 22 23  4  0  0  0  0
 22 28  1  0  0  0  0
 23 24  4  0  0  0  0
 23 26  1  0  0  0  0
 24 25  4  0  0  0  0
 24 29  1  0  0  0  0
 25 30  1  0  0  0  0
 26 31  1  0  0  0  0
 26 32  1  0  0  0  0
M  END
> <BCLConfClusterSize>
1

> <ConfClashScore>
0 

> <ConfOneFourInteractionScore>
-0.960318 

> <ConfScore>
-0.151057 

> <ConfScorePBest>
0.00609651 

> <ConfTolerance>
0.264948 

> <RosettaParamsInstructions>
M  ROOT 3
M  POLY_N_BB 3
M  POLY_CA_BB 4
M  POLY_C_BB 2
M  POLY_O_BB 5
M  POLY_IGNORE 9 10 11 12 13 14 15 16 17 18 
M  POLY_UPPER 6
M  POLY_LOWER 8
M  POLY_CHG 0
M  POLY_PROPERTIES ALPHA_AA L_AA PROTEIN AROMATIC POLYMER 
M  END

$$$$



 32 32  0  0  0  0  0  0  0  0999 V2000
   -3.1862    1.4600    1.1343 H   0  0  0  1  0  0  0  0  0  0  0  0
   -1.7122    0.3348    2.1469 C   0  0  0  1  0  0  0  0  0  0  0  0
   -3.1185    2.1681    3.0730 N   0  0  0  1  0  0  0  0  0  0  0  0
   -2.4522    1.6405    1.8916 C   0  0  0  1  0  0  0  0  0  0  0  0
   -0.9580   -0.1434    1.3009 O   0  0  0  1  0  0  0  0  0  0  0  0
   -1.8609   -0.2037    3.3619 N   0  0  0  1  0  0  0  0  0  0  0  0
   -2.6938    2.8992    3.5686 H   0  0  0  1  0  0  0  0  0  0  0  0
   -4.2889    1.6905    3.5054 C   0  0  0  1  0  0  0  0  0  0  0  0
   -1.3725   -1.5223    3.7370 C   0  0  0  1  0  0  0  0  0  0  0  0
   -4.8638    2.3687    4.7337 C   0  0  0  1  0  0  0  0  0  0  0  0
   -4.8774    0.7606    2.9553 O   0  0  0  1  0  0  0  0  0  0  0  0
   -2.3287    0.3232    4.0431 H   0  0  0  1  0  0  0  0  0  0  0  0
   -1.0606   -2.0504    2.8602 H   0  0  0  1  0  0  0  0  0  0  0  0
   -2.1550   -2.0676    4.2220 H   0  0  0  1  0  0  0  0  0  0  0  0
   -0.5427   -1.4184    4.4045 H   0  0  0  1  0  0  0  0  0  0  0  0
   -5.3980    3.2478    4.4392 H   0  0  0  1  0  0  0  0  0  0  0  0
   -4.0685    2.6401    5.3961 H   0  0  0  1  0  0  0  0  0  0  0  0
   -5.5306    1.6968    5.2326 H   0  0  0  1  0  0  0  0  0  0  0  0
   -4.4484    7.9948    0.4502 Br  0  0  0  1  0  0  0  0  0  0  0  0
   -3.4440    6.4128    0.6961 C   0  0  0  1  0  0  0  0  0  0  0  0
   -2.9376    6.1047    1.9491 C   0  0  0  1  0  0  0  0  0  0  0  0
   -2.2702    4.9114    2.1507 C   0  0  0  1  0  0  0  0  0  0  0  0
   -2.1119    4.0201    1.1010 C   0  0  0  1  0  0  0  0  0  0  0  0
   -2.6167    4.3270   -0.1486 C   0  0  0  1  0  0  0  0  0  0  0  0
   -3.2861    5.5240   -0.3506 C   0  0  0  1  0  0  0  0  0  0  0  0
   -1.4720    2.6759    1.3562 C   0  0  0  1  0  0  0  0  0  0  0  0
   -3.0599    6.7717    2.7377 H   0  0  0  1  0  0  0  0  0  0  0  0
   -1.8869    4.6821    3.0899 H   0  0  0  1  0  0  0  0  0  0  0  0
   -2.4944    3.6601   -0.9371 H   0  0  0  1  0  0  0  0  0  0  0  0
   -3.6694    5.7533   -1.2897 H   0  0  0  1  0  0  0  0  0  0  0  0
   -1.0624    2.3136    0.4365 H   0  0  0  1  0  0  0  0  0  0  0  0
   -0.6864    2.8031    2.0715 H   0  0  0  1  0  0  0  0  0  0  0  0
  1  4  1  0  0  0  0
  2  4  1  0  0  0  0
  2  5  2  0  0  0  0
  2  6  1  0  0  0  0
  3  4  1  0  0  0  0
  3  7  1  0  0  0  0
  3  8  1  0  0  0  0
  4 26  1  0  0  0  0
  6  9  1  0  0  0  0
  6 12  1  0  0  0  0
  8 10  1  0  0  0  0
  8 11  2  0  0  0  0
  9 13  1  0  0  0  0
  9 14  1  0  0  0  0
  9 15  1  0  0  0  0
 10 16  1  0  0  0  0
 10 17  1  0  0  0  0
 10 18  1  0  0  0  0
 19 20  1  0  0  0  0
 20 21  4  0  0  0  0
 20 25  4  0  0  0  0
 21 22  4  0  0  0  0
 21 27  1  0  0  0  0
 22 23  4  0  0  0  0
 22 28  1  0  0  0  0
 23 24  4  0  0  0  0
 23 26  1  0  0  0  0
 24 25  4  0  0  0  0
 24 29  1  0  0  0  0
 25 30  1  0  0  0  0
 26 31  1  0  0  0  0
 26 32  1  0  0  0  0
M  END
> <BCLConfClusterSize>
1

> <ConfClashScore>
0 

> <ConfOneFourInteractionScore>
-0.94165 

> <ConfScore>
-0.143204 

> <ConfScorePBest>
0.00606803 

> <ConfTolerance>
0.342853 

> <RosettaParamsInstructions>
M  ROOT 3
M  POLY_N_BB 3
M  POLY_CA_BB 4
M  POLY_C_BB 2
M  POLY_O_BB 5
M  POLY_IGNORE 9 10 11 12 13 14 15 16 17 18 
M  POLY_UPPER 6
M  POLY_LOWER 8
M  POLY_CHG 0
M  POLY_PROPERTIES ALPHA_AA L_AA PROTEIN AROMATIC POLYMER 
M  END

$$$$



 32 32  0  0  0  0  0  0  0  0999 V2000
    0.5211    3.5727    1.2138 H   0  0  0  1  0  0  0  0  0  0  0  0
    0.7821    1.4705    1.3756 C   0  0  0  1  0  0  0  0  0  0  0  0
    0.0474    2.7117   -0.6063 N   0  0  0  1  0  0  0  0  0  0  0  0
    0.0264    2.6970    0.8488 C   0  0  0  1  0  0  0  0  0  0  0  0
    0.8598    0.4554    0.6853 O   0  0  0  1  0  0  0  0  0  0  0  0
    1.4025    1.6047    2.5527 N   0  0  0  1  0  0  0  0  0  0  0  0
   -0.8000    2.6332   -1.0923 H   0  0  0  1  0  0  0  0  0  0  0  0
    1.2176    2.8322   -1.3246 C   0  0  0  1  0  0  0  0  0  0  0  0
    2.2646    0.6356    3.2127 C   0  0  0  1  0  0  0  0  0  0  0  0
    1.0886    2.7076   -2.8148 C   0  0  0  1  0  0  0  0  0  0  0  0
    2.2669    3.0266   -0.7492 O   0  0  0  1  0  0  0  0  0  0  0  0
    1.2606    2.4519    3.0243 H   0  0  0  1  0  0  0  0  0  0  0  0
    2.5086    0.9848    4.1942 H   0  0  0  1  0  0  0  0  0  0  0  0
    3.1629    0.5126    2.6446 H   0  0  0  1  0  0  0  0  0  0  0  0
    1.7560   -0.3031    3.2845 H   0  0  0  1  0  0  0  0  0  0  0  0
    0.1467    3.1084   -3.1265 H   0  0  0  1  0  0  0  0  0  0  0  0
    1.1464    1.6759   -3.0926 H   0  0  0  1  0  0  0  0  0  0  0  0
    1.8806    3.2498   -3.2877 H   0  0  0  1  0  0  0  0  0  0  0  0
   -4.4293    8.0064    0.4488 Br  0  0  0  1  0  0  0  0  0  0  0  0
   -3.4402    6.4147    0.6945 C   0  0  0  1  0  0  0  0  0  0  0  0
   -2.9381    6.1009    1.9479 C   0  0  0  1  0  0  0  0  0  0  0  0
   -2.2824    4.9010    2.1493 C   0  0  0  1  0  0  0  0  0  0  0  0
   -2.1315    4.0091    1.0990 C   0  0  0  1  0  0  0  0  0  0  0  0
   -2.6320    4.3218   -0.1508 C   0  0  0  1  0  0  0  0  0  0  0  0
   -3.2897    5.5252   -0.3526 C   0  0  0  1  0  0  0  0  0  0  0  0
   -1.4121    2.7100    1.3751 C   0  0  0  1  0  0  0  0  0  0  0  0
   -3.0549    6.7683    2.7368 H   0  0  0  1  0  0  0  0  0  0  0  0
   -1.9022    4.6674    3.0887 H   0  0  0  1  0  0  0  0  0  0  0  0
   -2.5152    3.6543   -0.9397 H   0  0  0  1  0  0  0  0  0  0  0  0
   -3.6699    5.7589   -1.2920 H   0  0  0  1  0  0  0  0  0  0  0  0
   -1.3890    2.5517    2.4331 H   0  0  0  1  0  0  0  0  0  0  0  0
   -1.9533    1.9147    0.9067 H   0  0  0  1  0  0  0  0  0  0  0  0
  1  4  1  0  0  0  0
  2  4  1  0  0  0  0
  2  5  2  0  0  0  0
  2  6  1  0  0  0  0
  3  4  1  0  0  0  0
  3  7  1  0  0  0  0
  3  8  1  0  0  0  0
  4 26  1  0  0  0  0
  6  9  1  0  0  0  0
  6 12  1  0  0  0  0
  8 10  1  0  0  0  0
  8 11  2  0  0  0  0
  9 13  1  0  0  0  0
  9 14  1  0  0  0  0
  9 15  1  0  0  0  0
 10 16  1  0  0  0  0
 10 17  1  0  0  0  0
 10 18  1  0  0  0  0
 19 20  1  0  0  0  0
 20 21  4  0  0  0  0
 20 25  4  0  0  0  0
 21 22  4  0  0  0  0
 21 27  1  0  0  0  0
 22 23  4  0  0  0  0
 22 28  1  0  0  0  0
 23 24  4  0  0  0  0
 23 26  1  0  0  0  0
 24 25  4  0  0  0  0
 24 29  1  0  0  0  0
 25 30  1  0  0  0  0
 26 31  1  0  0  0  0
 26 32  1  0  0  0  0
M  END
> <BCLConfClusterSize>
1

> <ConfClashScore>
0 

> <ConfOneFourInteractionScore>
-0.981931 

> <ConfScore>
-0.139688 

> <ConfScorePBest>
0.00603955 

> <ConfTolerance>
0.215134 

> <RosettaParamsInstructions>
M  ROOT 3
M  POLY_N_BB 3
M  POLY_CA_BB 4
M  POLY_C_BB 2
M  POLY_O_BB 5
M  POLY_IGNORE 9 10 11 12 13 14 15 16 17 18 
M  POLY_UPPER 6
M  POLY_LOWER 8
M  POLY_CHG 0
M  POLY_PROPERTIES ALPHA_AA L_AA PROTEIN AROMATIC POLYMER 
M  END

$$$$



 32 32  0  0  0  0  0  0  0  0999 V2000
   -1.7117    2.5347    3.4376 H   0  0  0  1  0  0  0  0  0  0  0  0
   -0.1448    1.2032    2.8717 C   0  0  0  1  0  0  0  0  0  0  0  0
    0.0041    3.6500    3.0833 N   0  0  0  1  0  0  0  0  0  0  0  0
   -0.8835    2.5429    2.7602 C   0  0  0  1  0  0  0  0  0  0  0  0
   -0.7647    0.1623    3.0848 O   0  0  0  1  0  0  0  0  0  0  0  0
    1.1695    1.2677    2.6336 N   0  0  0  1  0  0  0  0  0  0  0  0
    0.2588    4.2540    2.3548 H   0  0  0  1  0  0  0  0  0  0  0  0
    0.5026    3.9076    4.3103 C   0  0  0  1  0  0  0  0  0  0  0  0
    1.9672    0.0509    2.6031 C   0  0  0  1  0  0  0  0  0  0  0  0
    1.1746    5.2473    4.5399 C   0  0  0  1  0  0  0  0  0  0  0  0
    0.4158    3.0814    5.2178 O   0  0  0  1  0  0  0  0  0  0  0  0
    1.5965    2.1362    2.4793 H   0  0  0  1  0  0  0  0  0  0  0  0
    1.3310   -0.7886    2.4148 H   0  0  0  1  0  0  0  0  0  0  0  0
    2.4573   -0.0777    3.5455 H   0  0  0  1  0  0  0  0  0  0  0  0
    2.6997    0.1242    1.8266 H   0  0  0  1  0  0  0  0  0  0  0  0
    2.1111    5.2704    4.0228 H   0  0  0  1  0  0  0  0  0  0  0  0
    1.3423    5.3871    5.5874 H   0  0  0  1  0  0  0  0  0  0  0  0
    0.5447    6.0298    4.1715 H   0  0  0  1  0  0  0  0  0  0  0  0
   -4.4301    8.0052    0.4437 Br  0  0  0  1  0  0  0  0  0  0  0  0
   -3.4402    6.4149    0.6951 C   0  0  0  1  0  0  0  0  0  0  0  0
   -2.9395    6.1049    1.9500 C   0  0  0  1  0  0  0  0  0  0  0  0
   -2.2831    4.9061    2.1555 C   0  0  0  1  0  0  0  0  0  0  0  0
   -2.1302    4.0114    1.1079 C   0  0  0  1  0  0  0  0  0  0  0  0
   -2.6293    4.3203   -0.1435 C   0  0  0  1  0  0  0  0  0  0  0  0
   -3.2876    5.5227   -0.3494 C   0  0  0  1  0  0  0  0  0  0  0  0
   -1.4180    2.6985    1.3331 C   0  0  0  1  0  0  0  0  0  0  0  0
   -3.0578    6.7744    2.7369 H   0  0  0  1  0  0  0  0  0  0  0  0
   -1.9040    4.6754    3.0960 H   0  0  0  1  0  0  0  0  0  0  0  0
   -2.5109    3.6507   -0.9304 H   0  0  0  1  0  0  0  0  0  0  0  0
   -3.6667    5.7534   -1.2900 H   0  0  0  1  0  0  0  0  0  0  0  0
   -2.1041    1.9010    1.1376 H   0  0  0  1  0  0  0  0  0  0  0  0
   -0.5948    2.6365    0.6524 H   0  0  0  1  0  0  0  0  0  0  0  0
  1  4  1  0  0  0  0
  2  4  1  0  0  0  0
  2  5  2  0  0  0  0
  2  6  1  0  0  0  0
  3  4  1  0  0  0  0
  3  7  1  0  0  0  0
  3  8  1  0  0  0  0
  4 26  1  0  0  0  0
  6  9  1  0  0  0  0
  6 12  1  0  0  0  0
  8 10  1  0  0  0  0
  8 11  2  0  0  0  0
  9 13  1  0  0  0  0
  9 14  1  0  0  0  0
  9 15  1  0  0  0  0
 10 16  1  0  0  0  0
 10 17  1  0  0  0  0
 10 18  1  0  0  0  0
 19 20  1  0  0  0  0
 20 21  4  0  0  0  0
 20 25  4  0  0  0  0
 21 22  4  0  0  0  0
 21 27  1  0  0  0  0
 22 23  4  0  0  0  0
 22 28  1  0  0  0  0
 23 24  4  0  0  0  0
 23 26  1  0  0  0  0
 24 25  4  0  0  0  0
 24 29  1  0  0  0  0
 25 30  1  0  0  0  0
 26 31  1  0  0  0  0
 26 32  1  0  0  0  0
M  END
> <BCLConfClusterSize>
1

> <ConfClashScore>
0 

> <ConfOneFourInteractionScore>
-0.934209 

> <ConfScore>
-0.139671 

> <ConfScorePBest>
0.00601107 

> <ConfTolerance>
0.247434 

> <RosettaParamsInstructions>
M  ROOT 3
M  POLY_N_BB 3
M  POLY_CA_BB 4
M  POLY_C_BB 2
M  POLY_O_BB 5
M  POLY_IGNORE 9 10 11 12 13 14 15 16 17 18 
M  POLY_UPPER 6
M  POLY_LOWER 8
M  POLY_CHG 0
M  POLY_PROPERTIES ALPHA_AA L_AA PROTEIN AROMATIC POLYMER 
M  END

$$$$



 32 32  0  0  0  0  0  0  0  0999 V2000
   -0.1169    3.6910    2.7435 H   0  0  0  1  0  0  0  0  0  0  0  0
    0.5527    1.6858    2.4325 C   0  0  0  1  0  0  0  0  0  0  0  0
    0.8853    3.5910    0.9178 N   0  0  0  1  0  0  0  0  0  0  0  0
    0.0014    3.0167    1.9212 C   0  0  0  1  0  0  0  0  0  0  0  0
    1.0962    0.9049    1.6695 O   0  0  0  1  0  0  0  0  0  0  0  0
    0.4633    1.5148    3.7558 N   0  0  0  1  0  0  0  0  0  0  0  0
    1.1317    3.0496    0.1390 H   0  0  0  1  0  0  0  0  0  0  0  0
    1.3773    4.8429    1.0225 C   0  0  0  1  0  0  0  0  0  0  0  0
    1.0699    0.3800    4.4357 C   0  0  0  1  0  0  0  0  0  0  0  0
    2.3034    5.3360   -0.0661 C   0  0  0  1  0  0  0  0  0  0  0  0
    1.0826    5.5640    1.9748 O   0  0  0  1  0  0  0  0  0  0  0  0
   -0.0277    2.1766    4.2861 H   0  0  0  1  0  0  0  0  0  0  0  0
    1.2547   -0.4023    3.7295 H   0  0  0  1  0  0  0  0  0  0  0  0
    0.4068    0.0243    5.1963 H   0  0  0  1  0  0  0  0  0  0  0  0
    1.9941    0.6838    4.8810 H   0  0  0  1  0  0  0  0  0  0  0  0
    2.8615    4.5126   -0.4604 H   0  0  0  1  0  0  0  0  0  0  0  0
    2.9771    6.0611    0.3404 H   0  0  0  1  0  0  0  0  0  0  0  0
    1.7271    5.7833   -0.8488 H   0  0  0  1  0  0  0  0  0  0  0  0
   -4.4115    8.0150    0.4374 Br  0  0  0  1  0  0  0  0  0  0  0  0
   -3.4362    6.4166    0.6942 C   0  0  0  1  0  0  0  0  0  0  0  0
   -2.9412    6.1046    1.9508 C   0  0  0  1  0  0  0  0  0  0  0  0
   -2.2959    4.9005    2.1601 C   0  0  0  1  0  0  0  0  0  0  0  0
   -2.1483    4.0024    1.1146 C   0  0  0  1  0  0  0  0  0  0  0  0
   -2.6417    4.3133   -0.1385 C   0  0  0  1  0  0  0  0  0  0  0  0
   -3.2890    5.5210   -0.3483 C   0  0  0  1  0  0  0  0  0  0  0  0
   -1.3660    2.7252    1.3104 C   0  0  0  1  0  0  0  0  0  0  0  0
   -3.0554    6.7766    2.7362 H   0  0  0  1  0  0  0  0  0  0  0  0
   -1.9210    4.6682    3.1020 H   0  0  0  1  0  0  0  0  0  0  0  0
   -2.5275    3.6412   -0.9239 H   0  0  0  1  0  0  0  0  0  0  0  0
   -3.6639    5.7533   -1.2901 H   0  0  0  1  0  0  0  0  0  0  0  0
   -1.9111    2.0767    1.9639 H   0  0  0  1  0  0  0  0  0  0  0  0
   -1.2322    2.2470    0.3626 H   0  0  0  1  0  0  0  0  0  0  0  0
  1  4  1  0  0  0  0
  2  4  1  0  0  0  0
  2  5  2  0  0  0  0
  2  6  1  0  0  0  0
  3  4  1  0  0  0  0
  3  7  1  0  0  0  0
  3  8  1  0  0  0  0
  4 26  1  0  0  0  0
  6  9  1  0  0  0  0
  6 12  1  0  0  0  0
  8 10  1  0  0  0  0
  8 11  2  0  0  0  0
  9 13  1  0  0  0  0
  9 14  1  0  0  0  0
  9 15  1  0  0  0  0
 10 16  1  0  0  0  0
 10 17  1  0  0  0  0
 10 18  1  0  0  0  0
 19 20  1  0  0  0  0
 20 21  4  0  0  0  0
 20 25  4  0  0  0  0
 21 22  4  0  0  0  0
 21 27  1  0  0  0  0
 22 23  4  0  0  0  0
 22 28  1  0  0  0  0
 23 24  4  0  0  0  0
 23 26  1  0  0  0  0
 24 25  4  0  0  0  0
 24 29  1  0  0  0  0
 25 30  1  0  0  0  0
 26 31  1  0  0  0  0
 26 32  1  0  0  0  0
M  END
> <BCLConfClusterSize>
1

> <ConfClashScore>
0 

> <ConfOneFourInteractionScore>
-0.982823 

> <ConfScore>
-0.133144 

> <ConfScorePBest>
0.00598259 

> <ConfTolerance>
0.296585 

> <RosettaParamsInstructions>
M  ROOT 3
M  POLY_N_BB 3
M  POLY_CA_BB 4
M  POLY_C_BB 2
M  POLY_O_BB 5
M  POLY_IGNORE 9 10 11 12 13 14 15 16 17 18 
M  POLY_UPPER 6
M  POLY_LOWER 8
M  POLY_CHG 0
M  POLY_PROPERTIES ALPHA_AA L_AA PROTEIN AROMATIC POLYMER 
M  END

$$$$



 32 32  0  0  0  0  0  0  0  0999 V2000
   -2.7052    1.6018    0.0553 H   0  0  0  1  0  0  0  0  0  0  0  0
   -1.2708    0.2585    0.8855 C   0  0  0  1  0  0  0  0  0  0  0  0
   -3.2259    1.2190    2.0297 N   0  0  0  1  0  0  0  0  0  0  0  0
   -2.2248    1.4542    1.0000 C   0  0  0  1  0  0  0  0  0  0  0  0
   -0.5161    0.1670   -0.0815 O   0  0  0  1  0  0  0  0  0  0  0  0
   -1.2523   -0.5981    1.9123 N   0  0  0  1  0  0  0  0  0  0  0  0
   -2.9978    1.4098    2.9635 H   0  0  0  1  0  0  0  0  0  0  0  0
   -4.4452    0.7519    1.7463 C   0  0  0  1  0  0  0  0  0  0  0  0
   -0.3657   -1.7516    1.9465 C   0  0  0  1  0  0  0  0  0  0  0  0
   -5.3765    0.5801    2.9305 C   0  0  0  1  0  0  0  0  0  0  0  0
   -4.8070    0.4735    0.6038 O   0  0  0  1  0  0  0  0  0  0  0  0
   -1.8568   -0.4437    2.6680 H   0  0  0  1  0  0  0  0  0  0  0  0
    0.5835   -1.4850    1.5306 H   0  0  0  1  0  0  0  0  0  0  0  0
   -0.7945   -2.5478    1.3745 H   0  0  0  1  0  0  0  0  0  0  0  0
   -0.2342   -2.0702    2.9594 H   0  0  0  1  0  0  0  0  0  0  0  0
   -4.8691    0.8657    3.8282 H   0  0  0  1  0  0  0  0  0  0  0  0
   -5.6774   -0.4442    3.0016 H   0  0  0  1  0  0  0  0  0  0  0  0
   -6.2400    1.1977    2.7973 H   0  0  0  1  0  0  0  0  0  0  0  0
   -4.4301    8.0052    0.4437 Br  0  0  0  1  0  0  0  0  0  0  0  0
   -3.4402    6.4149    0.6951 C   0  0  0  1  0  0  0  0  0  0  0  0
   -2.9395    6.1049    1.9500 C   0  0  0  1  0  0  0  0  0  0  0  0
   -2.2831    4.9061    2.1555 C   0  0  0  1  0  0  0  0  0  0  0  0
   -2.1302    4.0114    1.1079 C   0  0  0  1  0  0  0  0  0  0  0  0
   -2.6293    4.3203   -0.1435 C   0  0  0  1  0  0  0  0  0  0  0  0
   -3.2876    5.5227   -0.3494 C   0  0  0  1  0  0  0  0  0  0  0  0
   -1.4180    2.6985    1.3331 C   0  0  0  1  0  0  0  0  0  0  0  0
   -3.0578    6.7744    2.7369 H   0  0  0  1  0  0  0  0  0  0  0  0
   -1.9040    4.6754    3.0960 H   0  0  0  1  0  0  0  0  0  0  0  0
   -2.5109    3.6507   -0.9304 H   0  0  0  1  0  0  0  0  0  0  0  0
   -3.6667    5.7534   -1.2900 H   0  0  0  1  0  0  0  0  0  0  0  0
   -0.5367    2.6927    0.7264 H   0  0  0  1  0  0  0  0  0  0  0  0
   -1.1414    2.6460    2.3654 H   0  0  0  1  0  0  0  0  0  0  0  0
  1  4  1  0  0  0  0
  2  4  1  0  0  0  0
  2  5  2  0  0  0  0
  2  6  1  0  0  0  0
  3  4  1  0  0  0  0
  3  7  1  0  0  0  0
  3  8  1  0  0  0  0
  4 26  1  0  0  0  0
  6  9  1  0  0  0  0
  6 12  1  0  0  0  0
  8 10  1  0  0  0  0
  8 11  2  0  0  0  0
  9 13  1  0  0  0  0
  9 14  1  0  0  0  0
  9 15  1  0  0  0  0
 10 16  1  0  0  0  0
 10 17  1  0  0  0  0
 10 18  1  0  0  0  0
 19 20  1  0  0  0  0
 20 21  4  0  0  0  0
 20 25  4  0  0  0  0
 21 22  4  0  0  0  0
 21 27  1  0  0  0  0
 22 23  4  0  0  0  0
 22 28  1  0  0  0  0
 23 24  4  0  0  0  0
 23 26  1  0  0  0  0
 24 25  4  0  0  0  0
 24 29  1  0  0  0  0
 25 30  1  0  0  0  0
 26 31  1  0  0  0  0
 26 32  1  0  0  0  0
M  END
> <BCLConfClusterSize>
1

> <ConfClashScore>
0 

> <ConfOneFourInteractionScore>
-0.960318 

> <ConfScore>
-0.130359 

> <ConfScorePBest>
0.00595411 

> <ConfTolerance>
0.315811 

> <RosettaParamsInstructions>
M  ROOT 3
M  POLY_N_BB 3
M  POLY_CA_BB 4
M  POLY_C_BB 2
M  POLY_O_BB 5
M  POLY_IGNORE 9 10 11 12 13 14 15 16 17 18 
M  POLY_UPPER 6
M  POLY_LOWER 8
M  POLY_CHG 0
M  POLY_PROPERTIES ALPHA_AA L_AA PROTEIN AROMATIC POLYMER 
M  END

$$$$



 32 32  0  0  0  0  0  0  0  0999 V2000
   -1.7346    2.5126    3.3876 H   0  0  0  1  0  0  0  0  0  0  0  0
   -3.4155    1.7581    2.3477 C   0  0  0  1  0  0  0  0  0  0  0  0
   -1.1882    0.6745    2.6197 N   0  0  0  1  0  0  0  0  0  0  0  0
   -1.9084    1.9338    2.5046 C   0  0  0  1  0  0  0  0  0  0  0  0
   -4.2028    2.5756    2.8219 O   0  0  0  1  0  0  0  0  0  0  0  0
   -3.8176    0.7260    1.5985 N   0  0  0  1  0  0  0  0  0  0  0  0
   -0.4278    0.4903    2.0295 H   0  0  0  1  0  0  0  0  0  0  0  0
   -1.5614   -0.2312    3.5283 C   0  0  0  1  0  0  0  0  0  0  0  0
   -5.1909    0.4838    1.1820 C   0  0  0  1  0  0  0  0  0  0  0  0
   -0.6956   -1.4829    3.6314 C   0  0  0  1  0  0  0  0  0  0  0  0
   -2.4981   -0.0429    4.3000 O   0  0  0  1  0  0  0  0  0  0  0  0
   -3.1363    0.0843    1.3080 H   0  0  0  1  0  0  0  0  0  0  0  0
   -5.6977   -0.0832    1.9346 H   0  0  0  1  0  0  0  0  0  0  0  0
   -5.1932   -0.0626    0.2620 H   0  0  0  1  0  0  0  0  0  0  0  0
   -5.6914    1.4193    1.0430 H   0  0  0  1  0  0  0  0  0  0  0  0
    0.2926   -1.2094    3.9373 H   0  0  0  1  0  0  0  0  0  0  0  0
   -0.6526   -1.9660    2.6776 H   0  0  0  1  0  0  0  0  0  0  0  0
   -1.1195   -2.1512    4.3515 H   0  0  0  1  0  0  0  0  0  0  0  0
   -4.4115    8.0150    0.4374 Br  0  0  0  1  0  0  0  0  0  0  0  0
   -3.4362    6.4166    0.6942 C   0  0  0  1  0  0  0  0  0  0  0  0
   -2.9412    6.1046    1.9508 C   0  0  0  1  0  0  0  0  0  0  0  0
   -2.2959    4.9005    2.1601 C   0  0  0  1  0  0  0  0  0  0  0  0
   -2.1483    4.0024    1.1146 C   0  0  0  1  0  0  0  0  0  0  0  0
   -2.6417    4.3133   -0.1385 C   0  0  0  1  0  0  0  0  0  0  0  0
   -3.2890    5.5210   -0.3483 C   0  0  0  1  0  0  0  0  0  0  0  0
   -1.3660    2.7252    1.3104 C   0  0  0  1  0  0  0  0  0  0  0  0
   -3.0554    6.7766    2.7362 H   0  0  0  1  0  0  0  0  0  0  0  0
   -1.9210    4.6682    3.1020 H   0  0  0  1  0  0  0  0  0  0  0  0
   -2.5275    3.6412   -0.9239 H   0  0  0  1  0  0  0  0  0  0  0  0
   -3.6639    5.7533   -1.2901 H   0  0  0  1  0  0  0  0  0  0  0  0
   -1.4455    2.1263    0.4273 H   0  0  0  1  0  0  0  0  0  0  0  0
   -0.3387    2.9667    1.4869 H   0  0  0  1  0  0  0  0  0  0  0  0
  1  4  1  0  0  0  0
  2  4  1  0  0  0  0
  2  5  2  0  0  0  0
  2  6  1  0  0  0  0
  3  4  1  0  0  0  0
  3  7  1  0  0  0  0
  3  8  1  0  0  0  0
  4 26  1  0  0  0  0
  6  9  1  0  0  0  0
  6 12  1  0  0  0  0
  8 10  1  0  0  0  0
  8 11  2  0  0  0  0
  9 13  1  0  0  0  0
  9 14  1  0  0  0  0
  9 15  1  0  0  0  0
 10 16  1  0  0  0  0
 10 17  1  0  0  0  0
 10 18  1  0  0  0  0
 19 20  1  0  0  0  0
 20 21  4  0  0  0  0
 20 25  4  0  0  0  0
 21 22  4  0  0  0  0
 21 27  1  0  0  0  0
 22 23  4  0  0  0  0
 22 28  1  0  0  0  0
 23 24  4  0  0  0  0
 23 26  1  0  0  0  0
 24 25  4  0  0  0  0
 24 29  1  0  0  0  0
 25 30  1  0  0  0  0
 26 31  1  0  0  0  0
 26 32  1  0  0  0  0
M  END
> <BCLConfClusterSize>
1

> <ConfClashScore>
0 

> <ConfOneFourInteractionScore>
-0.960318 

> <ConfScore>
-0.129756 

> <ConfScorePBest>
0.00592562 

> <ConfTolerance>
0.390924 

> <RosettaParamsInstructions>
M  ROOT 3
M  POLY_N_BB 3
M  POLY_CA_BB 4
M  POLY_C_BB 2
M  POLY_O_BB 5
M  POLY_IGNORE 9 10 11 12 13 14 15 16 17 18 
M  POLY_UPPER 6
M  POLY_LOWER 8
M  POLY_CHG 0
M  POLY_PROPERTIES ALPHA_AA L_AA PROTEIN AROMATIC POLYMER 
M  END

$$$$



 32 32  0  0  0  0  0  0  0  0999 V2000
    0.0790    3.5722    2.5583 H   0  0  0  1  0  0  0  0  0  0  0  0
    0.7278    1.6175    2.0671 C   0  0  0  1  0  0  0  0  0  0  0  0
    0.7633    3.5763    0.6068 N   0  0  0  1  0  0  0  0  0  0  0  0
    0.0505    2.9332    1.7005 C   0  0  0  1  0  0  0  0  0  0  0  0
    1.4067    1.0026    1.2461 O   0  0  0  1  0  0  0  0  0  0  0  0
    0.6135    1.2253    3.3438 N   0  0  0  1  0  0  0  0  0  0  0  0
    0.2890    3.7410   -0.2348 H   0  0  0  1  0  0  0  0  0  0  0  0
    2.0824    3.9617    0.7134 C   0  0  0  1  0  0  0  0  0  0  0  0
    1.1988   -0.0350    3.7763 C   0  0  0  1  0  0  0  0  0  0  0  0
    2.7299    4.4423   -0.5525 C   0  0  0  1  0  0  0  0  0  0  0  0
    2.6509    3.9005    1.7872 O   0  0  0  1  0  0  0  0  0  0  0  0
    0.1347    1.7884    3.9873 H   0  0  0  1  0  0  0  0  0  0  0  0
    2.0832   -0.2319    3.2073 H   0  0  0  1  0  0  0  0  0  0  0  0
    0.4941   -0.8258    3.6249 H   0  0  0  1  0  0  0  0  0  0  0  0
    1.4493    0.0262    4.8148 H   0  0  0  1  0  0  0  0  0  0  0  0
    3.7234    4.0501   -0.6167 H   0  0  0  1  0  0  0  0  0  0  0  0
    2.7684    5.5116   -0.5494 H   0  0  0  1  0  0  0  0  0  0  0  0
    2.1596    4.1078   -1.3938 H   0  0  0  1  0  0  0  0  0  0  0  0
   -4.4301    8.0052    0.4437 Br  0  0  0  1  0  0  0  0  0  0  0  0
   -3.4402    6.4149    0.6951 C   0  0  0  1  0  0  0  0  0  0  0  0
   -2.9395    6.1049    1.9500 C   0  0  0  1  0  0  0  0  0  0  0  0
   -2.2831    4.9061    2.1555 C   0  0  0  1  0  0  0  0  0  0  0  0
   -2.1302    4.0114    1.1079 C   0  0  0  1  0  0  0  0  0  0  0  0
   -2.6293    4.3203   -0.1435 C   0  0  0  1  0  0  0  0  0  0  0  0
   -3.2876    5.5227   -0.3494 C   0  0  0  1  0  0  0  0  0  0  0  0
   -1.4180    2.6985    1.3331 C   0  0  0  1  0  0  0  0  0  0  0  0
   -3.0578    6.7744    2.7369 H   0  0  0  1  0  0  0  0  0  0  0  0
   -1.9040    4.6754    3.0960 H   0  0  0  1  0  0  0  0  0  0  0  0
   -2.5109    3.6507   -0.9304 H   0  0  0  1  0  0  0  0  0  0  0  0
   -3.6667    5.7534   -1.2900 H   0  0  0  1  0  0  0  0  0  0  0  0
   -1.8990    2.1707    2.1300 H   0  0  0  1  0  0  0  0  0  0  0  0
   -1.4667    2.1149    0.4376 H   0  0  0  1  0  0  0  0  0  0  0  0
  1  4  1  0  0  0  0
  2  4  1  0  0  0  0
  2  5  2  0  0  0  0
  2  6  1  0  0  0  0
  3  4  1  0  0  0  0
  3  7  1  0  0  0  0
  3  8  1  0  0  0  0
  4 26  1  0  0  0  0
  6  9  1  0  0  0  0
  6 12  1  0  0  0  0
  8 10  1  0  0  0  0
  8 11  2  0  0  0  0
  9 13  1  0  0  0  0
  9 14  1  0  0  0  0
  9 15  1  0  0  0  0
 10 16  1  0  0  0  0
 10 17  1  0  0  0  0
 10 18  1  0  0  0  0
 19 20  1  0  0  0  0
 20 21  4  0  0  0  0
 20 25  4  0  0  0  0
 21 22  4  0  0  0  0
 21 27  1  0  0  0  0
 22 23  4  0  0  0  0
 22 28  1  0  0  0  0
 23 24  4  0  0  0  0
 23 26  1  0  0  0  0
 24 25  4  0  0  0  0
 24 29  1  0  0  0  0
 25 30  1  0  0  0  0
 26 31  1  0  0  0  0
 26 32  1  0  0  0  0
M  END
> <BCLConfClusterSize>
1

> <ConfClashScore>
0 

> <ConfOneFourInteractionScore>
-0.985807 

> <ConfScore>
-0.121611 

> <ConfScorePBest>
0.00589714 

> <ConfTolerance>
0.240238 

> <RosettaParamsInstructions>
M  ROOT 3
M  POLY_N_BB 3
M  POLY_CA_BB 4
M  POLY_C_BB 2
M  POLY_O_BB 5
M  POLY_IGNORE 9 10 11 12 13 14 15 16 17 18 
M  POLY_UPPER 6
M  POLY_LOWER 8
M  POLY_CHG 0
M  POLY_PROPERTIES ALPHA_AA L_AA PROTEIN AROMATIC POLYMER 
M  END

$$$$



 32 32  0  0  0  0  0  0  0  0999 V2000
   -2.0945    2.5723    3.3111 H   0  0  0  1  0  0  0  0  0  0  0  0
   -0.8209    0.9264    3.0640 C   0  0  0  1  0  0  0  0  0  0  0  0
   -0.1932    3.3006    3.4207 N   0  0  0  1  0  0  0  0  0  0  0  0
   -1.1627    2.4007    2.8139 C   0  0  0  1  0  0  0  0  0  0  0  0
   -1.7226    0.0942    3.1499 O   0  0  0  1  0  0  0  0  0  0  0  0
    0.4770    0.6051    3.0922 N   0  0  0  1  0  0  0  0  0  0  0  0
    0.2868    3.9492    2.8645 H   0  0  0  1  0  0  0  0  0  0  0  0
    0.0438    3.2443    4.7343 C   0  0  0  1  0  0  0  0  0  0  0  0
    0.8851   -0.7627    3.3757 C   0  0  0  1  0  0  0  0  0  0  0  0
    1.0671    4.2310    5.2619 C   0  0  0  1  0  0  0  0  0  0  0  0
   -0.5222    2.4495    5.4837 O   0  0  0  1  0  0  0  0  0  0  0  0
    1.1546    1.2922    2.9216 H   0  0  0  1  0  0  0  0  0  0  0  0
    0.4997   -1.0602    4.3285 H   0  0  0  1  0  0  0  0  0  0  0  0
    1.9535   -0.8202    3.3897 H   0  0  0  1  0  0  0  0  0  0  0  0
    0.5023   -1.4133    2.6175 H   0  0  0  1  0  0  0  0  0  0  0  0
    2.0100    4.0559    4.7872 H   0  0  0  1  0  0  0  0  0  0  0  0
    1.1716    4.1050    6.3193 H   0  0  0  1  0  0  0  0  0  0  0  0
    0.7420    5.2284    5.0514 H   0  0  0  1  0  0  0  0  0  0  0  0
   -4.4301    8.0052    0.4437 Br  0  0  0  1  0  0  0  0  0  0  0  0
   -3.4402    6.4149    0.6951 C   0  0  0  1  0  0  0  0  0  0  0  0
   -2.9395    6.1049    1.9500 C   0  0  0  1  0  0  0  0  0  0  0  0
   -2.2831    4.9061    2.1555 C   0  0  0  1  0  0  0  0  0  0  0  0
   -2.1302    4.0114    1.1079 C   0  0  0  1  0  0  0  0  0  0  0  0
   -2.6293    4.3203   -0.1435 C   0  0  0  1  0  0  0  0  0  0  0  0
   -3.2876    5.5227   -0.3494 C   0  0  0  1  0  0  0  0  0  0  0  0
   -1.4180    2.6985    1.3331 C   0  0  0  1  0  0  0  0  0  0  0  0
   -3.0578    6.7744    2.7369 H   0  0  0  1  0  0  0  0  0  0  0  0
   -1.9040    4.6754    3.0960 H   0  0  0  1  0  0  0  0  0  0  0  0
   -2.5109    3.6507   -0.9304 H   0  0  0  1  0  0  0  0  0  0  0  0
   -3.6667    5.7534   -1.2900 H   0  0  0  1  0  0  0  0  0  0  0  0
   -2.0178    1.9115    0.9259 H   0  0  0  1  0  0  0  0  0  0  0  0
   -0.4770    2.7300    0.8249 H   0  0  0  1  0  0  0  0  0  0  0  0
  1  4  1  0  0  0  0
  2  4  1  0  0  0  0
  2  5  2  0  0  0  0
  2  6  1  0  0  0  0
  3  4  1  0  0  0  0
  3  7  1  0  0  0  0
  3  8  1  0  0  0  0
  4 26  1  0  0  0  0
  6  9  1  0  0  0  0
  6 12  1  0  0  0  0
  8 10  1  0  0  0  0
  8 11  2  0  0  0  0
  9 13  1  0  0  0  0
  9 14  1  0  0  0  0
  9 15  1  0  0  0  0
 10 16  1  0  0  0  0
 10 17  1  0  0  0  0
 10 18  1  0  0  0  0
 19 20  1  0  0  0  0
 20 21  4  0  0  0  0
 20 25  4  0  0  0  0
 21 22  4  0  0  0  0
 21 27  1  0  0  0  0
 22 23  4  0  0  0  0
 22 28  1  0  0  0  0
 23 24  4  0  0  0  0
 23 26  1  0  0  0  0
 24 25  4  0  0  0  0
 24 29  1  0  0  0  0
 25 30  1  0  0  0  0
 26 31  1  0  0  0  0
 26 32  1  0  0  0  0
M  END
> <BCLConfClusterSize>
1

> <ConfClashScore>
0 

> <ConfOneFourInteractionScore>
-0.949001 

> <ConfScore>
-0.119936 

> <ConfScorePBest>
0.00586866 

> <ConfTolerance>
0.326713 

> <RosettaParamsInstructions>
M  ROOT 3
M  POLY_N_BB 3
M  POLY_CA_BB 4
M  POLY_C_BB 2
M  POLY_O_BB 5
M  POLY_IGNORE 9 10 11 12 13 14 15 16 17 18 
M  POLY_UPPER 6
M  POLY_LOWER 8
M  POLY_CHG 0
M  POLY_PROPERTIES ALPHA_AA L_AA PROTEIN AROMATIC POLYMER 
M  END

$$$$



 32 32  0  0  0  0  0  0  0  0999 V2000
   -0.2252    3.1903    2.9889 H   0  0  0  1  0  0  0  0  0  0  0  0
    0.6985    1.5303    2.0776 C   0  0  0  1  0  0  0  0  0  0  0  0
    0.7584    3.8803    1.3273 N   0  0  0  1  0  0  0  0  0  0  0  0
   -0.0514    2.8652    1.9844 C   0  0  0  1  0  0  0  0  0  0  0  0
    1.4063    1.1584    1.1429 O   0  0  0  1  0  0  0  0  0  0  0  0
    0.6055    0.8664    3.2348 N   0  0  0  1  0  0  0  0  0  0  0  0
    1.0633    3.7210    0.4097 H   0  0  0  1  0  0  0  0  0  0  0  0
    1.1005    5.0217    1.9316 C   0  0  0  1  0  0  0  0  0  0  0  0
    1.3629   -0.3483    3.4971 C   0  0  0  1  0  0  0  0  0  0  0  0
    1.8185    6.0703    1.0726 C   0  0  0  1  0  0  0  0  0  0  0  0
    0.7993    5.2841    3.0930 O   0  0  0  1  0  0  0  0  0  0  0  0
    0.0066    1.2097    3.9303 H   0  0  0  1  0  0  0  0  0  0  0  0
    1.0328   -1.1243    2.8385 H   0  0  0  1  0  0  0  0  0  0  0  0
    1.2089   -0.6523    4.5114 H   0  0  0  1  0  0  0  0  0  0  0  0
    2.4038   -0.1615    3.3343 H   0  0  0  1  0  0  0  0  0  0  0  0
    2.0475    6.9268    1.6717 H   0  0  0  1  0  0  0  0  0  0  0  0
    1.1840    6.3619    0.2618 H   0  0  0  1  0  0  0  0  0  0  0  0
    2.7247    5.6538    0.6851 H   0  0  0  1  0  0  0  0  0  0  0  0
   -4.4301    8.0052    0.4437 Br  0  0  0  1  0  0  0  0  0  0  0  0
   -3.4402    6.4149    0.6951 C   0  0  0  1  0  0  0  0  0  0  0  0
   -2.9395    6.1049    1.9500 C   0  0  0  1  0  0  0  0  0  0  0  0
   -2.2831    4.9061    2.1555 C   0  0  0  1  0  0  0  0  0  0  0  0
   -2.1302    4.0114    1.1079 C   0  0  0  1  0  0  0  0  0  0  0  0
   -2.6293    4.3203   -0.1435 C   0  0  0  1  0  0  0  0  0  0  0  0
   -3.2876    5.5227   -0.3494 C   0  0  0  1  0  0  0  0  0  0  0  0
   -1.4180    2.6985    1.3331 C   0  0  0  1  0  0  0  0  0  0  0  0
   -3.0578    6.7744    2.7369 H   0  0  0  1  0  0  0  0  0  0  0  0
   -1.9040    4.6754    3.0960 H   0  0  0  1  0  0  0  0  0  0  0  0
   -2.5109    3.6507   -0.9304 H   0  0  0  1  0  0  0  0  0  0  0  0
   -3.6667    5.7534   -1.2900 H   0  0  0  1  0  0  0  0  0  0  0  0
   -2.0250    2.0862    1.9669 H   0  0  0  1  0  0  0  0  0  0  0  0
   -1.2880    2.2150    0.3875 H   0  0  0  1  0  0  0  0  0  0  0  0
  1  4  1  0  0  0  0
  2  4  1  0  0  0  0
  2  5  2  0  0  0  0
  2  6  1  0  0  0  0
  3  4  1  0  0  0  0
  3  7  1  0  0  0  0
  3  8  1  0  0  0  0
  4 26  1  0  0  0  0
  6  9  1  0  0  0  0
  6 12  1  0  0  0  0
  8 10  1  0  0  0  0
  8 11  2  0  0  0  0
  9 13  1  0  0  0  0
  9 14  1  0  0  0  0
  9 15  1  0  0  0  0
 10 16  1  0  0  0  0
 10 17  1  0  0  0  0
 10 18  1  0  0  0  0
 19 20  1  0  0  0  0
 20 21  4  0  0  0  0
 20 25  4  0  0  0  0
 21 22  4  0  0  0  0
 21 27  1  0  0  0  0
 22 23  4  0  0  0  0
 22 28  1  0  0  0  0
 23 24  4  0  0  0  0
 23 26  1  0  0  0  0
 24 25  4  0  0  0  0
 24 29  1  0  0  0  0
 25 30  1  0  0  0  0
 26 31  1  0  0  0  0
 26 32  1  0  0  0  0
M  END
> <BCLConfClusterSize>
1

> <ConfClashScore>
0 

> <ConfOneFourInteractionScore>
-0.990503 

> <ConfScore>
-0.118293 

> <ConfScorePBest>
0.00584018 

> <ConfTolerance>
0.335274 

> <RosettaParamsInstructions>
M  ROOT 3
M  POLY_N_BB 3
M  POLY_CA_BB 4
M  POLY_C_BB 2
M  POLY_O_BB 5
M  POLY_IGNORE 9 10 11 12 13 14 15 16 17 18 
M  POLY_UPPER 6
M  POLY_LOWER 8
M  POLY_CHG 0
M  POLY_PROPERTIES ALPHA_AA L_AA PROTEIN AROMATIC POLYMER 
M  END

$$$$



 32 32  0  0  0  0  0  0  0  0999 V2000
   -0.3504    3.2565    3.0500 H   0  0  0  1  0  0  0  0  0  0  0  0
    0.5707    1.5159    2.3553 C   0  0  0  1  0  0  0  0  0  0  0  0
    0.7722    3.8259    1.4419 N   0  0  0  1  0  0  0  0  0  0  0  0
   -0.0962    2.8552    2.0912 C   0  0  0  1  0  0  0  0  0  0  0  0
    0.3340    0.8955    3.3788 O   0  0  0  1  0  0  0  0  0  0  0  0
    1.3369    1.0659    1.3559 N   0  0  0  1  0  0  0  0  0  0  0  0
    0.8564    3.8066    0.4657 H   0  0  0  1  0  0  0  0  0  0  0  0
    1.4644    4.7501    2.1362 C   0  0  0  1  0  0  0  0  0  0  0  0
    2.0805   -0.1816    1.4477 C   0  0  0  1  0  0  0  0  0  0  0  0
    2.3512    5.6318    1.2663 C   0  0  0  1  0  0  0  0  0  0  0  0
    1.4091    4.8955    3.3566 O   0  0  0  1  0  0  0  0  0  0  0  0
    1.3997    1.5946    0.5332 H   0  0  0  1  0  0  0  0  0  0  0  0
    1.5271   -0.9633    0.9707 H   0  0  0  1  0  0  0  0  0  0  0  0
    2.2338   -0.4304    2.4770 H   0  0  0  1  0  0  0  0  0  0  0  0
    3.0276   -0.0685    0.9628 H   0  0  0  1  0  0  0  0  0  0  0  0
    2.7085    5.0659    0.4315 H   0  0  0  1  0  0  0  0  0  0  0  0
    3.1825    5.9802    1.8429 H   0  0  0  1  0  0  0  0  0  0  0  0
    1.7854    6.4687    0.9137 H   0  0  0  1  0  0  0  0  0  0  0  0
   -4.4301    8.0052    0.4437 Br  0  0  0  1  0  0  0  0  0  0  0  0
   -3.4402    6.4149    0.6951 C   0  0  0  1  0  0  0  0  0  0  0  0
   -2.9395    6.1049    1.9500 C   0  0  0  1  0  0  0  0  0  0  0  0
   -2.2831    4.9061    2.1555 C   0  0  0  1  0  0  0  0  0  0  0  0
   -2.1302    4.0114    1.1079 C   0  0  0  1  0  0  0  0  0  0  0  0
   -2.6293    4.3203   -0.1435 C   0  0  0  1  0  0  0  0  0  0  0  0
   -3.2876    5.5227   -0.3494 C   0  0  0  1  0  0  0  0  0  0  0  0
   -1.4180    2.6985    1.3331 C   0  0  0  1  0  0  0  0  0  0  0  0
   -3.0578    6.7744    2.7369 H   0  0  0  1  0  0  0  0  0  0  0  0
   -1.9040    4.6754    3.0960 H   0  0  0  1  0  0  0  0  0  0  0  0
   -2.5109    3.6507   -0.9304 H   0  0  0  1  0  0  0  0  0  0  0  0
   -3.6667    5.7534   -1.2900 H   0  0  0  1  0  0  0  0  0  0  0  0
   -2.0602    2.0552    1.8976 H   0  0  0  1  0  0  0  0  0  0  0  0
   -1.2142    2.2540    0.3814 H   0  0  0  1  0  0  0  0  0  0  0  0
  1  4  1  0  0  0  0
  2  4  1  0  0  0  0
  2  5  2  0  0  0  0
  2  6  1  0  0  0  0
  3  4  1  0  0  0  0
  3  7  1  0  0  0  0
  3  8  1  0  0  0  0
  4 26  1  0  0  0  0
  6  9  1  0  0  0  0
  6 12  1  0  0  0  0
  8 10  1  0  0  0  0
  8 11  2  0  0  0  0
  9 13  1  0  0  0  0
  9 14  1  0  0  0  0
  9 15  1  0  0  0  0
 10 16  1  0  0  0  0
 10 17  1  0  0  0  0
 10 18  1  0  0  0  0
 19 20  1  0  0  0  0
 20 21  4  0  0  0  0
 20 25  4  0  0  0  0
 21 22  4  0  0  0  0
 21 27  1  0  0  0  0
 22 23  4  0  0  0  0
 22 28  1  0  0  0  0
 23 24  4  0  0  0  0
 23 26  1  0  0  0  0
 24 25  4  0  0  0  0
 24 29  1  0  0  0  0
 25 30  1  0  0  0  0
 26 31  1  0  0  0  0
 26 32  1  0  0  0  0
M  END
> <BCLConfClusterSize>
1

> <ConfClashScore>
0 

> <ConfOneFourInteractionScore>
-0.960318 

> <ConfScore>
-0.114301 

> <ConfScorePBest>
0.0058117 

> <ConfTolerance>
0.323458 

> <RosettaParamsInstructions>
M  ROOT 3
M  POLY_N_BB 3
M  POLY_CA_BB 4
M  POLY_C_BB 2
M  POLY_O_BB 5
M  POLY_IGNORE 9 10 11 12 13 14 15 16 17 18 
M  POLY_UPPER 6
M  POLY_LOWER 8
M  POLY_CHG 0
M  POLY_PROPERTIES ALPHA_AA L_AA PROTEIN AROMATIC POLYMER 
M  END

$$$$



 32 32  0  0  0  0  0  0  0  0999 V2000
   -2.1738    1.5786   -0.2357 H   0  0  0  1  0  0  0  0  0  0  0  0
   -1.4107    0.2031    1.1609 C   0  0  0  1  0  0  0  0  0  0  0  0
   -3.5255    1.4811    1.3125 N   0  0  0  1  0  0  0  0  0  0  0  0
   -2.1524    1.4875    0.8302 C   0  0  0  1  0  0  0  0  0  0  0  0
   -1.6127   -0.3622    2.2342 O   0  0  0  1  0  0  0  0  0  0  0  0
   -0.6208   -0.2995    0.2060 N   0  0  0  1  0  0  0  0  0  0  0  0
   -3.8208    2.2461    1.8491 H   0  0  0  1  0  0  0  0  0  0  0  0
   -4.4123    0.5123    1.0792 C   0  0  0  1  0  0  0  0  0  0  0  0
    0.1331   -1.5308    0.3890 C   0  0  0  1  0  0  0  0  0  0  0  0
   -5.7805    0.7075    1.7030 C   0  0  0  1  0  0  0  0  0  0  0  0
   -4.1547   -0.4831    0.4036 O   0  0  0  1  0  0  0  0  0  0  0  0
   -0.5470    0.1780   -0.6466 H   0  0  0  1  0  0  0  0  0  0  0  0
    0.3781   -1.6492    1.4238 H   0  0  0  1  0  0  0  0  0  0  0  0
    1.0333   -1.4866   -0.1876 H   0  0  0  1  0  0  0  0  0  0  0  0
   -0.4579   -2.3620    0.0653 H   0  0  0  1  0  0  0  0  0  0  0  0
   -5.8220    0.1939    2.6407 H   0  0  0  1  0  0  0  0  0  0  0  0
   -6.5301    0.3150    1.0481 H   0  0  0  1  0  0  0  0  0  0  0  0
   -5.9548    1.7514    1.8604 H   0  0  0  1  0  0  0  0  0  0  0  0
   -4.4293    8.0064    0.4488 Br  0  0  0  1  0  0  0  0  0  0  0  0
   -3.4402    6.4147    0.6945 C   0  0  0  1  0  0  0  0  0  0  0  0
   -2.9381    6.1009    1.9479 C   0  0  0  1  0  0  0  0  0  0  0  0
   -2.2824    4.9010    2.1493 C   0  0  0  1  0  0  0  0  0  0  0  0
   -2.1315    4.0091    1.0990 C   0  0  0  1  0  0  0  0  0  0  0  0
   -2.6320    4.3218   -0.1508 C   0  0  0  1  0  0  0  0  0  0  0  0
   -3.2897    5.5252   -0.3526 C   0  0  0  1  0  0  0  0  0  0  0  0
   -1.4121    2.7100    1.3751 C   0  0  0  1  0  0  0  0  0  0  0  0
   -3.0549    6.7683    2.7368 H   0  0  0  1  0  0  0  0  0  0  0  0
   -1.9022    4.6674    3.0887 H   0  0  0  1  0  0  0  0  0  0  0  0
   -2.5152    3.6543   -0.9397 H   0  0  0  1  0  0  0  0  0  0  0  0
   -3.6699    5.7589   -1.2920 H   0  0  0  1  0  0  0  0  0  0  0  0
   -0.4446    2.7530    0.9201 H   0  0  0  1  0  0  0  0  0  0  0  0
   -1.3042    2.5988    2.4339 H   0  0  0  1  0  0  0  0  0  0  0  0
  1  4  1  0  0  0  0
  2  4  1  0  0  0  0
  2  5  2  0  0  0  0
  2  6  1  0  0  0  0
  3  4  1  0  0  0  0
  3  7  1  0  0  0  0
  3  8  1  0  0  0  0
  4 26  1  0  0  0  0
  6  9  1  0  0  0  0
  6 12  1  0  0  0  0
  8 10  1  0  0  0  0
  8 11  2  0  0  0  0
  9 13  1  0  0  0  0
  9 14  1  0  0  0  0
  9 15  1  0  0  0  0
 10 16  1  0  0  0  0
 10 17  1  0  0  0  0
 10 18  1  0  0  0  0
 19 20  1  0  0  0  0
 20 21  4  0  0  0  0
 20 25  4  0  0  0  0
 21 22  4  0  0  0  0
 21 27  1  0  0  0  0
 22 23  4  0  0  0  0
 22 28  1  0  0  0  0
 23 24  4  0  0  0  0
 23 26  1  0  0  0  0
 24 25  4  0  0  0  0
 24 29  1  0  0  0  0
 25 30  1  0  0  0  0
 26 31  1  0  0  0  0
 26 32  1  0  0  0  0
M  END
> <BCLConfClusterSize>
1

> <ConfClashScore>
0 

> <ConfOneFourInteractionScore>
-0.985807 

> <ConfScore>
-0.11143 

> <ConfScorePBest>
0.00578322 

> <ConfTolerance>
0.271887 

> <RosettaParamsInstructions>
M  ROOT 3
M  POLY_N_BB 3
M  POLY_CA_BB 4
M  POLY_C_BB 2
M  POLY_O_BB 5
M  POLY_IGNORE 9 10 11 12 13 14 15 16 17 18 
M  POLY_UPPER 6
M  POLY_LOWER 8
M  POLY_CHG 0
M  POLY_PROPERTIES ALPHA_AA L_AA PROTEIN AROMATIC POLYMER 
M  END

$$$$



 32 32  0  0  0  0  0  0  0  0999 V2000
    0.2965    3.1191    0.1896 H   0  0  0  1  0  0  0  0  0  0  0  0
    0.4497    1.1033    0.8062 C   0  0  0  1  0  0  0  0  0  0  0  0
   -1.0271    2.0011   -0.9383 N   0  0  0  1  0  0  0  0  0  0  0  0
   -0.3680    2.2916    0.3262 C   0  0  0  1  0  0  0  0  0  0  0  0
    1.4694    1.2885    1.4688 O   0  0  0  1  0  0  0  0  0  0  0  0
   -0.0434   -0.1122    0.5457 N   0  0  0  1  0  0  0  0  0  0  0  0
   -2.0062    2.0191   -0.9765 H   0  0  0  1  0  0  0  0  0  0  0  0
   -0.3438    1.7108   -2.0491 C   0  0  0  1  0  0  0  0  0  0  0  0
    0.6534   -1.3318    0.9263 C   0  0  0  1  0  0  0  0  0  0  0  0
   -1.1805    1.3971   -3.2741 C   0  0  0  1  0  0  0  0  0  0  0  0
    0.8856    1.6942   -2.0943 O   0  0  0  1  0  0  0  0  0  0  0  0
   -0.9040   -0.1842    0.0824 H   0  0  0  1  0  0  0  0  0  0  0  0
    1.7091   -1.1838    0.8334 H   0  0  0  1  0  0  0  0  0  0  0  0
    0.3479   -2.1319    0.2849 H   0  0  0  1  0  0  0  0  0  0  0  0
    0.4157   -1.5764    1.9405 H   0  0  0  1  0  0  0  0  0  0  0  0
   -1.2557    2.2699   -3.8885 H   0  0  0  1  0  0  0  0  0  0  0  0
   -2.1592    1.0910   -2.9684 H   0  0  0  1  0  0  0  0  0  0  0  0
   -0.7171    0.6089   -3.8299 H   0  0  0  1  0  0  0  0  0  0  0  0
   -4.4301    8.0052    0.4437 Br  0  0  0  1  0  0  0  0  0  0  0  0
   -3.4402    6.4149    0.6951 C   0  0  0  1  0  0  0  0  0  0  0  0
   -2.9395    6.1049    1.9500 C   0  0  0  1  0  0  0  0  0  0  0  0
   -2.2831    4.9061    2.1555 C   0  0  0  1  0  0  0  0  0  0  0  0
   -2.1302    4.0114    1.1079 C   0  0  0  1  0  0  0  0  0  0  0  0
   -2.6293    4.3203   -0.1435 C   0  0  0  1  0  0  0  0  0  0  0  0
   -3.2876    5.5227   -0.3494 C   0  0  0  1  0  0  0  0  0  0  0  0
   -1.4180    2.6985    1.3331 C   0  0  0  1  0  0  0  0  0  0  0  0
   -3.0578    6.7744    2.7369 H   0  0  0  1  0  0  0  0  0  0  0  0
   -1.9040    4.6754    3.0960 H   0  0  0  1  0  0  0  0  0  0  0  0
   -2.5109    3.6507   -0.9304 H   0  0  0  1  0  0  0  0  0  0  0  0
   -3.6667    5.7534   -1.2900 H   0  0  0  1  0  0  0  0  0  0  0  0
   -0.9407    2.7531    2.2892 H   0  0  0  1  0  0  0  0  0  0  0  0
   -2.1618    1.9294    1.3486 H   0  0  0  1  0  0  0  0  0  0  0  0
  1  4  1  0  0  0  0
  2  4  1  0  0  0  0
  2  5  2  0  0  0  0
  2  6  1  0  0  0  0
  3  4  1  0  0  0  0
  3  7  1  0  0  0  0
  3  8  1  0  0  0  0
  4 26  1  0  0  0  0
  6  9  1  0  0  0  0
  6 12  1  0  0  0  0
  8 10  1  0  0  0  0
  8 11  2  0  0  0  0
  9 13  1  0  0  0  0
  9 14  1  0  0  0  0
  9 15  1  0  0  0  0
 10 16  1  0  0  0  0
 10 17  1  0  0  0  0
 10 18  1  0  0  0  0
 19 20  1  0  0  0  0
 20 21  4  0  0  0  0
 20 25  4  0  0  0  0
 21 22  4  0  0  0  0
 21 27  1  0  0  0  0
 22 23  4  0  0  0  0
 22 28  1  0  0  0  0
 23 24  4  0  0  0  0
 23 26  1  0  0  0  0
 24 25  4  0  0  0  0
 24 29  1  0  0  0  0
 25 30  1  0  0  0  0
 26 31  1  0  0  0  0
 26 32  1  0  0  0  0
M  END
> <BCLConfClusterSize>
1

> <ConfClashScore>
0 

> <ConfOneFourInteractionScore>
-0.956443 

> <ConfScore>
-0.111153 

> <ConfScorePBest>
0.00575474 

> <ConfTolerance>
0.31158 

> <RosettaParamsInstructions>
M  ROOT 3
M  POLY_N_BB 3
M  POLY_CA_BB 4
M  POLY_C_BB 2
M  POLY_O_BB 5
M  POLY_IGNORE 9 10 11 12 13 14 15 16 17 18 
M  POLY_UPPER 6
M  POLY_LOWER 8
M  POLY_CHG 0
M  POLY_PROPERTIES ALPHA_AA L_AA PROTEIN AROMATIC POLYMER 
M  END

$$$$



 32 32  0  0  0  0  0  0  0  0999 V2000
   -3.3386    1.7679    0.9290 H   0  0  0  1  0  0  0  0  0  0  0  0
   -2.0791    0.1673    1.4414 C   0  0  0  1  0  0  0  0  0  0  0  0
   -3.1204    1.7625    2.9706 N   0  0  0  1  0  0  0  0  0  0  0  0
   -2.5459    1.6125    1.6308 C   0  0  0  1  0  0  0  0  0  0  0  0
   -1.8355   -0.5318    2.4237 O   0  0  0  1  0  0  0  0  0  0  0  0
   -2.0411   -0.2941    0.1868 N   0  0  0  1  0  0  0  0  0  0  0  0
   -2.7311    2.4230    3.5809 H   0  0  0  1  0  0  0  0  0  0  0  0
   -4.1565    1.0300    3.3890 C   0  0  0  1  0  0  0  0  0  0  0  0
   -1.5638   -1.6129   -0.2018 C   0  0  0  1  0  0  0  0  0  0  0  0
   -4.5440    1.2062    4.8529 C   0  0  0  1  0  0  0  0  0  0  0  0
   -4.7707    0.2574    2.6545 O   0  0  0  1  0  0  0  0  0  0  0  0
   -2.3586    0.3005   -0.5245 H   0  0  0  1  0  0  0  0  0  0  0  0
   -1.6109   -1.7104   -1.2663 H   0  0  0  1  0  0  0  0  0  0  0  0
   -2.1778   -2.3623    0.2524 H   0  0  0  1  0  0  0  0  0  0  0  0
   -0.5516   -1.7355    0.1229 H   0  0  0  1  0  0  0  0  0  0  0  0
   -3.8358    1.8470    5.3353 H   0  0  0  1  0  0  0  0  0  0  0  0
   -4.5494    0.2522    5.3375 H   0  0  0  1  0  0  0  0  0  0  0  0
   -5.5189    1.6430    4.9135 H   0  0  0  1  0  0  0  0  0  0  0  0
   -4.4494    7.9934    0.4454 Br  0  0  0  1  0  0  0  0  0  0  0  0
   -3.4439    6.4129    0.6966 C   0  0  0  1  0  0  0  0  0  0  0  0
   -2.9388    6.1084    1.9511 C   0  0  0  1  0  0  0  0  0  0  0  0
   -2.2707    4.9161    2.1565 C   0  0  0  1  0  0  0  0  0  0  0  0
   -2.1103    4.0223    1.1093 C   0  0  0  1  0  0  0  0  0  0  0  0
   -2.6139    4.3256   -0.1416 C   0  0  0  1  0  0  0  0  0  0  0  0
   -3.2840    5.5215   -0.3475 C   0  0  0  1  0  0  0  0  0  0  0  0
   -1.4790    2.6659    1.3166 C   0  0  0  1  0  0  0  0  0  0  0  0
   -3.0627    6.7773    2.7378 H   0  0  0  1  0  0  0  0  0  0  0  0
   -1.8883    4.6896    3.0968 H   0  0  0  1  0  0  0  0  0  0  0  0
   -2.4900    3.6568   -0.9283 H   0  0  0  1  0  0  0  0  0  0  0  0
   -3.6664    5.7481   -1.2878 H   0  0  0  1  0  0  0  0  0  0  0  0
   -0.9572    2.3821    0.4267 H   0  0  0  1  0  0  0  0  0  0  0  0
   -0.7894    2.7210    2.1329 H   0  0  0  1  0  0  0  0  0  0  0  0
  1  4  1  0  0  0  0
  2  4  1  0  0  0  0
  2  5  2  0  0  0  0
  2  6  1  0  0  0  0
  3  4  1  0  0  0  0
  3  7  1  0  0  0  0
  3  8  1  0  0  0  0
  4 26  1  0  0  0  0
  6  9  1  0  0  0  0
  6 12  1  0  0  0  0
  8 10  1  0  0  0  0
  8 11  2  0  0  0  0
  9 13  1  0  0  0  0
  9 14  1  0  0  0  0
  9 15  1  0  0  0  0
 10 16  1  0  0  0  0
 10 17  1  0  0  0  0
 10 18  1  0  0  0  0
 19 20  1  0  0  0  0
 20 21  4  0  0  0  0
 20 25  4  0  0  0  0
 21 22  4  0  0  0  0
 21 27  1  0  0  0  0
 22 23  4  0  0  0  0
 22 28  1  0  0  0  0
 23 24  4  0  0  0  0
 23 26  1  0  0  0  0
 24 25  4  0  0  0  0
 24 29  1  0  0  0  0
 25 30  1  0  0  0  0
 26 31  1  0  0  0  0
 26 32  1  0  0  0  0
M  END
> <BCLConfClusterSize>
1

> <ConfClashScore>
0 

> <ConfOneFourInteractionScore>
-0.985807 

> <ConfScore>
-0.110545 

> <ConfScorePBest>
0.00572626 

> <ConfTolerance>
0.357052 

> <RosettaParamsInstructions>
M  ROOT 3
M  POLY_N_BB 3
M  POLY_CA_BB 4
M  POLY_C_BB 2
M  POLY_O_BB 5
M  POLY_IGNORE 9 10 11 12 13 14 15 16 17 18 
M  POLY_UPPER 6
M  POLY_LOWER 8
M  POLY_CHG 0
M  POLY_PROPERTIES ALPHA_AA L_AA PROTEIN AROMATIC POLYMER 
M  END

$$$$



 32 32  0  0  0  0  0  0  0  0999 V2000
   -1.8889    0.6554    1.6737 H   0  0  0  1  0  0  0  0  0  0  0  0
   -3.1532    1.8509    2.8731 C   0  0  0  1  0  0  0  0  0  0  0  0
   -3.3353    1.4394    0.4248 N   0  0  0  1  0  0  0  0  0  0  0  0
   -2.4349    1.5687    1.5608 C   0  0  0  1  0  0  0  0  0  0  0  0
   -4.1871    2.5167    2.9005 O   0  0  0  1  0  0  0  0  0  0  0  0
   -2.6483    1.2645    3.9638 N   0  0  0  1  0  0  0  0  0  0  0  0
   -4.1549    1.9764    0.4074 H   0  0  0  1  0  0  0  0  0  0  0  0
   -3.0814    0.6071   -0.6037 C   0  0  0  1  0  0  0  0  0  0  0  0
   -3.3096    1.4220    5.2505 C   0  0  0  1  0  0  0  0  0  0  0  0
   -4.1713    0.5906   -1.6578 C   0  0  0  1  0  0  0  0  0  0  0  0
   -2.0716   -0.0878   -0.7093 O   0  0  0  1  0  0  0  0  0  0  0  0
   -1.8312    0.7275    3.8964 H   0  0  0  1  0  0  0  0  0  0  0  0
   -3.9045    2.3113    5.2399 H   0  0  0  1  0  0  0  0  0  0  0  0
   -2.5730    1.4951    6.0232 H   0  0  0  1  0  0  0  0  0  0  0  0
   -3.9375    0.5753    5.4346 H   0  0  0  1  0  0  0  0  0  0  0  0
   -4.4302    1.5952   -1.9196 H   0  0  0  1  0  0  0  0  0  0  0  0
   -5.0339    0.0895   -1.2707 H   0  0  0  1  0  0  0  0  0  0  0  0
   -3.8189    0.0753   -2.5268 H   0  0  0  1  0  0  0  0  0  0  0  0
   -4.4309    8.0037    0.4382 Br  0  0  0  1  0  0  0  0  0  0  0  0
   -3.4400    6.4150    0.6957 C   0  0  0  1  0  0  0  0  0  0  0  0
   -2.9409    6.1090    1.9522 C   0  0  0  1  0  0  0  0  0  0  0  0
   -2.2839    4.9114    2.1622 C   0  0  0  1  0  0  0  0  0  0  0  0
   -2.1287    4.0137    1.1174 C   0  0  0  1  0  0  0  0  0  0  0  0
   -2.6263    4.3185   -0.1355 C   0  0  0  1  0  0  0  0  0  0  0  0
   -3.2853    5.5198   -0.3459 C   0  0  0  1  0  0  0  0  0  0  0  0
   -1.4253    2.6879    1.2878 C   0  0  0  1  0  0  0  0  0  0  0  0
   -3.0609    6.7808    2.7370 H   0  0  0  1  0  0  0  0  0  0  0  0
   -1.9059    4.6837    3.1039 H   0  0  0  1  0  0  0  0  0  0  0  0
   -2.5063    3.6467   -0.9203 H   0  0  0  1  0  0  0  0  0  0  0  0
   -3.6632    5.7475   -1.2877 H   0  0  0  1  0  0  0  0  0  0  0  0
   -0.8832    2.4610    0.3937 H   0  0  0  1  0  0  0  0  0  0  0  0
   -0.7448    2.7550    2.1108 H   0  0  0  1  0  0  0  0  0  0  0  0
  1  4  1  0  0  0  0
  2  4  1  0  0  0  0
  2  5  2  0  0  0  0
  2  6  1  0  0  0  0
  3  4  1  0  0  0  0
  3  7  1  0  0  0  0
  3  8  1  0  0  0  0
  4 26  1  0  0  0  0
  6  9  1  0  0  0  0
  6 12  1  0  0  0  0
  8 10  1  0  0  0  0
  8 11  2  0  0  0  0
  9 13  1  0  0  0  0
  9 14  1  0  0  0  0
  9 15  1  0  0  0  0
 10 16  1  0  0  0  0
 10 17  1  0  0  0  0
 10 18  1  0  0  0  0
 19 20  1  0  0  0  0
 20 21  4  0  0  0  0
 20 25  4  0  0  0  0
 21 22  4  0  0  0  0
 21 27  1  0  0  0  0
 22 23  4  0  0  0  0
 22 28  1  0  0  0  0
 23 24  4  0  0  0  0
 23 26  1  0  0  0  0
 24 25  4  0  0  0  0
 24 29  1  0  0  0  0
 25 30  1  0  0  0  0
 26 31  1  0  0  0  0
 26 32  1  0  0  0  0
M  END
> <BCLConfClusterSize>
1

> <ConfClashScore>
0 

> <ConfOneFourInteractionScore>
-0.980789 

> <ConfScore>
-0.103532 

> <ConfScorePBest>
0.00569778 

> <ConfTolerance>
0.208446 

> <RosettaParamsInstructions>
M  ROOT 3
M  POLY_N_BB 3
M  POLY_CA_BB 4
M  POLY_C_BB 2
M  POLY_O_BB 5
M  POLY_IGNORE 9 10 11 12 13 14 15 16 17 18 
M  POLY_UPPER 6
M  POLY_LOWER 8
M  POLY_CHG 0
M  POLY_PROPERTIES ALPHA_AA L_AA PROTEIN AROMATIC POLYMER 
M  END

$$$$



 32 32  0  0  0  0  0  0  0  0999 V2000
   -2.5435    1.6276   -0.0965 H   0  0  0  1  0  0  0  0  0  0  0  0
   -1.2941    0.2196    0.8736 C   0  0  0  1  0  0  0  0  0  0  0  0
   -3.3177    1.2775    1.7887 N   0  0  0  1  0  0  0  0  0  0  0  0
   -2.1824    1.4594    0.8965 C   0  0  0  1  0  0  0  0  0  0  0  0
   -1.4024   -0.6284    1.7580 O   0  0  0  1  0  0  0  0  0  0  0  0
   -0.4813    0.0782   -0.1830 N   0  0  0  1  0  0  0  0  0  0  0  0
   -3.2052    1.4001    2.7545 H   0  0  0  1  0  0  0  0  0  0  0  0
   -4.5130    0.9438    1.2939 C   0  0  0  1  0  0  0  0  0  0  0  0
    0.3874   -1.0778   -0.3464 C   0  0  0  1  0  0  0  0  0  0  0  0
   -5.6324    0.8122    2.3081 C   0  0  0  1  0  0  0  0  0  0  0  0
   -4.7118    0.7514    0.0951 O   0  0  0  1  0  0  0  0  0  0  0  0
   -0.4719    0.7777   -0.8694 H   0  0  0  1  0  0  0  0  0  0  0  0
   -0.0797   -1.9392    0.0833 H   0  0  0  1  0  0  0  0  0  0  0  0
    1.3199   -0.8953    0.1457 H   0  0  0  1  0  0  0  0  0  0  0  0
    0.5609   -1.2489   -1.3883 H   0  0  0  1  0  0  0  0  0  0  0  0
   -5.2473    0.9905    3.2904 H   0  0  0  1  0  0  0  0  0  0  0  0
   -6.0429   -0.1747    2.2600 H   0  0  0  1  0  0  0  0  0  0  0  0
   -6.3971    1.5281    2.0898 H   0  0  0  1  0  0  0  0  0  0  0  0
   -4.4301    8.0052    0.4437 Br  0  0  0  1  0  0  0  0  0  0  0  0
   -3.4402    6.4149    0.6951 C   0  0  0  1  0  0  0  0  0  0  0  0
   -2.9395    6.1049    1.9500 C   0  0  0  1  0  0  0  0  0  0  0  0
   -2.2831    4.9061    2.1555 C   0  0  0  1  0  0  0  0  0  0  0  0
   -2.1302    4.0114    1.1079 C   0  0  0  1  0  0  0  0  0  0  0  0
   -2.6293    4.3203   -0.1435 C   0  0  0  1  0  0  0  0  0  0  0  0
   -3.2876    5.5227   -0.3494 C   0  0  0  1  0  0  0  0  0  0  0  0
   -1.4180    2.6985    1.3331 C   0  0  0  1  0  0  0  0  0  0  0  0
   -3.0578    6.7744    2.7369 H   0  0  0  1  0  0  0  0  0  0  0  0
   -1.9040    4.6754    3.0960 H   0  0  0  1  0  0  0  0  0  0  0  0
   -2.5109    3.6507   -0.9304 H   0  0  0  1  0  0  0  0  0  0  0  0
   -3.6667    5.7534   -1.2900 H   0  0  0  1  0  0  0  0  0  0  0  0
   -0.4961    2.7258    0.7907 H   0  0  0  1  0  0  0  0  0  0  0  0
   -1.2142    2.6089    2.3797 H   0  0  0  1  0  0  0  0  0  0  0  0
  1  4  1  0  0  0  0
  2  4  1  0  0  0  0
  2  5  2  0  0  0  0
  2  6  1  0  0  0  0
  3  4  1  0  0  0  0
  3  7  1  0  0  0  0
  3  8  1  0  0  0  0
  4 26  1  0  0  0  0
  6  9  1  0  0  0  0
  6 12  1  0  0  0  0
  8 10  1  0  0  0  0
  8 11  2  0  0  0  0
  9 13  1  0  0  0  0
  9 14  1  0  0  0  0
  9 15  1  0  0  0  0
 10 16  1  0  0  0  0
 10 17  1  0  0  0  0
 10 18  1  0  0  0  0
 19 20  1  0  0  0  0
 20 21  4  0  0  0  0
 20 25  4  0  0  0  0
 21 22  4  0  0  0  0
 21 27  1  0  0  0  0
 22 23  4  0  0  0  0
 22 28  1  0  0  0  0
 23 24  4  0  0  0  0
 23 26  1  0  0  0  0
 24 25  4  0  0  0  0
 24 29  1  0  0  0  0
 25 30  1  0  0  0  0
 26 31  1  0  0  0  0
 26 32  1  0  0  0  0
M  END
> <BCLConfClusterSize>
1

> <ConfClashScore>
0 

> <ConfOneFourInteractionScore>
-0.985807 

> <ConfScore>
-0.0962327 

> <ConfScorePBest>
0.0056693 

> <ConfTolerance>
0.310055 

> <RosettaParamsInstructions>
M  ROOT 3
M  POLY_N_BB 3
M  POLY_CA_BB 4
M  POLY_C_BB 2
M  POLY_O_BB 5
M  POLY_IGNORE 9 10 11 12 13 14 15 16 17 18 
M  POLY_UPPER 6
M  POLY_LOWER 8
M  POLY_CHG 0
M  POLY_PROPERTIES ALPHA_AA L_AA PROTEIN AROMATIC POLYMER 
M  END

$$$$



 32 32  0  0  0  0  0  0  0  0999 V2000
   -1.7235    0.7707    1.9864 H   0  0  0  1  0  0  0  0  0  0  0  0
   -2.8907    2.0306    3.1996 C   0  0  0  1  0  0  0  0  0  0  0  0
   -3.3638    1.3239    0.8880 N   0  0  0  1  0  0  0  0  0  0  0  0
   -2.3105    1.6527    1.8369 C   0  0  0  1  0  0  0  0  0  0  0  0
   -2.3163    1.6797    4.2289 O   0  0  0  1  0  0  0  0  0  0  0  0
   -3.9743    2.8143    3.1969 N   0  0  0  1  0  0  0  0  0  0  0  0
   -3.4991    1.9059    0.1113 H   0  0  0  1  0  0  0  0  0  0  0  0
   -4.1527    0.2563    1.0391 C   0  0  0  1  0  0  0  0  0  0  0  0
   -4.5500    3.3492    4.4218 C   0  0  0  1  0  0  0  0  0  0  0  0
   -5.0992   -0.0313   -0.1102 C   0  0  0  1  0  0  0  0  0  0  0  0
   -4.1271   -0.4583    2.0376 O   0  0  0  1  0  0  0  0  0  0  0  0
   -4.3954    3.0362    2.3402 H   0  0  0  1  0  0  0  0  0  0  0  0
   -3.7823    3.4594    5.1588 H   0  0  0  1  0  0  0  0  0  0  0  0
   -5.2999    2.6782    4.7857 H   0  0  0  1  0  0  0  0  0  0  0  0
   -4.9912    4.3031    4.2213 H   0  0  0  1  0  0  0  0  0  0  0  0
   -4.5348   -0.2100   -1.0015 H   0  0  0  1  0  0  0  0  0  0  0  0
   -5.7444    0.8092   -0.2593 H   0  0  0  1  0  0  0  0  0  0  0  0
   -5.6862   -0.8959    0.1193 H   0  0  0  1  0  0  0  0  0  0  0  0
   -4.4115    8.0150    0.4374 Br  0  0  0  1  0  0  0  0  0  0  0  0
   -3.4362    6.4166    0.6942 C   0  0  0  1  0  0  0  0  0  0  0  0
   -2.9412    6.1046    1.9508 C   0  0  0  1  0  0  0  0  0  0  0  0
   -2.2959    4.9005    2.1601 C   0  0  0  1  0  0  0  0  0  0  0  0
   -2.1483    4.0024    1.1146 C   0  0  0  1  0  0  0  0  0  0  0  0
   -2.6417    4.3133   -0.1385 C   0  0  0  1  0  0  0  0  0  0  0  0
   -3.2890    5.5210   -0.3483 C   0  0  0  1  0  0  0  0  0  0  0  0
   -1.3660    2.7252    1.3104 C   0  0  0  1  0  0  0  0  0  0  0  0
   -3.0554    6.7766    2.7362 H   0  0  0  1  0  0  0  0  0  0  0  0
   -1.9210    4.6682    3.1020 H   0  0  0  1  0  0  0  0  0  0  0  0
   -2.5275    3.6412   -0.9239 H   0  0  0  1  0  0  0  0  0  0  0  0
   -3.6639    5.7533   -1.2901 H   0  0  0  1  0  0  0  0  0  0  0  0
   -0.9491    2.4113    0.3763 H   0  0  0  1  0  0  0  0  0  0  0  0
   -0.5784    2.8897    2.0158 H   0  0  0  1  0  0  0  0  0  0  0  0
  1  4  1  0  0  0  0
  2  4  1  0  0  0  0
  2  5  2  0  0  0  0
  2  6  1  0  0  0  0
  3  4  1  0  0  0  0
  3  7  1  0  0  0  0
  3  8  1  0  0  0  0
  4 26  1  0  0  0  0
  6  9  1  0  0  0  0
  6 12  1  0  0  0  0
  8 10  1  0  0  0  0
  8 11  2  0  0  0  0
  9 13  1  0  0  0  0
  9 14  1  0  0  0  0
  9 15  1  0  0  0  0
 10 16  1  0  0  0  0
 10 17  1  0  0  0  0
 10 18  1  0  0  0  0
 19 20  1  0  0  0  0
 20 21  4  0  0  0  0
 20 25  4  0  0  0  0
 21 22  4  0  0  0  0
 21 27  1  0  0  0  0
 22 23  4  0  0  0  0
 22 28  1  0  0  0  0
 23 24  4  0  0  0  0
 23 26  1  0  0  0  0
 24 25  4  0  0  0  0
 24 29  1  0  0  0  0
 25 30  1  0  0  0  0
 26 31  1  0  0  0  0
 26 32  1  0  0  0  0
M  END
> <BCLConfClusterSize>
1

> <ConfClashScore>
0 

> <ConfOneFourInteractionScore>
-0.950605 

> <ConfScore>
-0.0761165 

> <ConfScorePBest>
0.00564082 

> <ConfTolerance>
0.181071 

> <RosettaParamsInstructions>
M  ROOT 3
M  POLY_N_BB 3
M  POLY_CA_BB 4
M  POLY_C_BB 2
M  POLY_O_BB 5
M  POLY_IGNORE 9 10 11 12 13 14 15 16 17 18 
M  POLY_UPPER 6
M  POLY_LOWER 8
M  POLY_CHG 0
M  POLY_PROPERTIES ALPHA_AA L_AA PROTEIN AROMATIC POLYMER 
M  END

$$$$



 32 32  0  0  0  0  0  0  0  0999 V2000
   -1.6465    1.7206   -0.4311 H   0  0  0  1  0  0  0  0  0  0  0  0
   -1.1895    0.2452    1.0281 C   0  0  0  1  0  0  0  0  0  0  0  0
   -3.3255    1.3002    0.7019 N   0  0  0  1  0  0  0  0  0  0  0  0
   -1.8937    1.5369    0.5936 C   0  0  0  1  0  0  0  0  0  0  0  0
   -0.0278    0.0347    0.6831 O   0  0  0  1  0  0  0  0  0  0  0  0
   -1.8673   -0.5636    1.8495 N   0  0  0  1  0  0  0  0  0  0  0  0
   -3.8671    1.9147    1.2399 H   0  0  0  1  0  0  0  0  0  0  0  0
   -3.9273    0.2742    0.0933 C   0  0  0  1  0  0  0  0  0  0  0  0
   -1.3222   -1.7555    2.4820 C   0  0  0  1  0  0  0  0  0  0  0  0
   -5.4107    0.1232    0.3686 C   0  0  0  1  0  0  0  0  0  0  0  0
   -3.3323   -0.5083   -0.6465 O   0  0  0  1  0  0  0  0  0  0  0  0
   -2.8015   -0.3367    2.0398 H   0  0  0  1  0  0  0  0  0  0  0  0
   -1.2375   -2.5377    1.7568 H   0  0  0  1  0  0  0  0  0  0  0  0
   -1.9732   -2.0698    3.2708 H   0  0  0  1  0  0  0  0  0  0  0  0
   -0.3551   -1.5354    2.8833 H   0  0  0  1  0  0  0  0  0  0  0  0
   -5.6027    0.3107    1.4044 H   0  0  0  1  0  0  0  0  0  0  0  0
   -5.7193   -0.8715    0.1233 H   0  0  0  1  0  0  0  0  0  0  0  0
   -5.9570    0.8239   -0.2276 H   0  0  0  1  0  0  0  0  0  0  0  0
   -4.4284    8.0074    0.4539 Br  0  0  0  1  0  0  0  0  0  0  0  0
   -3.4402    6.4143    0.6940 C   0  0  0  1  0  0  0  0  0  0  0  0
   -2.9367    6.0968    1.9459 C   0  0  0  1  0  0  0  0  0  0  0  0
   -2.2816    4.8959    2.1431 C   0  0  0  1  0  0  0  0  0  0  0  0
   -2.1327    4.0067    1.0903 C   0  0  0  1  0  0  0  0  0  0  0  0
   -2.6346    4.3231   -0.1580 C   0  0  0  1  0  0  0  0  0  0  0  0
   -3.2917    5.5276   -0.3557 C   0  0  0  1  0  0  0  0  0  0  0  0
   -1.4070    2.7227    1.4163 C   0  0  0  1  0  0  0  0  0  0  0  0
   -3.0520    6.7622    2.7367 H   0  0  0  1  0  0  0  0  0  0  0  0
   -1.9003    4.6595    3.0814 H   0  0  0  1  0  0  0  0  0  0  0  0
   -2.5194    3.6576   -0.9489 H   0  0  0  1  0  0  0  0  0  0  0  0
   -3.6729    5.7640   -1.2940 H   0  0  0  1  0  0  0  0  0  0  0  0
   -0.3635    2.8636    1.2263 H   0  0  0  1  0  0  0  0  0  0  0  0
   -1.5547    2.5017    2.4527 H   0  0  0  1  0  0  0  0  0  0  0  0
  1  4  1  0  0  0  0
  2  4  1  0  0  0  0
  2  5  2  0  0  0  0
  2  6  1  0  0  0  0
  3  4  1  0  0  0  0
  3  7  1  0  0  0  0
  3  8  1  0  0  0  0
  4 26  1  0  0  0  0
  6  9  1  0  0  0  0
  6 12  1  0  0  0  0
  8 10  1  0  0  0  0
  8 11  2  0  0  0  0
  9 13  1  0  0  0  0
  9 14  1  0  0  0  0
  9 15  1  0  0  0  0
 10 16  1  0  0  0  0
 10 17  1  0  0  0  0
 10 18  1  0  0  0  0
 19 20  1  0  0  0  0
 20 21  4  0  0  0  0
 20 25  4  0  0  0  0
 21 22  4  0  0  0  0
 21 27  1  0  0  0  0
 22 23  4  0  0  0  0
 22 28  1  0  0  0  0
 23 24  4  0  0  0  0
 23 26  1  0  0  0  0
 24 25  4  0  0  0  0
 24 29  1  0  0  0  0
 25 30  1  0  0  0  0
 26 31  1  0  0  0  0
 26 32  1  0  0  0  0
M  END
> <BCLConfClusterSize>
1

> <ConfClashScore>
0 

> <ConfOneFourInteractionScore>
-0.934209 

> <ConfScore>
-0.073913 

> <ConfScorePBest>
0.00561234 

> <ConfTolerance>
0.423251 

> <RosettaParamsInstructions>
M  ROOT 3
M  POLY_N_BB 3
M  POLY_CA_BB 4
M  POLY_C_BB 2
M  POLY_O_BB 5
M  POLY_IGNORE 9 10 11 12 13 14 15 16 17 18 
M  POLY_UPPER 6
M  POLY_LOWER 8
M  POLY_CHG 0
M  POLY_PROPERTIES ALPHA_AA L_AA PROTEIN AROMATIC POLYMER 
M  END

$$$$



 32 32  0  0  0  0  0  0  0  0999 V2000
   -1.9284    2.5422    3.3797 H   0  0  0  1  0  0  0  0  0  0  0  0
   -0.4553    1.0673    2.9856 C   0  0  0  1  0  0  0  0  0  0  0  0
   -0.0549    3.4146    3.2936 N   0  0  0  1  0  0  0  0  0  0  0  0
   -1.0387    2.4678    2.7900 C   0  0  0  1  0  0  0  0  0  0  0  0
   -1.1943    0.1008    3.1660 O   0  0  0  1  0  0  0  0  0  0  0  0
    0.8735    0.9917    2.8551 N   0  0  0  1  0  0  0  0  0  0  0  0
    0.6503    3.7297    2.6904 H   0  0  0  1  0  0  0  0  0  0  0  0
   -0.0797    3.8693    4.5497 C   0  0  0  1  0  0  0  0  0  0  0  0
    1.5263   -0.3059    2.7659 C   0  0  0  1  0  0  0  0  0  0  0  0
    1.0058    4.8643    4.9117 C   0  0  0  1  0  0  0  0  0  0  0  0
   -0.9215    3.5148    5.3740 O   0  0  0  1  0  0  0  0  0  0  0  0
    1.4088    1.8118    2.8196 H   0  0  0  1  0  0  0  0  0  0  0  0
    0.8569   -1.0127    2.3219 H   0  0  0  1  0  0  0  0  0  0  0  0
    1.7957   -0.6376    3.7468 H   0  0  0  1  0  0  0  0  0  0  0  0
    2.4064   -0.2214    2.1632 H   0  0  0  1  0  0  0  0  0  0  0  0
    1.9657    4.4215    4.7464 H   0  0  0  1  0  0  0  0  0  0  0  0
    0.9111    5.1357    5.9423 H   0  0  0  1  0  0  0  0  0  0  0  0
    0.9064    5.7377    4.3017 H   0  0  0  1  0  0  0  0  0  0  0  0
   -4.4301    8.0052    0.4437 Br  0  0  0  1  0  0  0  0  0  0  0  0
   -3.4402    6.4149    0.6951 C   0  0  0  1  0  0  0  0  0  0  0  0
   -2.9395    6.1049    1.9500 C   0  0  0  1  0  0  0  0  0  0  0  0
   -2.2831    4.9061    2.1555 C   0  0  0  1  0  0  0  0  0  0  0  0
   -2.1302    4.0114    1.1079 C   0  0  0  1  0  0  0  0  0  0  0  0
   -2.6293    4.3203   -0.1435 C   0  0  0  1  0  0  0  0  0  0  0  0
   -3.2876    5.5227   -0.3494 C   0  0  0  1  0  0  0  0  0  0  0  0
   -1.4180    2.6985    1.3331 C   0  0  0  1  0  0  0  0  0  0  0  0
   -3.0578    6.7744    2.7369 H   0  0  0  1  0  0  0  0  0  0  0  0
   -1.9040    4.6754    3.0960 H   0  0  0  1  0  0  0  0  0  0  0  0
   -2.5109    3.6507   -0.9304 H   0  0  0  1  0  0  0  0  0  0  0  0
   -3.6667    5.7534   -1.2900 H   0  0  0  1  0  0  0  0  0  0  0  0
   -2.0617    1.9036    1.0188 H   0  0  0  1  0  0  0  0  0  0  0  0
   -0.5253    2.6897    0.7432 H   0  0  0  1  0  0  0  0  0  0  0  0
  1  4  1  0  0  0  0
  2  4  1  0  0  0  0
  2  5  2  0  0  0  0
  2  6  1  0  0  0  0
  3  4  1  0  0  0  0
  3  7  1  0  0  0  0
  3  8  1  0  0  0  0
  4 26  1  0  0  0  0
  6  9  1  0  0  0  0
  6 12  1  0  0  0  0
  8 10  1  0  0  0  0
  8 11  2  0  0  0  0
  9 13  1  0  0  0  0
  9 14  1  0  0  0  0
  9 15  1  0  0  0  0
 10 16  1  0  0  0  0
 10 17  1  0  0  0  0
 10 18  1  0  0  0  0
 19 20  1  0  0  0  0
 20 21  4  0  0  0  0
 20 25  4  0  0  0  0
 21 22  4  0  0  0  0
 21 27  1  0  0  0  0
 22 23  4  0  0  0  0
 22 28  1  0  0  0  0
 23 24  4  0  0  0  0
 23 26  1  0  0  0  0
 24 25  4  0  0  0  0
 24 29  1  0  0  0  0
 25 30  1  0  0  0  0
 26 31  1  0  0  0  0
 26 32  1  0  0  0  0
M  END
> <BCLConfClusterSize>
1

> <ConfClashScore>
0 

> <ConfOneFourInteractionScore>
-0.930333 

> <ConfScore>
-0.0714289 

> <ConfScorePBest>
0.00558386 

> <ConfTolerance>
0.417258 

> <RosettaParamsInstructions>
M  ROOT 3
M  POLY_N_BB 3
M  POLY_CA_BB 4
M  POLY_C_BB 2
M  POLY_O_BB 5
M  POLY_IGNORE 9 10 11 12 13 14 15 16 17 18 
M  POLY_UPPER 6
M  POLY_LOWER 8
M  POLY_CHG 0
M  POLY_PROPERTIES ALPHA_AA L_AA PROTEIN AROMATIC POLYMER 
M  END

$$$$



 32 32  0  0  0  0  0  0  0  0999 V2000
   -1.7260    0.7715    2.1450 H   0  0  0  1  0  0  0  0  0  0  0  0
   -3.0198    2.1280    3.1221 C   0  0  0  1  0  0  0  0  0  0  0  0
   -3.3265    1.1664    0.8978 N   0  0  0  1  0  0  0  0  0  0  0  0
   -2.3351    1.6065    1.8680 C   0  0  0  1  0  0  0  0  0  0  0  0
   -4.0790    2.7497    3.0553 O   0  0  0  1  0  0  0  0  0  0  0  0
   -2.4549    1.7963    4.2880 N   0  0  0  1  0  0  0  0  0  0  0  0
   -4.2327    1.5364    0.9465 H   0  0  0  1  0  0  0  0  0  0  0  0
   -3.0443    0.2756   -0.0570 C   0  0  0  1  0  0  0  0  0  0  0  0
   -3.0085    2.2150    5.5671 C   0  0  0  1  0  0  0  0  0  0  0  0
   -4.2126   -0.1549   -0.9225 C   0  0  0  1  0  0  0  0  0  0  0  0
   -1.9148   -0.1777   -0.2376 O   0  0  0  1  0  0  0  0  0  0  0  0
   -1.6397    1.2524    4.2808 H   0  0  0  1  0  0  0  0  0  0  0  0
   -4.0725    2.1033    5.5495 H   0  0  0  1  0  0  0  0  0  0  0  0
   -2.7607    3.2407    5.7441 H   0  0  0  1  0  0  0  0  0  0  0  0
   -2.5994    1.6088    6.3481 H   0  0  0  1  0  0  0  0  0  0  0  0
   -4.2736    0.4800   -1.7816 H   0  0  0  1  0  0  0  0  0  0  0  0
   -5.1194   -0.0810   -0.3594 H   0  0  0  1  0  0  0  0  0  0  0  0
   -4.0690   -1.1675   -1.2371 H   0  0  0  1  0  0  0  0  0  0  0  0
   -4.4301    8.0052    0.4437 Br  0  0  0  1  0  0  0  0  0  0  0  0
   -3.4402    6.4149    0.6951 C   0  0  0  1  0  0  0  0  0  0  0  0
   -2.9395    6.1049    1.9500 C   0  0  0  1  0  0  0  0  0  0  0  0
   -2.2831    4.9061    2.1555 C   0  0  0  1  0  0  0  0  0  0  0  0
   -2.1302    4.0114    1.1079 C   0  0  0  1  0  0  0  0  0  0  0  0
   -2.6293    4.3203   -0.1435 C   0  0  0  1  0  0  0  0  0  0  0  0
   -3.2876    5.5227   -0.3494 C   0  0  0  1  0  0  0  0  0  0  0  0
   -1.4180    2.6985    1.3331 C   0  0  0  1  0  0  0  0  0  0  0  0
   -3.0578    6.7744    2.7369 H   0  0  0  1  0  0  0  0  0  0  0  0
   -1.9040    4.6754    3.0960 H   0  0  0  1  0  0  0  0  0  0  0  0
   -2.5109    3.6507   -0.9304 H   0  0  0  1  0  0  0  0  0  0  0  0
   -3.6667    5.7534   -1.2900 H   0  0  0  1  0  0  0  0  0  0  0  0
   -1.0053    2.3708    0.4019 H   0  0  0  1  0  0  0  0  0  0  0  0
   -0.6286    2.8559    2.0380 H   0  0  0  1  0  0  0  0  0  0  0  0
  1  4  1  0  0  0  0
  2  4  1  0  0  0  0
  2  5  2  0  0  0  0
  2  6  1  0  0  0  0
  3  4  1  0  0  0  0
  3  7  1  0  0  0  0
  3  8  1  0  0  0  0
  4 26  1  0  0  0  0
  6  9  1  0  0  0  0
  6 12  1  0  0  0  0
  8 10  1  0  0  0  0
  8 11  2  0  0  0  0
  9 13  1  0  0  0  0
  9 14  1  0  0  0  0
  9 15  1  0  0  0  0
 10 16  1  0  0  0  0
 10 17  1  0  0  0  0
 10 18  1  0  0  0  0
 19 20  1  0  0  0  0
 20 21  4  0  0  0  0
 20 25  4  0  0  0  0
 21 22  4  0  0  0  0
 21 27  1  0  0  0  0
 22 23  4  0  0  0  0
 22 28  1  0  0  0  0
 23 24  4  0  0  0  0
 23 26  1  0  0  0  0
 24 25  4  0  0  0  0
 24 29  1  0  0  0  0
 25 30  1  0  0  0  0
 26 31  1  0  0  0  0
 26 32  1  0  0  0  0
M  END
> <BCLConfClusterSize>
1

> <ConfClashScore>
0 

> <ConfOneFourInteractionScore>
-0.987258 

> <ConfScore>
-0.0703954 

> <ConfScorePBest>
0.00555537 

> <ConfTolerance>
0.251125 

> <RosettaParamsInstructions>
M  ROOT 3
M  POLY_N_BB 3
M  POLY_CA_BB 4
M  POLY_C_BB 2
M  POLY_O_BB 5
M  POLY_IGNORE 9 10 11 12 13 14 15 16 17 18 
M  POLY_UPPER 6
M  POLY_LOWER 8
M  POLY_CHG 0
M  POLY_PROPERTIES ALPHA_AA L_AA PROTEIN AROMATIC POLYMER 
M  END

$$$$



 32 32  0  0  0  0  0  0  0  0999 V2000
   -2.9147    1.6012    0.4032 H   0  0  0  1  0  0  0  0  0  0  0  0
   -1.5580    0.1528    1.0220 C   0  0  0  1  0  0  0  0  0  0  0  0
   -3.2226    1.3698    2.4123 N   0  0  0  1  0  0  0  0  0  0  0  0
   -2.2972    1.4605    1.2656 C   0  0  0  1  0  0  0  0  0  0  0  0
   -0.7422   -0.2766    1.8363 O   0  0  0  1  0  0  0  0  0  0  0  0
   -1.9108   -0.5335   -0.0702 N   0  0  0  1  0  0  0  0  0  0  0  0
   -2.8532    1.3790    3.3200 H   0  0  0  1  0  0  0  0  0  0  0  0
   -4.5591    1.2746    2.2541 C   0  0  0  1  0  0  0  0  0  0  0  0
   -1.4045   -1.8698   -0.3459 C   0  0  0  1  0  0  0  0  0  0  0  0
   -5.4233    1.2350    3.4994 C   0  0  0  1  0  0  0  0  0  0  0  0
   -5.0642    1.2214    1.1335 O   0  0  0  1  0  0  0  0  0  0  0  0
   -2.5319   -0.1223   -0.7070 H   0  0  0  1  0  0  0  0  0  0  0  0
   -1.1488   -2.3518    0.5745 H   0  0  0  1  0  0  0  0  0  0  0  0
   -0.5350   -1.8006   -0.9656 H   0  0  0  1  0  0  0  0  0  0  0  0
   -2.1575   -2.4394   -0.8494 H   0  0  0  1  0  0  0  0  0  0  0  0
   -4.8180    0.9880    4.3465 H   0  0  0  1  0  0  0  0  0  0  0  0
   -6.1873    0.4955    3.3796 H   0  0  0  1  0  0  0  0  0  0  0  0
   -5.8743    2.1934    3.6509 H   0  0  0  1  0  0  0  0  0  0  0  0
   -4.4301    8.0052    0.4437 Br  0  0  0  1  0  0  0  0  0  0  0  0
   -3.4402    6.4149    0.6951 C   0  0  0  1  0  0  0  0  0  0  0  0
   -2.9395    6.1049    1.9500 C   0  0  0  1  0  0  0  0  0  0  0  0
   -2.2831    4.9061    2.1555 C   0  0  0  1  0  0  0  0  0  0  0  0
   -2.1302    4.0114    1.1079 C   0  0  0  1  0  0  0  0  0  0  0  0
   -2.6293    4.3203   -0.1435 C   0  0  0  1  0  0  0  0  0  0  0  0
   -3.2876    5.5227   -0.3494 C   0  0  0  1  0  0  0  0  0  0  0  0
   -1.4180    2.6985    1.3331 C   0  0  0  1  0  0  0  0  0  0  0  0
   -3.0578    6.7744    2.7369 H   0  0  0  1  0  0  0  0  0  0  0  0
   -1.9040    4.6754    3.0960 H   0  0  0  1  0  0  0  0  0  0  0  0
   -2.5109    3.6507   -0.9304 H   0  0  0  1  0  0  0  0  0  0  0  0
   -3.6667    5.7534   -1.2900 H   0  0  0  1  0  0  0  0  0  0  0  0
   -0.6567    2.6038    0.5872 H   0  0  0  1  0  0  0  0  0  0  0  0
   -0.9663    2.7301    2.3026 H   0  0  0  1  0  0  0  0  0  0  0  0
  1  4  1  0  0  0  0
  2  4  1  0  0  0  0
  2  5  2  0  0  0  0
  2  6  1  0  0  0  0
  3  4  1  0  0  0  0
  3  7  1  0  0  0  0
  3  8  1  0  0  0  0
  4 26  1  0  0  0  0
  6  9  1  0  0  0  0
  6 12  1  0  0  0  0
  8 10  1  0  0  0  0
  8 11  2  0  0  0  0
  9 13  1  0  0  0  0
  9 14  1  0  0  0  0
  9 15  1  0  0  0  0
 10 16  1  0  0  0  0
 10 17  1  0  0  0  0
 10 18  1  0  0  0  0
 19 20  1  0  0  0  0
 20 21  4  0  0  0  0
 20 25  4  0  0  0  0
 21 22  4  0  0  0  0
 21 27  1  0  0  0  0
 22 23  4  0  0  0  0
 22 28  1  0  0  0  0
 23 24  4  0  0  0  0
 23 26  1  0  0  0  0
 24 25  4  0  0  0  0
 24 29  1  0  0  0  0
 25 30  1  0  0  0  0
 26 31  1  0  0  0  0
 26 32  1  0  0  0  0
M  END
> <BCLConfClusterSize>
1

> <ConfClashScore>
0 

> <ConfOneFourInteractionScore>
-0.978127 

> <ConfScore>
-0.0701526 

> <ConfScorePBest>
0.00552689 

> <ConfTolerance>
0.31624 

> <RosettaParamsInstructions>
M  ROOT 3
M  POLY_N_BB 3
M  POLY_CA_BB 4
M  POLY_C_BB 2
M  POLY_O_BB 5
M  POLY_IGNORE 9 10 11 12 13 14 15 16 17 18 
M  POLY_UPPER 6
M  POLY_LOWER 8
M  POLY_CHG 0
M  POLY_PROPERTIES ALPHA_AA L_AA PROTEIN AROMATIC POLYMER 
M  END

$$$$



 32 32  0  0  0  0  0  0  0  0999 V2000
    0.2977    3.1864    0.2013 H   0  0  0  1  0  0  0  0  0  0  0  0
    0.6838    3.7991    2.1763 C   0  0  0  1  0  0  0  0  0  0  0  0
    0.7088    1.4884    1.2883 N   0  0  0  1  0  0  0  0  0  0  0  0
    0.1025    2.8071    1.1827 C   0  0  0  1  0  0  0  0  0  0  0  0
    0.4499    3.6720    3.3772 O   0  0  0  1  0  0  0  0  0  0  0  0
    1.5077    4.7311    1.6856 N   0  0  0  1  0  0  0  0  0  0  0  0
    0.6332    0.9809    2.1233 H   0  0  0  1  0  0  0  0  0  0  0  0
    1.3739    0.9637    0.2407 C   0  0  0  1  0  0  0  0  0  0  0  0
    2.2902    5.6580    2.4895 C   0  0  0  1  0  0  0  0  0  0  0  0
    1.9522   -0.4114    0.5128 C   0  0  0  1  0  0  0  0  0  0  0  0
    1.5175    1.5199   -0.8473 O   0  0  0  1  0  0  0  0  0  0  0  0
    1.5907    4.7947    0.7112 H   0  0  0  1  0  0  0  0  0  0  0  0
    2.5605    5.1898    3.4129 H   0  0  0  1  0  0  0  0  0  0  0  0
    1.7092    6.5337    2.6906 H   0  0  0  1  0  0  0  0  0  0  0  0
    3.1764    5.9321    1.9561 H   0  0  0  1  0  0  0  0  0  0  0  0
    2.7687   -0.3260    1.1990 H   0  0  0  1  0  0  0  0  0  0  0  0
    2.3004   -0.8393   -0.4040 H   0  0  0  1  0  0  0  0  0  0  0  0
    1.1956   -1.0390    0.9353 H   0  0  0  1  0  0  0  0  0  0  0  0
   -4.4301    8.0052    0.4437 Br  0  0  0  1  0  0  0  0  0  0  0  0
   -3.4402    6.4149    0.6951 C   0  0  0  1  0  0  0  0  0  0  0  0
   -2.9395    6.1049    1.9500 C   0  0  0  1  0  0  0  0  0  0  0  0
   -2.2831    4.9061    2.1555 C   0  0  0  1  0  0  0  0  0  0  0  0
   -2.1302    4.0114    1.1079 C   0  0  0  1  0  0  0  0  0  0  0  0
   -2.6293    4.3203   -0.1435 C   0  0  0  1  0  0  0  0  0  0  0  0
   -3.2876    5.5227   -0.3494 C   0  0  0  1  0  0  0  0  0  0  0  0
   -1.4180    2.6985    1.3331 C   0  0  0  1  0  0  0  0  0  0  0  0
   -3.0578    6.7744    2.7369 H   0  0  0  1  0  0  0  0  0  0  0  0
   -1.9040    4.6754    3.0960 H   0  0  0  1  0  0  0  0  0  0  0  0
   -2.5109    3.6507   -0.9304 H   0  0  0  1  0  0  0  0  0  0  0  0
   -3.6667    5.7534   -1.2900 H   0  0  0  1  0  0  0  0  0  0  0  0
   -1.6388    2.3567    2.3227 H   0  0  0  1  0  0  0  0  0  0  0  0
   -1.7809    1.9876    0.6205 H   0  0  0  1  0  0  0  0  0  0  0  0
  1  4  1  0  0  0  0
  2  4  1  0  0  0  0
  2  5  2  0  0  0  0
  2  6  1  0  0  0  0
  3  4  1  0  0  0  0
  3  7  1  0  0  0  0
  3  8  1  0  0  0  0
  4 26  1  0  0  0  0
  6  9  1  0  0  0  0
  6 12  1  0  0  0  0
  8 10  1  0  0  0  0
  8 11  2  0  0  0  0
  9 13  1  0  0  0  0
  9 14  1  0  0  0  0
  9 15  1  0  0  0  0
 10 16  1  0  0  0  0
 10 17  1  0  0  0  0
 10 18  1  0  0  0  0
 19 20  1  0  0  0  0
 20 21  4  0  0  0  0
 20 25  4  0  0  0  0
 21 22  4  0  0  0  0
 21 27  1  0  0  0  0
 22 23  4  0  0  0  0
 22 28  1  0  0  0  0
 23 24  4  0  0  0  0
 23 26  1  0  0  0  0
 24 25  4  0  0  0  0
 24 29  1  0  0  0  0
 25 30  1  0  0  0  0
 26 31  1  0  0  0  0
 26 32  1  0  0  0  0
M  END
> <BCLConfClusterSize>
1

> <ConfClashScore>
0 

> <ConfOneFourInteractionScore>
-0.979134 

> <ConfScore>
-0.0684579 

> <ConfScorePBest>
0.00549841 

> <ConfTolerance>
0.200241 

> <RosettaParamsInstructions>
M  ROOT 3
M  POLY_N_BB 3
M  POLY_CA_BB 4
M  POLY_C_BB 2
M  POLY_O_BB 5
M  POLY_IGNORE 9 10 11 12 13 14 15 16 17 18 
M  POLY_UPPER 6
M  POLY_LOWER 8
M  POLY_CHG 0
M  POLY_PROPERTIES ALPHA_AA L_AA PROTEIN AROMATIC POLYMER 
M  END

$$$$



 32 32  0  0  0  0  0  0  0  0999 V2000
   -2.5578    1.9027    2.8936 H   0  0  0  1  0  0  0  0  0  0  0  0
   -3.6616    1.4536    1.1760 C   0  0  0  1  0  0  0  0  0  0  0  0
   -1.6080    0.3265    1.9680 N   0  0  0  1  0  0  0  0  0  0  0  0
   -2.3280    1.6153    1.8889 C   0  0  0  1  0  0  0  0  0  0  0  0
   -3.6977    0.9689    0.0461 O   0  0  0  1  0  0  0  0  0  0  0  0
   -4.7584    1.7787    1.8686 N   0  0  0  1  0  0  0  0  0  0  0  0
   -1.1671   -0.0191    1.1639 H   0  0  0  1  0  0  0  0  0  0  0  0
   -1.5368   -0.3904    3.1087 C   0  0  0  1  0  0  0  0  0  0  0  0
   -6.0898    1.7327    1.2827 C   0  0  0  1  0  0  0  0  0  0  0  0
   -0.7161   -1.6494    3.1019 C   0  0  0  1  0  0  0  0  0  0  0  0
   -2.1255   -0.0264    4.1259 O   0  0  0  1  0  0  0  0  0  0  0  0
   -4.6623    2.0575    2.8031 H   0  0  0  1  0  0  0  0  0  0  0  0
   -6.3814    0.7134    1.1381 H   0  0  0  1  0  0  0  0  0  0  0  0
   -6.0819    2.2384    0.3398 H   0  0  0  1  0  0  0  0  0  0  0  0
   -6.7850    2.2124    1.9395 H   0  0  0  1  0  0  0  0  0  0  0  0
   -1.0714   -2.3033    2.3331 H   0  0  0  1  0  0  0  0  0  0  0  0
   -0.8016   -2.1358    4.0512 H   0  0  0  1  0  0  0  0  0  0  0  0
    0.3092   -1.4055    2.9167 H   0  0  0  1  0  0  0  0  0  0  0  0
   -4.4301    8.0052    0.4437 Br  0  0  0  1  0  0  0  0  0  0  0  0
   -3.4402    6.4149    0.6951 C   0  0  0  1  0  0  0  0  0  0  0  0
   -2.9395    6.1049    1.9500 C   0  0  0  1  0  0  0  0  0  0  0  0
   -2.2831    4.9061    2.1555 C   0  0  0  1  0  0  0  0  0  0  0  0
   -2.1302    4.0114    1.1079 C   0  0  0  1  0  0  0  0  0  0  0  0
   -2.6293    4.3203   -0.1435 C   0  0  0  1  0  0  0  0  0  0  0  0
   -3.2876    5.5227   -0.3494 C   0  0  0  1  0  0  0  0  0  0  0  0
   -1.4180    2.6985    1.3331 C   0  0  0  1  0  0  0  0  0  0  0  0
   -3.0578    6.7744    2.7369 H   0  0  0  1  0  0  0  0  0  0  0  0
   -1.9040    4.6754    3.0960 H   0  0  0  1  0  0  0  0  0  0  0  0
   -2.5109    3.6507   -0.9304 H   0  0  0  1  0  0  0  0  0  0  0  0
   -3.6667    5.7534   -1.2900 H   0  0  0  1  0  0  0  0  0  0  0  0
   -1.0198    2.3624    0.3986 H   0  0  0  1  0  0  0  0  0  0  0  0
   -0.6180    2.8594    2.0251 H   0  0  0  1  0  0  0  0  0  0  0  0
  1  4  1  0  0  0  0
  2  4  1  0  0  0  0
  2  5  2  0  0  0  0
  2  6  1  0  0  0  0
  3  4  1  0  0  0  0
  3  7  1  0  0  0  0
  3  8  1  0  0  0  0
  4 26  1  0  0  0  0
  6  9  1  0  0  0  0
  6 12  1  0  0  0  0
  8 10  1  0  0  0  0
  8 11  2  0  0  0  0
  9 13  1  0  0  0  0
  9 14  1  0  0  0  0
  9 15  1  0  0  0  0
 10 16  1  0  0  0  0
 10 17  1  0  0  0  0
 10 18  1  0  0  0  0
 19 20  1  0  0  0  0
 20 21  4  0  0  0  0
 20 25  4  0  0  0  0
 21 22  4  0  0  0  0
 21 27  1  0  0  0  0
 22 23  4  0  0  0  0
 22 28  1  0  0  0  0
 23 24  4  0  0  0  0
 23 26  1  0  0  0  0
 24 25  4  0  0  0  0
 24 29  1  0  0  0  0
 25 30  1  0  0  0  0
 26 31  1  0  0  0  0
 26 32  1  0  0  0  0
M  END
> <BCLConfClusterSize>
1

> <ConfClashScore>
0 

> <ConfOneFourInteractionScore>
-0.985807 

> <ConfScore>
-0.0630822 

> <ConfScorePBest>
0.00546993 

> <ConfTolerance>
0.196101 

> <RosettaParamsInstructions>
M  ROOT 3
M  POLY_N_BB 3
M  POLY_CA_BB 4
M  POLY_C_BB 2
M  POLY_O_BB 5
M  POLY_IGNORE 9 10 11 12 13 14 15 16 17 18 
M  POLY_UPPER 6
M  POLY_LOWER 8
M  POLY_CHG 0
M  POLY_PROPERTIES ALPHA_AA L_AA PROTEIN AROMATIC POLYMER 
M  END

$$$$



 32 32  0  0  0  0  0  0  0  0999 V2000
    0.4208    1.7115    1.2104 H   0  0  0  1  0  0  0  0  0  0  0  0
    0.2188    2.7578   -0.5849 C   0  0  0  1  0  0  0  0  0  0  0  0
    0.8198    3.6633    1.6577 N   0  0  0  1  0  0  0  0  0  0  0  0
    0.0484    2.6723    0.9223 C   0  0  0  1  0  0  0  0  0  0  0  0
    0.3365    3.8556   -1.1272 O   0  0  0  1  0  0  0  0  0  0  0  0
    0.3179    1.6000   -1.2468 N   0  0  0  1  0  0  0  0  0  0  0  0
    0.9468    4.5515    1.2637 H   0  0  0  1  0  0  0  0  0  0  0  0
    1.3609    3.4042    2.8515 C   0  0  0  1  0  0  0  0  0  0  0  0
    0.5329    1.4755   -2.6841 C   0  0  0  1  0  0  0  0  0  0  0  0
    2.3254    4.4489    3.3783 C   0  0  0  1  0  0  0  0  0  0  0  0
    1.1054    2.3901    3.4957 O   0  0  0  1  0  0  0  0  0  0  0  0
    0.2403    0.7728   -0.7270 H   0  0  0  1  0  0  0  0  0  0  0  0
    0.9932    2.3674   -3.0549 H   0  0  0  1  0  0  0  0  0  0  0  0
   -0.4073    1.3295   -3.1737 H   0  0  0  1  0  0  0  0  0  0  0  0
    1.1704    0.6383   -2.8779 H   0  0  0  1  0  0  0  0  0  0  0  0
    3.2981    4.2765    2.9672 H   0  0  0  1  0  0  0  0  0  0  0  0
    2.3728    4.3843    4.4453 H   0  0  0  1  0  0  0  0  0  0  0  0
    1.9859    5.4229    3.0941 H   0  0  0  1  0  0  0  0  0  0  0  0
   -4.4301    8.0052    0.4437 Br  0  0  0  1  0  0  0  0  0  0  0  0
   -3.4402    6.4149    0.6951 C   0  0  0  1  0  0  0  0  0  0  0  0
   -2.9395    6.1049    1.9500 C   0  0  0  1  0  0  0  0  0  0  0  0
   -2.2831    4.9061    2.1555 C   0  0  0  1  0  0  0  0  0  0  0  0
   -2.1302    4.0114    1.1079 C   0  0  0  1  0  0  0  0  0  0  0  0
   -2.6293    4.3203   -0.1435 C   0  0  0  1  0  0  0  0  0  0  0  0
   -3.2876    5.5227   -0.3494 C   0  0  0  1  0  0  0  0  0  0  0  0
   -1.4180    2.6985    1.3331 C   0  0  0  1  0  0  0  0  0  0  0  0
   -3.0578    6.7744    2.7369 H   0  0  0  1  0  0  0  0  0  0  0  0
   -1.9040    4.6754    3.0960 H   0  0  0  1  0  0  0  0  0  0  0  0
   -2.5109    3.6507   -0.9304 H   0  0  0  1  0  0  0  0  0  0  0  0
   -3.6667    5.7534   -1.2900 H   0  0  0  1  0  0  0  0  0  0  0  0
   -1.4726    2.4682    2.3766 H   0  0  0  1  0  0  0  0  0  0  0  0
   -1.9311    1.9445    0.7736 H   0  0  0  1  0  0  0  0  0  0  0  0
  1  4  1  0  0  0  0
  2  4  1  0  0  0  0
  2  5  2  0  0  0  0
  2  6  1  0  0  0  0
  3  4  1  0  0  0  0
  3  7  1  0  0  0  0
  3  8  1  0  0  0  0
  4 26  1  0  0  0  0
  6  9  1  0  0  0  0
  6 12  1  0  0  0  0
  8 10  1  0  0  0  0
  8 11  2  0  0  0  0
  9 13  1  0  0  0  0
  9 14  1  0  0  0  0
  9 15  1  0  0  0  0
 10 16  1  0  0  0  0
 10 17  1  0  0  0  0
 10 18  1  0  0  0  0
 19 20  1  0  0  0  0
 20 21  4  0  0  0  0
 20 25  4  0  0  0  0
 21 22  4  0  0  0  0
 21 27  1  0  0  0  0
 22 23  4  0  0  0  0
 22 28  1  0  0  0  0
 23 24  4  0  0  0  0
 23 26  1  0  0  0  0
 24 25  4  0  0  0  0
 24 29  1  0  0  0  0
 25 30  1  0  0  0  0
 26 31  1  0  0  0  0
 26 32  1  0  0  0  0
M  END
> <BCLConfClusterSize>
1

> <ConfClashScore>
0 

> <ConfOneFourInteractionScore>
-0.980789 

> <ConfScore>
-0.0614616 

> <ConfScorePBest>
0.00544145 

> <ConfTolerance>
0.297579 

> <RosettaParamsInstructions>
M  ROOT 3
M  POLY_N_BB 3
M  POLY_CA_BB 4
M  POLY_C_BB 2
M  POLY_O_BB 5
M  POLY_IGNORE 9 10 11 12 13 14 15 16 17 18 
M  POLY_UPPER 6
M  POLY_LOWER 8
M  POLY_CHG 0
M  POLY_PROPERTIES ALPHA_AA L_AA PROTEIN AROMATIC POLYMER 
M  END

$$$$



 32 32  0  0  0  0  0  0  0  0999 V2000
    0.5202    1.8838    1.5045 H   0  0  0  1  0  0  0  0  0  0  0  0
    0.4549    2.9036   -0.3311 C   0  0  0  1  0  0  0  0  0  0  0  0
    0.5989    3.8828    1.9734 N   0  0  0  1  0  0  0  0  0  0  0  0
    0.0983    2.7981    1.1424 C   0  0  0  1  0  0  0  0  0  0  0  0
    0.4138    1.9027   -1.0449 O   0  0  0  1  0  0  0  0  0  0  0  0
    0.7195    4.1274   -0.8010 N   0  0  0  1  0  0  0  0  0  0  0  0
   -0.0439    4.4531    2.4445 H   0  0  0  1  0  0  0  0  0  0  0  0
    1.9173    4.1306    2.1179 C   0  0  0  1  0  0  0  0  0  0  0  0
    1.1852    4.3541   -2.1610 C   0  0  0  1  0  0  0  0  0  0  0  0
    2.3352    5.2311    3.0736 C   0  0  0  1  0  0  0  0  0  0  0  0
    2.7576    3.4841    1.4937 O   0  0  0  1  0  0  0  0  0  0  0  0
    0.5955    4.8984   -0.2088 H   0  0  0  1  0  0  0  0  0  0  0  0
    0.6724    3.6939   -2.8288 H   0  0  0  1  0  0  0  0  0  0  0  0
    2.2375    4.1672   -2.2132 H   0  0  0  1  0  0  0  0  0  0  0  0
    0.9881    5.3679   -2.4408 H   0  0  0  1  0  0  0  0  0  0  0  0
    1.5792    5.9879    3.0995 H   0  0  0  1  0  0  0  0  0  0  0  0
    3.2576    5.6600    2.7418 H   0  0  0  1  0  0  0  0  0  0  0  0
    2.4637    4.8220    4.0539 H   0  0  0  1  0  0  0  0  0  0  0  0
   -4.4301    8.0052    0.4437 Br  0  0  0  1  0  0  0  0  0  0  0  0
   -3.4402    6.4149    0.6951 C   0  0  0  1  0  0  0  0  0  0  0  0
   -2.9395    6.1049    1.9500 C   0  0  0  1  0  0  0  0  0  0  0  0
   -2.2831    4.9061    2.1555 C   0  0  0  1  0  0  0  0  0  0  0  0
   -2.1302    4.0114    1.1079 C   0  0  0  1  0  0  0  0  0  0  0  0
   -2.6293    4.3203   -0.1435 C   0  0  0  1  0  0  0  0  0  0  0  0
   -3.2876    5.5227   -0.3494 C   0  0  0  1  0  0  0  0  0  0  0  0
   -1.4180    2.6985    1.3331 C   0  0  0  1  0  0  0  0  0  0  0  0
   -3.0578    6.7744    2.7369 H   0  0  0  1  0  0  0  0  0  0  0  0
   -1.9040    4.6754    3.0960 H   0  0  0  1  0  0  0  0  0  0  0  0
   -2.5109    3.6507   -0.9304 H   0  0  0  1  0  0  0  0  0  0  0  0
   -3.6667    5.7534   -1.2900 H   0  0  0  1  0  0  0  0  0  0  0  0
   -1.6148    2.3715    2.3327 H   0  0  0  1  0  0  0  0  0  0  0  0
   -1.8020    1.9795    0.6399 H   0  0  0  1  0  0  0  0  0  0  0  0
  1  4  1  0  0  0  0
  2  4  1  0  0  0  0
  2  5  2  0  0  0  0
  2  6  1  0  0  0  0
  3  4  1  0  0  0  0
  3  7  1  0  0  0  0
  3  8  1  0  0  0  0
  4 26  1  0  0  0  0
  6  9  1  0  0  0  0
  6 12  1  0  0  0  0
  8 10  1  0  0  0  0
  8 11  2  0  0  0  0
  9 13  1  0  0  0  0
  9 14  1  0  0  0  0
  9 15  1  0  0  0  0
 10 16  1  0  0  0  0
 10 17  1  0  0  0  0
 10 18  1  0  0  0  0
 19 20  1  0  0  0  0
 20 21  4  0  0  0  0
 20 25  4  0  0  0  0
 21 22  4  0  0  0  0
 21 27  1  0  0  0  0
 22 23  4  0  0  0  0
 22 28  1  0  0  0  0
 23 24  4  0  0  0  0
 23 26  1  0  0  0  0
 24 25  4  0  0  0  0
 24 29  1  0  0  0  0
 25 30  1  0  0  0  0
 26 31  1  0  0  0  0
 26 32  1  0  0  0  0
M  END
> <BCLConfClusterSize>
1

> <ConfClashScore>
0 

> <ConfOneFourInteractionScore>
-0.950605 

> <ConfScore>
-0.0580929 

> <ConfScorePBest>
0.00541297 

> <ConfTolerance>
0.225522 

> <RosettaParamsInstructions>
M  ROOT 3
M  POLY_N_BB 3
M  POLY_CA_BB 4
M  POLY_C_BB 2
M  POLY_O_BB 5
M  POLY_IGNORE 9 10 11 12 13 14 15 16 17 18 
M  POLY_UPPER 6
M  POLY_LOWER 8
M  POLY_CHG 0
M  POLY_PROPERTIES ALPHA_AA L_AA PROTEIN AROMATIC POLYMER 
M  END

$$$$



 32 32  0  0  0  0  0  0  0  0999 V2000
    0.4174    1.7337    0.9004 H   0  0  0  1  0  0  0  0  0  0  0  0
    0.2093    3.3394   -0.4682 C   0  0  0  1  0  0  0  0  0  0  0  0
    0.8354    3.4998    1.8916 N   0  0  0  1  0  0  0  0  0  0  0  0
    0.0528    2.7393    0.9288 C   0  0  0  1  0  0  0  0  0  0  0  0
    0.0039    2.6429   -1.4610 O   0  0  0  1  0  0  0  0  0  0  0  0
    0.4869    4.6459   -0.5353 N   0  0  0  1  0  0  0  0  0  0  0  0
    0.3753    3.9227    2.6465 H   0  0  0  1  0  0  0  0  0  0  0  0
    2.1724    3.6430    1.7810 C   0  0  0  1  0  0  0  0  0  0  0  0
    0.7193    5.3273   -1.8000 C   0  0  0  1  0  0  0  0  0  0  0  0
    2.8762    4.5374    2.7764 C   0  0  0  1  0  0  0  0  0  0  0  0
    2.8024    3.0642    0.8976 O   0  0  0  1  0  0  0  0  0  0  0  0
    0.5354    5.1623    0.2962 H   0  0  0  1  0  0  0  0  0  0  0  0
    1.1971    4.6576   -2.4841 H   0  0  0  1  0  0  0  0  0  0  0  0
    1.3476    6.1778   -1.6363 H   0  0  0  1  0  0  0  0  0  0  0  0
   -0.2160    5.6477   -2.2094 H   0  0  0  1  0  0  0  0  0  0  0  0
    2.2254    4.7337    3.6027 H   0  0  0  1  0  0  0  0  0  0  0  0
    3.1391    5.4602    2.3028 H   0  0  0  1  0  0  0  0  0  0  0  0
    3.7622    4.0514    3.1281 H   0  0  0  1  0  0  0  0  0  0  0  0
   -4.4301    8.0052    0.4437 Br  0  0  0  1  0  0  0  0  0  0  0  0
   -3.4402    6.4149    0.6951 C   0  0  0  1  0  0  0  0  0  0  0  0
   -2.9395    6.1049    1.9500 C   0  0  0  1  0  0  0  0  0  0  0  0
   -2.2831    4.9061    2.1555 C   0  0  0  1  0  0  0  0  0  0  0  0
   -2.1302    4.0114    1.1079 C   0  0  0  1  0  0  0  0  0  0  0  0
   -2.6293    4.3203   -0.1435 C   0  0  0  1  0  0  0  0  0  0  0  0
   -3.2876    5.5227   -0.3494 C   0  0  0  1  0  0  0  0  0  0  0  0
   -1.4180    2.6985    1.3331 C   0  0  0  1  0  0  0  0  0  0  0  0
   -3.0578    6.7744    2.7369 H   0  0  0  1  0  0  0  0  0  0  0  0
   -1.9040    4.6754    3.0960 H   0  0  0  1  0  0  0  0  0  0  0  0
   -2.5109    3.6507   -0.9304 H   0  0  0  1  0  0  0  0  0  0  0  0
   -3.6667    5.7534   -1.2900 H   0  0  0  1  0  0  0  0  0  0  0  0
   -1.4788    2.4521    2.3726 H   0  0  0  1  0  0  0  0  0  0  0  0
   -1.9087    1.9418    0.7573 H   0  0  0  1  0  0  0  0  0  0  0  0
  1  4  1  0  0  0  0
  2  4  1  0  0  0  0
  2  5  2  0  0  0  0
  2  6  1  0  0  0  0
  3  4  1  0  0  0  0
  3  7  1  0  0  0  0
  3  8  1  0  0  0  0
  4 26  1  0  0  0  0
  6  9  1  0  0  0  0
  6 12  1  0  0  0  0
  8 10  1  0  0  0  0
  8 11  2  0  0  0  0
  9 13  1  0  0  0  0
  9 14  1  0  0  0  0
  9 15  1  0  0  0  0
 10 16  1  0  0  0  0
 10 17  1  0  0  0  0
 10 18  1  0  0  0  0
 19 20  1  0  0  0  0
 20 21  4  0  0  0  0
 20 25  4  0  0  0  0
 21 22  4  0  0  0  0
 21 27  1  0  0  0  0
 22 23  4  0  0  0  0
 22 28  1  0  0  0  0
 23 24  4  0  0  0  0
 23 26  1  0  0  0  0
 24 25  4  0  0  0  0
 24 29  1  0  0  0  0
 25 30  1  0  0  0  0
 26 31  1  0  0  0  0
 26 32  1  0  0  0  0
M  END
> <BCLConfClusterSize>
1

> <ConfClashScore>
0 

> <ConfOneFourInteractionScore>
-0.957074 

> <ConfScore>
-0.0572936 

> <ConfScorePBest>
0.00538449 

> <ConfTolerance>
0.22196 

> <RosettaParamsInstructions>
M  ROOT 3
M  POLY_N_BB 3
M  POLY_CA_BB 4
M  POLY_C_BB 2
M  POLY_O_BB 5
M  POLY_IGNORE 9 10 11 12 13 14 15 16 17 18 
M  POLY_UPPER 6
M  POLY_LOWER 8
M  POLY_CHG 0
M  POLY_PROPERTIES ALPHA_AA L_AA PROTEIN AROMATIC POLYMER 
M  END

$$$$



 32 32  0  0  0  0  0  0  0  0999 V2000
    0.2120    3.2022    0.0777 H   0  0  0  1  0  0  0  0  0  0  0  0
    0.7731    3.6818    2.0651 C   0  0  0  1  0  0  0  0  0  0  0  0
    0.6798    1.4488    1.0693 N   0  0  0  1  0  0  0  0  0  0  0  0
    0.0794    2.7744    1.0494 C   0  0  0  1  0  0  0  0  0  0  0  0
    0.9917    3.2881    3.2098 O   0  0  0  1  0  0  0  0  0  0  0  0
    1.1806    4.8584    1.5773 N   0  0  0  1  0  0  0  0  0  0  0  0
    0.5377    0.8592    1.8390 H   0  0  0  1  0  0  0  0  0  0  0  0
    1.4316    1.0300    0.0302 C   0  0  0  1  0  0  0  0  0  0  0  0
    1.8990    5.8296    2.3888 C   0  0  0  1  0  0  0  0  0  0  0  0
    2.0479   -0.3428    0.1766 C   0  0  0  1  0  0  0  0  0  0  0  0
    1.6151    1.7076   -0.9796 O   0  0  0  1  0  0  0  0  0  0  0  0
    0.9886    5.0742    0.6409 H   0  0  0  1  0  0  0  0  0  0  0  0
    2.6328    5.3258    2.9827 H   0  0  0  1  0  0  0  0  0  0  0  0
    1.2095    6.3380    3.0300 H   0  0  0  1  0  0  0  0  0  0  0  0
    2.3829    6.5391    1.7505 H   0  0  0  1  0  0  0  0  0  0  0  0
    2.0557   -0.6225    1.2094 H   0  0  0  1  0  0  0  0  0  0  0  0
    3.0511   -0.3246   -0.1953 H   0  0  0  1  0  0  0  0  0  0  0  0
    1.4732   -1.0528   -0.3807 H   0  0  0  1  0  0  0  0  0  0  0  0
   -4.4301    8.0052    0.4437 Br  0  0  0  1  0  0  0  0  0  0  0  0
   -3.4402    6.4149    0.6951 C   0  0  0  1  0  0  0  0  0  0  0  0
   -2.9395    6.1049    1.9500 C   0  0  0  1  0  0  0  0  0  0  0  0
   -2.2831    4.9061    2.1555 C   0  0  0  1  0  0  0  0  0  0  0  0
   -2.1302    4.0114    1.1079 C   0  0  0  1  0  0  0  0  0  0  0  0
   -2.6293    4.3203   -0.1435 C   0  0  0  1  0  0  0  0  0  0  0  0
   -3.2876    5.5227   -0.3494 C   0  0  0  1  0  0  0  0  0  0  0  0
   -1.4180    2.6985    1.3331 C   0  0  0  1  0  0  0  0  0  0  0  0
   -3.0578    6.7744    2.7369 H   0  0  0  1  0  0  0  0  0  0  0  0
   -1.9040    4.6754    3.0960 H   0  0  0  1  0  0  0  0  0  0  0  0
   -2.5109    3.6507   -0.9304 H   0  0  0  1  0  0  0  0  0  0  0  0
   -3.6667    5.7534   -1.2900 H   0  0  0  1  0  0  0  0  0  0  0  0
   -1.5570    2.4063    2.3530 H   0  0  0  1  0  0  0  0  0  0  0  0
   -1.8499    1.9618    0.6884 H   0  0  0  1  0  0  0  0  0  0  0  0
  1  4  1  0  0  0  0
  2  4  1  0  0  0  0
  2  5  2  0  0  0  0
  2  6  1  0  0  0  0
  3  4  1  0  0  0  0
  3  7  1  0  0  0  0
  3  8  1  0  0  0  0
  4 26  1  0  0  0  0
  6  9  1  0  0  0  0
  6 12  1  0  0  0  0
  8 10  1  0  0  0  0
  8 11  2  0  0  0  0
  9 13  1  0  0  0  0
  9 14  1  0  0  0  0
  9 15  1  0  0  0  0
 10 16  1  0  0  0  0
 10 17  1  0  0  0  0
 10 18  1  0  0  0  0
 19 20  1  0  0  0  0
 20 21  4  0  0  0  0
 20 25  4  0  0  0  0
 21 22  4  0  0  0  0
 21 27  1  0  0  0  0
 22 23  4  0  0  0  0
 22 28  1  0  0  0  0
 23 24  4  0  0  0  0
 23 26  1  0  0  0  0
 24 25  4  0  0  0  0
 24 29  1  0  0  0  0
 25 30  1  0  0  0  0
 26 31  1  0  0  0  0
 26 32  1  0  0  0  0
M  END
> <BCLConfClusterSize>
1

> <ConfClashScore>
0 

> <ConfOneFourInteractionScore>
-0.978127 

> <ConfScore>
-0.0534926 

> <ConfScorePBest>
0.00535601 

> <ConfTolerance>
0.242717 

> <RosettaParamsInstructions>
M  ROOT 3
M  POLY_N_BB 3
M  POLY_CA_BB 4
M  POLY_C_BB 2
M  POLY_O_BB 5
M  POLY_IGNORE 9 10 11 12 13 14 15 16 17 18 
M  POLY_UPPER 6
M  POLY_LOWER 8
M  POLY_CHG 0
M  POLY_PROPERTIES ALPHA_AA L_AA PROTEIN AROMATIC POLYMER 
M  END

$$$$



 32 32  0  0  0  0  0  0  0  0999 V2000
    0.5101    3.4340    1.6070 H   0  0  0  1  0  0  0  0  0  0  0  0
    0.7648    1.3721    1.2656 C   0  0  0  1  0  0  0  0  0  0  0  0
    0.2417    3.1238   -0.4154 N   0  0  0  1  0  0  0  0  0  0  0  0
    0.0623    2.6948    0.9761 C   0  0  0  1  0  0  0  0  0  0  0  0
    0.5176    0.7320    2.2864 O   0  0  0  1  0  0  0  0  0  0  0  0
    1.5875    0.9144    0.3112 N   0  0  0  1  0  0  0  0  0  0  0  0
   -0.0996    2.5675   -1.1464 H   0  0  0  1  0  0  0  0  0  0  0  0
    0.8686    4.2693   -0.6876 C   0  0  0  1  0  0  0  0  0  0  0  0
    2.3287   -0.3348    0.4011 C   0  0  0  1  0  0  0  0  0  0  0  0
    0.9442    4.6822   -2.1630 C   0  0  0  1  0  0  0  0  0  0  0  0
    1.3048    5.0217    0.1827 O   0  0  0  1  0  0  0  0  0  0  0  0
    1.6967    1.4554   -0.4985 H   0  0  0  1  0  0  0  0  0  0  0  0
    1.6516   -1.1380    0.6045 H   0  0  0  1  0  0  0  0  0  0  0  0
    3.0479   -0.2665    1.1904 H   0  0  0  1  0  0  0  0  0  0  0  0
    2.8314   -0.5184   -0.5254 H   0  0  0  1  0  0  0  0  0  0  0  0
    1.7216    4.1305   -2.6489 H   0  0  0  1  0  0  0  0  0  0  0  0
    1.1549    5.7292   -2.2297 H   0  0  0  1  0  0  0  0  0  0  0  0
    0.0088    4.4751   -2.6394 H   0  0  0  1  0  0  0  0  0  0  0  0
   -4.4309    8.0037    0.4382 Br  0  0  0  1  0  0  0  0  0  0  0  0
   -3.4400    6.4150    0.6957 C   0  0  0  1  0  0  0  0  0  0  0  0
   -2.9409    6.1090    1.9522 C   0  0  0  1  0  0  0  0  0  0  0  0
   -2.2839    4.9114    2.1622 C   0  0  0  1  0  0  0  0  0  0  0  0
   -2.1287    4.0137    1.1174 C   0  0  0  1  0  0  0  0  0  0  0  0
   -2.6263    4.3185   -0.1355 C   0  0  0  1  0  0  0  0  0  0  0  0
   -3.2853    5.5198   -0.3459 C   0  0  0  1  0  0  0  0  0  0  0  0
   -1.4253    2.6879    1.2878 C   0  0  0  1  0  0  0  0  0  0  0  0
   -3.0609    6.7808    2.7370 H   0  0  0  1  0  0  0  0  0  0  0  0
   -1.9059    4.6837    3.1039 H   0  0  0  1  0  0  0  0  0  0  0  0
   -2.5063    3.6467   -0.9203 H   0  0  0  1  0  0  0  0  0  0  0  0
   -3.6632    5.7475   -1.2877 H   0  0  0  1  0  0  0  0  0  0  0  0
   -1.5482    2.3774    2.3043 H   0  0  0  1  0  0  0  0  0  0  0  0
   -1.8953    1.9791    0.6385 H   0  0  0  1  0  0  0  0  0  0  0  0
  1  4  1  0  0  0  0
  2  4  1  0  0  0  0
  2  5  2  0  0  0  0
  2  6  1  0  0  0  0
  3  4  1  0  0  0  0
  3  7  1  0  0  0  0
  3  8  1  0  0  0  0
  4 26  1  0  0  0  0
  6  9  1  0  0  0  0
  6 12  1  0  0  0  0
  8 10  1  0  0  0  0
  8 11  2  0  0  0  0
  9 13  1  0  0  0  0
  9 14  1  0  0  0  0
  9 15  1  0  0  0  0
 10 16  1  0  0  0  0
 10 17  1  0  0  0  0
 10 18  1  0  0  0  0
 19 20  1  0  0  0  0
 20 21  4  0  0  0  0
 20 25  4  0  0  0  0
 21 22  4  0  0  0  0
 21 27  1  0  0  0  0
 22 23  4  0  0  0  0
 22 28  1  0  0  0  0
 23 24  4  0  0  0  0
 23 26  1  0  0  0  0
 24 25  4  0  0  0  0
 24 29  1  0  0  0  0
 25 30  1  0  0  0  0
 26 31  1  0  0  0  0
 26 32  1  0  0  0  0
M  END
> <BCLConfClusterSize>
1

> <ConfClashScore>
0 

> <ConfOneFourInteractionScore>
-0.960318 

> <ConfScore>
-0.0512176 

> <ConfScorePBest>
0.00532753 

> <ConfTolerance>
0.262491 

> <RosettaParamsInstructions>
M  ROOT 3
M  POLY_N_BB 3
M  POLY_CA_BB 4
M  POLY_C_BB 2
M  POLY_O_BB 5
M  POLY_IGNORE 9 10 11 12 13 14 15 16 17 18 
M  POLY_UPPER 6
M  POLY_LOWER 8
M  POLY_CHG 0
M  POLY_PROPERTIES ALPHA_AA L_AA PROTEIN AROMATIC POLYMER 
M  END

$$$$



 32 32  0  0  0  0  0  0  0  0999 V2000
    0.3706    3.3357    2.2098 H   0  0  0  1  0  0  0  0  0  0  0  0
    0.6455    1.3495    1.5099 C   0  0  0  1  0  0  0  0  0  0  0  0
    0.6132    3.3871    0.1484 N   0  0  0  1  0  0  0  0  0  0  0  0
    0.0916    2.7588    1.3529 C   0  0  0  1  0  0  0  0  0  0  0  0
    1.0595    0.9573    2.5998 O   0  0  0  1  0  0  0  0  0  0  0  0
    0.5553    0.5878    0.4144 N   0  0  0  1  0  0  0  0  0  0  0  0
   -0.0222    3.8637   -0.4256 H   0  0  0  1  0  0  0  0  0  0  0  0
    1.9416    3.3624   -0.2482 C   0  0  0  1  0  0  0  0  0  0  0  0
    0.8302   -0.8411    0.4363 C   0  0  0  1  0  0  0  0  0  0  0  0
    2.3337    4.0407   -1.5308 C   0  0  0  1  0  0  0  0  0  0  0  0
    2.7499    2.7891    0.4592 O   0  0  0  1  0  0  0  0  0  0  0  0
    0.2950    1.0065   -0.4326 H   0  0  0  1  0  0  0  0  0  0  0  0
    0.3468   -1.3106   -0.3948 H   0  0  0  1  0  0  0  0  0  0  0  0
    0.4599   -1.2614    1.3480 H   0  0  0  1  0  0  0  0  0  0  0  0
    1.8861   -1.0019    0.3719 H   0  0  0  1  0  0  0  0  0  0  0  0
    2.4644    3.3062   -2.2978 H   0  0  0  1  0  0  0  0  0  0  0  0
    3.2509    4.5727   -1.3867 H   0  0  0  1  0  0  0  0  0  0  0  0
    1.5651    4.7262   -1.8209 H   0  0  0  1  0  0  0  0  0  0  0  0
   -4.4309    8.0037    0.4382 Br  0  0  0  1  0  0  0  0  0  0  0  0
   -3.4400    6.4150    0.6957 C   0  0  0  1  0  0  0  0  0  0  0  0
   -2.9409    6.1090    1.9522 C   0  0  0  1  0  0  0  0  0  0  0  0
   -2.2839    4.9114    2.1622 C   0  0  0  1  0  0  0  0  0  0  0  0
   -2.1287    4.0137    1.1174 C   0  0  0  1  0  0  0  0  0  0  0  0
   -2.6263    4.3185   -0.1355 C   0  0  0  1  0  0  0  0  0  0  0  0
   -3.2853    5.5198   -0.3459 C   0  0  0  1  0  0  0  0  0  0  0  0
   -1.4253    2.6879    1.2878 C   0  0  0  1  0  0  0  0  0  0  0  0
   -3.0609    6.7808    2.7370 H   0  0  0  1  0  0  0  0  0  0  0  0
   -1.9059    4.6837    3.1039 H   0  0  0  1  0  0  0  0  0  0  0  0
   -2.5063    3.6467   -0.9203 H   0  0  0  1  0  0  0  0  0  0  0  0
   -3.6632    5.7475   -1.2877 H   0  0  0  1  0  0  0  0  0  0  0  0
   -1.7743    2.2435    2.1964 H   0  0  0  1  0  0  0  0  0  0  0  0
   -1.6914    2.0644    0.4600 H   0  0  0  1  0  0  0  0  0  0  0  0
  1  4  1  0  0  0  0
  2  4  1  0  0  0  0
  2  5  2  0  0  0  0
  2  6  1  0  0  0  0
  3  4  1  0  0  0  0
  3  7  1  0  0  0  0
  3  8  1  0  0  0  0
  4 26  1  0  0  0  0
  6  9  1  0  0  0  0
  6 12  1  0  0  0  0
  8 10  1  0  0  0  0
  8 11  2  0  0  0  0
  9 13  1  0  0  0  0
  9 14  1  0  0  0  0
  9 15  1  0  0  0  0
 10 16  1  0  0  0  0
 10 17  1  0  0  0  0
 10 18  1  0  0  0  0
 19 20  1  0  0  0  0
 20 21  4  0  0  0  0
 20 25  4  0  0  0  0
 21 22  4  0  0  0  0
 21 27  1  0  0  0  0
 22 23  4  0  0  0  0
 22 28  1  0  0  0  0
 23 24  4  0  0  0  0
 23 26  1  0  0  0  0
 24 25  4  0  0  0  0
 24 29  1  0  0  0  0
 25 30  1  0  0  0  0
 26 31  1  0  0  0  0
 26 32  1  0  0  0  0
M  END
> <BCLConfClusterSize>
1

> <ConfClashScore>
0 

> <ConfOneFourInteractionScore>
-0.960318 

> <ConfScore>
-0.045386 

> <ConfScorePBest>
0.00529905 

> <ConfTolerance>
0.580508 

> <RosettaParamsInstructions>
M  ROOT 3
M  POLY_N_BB 3
M  POLY_CA_BB 4
M  POLY_C_BB 2
M  POLY_O_BB 5
M  POLY_IGNORE 9 10 11 12 13 14 15 16 17 18 
M  POLY_UPPER 6
M  POLY_LOWER 8
M  POLY_CHG 0
M  POLY_PROPERTIES ALPHA_AA L_AA PROTEIN AROMATIC POLYMER 
M  END

$$$$



 32 32  0  0  0  0  0  0  0  0999 V2000
    0.1867    3.1465    0.0444 H   0  0  0  1  0  0  0  0  0  0  0  0
    0.7092    3.7857    1.9872 C   0  0  0  1  0  0  0  0  0  0  0  0
    0.7178    1.4663    1.1153 N   0  0  0  1  0  0  0  0  0  0  0  0
    0.0749    2.7717    1.0404 C   0  0  0  1  0  0  0  0  0  0  0  0
    0.8023    3.5574    3.1922 O   0  0  0  1  0  0  0  0  0  0  0  0
    1.2299    4.8801    1.4219 N   0  0  0  1  0  0  0  0  0  0  0  0
    0.2477    0.7128    1.5294 H   0  0  0  1  0  0  0  0  0  0  0  0
    1.9521    1.2938    0.6184 C   0  0  0  1  0  0  0  0  0  0  0  0
    1.8341    5.9473    2.2055 C   0  0  0  1  0  0  0  0  0  0  0  0
    2.4560   -0.1360    0.5877 C   0  0  0  1  0  0  0  0  0  0  0  0
    2.6444    2.2224    0.2098 O   0  0  0  1  0  0  0  0  0  0  0  0
    1.2036    4.9666    0.4461 H   0  0  0  1  0  0  0  0  0  0  0  0
    1.3162    6.0437    3.1368 H   0  0  0  1  0  0  0  0  0  0  0  0
    1.7685    6.8679    1.6642 H   0  0  0  1  0  0  0  0  0  0  0  0
    2.8618    5.7148    2.3916 H   0  0  0  1  0  0  0  0  0  0  0  0
    1.8900   -0.6990   -0.1247 H   0  0  0  1  0  0  0  0  0  0  0  0
    2.3446   -0.5740    1.5576 H   0  0  0  1  0  0  0  0  0  0  0  0
    3.4890   -0.1440    0.3087 H   0  0  0  1  0  0  0  0  0  0  0  0
   -4.4301    8.0052    0.4437 Br  0  0  0  1  0  0  0  0  0  0  0  0
   -3.4402    6.4149    0.6951 C   0  0  0  1  0  0  0  0  0  0  0  0
   -2.9395    6.1049    1.9500 C   0  0  0  1  0  0  0  0  0  0  0  0
   -2.2831    4.9061    2.1555 C   0  0  0  1  0  0  0  0  0  0  0  0
   -2.1302    4.0114    1.1079 C   0  0  0  1  0  0  0  0  0  0  0  0
   -2.6293    4.3203   -0.1435 C   0  0  0  1  0  0  0  0  0  0  0  0
   -3.2876    5.5227   -0.3494 C   0  0  0  1  0  0  0  0  0  0  0  0
   -1.4180    2.6985    1.3331 C   0  0  0  1  0  0  0  0  0  0  0  0
   -3.0578    6.7744    2.7369 H   0  0  0  1  0  0  0  0  0  0  0  0
   -1.9040    4.6754    3.0960 H   0  0  0  1  0  0  0  0  0  0  0  0
   -2.5109    3.6507   -0.9304 H   0  0  0  1  0  0  0  0  0  0  0  0
   -3.6667    5.7534   -1.2900 H   0  0  0  1  0  0  0  0  0  0  0  0
   -1.5510    2.4099    2.3548 H   0  0  0  1  0  0  0  0  0  0  0  0
   -1.8547    1.9601    0.6936 H   0  0  0  1  0  0  0  0  0  0  0  0
  1  4  1  0  0  0  0
  2  4  1  0  0  0  0
  2  5  2  0  0  0  0
  2  6  1  0  0  0  0
  3  4  1  0  0  0  0
  3  7  1  0  0  0  0
  3  8  1  0  0  0  0
  4 26  1  0  0  0  0
  6  9  1  0  0  0  0
  6 12  1  0  0  0  0
  8 10  1  0  0  0  0
  8 11  2  0  0  0  0
  9 13  1  0  0  0  0
  9 14  1  0  0  0  0
  9 15  1  0  0  0  0
 10 16  1  0  0  0  0
 10 17  1  0  0  0  0
 10 18  1  0  0  0  0
 19 20  1  0  0  0  0
 20 21  4  0  0  0  0
 20 25  4  0  0  0  0
 21 22  4  0  0  0  0
 21 27  1  0  0  0  0
 22 23  4  0  0  0  0
 22 28  1  0  0  0  0
 23 24  4  0  0  0  0
 23 26  1  0  0  0  0
 24 25  4  0  0  0  0
 24 29  1  0  0  0  0
 25 30  1  0  0  0  0
 26 31  1  0  0  0  0
 26 32  1  0  0  0  0
M  END
> <BCLConfClusterSize>
1

> <ConfClashScore>
0 

> <ConfOneFourInteractionScore>
-0.978127 

> <ConfScore>
-0.0406458 

> <ConfScorePBest>
0.00527057 

> <ConfTolerance>
0.191825 

> <RosettaParamsInstructions>
M  ROOT 3
M  POLY_N_BB 3
M  POLY_CA_BB 4
M  POLY_C_BB 2
M  POLY_O_BB 5
M  POLY_IGNORE 9 10 11 12 13 14 15 16 17 18 
M  POLY_UPPER 6
M  POLY_LOWER 8
M  POLY_CHG 0
M  POLY_PROPERTIES ALPHA_AA L_AA PROTEIN AROMATIC POLYMER 
M  END

$$$$



 32 32  0  0  0  0  0  0  0  0999 V2000
   -0.0067    3.3846    2.8052 H   0  0  0  1  0  0  0  0  0  0  0  0
    0.7921    1.6088    2.0059 C   0  0  0  1  0  0  0  0  0  0  0  0
    0.6610    3.8406    0.9007 N   0  0  0  1  0  0  0  0  0  0  0  0
    0.0315    2.9118    1.8461 C   0  0  0  1  0  0  0  0  0  0  0  0
    1.2413    1.0358    1.0145 O   0  0  0  1  0  0  0  0  0  0  0  0
    1.0100    1.1876    3.2563 N   0  0  0  1  0  0  0  0  0  0  0  0
    0.2912    3.9179   -0.0036 H   0  0  0  1  0  0  0  0  0  0  0  0
    1.7208    4.5846    1.2296 C   0  0  0  1  0  0  0  0  0  0  0  0
    1.7219   -0.0305    3.6130 C   0  0  0  1  0  0  0  0  0  0  0  0
    2.3362    5.4085    0.1154 C   0  0  0  1  0  0  0  0  0  0  0  0
    2.1345    4.6697    2.3852 O   0  0  0  1  0  0  0  0  0  0  0  0
    0.6642    1.7409    3.9875 H   0  0  0  1  0  0  0  0  0  0  0  0
    2.5202   -0.1938    2.9195 H   0  0  0  1  0  0  0  0  0  0  0  0
    1.0469   -0.8602    3.5812 H   0  0  0  1  0  0  0  0  0  0  0  0
    2.1220    0.0667    4.6006 H   0  0  0  1  0  0  0  0  0  0  0  0
    3.2024    4.9071   -0.2631 H   0  0  0  1  0  0  0  0  0  0  0  0
    2.6175    6.3683    0.4955 H   0  0  0  1  0  0  0  0  0  0  0  0
    1.6229    5.5315   -0.6726 H   0  0  0  1  0  0  0  0  0  0  0  0
   -4.4293    8.0064    0.4488 Br  0  0  0  1  0  0  0  0  0  0  0  0
   -3.4402    6.4147    0.6945 C   0  0  0  1  0  0  0  0  0  0  0  0
   -2.9381    6.1009    1.9479 C   0  0  0  1  0  0  0  0  0  0  0  0
   -2.2824    4.9010    2.1493 C   0  0  0  1  0  0  0  0  0  0  0  0
   -2.1315    4.0091    1.0990 C   0  0  0  1  0  0  0  0  0  0  0  0
   -2.6320    4.3218   -0.1508 C   0  0  0  1  0  0  0  0  0  0  0  0
   -3.2897    5.5252   -0.3526 C   0  0  0  1  0  0  0  0  0  0  0  0
   -1.4121    2.7100    1.3751 C   0  0  0  1  0  0  0  0  0  0  0  0
   -3.0549    6.7683    2.7368 H   0  0  0  1  0  0  0  0  0  0  0  0
   -1.9022    4.6674    3.0887 H   0  0  0  1  0  0  0  0  0  0  0  0
   -2.5152    3.6543   -0.9397 H   0  0  0  1  0  0  0  0  0  0  0  0
   -3.6699    5.7589   -1.2920 H   0  0  0  1  0  0  0  0  0  0  0  0
   -1.9470    2.1792    2.1347 H   0  0  0  1  0  0  0  0  0  0  0  0
   -1.3990    2.1301    0.4760 H   0  0  0  1  0  0  0  0  0  0  0  0
  1  4  1  0  0  0  0
  2  4  1  0  0  0  0
  2  5  2  0  0  0  0
  2  6  1  0  0  0  0
  3  4  1  0  0  0  0
  3  7  1  0  0  0  0
  3  8  1  0  0  0  0
  4 26  1  0  0  0  0
  6  9  1  0  0  0  0
  6 12  1  0  0  0  0
  8 10  1  0  0  0  0
  8 11  2  0  0  0  0
  9 13  1  0  0  0  0
  9 14  1  0  0  0  0
  9 15  1  0  0  0  0
 10 16  1  0  0  0  0
 10 17  1  0  0  0  0
 10 18  1  0  0  0  0
 19 20  1  0  0  0  0
 20 21  4  0  0  0  0
 20 25  4  0  0  0  0
 21 22  4  0  0  0  0
 21 27  1  0  0  0  0
 22 23  4  0  0  0  0
 22 28  1  0  0  0  0
 23 24  4  0  0  0  0
 23 26  1  0  0  0  0
 24 25  4  0  0  0  0
 24 29  1  0  0  0  0
 25 30  1  0  0  0  0
 26 31  1  0  0  0  0
 26 32  1  0  0  0  0
M  END
> <BCLConfClusterSize>
1

> <ConfClashScore>
0 

> <ConfOneFourInteractionScore>
-0.985807 

> <ConfScore>
-0.0387947 

> <ConfScorePBest>
0.00524209 

> <ConfTolerance>
0.377719 

> <RosettaParamsInstructions>
M  ROOT 3
M  POLY_N_BB 3
M  POLY_CA_BB 4
M  POLY_C_BB 2
M  POLY_O_BB 5
M  POLY_IGNORE 9 10 11 12 13 14 15 16 17 18 
M  POLY_UPPER 6
M  POLY_LOWER 8
M  POLY_CHG 0
M  POLY_PROPERTIES ALPHA_AA L_AA PROTEIN AROMATIC POLYMER 
M  END

$$$$



 32 32  0  0  0  0  0  0  0  0999 V2000
    0.2535    3.3029    0.0650 H   0  0  0  1  0  0  0  0  0  0  0  0
    0.7504    3.8765    2.0495 C   0  0  0  1  0  0  0  0  0  0  0  0
    0.8199    1.6121    1.1134 N   0  0  0  1  0  0  0  0  0  0  0  0
    0.1335    2.8936    1.0463 C   0  0  0  1  0  0  0  0  0  0  0  0
    1.1696    3.4913    3.1398 O   0  0  0  1  0  0  0  0  0  0  0  0
    0.8836    5.1411    1.6356 N   0  0  0  1  0  0  0  0  0  0  0  0
    0.2839    0.8139    1.3029 H   0  0  0  1  0  0  0  0  0  0  0  0
    2.1343    1.4545    0.9329 C   0  0  0  1  0  0  0  0  0  0  0  0
    1.4204    6.1872    2.4930 C   0  0  0  1  0  0  0  0  0  0  0  0
    2.6743    0.0637    1.2036 C   0  0  0  1  0  0  0  0  0  0  0  0
    2.8688    2.3600    0.5738 O   0  0  0  1  0  0  0  0  0  0  0  0
    0.6103    5.3713    0.7231 H   0  0  0  1  0  0  0  0  0  0  0  0
    1.1970    5.9613    3.5148 H   0  0  0  1  0  0  0  0  0  0  0  0
    0.9778    7.1253    2.2305 H   0  0  0  1  0  0  0  0  0  0  0  0
    2.4811    6.2443    2.3643 H   0  0  0  1  0  0  0  0  0  0  0  0
    2.2260   -0.6318    0.5252 H   0  0  0  1  0  0  0  0  0  0  0  0
    2.4422   -0.2193    2.2091 H   0  0  0  1  0  0  0  0  0  0  0  0
    3.7356    0.0607    1.0676 H   0  0  0  1  0  0  0  0  0  0  0  0
   -4.4115    8.0150    0.4374 Br  0  0  0  1  0  0  0  0  0  0  0  0
   -3.4362    6.4166    0.6942 C   0  0  0  1  0  0  0  0  0  0  0  0
   -2.9412    6.1046    1.9508 C   0  0  0  1  0  0  0  0  0  0  0  0
   -2.2959    4.9005    2.1601 C   0  0  0  1  0  0  0  0  0  0  0  0
   -2.1483    4.0024    1.1146 C   0  0  0  1  0  0  0  0  0  0  0  0
   -2.6417    4.3133   -0.1385 C   0  0  0  1  0  0  0  0  0  0  0  0
   -3.2890    5.5210   -0.3483 C   0  0  0  1  0  0  0  0  0  0  0  0
   -1.3660    2.7252    1.3104 C   0  0  0  1  0  0  0  0  0  0  0  0
   -3.0554    6.7766    2.7362 H   0  0  0  1  0  0  0  0  0  0  0  0
   -1.9210    4.6682    3.1020 H   0  0  0  1  0  0  0  0  0  0  0  0
   -2.5275    3.6412   -0.9239 H   0  0  0  1  0  0  0  0  0  0  0  0
   -3.6639    5.7533   -1.2901 H   0  0  0  1  0  0  0  0  0  0  0  0
   -1.4992    2.3956    2.3196 H   0  0  0  1  0  0  0  0  0  0  0  0
   -1.7490    1.9850    0.6394 H   0  0  0  1  0  0  0  0  0  0  0  0
  1  4  1  0  0  0  0
  2  4  1  0  0  0  0
  2  5  2  0  0  0  0
  2  6  1  0  0  0  0
  3  4  1  0  0  0  0
  3  7  1  0  0  0  0
  3  8  1  0  0  0  0
  4 26  1  0  0  0  0
  6  9  1  0  0  0  0
  6 12  1  0  0  0  0
  8 10  1  0  0  0  0
  8 11  2  0  0  0  0
  9 13  1  0  0  0  0
  9 14  1  0  0  0  0
  9 15  1  0  0  0  0
 10 16  1  0  0  0  0
 10 17  1  0  0  0  0
 10 18  1  0  0  0  0
 19 20  1  0  0  0  0
 20 21  4  0  0  0  0
 20 25  4  0  0  0  0
 21 22  4  0  0  0  0
 21 27  1  0  0  0  0
 22 23  4  0  0  0  0
 22 28  1  0  0  0  0
 23 24  4  0  0  0  0
 23 26  1  0  0  0  0
 24 25  4  0  0  0  0
 24 29  1  0  0  0  0
 25 30  1  0  0  0  0
 26 31  1  0  0  0  0
 26 32  1  0  0  0  0
M  END
> <BCLConfClusterSize>
1

> <ConfClashScore>
0 

> <ConfOneFourInteractionScore>
-0.985807 

> <ConfScore>
-0.0372509 

> <ConfScorePBest>
0.00521361 

> <ConfTolerance>
0.21191 

> <RosettaParamsInstructions>
M  ROOT 3
M  POLY_N_BB 3
M  POLY_CA_BB 4
M  POLY_C_BB 2
M  POLY_O_BB 5
M  POLY_IGNORE 9 10 11 12 13 14 15 16 17 18 
M  POLY_UPPER 6
M  POLY_LOWER 8
M  POLY_CHG 0
M  POLY_PROPERTIES ALPHA_AA L_AA PROTEIN AROMATIC POLYMER 
M  END

$$$$



 32 32  0  0  0  0  0  0  0  0999 V2000
    0.5210    3.5487    1.3080 H   0  0  0  1  0  0  0  0  0  0  0  0
    0.6844    1.4158    1.3045 C   0  0  0  1  0  0  0  0  0  0  0  0
    0.1733    2.8057   -0.6072 N   0  0  0  1  0  0  0  0  0  0  0  0
    0.0296    2.7223    0.8386 C   0  0  0  1  0  0  0  0  0  0  0  0
    0.2656    0.3242    0.9223 O   0  0  0  1  0  0  0  0  0  0  0  0
    1.7760    1.5384    2.0673 N   0  0  0  1  0  0  0  0  0  0  0  0
   -0.5854    2.5155   -1.1554 H   0  0  0  1  0  0  0  0  0  0  0  0
    1.2723    3.2525   -1.2497 C   0  0  0  1  0  0  0  0  0  0  0  0
    2.6421    0.4093    2.3722 C   0  0  0  1  0  0  0  0  0  0  0  0
    1.2631    3.2475   -2.7616 C   0  0  0  1  0  0  0  0  0  0  0  0
    2.2544    3.6528   -0.6260 O   0  0  0  1  0  0  0  0  0  0  0  0
    2.0004    2.4191    2.4336 H   0  0  0  1  0  0  0  0  0  0  0  0
    2.1236   -0.5040    2.1676 H   0  0  0  1  0  0  0  0  0  0  0  0
    2.9165    0.4396    3.4059 H   0  0  0  1  0  0  0  0  0  0  0  0
    3.5230    0.4623    1.7671 H   0  0  0  1  0  0  0  0  0  0  0  0
    0.6408    4.0418   -3.1176 H   0  0  0  1  0  0  0  0  0  0  0  0
    0.8818    2.3114   -3.1126 H   0  0  0  1  0  0  0  0  0  0  0  0
    2.2601    3.3858   -3.1246 H   0  0  0  1  0  0  0  0  0  0  0  0
   -4.4309    8.0037    0.4382 Br  0  0  0  1  0  0  0  0  0  0  0  0
   -3.4400    6.4150    0.6957 C   0  0  0  1  0  0  0  0  0  0  0  0
   -2.9409    6.1090    1.9522 C   0  0  0  1  0  0  0  0  0  0  0  0
   -2.2839    4.9114    2.1622 C   0  0  0  1  0  0  0  0  0  0  0  0
   -2.1287    4.0137    1.1174 C   0  0  0  1  0  0  0  0  0  0  0  0
   -2.6263    4.3185   -0.1355 C   0  0  0  1  0  0  0  0  0  0  0  0
   -3.2853    5.5198   -0.3459 C   0  0  0  1  0  0  0  0  0  0  0  0
   -1.4253    2.6879    1.2878 C   0  0  0  1  0  0  0  0  0  0  0  0
   -3.0609    6.7808    2.7370 H   0  0  0  1  0  0  0  0  0  0  0  0
   -1.9059    4.6837    3.1039 H   0  0  0  1  0  0  0  0  0  0  0  0
   -2.5063    3.6467   -0.9203 H   0  0  0  1  0  0  0  0  0  0  0  0
   -3.6632    5.7475   -1.2877 H   0  0  0  1  0  0  0  0  0  0  0  0
   -1.4560    2.4166    2.3224 H   0  0  0  1  0  0  0  0  0  0  0  0
   -1.9429    1.9511    0.7098 H   0  0  0  1  0  0  0  0  0  0  0  0
  1  4  1  0  0  0  0
  2  4  1  0  0  0  0
  2  5  2  0  0  0  0
  2  6  1  0  0  0  0
  3  4  1  0  0  0  0
  3  7  1  0  0  0  0
  3  8  1  0  0  0  0
  4 26  1  0  0  0  0
  6  9  1  0  0  0  0
  6 12  1  0  0  0  0
  8 10  1  0  0  0  0
  8 11  2  0  0  0  0
  9 13  1  0  0  0  0
  9 14  1  0  0  0  0
  9 15  1  0  0  0  0
 10 16  1  0  0  0  0
 10 17  1  0  0  0  0
 10 18  1  0  0  0  0
 19 20  1  0  0  0  0
 20 21  4  0  0  0  0
 20 25  4  0  0  0  0
 21 22  4  0  0  0  0
 21 27  1  0  0  0  0
 22 23  4  0  0  0  0
 22 28  1  0  0  0  0
 23 24  4  0  0  0  0
 23 26  1  0  0  0  0
 24 25  4  0  0  0  0
 24 29  1  0  0  0  0
 25 30  1  0  0  0  0
 26 31  1  0  0  0  0
 26 32  1  0  0  0  0
M  END
> <BCLConfClusterSize>
1

> <ConfClashScore>
0 

> <ConfOneFourInteractionScore>
-0.978127 

> <ConfScore>
-0.0340522 

> <ConfScorePBest>
0.00518512 

> <ConfTolerance>
0.217326 

> <RosettaParamsInstructions>
M  ROOT 3
M  POLY_N_BB 3
M  POLY_CA_BB 4
M  POLY_C_BB 2
M  POLY_O_BB 5
M  POLY_IGNORE 9 10 11 12 13 14 15 16 17 18 
M  POLY_UPPER 6
M  POLY_LOWER 8
M  POLY_CHG 0
M  POLY_PROPERTIES ALPHA_AA L_AA PROTEIN AROMATIC POLYMER 
M  END

$$$$



 32 32  0  0  0  0  0  0  0  0999 V2000
   -1.7020    0.6320    1.6605 H   0  0  0  1  0  0  0  0  0  0  0  0
   -3.1223    1.6399    2.8578 C   0  0  0  1  0  0  0  0  0  0  0  0
   -3.1962    1.3423    0.4223 N   0  0  0  1  0  0  0  0  0  0  0  0
   -2.3215    1.5001    1.5732 C   0  0  0  1  0  0  0  0  0  0  0  0
   -2.6949    1.1991    3.9234 O   0  0  0  1  0  0  0  0  0  0  0  0
   -4.2592    2.3393    2.7750 N   0  0  0  1  0  0  0  0  0  0  0  0
   -3.2582    2.0561   -0.2463 H   0  0  0  1  0  0  0  0  0  0  0  0
   -3.9187    0.2215    0.2739 C   0  0  0  1  0  0  0  0  0  0  0  0
   -5.1305    2.4574    3.9347 C   0  0  0  1  0  0  0  0  0  0  0  0
   -4.9189    0.1852   -0.8819 C   0  0  0  1  0  0  0  0  0  0  0  0
   -3.8560   -0.7137    1.0701 O   0  0  0  1  0  0  0  0  0  0  0  0
   -4.5061    2.7731    1.9317 H   0  0  0  1  0  0  0  0  0  0  0  0
   -5.0258    1.5884    4.5501 H   0  0  0  1  0  0  0  0  0  0  0  0
   -6.1463    2.5439    3.6099 H   0  0  0  1  0  0  0  0  0  0  0  0
   -4.8599    3.3269    4.4966 H   0  0  0  1  0  0  0  0  0  0  0  0
   -5.8744    0.5227   -0.5382 H   0  0  0  1  0  0  0  0  0  0  0  0
   -5.0051   -0.8167   -1.2474 H   0  0  0  1  0  0  0  0  0  0  0  0
   -4.5773    0.8244   -1.6691 H   0  0  0  1  0  0  0  0  0  0  0  0
   -4.4301    8.0052    0.4437 Br  0  0  0  1  0  0  0  0  0  0  0  0
   -3.4402    6.4149    0.6951 C   0  0  0  1  0  0  0  0  0  0  0  0
   -2.9395    6.1049    1.9500 C   0  0  0  1  0  0  0  0  0  0  0  0
   -2.2831    4.9061    2.1555 C   0  0  0  1  0  0  0  0  0  0  0  0
   -2.1302    4.0114    1.1079 C   0  0  0  1  0  0  0  0  0  0  0  0
   -2.6293    4.3203   -0.1435 C   0  0  0  1  0  0  0  0  0  0  0  0
   -3.2876    5.5227   -0.3494 C   0  0  0  1  0  0  0  0  0  0  0  0
   -1.4180    2.6985    1.3331 C   0  0  0  1  0  0  0  0  0  0  0  0
   -3.0578    6.7744    2.7369 H   0  0  0  1  0  0  0  0  0  0  0  0
   -1.9040    4.6754    3.0960 H   0  0  0  1  0  0  0  0  0  0  0  0
   -2.5109    3.6507   -0.9304 H   0  0  0  1  0  0  0  0  0  0  0  0
   -3.6667    5.7534   -1.2900 H   0  0  0  1  0  0  0  0  0  0  0  0
   -0.8213    2.4942    0.4688 H   0  0  0  1  0  0  0  0  0  0  0  0
   -0.7832    2.8097    2.1873 H   0  0  0  1  0  0  0  0  0  0  0  0
  1  4  1  0  0  0  0
  2  4  1  0  0  0  0
  2  5  2  0  0  0  0
  2  6  1  0  0  0  0
  3  4  1  0  0  0  0
  3  7  1  0  0  0  0
  3  8  1  0  0  0  0
  4 26  1  0  0  0  0
  6  9  1  0  0  0  0
  6 12  1  0  0  0  0
  8 10  1  0  0  0  0
  8 11  2  0  0  0  0
  9 13  1  0  0  0  0
  9 14  1  0  0  0  0
  9 15  1  0  0  0  0
 10 16  1  0  0  0  0
 10 17  1  0  0  0  0
 10 18  1  0  0  0  0
 19 20  1  0  0  0  0
 20 21  4  0  0  0  0
 20 25  4  0  0  0  0
 21 22  4  0  0  0  0
 21 27  1  0  0  0  0
 22 23  4  0  0  0  0
 22 28  1  0  0  0  0
 23 24  4  0  0  0  0
 23 26  1  0  0  0  0
 24 25  4  0  0  0  0
 24 29  1  0  0  0  0
 25 30  1  0  0  0  0
 26 31  1  0  0  0  0
 26 32  1  0  0  0  0
M  END
> <BCLConfClusterSize>
1

> <ConfClashScore>
0 

> <ConfOneFourInteractionScore>
-0.950605 

> <ConfScore>
-0.0324572 

> <ConfScorePBest>
0.00515664 

> <ConfTolerance>
0.272339 

> <RosettaParamsInstructions>
M  ROOT 3
M  POLY_N_BB 3
M  POLY_CA_BB 4
M  POLY_C_BB 2
M  POLY_O_BB 5
M  POLY_IGNORE 9 10 11 12 13 14 15 16 17 18 
M  POLY_UPPER 6
M  POLY_LOWER 8
M  POLY_CHG 0
M  POLY_PROPERTIES ALPHA_AA L_AA PROTEIN AROMATIC POLYMER 
M  END

$$$$



 32 32  0  0  0  0  0  0  0  0999 V2000
    0.0590    2.7262   -0.2107 H   0  0  0  1  0  0  0  0  0  0  0  0
    0.7175    3.9691    1.3869 C   0  0  0  1  0  0  0  0  0  0  0  0
    0.6939    1.5204    1.3648 N   0  0  0  1  0  0  0  0  0  0  0  0
    0.0376    2.7168    0.8590 C   0  0  0  1  0  0  0  0  0  0  0  0
    1.0097    4.0793    2.5766 O   0  0  0  1  0  0  0  0  0  0  0  0
    1.0535    4.8900    0.4772 N   0  0  0  1  0  0  0  0  0  0  0  0
    0.8373    1.4568    2.3321 H   0  0  0  1  0  0  0  0  0  0  0  0
    1.1198    0.4921    0.6022 C   0  0  0  1  0  0  0  0  0  0  0  0
    1.7611    6.1112    0.8320 C   0  0  0  1  0  0  0  0  0  0  0  0
    1.7519   -0.6976    1.2982 C   0  0  0  1  0  0  0  0  0  0  0  0
    1.0003    0.5165   -0.6199 O   0  0  0  1  0  0  0  0  0  0  0  0
    0.8150    4.7371   -0.4609 H   0  0  0  1  0  0  0  0  0  0  0  0
    1.1043    6.7604    1.3724 H   0  0  0  1  0  0  0  0  0  0  0  0
    2.0939    6.6018   -0.0587 H   0  0  0  1  0  0  0  0  0  0  0  0
    2.6054    5.8692    1.4432 H   0  0  0  1  0  0  0  0  0  0  0  0
    1.4649   -0.7023    2.3289 H   0  0  0  1  0  0  0  0  0  0  0  0
    2.8172   -0.6286    1.2251 H   0  0  0  1  0  0  0  0  0  0  0  0
    1.4196   -1.6013    0.8316 H   0  0  0  1  0  0  0  0  0  0  0  0
   -4.4301    8.0052    0.4437 Br  0  0  0  1  0  0  0  0  0  0  0  0
   -3.4402    6.4149    0.6951 C   0  0  0  1  0  0  0  0  0  0  0  0
   -2.9395    6.1049    1.9500 C   0  0  0  1  0  0  0  0  0  0  0  0
   -2.2831    4.9061    2.1555 C   0  0  0  1  0  0  0  0  0  0  0  0
   -2.1302    4.0114    1.1079 C   0  0  0  1  0  0  0  0  0  0  0  0
   -2.6293    4.3203   -0.1435 C   0  0  0  1  0  0  0  0  0  0  0  0
   -3.2876    5.5227   -0.3494 C   0  0  0  1  0  0  0  0  0  0  0  0
   -1.4180    2.6985    1.3331 C   0  0  0  1  0  0  0  0  0  0  0  0
   -3.0578    6.7744    2.7369 H   0  0  0  1  0  0  0  0  0  0  0  0
   -1.9040    4.6754    3.0960 H   0  0  0  1  0  0  0  0  0  0  0  0
   -2.5109    3.6507   -0.9304 H   0  0  0  1  0  0  0  0  0  0  0  0
   -3.6667    5.7534   -1.2900 H   0  0  0  1  0  0  0  0  0  0  0  0
   -1.4325    2.4785    2.3801 H   0  0  0  1  0  0  0  0  0  0  0  0
   -1.9403    1.9319    0.7998 H   0  0  0  1  0  0  0  0  0  0  0  0
  1  4  1  0  0  0  0
  2  4  1  0  0  0  0
  2  5  2  0  0  0  0
  2  6  1  0  0  0  0
  3  4  1  0  0  0  0
  3  7  1  0  0  0  0
  3  8  1  0  0  0  0
  4 26  1  0  0  0  0
  6  9  1  0  0  0  0
  6 12  1  0  0  0  0
  8 10  1  0  0  0  0
  8 11  2  0  0  0  0
  9 13  1  0  0  0  0
  9 14  1  0  0  0  0
  9 15  1  0  0  0  0
 10 16  1  0  0  0  0
 10 17  1  0  0  0  0
 10 18  1  0  0  0  0
 19 20  1  0  0  0  0
 20 21  4  0  0  0  0
 20 25  4  0  0  0  0
 21 22  4  0  0  0  0
 21 27  1  0  0  0  0
 22 23  4  0  0  0  0
 22 28  1  0  0  0  0
 23 24  4  0  0  0  0
 23 26  1  0  0  0  0
 24 25  4  0  0  0  0
 24 29  1  0  0  0  0
 25 30  1  0  0  0  0
 26 31  1  0  0  0  0
 26 32  1  0  0  0  0
M  END
> <BCLConfClusterSize>
1

> <ConfClashScore>
0 

> <ConfOneFourInteractionScore>
-0.986627 

> <ConfScore>
-0.0320317 

> <ConfScorePBest>
0.00512816 

> <ConfTolerance>
0.279258 

> <RosettaParamsInstructions>
M  ROOT 3
M  POLY_N_BB 3
M  POLY_CA_BB 4
M  POLY_C_BB 2
M  POLY_O_BB 5
M  POLY_IGNORE 9 10 11 12 13 14 15 16 17 18 
M  POLY_UPPER 6
M  POLY_LOWER 8
M  POLY_CHG 0
M  POLY_PROPERTIES ALPHA_AA L_AA PROTEIN AROMATIC POLYMER 
M  END

$$$$



 32 32  0  0  0  0  0  0  0  0999 V2000
   -2.5845    1.8124    2.8362 H   0  0  0  1  0  0  0  0  0  0  0  0
   -3.5659    1.3351    1.0415 C   0  0  0  1  0  0  0  0  0  0  0  0
   -1.5024    0.3158    1.9029 N   0  0  0  1  0  0  0  0  0  0  0  0
   -2.2916    1.5618    1.8380 C   0  0  0  1  0  0  0  0  0  0  0  0
   -3.5143    1.0296   -0.1486 O   0  0  0  1  0  0  0  0  0  0  0  0
   -4.6964    1.4091    1.7590 N   0  0  0  1  0  0  0  0  0  0  0  0
   -0.5571    0.3577    1.6480 H   0  0  0  1  0  0  0  0  0  0  0  0
   -1.9949   -0.8652    2.2871 C   0  0  0  1  0  0  0  0  0  0  0  0
   -6.0026    1.1260    1.1832 C   0  0  0  1  0  0  0  0  0  0  0  0
   -0.9994   -2.0196    2.3181 C   0  0  0  1  0  0  0  0  0  0  0  0
   -3.1734   -1.0300    2.5996 O   0  0  0  1  0  0  0  0  0  0  0  0
   -4.6410    1.6626    2.7040 H   0  0  0  1  0  0  0  0  0  0  0  0
   -5.9137    0.3356    0.4674 H   0  0  0  1  0  0  0  0  0  0  0  0
   -6.3768    2.0042    0.6997 H   0  0  0  1  0  0  0  0  0  0  0  0
   -6.6776    0.8302    1.9589 H   0  0  0  1  0  0  0  0  0  0  0  0
   -0.0087   -1.6337    2.4383 H   0  0  0  1  0  0  0  0  0  0  0  0
   -1.0598   -2.5670    1.4007 H   0  0  0  1  0  0  0  0  0  0  0  0
   -1.2311   -2.6682    3.1369 H   0  0  0  1  0  0  0  0  0  0  0  0
   -4.4301    8.0052    0.4437 Br  0  0  0  1  0  0  0  0  0  0  0  0
   -3.4402    6.4149    0.6951 C   0  0  0  1  0  0  0  0  0  0  0  0
   -2.9395    6.1049    1.9500 C   0  0  0  1  0  0  0  0  0  0  0  0
   -2.2831    4.9061    2.1555 C   0  0  0  1  0  0  0  0  0  0  0  0
   -2.1302    4.0114    1.1079 C   0  0  0  1  0  0  0  0  0  0  0  0
   -2.6293    4.3203   -0.1435 C   0  0  0  1  0  0  0  0  0  0  0  0
   -3.2876    5.5227   -0.3494 C   0  0  0  1  0  0  0  0  0  0  0  0
   -1.4180    2.6985    1.3331 C   0  0  0  1  0  0  0  0  0  0  0  0
   -3.0578    6.7744    2.7369 H   0  0  0  1  0  0  0  0  0  0  0  0
   -1.9040    4.6754    3.0960 H   0  0  0  1  0  0  0  0  0  0  0  0
   -2.5109    3.6507   -0.9304 H   0  0  0  1  0  0  0  0  0  0  0  0
   -3.6667    5.7534   -1.2900 H   0  0  0  1  0  0  0  0  0  0  0  0
   -0.9851    2.3941    0.4032 H   0  0  0  1  0  0  0  0  0  0  0  0
   -0.6423    2.8628    2.0515 H   0  0  0  1  0  0  0  0  0  0  0  0
  1  4  1  0  0  0  0
  2  4  1  0  0  0  0
  2  5  2  0  0  0  0
  2  6  1  0  0  0  0
  3  4  1  0  0  0  0
  3  7  1  0  0  0  0
  3  8  1  0  0  0  0
  4 26  1  0  0  0  0
  6  9  1  0  0  0  0
  6 12  1  0  0  0  0
  8 10  1  0  0  0  0
  8 11  2  0  0  0  0
  9 13  1  0  0  0  0
  9 14  1  0  0  0  0
  9 15  1  0  0  0  0
 10 16  1  0  0  0  0
 10 17  1  0  0  0  0
 10 18  1  0  0  0  0
 19 20  1  0  0  0  0
 20 21  4  0  0  0  0
 20 25  4  0  0  0  0
 21 22  4  0  0  0  0
 21 27  1  0  0  0  0
 22 23  4  0  0  0  0
 22 28  1  0  0  0  0
 23 24  4  0  0  0  0
 23 26  1  0  0  0  0
 24 25  4  0  0  0  0
 24 29  1  0  0  0  0
 25 30  1  0  0  0  0
 26 31  1  0  0  0  0
 26 32  1  0  0  0  0
M  END
> <BCLConfClusterSize>
1

> <ConfClashScore>
0 

> <ConfOneFourInteractionScore>
-0.985807 

> <ConfScore>
-0.0236477 

> <ConfScorePBest>
0.00509968 

> <ConfTolerance>
0.23355 

> <RosettaParamsInstructions>
M  ROOT 3
M  POLY_N_BB 3
M  POLY_CA_BB 4
M  POLY_C_BB 2
M  POLY_O_BB 5
M  POLY_IGNORE 9 10 11 12 13 14 15 16 17 18 
M  POLY_UPPER 6
M  POLY_LOWER 8
M  POLY_CHG 0
M  POLY_PROPERTIES ALPHA_AA L_AA PROTEIN AROMATIC POLYMER 
M  END

$$$$



 32 32  0  0  0  0  0  0  0  0999 V2000
    0.4252    3.5847    1.9308 H   0  0  0  1  0  0  0  0  0  0  0  0
    0.7625    1.5085    1.6469 C   0  0  0  1  0  0  0  0  0  0  0  0
    0.5476    3.1473   -0.0956 N   0  0  0  1  0  0  0  0  0  0  0  0
    0.1063    2.8213    1.2523 C   0  0  0  1  0  0  0  0  0  0  0  0
    1.0066    0.6434    0.8076 O   0  0  0  1  0  0  0  0  0  0  0  0
    1.1341    1.3913    2.9300 N   0  0  0  1  0  0  0  0  0  0  0  0
    0.9394    2.4397   -0.6491 H   0  0  0  1  0  0  0  0  0  0  0  0
    0.4373    4.3775   -0.6048 C   0  0  0  1  0  0  0  0  0  0  0  0
    1.8711    0.2376    3.4236 C   0  0  0  1  0  0  0  0  0  0  0  0
    0.9756    4.5595   -2.0196 C   0  0  0  1  0  0  0  0  0  0  0  0
   -0.0636    5.3159    0.0134 O   0  0  0  1  0  0  0  0  0  0  0  0
    0.9014    2.1075    3.5571 H   0  0  0  1  0  0  0  0  0  0  0  0
    2.4354   -0.1946    2.6238 H   0  0  0  1  0  0  0  0  0  0  0  0
    1.1836   -0.4871    3.8070 H   0  0  0  1  0  0  0  0  0  0  0  0
    2.5362    0.5463    4.2029 H   0  0  0  1  0  0  0  0  0  0  0  0
    0.1995    4.3521   -2.7264 H   0  0  0  1  0  0  0  0  0  0  0  0
    1.7923    3.8871   -2.1795 H   0  0  0  1  0  0  0  0  0  0  0  0
    1.3126    5.5672   -2.1458 H   0  0  0  1  0  0  0  0  0  0  0  0
   -4.4301    8.0052    0.4437 Br  0  0  0  1  0  0  0  0  0  0  0  0
   -3.4402    6.4149    0.6951 C   0  0  0  1  0  0  0  0  0  0  0  0
   -2.9395    6.1049    1.9500 C   0  0  0  1  0  0  0  0  0  0  0  0
   -2.2831    4.9061    2.1555 C   0  0  0  1  0  0  0  0  0  0  0  0
   -2.1302    4.0114    1.1079 C   0  0  0  1  0  0  0  0  0  0  0  0
   -2.6293    4.3203   -0.1435 C   0  0  0  1  0  0  0  0  0  0  0  0
   -3.2876    5.5227   -0.3494 C   0  0  0  1  0  0  0  0  0  0  0  0
   -1.4180    2.6985    1.3331 C   0  0  0  1  0  0  0  0  0  0  0  0
   -3.0578    6.7744    2.7369 H   0  0  0  1  0  0  0  0  0  0  0  0
   -1.9040    4.6754    3.0960 H   0  0  0  1  0  0  0  0  0  0  0  0
   -2.5109    3.6507   -0.9304 H   0  0  0  1  0  0  0  0  0  0  0  0
   -3.6667    5.7534   -1.2900 H   0  0  0  1  0  0  0  0  0  0  0  0
   -1.6791    2.3316    2.3037 H   0  0  0  1  0  0  0  0  0  0  0  0
   -1.7436    2.0024    0.5886 H   0  0  0  1  0  0  0  0  0  0  0  0
  1  4  1  0  0  0  0
  2  4  1  0  0  0  0
  2  5  2  0  0  0  0
  2  6  1  0  0  0  0
  3  4  1  0  0  0  0
  3  7  1  0  0  0  0
  3  8  1  0  0  0  0
  4 26  1  0  0  0  0
  6  9  1  0  0  0  0
  6 12  1  0  0  0  0
  8 10  1  0  0  0  0
  8 11  2  0  0  0  0
  9 13  1  0  0  0  0
  9 14  1  0  0  0  0
  9 15  1  0  0  0  0
 10 16  1  0  0  0  0
 10 17  1  0  0  0  0
 10 18  1  0  0  0  0
 19 20  1  0  0  0  0
 20 21  4  0  0  0  0
 20 25  4  0  0  0  0
 21 22  4  0  0  0  0
 21 27  1  0  0  0  0
 22 23  4  0  0  0  0
 22 28  1  0  0  0  0
 23 24  4  0  0  0  0
 23 26  1  0  0  0  0
 24 25  4  0  0  0  0
 24 29  1  0  0  0  0
 25 30  1  0  0  0  0
 26 31  1  0  0  0  0
 26 32  1  0  0  0  0
M  END
> <BCLConfClusterSize>
1

> <ConfClashScore>
0 

> <ConfOneFourInteractionScore>
-0.990503 

> <ConfScore>
-0.0222197 

> <ConfScorePBest>
0.0050712 

> <ConfTolerance>
0.32132 

> <RosettaParamsInstructions>
M  ROOT 3
M  POLY_N_BB 3
M  POLY_CA_BB 4
M  POLY_C_BB 2
M  POLY_O_BB 5
M  POLY_IGNORE 9 10 11 12 13 14 15 16 17 18 
M  POLY_UPPER 6
M  POLY_LOWER 8
M  POLY_CHG 0
M  POLY_PROPERTIES ALPHA_AA L_AA PROTEIN AROMATIC POLYMER 
M  END

$$$$



 32 32  0  0  0  0  0  0  0  0999 V2000
   -1.5846    0.8850    2.4242 H   0  0  0  1  0  0  0  0  0  0  0  0
   -2.4355    2.4537    3.5862 C   0  0  0  1  0  0  0  0  0  0  0  0
   -3.4408    1.3652    1.6263 N   0  0  0  1  0  0  0  0  0  0  0  0
   -2.1844    1.7536    2.2494 C   0  0  0  1  0  0  0  0  0  0  0  0
   -1.5348    2.5576    4.4175 O   0  0  0  1  0  0  0  0  0  0  0  0
   -3.6513    2.9956    3.7141 N   0  0  0  1  0  0  0  0  0  0  0  0
   -3.7045    1.7945    0.7857 H   0  0  0  1  0  0  0  0  0  0  0  0
   -4.2474    0.4437    2.1604 C   0  0  0  1  0  0  0  0  0  0  0  0
   -4.0756    3.8382    4.8222 C   0  0  0  1  0  0  0  0  0  0  0  0
   -5.5298    0.1699    1.3990 C   0  0  0  1  0  0  0  0  0  0  0  0
   -3.9834   -0.1548    3.2024 O   0  0  0  1  0  0  0  0  0  0  0  0
   -4.3060    2.8114    3.0085 H   0  0  0  1  0  0  0  0  0  0  0  0
   -3.2206    4.3092    5.2605 H   0  0  0  1  0  0  0  0  0  0  0  0
   -4.5683    3.2378    5.5582 H   0  0  0  1  0  0  0  0  0  0  0  0
   -4.7499    4.5872    4.4626 H   0  0  0  1  0  0  0  0  0  0  0  0
   -5.9171    1.0882    1.0097 H   0  0  0  1  0  0  0  0  0  0  0  0
   -6.2490   -0.2692    2.0584 H   0  0  0  1  0  0  0  0  0  0  0  0
   -5.3283   -0.5027    0.5916 H   0  0  0  1  0  0  0  0  0  0  0  0
   -4.4301    8.0052    0.4437 Br  0  0  0  1  0  0  0  0  0  0  0  0
   -3.4402    6.4149    0.6951 C   0  0  0  1  0  0  0  0  0  0  0  0
   -2.9395    6.1049    1.9500 C   0  0  0  1  0  0  0  0  0  0  0  0
   -2.2831    4.9061    2.1555 C   0  0  0  1  0  0  0  0  0  0  0  0
   -2.1302    4.0114    1.1079 C   0  0  0  1  0  0  0  0  0  0  0  0
   -2.6293    4.3203   -0.1435 C   0  0  0  1  0  0  0  0  0  0  0  0
   -3.2876    5.5227   -0.3494 C   0  0  0  1  0  0  0  0  0  0  0  0
   -1.4180    2.6985    1.3331 C   0  0  0  1  0  0  0  0  0  0  0  0
   -3.0578    6.7744    2.7369 H   0  0  0  1  0  0  0  0  0  0  0  0
   -1.9040    4.6754    3.0960 H   0  0  0  1  0  0  0  0  0  0  0  0
   -2.5109    3.6507   -0.9304 H   0  0  0  1  0  0  0  0  0  0  0  0
   -3.6667    5.7534   -1.2900 H   0  0  0  1  0  0  0  0  0  0  0  0
   -1.2811    2.2186    0.3866 H   0  0  0  1  0  0  0  0  0  0  0  0
   -0.4636    2.8999    1.7729 H   0  0  0  1  0  0  0  0  0  0  0  0
  1  4  1  0  0  0  0
  2  4  1  0  0  0  0
  2  5  2  0  0  0  0
  2  6  1  0  0  0  0
  3  4  1  0  0  0  0
  3  7  1  0  0  0  0
  3  8  1  0  0  0  0
  4 26  1  0  0  0  0
  6  9  1  0  0  0  0
  6 12  1  0  0  0  0
  8 10  1  0  0  0  0
  8 11  2  0  0  0  0
  9 13  1  0  0  0  0
  9 14  1  0  0  0  0
  9 15  1  0  0  0  0
 10 16  1  0  0  0  0
 10 17  1  0  0  0  0
 10 18  1  0  0  0  0
 19 20  1  0  0  0  0
 20 21  4  0  0  0  0
 20 25  4  0  0  0  0
 21 22  4  0  0  0  0
 21 27  1  0  0  0  0
 22 23  4  0  0  0  0
 22 28  1  0  0  0  0
 23 24  4  0  0  0  0
 23 26  1  0  0  0  0
 24 25  4  0  0  0  0
 24 29  1  0  0  0  0
 25 30  1  0  0  0  0
 26 31  1  0  0  0  0
 26 32  1  0  0  0  0
M  END
> <BCLConfClusterSize>
1

> <ConfClashScore>
0 

> <ConfOneFourInteractionScore>
-0.957074 

> <ConfScore>
-0.017838 

> <ConfScorePBest>
0.00504272 

> <ConfTolerance>
0.274146 

> <RosettaParamsInstructions>
M  ROOT 3
M  POLY_N_BB 3
M  POLY_CA_BB 4
M  POLY_C_BB 2
M  POLY_O_BB 5
M  POLY_IGNORE 9 10 11 12 13 14 15 16 17 18 
M  POLY_UPPER 6
M  POLY_LOWER 8
M  POLY_CHG 0
M  POLY_PROPERTIES ALPHA_AA L_AA PROTEIN AROMATIC POLYMER 
M  END

$$$$



 32 32  0  0  0  0  0  0  0  0999 V2000
   -3.1098    1.7036    2.1397 H   0  0  0  1  0  0  0  0  0  0  0  0
   -1.4429    0.4564    2.5046 C   0  0  0  1  0  0  0  0  0  0  0  0
   -2.0104    2.5368    3.6796 N   0  0  0  1  0  0  0  0  0  0  0  0
   -2.0820    1.8324    2.4081 C   0  0  0  1  0  0  0  0  0  0  0  0
   -1.6085   -0.3748    1.6131 O   0  0  0  1  0  0  0  0  0  0  0  0
   -0.6453    0.2833    3.5639 N   0  0  0  1  0  0  0  0  0  0  0  0
   -1.3243    3.2260    3.8005 H   0  0  0  1  0  0  0  0  0  0  0  0
   -2.8475    2.2765    4.6878 C   0  0  0  1  0  0  0  0  0  0  0  0
    0.0199   -0.9818    3.8376 C   0  0  0  1  0  0  0  0  0  0  0  0
   -2.5552    2.9939    5.9861 C   0  0  0  1  0  0  0  0  0  0  0  0
   -3.8006    1.5053    4.5850 O   0  0  0  1  0  0  0  0  0  0  0  0
   -0.5039    1.0344    4.1773 H   0  0  0  1  0  0  0  0  0  0  0  0
    0.5219   -1.3197    2.9552 H   0  0  0  1  0  0  0  0  0  0  0  0
   -0.7062   -1.7092    4.1353 H   0  0  0  1  0  0  0  0  0  0  0  0
    0.7331   -0.8467    4.6237 H   0  0  0  1  0  0  0  0  0  0  0  0
   -1.4993    3.1347    6.0865 H   0  0  0  1  0  0  0  0  0  0  0  0
   -2.9163    2.4087    6.8059 H   0  0  0  1  0  0  0  0  0  0  0  0
   -3.0431    3.9462    5.9848 H   0  0  0  1  0  0  0  0  0  0  0  0
   -4.4301    8.0052    0.4437 Br  0  0  0  1  0  0  0  0  0  0  0  0
   -3.4402    6.4149    0.6951 C   0  0  0  1  0  0  0  0  0  0  0  0
   -2.9395    6.1049    1.9500 C   0  0  0  1  0  0  0  0  0  0  0  0
   -2.2831    4.9061    2.1555 C   0  0  0  1  0  0  0  0  0  0  0  0
   -2.1302    4.0114    1.1079 C   0  0  0  1  0  0  0  0  0  0  0  0
   -2.6293    4.3203   -0.1435 C   0  0  0  1  0  0  0  0  0  0  0  0
   -3.2876    5.5227   -0.3494 C   0  0  0  1  0  0  0  0  0  0  0  0
   -1.4180    2.6985    1.3331 C   0  0  0  1  0  0  0  0  0  0  0  0
   -3.0578    6.7744    2.7369 H   0  0  0  1  0  0  0  0  0  0  0  0
   -1.9040    4.6754    3.0960 H   0  0  0  1  0  0  0  0  0  0  0  0
   -2.5109    3.6507   -0.9304 H   0  0  0  1  0  0  0  0  0  0  0  0
   -3.6667    5.7534   -1.2900 H   0  0  0  1  0  0  0  0  0  0  0  0
   -1.4106    2.1528    0.4127 H   0  0  0  1  0  0  0  0  0  0  0  0
   -0.4122    2.9040    1.6347 H   0  0  0  1  0  0  0  0  0  0  0  0
  1  4  1  0  0  0  0
  2  4  1  0  0  0  0
  2  5  2  0  0  0  0
  2  6  1  0  0  0  0
  3  4  1  0  0  0  0
  3  7  1  0  0  0  0
  3  8  1  0  0  0  0
  4 26  1  0  0  0  0
  6  9  1  0  0  0  0
  6 12  1  0  0  0  0
  8 10  1  0  0  0  0
  8 11  2  0  0  0  0
  9 13  1  0  0  0  0
  9 14  1  0  0  0  0
  9 15  1  0  0  0  0
 10 16  1  0  0  0  0
 10 17  1  0  0  0  0
 10 18  1  0  0  0  0
 19 20  1  0  0  0  0
 20 21  4  0  0  0  0
 20 25  4  0  0  0  0
 21 22  4  0  0  0  0
 21 27  1  0  0  0  0
 22 23  4  0  0  0  0
 22 28  1  0  0  0  0
 23 24  4  0  0  0  0
 23 26  1  0  0  0  0
 24 25  4  0  0  0  0
 24 29  1  0  0  0  0
 25 30  1  0  0  0  0
 26 31  1  0  0  0  0
 26 32  1  0  0  0  0
M  END
> <BCLConfClusterSize>
1

> <ConfClashScore>
0 

> <ConfOneFourInteractionScore>
-0.956443 

> <ConfScore>
-0.0154315 

> <ConfScorePBest>
0.00501424 

> <ConfTolerance>
0.404714 

> <RosettaParamsInstructions>
M  ROOT 3
M  POLY_N_BB 3
M  POLY_CA_BB 4
M  POLY_C_BB 2
M  POLY_O_BB 5
M  POLY_IGNORE 9 10 11 12 13 14 15 16 17 18 
M  POLY_UPPER 6
M  POLY_LOWER 8
M  POLY_CHG 0
M  POLY_PROPERTIES ALPHA_AA L_AA PROTEIN AROMATIC POLYMER 
M  END

$$$$



 32 32  0  0  0  0  0  0  0  0999 V2000
   -2.9948    1.8725    2.4763 H   0  0  0  1  0  0  0  0  0  0  0  0
   -1.3799    0.5220    2.5961 C   0  0  0  1  0  0  0  0  0  0  0  0
   -1.6125    2.6025    3.8188 N   0  0  0  1  0  0  0  0  0  0  0  0
   -1.9305    1.9410    2.5622 C   0  0  0  1  0  0  0  0  0  0  0  0
   -0.3846    0.2430    3.2627 O   0  0  0  1  0  0  0  0  0  0  0  0
   -2.0863   -0.4042    1.9392 N   0  0  0  1  0  0  0  0  0  0  0  0
   -0.6869    2.8764    3.9881 H   0  0  0  1  0  0  0  0  0  0  0  0
   -2.5385    2.8494    4.7497 C   0  0  0  1  0  0  0  0  0  0  0  0
   -1.7445   -1.8170    1.8677 C   0  0  0  1  0  0  0  0  0  0  0  0
   -2.0327    3.4861    6.0295 C   0  0  0  1  0  0  0  0  0  0  0  0
   -3.7280    2.5846    4.5965 O   0  0  0  1  0  0  0  0  0  0  0  0
   -2.8949   -0.1094    1.4707 H   0  0  0  1  0  0  0  0  0  0  0  0
   -0.6802   -1.9271    1.8601 H   0  0  0  1  0  0  0  0  0  0  0  0
   -2.1527   -2.2376    0.9725 H   0  0  0  1  0  0  0  0  0  0  0  0
   -2.1493   -2.3251    2.7179 H   0  0  0  1  0  0  0  0  0  0  0  0
   -1.4631    4.3604    5.7926 H   0  0  0  1  0  0  0  0  0  0  0  0
   -1.4135    2.7887    6.5540 H   0  0  0  1  0  0  0  0  0  0  0  0
   -2.8644    3.7586    6.6450 H   0  0  0  1  0  0  0  0  0  0  0  0
   -4.4301    8.0052    0.4437 Br  0  0  0  1  0  0  0  0  0  0  0  0
   -3.4402    6.4149    0.6951 C   0  0  0  1  0  0  0  0  0  0  0  0
   -2.9395    6.1049    1.9500 C   0  0  0  1  0  0  0  0  0  0  0  0
   -2.2831    4.9061    2.1555 C   0  0  0  1  0  0  0  0  0  0  0  0
   -2.1302    4.0114    1.1079 C   0  0  0  1  0  0  0  0  0  0  0  0
   -2.6293    4.3203   -0.1435 C   0  0  0  1  0  0  0  0  0  0  0  0
   -3.2876    5.5227   -0.3494 C   0  0  0  1  0  0  0  0  0  0  0  0
   -1.4180    2.6985    1.3331 C   0  0  0  1  0  0  0  0  0  0  0  0
   -3.0578    6.7744    2.7369 H   0  0  0  1  0  0  0  0  0  0  0  0
   -1.9040    4.6754    3.0960 H   0  0  0  1  0  0  0  0  0  0  0  0
   -2.5109    3.6507   -0.9304 H   0  0  0  1  0  0  0  0  0  0  0  0
   -3.6667    5.7534   -1.2900 H   0  0  0  1  0  0  0  0  0  0  0  0
   -1.5590    2.0821    0.4699 H   0  0  0  1  0  0  0  0  0  0  0  0
   -0.3746    2.8953    1.4649 H   0  0  0  1  0  0  0  0  0  0  0  0
  1  4  1  0  0  0  0
  2  4  1  0  0  0  0
  2  5  2  0  0  0  0
  2  6  1  0  0  0  0
  3  4  1  0  0  0  0
  3  7  1  0  0  0  0
  3  8  1  0  0  0  0
  4 26  1  0  0  0  0
  6  9  1  0  0  0  0
  6 12  1  0  0  0  0
  8 10  1  0  0  0  0
  8 11  2  0  0  0  0
  9 13  1  0  0  0  0
  9 14  1  0  0  0  0
  9 15  1  0  0  0  0
 10 16  1  0  0  0  0
 10 17  1  0  0  0  0
 10 18  1  0  0  0  0
 19 20  1  0  0  0  0
 20 21  4  0  0  0  0
 20 25  4  0  0  0  0
 21 22  4  0  0  0  0
 21 27  1  0  0  0  0
 22 23  4  0  0  0  0
 22 28  1  0  0  0  0
 23 24  4  0  0  0  0
 23 26  1  0  0  0  0
 24 25  4  0  0  0  0
 24 29  1  0  0  0  0
 25 30  1  0  0  0  0
 26 31  1  0  0  0  0
 26 32  1  0  0  0  0
M  END
> <BCLConfClusterSize>
1

> <ConfClashScore>
0 

> <ConfOneFourInteractionScore>
-0.981931 

> <ConfScore>
-0.0150959 

> <ConfScorePBest>
0.00498576 

> <ConfTolerance>
0.316439 

> <RosettaParamsInstructions>
M  ROOT 3
M  POLY_N_BB 3
M  POLY_CA_BB 4
M  POLY_C_BB 2
M  POLY_O_BB 5
M  POLY_IGNORE 9 10 11 12 13 14 15 16 17 18 
M  POLY_UPPER 6
M  POLY_LOWER 8
M  POLY_CHG 0
M  POLY_PROPERTIES ALPHA_AA L_AA PROTEIN AROMATIC POLYMER 
M  END

$$$$



 32 32  0  0  0  0  0  0  0  0999 V2000
    0.5309    1.8693    1.3368 H   0  0  0  1  0  0  0  0  0  0  0  0
    0.0744    2.5117   -0.6414 C   0  0  0  1  0  0  0  0  0  0  0  0
    0.7196    3.9287    1.1871 N   0  0  0  1  0  0  0  0  0  0  0  0
    0.0186    2.6907    0.8810 C   0  0  0  1  0  0  0  0  0  0  0  0
    0.1589    1.3831   -1.1231 O   0  0  0  1  0  0  0  0  0  0  0  0
   -0.0597    3.6162   -1.3833 N   0  0  0  1  0  0  0  0  0  0  0  0
    0.2271    4.6911    1.5567 H   0  0  0  1  0  0  0  0  0  0  0  0
    2.0334    4.0281    0.9654 C   0  0  0  1  0  0  0  0  0  0  0  0
    0.0765    3.6007   -2.8322 C   0  0  0  1  0  0  0  0  0  0  0  0
    2.6711    5.3445    1.3650 C   0  0  0  1  0  0  0  0  0  0  0  0
    2.6941    3.1280    0.4739 O   0  0  0  1  0  0  0  0  0  0  0  0
   -0.2566    4.4655   -0.9359 H   0  0  0  1  0  0  0  0  0  0  0  0
    1.0579    3.2650   -3.0951 H   0  0  0  1  0  0  0  0  0  0  0  0
   -0.0770    4.5880   -3.2151 H   0  0  0  1  0  0  0  0  0  0  0  0
   -0.6512    2.9378   -3.2515 H   0  0  0  1  0  0  0  0  0  0  0  0
    2.7496    5.9784    0.5066 H   0  0  0  1  0  0  0  0  0  0  0  0
    3.6472    5.1613    1.7632 H   0  0  0  1  0  0  0  0  0  0  0  0
    2.0665    5.8227    2.1071 H   0  0  0  1  0  0  0  0  0  0  0  0
   -4.4284    8.0074    0.4539 Br  0  0  0  1  0  0  0  0  0  0  0  0
   -3.4402    6.4143    0.6940 C   0  0  0  1  0  0  0  0  0  0  0  0
   -2.9367    6.0968    1.9459 C   0  0  0  1  0  0  0  0  0  0  0  0
   -2.2816    4.8959    2.1431 C   0  0  0  1  0  0  0  0  0  0  0  0
   -2.1327    4.0067    1.0903 C   0  0  0  1  0  0  0  0  0  0  0  0
   -2.6346    4.3231   -0.1580 C   0  0  0  1  0  0  0  0  0  0  0  0
   -3.2917    5.5276   -0.3557 C   0  0  0  1  0  0  0  0  0  0  0  0
   -1.4070    2.7227    1.4163 C   0  0  0  1  0  0  0  0  0  0  0  0
   -3.0520    6.7622    2.7367 H   0  0  0  1  0  0  0  0  0  0  0  0
   -1.9003    4.6595    3.0814 H   0  0  0  1  0  0  0  0  0  0  0  0
   -2.5194    3.6576   -0.9489 H   0  0  0  1  0  0  0  0  0  0  0  0
   -3.6729    5.7640   -1.2940 H   0  0  0  1  0  0  0  0  0  0  0  0
   -1.3740    2.6108    2.4799 H   0  0  0  1  0  0  0  0  0  0  0  0
   -1.9501    1.9064    0.9879 H   0  0  0  1  0  0  0  0  0  0  0  0
  1  4  1  0  0  0  0
  2  4  1  0  0  0  0
  2  5  2  0  0  0  0
  2  6  1  0  0  0  0
  3  4  1  0  0  0  0
  3  7  1  0  0  0  0
  3  8  1  0  0  0  0
  4 26  1  0  0  0  0
  6  9  1  0  0  0  0
  6 12  1  0  0  0  0
  8 10  1  0  0  0  0
  8 11  2  0  0  0  0
  9 13  1  0  0  0  0
  9 14  1  0  0  0  0
  9 15  1  0  0  0  0
 10 16  1  0  0  0  0
 10 17  1  0  0  0  0
 10 18  1  0  0  0  0
 19 20  1  0  0  0  0
 20 21  4  0  0  0  0
 20 25  4  0  0  0  0
 21 22  4  0  0  0  0
 21 27  1  0  0  0  0
 22 23  4  0  0  0  0
 22 28  1  0  0  0  0
 23 24  4  0  0  0  0
 23 26  1  0  0  0  0
 24 25  4  0  0  0  0
 24 29  1  0  0  0  0
 25 30  1  0  0  0  0
 26 31  1  0  0  0  0
 26 32  1  0  0  0  0
M  END
> <BCLConfClusterSize>
1

> <ConfClashScore>
0 

> <ConfOneFourInteractionScore>
-0.931937 

> <ConfScore>
-0.00985164 

> <ConfScorePBest>
0.00495728 

> <ConfTolerance>
0.262894 

> <RosettaParamsInstructions>
M  ROOT 3
M  POLY_N_BB 3
M  POLY_CA_BB 4
M  POLY_C_BB 2
M  POLY_O_BB 5
M  POLY_IGNORE 9 10 11 12 13 14 15 16 17 18 
M  POLY_UPPER 6
M  POLY_LOWER 8
M  POLY_CHG 0
M  POLY_PROPERTIES ALPHA_AA L_AA PROTEIN AROMATIC POLYMER 
M  END

$$$$



 32 32  0  0  0  0  0  0  0  0999 V2000
    0.5088    1.8179    1.0383 H   0  0  0  1  0  0  0  0  0  0  0  0
    0.3709    3.6091   -0.1056 C   0  0  0  1  0  0  0  0  0  0  0  0
    0.7160    3.4787    2.2814 N   0  0  0  1  0  0  0  0  0  0  0  0
    0.0996    2.8001    1.1511 C   0  0  0  1  0  0  0  0  0  0  0  0
    0.5458    3.0476   -1.1860 O   0  0  0  1  0  0  0  0  0  0  0  0
    0.3119    4.9381    0.0594 N   0  0  0  1  0  0  0  0  0  0  0  0
    0.1041    3.8745    2.9366 H   0  0  0  1  0  0  0  0  0  0  0  0
    2.0212    3.6233    2.5272 C   0  0  0  1  0  0  0  0  0  0  0  0
    0.4718    5.8670   -1.0493 C   0  0  0  1  0  0  0  0  0  0  0  0
    2.3733    4.4051    3.7778 C   0  0  0  1  0  0  0  0  0  0  0  0
    2.8959    3.1590    1.7971 O   0  0  0  1  0  0  0  0  0  0  0  0
    0.1556    5.2966    0.9580 H   0  0  0  1  0  0  0  0  0  0  0  0
    1.2995    5.5616   -1.6547 H   0  0  0  1  0  0  0  0  0  0  0  0
    0.6530    6.8500   -0.6675 H   0  0  0  1  0  0  0  0  0  0  0  0
   -0.4197    5.8725   -1.6411 H   0  0  0  1  0  0  0  0  0  0  0  0
    3.3532    4.8222    3.6743 H   0  0  0  1  0  0  0  0  0  0  0  0
    2.3519    3.7513    4.6246 H   0  0  0  1  0  0  0  0  0  0  0  0
    1.6633    5.1934    3.9171 H   0  0  0  1  0  0  0  0  0  0  0  0
   -4.4301    8.0052    0.4437 Br  0  0  0  1  0  0  0  0  0  0  0  0
   -3.4402    6.4149    0.6951 C   0  0  0  1  0  0  0  0  0  0  0  0
   -2.9395    6.1049    1.9500 C   0  0  0  1  0  0  0  0  0  0  0  0
   -2.2831    4.9061    2.1555 C   0  0  0  1  0  0  0  0  0  0  0  0
   -2.1302    4.0114    1.1079 C   0  0  0  1  0  0  0  0  0  0  0  0
   -2.6293    4.3203   -0.1435 C   0  0  0  1  0  0  0  0  0  0  0  0
   -3.2876    5.5227   -0.3494 C   0  0  0  1  0  0  0  0  0  0  0  0
   -1.4180    2.6985    1.3331 C   0  0  0  1  0  0  0  0  0  0  0  0
   -3.0578    6.7744    2.7369 H   0  0  0  1  0  0  0  0  0  0  0  0
   -1.9040    4.6754    3.0960 H   0  0  0  1  0  0  0  0  0  0  0  0
   -2.5109    3.6507   -0.9304 H   0  0  0  1  0  0  0  0  0  0  0  0
   -3.6667    5.7534   -1.2900 H   0  0  0  1  0  0  0  0  0  0  0  0
   -1.6201    2.3683    2.3306 H   0  0  0  1  0  0  0  0  0  0  0  0
   -1.7974    1.9812    0.6356 H   0  0  0  1  0  0  0  0  0  0  0  0
  1  4  1  0  0  0  0
  2  4  1  0  0  0  0
  2  5  2  0  0  0  0
  2  6  1  0  0  0  0
  3  4  1  0  0  0  0
  3  7  1  0  0  0  0
  3  8  1  0  0  0  0
  4 26  1  0  0  0  0
  6  9  1  0  0  0  0
  6 12  1  0  0  0  0
  8 10  1  0  0  0  0
  8 11  2  0  0  0  0
  9 13  1  0  0  0  0
  9 14  1  0  0  0  0
  9 15  1  0  0  0  0
 10 16  1  0  0  0  0
 10 17  1  0  0  0  0
 10 18  1  0  0  0  0
 19 20  1  0  0  0  0
 20 21  4  0  0  0  0
 20 25  4  0  0  0  0
 21 22  4  0  0  0  0
 21 27  1  0  0  0  0
 22 23  4  0  0  0  0
 22 28  1  0  0  0  0
 23 24  4  0  0  0  0
 23 26  1  0  0  0  0
 24 25  4  0  0  0  0
 24 29  1  0  0  0  0
 25 30  1  0  0  0  0
 26 31  1  0  0  0  0
 26 32  1  0  0  0  0
M  END
> <BCLConfClusterSize>
1

> <ConfClashScore>
0 

> <ConfOneFourInteractionScore>
-0.950025 

> <ConfScore>
-0.00835211 

> <ConfScorePBest>
0.0049288 

> <ConfTolerance>
0.287225 

> <RosettaParamsInstructions>
M  ROOT 3
M  POLY_N_BB 3
M  POLY_CA_BB 4
M  POLY_C_BB 2
M  POLY_O_BB 5
M  POLY_IGNORE 9 10 11 12 13 14 15 16 17 18 
M  POLY_UPPER 6
M  POLY_LOWER 8
M  POLY_CHG 0
M  POLY_PROPERTIES ALPHA_AA L_AA PROTEIN AROMATIC POLYMER 
M  END

$$$$



 32 32  0  0  0  0  0  0  0  0999 V2000
   -2.8114    1.7084    2.5379 H   0  0  0  1  0  0  0  0  0  0  0  0
   -3.2889    1.2435    0.5442 C   0  0  0  1  0  0  0  0  0  0  0  0
   -1.3847    0.3640    1.9218 N   0  0  0  1  0  0  0  0  0  0  0  0
   -2.2664    1.4879    1.6438 C   0  0  0  1  0  0  0  0  0  0  0  0
   -2.9747    0.6739   -0.4997 O   0  0  0  1  0  0  0  0  0  0  0  0
   -4.5489    1.5999    0.8159 N   0  0  0  1  0  0  0  0  0  0  0  0
   -0.4208    0.5256    1.9939 H   0  0  0  1  0  0  0  0  0  0  0  0
   -1.8541   -0.9088    2.0857 C   0  0  0  1  0  0  0  0  0  0  0  0
   -5.6355    1.3969   -0.1306 C   0  0  0  1  0  0  0  0  0  0  0  0
   -0.7934   -1.8914    2.5424 C   0  0  0  1  0  0  0  0  0  0  0  0
   -3.0203   -1.2003    1.8775 O   0  0  0  1  0  0  0  0  0  0  0  0
   -4.7474    2.0121    1.6826 H   0  0  0  1  0  0  0  0  0  0  0  0
   -5.8038    0.3484   -0.2617 H   0  0  0  1  0  0  0  0  0  0  0  0
   -5.3758    1.8365   -1.0710 H   0  0  0  1  0  0  0  0  0  0  0  0
   -6.5258    1.8566    0.2448 H   0  0  0  1  0  0  0  0  0  0  0  0
    0.1362   -1.6608    2.0654 H   0  0  0  1  0  0  0  0  0  0  0  0
   -1.0916   -2.8851    2.2805 H   0  0  0  1  0  0  0  0  0  0  0  0
   -0.6763   -1.8217    3.6037 H   0  0  0  1  0  0  0  0  0  0  0  0
   -4.4301    8.0052    0.4437 Br  0  0  0  1  0  0  0  0  0  0  0  0
   -3.4402    6.4149    0.6951 C   0  0  0  1  0  0  0  0  0  0  0  0
   -2.9395    6.1049    1.9500 C   0  0  0  1  0  0  0  0  0  0  0  0
   -2.2831    4.9061    2.1555 C   0  0  0  1  0  0  0  0  0  0  0  0
   -2.1302    4.0114    1.1079 C   0  0  0  1  0  0  0  0  0  0  0  0
   -2.6293    4.3203   -0.1435 C   0  0  0  1  0  0  0  0  0  0  0  0
   -3.2876    5.5227   -0.3494 C   0  0  0  1  0  0  0  0  0  0  0  0
   -1.4180    2.6985    1.3331 C   0  0  0  1  0  0  0  0  0  0  0  0
   -3.0578    6.7744    2.7369 H   0  0  0  1  0  0  0  0  0  0  0  0
   -1.9040    4.6754    3.0960 H   0  0  0  1  0  0  0  0  0  0  0  0
   -2.5109    3.6507   -0.9304 H   0  0  0  1  0  0  0  0  0  0  0  0
   -3.6667    5.7534   -1.2900 H   0  0  0  1  0  0  0  0  0  0  0  0
   -0.8611    2.4800    0.4460 H   0  0  0  1  0  0  0  0  0  0  0  0
   -0.7443    2.8363    2.1529 H   0  0  0  1  0  0  0  0  0  0  0  0
  1  4  1  0  0  0  0
  2  4  1  0  0  0  0
  2  5  2  0  0  0  0
  2  6  1  0  0  0  0
  3  4  1  0  0  0  0
  3  7  1  0  0  0  0
  3  8  1  0  0  0  0
  4 26  1  0  0  0  0
  6  9  1  0  0  0  0
  6 12  1  0  0  0  0
  8 10  1  0  0  0  0
  8 11  2  0  0  0  0
  9 13  1  0  0  0  0
  9 14  1  0  0  0  0
  9 15  1  0  0  0  0
 10 16  1  0  0  0  0
 10 17  1  0  0  0  0
 10 18  1  0  0  0  0
 19 20  1  0  0  0  0
 20 21  4  0  0  0  0
 20 25  4  0  0  0  0
 21 22  4  0  0  0  0
 21 27  1  0  0  0  0
 22 23  4  0  0  0  0
 22 28  1  0  0  0  0
 23 24  4  0  0  0  0
 23 26  1  0  0  0  0
 24 25  4  0  0  0  0
 24 29  1  0  0  0  0
 25 30  1  0  0  0  0
 26 31  1  0  0  0  0
 26 32  1  0  0  0  0
M  END
> <BCLConfClusterSize>
1

> <ConfClashScore>
0 

> <ConfOneFourInteractionScore>
-0.985807 

> <ConfScore>
-0.00580554 

> <ConfScorePBest>
0.00490032 

> <ConfTolerance>
0.30201 

> <RosettaParamsInstructions>
M  ROOT 3
M  POLY_N_BB 3
M  POLY_CA_BB 4
M  POLY_C_BB 2
M  POLY_O_BB 5
M  POLY_IGNORE 9 10 11 12 13 14 15 16 17 18 
M  POLY_UPPER 6
M  POLY_LOWER 8
M  POLY_CHG 0
M  POLY_PROPERTIES ALPHA_AA L_AA PROTEIN AROMATIC POLYMER 
M  END

$$$$



 32 32  0  0  0  0  0  0  0  0999 V2000
   -2.0122    2.6048    3.3944 H   0  0  0  1  0  0  0  0  0  0  0  0
   -0.5765    1.0864    3.1137 C   0  0  0  1  0  0  0  0  0  0  0  0
   -0.1356    3.4395    3.4355 N   0  0  0  1  0  0  0  0  0  0  0  0
   -1.0911    2.5055    2.8590 C   0  0  0  1  0  0  0  0  0  0  0  0
    0.6276    0.8564    3.2154 O   0  0  0  1  0  0  0  0  0  0  0  0
   -1.5048    0.1447    3.3050 N   0  0  0  1  0  0  0  0  0  0  0  0
    0.6747    3.6348    2.9200 H   0  0  0  1  0  0  0  0  0  0  0  0
   -0.2796    4.0500    4.6127 C   0  0  0  1  0  0  0  0  0  0  0  0
   -1.1607   -1.2494    3.5416 C   0  0  0  1  0  0  0  0  0  0  0  0
    0.8530    4.9725    5.0192 C   0  0  0  1  0  0  0  0  0  0  0  0
   -1.2614    3.8872    5.3361 O   0  0  0  1  0  0  0  0  0  0  0  0
   -2.4503    0.4017    3.2852 H   0  0  0  1  0  0  0  0  0  0  0  0
   -0.6726   -1.3409    4.4894 H   0  0  0  1  0  0  0  0  0  0  0  0
   -0.5045   -1.5907    2.7684 H   0  0  0  1  0  0  0  0  0  0  0  0
   -2.0519   -1.8415    3.5410 H   0  0  0  1  0  0  0  0  0  0  0  0
    1.7872    4.4641    4.9027 H   0  0  0  1  0  0  0  0  0  0  0  0
    0.7289    5.2599    6.0424 H   0  0  0  1  0  0  0  0  0  0  0  0
    0.8422    5.8447    4.3995 H   0  0  0  1  0  0  0  0  0  0  0  0
   -4.4293    8.0064    0.4488 Br  0  0  0  1  0  0  0  0  0  0  0  0
   -3.4402    6.4147    0.6945 C   0  0  0  1  0  0  0  0  0  0  0  0
   -2.9381    6.1009    1.9479 C   0  0  0  1  0  0  0  0  0  0  0  0
   -2.2824    4.9010    2.1493 C   0  0  0  1  0  0  0  0  0  0  0  0
   -2.1315    4.0091    1.0990 C   0  0  0  1  0  0  0  0  0  0  0  0
   -2.6320    4.3218   -0.1508 C   0  0  0  1  0  0  0  0  0  0  0  0
   -3.2897    5.5252   -0.3526 C   0  0  0  1  0  0  0  0  0  0  0  0
   -1.4121    2.7100    1.3751 C   0  0  0  1  0  0  0  0  0  0  0  0
   -3.0549    6.7683    2.7368 H   0  0  0  1  0  0  0  0  0  0  0  0
   -1.9022    4.6674    3.0887 H   0  0  0  1  0  0  0  0  0  0  0  0
   -2.5152    3.6543   -0.9397 H   0  0  0  1  0  0  0  0  0  0  0  0
   -3.6699    5.7589   -1.2920 H   0  0  0  1  0  0  0  0  0  0  0  0
   -2.0307    1.9014    1.0459 H   0  0  0  1  0  0  0  0  0  0  0  0
   -0.4947    2.7049    0.8244 H   0  0  0  1  0  0  0  0  0  0  0  0
  1  4  1  0  0  0  0
  2  4  1  0  0  0  0
  2  5  2  0  0  0  0
  2  6  1  0  0  0  0
  3  4  1  0  0  0  0
  3  7  1  0  0  0  0
  3  8  1  0  0  0  0
  4 26  1  0  0  0  0
  6  9  1  0  0  0  0
  6 12  1  0  0  0  0
  8 10  1  0  0  0  0
  8 11  2  0  0  0  0
  9 13  1  0  0  0  0
  9 14  1  0  0  0  0
  9 15  1  0  0  0  0
 10 16  1  0  0  0  0
 10 17  1  0  0  0  0
 10 18  1  0  0  0  0
 19 20  1  0  0  0  0
 20 21  4  0  0  0  0
 20 25  4  0  0  0  0
 21 22  4  0  0  0  0
 21 27  1  0  0  0  0
 22 23  4  0  0  0  0
 22 28  1  0  0  0  0
 23 24  4  0  0  0  0
 23 26  1  0  0  0  0
 24 25  4  0  0  0  0
 24 29  1  0  0  0  0
 25 30  1  0  0  0  0
 26 31  1  0  0  0  0
 26 32  1  0  0  0  0
M  END
> <BCLConfClusterSize>
1

> <ConfClashScore>
0 

> <ConfOneFourInteractionScore>
-0.976378 

> <ConfScore>
0.00157315 

> <ConfScorePBest>
0.00487184 

> <ConfTolerance>
0.294199 

> <RosettaParamsInstructions>
M  ROOT 3
M  POLY_N_BB 3
M  POLY_CA_BB 4
M  POLY_C_BB 2
M  POLY_O_BB 5
M  POLY_IGNORE 9 10 11 12 13 14 15 16 17 18 
M  POLY_UPPER 6
M  POLY_LOWER 8
M  POLY_CHG 0
M  POLY_PROPERTIES ALPHA_AA L_AA PROTEIN AROMATIC POLYMER 
M  END

$$$$



 32 32  0  0  0  0  0  0  0  0999 V2000
   -2.0957    1.7890   -0.4588 H   0  0  0  1  0  0  0  0  0  0  0  0
   -0.1430    2.5771   -0.7965 C   0  0  0  1  0  0  0  0  0  0  0  0
   -0.7136    0.5376    0.4542 N   0  0  0  1  0  0  0  0  0  0  0  0
   -1.1772    1.8654    0.0848 C   0  0  0  1  0  0  0  0  0  0  0  0
   -0.5120    3.4064   -1.6266 O   0  0  0  1  0  0  0  0  0  0  0  0
    1.1442    2.3111   -0.5497 N   0  0  0  1  0  0  0  0  0  0  0  0
   -0.7391    0.2541    1.3920 H   0  0  0  1  0  0  0  0  0  0  0  0
   -0.2530   -0.2967   -0.4821 C   0  0  0  1  0  0  0  0  0  0  0  0
    2.2230    2.9010   -1.3281 C   0  0  0  1  0  0  0  0  0  0  0  0
    0.2136   -1.6765   -0.0173 C   0  0  0  1  0  0  0  0  0  0  0  0
   -0.1226    0.0387   -1.6564 O   0  0  0  1  0  0  0  0  0  0  0  0
    1.3687    1.6976    0.1808 H   0  0  0  1  0  0  0  0  0  0  0  0
    1.8109    3.4918   -2.1193 H   0  0  0  1  0  0  0  0  0  0  0  0
    2.8298    2.1233   -1.7428 H   0  0  0  1  0  0  0  0  0  0  0  0
    2.8216    3.5216   -0.6945 H   0  0  0  1  0  0  0  0  0  0  0  0
    1.2000   -1.8634   -0.3874 H   0  0  0  1  0  0  0  0  0  0  0  0
   -0.4549   -2.4235   -0.3914 H   0  0  0  1  0  0  0  0  0  0  0  0
    0.2222   -1.7082    1.0522 H   0  0  0  1  0  0  0  0  0  0  0  0
   -4.4301    8.0052    0.4437 Br  0  0  0  1  0  0  0  0  0  0  0  0
   -3.4402    6.4149    0.6951 C   0  0  0  1  0  0  0  0  0  0  0  0
   -2.9395    6.1049    1.9500 C   0  0  0  1  0  0  0  0  0  0  0  0
   -2.2831    4.9061    2.1555 C   0  0  0  1  0  0  0  0  0  0  0  0
   -2.1302    4.0114    1.1079 C   0  0  0  1  0  0  0  0  0  0  0  0
   -2.6293    4.3203   -0.1435 C   0  0  0  1  0  0  0  0  0  0  0  0
   -3.2876    5.5227   -0.3494 C   0  0  0  1  0  0  0  0  0  0  0  0
   -1.4180    2.6985    1.3331 C   0  0  0  1  0  0  0  0  0  0  0  0
   -3.0578    6.7744    2.7369 H   0  0  0  1  0  0  0  0  0  0  0  0
   -1.9040    4.6754    3.0960 H   0  0  0  1  0  0  0  0  0  0  0  0
   -2.5109    3.6507   -0.9304 H   0  0  0  1  0  0  0  0  0  0  0  0
   -3.6667    5.7534   -1.2900 H   0  0  0  1  0  0  0  0  0  0  0  0
   -0.4678    2.9104    1.7770 H   0  0  0  1  0  0  0  0  0  0  0  0
   -2.0066    2.1157    2.0104 H   0  0  0  1  0  0  0  0  0  0  0  0
  1  4  1  0  0  0  0
  2  4  1  0  0  0  0
  2  5  2  0  0  0  0
  2  6  1  0  0  0  0
  3  4  1  0  0  0  0
  3  7  1  0  0  0  0
  3  8  1  0  0  0  0
  4 26  1  0  0  0  0
  6  9  1  0  0  0  0
  6 12  1  0  0  0  0
  8 10  1  0  0  0  0
  8 11  2  0  0  0  0
  9 13  1  0  0  0  0
  9 14  1  0  0  0  0
  9 15  1  0  0  0  0
 10 16  1  0  0  0  0
 10 17  1  0  0  0  0
 10 18  1  0  0  0  0
 19 20  1  0  0  0  0
 20 21  4  0  0  0  0
 20 25  4  0  0  0  0
 21 22  4  0  0  0  0
 21 27  1  0  0  0  0
 22 23  4  0  0  0  0
 22 28  1  0  0  0  0
 23 24  4  0  0  0  0
 23 26  1  0  0  0  0
 24 25  4  0  0  0  0
 24 29  1  0  0  0  0
 25 30  1  0  0  0  0
 26 31  1  0  0  0  0
 26 32  1  0  0  0  0
M  END
> <BCLConfClusterSize>
1

> <ConfClashScore>
0 

> <ConfOneFourInteractionScore>
-0.952877 

> <ConfScore>
0.00296714 

> <ConfScorePBest>
0.00484336 

> <ConfTolerance>
0.517219 

> <RosettaParamsInstructions>
M  ROOT 3
M  POLY_N_BB 3
M  POLY_CA_BB 4
M  POLY_C_BB 2
M  POLY_O_BB 5
M  POLY_IGNORE 9 10 11 12 13 14 15 16 17 18 
M  POLY_UPPER 6
M  POLY_LOWER 8
M  POLY_CHG 0
M  POLY_PROPERTIES ALPHA_AA L_AA PROTEIN AROMATIC POLYMER 
M  END

$$$$



 32 32  0  0  0  0  0  0  0  0999 V2000
   -2.9152    1.2918    1.4957 H   0  0  0  1  0  0  0  0  0  0  0  0
   -1.1693    0.5633    2.4805 C   0  0  0  1  0  0  0  0  0  0  0  0
   -2.7099    2.1960    3.3610 N   0  0  0  1  0  0  0  0  0  0  0  0
   -2.1419    1.6830    2.1233 C   0  0  0  1  0  0  0  0  0  0  0  0
   -0.2350    0.7851    3.2492 O   0  0  0  1  0  0  0  0  0  0  0  0
   -1.4428   -0.6538    1.9898 N   0  0  0  1  0  0  0  0  0  0  0  0
   -2.2972    2.9789    3.7820 H   0  0  0  1  0  0  0  0  0  0  0  0
   -3.7744    1.6369    3.9434 C   0  0  0  1  0  0  0  0  0  0  0  0
   -0.6078   -1.8117    2.2728 C   0  0  0  1  0  0  0  0  0  0  0  0
   -4.2602    2.3096    5.2126 C   0  0  0  1  0  0  0  0  0  0  0  0
   -4.3377    0.6400    3.4934 O   0  0  0  1  0  0  0  0  0  0  0  0
   -2.2324   -0.7679    1.4207 H   0  0  0  1  0  0  0  0  0  0  0  0
    0.4217   -1.5202    2.2646 H   0  0  0  1  0  0  0  0  0  0  0  0
   -0.7722   -2.5606    1.5265 H   0  0  0  1  0  0  0  0  0  0  0  0
   -0.8591   -2.2055    3.2354 H   0  0  0  1  0  0  0  0  0  0  0  0
   -4.9287    3.1063    4.9611 H   0  0  0  1  0  0  0  0  0  0  0  0
   -3.4229    2.7032    5.7502 H   0  0  0  1  0  0  0  0  0  0  0  0
   -4.7716    1.5941    5.8219 H   0  0  0  1  0  0  0  0  0  0  0  0
   -4.4104    8.0163    0.4421 Br  0  0  0  1  0  0  0  0  0  0  0  0
   -3.4362    6.4164    0.6936 C   0  0  0  1  0  0  0  0  0  0  0  0
   -2.9399    6.1008    1.9488 C   0  0  0  1  0  0  0  0  0  0  0  0
   -2.2954    4.8956    2.1543 C   0  0  0  1  0  0  0  0  0  0  0  0
   -2.1498    4.0001    1.1063 C   0  0  0  1  0  0  0  0  0  0  0  0
   -2.6445    4.3146   -0.1454 C   0  0  0  1  0  0  0  0  0  0  0  0
   -3.2910    5.5234   -0.3513 C   0  0  0  1  0  0  0  0  0  0  0  0
   -1.3595    2.7362    1.3498 C   0  0  0  1  0  0  0  0  0  0  0  0
   -3.0527    6.7709    2.7361 H   0  0  0  1  0  0  0  0  0  0  0  0
   -1.9195    4.6606    3.0951 H   0  0  0  1  0  0  0  0  0  0  0  0
   -2.5318    3.6444   -0.9326 H   0  0  0  1  0  0  0  0  0  0  0  0
   -3.6668    5.7584   -1.2921 H   0  0  0  1  0  0  0  0  0  0  0  0
   -1.0766    2.3239    0.4039 H   0  0  0  1  0  0  0  0  0  0  0  0
   -0.4812    2.9859    1.9076 H   0  0  0  1  0  0  0  0  0  0  0  0
  1  4  1  0  0  0  0
  2  4  1  0  0  0  0
  2  5  2  0  0  0  0
  2  6  1  0  0  0  0
  3  4  1  0  0  0  0
  3  7  1  0  0  0  0
  3  8  1  0  0  0  0
  4 26  1  0  0  0  0
  6  9  1  0  0  0  0
  6 12  1  0  0  0  0
  8 10  1  0  0  0  0
  8 11  2  0  0  0  0
  9 13  1  0  0  0  0
  9 14  1  0  0  0  0
  9 15  1  0  0  0  0
 10 16  1  0  0  0  0
 10 17  1  0  0  0  0
 10 18  1  0  0  0  0
 19 20  1  0  0  0  0
 20 21  4  0  0  0  0
 20 25  4  0  0  0  0
 21 22  4  0  0  0  0
 21 27  1  0  0  0  0
 22 23  4  0  0  0  0
 22 28  1  0  0  0  0
 23 24  4  0  0  0  0
 23 26  1  0  0  0  0
 24 25  4  0  0  0  0
 24 29  1  0  0  0  0
 25 30  1  0  0  0  0
 26 31  1  0  0  0  0
 26 32  1  0  0  0  0
M  END
> <BCLConfClusterSize>
1

> <ConfClashScore>
0 

> <ConfOneFourInteractionScore>
-0.985807 

> <ConfScore>
0.00367847 

> <ConfScorePBest>
0.00481488 

> <ConfTolerance>
0.327106 

> <RosettaParamsInstructions>
M  ROOT 3
M  POLY_N_BB 3
M  POLY_CA_BB 4
M  POLY_C_BB 2
M  POLY_O_BB 5
M  POLY_IGNORE 9 10 11 12 13 14 15 16 17 18 
M  POLY_UPPER 6
M  POLY_LOWER 8
M  POLY_CHG 0
M  POLY_PROPERTIES ALPHA_AA L_AA PROTEIN AROMATIC POLYMER 
M  END

$$$$



 32 32  0  0  0  0  0  0  0  0999 V2000
   -2.1711    2.3855    3.2694 H   0  0  0  1  0  0  0  0  0  0  0  0
   -3.5197    1.4100    1.9899 C   0  0  0  1  0  0  0  0  0  0  0  0
   -1.2487    0.6550    2.6283 N   0  0  0  1  0  0  0  0  0  0  0  0
   -2.1065    1.8159    2.3659 C   0  0  0  1  0  0  0  0  0  0  0  0
   -3.7062    0.6369    1.0515 O   0  0  0  1  0  0  0  0  0  0  0  0
   -4.5050    1.8615    2.7733 N   0  0  0  1  0  0  0  0  0  0  0  0
   -1.0759   -0.0118    1.9311 H   0  0  0  1  0  0  0  0  0  0  0  0
   -0.7044    0.5314    3.8566 C   0  0  0  1  0  0  0  0  0  0  0  0
   -5.9034    1.5452    2.5239 C   0  0  0  1  0  0  0  0  0  0  0  0
    0.3185   -0.5765    4.0154 C   0  0  0  1  0  0  0  0  0  0  0  0
   -1.0062    1.2617    4.7996 O   0  0  0  1  0  0  0  0  0  0  0  0
   -4.2774    2.4249    3.5422 H   0  0  0  1  0  0  0  0  0  0  0  0
   -6.2225    2.0240    1.6217 H   0  0  0  1  0  0  0  0  0  0  0  0
   -6.4990    1.8932    3.3419 H   0  0  0  1  0  0  0  0  0  0  0  0
   -6.0171    0.4859    2.4246 H   0  0  0  1  0  0  0  0  0  0  0  0
   -0.1626   -1.5256    3.9032 H   0  0  0  1  0  0  0  0  0  0  0  0
    0.7629   -0.5148    4.9869 H   0  0  0  1  0  0  0  0  0  0  0  0
    1.0772   -0.4710    3.2683 H   0  0  0  1  0  0  0  0  0  0  0  0
   -4.4301    8.0052    0.4437 Br  0  0  0  1  0  0  0  0  0  0  0  0
   -3.4402    6.4149    0.6951 C   0  0  0  1  0  0  0  0  0  0  0  0
   -2.9395    6.1049    1.9500 C   0  0  0  1  0  0  0  0  0  0  0  0
   -2.2831    4.9061    2.1555 C   0  0  0  1  0  0  0  0  0  0  0  0
   -2.1302    4.0114    1.1079 C   0  0  0  1  0  0  0  0  0  0  0  0
   -2.6293    4.3203   -0.1435 C   0  0  0  1  0  0  0  0  0  0  0  0
   -3.2876    5.5227   -0.3494 C   0  0  0  1  0  0  0  0  0  0  0  0
   -1.4180    2.6985    1.3331 C   0  0  0  1  0  0  0  0  0  0  0  0
   -3.0578    6.7744    2.7369 H   0  0  0  1  0  0  0  0  0  0  0  0
   -1.9040    4.6754    3.0960 H   0  0  0  1  0  0  0  0  0  0  0  0
   -2.5109    3.6507   -0.9304 H   0  0  0  1  0  0  0  0  0  0  0  0
   -3.6667    5.7534   -1.2900 H   0  0  0  1  0  0  0  0  0  0  0  0
   -1.3786    2.1687    0.4043 H   0  0  0  1  0  0  0  0  0  0  0  0
   -0.4233    2.9040    1.6696 H   0  0  0  1  0  0  0  0  0  0  0  0
  1  4  1  0  0  0  0
  2  4  1  0  0  0  0
  2  5  2  0  0  0  0
  2  6  1  0  0  0  0
  3  4  1  0  0  0  0
  3  7  1  0  0  0  0
  3  8  1  0  0  0  0
  4 26  1  0  0  0  0
  6  9  1  0  0  0  0
  6 12  1  0  0  0  0
  8 10  1  0  0  0  0
  8 11  2  0  0  0  0
  9 13  1  0  0  0  0
  9 14  1  0  0  0  0
  9 15  1  0  0  0  0
 10 16  1  0  0  0  0
 10 17  1  0  0  0  0
 10 18  1  0  0  0  0
 19 20  1  0  0  0  0
 20 21  4  0  0  0  0
 20 25  4  0  0  0  0
 21 22  4  0  0  0  0
 21 27  1  0  0  0  0
 22 23  4  0  0  0  0
 22 28  1  0  0  0  0
 23 24  4  0  0  0  0
 23 26  1  0  0  0  0
 24 25  4  0  0  0  0
 24 29  1  0  0  0  0
 25 30  1  0  0  0  0
 26 31  1  0  0  0  0
 26 32  1  0  0  0  0
M  END
> <BCLConfClusterSize>
1

> <ConfClashScore>
0 

> <ConfOneFourInteractionScore>
-0.985807 

> <ConfScore>
0.0040295 

> <ConfScorePBest>
0.00478639 

> <ConfTolerance>
0.330909 

> <RosettaParamsInstructions>
M  ROOT 3
M  POLY_N_BB 3
M  POLY_CA_BB 4
M  POLY_C_BB 2
M  POLY_O_BB 5
M  POLY_IGNORE 9 10 11 12 13 14 15 16 17 18 
M  POLY_UPPER 6
M  POLY_LOWER 8
M  POLY_CHG 0
M  POLY_PROPERTIES ALPHA_AA L_AA PROTEIN AROMATIC POLYMER 
M  END

$$$$



 32 32  0  0  0  0  0  0  0  0999 V2000
    0.5463    1.9541    1.5809 H   0  0  0  1  0  0  0  0  0  0  0  0
    0.3210    2.5439   -0.4228 C   0  0  0  1  0  0  0  0  0  0  0  0
    0.7230    3.9961    1.5223 N   0  0  0  1  0  0  0  0  0  0  0  0
    0.0837    2.7706    1.0669 C   0  0  0  1  0  0  0  0  0  0  0  0
    0.5717    3.4835   -1.1760 O   0  0  0  1  0  0  0  0  0  0  0  0
    0.3281    1.2688   -0.8365 N   0  0  0  1  0  0  0  0  0  0  0  0
    0.8731    4.7190    0.8778 H   0  0  0  1  0  0  0  0  0  0  0  0
    1.1126    4.1699    2.7884 C   0  0  0  1  0  0  0  0  0  0  0  0
    0.6332    0.8342   -2.1915 C   0  0  0  1  0  0  0  0  0  0  0  0
    1.7319    5.5165    3.1081 C   0  0  0  1  0  0  0  0  0  0  0  0
    0.9853    3.3058    3.6519 O   0  0  0  1  0  0  0  0  0  0  0  0
    0.1115    0.5772   -0.1769 H   0  0  0  1  0  0  0  0  0  0  0  0
   -0.2447    0.4171   -2.6390 H   0  0  0  1  0  0  0  0  0  0  0  0
    1.4049    0.0936   -2.1630 H   0  0  0  1  0  0  0  0  0  0  0  0
    0.9636    1.6724   -2.7687 H   0  0  0  1  0  0  0  0  0  0  0  0
    1.0034    6.2873    2.9667 H   0  0  0  1  0  0  0  0  0  0  0  0
    2.5643    5.6893    2.4583 H   0  0  0  1  0  0  0  0  0  0  0  0
    2.0651    5.5232    4.1249 H   0  0  0  1  0  0  0  0  0  0  0  0
   -4.4284    8.0074    0.4539 Br  0  0  0  1  0  0  0  0  0  0  0  0
   -3.4402    6.4143    0.6940 C   0  0  0  1  0  0  0  0  0  0  0  0
   -2.9367    6.0968    1.9459 C   0  0  0  1  0  0  0  0  0  0  0  0
   -2.2816    4.8959    2.1431 C   0  0  0  1  0  0  0  0  0  0  0  0
   -2.1327    4.0067    1.0903 C   0  0  0  1  0  0  0  0  0  0  0  0
   -2.6346    4.3231   -0.1580 C   0  0  0  1  0  0  0  0  0  0  0  0
   -3.2917    5.5276   -0.3557 C   0  0  0  1  0  0  0  0  0  0  0  0
   -1.4070    2.7227    1.4163 C   0  0  0  1  0  0  0  0  0  0  0  0
   -3.0520    6.7622    2.7367 H   0  0  0  1  0  0  0  0  0  0  0  0
   -1.9003    4.6595    3.0814 H   0  0  0  1  0  0  0  0  0  0  0  0
   -2.5194    3.6576   -0.9489 H   0  0  0  1  0  0  0  0  0  0  0  0
   -3.6729    5.7640   -1.2940 H   0  0  0  1  0  0  0  0  0  0  0  0
   -1.5051    2.5328    2.4647 H   0  0  0  1  0  0  0  0  0  0  0  0
   -1.8606    1.9257    0.8649 H   0  0  0  1  0  0  0  0  0  0  0  0
  1  4  1  0  0  0  0
  2  4  1  0  0  0  0
  2  5  2  0  0  0  0
  2  6  1  0  0  0  0
  3  4  1  0  0  0  0
  3  7  1  0  0  0  0
  3  8  1  0  0  0  0
  4 26  1  0  0  0  0
  6  9  1  0  0  0  0
  6 12  1  0  0  0  0
  8 10  1  0  0  0  0
  8 11  2  0  0  0  0
  9 13  1  0  0  0  0
  9 14  1  0  0  0  0
  9 15  1  0  0  0  0
 10 16  1  0  0  0  0
 10 17  1  0  0  0  0
 10 18  1  0  0  0  0
 19 20  1  0  0  0  0
 20 21  4  0  0  0  0
 20 25  4  0  0  0  0
 21 22  4  0  0  0  0
 21 27  1  0  0  0  0
 22 23  4  0  0  0  0
 22 28  1  0  0  0  0
 23 24  4  0  0  0  0
 23 26  1  0  0  0  0
 24 25  4  0  0  0  0
 24 29  1  0  0  0  0
 25 30  1  0  0  0  0
 26 31  1  0  0  0  0
 26 32  1  0  0  0  0
M  END
> <BCLConfClusterSize>
1

> <ConfClashScore>
0 

> <ConfOneFourInteractionScore>
-0.982677 

> <ConfScore>
0.00460269 

> <ConfScorePBest>
0.00475791 

> <ConfTolerance>
0.460246 

> <RosettaParamsInstructions>
M  ROOT 3
M  POLY_N_BB 3
M  POLY_CA_BB 4
M  POLY_C_BB 2
M  POLY_O_BB 5
M  POLY_IGNORE 9 10 11 12 13 14 15 16 17 18 
M  POLY_UPPER 6
M  POLY_LOWER 8
M  POLY_CHG 0
M  POLY_PROPERTIES ALPHA_AA L_AA PROTEIN AROMATIC POLYMER 
M  END

$$$$



 32 32  0  0  0  0  0  0  0  0999 V2000
    0.5135    1.9025    0.9710 H   0  0  0  1  0  0  0  0  0  0  0  0
    0.2008    3.4241   -0.4559 C   0  0  0  1  0  0  0  0  0  0  0  0
    0.6749    3.7070    1.9632 N   0  0  0  1  0  0  0  0  0  0  0  0
    0.0548    2.8689    0.9479 C   0  0  0  1  0  0  0  0  0  0  0  0
   -0.3439    2.8542   -1.4001 O   0  0  0  1  0  0  0  0  0  0  0  0
    0.8617    4.5799   -0.5811 N   0  0  0  1  0  0  0  0  0  0  0  0
    0.1469    4.4249    2.3709 H   0  0  0  1  0  0  0  0  0  0  0  0
    1.9389    3.5317    2.3589 C   0  0  0  1  0  0  0  0  0  0  0  0
    0.9425    5.2963   -1.8453 C   0  0  0  1  0  0  0  0  0  0  0  0
    2.4924    4.5954    3.2798 C   0  0  0  1  0  0  0  0  0  0  0  0
    2.6241    2.5724    2.0069 O   0  0  0  1  0  0  0  0  0  0  0  0
    1.3072    4.9577    0.2058 H   0  0  0  1  0  0  0  0  0  0  0  0
    0.8098    4.6089   -2.6545 H   0  0  0  1  0  0  0  0  0  0  0  0
    1.9010    5.7645   -1.9290 H   0  0  0  1  0  0  0  0  0  0  0  0
    0.1762    6.0421   -1.8819 H   0  0  0  1  0  0  0  0  0  0  0  0
    1.8594    4.6900    4.1374 H   0  0  0  1  0  0  0  0  0  0  0  0
    2.5320    5.5304    2.7612 H   0  0  0  1  0  0  0  0  0  0  0  0
    3.4774    4.3185    3.5928 H   0  0  0  1  0  0  0  0  0  0  0  0
   -4.4301    8.0052    0.4437 Br  0  0  0  1  0  0  0  0  0  0  0  0
   -3.4402    6.4149    0.6951 C   0  0  0  1  0  0  0  0  0  0  0  0
   -2.9395    6.1049    1.9500 C   0  0  0  1  0  0  0  0  0  0  0  0
   -2.2831    4.9061    2.1555 C   0  0  0  1  0  0  0  0  0  0  0  0
   -2.1302    4.0114    1.1079 C   0  0  0  1  0  0  0  0  0  0  0  0
   -2.6293    4.3203   -0.1435 C   0  0  0  1  0  0  0  0  0  0  0  0
   -3.2876    5.5227   -0.3494 C   0  0  0  1  0  0  0  0  0  0  0  0
   -1.4180    2.6985    1.3331 C   0  0  0  1  0  0  0  0  0  0  0  0
   -3.0578    6.7744    2.7369 H   0  0  0  1  0  0  0  0  0  0  0  0
   -1.9040    4.6754    3.0960 H   0  0  0  1  0  0  0  0  0  0  0  0
   -2.5109    3.6507   -0.9304 H   0  0  0  1  0  0  0  0  0  0  0  0
   -3.6667    5.7534   -1.2900 H   0  0  0  1  0  0  0  0  0  0  0  0
   -1.4911    2.4212    2.3640 H   0  0  0  1  0  0  0  0  0  0  0  0
   -1.8636    1.9382    0.7263 H   0  0  0  1  0  0  0  0  0  0  0  0
  1  4  1  0  0  0  0
  2  4  1  0  0  0  0
  2  5  2  0  0  0  0
  2  6  1  0  0  0  0
  3  4  1  0  0  0  0
  3  7  1  0  0  0  0
  3  8  1  0  0  0  0
  4 26  1  0  0  0  0
  6  9  1  0  0  0  0
  6 12  1  0  0  0  0
  8 10  1  0  0  0  0
  8 11  2  0  0  0  0
  9 13  1  0  0  0  0
  9 14  1  0  0  0  0
  9 15  1  0  0  0  0
 10 16  1  0  0  0  0
 10 17  1  0  0  0  0
 10 18  1  0  0  0  0
 19 20  1  0  0  0  0
 20 21  4  0  0  0  0
 20 25  4  0  0  0  0
 21 22  4  0  0  0  0
 21 27  1  0  0  0  0
 22 23  4  0  0  0  0
 22 28  1  0  0  0  0
 23 24  4  0  0  0  0
 23 26  1  0  0  0  0
 24 25  4  0  0  0  0
 24 29  1  0  0  0  0
 25 30  1  0  0  0  0
 26 31  1  0  0  0  0
 26 32  1  0  0  0  0
M  END
> <BCLConfClusterSize>
1

> <ConfClashScore>
0 

> <ConfOneFourInteractionScore>
-0.957074 

> <ConfScore>
0.00873589 

> <ConfScorePBest>
0.00472943 

> <ConfTolerance>
0.316904 

> <RosettaParamsInstructions>
M  ROOT 3
M  POLY_N_BB 3
M  POLY_CA_BB 4
M  POLY_C_BB 2
M  POLY_O_BB 5
M  POLY_IGNORE 9 10 11 12 13 14 15 16 17 18 
M  POLY_UPPER 6
M  POLY_LOWER 8
M  POLY_CHG 0
M  POLY_PROPERTIES ALPHA_AA L_AA PROTEIN AROMATIC POLYMER 
M  END

$$$$



 32 32  0  0  0  0  0  0  0  0999 V2000
   -1.9530    2.0622   -0.6473 H   0  0  0  1  0  0  0  0  0  0  0  0
   -1.0212    0.3876    0.2105 C   0  0  0  1  0  0  0  0  0  0  0  0
   -3.2972    1.1711    0.6234 N   0  0  0  1  0  0  0  0  0  0  0  0
   -1.9321    1.6115    0.3229 C   0  0  0  1  0  0  0  0  0  0  0  0
   -1.2428   -0.6213    0.8783 O   0  0  0  1  0  0  0  0  0  0  0  0
   -0.0586    0.4898   -0.7122 N   0  0  0  1  0  0  0  0  0  0  0  0
   -3.4739    0.6410    1.4285 H   0  0  0  1  0  0  0  0  0  0  0  0
   -4.3097    1.4936   -0.2048 C   0  0  0  1  0  0  0  0  0  0  0  0
    0.9539   -0.5391   -0.8964 C   0  0  0  1  0  0  0  0  0  0  0  0
   -5.6922    1.0647    0.2469 C   0  0  0  1  0  0  0  0  0  0  0  0
   -4.1427    2.0970   -1.2638 O   0  0  0  1  0  0  0  0  0  0  0  0
   -0.0342    1.2851   -1.2842 H   0  0  0  1  0  0  0  0  0  0  0  0
    1.4449   -0.7281    0.0353 H   0  0  0  1  0  0  0  0  0  0  0  0
    1.6722   -0.2074   -1.6169 H   0  0  0  1  0  0  0  0  0  0  0  0
    0.4893   -1.4384   -1.2433 H   0  0  0  1  0  0  0  0  0  0  0  0
   -5.6784    0.0256    0.5018 H   0  0  0  1  0  0  0  0  0  0  0  0
   -6.3927    1.2281   -0.5453 H   0  0  0  1  0  0  0  0  0  0  0  0
   -5.9812    1.6378    1.1031 H   0  0  0  1  0  0  0  0  0  0  0  0
   -4.4309    8.0037    0.4382 Br  0  0  0  1  0  0  0  0  0  0  0  0
   -3.4400    6.4150    0.6957 C   0  0  0  1  0  0  0  0  0  0  0  0
   -2.9409    6.1090    1.9522 C   0  0  0  1  0  0  0  0  0  0  0  0
   -2.2839    4.9114    2.1622 C   0  0  0  1  0  0  0  0  0  0  0  0
   -2.1287    4.0137    1.1174 C   0  0  0  1  0  0  0  0  0  0  0  0
   -2.6263    4.3185   -0.1355 C   0  0  0  1  0  0  0  0  0  0  0  0
   -3.2853    5.5198   -0.3459 C   0  0  0  1  0  0  0  0  0  0  0  0
   -1.4253    2.6879    1.2878 C   0  0  0  1  0  0  0  0  0  0  0  0
   -3.0609    6.7808    2.7370 H   0  0  0  1  0  0  0  0  0  0  0  0
   -1.9059    4.6837    3.1039 H   0  0  0  1  0  0  0  0  0  0  0  0
   -2.5063    3.6467   -0.9203 H   0  0  0  1  0  0  0  0  0  0  0  0
   -3.6632    5.7475   -1.2877 H   0  0  0  1  0  0  0  0  0  0  0  0
   -0.3791    2.8330    1.1170 H   0  0  0  1  0  0  0  0  0  0  0  0
   -1.5797    2.3468    2.2901 H   0  0  0  1  0  0  0  0  0  0  0  0
  1  4  1  0  0  0  0
  2  4  1  0  0  0  0
  2  5  2  0  0  0  0
  2  6  1  0  0  0  0
  3  4  1  0  0  0  0
  3  7  1  0  0  0  0
  3  8  1  0  0  0  0
  4 26  1  0  0  0  0
  6  9  1  0  0  0  0
  6 12  1  0  0  0  0
  8 10  1  0  0  0  0
  8 11  2  0  0  0  0
  9 13  1  0  0  0  0
  9 14  1  0  0  0  0
  9 15  1  0  0  0  0
 10 16  1  0  0  0  0
 10 17  1  0  0  0  0
 10 18  1  0  0  0  0
 19 20  1  0  0  0  0
 20 21  4  0  0  0  0
 20 25  4  0  0  0  0
 21 22  4  0  0  0  0
 21 27  1  0  0  0  0
 22 23  4  0  0  0  0
 22 28  1  0  0  0  0
 23 24  4  0  0  0  0
 23 26  1  0  0  0  0
 24 25  4  0  0  0  0
 24 29  1  0  0  0  0
 25 30  1  0  0  0  0
 26 31  1  0  0  0  0
 26 32  1  0  0  0  0
M  END
> <BCLConfClusterSize>
1

> <ConfClashScore>
0 

> <ConfOneFourInteractionScore>
-0.975381 

> <ConfScore>
0.0144997 

> <ConfScorePBest>
0.00470095 

> <ConfTolerance>
0.489261 

> <RosettaParamsInstructions>
M  ROOT 3
M  POLY_N_BB 3
M  POLY_CA_BB 4
M  POLY_C_BB 2
M  POLY_O_BB 5
M  POLY_IGNORE 9 10 11 12 13 14 15 16 17 18 
M  POLY_UPPER 6
M  POLY_LOWER 8
M  POLY_CHG 0
M  POLY_PROPERTIES ALPHA_AA L_AA PROTEIN AROMATIC POLYMER 
M  END

$$$$



 32 32  0  0  0  0  0  0  0  0999 V2000
    0.4068    1.6833    1.1560 H   0  0  0  1  0  0  0  0  0  0  0  0
    0.3767    3.1024   -0.3980 C   0  0  0  1  0  0  0  0  0  0  0  0
    0.8452    3.5297    1.9810 N   0  0  0  1  0  0  0  0  0  0  0  0
    0.0739    2.6936    1.0401 C   0  0  0  1  0  0  0  0  0  0  0  0
    0.9762    4.1469   -0.6483 O   0  0  0  1  0  0  0  0  0  0  0  0
    0.0346    2.2236   -1.3507 N   0  0  0  1  0  0  0  0  0  0  0  0
    0.8872    4.4923    1.8021 H   0  0  0  1  0  0  0  0  0  0  0  0
    1.4893    3.0737    3.0564 C   0  0  0  1  0  0  0  0  0  0  0  0
    0.2588    2.4106   -2.7752 C   0  0  0  1  0  0  0  0  0  0  0  0
    2.1934    4.1216    3.8962 C   0  0  0  1  0  0  0  0  0  0  0  0
    1.5212    1.8826    3.3631 O   0  0  0  1  0  0  0  0  0  0  0  0
   -0.3994    1.3924   -1.0656 H   0  0  0  1  0  0  0  0  0  0  0  0
    0.0804    3.4335   -3.0335 H   0  0  0  1  0  0  0  0  0  0  0  0
   -0.4089    1.7821   -3.3266 H   0  0  0  1  0  0  0  0  0  0  0  0
    1.2698    2.1538   -3.0136 H   0  0  0  1  0  0  0  0  0  0  0  0
    1.4685    4.7807    4.3264 H   0  0  0  1  0  0  0  0  0  0  0  0
    2.8629    4.6827    3.2783 H   0  0  0  1  0  0  0  0  0  0  0  0
    2.7456    3.6410    4.6765 H   0  0  0  1  0  0  0  0  0  0  0  0
   -4.4284    8.0074    0.4539 Br  0  0  0  1  0  0  0  0  0  0  0  0
   -3.4402    6.4143    0.6940 C   0  0  0  1  0  0  0  0  0  0  0  0
   -2.9367    6.0968    1.9459 C   0  0  0  1  0  0  0  0  0  0  0  0
   -2.2816    4.8959    2.1431 C   0  0  0  1  0  0  0  0  0  0  0  0
   -2.1327    4.0067    1.0903 C   0  0  0  1  0  0  0  0  0  0  0  0
   -2.6346    4.3231   -0.1580 C   0  0  0  1  0  0  0  0  0  0  0  0
   -3.2917    5.5276   -0.3557 C   0  0  0  1  0  0  0  0  0  0  0  0
   -1.4070    2.7227    1.4163 C   0  0  0  1  0  0  0  0  0  0  0  0
   -3.0520    6.7622    2.7367 H   0  0  0  1  0  0  0  0  0  0  0  0
   -1.9003    4.6595    3.0814 H   0  0  0  1  0  0  0  0  0  0  0  0
   -2.5194    3.6576   -0.9489 H   0  0  0  1  0  0  0  0  0  0  0  0
   -3.6729    5.7640   -1.2940 H   0  0  0  1  0  0  0  0  0  0  0  0
   -1.4829    2.5593    2.4710 H   0  0  0  1  0  0  0  0  0  0  0  0
   -1.8956    1.9260    0.8953 H   0  0  0  1  0  0  0  0  0  0  0  0
  1  4  1  0  0  0  0
  2  4  1  0  0  0  0
  2  5  2  0  0  0  0
  2  6  1  0  0  0  0
  3  4  1  0  0  0  0
  3  7  1  0  0  0  0
  3  8  1  0  0  0  0
  4 26  1  0  0  0  0
  6  9  1  0  0  0  0
  6 12  1  0  0  0  0
  8 10  1  0  0  0  0
  8 11  2  0  0  0  0
  9 13  1  0  0  0  0
  9 14  1  0  0  0  0
  9 15  1  0  0  0  0
 10 16  1  0  0  0  0
 10 17  1  0  0  0  0
 10 18  1  0  0  0  0
 19 20  1  0  0  0  0
 20 21  4  0  0  0  0
 20 25  4  0  0  0  0
 21 22  4  0  0  0  0
 21 27  1  0  0  0  0
 22 23  4  0  0  0  0
 22 28  1  0  0  0  0
 23 24  4  0  0  0  0
 23 26  1  0  0  0  0
 24 25  4  0  0  0  0
 24 29  1  0  0  0  0
 25 30  1  0  0  0  0
 26 31  1  0  0  0  0
 26 32  1  0  0  0  0
M  END
> <BCLConfClusterSize>
1

> <ConfClashScore>
0 

> <ConfOneFourInteractionScore>
-0.987258 

> <ConfScore>
0.015211 

> <ConfScorePBest>
0.00467247 

> <ConfTolerance>
0.31403 

> <RosettaParamsInstructions>
M  ROOT 3
M  POLY_N_BB 3
M  POLY_CA_BB 4
M  POLY_C_BB 2
M  POLY_O_BB 5
M  POLY_IGNORE 9 10 11 12 13 14 15 16 17 18 
M  POLY_UPPER 6
M  POLY_LOWER 8
M  POLY_CHG 0
M  POLY_PROPERTIES ALPHA_AA L_AA PROTEIN AROMATIC POLYMER 
M  END

$$$$



 32 32  0  0  0  0  0  0  0  0999 V2000
   -0.8586    3.3448    3.3240 H   0  0  0  1  0  0  0  0  0  0  0  0
   -0.0032    1.4237    3.0217 C   0  0  0  1  0  0  0  0  0  0  0  0
    0.7888    3.5479    2.0896 N   0  0  0  1  0  0  0  0  0  0  0  0
   -0.3956    2.8177    2.5161 C   0  0  0  1  0  0  0  0  0  0  0  0
   -0.8765    0.6265    3.3608 O   0  0  0  1  0  0  0  0  0  0  0  0
    1.2971    1.1136    2.9860 N   0  0  0  1  0  0  0  0  0  0  0  0
    1.1011    3.4749    1.1636 H   0  0  0  1  0  0  0  0  0  0  0  0
    1.4511    4.3177    2.9578 C   0  0  0  1  0  0  0  0  0  0  0  0
    1.8003   -0.1797    3.4242 C   0  0  0  1  0  0  0  0  0  0  0  0
    2.7158    4.9672    2.4308 C   0  0  0  1  0  0  0  0  0  0  0  0
    1.0743    4.4996    4.1148 O   0  0  0  1  0  0  0  0  0  0  0  0
    1.9334    1.7806    2.6532 H   0  0  0  1  0  0  0  0  0  0  0  0
    1.2380   -0.5134    4.2712 H   0  0  0  1  0  0  0  0  0  0  0  0
    2.8315   -0.0880    3.6946 H   0  0  0  1  0  0  0  0  0  0  0  0
    1.7013   -0.8887    2.6289 H   0  0  0  1  0  0  0  0  0  0  0  0
    3.3493    4.2193    2.0015 H   0  0  0  1  0  0  0  0  0  0  0  0
    3.2299    5.4508    3.2350 H   0  0  0  1  0  0  0  0  0  0  0  0
    2.4609    5.6898    1.6840 H   0  0  0  1  0  0  0  0  0  0  0  0
   -4.4293    8.0064    0.4488 Br  0  0  0  1  0  0  0  0  0  0  0  0
   -3.4402    6.4147    0.6945 C   0  0  0  1  0  0  0  0  0  0  0  0
   -2.9381    6.1009    1.9479 C   0  0  0  1  0  0  0  0  0  0  0  0
   -2.2824    4.9010    2.1493 C   0  0  0  1  0  0  0  0  0  0  0  0
   -2.1315    4.0091    1.0990 C   0  0  0  1  0  0  0  0  0  0  0  0
   -2.6320    4.3218   -0.1508 C   0  0  0  1  0  0  0  0  0  0  0  0
   -3.2897    5.5252   -0.3526 C   0  0  0  1  0  0  0  0  0  0  0  0
   -1.4121    2.7100    1.3751 C   0  0  0  1  0  0  0  0  0  0  0  0
   -3.0549    6.7683    2.7368 H   0  0  0  1  0  0  0  0  0  0  0  0
   -1.9022    4.6674    3.0887 H   0  0  0  1  0  0  0  0  0  0  0  0
   -2.5152    3.6543   -0.9397 H   0  0  0  1  0  0  0  0  0  0  0  0
   -3.6699    5.7589   -1.2920 H   0  0  0  1  0  0  0  0  0  0  0  0
   -2.1375    1.9674    1.6343 H   0  0  0  1  0  0  0  0  0  0  0  0
   -0.8963    2.4107    0.4867 H   0  0  0  1  0  0  0  0  0  0  0  0
  1  4  1  0  0  0  0
  2  4  1  0  0  0  0
  2  5  2  0  0  0  0
  2  6  1  0  0  0  0
  3  4  1  0  0  0  0
  3  7  1  0  0  0  0
  3  8  1  0  0  0  0
  4 26  1  0  0  0  0
  6  9  1  0  0  0  0
  6 12  1  0  0  0  0
  8 10  1  0  0  0  0
  8 11  2  0  0  0  0
  9 13  1  0  0  0  0
  9 14  1  0  0  0  0
  9 15  1  0  0  0  0
 10 16  1  0  0  0  0
 10 17  1  0  0  0  0
 10 18  1  0  0  0  0
 19 20  1  0  0  0  0
 20 21  4  0  0  0  0
 20 25  4  0  0  0  0
 21 22  4  0  0  0  0
 21 27  1  0  0  0  0
 22 23  4  0  0  0  0
 22 28  1  0  0  0  0
 23 24  4  0  0  0  0
 23 26  1  0  0  0  0
 24 25  4  0  0  0  0
 24 29  1  0  0  0  0
 25 30  1  0  0  0  0
 26 31  1  0  0  0  0
 26 32  1  0  0  0  0
M  END
> <BCLConfClusterSize>
1

> <ConfClashScore>
0 

> <ConfOneFourInteractionScore>
-0.949001 

> <ConfScore>
0.0156891 

> <ConfScorePBest>
0.00464399 

> <ConfTolerance>
0.348758 

> <RosettaParamsInstructions>
M  ROOT 3
M  POLY_N_BB 3
M  POLY_CA_BB 4
M  POLY_C_BB 2
M  POLY_O_BB 5
M  POLY_IGNORE 9 10 11 12 13 14 15 16 17 18 
M  POLY_UPPER 6
M  POLY_LOWER 8
M  POLY_CHG 0
M  POLY_PROPERTIES ALPHA_AA L_AA PROTEIN AROMATIC POLYMER 
M  END

$$$$



 32 32  0  0  0  0  0  0  0  0999 V2000
   -0.0136    3.0508   -0.2094 H   0  0  0  1  0  0  0  0  0  0  0  0
    0.8977    3.6511    1.5959 C   0  0  0  1  0  0  0  0  0  0  0  0
    0.6295    1.3748    0.8026 N   0  0  0  1  0  0  0  0  0  0  0  0
    0.0180    2.6954    0.7994 C   0  0  0  1  0  0  0  0  0  0  0  0
    0.9799    4.8219    1.2632 O   0  0  0  1  0  0  0  0  0  0  0  0
    1.4807    3.1595    2.6945 N   0  0  0  1  0  0  0  0  0  0  0  0
    0.4945    0.7931    1.5796 H   0  0  0  1  0  0  0  0  0  0  0  0
    1.3684    0.9280   -0.2169 C   0  0  0  1  0  0  0  0  0  0  0  0
    2.2978    3.9812    3.5748 C   0  0  0  1  0  0  0  0  0  0  0  0
    1.9906   -0.4419   -0.0287 C   0  0  0  1  0  0  0  0  0  0  0  0
    1.5441    1.5725   -1.2500 O   0  0  0  1  0  0  0  0  0  0  0  0
    1.3531    2.2131    2.9145 H   0  0  0  1  0  0  0  0  0  0  0  0
    1.9540    4.9938    3.5393 H   0  0  0  1  0  0  0  0  0  0  0  0
    3.3182    3.9399    3.2554 H   0  0  0  1  0  0  0  0  0  0  0  0
    2.2221    3.6141    4.5770 H   0  0  0  1  0  0  0  0  0  0  0  0
    2.5959   -0.6791   -0.8786 H   0  0  0  1  0  0  0  0  0  0  0  0
    1.2168   -1.1739    0.0731 H   0  0  0  1  0  0  0  0  0  0  0  0
    2.5981   -0.4395    0.8521 H   0  0  0  1  0  0  0  0  0  0  0  0
   -4.4301    8.0052    0.4437 Br  0  0  0  1  0  0  0  0  0  0  0  0
   -3.4402    6.4149    0.6951 C   0  0  0  1  0  0  0  0  0  0  0  0
   -2.9395    6.1049    1.9500 C   0  0  0  1  0  0  0  0  0  0  0  0
   -2.2831    4.9061    2.1555 C   0  0  0  1  0  0  0  0  0  0  0  0
   -2.1302    4.0114    1.1079 C   0  0  0  1  0  0  0  0  0  0  0  0
   -2.6293    4.3203   -0.1435 C   0  0  0  1  0  0  0  0  0  0  0  0
   -3.2876    5.5227   -0.3494 C   0  0  0  1  0  0  0  0  0  0  0  0
   -1.4180    2.6985    1.3331 C   0  0  0  1  0  0  0  0  0  0  0  0
   -3.0578    6.7744    2.7369 H   0  0  0  1  0  0  0  0  0  0  0  0
   -1.9040    4.6754    3.0960 H   0  0  0  1  0  0  0  0  0  0  0  0
   -2.5109    3.6507   -0.9304 H   0  0  0  1  0  0  0  0  0  0  0  0
   -3.6667    5.7534   -1.2900 H   0  0  0  1  0  0  0  0  0  0  0  0
   -1.3910    2.5017    2.3845 H   0  0  0  1  0  0  0  0  0  0  0  0
   -1.9667    1.9243    0.8388 H   0  0  0  1  0  0  0  0  0  0  0  0
  1  4  1  0  0  0  0
  2  4  1  0  0  0  0
  2  5  2  0  0  0  0
  2  6  1  0  0  0  0
  3  4  1  0  0  0  0
  3  7  1  0  0  0  0
  3  8  1  0  0  0  0
  4 26  1  0  0  0  0
  6  9  1  0  0  0  0
  6 12  1  0  0  0  0
  8 10  1  0  0  0  0
  8 11  2  0  0  0  0
  9 13  1  0  0  0  0
  9 14  1  0  0  0  0
  9 15  1  0  0  0  0
 10 16  1  0  0  0  0
 10 17  1  0  0  0  0
 10 18  1  0  0  0  0
 19 20  1  0  0  0  0
 20 21  4  0  0  0  0
 20 25  4  0  0  0  0
 21 22  4  0  0  0  0
 21 27  1  0  0  0  0
 22 23  4  0  0  0  0
 22 28  1  0  0  0  0
 23 24  4  0  0  0  0
 23 26  1  0  0  0  0
 24 25  4  0  0  0  0
 24 29  1  0  0  0  0
 25 30  1  0  0  0  0
 26 31  1  0  0  0  0
 26 32  1  0  0  0  0
M  END
> <BCLConfClusterSize>
1

> <ConfClashScore>
0 

> <ConfOneFourInteractionScore>
-0.960318 

> <ConfScore>
0.0162311 

> <ConfScorePBest>
0.00461551 

> <ConfTolerance>
0.282419 

> <RosettaParamsInstructions>
M  ROOT 3
M  POLY_N_BB 3
M  POLY_CA_BB 4
M  POLY_C_BB 2
M  POLY_O_BB 5
M  POLY_IGNORE 9 10 11 12 13 14 15 16 17 18 
M  POLY_UPPER 6
M  POLY_LOWER 8
M  POLY_CHG 0
M  POLY_PROPERTIES ALPHA_AA L_AA PROTEIN AROMATIC POLYMER 
M  END

$$$$



 32 32  0  0  0  0  0  0  0  0999 V2000
   -3.0640    1.5902    2.1026 H   0  0  0  1  0  0  0  0  0  0  0  0
   -1.2803    0.5547    2.6469 C   0  0  0  1  0  0  0  0  0  0  0  0
   -2.1126    2.5985    3.6538 N   0  0  0  1  0  0  0  0  0  0  0  0
   -2.0709    1.8429    2.4108 C   0  0  0  1  0  0  0  0  0  0  0  0
   -0.1578    0.5818    3.1492 O   0  0  0  1  0  0  0  0  0  0  0  0
   -1.9110   -0.5893    2.3610 N   0  0  0  1  0  0  0  0  0  0  0  0
   -1.3002    3.0549    3.9573 H   0  0  0  1  0  0  0  0  0  0  0  0
   -3.2293    2.6925    4.4018 C   0  0  0  1  0  0  0  0  0  0  0  0
   -1.2646   -1.8660    2.6258 C   0  0  0  1  0  0  0  0  0  0  0  0
   -3.0537    3.5251    5.6569 C   0  0  0  1  0  0  0  0  0  0  0  0
   -4.3055    2.1658    4.1226 O   0  0  0  1  0  0  0  0  0  0  0  0
   -2.8104   -0.5679    1.9725 H   0  0  0  1  0  0  0  0  0  0  0  0
   -0.5593   -1.7508    3.4222 H   0  0  0  1  0  0  0  0  0  0  0  0
   -0.7563   -2.1976    1.7446 H   0  0  0  1  0  0  0  0  0  0  0  0
   -2.0030   -2.5882    2.9054 H   0  0  0  1  0  0  0  0  0  0  0  0
   -2.0274    3.8112    5.7551 H   0  0  0  1  0  0  0  0  0  0  0  0
   -3.3465    2.9496    6.5101 H   0  0  0  1  0  0  0  0  0  0  0  0
   -3.6635    4.4019    5.5911 H   0  0  0  1  0  0  0  0  0  0  0  0
   -4.4301    8.0052    0.4437 Br  0  0  0  1  0  0  0  0  0  0  0  0
   -3.4402    6.4149    0.6951 C   0  0  0  1  0  0  0  0  0  0  0  0
   -2.9395    6.1049    1.9500 C   0  0  0  1  0  0  0  0  0  0  0  0
   -2.2831    4.9061    2.1555 C   0  0  0  1  0  0  0  0  0  0  0  0
   -2.1302    4.0114    1.1079 C   0  0  0  1  0  0  0  0  0  0  0  0
   -2.6293    4.3203   -0.1435 C   0  0  0  1  0  0  0  0  0  0  0  0
   -3.2876    5.5227   -0.3494 C   0  0  0  1  0  0  0  0  0  0  0  0
   -1.4180    2.6985    1.3331 C   0  0  0  1  0  0  0  0  0  0  0  0
   -3.0578    6.7744    2.7369 H   0  0  0  1  0  0  0  0  0  0  0  0
   -1.9040    4.6754    3.0960 H   0  0  0  1  0  0  0  0  0  0  0  0
   -2.5109    3.6507   -0.9304 H   0  0  0  1  0  0  0  0  0  0  0  0
   -3.6667    5.7534   -1.2900 H   0  0  0  1  0  0  0  0  0  0  0  0
   -1.4185    2.1489    0.4151 H   0  0  0  1  0  0  0  0  0  0  0  0
   -0.4096    2.9039    1.6259 H   0  0  0  1  0  0  0  0  0  0  0  0
  1  4  1  0  0  0  0
  2  4  1  0  0  0  0
  2  5  2  0  0  0  0
  2  6  1  0  0  0  0
  3  4  1  0  0  0  0
  3  7  1  0  0  0  0
  3  8  1  0  0  0  0
  4 26  1  0  0  0  0
  6  9  1  0  0  0  0
  6 12  1  0  0  0  0
  8 10  1  0  0  0  0
  8 11  2  0  0  0  0
  9 13  1  0  0  0  0
  9 14  1  0  0  0  0
  9 15  1  0  0  0  0
 10 16  1  0  0  0  0
 10 17  1  0  0  0  0
 10 18  1  0  0  0  0
 19 20  1  0  0  0  0
 20 21  4  0  0  0  0
 20 25  4  0  0  0  0
 21 22  4  0  0  0  0
 21 27  1  0  0  0  0
 22 23  4  0  0  0  0
 22 28  1  0  0  0  0
 23 24  4  0  0  0  0
 23 26  1  0  0  0  0
 24 25  4  0  0  0  0
 24 29  1  0  0  0  0
 25 30  1  0  0  0  0
 26 31  1  0  0  0  0
 26 32  1  0  0  0  0
M  END
> <BCLConfClusterSize>
1

> <ConfClashScore>
0 

> <ConfOneFourInteractionScore>
-0.981931 

> <ConfScore>
0.0194906 

> <ConfScorePBest>
0.00458703 

> <ConfTolerance>
0.404785 

> <RosettaParamsInstructions>
M  ROOT 3
M  POLY_N_BB 3
M  POLY_CA_BB 4
M  POLY_C_BB 2
M  POLY_O_BB 5
M  POLY_IGNORE 9 10 11 12 13 14 15 16 17 18 
M  POLY_UPPER 6
M  POLY_LOWER 8
M  POLY_CHG 0
M  POLY_PROPERTIES ALPHA_AA L_AA PROTEIN AROMATIC POLYMER 
M  END

$$$$



 32 32  0  0  0  0  0  0  0  0999 V2000
   -2.7808    1.3786    0.4348 H   0  0  0  1  0  0  0  0  0  0  0  0
   -1.4071    0.2274    1.5904 C   0  0  0  1  0  0  0  0  0  0  0  0
   -3.2907    1.5635    2.4394 N   0  0  0  1  0  0  0  0  0  0  0  0
   -2.2939    1.4619    1.3840 C   0  0  0  1  0  0  0  0  0  0  0  0
   -0.5819   -0.0847    0.7333 O   0  0  0  1  0  0  0  0  0  0  0  0
   -1.5248   -0.4103    2.7599 N   0  0  0  1  0  0  0  0  0  0  0  0
   -2.9993    1.4999    3.3729 H   0  0  0  1  0  0  0  0  0  0  0  0
   -4.5893    1.7406    2.1799 C   0  0  0  1  0  0  0  0  0  0  0  0
   -0.7177   -1.5901    3.0333 C   0  0  0  1  0  0  0  0  0  0  0  0
   -5.4879    1.7910    3.4169 C   0  0  0  1  0  0  0  0  0  0  0  0
   -5.0556    1.9340    1.0602 O   0  0  0  1  0  0  0  0  0  0  0  0
   -2.1558   -0.0826    3.4343 H   0  0  0  1  0  0  0  0  0  0  0  0
    0.2246   -1.5018    2.5341 H   0  0  0  1  0  0  0  0  0  0  0  0
   -1.2284   -2.4611    2.6792 H   0  0  0  1  0  0  0  0  0  0  0  0
   -0.5560   -1.6748    4.0876 H   0  0  0  1  0  0  0  0  0  0  0  0
   -4.8988    2.0336    4.2766 H   0  0  0  1  0  0  0  0  0  0  0  0
   -5.9512    0.8372    3.5600 H   0  0  0  1  0  0  0  0  0  0  0  0
   -6.2421    2.5374    3.2794 H   0  0  0  1  0  0  0  0  0  0  0  0
   -4.4293    8.0064    0.4488 Br  0  0  0  1  0  0  0  0  0  0  0  0
   -3.4402    6.4147    0.6945 C   0  0  0  1  0  0  0  0  0  0  0  0
   -2.9381    6.1009    1.9479 C   0  0  0  1  0  0  0  0  0  0  0  0
   -2.2824    4.9010    2.1493 C   0  0  0  1  0  0  0  0  0  0  0  0
   -2.1315    4.0091    1.0990 C   0  0  0  1  0  0  0  0  0  0  0  0
   -2.6320    4.3218   -0.1508 C   0  0  0  1  0  0  0  0  0  0  0  0
   -3.2897    5.5252   -0.3526 C   0  0  0  1  0  0  0  0  0  0  0  0
   -1.4121    2.7100    1.3751 C   0  0  0  1  0  0  0  0  0  0  0  0
   -3.0549    6.7683    2.7368 H   0  0  0  1  0  0  0  0  0  0  0  0
   -1.9022    4.6674    3.0887 H   0  0  0  1  0  0  0  0  0  0  0  0
   -2.5152    3.6543   -0.9397 H   0  0  0  1  0  0  0  0  0  0  0  0
   -3.6699    5.7589   -1.2920 H   0  0  0  1  0  0  0  0  0  0  0  0
   -0.6639    2.5802    0.6212 H   0  0  0  1  0  0  0  0  0  0  0  0
   -0.9432    2.7896    2.3336 H   0  0  0  1  0  0  0  0  0  0  0  0
  1  4  1  0  0  0  0
  2  4  1  0  0  0  0
  2  5  2  0  0  0  0
  2  6  1  0  0  0  0
  3  4  1  0  0  0  0
  3  7  1  0  0  0  0
  3  8  1  0  0  0  0
  4 26  1  0  0  0  0
  6  9  1  0  0  0  0
  6 12  1  0  0  0  0
  8 10  1  0  0  0  0
  8 11  2  0  0  0  0
  9 13  1  0  0  0  0
  9 14  1  0  0  0  0
  9 15  1  0  0  0  0
 10 16  1  0  0  0  0
 10 17  1  0  0  0  0
 10 18  1  0  0  0  0
 19 20  1  0  0  0  0
 20 21  4  0  0  0  0
 20 25  4  0  0  0  0
 21 22  4  0  0  0  0
 21 27  1  0  0  0  0
 22 23  4  0  0  0  0
 22 28  1  0  0  0  0
 23 24  4  0  0  0  0
 23 26  1  0  0  0  0
 24 25  4  0  0  0  0
 24 29  1  0  0  0  0
 25 30  1  0  0  0  0
 26 31  1  0  0  0  0
 26 32  1  0  0  0  0
M  END
> <BCLConfClusterSize>
1

> <ConfClashScore>
0 

> <ConfOneFourInteractionScore>
-0.965014 

> <ConfScore>
0.0211274 

> <ConfScorePBest>
0.00455855 

> <ConfTolerance>
0.29973 

> <RosettaParamsInstructions>
M  ROOT 3
M  POLY_N_BB 3
M  POLY_CA_BB 4
M  POLY_C_BB 2
M  POLY_O_BB 5
M  POLY_IGNORE 9 10 11 12 13 14 15 16 17 18 
M  POLY_UPPER 6
M  POLY_LOWER 8
M  POLY_CHG 0
M  POLY_PROPERTIES ALPHA_AA L_AA PROTEIN AROMATIC POLYMER 
M  END

$$$$



 32 32  0  0  0  0  0  0  0  0999 V2000
    0.3543    3.5676    0.6749 H   0  0  0  1  0  0  0  0  0  0  0  0
    0.8971    1.5978    1.0759 C   0  0  0  1  0  0  0  0  0  0  0  0
   -0.3020    2.4715   -0.9238 N   0  0  0  1  0  0  0  0  0  0  0  0
   -0.1049    2.6117    0.5326 C   0  0  0  1  0  0  0  0  0  0  0  0
    1.4459    1.7679    2.1635 O   0  0  0  1  0  0  0  0  0  0  0  0
    1.0706    0.4879    0.3504 N   0  0  0  1  0  0  0  0  0  0  0  0
   -1.2026    2.5872   -1.2924 H   0  0  0  1  0  0  0  0  0  0  0  0
    0.7047    2.1924   -1.7567 C   0  0  0  1  0  0  0  0  0  0  0  0
    2.0582   -0.5224    0.6994 C   0  0  0  1  0  0  0  0  0  0  0  0
    0.3295    2.0425   -3.2136 C   0  0  0  1  0  0  0  0  0  0  0  0
    1.8688    2.0621   -1.3805 O   0  0  0  1  0  0  0  0  0  0  0  0
    0.5134    0.3502   -0.4439 H   0  0  0  1  0  0  0  0  0  0  0  0
    2.0573   -1.2939   -0.0421 H   0  0  0  1  0  0  0  0  0  0  0  0
    1.8154   -0.9439    1.6525 H   0  0  0  1  0  0  0  0  0  0  0  0
    3.0279   -0.0725    0.7444 H   0  0  0  1  0  0  0  0  0  0  0  0
    1.1198    1.5458   -3.7367 H   0  0  0  1  0  0  0  0  0  0  0  0
    0.1712    3.0100   -3.6423 H   0  0  0  1  0  0  0  0  0  0  0  0
   -0.5681    1.4655   -3.2929 H   0  0  0  1  0  0  0  0  0  0  0  0
   -4.4309    8.0037    0.4382 Br  0  0  0  1  0  0  0  0  0  0  0  0
   -3.4400    6.4150    0.6957 C   0  0  0  1  0  0  0  0  0  0  0  0
   -2.9409    6.1090    1.9522 C   0  0  0  1  0  0  0  0  0  0  0  0
   -2.2839    4.9114    2.1622 C   0  0  0  1  0  0  0  0  0  0  0  0
   -2.1287    4.0137    1.1174 C   0  0  0  1  0  0  0  0  0  0  0  0
   -2.6263    4.3185   -0.1355 C   0  0  0  1  0  0  0  0  0  0  0  0
   -3.2853    5.5198   -0.3459 C   0  0  0  1  0  0  0  0  0  0  0  0
   -1.4253    2.6879    1.2878 C   0  0  0  1  0  0  0  0  0  0  0  0
   -3.0609    6.7808    2.7370 H   0  0  0  1  0  0  0  0  0  0  0  0
   -1.9059    4.6837    3.1039 H   0  0  0  1  0  0  0  0  0  0  0  0
   -2.5063    3.6467   -0.9203 H   0  0  0  1  0  0  0  0  0  0  0  0
   -3.6632    5.7475   -1.2877 H   0  0  0  1  0  0  0  0  0  0  0  0
   -1.2313    2.5367    2.3291 H   0  0  0  1  0  0  0  0  0  0  0  0
   -2.0687    1.9124    0.9280 H   0  0  0  1  0  0  0  0  0  0  0  0
  1  4  1  0  0  0  0
  2  4  1  0  0  0  0
  2  5  2  0  0  0  0
  2  6  1  0  0  0  0
  3  4  1  0  0  0  0
  3  7  1  0  0  0  0
  3  8  1  0  0  0  0
  4 26  1  0  0  0  0
  6  9  1  0  0  0  0
  6 12  1  0  0  0  0
  8 10  1  0  0  0  0
  8 11  2  0  0  0  0
  9 13  1  0  0  0  0
  9 14  1  0  0  0  0
  9 15  1  0  0  0  0
 10 16  1  0  0  0  0
 10 17  1  0  0  0  0
 10 18  1  0  0  0  0
 19 20  1  0  0  0  0
 20 21  4  0  0  0  0
 20 25  4  0  0  0  0
 21 22  4  0  0  0  0
 21 27  1  0  0  0  0
 22 23  4  0  0  0  0
 22 28  1  0  0  0  0
 23 24  4  0  0  0  0
 23 26  1  0  0  0  0
 24 25  4  0  0  0  0
 24 29  1  0  0  0  0
 25 30  1  0  0  0  0
 26 31  1  0  0  0  0
 26 32  1  0  0  0  0
M  END
> <BCLConfClusterSize>
1

> <ConfClashScore>
0 

> <ConfOneFourInteractionScore>
-0.956443 

> <ConfScore>
0.0213561 

> <ConfScorePBest>
0.00453007 

> <ConfTolerance>
0.532313 

> <RosettaParamsInstructions>
M  ROOT 3
M  POLY_N_BB 3
M  POLY_CA_BB 4
M  POLY_C_BB 2
M  POLY_O_BB 5
M  POLY_IGNORE 9 10 11 12 13 14 15 16 17 18 
M  POLY_UPPER 6
M  POLY_LOWER 8
M  POLY_CHG 0
M  POLY_PROPERTIES ALPHA_AA L_AA PROTEIN AROMATIC POLYMER 
M  END

$$$$



 32 32  0  0  0  0  0  0  0  0999 V2000
   -0.1478    2.7251   -0.2797 H   0  0  0  1  0  0  0  0  0  0  0  0
    0.8573    3.6526    1.3103 C   0  0  0  1  0  0  0  0  0  0  0  0
    0.5194    1.2441    0.9698 N   0  0  0  1  0  0  0  0  0  0  0  0
   -0.0594    2.5636    0.7743 C   0  0  0  1  0  0  0  0  0  0  0  0
    1.5592    3.4493    2.2998 O   0  0  0  1  0  0  0  0  0  0  0  0
    0.8881    4.7696    0.5756 N   0  0  0  1  0  0  0  0  0  0  0  0
    0.0195    0.5807    1.4898 H   0  0  0  1  0  0  0  0  0  0  0  0
    1.7540    0.8919    0.4462 C   0  0  0  1  0  0  0  0  0  0  0  0
    1.8979    5.7996    0.7687 C   0  0  0  1  0  0  0  0  0  0  0  0
    2.3833   -0.4059    0.8687 C   0  0  0  1  0  0  0  0  0  0  0  0
    2.2896    1.6494   -0.3423 O   0  0  0  1  0  0  0  0  0  0  0  0
    0.2069    4.8990   -0.1170 H   0  0  0  1  0  0  0  0  0  0  0  0
    1.6784    6.6373    0.1402 H   0  0  0  1  0  0  0  0  0  0  0  0
    2.8605    5.4068    0.5157 H   0  0  0  1  0  0  0  0  0  0  0  0
    1.8973    6.1119    1.7921 H   0  0  0  1  0  0  0  0  0  0  0  0
    2.2246   -0.5555    1.9163 H   0  0  0  1  0  0  0  0  0  0  0  0
    3.4339   -0.3745    0.6684 H   0  0  0  1  0  0  0  0  0  0  0  0
    1.9395   -1.2118    0.3224 H   0  0  0  1  0  0  0  0  0  0  0  0
   -4.4484    7.9948    0.4502 Br  0  0  0  1  0  0  0  0  0  0  0  0
   -3.4440    6.4128    0.6961 C   0  0  0  1  0  0  0  0  0  0  0  0
   -2.9376    6.1047    1.9491 C   0  0  0  1  0  0  0  0  0  0  0  0
   -2.2702    4.9114    2.1507 C   0  0  0  1  0  0  0  0  0  0  0  0
   -2.1119    4.0201    1.1010 C   0  0  0  1  0  0  0  0  0  0  0  0
   -2.6167    4.3270   -0.1486 C   0  0  0  1  0  0  0  0  0  0  0  0
   -3.2861    5.5240   -0.3506 C   0  0  0  1  0  0  0  0  0  0  0  0
   -1.4720    2.6759    1.3562 C   0  0  0  1  0  0  0  0  0  0  0  0
   -3.0599    6.7717    2.7377 H   0  0  0  1  0  0  0  0  0  0  0  0
   -1.8869    4.6821    3.0899 H   0  0  0  1  0  0  0  0  0  0  0  0
   -2.4944    3.6601   -0.9371 H   0  0  0  1  0  0  0  0  0  0  0  0
   -3.6694    5.7533   -1.2897 H   0  0  0  1  0  0  0  0  0  0  0  0
   -1.4182    2.5196    2.4134 H   0  0  0  1  0  0  0  0  0  0  0  0
   -2.0838    1.9179    0.9137 H   0  0  0  1  0  0  0  0  0  0  0  0
  1  4  1  0  0  0  0
  2  4  1  0  0  0  0
  2  5  2  0  0  0  0
  2  6  1  0  0  0  0
  3  4  1  0  0  0  0
  3  7  1  0  0  0  0
  3  8  1  0  0  0  0
  4 26  1  0  0  0  0
  6  9  1  0  0  0  0
  6 12  1  0  0  0  0
  8 10  1  0  0  0  0
  8 11  2  0  0  0  0
  9 13  1  0  0  0  0
  9 14  1  0  0  0  0
  9 15  1  0  0  0  0
 10 16  1  0  0  0  0
 10 17  1  0  0  0  0
 10 18  1  0  0  0  0
 19 20  1  0  0  0  0
 20 21  4  0  0  0  0
 20 25  4  0  0  0  0
 21 22  4  0  0  0  0
 21 27  1  0  0  0  0
 22 23  4  0  0  0  0
 22 28  1  0  0  0  0
 23 24  4  0  0  0  0
 23 26  1  0  0  0  0
 24 25  4  0  0  0  0
 24 29  1  0  0  0  0
 25 30  1  0  0  0  0
 26 31  1  0  0  0  0
 26 32  1  0  0  0  0
M  END
> <BCLConfClusterSize>
1

> <ConfClashScore>
0 

> <ConfOneFourInteractionScore>
-0.985807 

> <ConfScore>
0.021379 

> <ConfScorePBest>
0.00450159 

> <ConfTolerance>
0.276937 

> <RosettaParamsInstructions>
M  ROOT 3
M  POLY_N_BB 3
M  POLY_CA_BB 4
M  POLY_C_BB 2
M  POLY_O_BB 5
M  POLY_IGNORE 9 10 11 12 13 14 15 16 17 18 
M  POLY_UPPER 6
M  POLY_LOWER 8
M  POLY_CHG 0
M  POLY_PROPERTIES ALPHA_AA L_AA PROTEIN AROMATIC POLYMER 
M  END

$$$$



 32 32  0  0  0  0  0  0  0  0999 V2000
   -2.6537    1.5672    0.0714 H   0  0  0  1  0  0  0  0  0  0  0  0
   -1.6185    0.1329    1.1848 C   0  0  0  1  0  0  0  0  0  0  0  0
   -3.5085    1.5326    1.9456 N   0  0  0  1  0  0  0  0  0  0  0  0
   -2.3103    1.4820    1.0812 C   0  0  0  1  0  0  0  0  0  0  0  0
   -0.4846   -0.0350    0.7388 O   0  0  0  1  0  0  0  0  0  0  0  0
   -2.2725   -0.8188    1.8592 N   0  0  0  1  0  0  0  0  0  0  0  0
   -3.3935    1.7021    2.9040 H   0  0  0  1  0  0  0  0  0  0  0  0
   -4.7427    1.3552    1.4657 C   0  0  0  1  0  0  0  0  0  0  0  0
   -1.7719   -2.1643    2.0979 C   0  0  0  1  0  0  0  0  0  0  0  0
   -5.8737    1.6461    2.4329 C   0  0  0  1  0  0  0  0  0  0  0  0
   -4.9668    0.9804    0.3155 O   0  0  0  1  0  0  0  0  0  0  0  0
   -3.1554   -0.5933    2.2197 H   0  0  0  1  0  0  0  0  0  0  0  0
   -0.9825   -2.1288    2.8194 H   0  0  0  1  0  0  0  0  0  0  0  0
   -1.3997   -2.5738    1.1822 H   0  0  0  1  0  0  0  0  0  0  0  0
   -2.5654   -2.7794    2.4678 H   0  0  0  1  0  0  0  0  0  0  0  0
   -5.5240    2.2988    3.2054 H   0  0  0  1  0  0  0  0  0  0  0  0
   -6.2152    0.7301    2.8678 H   0  0  0  1  0  0  0  0  0  0  0  0
   -6.6798    2.1148    1.9081 H   0  0  0  1  0  0  0  0  0  0  0  0
   -4.4301    8.0052    0.4437 Br  0  0  0  1  0  0  0  0  0  0  0  0
   -3.4402    6.4149    0.6951 C   0  0  0  1  0  0  0  0  0  0  0  0
   -2.9395    6.1049    1.9500 C   0  0  0  1  0  0  0  0  0  0  0  0
   -2.2831    4.9061    2.1555 C   0  0  0  1  0  0  0  0  0  0  0  0
   -2.1302    4.0114    1.1079 C   0  0  0  1  0  0  0  0  0  0  0  0
   -2.6293    4.3203   -0.1435 C   0  0  0  1  0  0  0  0  0  0  0  0
   -3.2876    5.5227   -0.3494 C   0  0  0  1  0  0  0  0  0  0  0  0
   -1.4180    2.6985    1.3331 C   0  0  0  1  0  0  0  0  0  0  0  0
   -3.0578    6.7744    2.7369 H   0  0  0  1  0  0  0  0  0  0  0  0
   -1.9040    4.6754    3.0960 H   0  0  0  1  0  0  0  0  0  0  0  0
   -2.5109    3.6507   -0.9304 H   0  0  0  1  0  0  0  0  0  0  0  0
   -3.6667    5.7534   -1.2900 H   0  0  0  1  0  0  0  0  0  0  0  0
   -0.5789    2.6483    0.6712 H   0  0  0  1  0  0  0  0  0  0  0  0
   -1.0761    2.6661    2.3465 H   0  0  0  1  0  0  0  0  0  0  0  0
  1  4  1  0  0  0  0
  2  4  1  0  0  0  0
  2  5  2  0  0  0  0
  2  6  1  0  0  0  0
  3  4  1  0  0  0  0
  3  7  1  0  0  0  0
  3  8  1  0  0  0  0
  4 26  1  0  0  0  0
  6  9  1  0  0  0  0
  6 12  1  0  0  0  0
  8 10  1  0  0  0  0
  8 11  2  0  0  0  0
  9 13  1  0  0  0  0
  9 14  1  0  0  0  0
  9 15  1  0  0  0  0
 10 16  1  0  0  0  0
 10 17  1  0  0  0  0
 10 18  1  0  0  0  0
 19 20  1  0  0  0  0
 20 21  4  0  0  0  0
 20 25  4  0  0  0  0
 21 22  4  0  0  0  0
 21 27  1  0  0  0  0
 22 23  4  0  0  0  0
 22 28  1  0  0  0  0
 23 24  4  0  0  0  0
 23 26  1  0  0  0  0
 24 25  4  0  0  0  0
 24 29  1  0  0  0  0
 25 30  1  0  0  0  0
 26 31  1  0  0  0  0
 26 32  1  0  0  0  0
M  END
> <BCLConfClusterSize>
1

> <ConfClashScore>
0 

> <ConfOneFourInteractionScore>
-0.94165 

> <ConfScore>
0.0232735 

> <ConfScorePBest>
0.00447311 

> <ConfTolerance>
0.347776 

> <RosettaParamsInstructions>
M  ROOT 3
M  POLY_N_BB 3
M  POLY_CA_BB 4
M  POLY_C_BB 2
M  POLY_O_BB 5
M  POLY_IGNORE 9 10 11 12 13 14 15 16 17 18 
M  POLY_UPPER 6
M  POLY_LOWER 8
M  POLY_CHG 0
M  POLY_PROPERTIES ALPHA_AA L_AA PROTEIN AROMATIC POLYMER 
M  END

$$$$



 32 32  0  0  0  0  0  0  0  0999 V2000
    0.4564    3.5027    1.5388 H   0  0  0  1  0  0  0  0  0  0  0  0
    0.6552    1.4276    1.8507 C   0  0  0  1  0  0  0  0  0  0  0  0
    0.3133    2.6038   -0.3078 N   0  0  0  1  0  0  0  0  0  0  0  0
    0.0317    2.6136    1.1217 C   0  0  0  1  0  0  0  0  0  0  0  0
    0.5621    1.3247    3.0729 O   0  0  0  1  0  0  0  0  0  0  0  0
    1.2080    0.5081    1.0524 N   0  0  0  1  0  0  0  0  0  0  0  0
   -0.0116    1.8397   -0.8284 H   0  0  0  1  0  0  0  0  0  0  0  0
    0.9875    3.5675   -0.9689 C   0  0  0  1  0  0  0  0  0  0  0  0
    1.6696   -0.7785    1.5518 C   0  0  0  1  0  0  0  0  0  0  0  0
    1.1230    3.4386   -2.4736 C   0  0  0  1  0  0  0  0  0  0  0  0
    1.4782    4.5220   -0.3718 O   0  0  0  1  0  0  0  0  0  0  0  0
    1.3055    0.7076    0.0979 H   0  0  0  1  0  0  0  0  0  0  0  0
    2.5694   -0.6413    2.1144 H   0  0  0  1  0  0  0  0  0  0  0  0
    1.8612   -1.4329    0.7272 H   0  0  0  1  0  0  0  0  0  0  0  0
    0.9178   -1.2073    2.1809 H   0  0  0  1  0  0  0  0  0  0  0  0
    1.5798    4.3221   -2.8681 H   0  0  0  1  0  0  0  0  0  0  0  0
    0.1537    3.3135   -2.9093 H   0  0  0  1  0  0  0  0  0  0  0  0
    1.7310    2.5892   -2.7053 H   0  0  0  1  0  0  0  0  0  0  0  0
   -4.4484    7.9948    0.4502 Br  0  0  0  1  0  0  0  0  0  0  0  0
   -3.4440    6.4128    0.6961 C   0  0  0  1  0  0  0  0  0  0  0  0
   -2.9376    6.1047    1.9491 C   0  0  0  1  0  0  0  0  0  0  0  0
   -2.2702    4.9114    2.1507 C   0  0  0  1  0  0  0  0  0  0  0  0
   -2.1119    4.0201    1.1010 C   0  0  0  1  0  0  0  0  0  0  0  0
   -2.6167    4.3270   -0.1486 C   0  0  0  1  0  0  0  0  0  0  0  0
   -3.2861    5.5240   -0.3506 C   0  0  0  1  0  0  0  0  0  0  0  0
   -1.4720    2.6759    1.3562 C   0  0  0  1  0  0  0  0  0  0  0  0
   -3.0599    6.7717    2.7377 H   0  0  0  1  0  0  0  0  0  0  0  0
   -1.8869    4.6821    3.0899 H   0  0  0  1  0  0  0  0  0  0  0  0
   -2.4944    3.6601   -0.9371 H   0  0  0  1  0  0  0  0  0  0  0  0
   -3.6694    5.7533   -1.2897 H   0  0  0  1  0  0  0  0  0  0  0  0
   -1.6583    2.4099    2.3757 H   0  0  0  1  0  0  0  0  0  0  0  0
   -1.9367    1.9610    0.7099 H   0  0  0  1  0  0  0  0  0  0  0  0
  1  4  1  0  0  0  0
  2  4  1  0  0  0  0
  2  5  2  0  0  0  0
  2  6  1  0  0  0  0
  3  4  1  0  0  0  0
  3  7  1  0  0  0  0
  3  8  1  0  0  0  0
  4 26  1  0  0  0  0
  6  9  1  0  0  0  0
  6 12  1  0  0  0  0
  8 10  1  0  0  0  0
  8 11  2  0  0  0  0
  9 13  1  0  0  0  0
  9 14  1  0  0  0  0
  9 15  1  0  0  0  0
 10 16  1  0  0  0  0
 10 17  1  0  0  0  0
 10 18  1  0  0  0  0
 19 20  1  0  0  0  0
 20 21  4  0  0  0  0
 20 25  4  0  0  0  0
 21 22  4  0  0  0  0
 21 27  1  0  0  0  0
 22 23  4  0  0  0  0
 22 28  1  0  0  0  0
 23 24  4  0  0  0  0
 23 26  1  0  0  0  0
 24 25  4  0  0  0  0
 24 29  1  0  0  0  0
 25 30  1  0  0  0  0
 26 31  1  0  0  0  0
 26 32  1  0  0  0  0
M  END
> <BCLConfClusterSize>
1

> <ConfClashScore>
0 

> <ConfOneFourInteractionScore>
-0.956443 

> <ConfScore>
0.0243336 

> <ConfScorePBest>
0.00444463 

> <ConfTolerance>
0.42203 

> <RosettaParamsInstructions>
M  ROOT 3
M  POLY_N_BB 3
M  POLY_CA_BB 4
M  POLY_C_BB 2
M  POLY_O_BB 5
M  POLY_IGNORE 9 10 11 12 13 14 15 16 17 18 
M  POLY_UPPER 6
M  POLY_LOWER 8
M  POLY_CHG 0
M  POLY_PROPERTIES ALPHA_AA L_AA PROTEIN AROMATIC POLYMER 
M  END

$$$$



 32 32  0  0  0  0  0  0  0  0999 V2000
    0.2298    3.1211    0.1600 H   0  0  0  1  0  0  0  0  0  0  0  0
    0.8092    3.4687    2.1790 C   0  0  0  1  0  0  0  0  0  0  0  0
    0.5720    1.3212    1.1301 N   0  0  0  1  0  0  0  0  0  0  0  0
    0.0403    2.6759    1.1144 C   0  0  0  1  0  0  0  0  0  0  0  0
    0.9422    3.0057    3.3106 O   0  0  0  1  0  0  0  0  0  0  0  0
    1.3794    4.6120    1.7840 N   0  0  0  1  0  0  0  0  0  0  0  0
    0.0153    0.5812    1.4507 H   0  0  0  1  0  0  0  0  0  0  0  0
    1.8228    1.0835    0.7066 C   0  0  0  1  0  0  0  0  0  0  0  0
    2.3134    5.3034    2.6600 C   0  0  0  1  0  0  0  0  0  0  0  0
    2.2225   -0.3766    0.6199 C   0  0  0  1  0  0  0  0  0  0  0  0
    2.6092    1.9798    0.4036 O   0  0  0  1  0  0  0  0  0  0  0  0
    1.1679    4.9850    0.9028 H   0  0  0  1  0  0  0  0  0  0  0  0
    3.2956    4.9015    2.5234 H   0  0  0  1  0  0  0  0  0  0  0  0
    2.0123    5.1705    3.6781 H   0  0  0  1  0  0  0  0  0  0  0  0
    2.3191    6.3467    2.4226 H   0  0  0  1  0  0  0  0  0  0  0  0
    1.3738   -0.9630    0.3357 H   0  0  0  1  0  0  0  0  0  0  0  0
    2.5798   -0.7056    1.5733 H   0  0  0  1  0  0  0  0  0  0  0  0
    2.9959   -0.4917   -0.1105 H   0  0  0  1  0  0  0  0  0  0  0  0
   -4.4484    7.9948    0.4502 Br  0  0  0  1  0  0  0  0  0  0  0  0
   -3.4440    6.4128    0.6961 C   0  0  0  1  0  0  0  0  0  0  0  0
   -2.9376    6.1047    1.9491 C   0  0  0  1  0  0  0  0  0  0  0  0
   -2.2702    4.9114    2.1507 C   0  0  0  1  0  0  0  0  0  0  0  0
   -2.1119    4.0201    1.1010 C   0  0  0  1  0  0  0  0  0  0  0  0
   -2.6167    4.3270   -0.1486 C   0  0  0  1  0  0  0  0  0  0  0  0
   -3.2861    5.5240   -0.3506 C   0  0  0  1  0  0  0  0  0  0  0  0
   -1.4720    2.6759    1.3562 C   0  0  0  1  0  0  0  0  0  0  0  0
   -3.0599    6.7717    2.7377 H   0  0  0  1  0  0  0  0  0  0  0  0
   -1.8869    4.6821    3.0899 H   0  0  0  1  0  0  0  0  0  0  0  0
   -2.4944    3.6601   -0.9371 H   0  0  0  1  0  0  0  0  0  0  0  0
   -3.6694    5.7533   -1.2897 H   0  0  0  1  0  0  0  0  0  0  0  0
   -1.6542    2.3997    2.3738 H   0  0  0  1  0  0  0  0  0  0  0  0
   -1.9211    1.9557    0.7047 H   0  0  0  1  0  0  0  0  0  0  0  0
  1  4  1  0  0  0  0
  2  4  1  0  0  0  0
  2  5  2  0  0  0  0
  2  6  1  0  0  0  0
  3  4  1  0  0  0  0
  3  7  1  0  0  0  0
  3  8  1  0  0  0  0
  4 26  1  0  0  0  0
  6  9  1  0  0  0  0
  6 12  1  0  0  0  0
  8 10  1  0  0  0  0
  8 11  2  0  0  0  0
  9 13  1  0  0  0  0
  9 14  1  0  0  0  0
  9 15  1  0  0  0  0
 10 16  1  0  0  0  0
 10 17  1  0  0  0  0
 10 18  1  0  0  0  0
 19 20  1  0  0  0  0
 20 21  4  0  0  0  0
 20 25  4  0  0  0  0
 21 22  4  0  0  0  0
 21 27  1  0  0  0  0
 22 23  4  0  0  0  0
 22 28  1  0  0  0  0
 23 24  4  0  0  0  0
 23 26  1  0  0  0  0
 24 25  4  0  0  0  0
 24 29  1  0  0  0  0
 25 30  1  0  0  0  0
 26 31  1  0  0  0  0
 26 32  1  0  0  0  0
M  END
> <BCLConfClusterSize>
1

> <ConfClashScore>
0 

> <ConfOneFourInteractionScore>
-0.978127 

> <ConfScore>
0.0291974 

> <ConfScorePBest>
0.00441614 

> <ConfTolerance>
0.299257 

> <RosettaParamsInstructions>
M  ROOT 3
M  POLY_N_BB 3
M  POLY_CA_BB 4
M  POLY_C_BB 2
M  POLY_O_BB 5
M  POLY_IGNORE 9 10 11 12 13 14 15 16 17 18 
M  POLY_UPPER 6
M  POLY_LOWER 8
M  POLY_CHG 0
M  POLY_PROPERTIES ALPHA_AA L_AA PROTEIN AROMATIC POLYMER 
M  END

$$$$



 32 32  0  0  0  0  0  0  0  0999 V2000
    0.5624    1.8732    1.2337 H   0  0  0  1  0  0  0  0  0  0  0  0
    0.4541    3.3836   -0.2404 C   0  0  0  1  0  0  0  0  0  0  0  0
    0.6719    3.6836    2.2201 N   0  0  0  1  0  0  0  0  0  0  0  0
    0.1402    2.8530    1.1516 C   0  0  0  1  0  0  0  0  0  0  0  0
    0.6063    4.5875   -0.4415 O   0  0  0  1  0  0  0  0  0  0  0  0
    0.6396    2.4673   -1.1967 N   0  0  0  1  0  0  0  0  0  0  0  0
    0.0757    3.9558    2.9487 H   0  0  0  1  0  0  0  0  0  0  0  0
    1.9448    4.0886    2.2431 C   0  0  0  1  0  0  0  0  0  0  0  0
    0.8343    2.8292   -2.5927 C   0  0  0  1  0  0  0  0  0  0  0  0
    2.3569    4.8976    3.4575 C   0  0  0  1  0  0  0  0  0  0  0  0
    2.7460    3.8311    1.3457 O   0  0  0  1  0  0  0  0  0  0  0  0
    0.6447    1.5193   -0.9487 H   0  0  0  1  0  0  0  0  0  0  0  0
    0.1593    3.6169   -2.8550 H   0  0  0  1  0  0  0  0  0  0  0  0
    0.6452    1.9770   -3.2115 H   0  0  0  1  0  0  0  0  0  0  0  0
    1.8415    3.1598   -2.7382 H   0  0  0  1  0  0  0  0  0  0  0  0
    1.7645    5.7870    3.5119 H   0  0  0  1  0  0  0  0  0  0  0  0
    3.3904    5.1622    3.3756 H   0  0  0  1  0  0  0  0  0  0  0  0
    2.2064    4.3146    4.3420 H   0  0  0  1  0  0  0  0  0  0  0  0
   -4.4115    8.0150    0.4374 Br  0  0  0  1  0  0  0  0  0  0  0  0
   -3.4362    6.4166    0.6942 C   0  0  0  1  0  0  0  0  0  0  0  0
   -2.9412    6.1046    1.9508 C   0  0  0  1  0  0  0  0  0  0  0  0
   -2.2959    4.9005    2.1601 C   0  0  0  1  0  0  0  0  0  0  0  0
   -2.1483    4.0024    1.1146 C   0  0  0  1  0  0  0  0  0  0  0  0
   -2.6417    4.3133   -0.1385 C   0  0  0  1  0  0  0  0  0  0  0  0
   -3.2890    5.5210   -0.3483 C   0  0  0  1  0  0  0  0  0  0  0  0
   -1.3660    2.7252    1.3104 C   0  0  0  1  0  0  0  0  0  0  0  0
   -3.0554    6.7766    2.7362 H   0  0  0  1  0  0  0  0  0  0  0  0
   -1.9210    4.6682    3.1020 H   0  0  0  1  0  0  0  0  0  0  0  0
   -2.5275    3.6412   -0.9239 H   0  0  0  1  0  0  0  0  0  0  0  0
   -3.6639    5.7533   -1.2901 H   0  0  0  1  0  0  0  0  0  0  0  0
   -1.5644    2.3648    2.2981 H   0  0  0  1  0  0  0  0  0  0  0  0
   -1.7142    2.0116    0.5931 H   0  0  0  1  0  0  0  0  0  0  0  0
  1  4  1  0  0  0  0
  2  4  1  0  0  0  0
  2  5  2  0  0  0  0
  2  6  1  0  0  0  0
  3  4  1  0  0  0  0
  3  7  1  0  0  0  0
  3  8  1  0  0  0  0
  4 26  1  0  0  0  0
  6  9  1  0  0  0  0
  6 12  1  0  0  0  0
  8 10  1  0  0  0  0
  8 11  2  0  0  0  0
  9 13  1  0  0  0  0
  9 14  1  0  0  0  0
  9 15  1  0  0  0  0
 10 16  1  0  0  0  0
 10 17  1  0  0  0  0
 10 18  1  0  0  0  0
 19 20  1  0  0  0  0
 20 21  4  0  0  0  0
 20 25  4  0  0  0  0
 21 22  4  0  0  0  0
 21 27  1  0  0  0  0
 22 23  4  0  0  0  0
 22 28  1  0  0  0  0
 23 24  4  0  0  0  0
 23 26  1  0  0  0  0
 24 25  4  0  0  0  0
 24 29  1  0  0  0  0
 25 30  1  0  0  0  0
 26 31  1  0  0  0  0
 26 32  1  0  0  0  0
M  END
> <BCLConfClusterSize>
1

> <ConfClashScore>
0 

> <ConfOneFourInteractionScore>
-0.982563 

> <ConfScore>
0.0305897 

> <ConfScorePBest>
0.00438766 

> <ConfTolerance>
0.269719 

> <RosettaParamsInstructions>
M  ROOT 3
M  POLY_N_BB 3
M  POLY_CA_BB 4
M  POLY_C_BB 2
M  POLY_O_BB 5
M  POLY_IGNORE 9 10 11 12 13 14 15 16 17 18 
M  POLY_UPPER 6
M  POLY_LOWER 8
M  POLY_CHG 0
M  POLY_PROPERTIES ALPHA_AA L_AA PROTEIN AROMATIC POLYMER 
M  END

$$$$



 32 32  0  0  0  0  0  0  0  0999 V2000
   -1.7621    0.6198    1.3522 H   0  0  0  1  0  0  0  0  0  0  0  0
   -3.6499    1.4899    1.6404 C   0  0  0  1  0  0  0  0  0  0  0  0
   -2.3621    1.3743   -0.4641 N   0  0  0  1  0  0  0  0  0  0  0  0
   -2.2796    1.4827    0.9881 C   0  0  0  1  0  0  0  0  0  0  0  0
   -3.7771    1.1096    2.8030 O   0  0  0  1  0  0  0  0  0  0  0  0
   -4.6560    2.0016    0.9233 N   0  0  0  1  0  0  0  0  0  0  0  0
   -1.9202    2.0537   -1.0149 H   0  0  0  1  0  0  0  0  0  0  0  0
   -3.0191    0.3808   -1.0694 C   0  0  0  1  0  0  0  0  0  0  0  0
   -5.9887    2.0940    1.4975 C   0  0  0  1  0  0  0  0  0  0  0  0
   -2.9907    0.3999   -2.5936 C   0  0  0  1  0  0  0  0  0  0  0  0
   -3.6147   -0.5017   -0.4530 O   0  0  0  1  0  0  0  0  0  0  0  0
   -4.4947    2.3149    0.0088 H   0  0  0  1  0  0  0  0  0  0  0  0
   -5.9268    1.9975    2.5613 H   0  0  0  1  0  0  0  0  0  0  0  0
   -6.6017    1.3104    1.1036 H   0  0  0  1  0  0  0  0  0  0  0  0
   -6.4184    3.0422    1.2501 H   0  0  0  1  0  0  0  0  0  0  0  0
   -3.0137    1.4125   -2.9386 H   0  0  0  1  0  0  0  0  0  0  0  0
   -3.8424   -0.1252   -2.9726 H   0  0  0  1  0  0  0  0  0  0  0  0
   -2.0959   -0.0741   -2.9394 H   0  0  0  1  0  0  0  0  0  0  0  0
   -4.4301    8.0052    0.4437 Br  0  0  0  1  0  0  0  0  0  0  0  0
   -3.4402    6.4149    0.6951 C   0  0  0  1  0  0  0  0  0  0  0  0
   -2.9395    6.1049    1.9500 C   0  0  0  1  0  0  0  0  0  0  0  0
   -2.2831    4.9061    2.1555 C   0  0  0  1  0  0  0  0  0  0  0  0
   -2.1302    4.0114    1.1079 C   0  0  0  1  0  0  0  0  0  0  0  0
   -2.6293    4.3203   -0.1435 C   0  0  0  1  0  0  0  0  0  0  0  0
   -3.2876    5.5227   -0.3494 C   0  0  0  1  0  0  0  0  0  0  0  0
   -1.4180    2.6985    1.3331 C   0  0  0  1  0  0  0  0  0  0  0  0
   -3.0578    6.7744    2.7369 H   0  0  0  1  0  0  0  0  0  0  0  0
   -1.9040    4.6754    3.0960 H   0  0  0  1  0  0  0  0  0  0  0  0
   -2.5109    3.6507   -0.9304 H   0  0  0  1  0  0  0  0  0  0  0  0
   -3.6667    5.7534   -1.2900 H   0  0  0  1  0  0  0  0  0  0  0  0
   -0.5399    2.6781    0.7220 H   0  0  0  1  0  0  0  0  0  0  0  0
   -1.1374    2.6357    2.3638 H   0  0  0  1  0  0  0  0  0  0  0  0
  1  4  1  0  0  0  0
  2  4  1  0  0  0  0
  2  5  2  0  0  0  0
  2  6  1  0  0  0  0
  3  4  1  0  0  0  0
  3  7  1  0  0  0  0
  3  8  1  0  0  0  0
  4 26  1  0  0  0  0
  6  9  1  0  0  0  0
  6 12  1  0  0  0  0
  8 10  1  0  0  0  0
  8 11  2  0  0  0  0
  9 13  1  0  0  0  0
  9 14  1  0  0  0  0
  9 15  1  0  0  0  0
 10 16  1  0  0  0  0
 10 17  1  0  0  0  0
 10 18  1  0  0  0  0
 19 20  1  0  0  0  0
 20 21  4  0  0  0  0
 20 25  4  0  0  0  0
 21 22  4  0  0  0  0
 21 27  1  0  0  0  0
 22 23  4  0  0  0  0
 22 28  1  0  0  0  0
 23 24  4  0  0  0  0
 23 26  1  0  0  0  0
 24 25  4  0  0  0  0
 24 29  1  0  0  0  0
 25 30  1  0  0  0  0
 26 31  1  0  0  0  0
 26 32  1  0  0  0  0
M  END
> <BCLConfClusterSize>
1

> <ConfClashScore>
0 

> <ConfOneFourInteractionScore>
-0.957074 

> <ConfScore>
0.0309829 

> <ConfScorePBest>
0.00435918 

> <ConfTolerance>
0.326006 

> <RosettaParamsInstructions>
M  ROOT 3
M  POLY_N_BB 3
M  POLY_CA_BB 4
M  POLY_C_BB 2
M  POLY_O_BB 5
M  POLY_IGNORE 9 10 11 12 13 14 15 16 17 18 
M  POLY_UPPER 6
M  POLY_LOWER 8
M  POLY_CHG 0
M  POLY_PROPERTIES ALPHA_AA L_AA PROTEIN AROMATIC POLYMER 
M  END

$$$$



 32 32  0  0  0  0  0  0  0  0999 V2000
    0.4454    3.3777    2.0714 H   0  0  0  1  0  0  0  0  0  0  0  0
    0.7074    1.3632    1.4507 C   0  0  0  1  0  0  0  0  0  0  0  0
    0.5446    3.3369    0.0061 N   0  0  0  1  0  0  0  0  0  0  0  0
    0.1024    2.7608    1.2672 C   0  0  0  1  0  0  0  0  0  0  0  0
    0.1155    0.3842    1.0270 O   0  0  0  1  0  0  0  0  0  0  0  0
    1.9226    1.3008    2.0055 N   0  0  0  1  0  0  0  0  0  0  0  0
    0.3092    2.8826   -0.8297 H   0  0  0  1  0  0  0  0  0  0  0  0
    1.2604    4.4635   -0.0518 C   0  0  0  1  0  0  0  0  0  0  0  0
    2.7212    0.0904    2.1283 C   0  0  0  1  0  0  0  0  0  0  0  0
    1.6652    4.9395   -1.4495 C   0  0  0  1  0  0  0  0  0  0  0  0
    1.6142    5.1361    0.9026 O   0  0  0  1  0  0  0  0  0  0  0  0
    2.3041    2.1327    2.3558 H   0  0  0  1  0  0  0  0  0  0  0  0
    2.0762   -0.7633    2.1415 H   0  0  0  1  0  0  0  0  0  0  0  0
    3.2843    0.1256    3.0375 H   0  0  0  1  0  0  0  0  0  0  0  0
    3.3902    0.0188    1.2963 H   0  0  0  1  0  0  0  0  0  0  0  0
    2.7003    5.2108   -1.4486 H   0  0  0  1  0  0  0  0  0  0  0  0
    1.0743    5.7890   -1.7217 H   0  0  0  1  0  0  0  0  0  0  0  0
    1.5040    4.1514   -2.1550 H   0  0  0  1  0  0  0  0  0  0  0  0
   -4.4301    8.0052    0.4437 Br  0  0  0  1  0  0  0  0  0  0  0  0
   -3.4402    6.4149    0.6951 C   0  0  0  1  0  0  0  0  0  0  0  0
   -2.9395    6.1049    1.9500 C   0  0  0  1  0  0  0  0  0  0  0  0
   -2.2831    4.9061    2.1555 C   0  0  0  1  0  0  0  0  0  0  0  0
   -2.1302    4.0114    1.1079 C   0  0  0  1  0  0  0  0  0  0  0  0
   -2.6293    4.3203   -0.1435 C   0  0  0  1  0  0  0  0  0  0  0  0
   -3.2876    5.5227   -0.3494 C   0  0  0  1  0  0  0  0  0  0  0  0
   -1.4180    2.6985    1.3331 C   0  0  0  1  0  0  0  0  0  0  0  0
   -3.0578    6.7744    2.7369 H   0  0  0  1  0  0  0  0  0  0  0  0
   -1.9040    4.6754    3.0960 H   0  0  0  1  0  0  0  0  0  0  0  0
   -2.5109    3.6507   -0.9304 H   0  0  0  1  0  0  0  0  0  0  0  0
   -3.6667    5.7534   -1.2900 H   0  0  0  1  0  0  0  0  0  0  0  0
   -1.6919    2.3365    2.3020 H   0  0  0  1  0  0  0  0  0  0  0  0
   -1.7528    2.0091    0.5864 H   0  0  0  1  0  0  0  0  0  0  0  0
  1  4  1  0  0  0  0
  2  4  1  0  0  0  0
  2  5  2  0  0  0  0
  2  6  1  0  0  0  0
  3  4  1  0  0  0  0
  3  7  1  0  0  0  0
  3  8  1  0  0  0  0
  4 26  1  0  0  0  0
  6  9  1  0  0  0  0
  6 12  1  0  0  0  0
  8 10  1  0  0  0  0
  8 11  2  0  0  0  0
  9 13  1  0  0  0  0
  9 14  1  0  0  0  0
  9 15  1  0  0  0  0
 10 16  1  0  0  0  0
 10 17  1  0  0  0  0
 10 18  1  0  0  0  0
 19 20  1  0  0  0  0
 20 21  4  0  0  0  0
 20 25  4  0  0  0  0
 21 22  4  0  0  0  0
 21 27  1  0  0  0  0
 22 23  4  0  0  0  0
 22 28  1  0  0  0  0
 23 24  4  0  0  0  0
 23 26  1  0  0  0  0
 24 25  4  0  0  0  0
 24 29  1  0  0  0  0
 25 30  1  0  0  0  0
 26 31  1  0  0  0  0
 26 32  1  0  0  0  0
M  END
> <BCLConfClusterSize>
1

> <ConfClashScore>
0 

> <ConfOneFourInteractionScore>
-0.98383 

> <ConfScore>
0.036286 

> <ConfScorePBest>
0.0043307 

> <ConfTolerance>
0.29383 

> <RosettaParamsInstructions>
M  ROOT 3
M  POLY_N_BB 3
M  POLY_CA_BB 4
M  POLY_C_BB 2
M  POLY_O_BB 5
M  POLY_IGNORE 9 10 11 12 13 14 15 16 17 18 
M  POLY_UPPER 6
M  POLY_LOWER 8
M  POLY_CHG 0
M  POLY_PROPERTIES ALPHA_AA L_AA PROTEIN AROMATIC POLYMER 
M  END

$$$$



 32 32  0  0  0  0  0  0  0  0999 V2000
    0.5818    3.3907    1.4967 H   0  0  0  1  0  0  0  0  0  0  0  0
    0.6179    1.3230    1.0164 C   0  0  0  1  0  0  0  0  0  0  0  0
    0.1079    3.1682   -0.5125 N   0  0  0  1  0  0  0  0  0  0  0  0
    0.0327    2.7195    0.8698 C   0  0  0  1  0  0  0  0  0  0  0  0
    0.0582    0.4688    1.7019 O   0  0  0  1  0  0  0  0  0  0  0  0
    1.7118    1.0593    0.2936 N   0  0  0  1  0  0  0  0  0  0  0  0
    0.5479    4.0214   -0.7096 H   0  0  0  1  0  0  0  0  0  0  0  0
   -0.4070    2.4503   -1.5322 C   0  0  0  1  0  0  0  0  0  0  0  0
    2.3374   -0.2546    0.2815 C   0  0  0  1  0  0  0  0  0  0  0  0
   -0.4320    3.0790   -2.8971 C   0  0  0  1  0  0  0  0  0  0  0  0
   -0.8440    1.3143   -1.3527 O   0  0  0  1  0  0  0  0  0  0  0  0
    2.1058    1.7758   -0.2466 H   0  0  0  1  0  0  0  0  0  0  0  0
    1.6070   -0.9957    0.0320 H   0  0  0  1  0  0  0  0  0  0  0  0
    2.7428   -0.4653    1.2490 H   0  0  0  1  0  0  0  0  0  0  0  0
    3.1223   -0.2689   -0.4455 H   0  0  0  1  0  0  0  0  0  0  0  0
    0.5589    3.3745   -3.1724 H   0  0  0  1  0  0  0  0  0  0  0  0
   -1.0690    3.9385   -2.8820 H   0  0  0  1  0  0  0  0  0  0  0  0
   -0.8036    2.3715   -3.6087 H   0  0  0  1  0  0  0  0  0  0  0  0
   -4.4301    8.0052    0.4437 Br  0  0  0  1  0  0  0  0  0  0  0  0
   -3.4402    6.4149    0.6951 C   0  0  0  1  0  0  0  0  0  0  0  0
   -2.9395    6.1049    1.9500 C   0  0  0  1  0  0  0  0  0  0  0  0
   -2.2831    4.9061    2.1555 C   0  0  0  1  0  0  0  0  0  0  0  0
   -2.1302    4.0114    1.1079 C   0  0  0  1  0  0  0  0  0  0  0  0
   -2.6293    4.3203   -0.1435 C   0  0  0  1  0  0  0  0  0  0  0  0
   -3.2876    5.5227   -0.3494 C   0  0  0  1  0  0  0  0  0  0  0  0
   -1.4180    2.6985    1.3331 C   0  0  0  1  0  0  0  0  0  0  0  0
   -3.0578    6.7744    2.7369 H   0  0  0  1  0  0  0  0  0  0  0  0
   -1.9040    4.6754    3.0960 H   0  0  0  1  0  0  0  0  0  0  0  0
   -2.5109    3.6507   -0.9304 H   0  0  0  1  0  0  0  0  0  0  0  0
   -3.6667    5.7534   -1.2900 H   0  0  0  1  0  0  0  0  0  0  0  0
   -1.4382    2.4752    2.3794 H   0  0  0  1  0  0  0  0  0  0  0  0
   -1.9365    1.9331    0.7945 H   0  0  0  1  0  0  0  0  0  0  0  0
  1  4  1  0  0  0  0
  2  4  1  0  0  0  0
  2  5  2  0  0  0  0
  2  6  1  0  0  0  0
  3  4  1  0  0  0  0
  3  7  1  0  0  0  0
  3  8  1  0  0  0  0
  4 26  1  0  0  0  0
  6  9  1  0  0  0  0
  6 12  1  0  0  0  0
  8 10  1  0  0  0  0
  8 11  2  0  0  0  0
  9 13  1  0  0  0  0
  9 14  1  0  0  0  0
  9 15  1  0  0  0  0
 10 16  1  0  0  0  0
 10 17  1  0  0  0  0
 10 18  1  0  0  0  0
 19 20  1  0  0  0  0
 20 21  4  0  0  0  0
 20 25  4  0  0  0  0
 21 22  4  0  0  0  0
 21 27  1  0  0  0  0
 22 23  4  0  0  0  0
 22 28  1  0  0  0  0
 23 24  4  0  0  0  0
 23 26  1  0  0  0  0
 24 25  4  0  0  0  0
 24 29  1  0  0  0  0
 25 30  1  0  0  0  0
 26 31  1  0  0  0  0
 26 32  1  0  0  0  0
M  END
> <BCLConfClusterSize>
1

> <ConfClashScore>
0 

> <ConfOneFourInteractionScore>
-0.957364 

> <ConfScore>
0.0407303 

> <ConfScorePBest>
0.00430222 

> <ConfTolerance>
0.233473 

> <RosettaParamsInstructions>
M  ROOT 3
M  POLY_N_BB 3
M  POLY_CA_BB 4
M  POLY_C_BB 2
M  POLY_O_BB 5
M  POLY_IGNORE 9 10 11 12 13 14 15 16 17 18 
M  POLY_UPPER 6
M  POLY_LOWER 8
M  POLY_CHG 0
M  POLY_PROPERTIES ALPHA_AA L_AA PROTEIN AROMATIC POLYMER 
M  END

$$$$



 32 32  0  0  0  0  0  0  0  0999 V2000
    0.2956    3.3696    2.3426 H   0  0  0  1  0  0  0  0  0  0  0  0
    0.7939    1.4880    1.5360 C   0  0  0  1  0  0  0  0  0  0  0  0
    0.6452    3.6409    0.3414 N   0  0  0  1  0  0  0  0  0  0  0  0
    0.0945    2.8491    1.4296 C   0  0  0  1  0  0  0  0  0  0  0  0
    1.3333    0.9971    0.5455 O   0  0  0  1  0  0  0  0  0  0  0  0
    0.8527    0.9341    2.7517 N   0  0  0  1  0  0  0  0  0  0  0  0
    1.0207    3.1951   -0.4464 H   0  0  0  1  0  0  0  0  0  0  0  0
    0.6402    4.9807    0.4135 C   0  0  0  1  0  0  0  0  0  0  0  0
    1.5569   -0.3142    3.0040 C   0  0  0  1  0  0  0  0  0  0  0  0
    1.2442    5.6618   -0.8078 C   0  0  0  1  0  0  0  0  0  0  0  0
    0.2025    5.6226    1.3510 O   0  0  0  1  0  0  0  0  0  0  0  0
    0.4060    1.3845    3.4988 H   0  0  0  1  0  0  0  0  0  0  0  0
    2.3682   -0.1366    3.6786 H   0  0  0  1  0  0  0  0  0  0  0  0
    1.9381   -0.7010    2.0821 H   0  0  0  1  0  0  0  0  0  0  0  0
    0.8821   -1.0229    3.4369 H   0  0  0  1  0  0  0  0  0  0  0  0
    1.0366    5.0791   -1.6809 H   0  0  0  1  0  0  0  0  0  0  0  0
    2.3030    5.7483   -0.6805 H   0  0  0  1  0  0  0  0  0  0  0  0
    0.8171    6.6365   -0.9200 H   0  0  0  1  0  0  0  0  0  0  0  0
   -4.4301    8.0052    0.4437 Br  0  0  0  1  0  0  0  0  0  0  0  0
   -3.4402    6.4149    0.6951 C   0  0  0  1  0  0  0  0  0  0  0  0
   -2.9395    6.1049    1.9500 C   0  0  0  1  0  0  0  0  0  0  0  0
   -2.2831    4.9061    2.1555 C   0  0  0  1  0  0  0  0  0  0  0  0
   -2.1302    4.0114    1.1079 C   0  0  0  1  0  0  0  0  0  0  0  0
   -2.6293    4.3203   -0.1435 C   0  0  0  1  0  0  0  0  0  0  0  0
   -3.2876    5.5227   -0.3494 C   0  0  0  1  0  0  0  0  0  0  0  0
   -1.4180    2.6985    1.3331 C   0  0  0  1  0  0  0  0  0  0  0  0
   -3.0578    6.7744    2.7369 H   0  0  0  1  0  0  0  0  0  0  0  0
   -1.9040    4.6754    3.0960 H   0  0  0  1  0  0  0  0  0  0  0  0
   -2.5109    3.6507   -0.9304 H   0  0  0  1  0  0  0  0  0  0  0  0
   -3.6667    5.7534   -1.2900 H   0  0  0  1  0  0  0  0  0  0  0  0
   -1.7764    2.2688    2.2452 H   0  0  0  1  0  0  0  0  0  0  0  0
   -1.6438    2.0442    0.5171 H   0  0  0  1  0  0  0  0  0  0  0  0
  1  4  1  0  0  0  0
  2  4  1  0  0  0  0
  2  5  2  0  0  0  0
  2  6  1  0  0  0  0
  3  4  1  0  0  0  0
  3  7  1  0  0  0  0
  3  8  1  0  0  0  0
  4 26  1  0  0  0  0
  6  9  1  0  0  0  0
  6 12  1  0  0  0  0
  8 10  1  0  0  0  0
  8 11  2  0  0  0  0
  9 13  1  0  0  0  0
  9 14  1  0  0  0  0
  9 15  1  0  0  0  0
 10 16  1  0  0  0  0
 10 17  1  0  0  0  0
 10 18  1  0  0  0  0
 19 20  1  0  0  0  0
 20 21  4  0  0  0  0
 20 25  4  0  0  0  0
 21 22  4  0  0  0  0
 21 27  1  0  0  0  0
 22 23  4  0  0  0  0
 22 28  1  0  0  0  0
 23 24  4  0  0  0  0
 23 26  1  0  0  0  0
 24 25  4  0  0  0  0
 24 29  1  0  0  0  0
 25 30  1  0  0  0  0
 26 31  1  0  0  0  0
 26 32  1  0  0  0  0
M  END
> <BCLConfClusterSize>
1

> <ConfClashScore>
0 

> <ConfOneFourInteractionScore>
-0.992391 

> <ConfScore>
0.0409785 

> <ConfScorePBest>
0.00427374 

> <ConfTolerance>
0.536994 

> <RosettaParamsInstructions>
M  ROOT 3
M  POLY_N_BB 3
M  POLY_CA_BB 4
M  POLY_C_BB 2
M  POLY_O_BB 5
M  POLY_IGNORE 9 10 11 12 13 14 15 16 17 18 
M  POLY_UPPER 6
M  POLY_LOWER 8
M  POLY_CHG 0
M  POLY_PROPERTIES ALPHA_AA L_AA PROTEIN AROMATIC POLYMER 
M  END

$$$$



 32 32  0  0  0  0  0  0  0  0999 V2000
   -1.6913    0.7119    1.9883 H   0  0  0  1  0  0  0  0  0  0  0  0
   -2.3225    2.0052    3.5359 C   0  0  0  1  0  0  0  0  0  0  0  0
   -3.5203    1.4832    1.4171 N   0  0  0  1  0  0  0  0  0  0  0  0
   -2.2248    1.6365    2.0621 C   0  0  0  1  0  0  0  0  0  0  0  0
   -3.3377    2.5373    3.9822 O   0  0  0  1  0  0  0  0  0  0  0  0
   -1.2766    1.6258    4.2779 N   0  0  0  1  0  0  0  0  0  0  0  0
   -3.6957    2.0236    0.6186 H   0  0  0  1  0  0  0  0  0  0  0  0
   -4.4870    0.6625    1.8310 C   0  0  0  1  0  0  0  0  0  0  0  0
   -1.2974    1.6728    5.7323 C   0  0  0  1  0  0  0  0  0  0  0  0
   -5.7846    0.7260    1.0489 C   0  0  0  1  0  0  0  0  0  0  0  0
   -4.3529   -0.1038    2.7841 O   0  0  0  1  0  0  0  0  0  0  0  0
   -0.4681    1.3049    3.8266 H   0  0  0  1  0  0  0  0  0  0  0  0
   -2.1694    1.1689    6.0936 H   0  0  0  1  0  0  0  0  0  0  0  0
   -1.3154    2.6927    6.0557 H   0  0  0  1  0  0  0  0  0  0  0  0
   -0.4226    1.1916    6.1170 H   0  0  0  1  0  0  0  0  0  0  0  0
   -6.1930    1.7128    1.1142 H   0  0  0  1  0  0  0  0  0  0  0  0
   -6.4814    0.0241    1.4571 H   0  0  0  1  0  0  0  0  0  0  0  0
   -5.5949    0.4859    0.0236 H   0  0  0  1  0  0  0  0  0  0  0  0
   -4.4301    8.0052    0.4437 Br  0  0  0  1  0  0  0  0  0  0  0  0
   -3.4402    6.4149    0.6951 C   0  0  0  1  0  0  0  0  0  0  0  0
   -2.9395    6.1049    1.9500 C   0  0  0  1  0  0  0  0  0  0  0  0
   -2.2831    4.9061    2.1555 C   0  0  0  1  0  0  0  0  0  0  0  0
   -2.1302    4.0114    1.1079 C   0  0  0  1  0  0  0  0  0  0  0  0
   -2.6293    4.3203   -0.1435 C   0  0  0  1  0  0  0  0  0  0  0  0
   -3.2876    5.5227   -0.3494 C   0  0  0  1  0  0  0  0  0  0  0  0
   -1.4180    2.6985    1.3331 C   0  0  0  1  0  0  0  0  0  0  0  0
   -3.0578    6.7744    2.7369 H   0  0  0  1  0  0  0  0  0  0  0  0
   -1.9040    4.6754    3.0960 H   0  0  0  1  0  0  0  0  0  0  0  0
   -2.5109    3.6507   -0.9304 H   0  0  0  1  0  0  0  0  0  0  0  0
   -3.6667    5.7534   -1.2900 H   0  0  0  1  0  0  0  0  0  0  0  0
   -1.1415    2.3048    0.3774 H   0  0  0  1  0  0  0  0  0  0  0  0
   -0.5366    2.8953    1.9070 H   0  0  0  1  0  0  0  0  0  0  0  0
  1  4  1  0  0  0  0
  2  4  1  0  0  0  0
  2  5  2  0  0  0  0
  2  6  1  0  0  0  0
  3  4  1  0  0  0  0
  3  7  1  0  0  0  0
  3  8  1  0  0  0  0
  4 26  1  0  0  0  0
  6  9  1  0  0  0  0
  6 12  1  0  0  0  0
  8 10  1  0  0  0  0
  8 11  2  0  0  0  0
  9 13  1  0  0  0  0
  9 14  1  0  0  0  0
  9 15  1  0  0  0  0
 10 16  1  0  0  0  0
 10 17  1  0  0  0  0
 10 18  1  0  0  0  0
 19 20  1  0  0  0  0
 20 21  4  0  0  0  0
 20 25  4  0  0  0  0
 21 22  4  0  0  0  0
 21 27  1  0  0  0  0
 22 23  4  0  0  0  0
 22 28  1  0  0  0  0
 23 24  4  0  0  0  0
 23 26  1  0  0  0  0
 24 25  4  0  0  0  0
 24 29  1  0  0  0  0
 25 30  1  0  0  0  0
 26 31  1  0  0  0  0
 26 32  1  0  0  0  0
M  END
> <BCLConfClusterSize>
1

> <ConfClashScore>
0 

> <ConfOneFourInteractionScore>
-0.976093 

> <ConfScore>
0.0411943 

> <ConfScorePBest>
0.00424526 

> <ConfTolerance>
0.35902 

> <RosettaParamsInstructions>
M  ROOT 3
M  POLY_N_BB 3
M  POLY_CA_BB 4
M  POLY_C_BB 2
M  POLY_O_BB 5
M  POLY_IGNORE 9 10 11 12 13 14 15 16 17 18 
M  POLY_UPPER 6
M  POLY_LOWER 8
M  POLY_CHG 0
M  POLY_PROPERTIES ALPHA_AA L_AA PROTEIN AROMATIC POLYMER 
M  END

$$$$



 32 32  0  0  0  0  0  0  0  0999 V2000
   -2.9127    1.4533    0.6110 H   0  0  0  1  0  0  0  0  0  0  0  0
   -1.6043    0.1470    1.5620 C   0  0  0  1  0  0  0  0  0  0  0  0
   -3.2779    1.6560    2.6140 N   0  0  0  1  0  0  0  0  0  0  0  0
   -2.3214    1.4879    1.5021 C   0  0  0  1  0  0  0  0  0  0  0  0
   -0.8304   -0.0933    2.4874 O   0  0  0  1  0  0  0  0  0  0  0  0
   -1.9275   -0.7516    0.6258 N   0  0  0  1  0  0  0  0  0  0  0  0
   -3.2153    2.4573    3.1747 H   0  0  0  1  0  0  0  0  0  0  0  0
   -4.2560    0.7251    2.8909 C   0  0  0  1  0  0  0  0  0  0  0  0
   -1.3908   -2.1043    0.6285 C   0  0  0  1  0  0  0  0  0  0  0  0
   -4.9758    0.8983    4.1965 C   0  0  0  1  0  0  0  0  0  0  0  0
   -4.4907   -0.1673    2.0982 O   0  0  0  1  0  0  0  0  0  0  0  0
   -2.5474   -0.4901   -0.0868 H   0  0  0  1  0  0  0  0  0  0  0  0
   -1.2716   -2.4393    1.6377 H   0  0  0  1  0  0  0  0  0  0  0  0
   -0.4409   -2.1118    0.1360 H   0  0  0  1  0  0  0  0  0  0  0  0
   -2.0652   -2.7563    0.1137 H   0  0  0  1  0  0  0  0  0  0  0  0
   -5.3902    1.8834    4.2480 H   0  0  0  1  0  0  0  0  0  0  0  0
   -4.2879    0.7582    5.0040 H   0  0  0  1  0  0  0  0  0  0  0  0
   -5.7625    0.1766    4.2682 H   0  0  0  1  0  0  0  0  0  0  0  0
   -4.4301    8.0052    0.4437 Br  0  0  0  1  0  0  0  0  0  0  0  0
   -3.4402    6.4149    0.6951 C   0  0  0  1  0  0  0  0  0  0  0  0
   -2.9395    6.1049    1.9500 C   0  0  0  1  0  0  0  0  0  0  0  0
   -2.2831    4.9061    2.1555 C   0  0  0  1  0  0  0  0  0  0  0  0
   -2.1302    4.0114    1.1079 C   0  0  0  1  0  0  0  0  0  0  0  0
   -2.6293    4.3203   -0.1435 C   0  0  0  1  0  0  0  0  0  0  0  0
   -3.2876    5.5227   -0.3494 C   0  0  0  1  0  0  0  0  0  0  0  0
   -1.4180    2.6985    1.3331 C   0  0  0  1  0  0  0  0  0  0  0  0
   -3.0578    6.7744    2.7369 H   0  0  0  1  0  0  0  0  0  0  0  0
   -1.9040    4.6754    3.0960 H   0  0  0  1  0  0  0  0  0  0  0  0
   -2.5109    3.6507   -0.9304 H   0  0  0  1  0  0  0  0  0  0  0  0
   -3.6667    5.7534   -1.2900 H   0  0  0  1  0  0  0  0  0  0  0  0
   -0.7809    2.5201    0.4922 H   0  0  0  1  0  0  0  0  0  0  0  0
   -0.8237    2.7929    2.2179 H   0  0  0  1  0  0  0  0  0  0  0  0
  1  4  1  0  0  0  0
  2  4  1  0  0  0  0
  2  5  2  0  0  0  0
  2  6  1  0  0  0  0
  3  4  1  0  0  0  0
  3  7  1  0  0  0  0
  3  8  1  0  0  0  0
  4 26  1  0  0  0  0
  6  9  1  0  0  0  0
  6 12  1  0  0  0  0
  8 10  1  0  0  0  0
  8 11  2  0  0  0  0
  9 13  1  0  0  0  0
  9 14  1  0  0  0  0
  9 15  1  0  0  0  0
 10 16  1  0  0  0  0
 10 17  1  0  0  0  0
 10 18  1  0  0  0  0
 19 20  1  0  0  0  0
 20 21  4  0  0  0  0
 20 25  4  0  0  0  0
 21 22  4  0  0  0  0
 21 27  1  0  0  0  0
 22 23  4  0  0  0  0
 22 28  1  0  0  0  0
 23 24  4  0  0  0  0
 23 26  1  0  0  0  0
 24 25  4  0  0  0  0
 24 29  1  0  0  0  0
 25 30  1  0  0  0  0
 26 31  1  0  0  0  0
 26 32  1  0  0  0  0
M  END
> <BCLConfClusterSize>
1

> <ConfClashScore>
0 

> <ConfOneFourInteractionScore>
-0.985807 

> <ConfScore>
0.0412466 

> <ConfScorePBest>
0.00421678 

> <ConfTolerance>
0.396119 

> <RosettaParamsInstructions>
M  ROOT 3
M  POLY_N_BB 3
M  POLY_CA_BB 4
M  POLY_C_BB 2
M  POLY_O_BB 5
M  POLY_IGNORE 9 10 11 12 13 14 15 16 17 18 
M  POLY_UPPER 6
M  POLY_LOWER 8
M  POLY_CHG 0
M  POLY_PROPERTIES ALPHA_AA L_AA PROTEIN AROMATIC POLYMER 
M  END

$$$$



 32 32  0  0  0  0  0  0  0  0999 V2000
   -3.2346    1.8747    1.9720 H   0  0  0  1  0  0  0  0  0  0  0  0
   -2.8852    1.0359    0.0907 C   0  0  0  1  0  0  0  0  0  0  0  0
   -1.8381    0.4142    2.2453 N   0  0  0  1  0  0  0  0  0  0  0  0
   -2.3762    1.5080    1.4490 C   0  0  0  1  0  0  0  0  0  0  0  0
   -3.8632    1.5796   -0.4200 O   0  0  0  1  0  0  0  0  0  0  0  0
   -2.1686    0.0855   -0.5259 N   0  0  0  1  0  0  0  0  0  0  0  0
   -0.9020    0.4711    2.5297 H   0  0  0  1  0  0  0  0  0  0  0  0
   -2.5392   -0.6620    2.6130 C   0  0  0  1  0  0  0  0  0  0  0  0
   -2.6074   -0.4439   -1.8085 C   0  0  0  1  0  0  0  0  0  0  0  0
   -1.7715   -1.7160    3.3784 C   0  0  0  1  0  0  0  0  0  0  0  0
   -3.7335   -0.8039    2.3542 O   0  0  0  1  0  0  0  0  0  0  0  0
   -1.3475   -0.2535   -0.1121 H   0  0  0  1  0  0  0  0  0  0  0  0
   -3.1810    0.2980   -2.3237 H   0  0  0  1  0  0  0  0  0  0  0  0
   -3.2107   -1.3128   -1.6478 H   0  0  0  1  0  0  0  0  0  0  0  0
   -1.7531   -0.7061   -2.3970 H   0  0  0  1  0  0  0  0  0  0  0  0
   -0.7681   -1.3810    3.5389 H   0  0  0  1  0  0  0  0  0  0  0  0
   -1.7578   -2.6260    2.8157 H   0  0  0  1  0  0  0  0  0  0  0  0
   -2.2455   -1.8869    4.3224 H   0  0  0  1  0  0  0  0  0  0  0  0
   -4.4301    8.0052    0.4437 Br  0  0  0  1  0  0  0  0  0  0  0  0
   -3.4402    6.4149    0.6951 C   0  0  0  1  0  0  0  0  0  0  0  0
   -2.9395    6.1049    1.9500 C   0  0  0  1  0  0  0  0  0  0  0  0
   -2.2831    4.9061    2.1555 C   0  0  0  1  0  0  0  0  0  0  0  0
   -2.1302    4.0114    1.1079 C   0  0  0  1  0  0  0  0  0  0  0  0
   -2.6293    4.3203   -0.1435 C   0  0  0  1  0  0  0  0  0  0  0  0
   -3.2876    5.5227   -0.3494 C   0  0  0  1  0  0  0  0  0  0  0  0
   -1.4180    2.6985    1.3331 C   0  0  0  1  0  0  0  0  0  0  0  0
   -3.0578    6.7744    2.7369 H   0  0  0  1  0  0  0  0  0  0  0  0
   -1.9040    4.6754    3.0960 H   0  0  0  1  0  0  0  0  0  0  0  0
   -2.5109    3.6507   -0.9304 H   0  0  0  1  0  0  0  0  0  0  0  0
   -3.6667    5.7534   -1.2900 H   0  0  0  1  0  0  0  0  0  0  0  0
   -0.7565    2.5244    0.5104 H   0  0  0  1  0  0  0  0  0  0  0  0
   -0.8516    2.7692    2.2381 H   0  0  0  1  0  0  0  0  0  0  0  0
  1  4  1  0  0  0  0
  2  4  1  0  0  0  0
  2  5  2  0  0  0  0
  2  6  1  0  0  0  0
  3  4  1  0  0  0  0
  3  7  1  0  0  0  0
  3  8  1  0  0  0  0
  4 26  1  0  0  0  0
  6  9  1  0  0  0  0
  6 12  1  0  0  0  0
  8 10  1  0  0  0  0
  8 11  2  0  0  0  0
  9 13  1  0  0  0  0
  9 14  1  0  0  0  0
  9 15  1  0  0  0  0
 10 16  1  0  0  0  0
 10 17  1  0  0  0  0
 10 18  1  0  0  0  0
 19 20  1  0  0  0  0
 20 21  4  0  0  0  0
 20 25  4  0  0  0  0
 21 22  4  0  0  0  0
 21 27  1  0  0  0  0
 22 23  4  0  0  0  0
 22 28  1  0  0  0  0
 23 24  4  0  0  0  0
 23 26  1  0  0  0  0
 24 25  4  0  0  0  0
 24 29  1  0  0  0  0
 25 30  1  0  0  0  0
 26 31  1  0  0  0  0
 26 32  1  0  0  0  0
M  END
> <BCLConfClusterSize>
1

> <ConfClashScore>
0 

> <ConfOneFourInteractionScore>
-0.940901 

> <ConfScore>
0.041825 

> <ConfScorePBest>
0.0041883 

> <ConfTolerance>
0.341326 

> <RosettaParamsInstructions>
M  ROOT 3
M  POLY_N_BB 3
M  POLY_CA_BB 4
M  POLY_C_BB 2
M  POLY_O_BB 5
M  POLY_IGNORE 9 10 11 12 13 14 15 16 17 18 
M  POLY_UPPER 6
M  POLY_LOWER 8
M  POLY_CHG 0
M  POLY_PROPERTIES ALPHA_AA L_AA PROTEIN AROMATIC POLYMER 
M  END

$$$$



 32 32  0  0  0  0  0  0  0  0999 V2000
    0.2993    3.7262    2.1491 H   0  0  0  1  0  0  0  0  0  0  0  0
    0.8405    1.6857    1.9144 C   0  0  0  1  0  0  0  0  0  0  0  0
    0.6938    3.3798    0.1488 N   0  0  0  1  0  0  0  0  0  0  0  0
    0.1351    2.9565    1.4242 C   0  0  0  1  0  0  0  0  0  0  0  0
    0.2715    0.9352    2.7055 O   0  0  0  1  0  0  0  0  0  0  0  0
    2.0338    1.4130    1.3758 N   0  0  0  1  0  0  0  0  0  0  0  0
    1.0248    4.2997    0.0821 H   0  0  0  1  0  0  0  0  0  0  0  0
    0.7892    2.6098   -0.9362 C   0  0  0  1  0  0  0  0  0  0  0  0
    2.7749    0.2033    1.7001 C   0  0  0  1  0  0  0  0  0  0  0  0
    1.2407    3.3077   -2.1992 C   0  0  0  1  0  0  0  0  0  0  0  0
    0.5305    1.4070   -0.9290 O   0  0  0  1  0  0  0  0  0  0  0  0
    2.4227    2.0499    0.7406 H   0  0  0  1  0  0  0  0  0  0  0  0
    2.1762   -0.6540    1.4733 H   0  0  0  1  0  0  0  0  0  0  0  0
    3.0179    0.2027    2.7422 H   0  0  0  1  0  0  0  0  0  0  0  0
    3.6756    0.1717    1.1234 H   0  0  0  1  0  0  0  0  0  0  0  0
    2.1526    3.8344   -2.0097 H   0  0  0  1  0  0  0  0  0  0  0  0
    0.4876    4.0002   -2.5125 H   0  0  0  1  0  0  0  0  0  0  0  0
    1.4015    2.5823   -2.9692 H   0  0  0  1  0  0  0  0  0  0  0  0
   -4.4115    8.0150    0.4374 Br  0  0  0  1  0  0  0  0  0  0  0  0
   -3.4362    6.4166    0.6942 C   0  0  0  1  0  0  0  0  0  0  0  0
   -2.9412    6.1046    1.9508 C   0  0  0  1  0  0  0  0  0  0  0  0
   -2.2959    4.9005    2.1601 C   0  0  0  1  0  0  0  0  0  0  0  0
   -2.1483    4.0024    1.1146 C   0  0  0  1  0  0  0  0  0  0  0  0
   -2.6417    4.3133   -0.1385 C   0  0  0  1  0  0  0  0  0  0  0  0
   -3.2890    5.5210   -0.3483 C   0  0  0  1  0  0  0  0  0  0  0  0
   -1.3660    2.7252    1.3104 C   0  0  0  1  0  0  0  0  0  0  0  0
   -3.0554    6.7766    2.7362 H   0  0  0  1  0  0  0  0  0  0  0  0
   -1.9210    4.6682    3.1020 H   0  0  0  1  0  0  0  0  0  0  0  0
   -2.5275    3.6412   -0.9239 H   0  0  0  1  0  0  0  0  0  0  0  0
   -3.6639    5.7533   -1.2901 H   0  0  0  1  0  0  0  0  0  0  0  0
   -1.7066    2.2514    2.2073 H   0  0  0  1  0  0  0  0  0  0  0  0
   -1.5492    2.0822    0.4750 H   0  0  0  1  0  0  0  0  0  0  0  0
  1  4  1  0  0  0  0
  2  4  1  0  0  0  0
  2  5  2  0  0  0  0
  2  6  1  0  0  0  0
  3  4  1  0  0  0  0
  3  7  1  0  0  0  0
  3  8  1  0  0  0  0
  4 26  1  0  0  0  0
  6  9  1  0  0  0  0
  6 12  1  0  0  0  0
  8 10  1  0  0  0  0
  8 11  2  0  0  0  0
  9 13  1  0  0  0  0
  9 14  1  0  0  0  0
  9 15  1  0  0  0  0
 10 16  1  0  0  0  0
 10 17  1  0  0  0  0
 10 18  1  0  0  0  0
 19 20  1  0  0  0  0
 20 21  4  0  0  0  0
 20 25  4  0  0  0  0
 21 22  4  0  0  0  0
 21 27  1  0  0  0  0
 22 23  4  0  0  0  0
 22 28  1  0  0  0  0
 23 24  4  0  0  0  0
 23 26  1  0  0  0  0
 24 25  4  0  0  0  0
 24 29  1  0  0  0  0
 25 30  1  0  0  0  0
 26 31  1  0  0  0  0
 26 32  1  0  0  0  0
M  END
> <BCLConfClusterSize>
1

> <ConfClashScore>
0 

> <ConfOneFourInteractionScore>
-0.957364 

> <ConfScore>
0.0434228 

> <ConfScorePBest>
0.00415982 

> <ConfTolerance>
0.222956 

> <RosettaParamsInstructions>
M  ROOT 3
M  POLY_N_BB 3
M  POLY_CA_BB 4
M  POLY_C_BB 2
M  POLY_O_BB 5
M  POLY_IGNORE 9 10 11 12 13 14 15 16 17 18 
M  POLY_UPPER 6
M  POLY_LOWER 8
M  POLY_CHG 0
M  POLY_PROPERTIES ALPHA_AA L_AA PROTEIN AROMATIC POLYMER 
M  END

$$$$



 32 32  0  0  0  0  0  0  0  0999 V2000
    0.4428    1.7290    1.1941 H   0  0  0  1  0  0  0  0  0  0  0  0
    0.2000    2.7644   -0.6208 C   0  0  0  1  0  0  0  0  0  0  0  0
    0.7600    3.7220    1.5912 N   0  0  0  1  0  0  0  0  0  0  0  0
    0.0409    2.6721    0.8876 C   0  0  0  1  0  0  0  0  0  0  0  0
   -0.3716    1.9536   -1.3481 O   0  0  0  1  0  0  0  0  0  0  0  0
    0.9037    3.8001   -1.0903 N   0  0  0  1  0  0  0  0  0  0  0  0
    0.2450    4.4979    1.8963 H   0  0  0  1  0  0  0  0  0  0  0  0
    2.0680    3.7085    1.8526 C   0  0  0  1  0  0  0  0  0  0  0  0
    1.0833    3.9715   -2.5243 C   0  0  0  1  0  0  0  0  0  0  0  0
    2.6030    4.8234    2.7602 C   0  0  0  1  0  0  0  0  0  0  0  0
    2.8223    2.8164    1.4682 O   0  0  0  1  0  0  0  0  0  0  0  0
    1.2992    4.4451   -0.4675 H   0  0  0  1  0  0  0  0  0  0  0  0
    1.2858    3.0224   -2.9749 H   0  0  0  1  0  0  0  0  0  0  0  0
    1.9043    4.6338   -2.7040 H   0  0  0  1  0  0  0  0  0  0  0  0
    0.1919    4.3844   -2.9483 H   0  0  0  1  0  0  0  0  0  0  0  0
    3.2536    5.4602    2.1980 H   0  0  0  1  0  0  0  0  0  0  0  0
    3.1448    4.3905    3.5751 H   0  0  0  1  0  0  0  0  0  0  0  0
    1.7839    5.3972    3.1406 H   0  0  0  1  0  0  0  0  0  0  0  0
   -4.4309    8.0037    0.4382 Br  0  0  0  1  0  0  0  0  0  0  0  0
   -3.4400    6.4150    0.6957 C   0  0  0  1  0  0  0  0  0  0  0  0
   -2.9409    6.1090    1.9522 C   0  0  0  1  0  0  0  0  0  0  0  0
   -2.2839    4.9114    2.1622 C   0  0  0  1  0  0  0  0  0  0  0  0
   -2.1287    4.0137    1.1174 C   0  0  0  1  0  0  0  0  0  0  0  0
   -2.6263    4.3185   -0.1355 C   0  0  0  1  0  0  0  0  0  0  0  0
   -3.2853    5.5198   -0.3459 C   0  0  0  1  0  0  0  0  0  0  0  0
   -1.4253    2.6879    1.2878 C   0  0  0  1  0  0  0  0  0  0  0  0
   -3.0609    6.7808    2.7370 H   0  0  0  1  0  0  0  0  0  0  0  0
   -1.9059    4.6837    3.1039 H   0  0  0  1  0  0  0  0  0  0  0  0
   -2.5063    3.6467   -0.9203 H   0  0  0  1  0  0  0  0  0  0  0  0
   -3.6632    5.7475   -1.2877 H   0  0  0  1  0  0  0  0  0  0  0  0
   -1.4890    2.4107    2.3193 H   0  0  0  1  0  0  0  0  0  0  0  0
   -1.9383    1.9631    0.6908 H   0  0  0  1  0  0  0  0  0  0  0  0
  1  4  1  0  0  0  0
  2  4  1  0  0  0  0
  2  5  2  0  0  0  0
  2  6  1  0  0  0  0
  3  4  1  0  0  0  0
  3  7  1  0  0  0  0
  3  8  1  0  0  0  0
  4 26  1  0  0  0  0
  6  9  1  0  0  0  0
  6 12  1  0  0  0  0
  8 10  1  0  0  0  0
  8 11  2  0  0  0  0
  9 13  1  0  0  0  0
  9 14  1  0  0  0  0
  9 15  1  0  0  0  0
 10 16  1  0  0  0  0
 10 17  1  0  0  0  0
 10 18  1  0  0  0  0
 19 20  1  0  0  0  0
 20 21  4  0  0  0  0
 20 25  4  0  0  0  0
 21 22  4  0  0  0  0
 21 27  1  0  0  0  0
 22 23  4  0  0  0  0
 22 28  1  0  0  0  0
 23 24  4  0  0  0  0
 23 26  1  0  0  0  0
 24 25  4  0  0  0  0
 24 29  1  0  0  0  0
 25 30  1  0  0  0  0
 26 31  1  0  0  0  0
 26 32  1  0  0  0  0
M  END
> <BCLConfClusterSize>
1

> <ConfClashScore>
0 

> <ConfOneFourInteractionScore>
-0.931937 

> <ConfScore>
0.0441147 

> <ConfScorePBest>
0.00413134 

> <ConfTolerance>
0.368882 

> <RosettaParamsInstructions>
M  ROOT 3
M  POLY_N_BB 3
M  POLY_CA_BB 4
M  POLY_C_BB 2
M  POLY_O_BB 5
M  POLY_IGNORE 9 10 11 12 13 14 15 16 17 18 
M  POLY_UPPER 6
M  POLY_LOWER 8
M  POLY_CHG 0
M  POLY_PROPERTIES ALPHA_AA L_AA PROTEIN AROMATIC POLYMER 
M  END

$$$$



 32 32  0  0  0  0  0  0  0  0999 V2000
   -0.7177    2.3628   -0.5922 H   0  0  0  1  0  0  0  0  0  0  0  0
   -0.5501    0.5107    0.4050 C   0  0  0  1  0  0  0  0  0  0  0  0
   -2.5896    1.5168   -0.4314 N   0  0  0  1  0  0  0  0  0  0  0  0
   -1.2840    1.8199    0.1355 C   0  0  0  1  0  0  0  0  0  0  0  0
   -1.1736   -0.5061    0.7055 O   0  0  0  1  0  0  0  0  0  0  0  0
    0.7707    0.5578    0.2013 N   0  0  0  1  0  0  0  0  0  0  0  0
   -3.3791    1.8385    0.0520 H   0  0  0  1  0  0  0  0  0  0  0  0
   -2.7930    0.8332   -1.5611 C   0  0  0  1  0  0  0  0  0  0  0  0
    1.6850   -0.5564    0.4031 C   0  0  0  1  0  0  0  0  0  0  0  0
   -4.2390    0.5992   -1.9359 C   0  0  0  1  0  0  0  0  0  0  0  0
   -1.8751    0.4131   -2.2644 O   0  0  0  1  0  0  0  0  0  0  0  0
    1.1517    1.4064   -0.1071 H   0  0  0  1  0  0  0  0  0  0  0  0
    2.6449   -0.1827    0.6928 H   0  0  0  1  0  0  0  0  0  0  0  0
    1.7782   -1.1104   -0.5075 H   0  0  0  1  0  0  0  0  0  0  0  0
    1.3042   -1.1951    1.1724 H   0  0  0  1  0  0  0  0  0  0  0  0
   -4.6829    1.5235   -2.2415 H   0  0  0  1  0  0  0  0  0  0  0  0
   -4.7681    0.2120   -1.0903 H   0  0  0  1  0  0  0  0  0  0  0  0
   -4.2892   -0.1037   -2.7411 H   0  0  0  1  0  0  0  0  0  0  0  0
   -4.4293    8.0064    0.4488 Br  0  0  0  1  0  0  0  0  0  0  0  0
   -3.4402    6.4147    0.6945 C   0  0  0  1  0  0  0  0  0  0  0  0
   -2.9381    6.1009    1.9479 C   0  0  0  1  0  0  0  0  0  0  0  0
   -2.2824    4.9010    2.1493 C   0  0  0  1  0  0  0  0  0  0  0  0
   -2.1315    4.0091    1.0990 C   0  0  0  1  0  0  0  0  0  0  0  0
   -2.6320    4.3218   -0.1508 C   0  0  0  1  0  0  0  0  0  0  0  0
   -3.2897    5.5252   -0.3526 C   0  0  0  1  0  0  0  0  0  0  0  0
   -1.4121    2.7100    1.3751 C   0  0  0  1  0  0  0  0  0  0  0  0
   -3.0549    6.7683    2.7368 H   0  0  0  1  0  0  0  0  0  0  0  0
   -1.9022    4.6674    3.0887 H   0  0  0  1  0  0  0  0  0  0  0  0
   -2.5152    3.6543   -0.9397 H   0  0  0  1  0  0  0  0  0  0  0  0
   -3.6699    5.7589   -1.2920 H   0  0  0  1  0  0  0  0  0  0  0  0
   -0.4301    2.9345    1.7362 H   0  0  0  1  0  0  0  0  0  0  0  0
   -1.9543    2.1732    2.1253 H   0  0  0  1  0  0  0  0  0  0  0  0
  1  4  1  0  0  0  0
  2  4  1  0  0  0  0
  2  5  2  0  0  0  0
  2  6  1  0  0  0  0
  3  4  1  0  0  0  0
  3  7  1  0  0  0  0
  3  8  1  0  0  0  0
  4 26  1  0  0  0  0
  6  9  1  0  0  0  0
  6 12  1  0  0  0  0
  8 10  1  0  0  0  0
  8 11  2  0  0  0  0
  9 13  1  0  0  0  0
  9 14  1  0  0  0  0
  9 15  1  0  0  0  0
 10 16  1  0  0  0  0
 10 17  1  0  0  0  0
 10 18  1  0  0  0  0
 19 20  1  0  0  0  0
 20 21  4  0  0  0  0
 20 25  4  0  0  0  0
 21 22  4  0  0  0  0
 21 27  1  0  0  0  0
 22 23  4  0  0  0  0
 22 28  1  0  0  0  0
 23 24  4  0  0  0  0
 23 26  1  0  0  0  0
 24 25  4  0  0  0  0
 24 29  1  0  0  0  0
 25 30  1  0  0  0  0
 26 31  1  0  0  0  0
 26 32  1  0  0  0  0
M  END
> <BCLConfClusterSize>
1

> <ConfClashScore>
0 

> <ConfOneFourInteractionScore>
-0.97449 

> <ConfScore>
0.0457477 

> <ConfScorePBest>
0.00410286 

> <ConfTolerance>
0.449006 

> <RosettaParamsInstructions>
M  ROOT 3
M  POLY_N_BB 3
M  POLY_CA_BB 4
M  POLY_C_BB 2
M  POLY_O_BB 5
M  POLY_IGNORE 9 10 11 12 13 14 15 16 17 18 
M  POLY_UPPER 6
M  POLY_LOWER 8
M  POLY_CHG 0
M  POLY_PROPERTIES ALPHA_AA L_AA PROTEIN AROMATIC POLYMER 
M  END

$$$$



 32 32  0  0  0  0  0  0  0  0999 V2000
   -2.9853    1.5453    2.1549 H   0  0  0  1  0  0  0  0  0  0  0  0
   -3.1286    1.4002    0.0468 C   0  0  0  1  0  0  0  0  0  0  0  0
   -1.5165    0.2540    1.4826 N   0  0  0  1  0  0  0  0  0  0  0  0
   -2.3076    1.4661    1.3307 C   0  0  0  1  0  0  0  0  0  0  0  0
   -2.5599    1.3181   -1.0408 O   0  0  0  1  0  0  0  0  0  0  0  0
   -4.4579    1.3495    0.1835 N   0  0  0  1  0  0  0  0  0  0  0  0
   -0.9793   -0.0582    0.7247 H   0  0  0  1  0  0  0  0  0  0  0  0
   -1.4970   -0.4478    2.6192 C   0  0  0  1  0  0  0  0  0  0  0  0
   -5.3583    1.3701   -0.9597 C   0  0  0  1  0  0  0  0  0  0  0  0
   -0.6463   -1.7029    2.6040 C   0  0  0  1  0  0  0  0  0  0  0  0
   -2.1227   -0.1130    3.6239 O   0  0  0  1  0  0  0  0  0  0  0  0
   -4.8390    1.2967    1.0848 H   0  0  0  1  0  0  0  0  0  0  0  0
   -4.9198    0.8254   -1.7696 H   0  0  0  1  0  0  0  0  0  0  0  0
   -5.5280    2.3825   -1.2615 H   0  0  0  1  0  0  0  0  0  0  0  0
   -6.2891    0.9174   -0.6884 H   0  0  0  1  0  0  0  0  0  0  0  0
   -0.2387   -1.8462    1.6251 H   0  0  0  1  0  0  0  0  0  0  0  0
   -1.2507   -2.5463    2.8654 H   0  0  0  1  0  0  0  0  0  0  0  0
    0.1507   -1.6018    3.3107 H   0  0  0  1  0  0  0  0  0  0  0  0
   -4.4301    8.0052    0.4437 Br  0  0  0  1  0  0  0  0  0  0  0  0
   -3.4402    6.4149    0.6951 C   0  0  0  1  0  0  0  0  0  0  0  0
   -2.9395    6.1049    1.9500 C   0  0  0  1  0  0  0  0  0  0  0  0
   -2.2831    4.9061    2.1555 C   0  0  0  1  0  0  0  0  0  0  0  0
   -2.1302    4.0114    1.1079 C   0  0  0  1  0  0  0  0  0  0  0  0
   -2.6293    4.3203   -0.1435 C   0  0  0  1  0  0  0  0  0  0  0  0
   -3.2876    5.5227   -0.3494 C   0  0  0  1  0  0  0  0  0  0  0  0
   -1.4180    2.6985    1.3331 C   0  0  0  1  0  0  0  0  0  0  0  0
   -3.0578    6.7744    2.7369 H   0  0  0  1  0  0  0  0  0  0  0  0
   -1.9040    4.6754    3.0960 H   0  0  0  1  0  0  0  0  0  0  0  0
   -2.5109    3.6507   -0.9304 H   0  0  0  1  0  0  0  0  0  0  0  0
   -3.6667    5.7534   -1.2900 H   0  0  0  1  0  0  0  0  0  0  0  0
   -0.6893    2.5811    0.5585 H   0  0  0  1  0  0  0  0  0  0  0  0
   -0.9258    2.7485    2.2819 H   0  0  0  1  0  0  0  0  0  0  0  0
  1  4  1  0  0  0  0
  2  4  1  0  0  0  0
  2  5  2  0  0  0  0
  2  6  1  0  0  0  0
  3  4  1  0  0  0  0
  3  7  1  0  0  0  0
  3  8  1  0  0  0  0
  4 26  1  0  0  0  0
  6  9  1  0  0  0  0
  6 12  1  0  0  0  0
  8 10  1  0  0  0  0
  8 11  2  0  0  0  0
  9 13  1  0  0  0  0
  9 14  1  0  0  0  0
  9 15  1  0  0  0  0
 10 16  1  0  0  0  0
 10 17  1  0  0  0  0
 10 18  1  0  0  0  0
 19 20  1  0  0  0  0
 20 21  4  0  0  0  0
 20 25  4  0  0  0  0
 21 22  4  0  0  0  0
 21 27  1  0  0  0  0
 22 23  4  0  0  0  0
 22 28  1  0  0  0  0
 23 24  4  0  0  0  0
 23 26  1  0  0  0  0
 24 25  4  0  0  0  0
 24 29  1  0  0  0  0
 25 30  1  0  0  0  0
 26 31  1  0  0  0  0
 26 32  1  0  0  0  0
M  END
> <BCLConfClusterSize>
1

> <ConfClashScore>
0 

> <ConfOneFourInteractionScore>
-0.986627 

> <ConfScore>
0.0493171 

> <ConfScorePBest>
0.00407438 

> <ConfTolerance>
0.316524 

> <RosettaParamsInstructions>
M  ROOT 3
M  POLY_N_BB 3
M  POLY_CA_BB 4
M  POLY_C_BB 2
M  POLY_O_BB 5
M  POLY_IGNORE 9 10 11 12 13 14 15 16 17 18 
M  POLY_UPPER 6
M  POLY_LOWER 8
M  POLY_CHG 0
M  POLY_PROPERTIES ALPHA_AA L_AA PROTEIN AROMATIC POLYMER 
M  END

$$$$



 32 32  0  0  0  0  0  0  0  0999 V2000
    0.5306    3.4605    1.6000 H   0  0  0  1  0  0  0  0  0  0  0  0
    0.8112    1.4328    1.1242 C   0  0  0  1  0  0  0  0  0  0  0  0
    0.2097    3.2386   -0.4322 N   0  0  0  1  0  0  0  0  0  0  0  0
    0.0650    2.7472    0.9524 C   0  0  0  1  0  0  0  0  0  0  0  0
    1.3330    1.1344    2.1974 O   0  0  0  1  0  0  0  0  0  0  0  0
    0.7878    0.5966    0.0808 N   0  0  0  1  0  0  0  0  0  0  0  0
   -0.2202    2.7730   -1.1797 H   0  0  0  1  0  0  0  0  0  0  0  0
    0.9436    4.3360   -0.6371 C   0  0  0  1  0  0  0  0  0  0  0  0
    1.3059   -0.7610    0.1608 C   0  0  0  1  0  0  0  0  0  0  0  0
    1.2847    4.7128   -2.0658 C   0  0  0  1  0  0  0  0  0  0  0  0
    1.3606    5.0613    0.2650 O   0  0  0  1  0  0  0  0  0  0  0  0
    0.4087    0.9089   -0.7672 H   0  0  0  1  0  0  0  0  0  0  0  0
    1.1883   -1.1300    1.1583 H   0  0  0  1  0  0  0  0  0  0  0  0
    2.3437   -0.7624   -0.0997 H   0  0  0  1  0  0  0  0  0  0  0  0
    0.7665   -1.3888   -0.5173 H   0  0  0  1  0  0  0  0  0  0  0  0
    0.3835    4.9103   -2.6079 H   0  0  0  1  0  0  0  0  0  0  0  0
    1.8110    3.9058   -2.5312 H   0  0  0  1  0  0  0  0  0  0  0  0
    1.9001    5.5880   -2.0663 H   0  0  0  1  0  0  0  0  0  0  0  0
   -4.4301    8.0052    0.4437 Br  0  0  0  1  0  0  0  0  0  0  0  0
   -3.4402    6.4149    0.6951 C   0  0  0  1  0  0  0  0  0  0  0  0
   -2.9395    6.1049    1.9500 C   0  0  0  1  0  0  0  0  0  0  0  0
   -2.2831    4.9061    2.1555 C   0  0  0  1  0  0  0  0  0  0  0  0
   -2.1302    4.0114    1.1079 C   0  0  0  1  0  0  0  0  0  0  0  0
   -2.6293    4.3203   -0.1435 C   0  0  0  1  0  0  0  0  0  0  0  0
   -3.2876    5.5227   -0.3494 C   0  0  0  1  0  0  0  0  0  0  0  0
   -1.4180    2.6985    1.3331 C   0  0  0  1  0  0  0  0  0  0  0  0
   -3.0578    6.7744    2.7369 H   0  0  0  1  0  0  0  0  0  0  0  0
   -1.9040    4.6754    3.0960 H   0  0  0  1  0  0  0  0  0  0  0  0
   -2.5109    3.6507   -0.9304 H   0  0  0  1  0  0  0  0  0  0  0  0
   -3.6667    5.7534   -1.2900 H   0  0  0  1  0  0  0  0  0  0  0  0
   -1.4955    2.4425    2.3691 H   0  0  0  1  0  0  0  0  0  0  0  0
   -1.8967    1.9457    0.7424 H   0  0  0  1  0  0  0  0  0  0  0  0
  1  4  1  0  0  0  0
  2  4  1  0  0  0  0
  2  5  2  0  0  0  0
  2  6  1  0  0  0  0
  3  4  1  0  0  0  0
  3  7  1  0  0  0  0
  3  8  1  0  0  0  0
  4 26  1  0  0  0  0
  6  9  1  0  0  0  0
  6 12  1  0  0  0  0
  8 10  1  0  0  0  0
  8 11  2  0  0  0  0
  9 13  1  0  0  0  0
  9 14  1  0  0  0  0
  9 15  1  0  0  0  0
 10 16  1  0  0  0  0
 10 17  1  0  0  0  0
 10 18  1  0  0  0  0
 19 20  1  0  0  0  0
 20 21  4  0  0  0  0
 20 25  4  0  0  0  0
 21 22  4  0  0  0  0
 21 27  1  0  0  0  0
 22 23  4  0  0  0  0
 22 28  1  0  0  0  0
 23 24  4  0  0  0  0
 23 26  1  0  0  0  0
 24 25  4  0  0  0  0
 24 29  1  0  0  0  0
 25 30  1  0  0  0  0
 26 31  1  0  0  0  0
 26 32  1  0  0  0  0
M  END
> <BCLConfClusterSize>
1

> <ConfClashScore>
0 

> <ConfOneFourInteractionScore>
-0.960318 

> <ConfScore>
0.0505723 

> <ConfScorePBest>
0.00404589 

> <ConfTolerance>
0.446834 

> <RosettaParamsInstructions>
M  ROOT 3
M  POLY_N_BB 3
M  POLY_CA_BB 4
M  POLY_C_BB 2
M  POLY_O_BB 5
M  POLY_IGNORE 9 10 11 12 13 14 15 16 17 18 
M  POLY_UPPER 6
M  POLY_LOWER 8
M  POLY_CHG 0
M  POLY_PROPERTIES ALPHA_AA L_AA PROTEIN AROMATIC POLYMER 
M  END

$$$$



 32 32  0  0  0  0  0  0  0  0999 V2000
   -0.7856    2.2187   -0.6270 H   0  0  0  1  0  0  0  0  0  0  0  0
    0.6099    3.6239    0.0934 C   0  0  0  1  0  0  0  0  0  0  0  0
    0.4919    1.2821    0.6891 N   0  0  0  1  0  0  0  0  0  0  0  0
   -0.3116    2.4326    0.3081 C   0  0  0  1  0  0  0  0  0  0  0  0
    1.3479    4.0258    0.9917 O   0  0  0  1  0  0  0  0  0  0  0  0
    0.6329    4.1415   -1.1395 N   0  0  0  1  0  0  0  0  0  0  0  0
    0.3973    0.9179    1.5940 H   0  0  0  1  0  0  0  0  0  0  0  0
    1.3618    0.6992   -0.1588 C   0  0  0  1  0  0  0  0  0  0  0  0
    1.5757    5.1792   -1.5295 C   0  0  0  1  0  0  0  0  0  0  0  0
    2.2153   -0.3909    0.4898 C   0  0  0  1  0  0  0  0  0  0  0  0
    1.4836    0.9915   -1.3454 O   0  0  0  1  0  0  0  0  0  0  0  0
   -0.0075    3.8104   -1.8034 H   0  0  0  1  0  0  0  0  0  0  0  0
    1.7286    5.1434   -2.5879 H   0  0  0  1  0  0  0  0  0  0  0  0
    2.5080    5.0200   -1.0291 H   0  0  0  1  0  0  0  0  0  0  0  0
    1.1837    6.1371   -1.2582 H   0  0  0  1  0  0  0  0  0  0  0  0
    1.5808   -1.0851    1.0001 H   0  0  0  1  0  0  0  0  0  0  0  0
    2.8913    0.0547    1.1894 H   0  0  0  1  0  0  0  0  0  0  0  0
    2.7712   -0.9053   -0.2660 H   0  0  0  1  0  0  0  0  0  0  0  0
   -4.4301    8.0052    0.4437 Br  0  0  0  1  0  0  0  0  0  0  0  0
   -3.4402    6.4149    0.6951 C   0  0  0  1  0  0  0  0  0  0  0  0
   -2.9395    6.1049    1.9500 C   0  0  0  1  0  0  0  0  0  0  0  0
   -2.2831    4.9061    2.1555 C   0  0  0  1  0  0  0  0  0  0  0  0
   -2.1302    4.0114    1.1079 C   0  0  0  1  0  0  0  0  0  0  0  0
   -2.6293    4.3203   -0.1435 C   0  0  0  1  0  0  0  0  0  0  0  0
   -3.2876    5.5227   -0.3494 C   0  0  0  1  0  0  0  0  0  0  0  0
   -1.4180    2.6985    1.3331 C   0  0  0  1  0  0  0  0  0  0  0  0
   -3.0578    6.7744    2.7369 H   0  0  0  1  0  0  0  0  0  0  0  0
   -1.9040    4.6754    3.0960 H   0  0  0  1  0  0  0  0  0  0  0  0
   -2.5109    3.6507   -0.9304 H   0  0  0  1  0  0  0  0  0  0  0  0
   -3.6667    5.7534   -1.2900 H   0  0  0  1  0  0  0  0  0  0  0  0
   -0.9815    2.7111    2.3099 H   0  0  0  1  0  0  0  0  0  0  0  0
   -2.1356    1.9071    1.2727 H   0  0  0  1  0  0  0  0  0  0  0  0
  1  4  1  0  0  0  0
  2  4  1  0  0  0  0
  2  5  2  0  0  0  0
  2  6  1  0  0  0  0
  3  4  1  0  0  0  0
  3  7  1  0  0  0  0
  3  8  1  0  0  0  0
  4 26  1  0  0  0  0
  6  9  1  0  0  0  0
  6 12  1  0  0  0  0
  8 10  1  0  0  0  0
  8 11  2  0  0  0  0
  9 13  1  0  0  0  0
  9 14  1  0  0  0  0
  9 15  1  0  0  0  0
 10 16  1  0  0  0  0
 10 17  1  0  0  0  0
 10 18  1  0  0  0  0
 19 20  1  0  0  0  0
 20 21  4  0  0  0  0
 20 25  4  0  0  0  0
 21 22  4  0  0  0  0
 21 27  1  0  0  0  0
 22 23  4  0  0  0  0
 22 28  1  0  0  0  0
 23 24  4  0  0  0  0
 23 26  1  0  0  0  0
 24 25  4  0  0  0  0
 24 29  1  0  0  0  0
 25 30  1  0  0  0  0
 26 31  1  0  0  0  0
 26 32  1  0  0  0  0
M  END
> <BCLConfClusterSize>
1

> <ConfClashScore>
0 

> <ConfOneFourInteractionScore>
-0.985807 

> <ConfScore>
0.0581623 

> <ConfScorePBest>
0.00401741 

> <ConfTolerance>
0.324541 

> <RosettaParamsInstructions>
M  ROOT 3
M  POLY_N_BB 3
M  POLY_CA_BB 4
M  POLY_C_BB 2
M  POLY_O_BB 5
M  POLY_IGNORE 9 10 11 12 13 14 15 16 17 18 
M  POLY_UPPER 6
M  POLY_LOWER 8
M  POLY_CHG 0
M  POLY_PROPERTIES ALPHA_AA L_AA PROTEIN AROMATIC POLYMER 
M  END

$$$$



 32 32  0  0  0  0  0  0  0  0999 V2000
   -0.8076    2.1971   -0.6506 H   0  0  0  1  0  0  0  0  0  0  0  0
    0.5676    3.5760    0.2186 C   0  0  0  1  0  0  0  0  0  0  0  0
    0.3688    1.1768    0.7223 N   0  0  0  1  0  0  0  0  0  0  0  0
   -0.3657    2.3621    0.3098 C   0  0  0  1  0  0  0  0  0  0  0  0
    1.0394    4.0648    1.2440 O   0  0  0  1  0  0  0  0  0  0  0  0
    0.8924    3.9956   -1.0090 N   0  0  0  1  0  0  0  0  0  0  0  0
    0.9151    1.2179    1.5349 H   0  0  0  1  0  0  0  0  0  0  0  0
    0.3249    0.0356    0.0331 C   0  0  0  1  0  0  0  0  0  0  0  0
    1.7014    5.1839   -1.2357 C   0  0  0  1  0  0  0  0  0  0  0  0
    1.2219   -1.0760    0.5417 C   0  0  0  1  0  0  0  0  0  0  0  0
   -0.3913   -0.1234   -0.9546 O   0  0  0  1  0  0  0  0  0  0  0  0
    0.5745    3.4851   -1.7828 H   0  0  0  1  0  0  0  0  0  0  0  0
    1.1089    5.9324   -1.7189 H   0  0  0  1  0  0  0  0  0  0  0  0
    2.5358    4.9337   -1.8570 H   0  0  0  1  0  0  0  0  0  0  0  0
    2.0542    5.5591   -0.2978 H   0  0  0  1  0  0  0  0  0  0  0  0
    0.9640   -1.3082    1.5539 H   0  0  0  1  0  0  0  0  0  0  0  0
    2.2428   -0.7585    0.4979 H   0  0  0  1  0  0  0  0  0  0  0  0
    1.0920   -1.9459   -0.0677 H   0  0  0  1  0  0  0  0  0  0  0  0
   -4.4494    7.9934    0.4454 Br  0  0  0  1  0  0  0  0  0  0  0  0
   -3.4439    6.4129    0.6966 C   0  0  0  1  0  0  0  0  0  0  0  0
   -2.9388    6.1084    1.9511 C   0  0  0  1  0  0  0  0  0  0  0  0
   -2.2707    4.9161    2.1565 C   0  0  0  1  0  0  0  0  0  0  0  0
   -2.1103    4.0223    1.1093 C   0  0  0  1  0  0  0  0  0  0  0  0
   -2.6139    4.3256   -0.1416 C   0  0  0  1  0  0  0  0  0  0  0  0
   -3.2840    5.5215   -0.3475 C   0  0  0  1  0  0  0  0  0  0  0  0
   -1.4790    2.6659    1.3166 C   0  0  0  1  0  0  0  0  0  0  0  0
   -3.0627    6.7773    2.7378 H   0  0  0  1  0  0  0  0  0  0  0  0
   -1.8883    4.6896    3.0968 H   0  0  0  1  0  0  0  0  0  0  0  0
   -2.4900    3.6568   -0.9283 H   0  0  0  1  0  0  0  0  0  0  0  0
   -3.6664    5.7481   -1.2878 H   0  0  0  1  0  0  0  0  0  0  0  0
   -1.0655    2.6299    2.3028 H   0  0  0  1  0  0  0  0  0  0  0  0
   -2.2386    1.9184    1.2203 H   0  0  0  1  0  0  0  0  0  0  0  0
  1  4  1  0  0  0  0
  2  4  1  0  0  0  0
  2  5  2  0  0  0  0
  2  6  1  0  0  0  0
  3  4  1  0  0  0  0
  3  7  1  0  0  0  0
  3  8  1  0  0  0  0
  4 26  1  0  0  0  0
  6  9  1  0  0  0  0
  6 12  1  0  0  0  0
  8 10  1  0  0  0  0
  8 11  2  0  0  0  0
  9 13  1  0  0  0  0
  9 14  1  0  0  0  0
  9 15  1  0  0  0  0
 10 16  1  0  0  0  0
 10 17  1  0  0  0  0
 10 18  1  0  0  0  0
 19 20  1  0  0  0  0
 20 21  4  0  0  0  0
 20 25  4  0  0  0  0
 21 22  4  0  0  0  0
 21 27  1  0  0  0  0
 22 23  4  0  0  0  0
 22 28  1  0  0  0  0
 23 24  4  0  0  0  0
 23 26  1  0  0  0  0
 24 25  4  0  0  0  0
 24 29  1  0  0  0  0
 25 30  1  0  0  0  0
 26 31  1  0  0  0  0
 26 32  1  0  0  0  0
M  END
> <BCLConfClusterSize>
1

> <ConfClashScore>
0 

> <ConfOneFourInteractionScore>
-0.979955 

> <ConfScore>
0.0621552 

> <ConfScorePBest>
0.00398893 

> <ConfTolerance>
0.455364 

> <RosettaParamsInstructions>
M  ROOT 3
M  POLY_N_BB 3
M  POLY_CA_BB 4
M  POLY_C_BB 2
M  POLY_O_BB 5
M  POLY_IGNORE 9 10 11 12 13 14 15 16 17 18 
M  POLY_UPPER 6
M  POLY_LOWER 8
M  POLY_CHG 0
M  POLY_PROPERTIES ALPHA_AA L_AA PROTEIN AROMATIC POLYMER 
M  END

$$$$



 32 32  0  0  0  0  0  0  0  0999 V2000
   -2.5213    2.2660    3.0312 H   0  0  0  1  0  0  0  0  0  0  0  0
   -3.1888    0.9972    1.4676 C   0  0  0  1  0  0  0  0  0  0  0  0
   -1.1301    0.7579    2.7699 N   0  0  0  1  0  0  0  0  0  0  0  0
   -2.0748    1.7217    2.2254 C   0  0  0  1  0  0  0  0  0  0  0  0
   -4.3166    1.4861    1.4210 O   0  0  0  1  0  0  0  0  0  0  0  0
   -2.8454   -0.1152    0.8097 N   0  0  0  1  0  0  0  0  0  0  0  0
   -0.1792    0.8532    2.5529 H   0  0  0  1  0  0  0  0  0  0  0  0
   -1.5179   -0.2622    3.5632 C   0  0  0  1  0  0  0  0  0  0  0  0
   -3.8131   -0.7872   -0.0445 C   0  0  0  1  0  0  0  0  0  0  0  0
   -0.4442   -1.1626    4.1426 C   0  0  0  1  0  0  0  0  0  0  0  0
   -2.7070   -0.4582    3.8107 O   0  0  0  1  0  0  0  0  0  0  0  0
   -1.9400   -0.4787    0.9031 H   0  0  0  1  0  0  0  0  0  0  0  0
   -3.5170   -1.8055   -0.1874 H   0  0  0  1  0  0  0  0  0  0  0  0
   -3.8562   -0.2923   -0.9922 H   0  0  0  1  0  0  0  0  0  0  0  0
   -4.7776   -0.7580    0.4179 H   0  0  0  1  0  0  0  0  0  0  0  0
    0.1841   -0.5943    4.7961 H   0  0  0  1  0  0  0  0  0  0  0  0
    0.1447   -1.5715    3.3484 H   0  0  0  1  0  0  0  0  0  0  0  0
   -0.9039   -1.9573    4.6921 H   0  0  0  1  0  0  0  0  0  0  0  0
   -4.4115    8.0150    0.4374 Br  0  0  0  1  0  0  0  0  0  0  0  0
   -3.4362    6.4166    0.6942 C   0  0  0  1  0  0  0  0  0  0  0  0
   -2.9412    6.1046    1.9508 C   0  0  0  1  0  0  0  0  0  0  0  0
   -2.2959    4.9005    2.1601 C   0  0  0  1  0  0  0  0  0  0  0  0
   -2.1483    4.0024    1.1146 C   0  0  0  1  0  0  0  0  0  0  0  0
   -2.6417    4.3133   -0.1385 C   0  0  0  1  0  0  0  0  0  0  0  0
   -3.2890    5.5210   -0.3483 C   0  0  0  1  0  0  0  0  0  0  0  0
   -1.3660    2.7252    1.3104 C   0  0  0  1  0  0  0  0  0  0  0  0
   -3.0554    6.7766    2.7362 H   0  0  0  1  0  0  0  0  0  0  0  0
   -1.9210    4.6682    3.1020 H   0  0  0  1  0  0  0  0  0  0  0  0
   -2.5275    3.6412   -0.9239 H   0  0  0  1  0  0  0  0  0  0  0  0
   -3.6639    5.7533   -1.2901 H   0  0  0  1  0  0  0  0  0  0  0  0
   -1.2160    2.2679    0.3548 H   0  0  0  1  0  0  0  0  0  0  0  0
   -0.4180    2.9694    1.7423 H   0  0  0  1  0  0  0  0  0  0  0  0
  1  4  1  0  0  0  0
  2  4  1  0  0  0  0
  2  5  2  0  0  0  0
  2  6  1  0  0  0  0
  3  4  1  0  0  0  0
  3  7  1  0  0  0  0
  3  8  1  0  0  0  0
  4 26  1  0  0  0  0
  6  9  1  0  0  0  0
  6 12  1  0  0  0  0
  8 10  1  0  0  0  0
  8 11  2  0  0  0  0
  9 13  1  0  0  0  0
  9 14  1  0  0  0  0
  9 15  1  0  0  0  0
 10 16  1  0  0  0  0
 10 17  1  0  0  0  0
 10 18  1  0  0  0  0
 19 20  1  0  0  0  0
 20 21  4  0  0  0  0
 20 25  4  0  0  0  0
 21 22  4  0  0  0  0
 21 27  1  0  0  0  0
 22 23  4  0  0  0  0
 22 28  1  0  0  0  0
 23 24  4  0  0  0  0
 23 26  1  0  0  0  0
 24 25  4  0  0  0  0
 24 29  1  0  0  0  0
 25 30  1  0  0  0  0
 26 31  1  0  0  0  0
 26 32  1  0  0  0  0
M  END
> <BCLConfClusterSize>
1

> <ConfClashScore>
0 

> <ConfOneFourInteractionScore>
-0.940901 

> <ConfScore>
0.0631818 

> <ConfScorePBest>
0.00396045 

> <ConfTolerance>
0.457289 

> <RosettaParamsInstructions>
M  ROOT 3
M  POLY_N_BB 3
M  POLY_CA_BB 4
M  POLY_C_BB 2
M  POLY_O_BB 5
M  POLY_IGNORE 9 10 11 12 13 14 15 16 17 18 
M  POLY_UPPER 6
M  POLY_LOWER 8
M  POLY_CHG 0
M  POLY_PROPERTIES ALPHA_AA L_AA PROTEIN AROMATIC POLYMER 
M  END

$$$$



 32 32  0  0  0  0  0  0  0  0999 V2000
   -3.1449    1.5287    1.1971 H   0  0  0  1  0  0  0  0  0  0  0  0
   -1.6073    0.2082    1.7743 C   0  0  0  1  0  0  0  0  0  0  0  0
   -2.7605    1.7831    3.2051 N   0  0  0  1  0  0  0  0  0  0  0  0
   -2.2936    1.5641    1.8443 C   0  0  0  1  0  0  0  0  0  0  0  0
   -0.6378    0.0494    1.0342 O   0  0  0  1  0  0  0  0  0  0  0  0
   -2.0561   -0.7380    2.6060 N   0  0  0  1  0  0  0  0  0  0  0  0
   -3.7080    1.9686    3.3731 H   0  0  0  1  0  0  0  0  0  0  0  0
   -1.8993    1.7318    4.2269 C   0  0  0  1  0  0  0  0  0  0  0  0
   -1.4319   -2.0525    2.6223 C   0  0  0  1  0  0  0  0  0  0  0  0
   -2.4675    2.0095    5.6244 C   0  0  0  1  0  0  0  0  0  0  0  0
   -0.7209    1.4022    4.0987 O   0  0  0  1  0  0  0  0  0  0  0  0
   -2.8069   -0.5458    3.2058 H   0  0  0  1  0  0  0  0  0  0  0  0
   -0.4209   -1.9721    2.2811 H   0  0  0  1  0  0  0  0  0  0  0  0
   -1.9741   -2.7126    1.9779 H   0  0  0  1  0  0  0  0  0  0  0  0
   -1.4417   -2.4394    3.6199 H   0  0  0  1  0  0  0  0  0  0  0  0
   -2.2324    3.0127    5.9127 H   0  0  0  1  0  0  0  0  0  0  0  0
   -2.0367    1.3266    6.3265 H   0  0  0  1  0  0  0  0  0  0  0  0
   -3.5299    1.8828    5.6089 H   0  0  0  1  0  0  0  0  0  0  0  0
   -4.4293    8.0064    0.4488 Br  0  0  0  1  0  0  0  0  0  0  0  0
   -3.4402    6.4147    0.6945 C   0  0  0  1  0  0  0  0  0  0  0  0
   -2.9381    6.1009    1.9479 C   0  0  0  1  0  0  0  0  0  0  0  0
   -2.2824    4.9010    2.1493 C   0  0  0  1  0  0  0  0  0  0  0  0
   -2.1315    4.0091    1.0990 C   0  0  0  1  0  0  0  0  0  0  0  0
   -2.6320    4.3218   -0.1508 C   0  0  0  1  0  0  0  0  0  0  0  0
   -3.2897    5.5252   -0.3526 C   0  0  0  1  0  0  0  0  0  0  0  0
   -1.4121    2.7100    1.3751 C   0  0  0  1  0  0  0  0  0  0  0  0
   -3.0549    6.7683    2.7368 H   0  0  0  1  0  0  0  0  0  0  0  0
   -1.9022    4.6674    3.0887 H   0  0  0  1  0  0  0  0  0  0  0  0
   -2.5152    3.6543   -0.9397 H   0  0  0  1  0  0  0  0  0  0  0  0
   -3.6699    5.7589   -1.2920 H   0  0  0  1  0  0  0  0  0  0  0  0
   -0.9253    2.4039    0.4728 H   0  0  0  1  0  0  0  0  0  0  0  0
   -0.6784    2.8934    2.1322 H   0  0  0  1  0  0  0  0  0  0  0  0
  1  4  1  0  0  0  0
  2  4  1  0  0  0  0
  2  5  2  0  0  0  0
  2  6  1  0  0  0  0
  3  4  1  0  0  0  0
  3  7  1  0  0  0  0
  3  8  1  0  0  0  0
  4 26  1  0  0  0  0
  6  9  1  0  0  0  0
  6 12  1  0  0  0  0
  8 10  1  0  0  0  0
  8 11  2  0  0  0  0
  9 13  1  0  0  0  0
  9 14  1  0  0  0  0
  9 15  1  0  0  0  0
 10 16  1  0  0  0  0
 10 17  1  0  0  0  0
 10 18  1  0  0  0  0
 19 20  1  0  0  0  0
 20 21  4  0  0  0  0
 20 25  4  0  0  0  0
 21 22  4  0  0  0  0
 21 27  1  0  0  0  0
 22 23  4  0  0  0  0
 22 28  1  0  0  0  0
 23 24  4  0  0  0  0
 23 26  1  0  0  0  0
 24 25  4  0  0  0  0
 24 29  1  0  0  0  0
 25 30  1  0  0  0  0
 26 31  1  0  0  0  0
 26 32  1  0  0  0  0
M  END
> <BCLConfClusterSize>
1

> <ConfClashScore>
0 

> <ConfOneFourInteractionScore>
-0.957364 

> <ConfScore>
0.0739772 

> <ConfScorePBest>
0.00393197 

> <ConfTolerance>
0.292286 

> <RosettaParamsInstructions>
M  ROOT 3
M  POLY_N_BB 3
M  POLY_CA_BB 4
M  POLY_C_BB 2
M  POLY_O_BB 5
M  POLY_IGNORE 9 10 11 12 13 14 15 16 17 18 
M  POLY_UPPER 6
M  POLY_LOWER 8
M  POLY_CHG 0
M  POLY_PROPERTIES ALPHA_AA L_AA PROTEIN AROMATIC POLYMER 
M  END

$$$$



 32 32  0  0  0  0  0  0  0  0999 V2000
    0.4800    3.4863    1.8260 H   0  0  0  1  0  0  0  0  0  0  0  0
    0.7826    1.4246    1.5116 C   0  0  0  1  0  0  0  0  0  0  0  0
    0.4664    3.1072   -0.1990 N   0  0  0  1  0  0  0  0  0  0  0  0
    0.1012    2.7387    1.1607 C   0  0  0  1  0  0  0  0  0  0  0  0
    0.1487    0.5393    2.0834 O   0  0  0  1  0  0  0  0  0  0  0  0
    2.0431    1.2687    1.0930 N   0  0  0  1  0  0  0  0  0  0  0  0
    0.2187    2.5083   -0.9341 H   0  0  0  1  0  0  0  0  0  0  0  0
    1.1527    4.2763   -0.4906 C   0  0  0  1  0  0  0  0  0  0  0  0
    2.8667    0.1433    1.5089 C   0  0  0  1  0  0  0  0  0  0  0  0
    1.4731    4.5971   -1.9235 C   0  0  0  1  0  0  0  0  0  0  0  0
    1.4742    5.0073    0.4284 O   0  0  0  1  0  0  0  0  0  0  0  0
    2.4254    1.9355    0.4851 H   0  0  0  1  0  0  0  0  0  0  0  0
    3.1023    0.2379    2.5483 H   0  0  0  1  0  0  0  0  0  0  0  0
    3.7716    0.1337    0.9378 H   0  0  0  1  0  0  0  0  0  0  0  0
    2.3320   -0.7691    1.3462 H   0  0  0  1  0  0  0  0  0  0  0  0
    2.1439    3.8601   -2.3131 H   0  0  0  1  0  0  0  0  0  0  0  0
    1.9326    5.5618   -1.9786 H   0  0  0  1  0  0  0  0  0  0  0  0
    0.5710    4.5977   -2.4989 H   0  0  0  1  0  0  0  0  0  0  0  0
   -4.4301    8.0052    0.4437 Br  0  0  0  1  0  0  0  0  0  0  0  0
   -3.4402    6.4149    0.6951 C   0  0  0  1  0  0  0  0  0  0  0  0
   -2.9395    6.1049    1.9500 C   0  0  0  1  0  0  0  0  0  0  0  0
   -2.2831    4.9061    2.1555 C   0  0  0  1  0  0  0  0  0  0  0  0
   -2.1302    4.0114    1.1079 C   0  0  0  1  0  0  0  0  0  0  0  0
   -2.6293    4.3203   -0.1435 C   0  0  0  1  0  0  0  0  0  0  0  0
   -3.2876    5.5227   -0.3494 C   0  0  0  1  0  0  0  0  0  0  0  0
   -1.4180    2.6985    1.3331 C   0  0  0  1  0  0  0  0  0  0  0  0
   -3.0578    6.7744    2.7369 H   0  0  0  1  0  0  0  0  0  0  0  0
   -1.9040    4.6754    3.0960 H   0  0  0  1  0  0  0  0  0  0  0  0
   -2.5109    3.6507   -0.9304 H   0  0  0  1  0  0  0  0  0  0  0  0
   -3.6667    5.7534   -1.2900 H   0  0  0  1  0  0  0  0  0  0  0  0
   -1.6285    2.3759    2.3314 H   0  0  0  1  0  0  0  0  0  0  0  0
   -1.8105    1.9866    0.6374 H   0  0  0  1  0  0  0  0  0  0  0  0
  1  4  1  0  0  0  0
  2  4  1  0  0  0  0
  2  5  2  0  0  0  0
  2  6  1  0  0  0  0
  3  4  1  0  0  0  0
  3  7  1  0  0  0  0
  3  8  1  0  0  0  0
  4 26  1  0  0  0  0
  6  9  1  0  0  0  0
  6 12  1  0  0  0  0
  8 10  1  0  0  0  0
  8 11  2  0  0  0  0
  9 13  1  0  0  0  0
  9 14  1  0  0  0  0
  9 15  1  0  0  0  0
 10 16  1  0  0  0  0
 10 17  1  0  0  0  0
 10 18  1  0  0  0  0
 19 20  1  0  0  0  0
 20 21  4  0  0  0  0
 20 25  4  0  0  0  0
 21 22  4  0  0  0  0
 21 27  1  0  0  0  0
 22 23  4  0  0  0  0
 22 28  1  0  0  0  0
 23 24  4  0  0  0  0
 23 26  1  0  0  0  0
 24 25  4  0  0  0  0
 24 29  1  0  0  0  0
 25 30  1  0  0  0  0
 26 31  1  0  0  0  0
 26 32  1  0  0  0  0
M  END
> <BCLConfClusterSize>
1

> <ConfClashScore>
0 

> <ConfOneFourInteractionScore>
-0.960608 

> <ConfScore>
0.0765734 

> <ConfScorePBest>
0.00390349 

> <ConfTolerance>
0.379662 

> <RosettaParamsInstructions>
M  ROOT 3
M  POLY_N_BB 3
M  POLY_CA_BB 4
M  POLY_C_BB 2
M  POLY_O_BB 5
M  POLY_IGNORE 9 10 11 12 13 14 15 16 17 18 
M  POLY_UPPER 6
M  POLY_LOWER 8
M  POLY_CHG 0
M  POLY_PROPERTIES ALPHA_AA L_AA PROTEIN AROMATIC POLYMER 
M  END

$$$$



 32 32  0  0  0  0  0  0  0  0999 V2000
   -2.9833    1.5984    2.3455 H   0  0  0  1  0  0  0  0  0  0  0  0
   -3.5824    1.6950    0.3313 C   0  0  0  1  0  0  0  0  0  0  0  0
   -1.8312    0.2443    1.3097 N   0  0  0  1  0  0  0  0  0  0  0  0
   -2.5052    1.5316    1.3906 C   0  0  0  1  0  0  0  0  0  0  0  0
   -3.2970    1.5659   -0.8579 O   0  0  0  1  0  0  0  0  0  0  0  0
   -4.8312    1.8926    0.7672 N   0  0  0  1  0  0  0  0  0  0  0  0
   -0.8720    0.2244    1.1101 H   0  0  0  1  0  0  0  0  0  0  0  0
   -2.4734   -0.9089    1.4979 C   0  0  0  1  0  0  0  0  0  0  0  0
   -5.9713    1.9407   -0.1358 C   0  0  0  1  0  0  0  0  0  0  0  0
   -1.6238   -2.1606    1.3942 C   0  0  0  1  0  0  0  0  0  0  0  0
   -3.6756   -0.9730    1.7406 O   0  0  0  1  0  0  0  0  0  0  0  0
   -4.9838    2.0091    1.7283 H   0  0  0  1  0  0  0  0  0  0  0  0
   -6.1655    2.9560   -0.4123 H   0  0  0  1  0  0  0  0  0  0  0  0
   -6.8313    1.5340    0.3539 H   0  0  0  1  0  0  0  0  0  0  0  0
   -5.7555    1.3675   -1.0132 H   0  0  0  1  0  0  0  0  0  0  0  0
   -1.3378   -2.4804    2.3744 H   0  0  0  1  0  0  0  0  0  0  0  0
   -0.7470   -1.9495    0.8183 H   0  0  0  1  0  0  0  0  0  0  0  0
   -2.1869   -2.9350    0.9167 H   0  0  0  1  0  0  0  0  0  0  0  0
   -4.4494    7.9934    0.4454 Br  0  0  0  1  0  0  0  0  0  0  0  0
   -3.4439    6.4129    0.6966 C   0  0  0  1  0  0  0  0  0  0  0  0
   -2.9388    6.1084    1.9511 C   0  0  0  1  0  0  0  0  0  0  0  0
   -2.2707    4.9161    2.1565 C   0  0  0  1  0  0  0  0  0  0  0  0
   -2.1103    4.0223    1.1093 C   0  0  0  1  0  0  0  0  0  0  0  0
   -2.6139    4.3256   -0.1416 C   0  0  0  1  0  0  0  0  0  0  0  0
   -3.2840    5.5215   -0.3475 C   0  0  0  1  0  0  0  0  0  0  0  0
   -1.4790    2.6659    1.3166 C   0  0  0  1  0  0  0  0  0  0  0  0
   -3.0627    6.7773    2.7378 H   0  0  0  1  0  0  0  0  0  0  0  0
   -1.8883    4.6896    3.0968 H   0  0  0  1  0  0  0  0  0  0  0  0
   -2.4900    3.6568   -0.9283 H   0  0  0  1  0  0  0  0  0  0  0  0
   -3.6664    5.7481   -1.2878 H   0  0  0  1  0  0  0  0  0  0  0  0
   -0.8144    2.4713    0.5010 H   0  0  0  1  0  0  0  0  0  0  0  0
   -0.9252    2.6844    2.2320 H   0  0  0  1  0  0  0  0  0  0  0  0
  1  4  1  0  0  0  0
  2  4  1  0  0  0  0
  2  5  2  0  0  0  0
  2  6  1  0  0  0  0
  3  4  1  0  0  0  0
  3  7  1  0  0  0  0
  3  8  1  0  0  0  0
  4 26  1  0  0  0  0
  6  9  1  0  0  0  0
  6 12  1  0  0  0  0
  8 10  1  0  0  0  0
  8 11  2  0  0  0  0
  9 13  1  0  0  0  0
  9 14  1  0  0  0  0
  9 15  1  0  0  0  0
 10 16  1  0  0  0  0
 10 17  1  0  0  0  0
 10 18  1  0  0  0  0
 19 20  1  0  0  0  0
 20 21  4  0  0  0  0
 20 25  4  0  0  0  0
 21 22  4  0  0  0  0
 21 27  1  0  0  0  0
 22 23  4  0  0  0  0
 22 28  1  0  0  0  0
 23 24  4  0  0  0  0
 23 26  1  0  0  0  0
 24 25  4  0  0  0  0
 24 29  1  0  0  0  0
 25 30  1  0  0  0  0
 26 31  1  0  0  0  0
 26 32  1  0  0  0  0
M  END
> <BCLConfClusterSize>
1

> <ConfClashScore>
0 

> <ConfOneFourInteractionScore>
-0.974883 

> <ConfScore>
0.0778076 

> <ConfScorePBest>
0.00387501 

> <ConfTolerance>
0.464565 

> <RosettaParamsInstructions>
M  ROOT 3
M  POLY_N_BB 3
M  POLY_CA_BB 4
M  POLY_C_BB 2
M  POLY_O_BB 5
M  POLY_IGNORE 9 10 11 12 13 14 15 16 17 18 
M  POLY_UPPER 6
M  POLY_LOWER 8
M  POLY_CHG 0
M  POLY_PROPERTIES ALPHA_AA L_AA PROTEIN AROMATIC POLYMER 
M  END

$$$$



 32 32  0  0  0  0  0  0  0  0999 V2000
    0.3937    3.7167    1.9749 H   0  0  0  1  0  0  0  0  0  0  0  0
    0.7811    1.6271    1.9618 C   0  0  0  1  0  0  0  0  0  0  0  0
    0.6098    3.0395    0.0233 N   0  0  0  1  0  0  0  0  0  0  0  0
    0.1174    2.8697    1.3822 C   0  0  0  1  0  0  0  0  0  0  0  0
    0.1944    0.5462    1.9848 O   0  0  0  1  0  0  0  0  0  0  0  0
    2.0521    1.7621    2.3549 N   0  0  0  1  0  0  0  0  0  0  0  0
    0.2442    2.4715   -0.6867 H   0  0  0  1  0  0  0  0  0  0  0  0
    1.5784    3.9770   -0.3018 C   0  0  0  1  0  0  0  0  0  0  0  0
    2.8716    0.6232    2.7410 C   0  0  0  1  0  0  0  0  0  0  0  0
    2.0122    4.1123   -1.7344 C   0  0  0  1  0  0  0  0  0  0  0  0
    2.0482    4.6638    0.5903 O   0  0  0  1  0  0  0  0  0  0  0  0
    2.4454    2.6593    2.3841 H   0  0  0  1  0  0  0  0  0  0  0  0
    2.2674   -0.0925    3.2585 H   0  0  0  1  0  0  0  0  0  0  0  0
    3.6613    0.9536    3.3829 H   0  0  0  1  0  0  0  0  0  0  0  0
    3.2885    0.1709    1.8655 H   0  0  0  1  0  0  0  0  0  0  0  0
    2.0135    5.1459   -2.0110 H   0  0  0  1  0  0  0  0  0  0  0  0
    1.3339    3.5756   -2.3644 H   0  0  0  1  0  0  0  0  0  0  0  0
    2.9979    3.7117   -1.8477 H   0  0  0  1  0  0  0  0  0  0  0  0
   -4.4284    8.0074    0.4539 Br  0  0  0  1  0  0  0  0  0  0  0  0
   -3.4402    6.4143    0.6940 C   0  0  0  1  0  0  0  0  0  0  0  0
   -2.9367    6.0968    1.9459 C   0  0  0  1  0  0  0  0  0  0  0  0
   -2.2816    4.8959    2.1431 C   0  0  0  1  0  0  0  0  0  0  0  0
   -2.1327    4.0067    1.0903 C   0  0  0  1  0  0  0  0  0  0  0  0
   -2.6346    4.3231   -0.1580 C   0  0  0  1  0  0  0  0  0  0  0  0
   -3.2917    5.5276   -0.3557 C   0  0  0  1  0  0  0  0  0  0  0  0
   -1.4070    2.7227    1.4163 C   0  0  0  1  0  0  0  0  0  0  0  0
   -3.0520    6.7622    2.7367 H   0  0  0  1  0  0  0  0  0  0  0  0
   -1.9003    4.6595    3.0814 H   0  0  0  1  0  0  0  0  0  0  0  0
   -2.5194    3.6576   -0.9489 H   0  0  0  1  0  0  0  0  0  0  0  0
   -3.6729    5.7640   -1.2940 H   0  0  0  1  0  0  0  0  0  0  0  0
   -1.6969    2.4072    2.3967 H   0  0  0  1  0  0  0  0  0  0  0  0
   -1.6935    1.9789    0.7024 H   0  0  0  1  0  0  0  0  0  0  0  0
  1  4  1  0  0  0  0
  2  4  1  0  0  0  0
  2  5  2  0  0  0  0
  2  6  1  0  0  0  0
  3  4  1  0  0  0  0
  3  7  1  0  0  0  0
  3  8  1  0  0  0  0
  4 26  1  0  0  0  0
  6  9  1  0  0  0  0
  6 12  1  0  0  0  0
  8 10  1  0  0  0  0
  8 11  2  0  0  0  0
  9 13  1  0  0  0  0
  9 14  1  0  0  0  0
  9 15  1  0  0  0  0
 10 16  1  0  0  0  0
 10 17  1  0  0  0  0
 10 18  1  0  0  0  0
 19 20  1  0  0  0  0
 20 21  4  0  0  0  0
 20 25  4  0  0  0  0
 21 22  4  0  0  0  0
 21 27  1  0  0  0  0
 22 23  4  0  0  0  0
 22 28  1  0  0  0  0
 23 24  4  0  0  0  0
 23 26  1  0  0  0  0
 24 25  4  0  0  0  0
 24 29  1  0  0  0  0
 25 30  1  0  0  0  0
 26 31  1  0  0  0  0
 26 32  1  0  0  0  0
M  END
> <BCLConfClusterSize>
1

> <ConfClashScore>
0 

> <ConfOneFourInteractionScore>
-0.975259 

> <ConfScore>
0.0785574 

> <ConfScorePBest>
0.00384653 

> <ConfTolerance>
0.528295 

> <RosettaParamsInstructions>
M  ROOT 3
M  POLY_N_BB 3
M  POLY_CA_BB 4
M  POLY_C_BB 2
M  POLY_O_BB 5
M  POLY_IGNORE 9 10 11 12 13 14 15 16 17 18 
M  POLY_UPPER 6
M  POLY_LOWER 8
M  POLY_CHG 0
M  POLY_PROPERTIES ALPHA_AA L_AA PROTEIN AROMATIC POLYMER 
M  END

$$$$



 32 32  0  0  0  0  0  0  0  0999 V2000
   -3.0588    1.3909    1.0023 H   0  0  0  1  0  0  0  0  0  0  0  0
   -1.6622    0.3518    2.2026 C   0  0  0  1  0  0  0  0  0  0  0  0
   -3.1934    2.0284    2.9676 N   0  0  0  1  0  0  0  0  0  0  0  0
   -2.3999    1.6227    1.8129 C   0  0  0  1  0  0  0  0  0  0  0  0
   -0.5746    0.0701    1.7019 O   0  0  0  1  0  0  0  0  0  0  0  0
   -2.2184   -0.3842    3.1752 N   0  0  0  1  0  0  0  0  0  0  0  0
   -4.1620    1.8858    2.9244 H   0  0  0  1  0  0  0  0  0  0  0  0
   -2.6943    2.5851    4.0906 C   0  0  0  1  0  0  0  0  0  0  0  0
   -1.6308   -1.5845    3.7512 C   0  0  0  1  0  0  0  0  0  0  0  0
   -3.6651    2.9548    5.1952 C   0  0  0  1  0  0  0  0  0  0  0  0
   -1.4875    2.7879    4.2172 O   0  0  0  1  0  0  0  0  0  0  0  0
   -3.0860   -0.0919    3.5248 H   0  0  0  1  0  0  0  0  0  0  0  0
   -1.9202   -2.4368    3.1727 H   0  0  0  1  0  0  0  0  0  0  0  0
   -1.9757   -1.7028    4.7572 H   0  0  0  1  0  0  0  0  0  0  0  0
   -0.5644   -1.4965    3.7473 H   0  0  0  1  0  0  0  0  0  0  0  0
   -4.2501    2.0983    5.4580 H   0  0  0  1  0  0  0  0  0  0  0  0
   -4.3111    3.7370    4.8549 H   0  0  0  1  0  0  0  0  0  0  0  0
   -3.1190    3.2900    6.0522 H   0  0  0  1  0  0  0  0  0  0  0  0
   -4.4301    8.0052    0.4437 Br  0  0  0  1  0  0  0  0  0  0  0  0
   -3.4402    6.4149    0.6951 C   0  0  0  1  0  0  0  0  0  0  0  0
   -2.9395    6.1049    1.9500 C   0  0  0  1  0  0  0  0  0  0  0  0
   -2.2831    4.9061    2.1555 C   0  0  0  1  0  0  0  0  0  0  0  0
   -2.1302    4.0114    1.1079 C   0  0  0  1  0  0  0  0  0  0  0  0
   -2.6293    4.3203   -0.1435 C   0  0  0  1  0  0  0  0  0  0  0  0
   -3.2876    5.5227   -0.3494 C   0  0  0  1  0  0  0  0  0  0  0  0
   -1.4180    2.6985    1.3331 C   0  0  0  1  0  0  0  0  0  0  0  0
   -3.0578    6.7744    2.7369 H   0  0  0  1  0  0  0  0  0  0  0  0
   -1.9040    4.6754    3.0960 H   0  0  0  1  0  0  0  0  0  0  0  0
   -2.5109    3.6507   -0.9304 H   0  0  0  1  0  0  0  0  0  0  0  0
   -3.6667    5.7534   -1.2900 H   0  0  0  1  0  0  0  0  0  0  0  0
   -0.9701    2.3803    0.4149 H   0  0  0  1  0  0  0  0  0  0  0  0
   -0.6574    2.8345    2.0733 H   0  0  0  1  0  0  0  0  0  0  0  0
  1  4  1  0  0  0  0
  2  4  1  0  0  0  0
  2  5  2  0  0  0  0
  2  6  1  0  0  0  0
  3  4  1  0  0  0  0
  3  7  1  0  0  0  0
  3  8  1  0  0  0  0
  4 26  1  0  0  0  0
  6  9  1  0  0  0  0
  6 12  1  0  0  0  0
  8 10  1  0  0  0  0
  8 11  2  0  0  0  0
  9 13  1  0  0  0  0
  9 14  1  0  0  0  0
  9 15  1  0  0  0  0
 10 16  1  0  0  0  0
 10 17  1  0  0  0  0
 10 18  1  0  0  0  0
 19 20  1  0  0  0  0
 20 21  4  0  0  0  0
 20 25  4  0  0  0  0
 21 22  4  0  0  0  0
 21 27  1  0  0  0  0
 22 23  4  0  0  0  0
 22 28  1  0  0  0  0
 23 24  4  0  0  0  0
 23 26  1  0  0  0  0
 24 25  4  0  0  0  0
 24 29  1  0  0  0  0
 25 30  1  0  0  0  0
 26 31  1  0  0  0  0
 26 32  1  0  0  0  0
M  END
> <BCLConfClusterSize>
1

> <ConfClashScore>
0 

> <ConfOneFourInteractionScore>
-0.938304 

> <ConfScore>
0.0845632 

> <ConfScorePBest>
0.00381805 

> <ConfTolerance>
0.359368 

> <RosettaParamsInstructions>
M  ROOT 3
M  POLY_N_BB 3
M  POLY_CA_BB 4
M  POLY_C_BB 2
M  POLY_O_BB 5
M  POLY_IGNORE 9 10 11 12 13 14 15 16 17 18 
M  POLY_UPPER 6
M  POLY_LOWER 8
M  POLY_CHG 0
M  POLY_PROPERTIES ALPHA_AA L_AA PROTEIN AROMATIC POLYMER 
M  END

$$$$



 32 32  0  0  0  0  0  0  0  0999 V2000
    0.5247    3.5024    1.4295 H   0  0  0  1  0  0  0  0  0  0  0  0
   -0.1167    3.3110    3.4278 C   0  0  0  1  0  0  0  0  0  0  0  0
    0.6355    1.5210    1.9831 N   0  0  0  1  0  0  0  0  0  0  0  0
   -0.0539    2.8025    1.9954 C   0  0  0  1  0  0  0  0  0  0  0  0
   -0.5711    2.5900    4.3148 O   0  0  0  1  0  0  0  0  0  0  0  0
    0.4171    4.5142    3.6641 N   0  0  0  1  0  0  0  0  0  0  0  0
    0.1485    0.7191    2.2663 H   0  0  0  1  0  0  0  0  0  0  0  0
    1.9094    1.3996    1.5990 C   0  0  0  1  0  0  0  0  0  0  0  0
    0.4518    5.1015    4.9952 C   0  0  0  1  0  0  0  0  0  0  0  0
    2.5037    0.0068    1.5197 C   0  0  0  1  0  0  0  0  0  0  0  0
    2.6313    2.3515    1.3050 O   0  0  0  1  0  0  0  0  0  0  0  0
    0.7981    5.0180    2.9148 H   0  0  0  1  0  0  0  0  0  0  0  0
    1.3153    5.7266    5.0874 H   0  0  0  1  0  0  0  0  0  0  0  0
    0.4959    4.3225    5.7274 H   0  0  0  1  0  0  0  0  0  0  0  0
   -0.4303    5.6871    5.1494 H   0  0  0  1  0  0  0  0  0  0  0  0
    2.9396   -0.2497    2.4626 H   0  0  0  1  0  0  0  0  0  0  0  0
    3.2574   -0.0164    0.7605 H   0  0  0  1  0  0  0  0  0  0  0  0
    1.7335   -0.6962    1.2799 H   0  0  0  1  0  0  0  0  0  0  0  0
   -4.4301    8.0052    0.4437 Br  0  0  0  1  0  0  0  0  0  0  0  0
   -3.4402    6.4149    0.6951 C   0  0  0  1  0  0  0  0  0  0  0  0
   -2.9395    6.1049    1.9500 C   0  0  0  1  0  0  0  0  0  0  0  0
   -2.2831    4.9061    2.1555 C   0  0  0  1  0  0  0  0  0  0  0  0
   -2.1302    4.0114    1.1079 C   0  0  0  1  0  0  0  0  0  0  0  0
   -2.6293    4.3203   -0.1435 C   0  0  0  1  0  0  0  0  0  0  0  0
   -3.2876    5.5227   -0.3494 C   0  0  0  1  0  0  0  0  0  0  0  0
   -1.4180    2.6985    1.3331 C   0  0  0  1  0  0  0  0  0  0  0  0
   -3.0578    6.7744    2.7369 H   0  0  0  1  0  0  0  0  0  0  0  0
   -1.9040    4.6754    3.0960 H   0  0  0  1  0  0  0  0  0  0  0  0
   -2.5109    3.6507   -0.9304 H   0  0  0  1  0  0  0  0  0  0  0  0
   -3.6667    5.7534   -1.2900 H   0  0  0  1  0  0  0  0  0  0  0  0
   -2.0403    2.0876    1.9532 H   0  0  0  1  0  0  0  0  0  0  0  0
   -1.2880    2.2261    0.3819 H   0  0  0  1  0  0  0  0  0  0  0  0
  1  4  1  0  0  0  0
  2  4  1  0  0  0  0
  2  5  2  0  0  0  0
  2  6  1  0  0  0  0
  3  4  1  0  0  0  0
  3  7  1  0  0  0  0
  3  8  1  0  0  0  0
  4 26  1  0  0  0  0
  6  9  1  0  0  0  0
  6 12  1  0  0  0  0
  8 10  1  0  0  0  0
  8 11  2  0  0  0  0
  9 13  1  0  0  0  0
  9 14  1  0  0  0  0
  9 15  1  0  0  0  0
 10 16  1  0  0  0  0
 10 17  1  0  0  0  0
 10 18  1  0  0  0  0
 19 20  1  0  0  0  0
 20 21  4  0  0  0  0
 20 25  4  0  0  0  0
 21 22  4  0  0  0  0
 21 27  1  0  0  0  0
 22 23  4  0  0  0  0
 22 28  1  0  0  0  0
 23 24  4  0  0  0  0
 23 26  1  0  0  0  0
 24 25  4  0  0  0  0
 24 29  1  0  0  0  0
 25 30  1  0  0  0  0
 26 31  1  0  0  0  0
 26 32  1  0  0  0  0
M  END
> <BCLConfClusterSize>
1

> <ConfClashScore>
0 

> <ConfOneFourInteractionScore>
-0.985807 

> <ConfScore>
0.0945608 

> <ConfScorePBest>
0.00378957 

> <ConfTolerance>
0.425033 

> <RosettaParamsInstructions>
M  ROOT 3
M  POLY_N_BB 3
M  POLY_CA_BB 4
M  POLY_C_BB 2
M  POLY_O_BB 5
M  POLY_IGNORE 9 10 11 12 13 14 15 16 17 18 
M  POLY_UPPER 6
M  POLY_LOWER 8
M  POLY_CHG 0
M  POLY_PROPERTIES ALPHA_AA L_AA PROTEIN AROMATIC POLYMER 
M  END

$$$$



 32 32  0  0  0  0  0  0  0  0999 V2000
   -1.6791    0.5900    1.3621 H   0  0  0  1  0  0  0  0  0  0  0  0
   -3.3852    1.4629    2.3070 C   0  0  0  1  0  0  0  0  0  0  0  0
   -2.9242    1.4311   -0.0777 N   0  0  0  1  0  0  0  0  0  0  0  0
   -2.2908    1.4582    1.2322 C   0  0  0  1  0  0  0  0  0  0  0  0
   -4.4852    1.9693    2.0909 O   0  0  0  1  0  0  0  0  0  0  0  0
   -3.1047    0.8139    3.4421 N   0  0  0  1  0  0  0  0  0  0  0  0
   -3.8577    1.7184   -0.1577 H   0  0  0  1  0  0  0  0  0  0  0  0
   -2.2773    1.0281   -1.1751 C   0  0  0  1  0  0  0  0  0  0  0  0
   -4.0489    0.7359    4.5467 C   0  0  0  1  0  0  0  0  0  0  0  0
   -3.1112    0.9469   -2.4389 C   0  0  0  1  0  0  0  0  0  0  0  0
   -1.0919    0.7396   -1.1791 O   0  0  0  1  0  0  0  0  0  0  0  0
   -2.2329    0.3756    3.5333 H   0  0  0  1  0  0  0  0  0  0  0  0
   -4.6258    1.6361    4.5878 H   0  0  0  1  0  0  0  0  0  0  0  0
   -3.5137    0.6133    5.4651 H   0  0  0  1  0  0  0  0  0  0  0  0
   -4.7015   -0.0992    4.3995 H   0  0  0  1  0  0  0  0  0  0  0  0
   -3.9847    0.3575   -2.2532 H   0  0  0  1  0  0  0  0  0  0  0  0
   -2.5345    0.4938   -3.2179 H   0  0  0  1  0  0  0  0  0  0  0  0
   -3.4029    1.9322   -2.7373 H   0  0  0  1  0  0  0  0  0  0  0  0
   -4.4301    8.0052    0.4437 Br  0  0  0  1  0  0  0  0  0  0  0  0
   -3.4402    6.4149    0.6951 C   0  0  0  1  0  0  0  0  0  0  0  0
   -2.9395    6.1049    1.9500 C   0  0  0  1  0  0  0  0  0  0  0  0
   -2.2831    4.9061    2.1555 C   0  0  0  1  0  0  0  0  0  0  0  0
   -2.1302    4.0114    1.1079 C   0  0  0  1  0  0  0  0  0  0  0  0
   -2.6293    4.3203   -0.1435 C   0  0  0  1  0  0  0  0  0  0  0  0
   -3.2876    5.5227   -0.3494 C   0  0  0  1  0  0  0  0  0  0  0  0
   -1.4180    2.6985    1.3331 C   0  0  0  1  0  0  0  0  0  0  0  0
   -3.0578    6.7744    2.7369 H   0  0  0  1  0  0  0  0  0  0  0  0
   -1.9040    4.6754    3.0960 H   0  0  0  1  0  0  0  0  0  0  0  0
   -2.5109    3.6507   -0.9304 H   0  0  0  1  0  0  0  0  0  0  0  0
   -3.6667    5.7534   -1.2900 H   0  0  0  1  0  0  0  0  0  0  0  0
   -0.6404    2.6153    0.6028 H   0  0  0  1  0  0  0  0  0  0  0  0
   -0.9874    2.7204    2.3124 H   0  0  0  1  0  0  0  0  0  0  0  0
  1  4  1  0  0  0  0
  2  4  1  0  0  0  0
  2  5  2  0  0  0  0
  2  6  1  0  0  0  0
  3  4  1  0  0  0  0
  3  7  1  0  0  0  0
  3  8  1  0  0  0  0
  4 26  1  0  0  0  0
  6  9  1  0  0  0  0
  6 12  1  0  0  0  0
  8 10  1  0  0  0  0
  8 11  2  0  0  0  0
  9 13  1  0  0  0  0
  9 14  1  0  0  0  0
  9 15  1  0  0  0  0
 10 16  1  0  0  0  0
 10 17  1  0  0  0  0
 10 18  1  0  0  0  0
 19 20  1  0  0  0  0
 20 21  4  0  0  0  0
 20 25  4  0  0  0  0
 21 22  4  0  0  0  0
 21 27  1  0  0  0  0
 22 23  4  0  0  0  0
 22 28  1  0  0  0  0
 23 24  4  0  0  0  0
 23 26  1  0  0  0  0
 24 25  4  0  0  0  0
 24 29  1  0  0  0  0
 25 30  1  0  0  0  0
 26 31  1  0  0  0  0
 26 32  1  0  0  0  0
M  END
> <BCLConfClusterSize>
1

> <ConfClashScore>
0 

> <ConfOneFourInteractionScore>
-0.980789 

> <ConfScore>
0.0975223 

> <ConfScorePBest>
0.00376109 

> <ConfTolerance>
0.406926 

> <RosettaParamsInstructions>
M  ROOT 3
M  POLY_N_BB 3
M  POLY_CA_BB 4
M  POLY_C_BB 2
M  POLY_O_BB 5
M  POLY_IGNORE 9 10 11 12 13 14 15 16 17 18 
M  POLY_UPPER 6
M  POLY_LOWER 8
M  POLY_CHG 0
M  POLY_PROPERTIES ALPHA_AA L_AA PROTEIN AROMATIC POLYMER 
M  END

$$$$



 32 32  0  0  0  0  0  0  0  0999 V2000
   -1.9689    0.6622    1.8101 H   0  0  0  1  0  0  0  0  0  0  0  0
   -3.0484    1.9392    3.1340 C   0  0  0  1  0  0  0  0  0  0  0  0
   -3.5390    1.5245    0.7589 N   0  0  0  1  0  0  0  0  0  0  0  0
   -2.4771    1.6019    1.7510 C   0  0  0  1  0  0  0  0  0  0  0  0
   -4.1628    2.4512    3.2286 O   0  0  0  1  0  0  0  0  0  0  0  0
   -2.3194    1.5715    4.1932 N   0  0  0  1  0  0  0  0  0  0  0  0
   -3.9371    2.3559    0.4263 H   0  0  0  1  0  0  0  0  0  0  0  0
   -3.9892    0.3616    0.2867 C   0  0  0  1  0  0  0  0  0  0  0  0
   -2.7355    1.9530    5.5346 C   0  0  0  1  0  0  0  0  0  0  0  0
   -5.2209    0.4607   -0.6104 C   0  0  0  1  0  0  0  0  0  0  0  0
   -3.5158   -0.7294    0.5933 O   0  0  0  1  0  0  0  0  0  0  0  0
   -1.5033    1.0442    4.0658 H   0  0  0  1  0  0  0  0  0  0  0  0
   -3.3512    2.8265    5.4827 H   0  0  0  1  0  0  0  0  0  0  0  0
   -1.8712    2.1610    6.1301 H   0  0  0  1  0  0  0  0  0  0  0  0
   -3.2899    1.1519    5.9771 H   0  0  0  1  0  0  0  0  0  0  0  0
   -5.5838   -0.5220   -0.8285 H   0  0  0  1  0  0  0  0  0  0  0  0
   -4.9585    0.9543   -1.5228 H   0  0  0  1  0  0  0  0  0  0  0  0
   -5.9833    1.0190   -0.1087 H   0  0  0  1  0  0  0  0  0  0  0  0
   -4.4484    7.9948    0.4502 Br  0  0  0  1  0  0  0  0  0  0  0  0
   -3.4440    6.4128    0.6961 C   0  0  0  1  0  0  0  0  0  0  0  0
   -2.9376    6.1047    1.9491 C   0  0  0  1  0  0  0  0  0  0  0  0
   -2.2702    4.9114    2.1507 C   0  0  0  1  0  0  0  0  0  0  0  0
   -2.1119    4.0201    1.1010 C   0  0  0  1  0  0  0  0  0  0  0  0
   -2.6167    4.3270   -0.1486 C   0  0  0  1  0  0  0  0  0  0  0  0
   -3.2861    5.5240   -0.3506 C   0  0  0  1  0  0  0  0  0  0  0  0
   -1.4720    2.6759    1.3562 C   0  0  0  1  0  0  0  0  0  0  0  0
   -3.0599    6.7717    2.7377 H   0  0  0  1  0  0  0  0  0  0  0  0
   -1.8869    4.6821    3.0899 H   0  0  0  1  0  0  0  0  0  0  0  0
   -2.4944    3.6601   -0.9371 H   0  0  0  1  0  0  0  0  0  0  0  0
   -3.6694    5.7533   -1.2897 H   0  0  0  1  0  0  0  0  0  0  0  0
   -0.9711    2.3623    0.4642 H   0  0  0  1  0  0  0  0  0  0  0  0
   -0.7594    2.7827    2.1472 H   0  0  0  1  0  0  0  0  0  0  0  0
  1  4  1  0  0  0  0
  2  4  1  0  0  0  0
  2  5  2  0  0  0  0
  2  6  1  0  0  0  0
  3  4  1  0  0  0  0
  3  7  1  0  0  0  0
  3  8  1  0  0  0  0
  4 26  1  0  0  0  0
  6  9  1  0  0  0  0
  6 12  1  0  0  0  0
  8 10  1  0  0  0  0
  8 11  2  0  0  0  0
  9 13  1  0  0  0  0
  9 14  1  0  0  0  0
  9 15  1  0  0  0  0
 10 16  1  0  0  0  0
 10 17  1  0  0  0  0
 10 18  1  0  0  0  0
 19 20  1  0  0  0  0
 20 21  4  0  0  0  0
 20 25  4  0  0  0  0
 21 22  4  0  0  0  0
 21 27  1  0  0  0  0
 22 23  4  0  0  0  0
 22 28  1  0  0  0  0
 23 24  4  0  0  0  0
 23 26  1  0  0  0  0
 24 25  4  0  0  0  0
 24 29  1  0  0  0  0
 25 30  1  0  0  0  0
 26 31  1  0  0  0  0
 26 32  1  0  0  0  0
M  END
> <BCLConfClusterSize>
1

> <ConfClashScore>
0 

> <ConfOneFourInteractionScore>
-0.977982 

> <ConfScore>
0.109497 

> <ConfScorePBest>
0.00373261 

> <ConfTolerance>
0.369327 

> <RosettaParamsInstructions>
M  ROOT 3
M  POLY_N_BB 3
M  POLY_CA_BB 4
M  POLY_C_BB 2
M  POLY_O_BB 5
M  POLY_IGNORE 9 10 11 12 13 14 15 16 17 18 
M  POLY_UPPER 6
M  POLY_LOWER 8
M  POLY_CHG 0
M  POLY_PROPERTIES ALPHA_AA L_AA PROTEIN AROMATIC POLYMER 
M  END

$$$$



 32 32  0  0  0  0  0  0  0  0999 V2000
    0.4181    1.7736    0.8856 H   0  0  0  1  0  0  0  0  0  0  0  0
    0.1480    3.2862   -0.5566 C   0  0  0  1  0  0  0  0  0  0  0  0
    0.8565    3.5980    1.7365 N   0  0  0  1  0  0  0  0  0  0  0  0
    0.0303    2.7708    0.8699 C   0  0  0  1  0  0  0  0  0  0  0  0
    0.5838    4.4171   -0.7655 O   0  0  0  1  0  0  0  0  0  0  0  0
   -0.1585    2.4275   -1.5348 N   0  0  0  1  0  0  0  0  0  0  0  0
    0.4185    4.1942    2.3792 H   0  0  0  1  0  0  0  0  0  0  0  0
    2.1914    3.5728    1.6864 C   0  0  0  1  0  0  0  0  0  0  0  0
   -0.1017    2.7301   -2.9572 C   0  0  0  1  0  0  0  0  0  0  0  0
    2.9086    4.4887    2.6720 C   0  0  0  1  0  0  0  0  0  0  0  0
    2.8190    2.8626    0.9020 O   0  0  0  1  0  0  0  0  0  0  0  0
   -0.4428    1.5265   -1.2743 H   0  0  0  1  0  0  0  0  0  0  0  0
   -0.4206    3.7382   -3.1209 H   0  0  0  1  0  0  0  0  0  0  0  0
   -0.7455    2.0617   -3.4898 H   0  0  0  1  0  0  0  0  0  0  0  0
    0.9028    2.6128   -3.3067 H   0  0  0  1  0  0  0  0  0  0  0  0
    2.9356    4.0249    3.6358 H   0  0  0  1  0  0  0  0  0  0  0  0
    2.3853    5.4196    2.7389 H   0  0  0  1  0  0  0  0  0  0  0  0
    3.9080    4.6644    2.3328 H   0  0  0  1  0  0  0  0  0  0  0  0
   -4.4293    8.0064    0.4488 Br  0  0  0  1  0  0  0  0  0  0  0  0
   -3.4402    6.4147    0.6945 C   0  0  0  1  0  0  0  0  0  0  0  0
   -2.9381    6.1009    1.9479 C   0  0  0  1  0  0  0  0  0  0  0  0
   -2.2824    4.9010    2.1493 C   0  0  0  1  0  0  0  0  0  0  0  0
   -2.1315    4.0091    1.0990 C   0  0  0  1  0  0  0  0  0  0  0  0
   -2.6320    4.3218   -0.1508 C   0  0  0  1  0  0  0  0  0  0  0  0
   -3.2897    5.5252   -0.3526 C   0  0  0  1  0  0  0  0  0  0  0  0
   -1.4121    2.7100    1.3751 C   0  0  0  1  0  0  0  0  0  0  0  0
   -3.0549    6.7683    2.7368 H   0  0  0  1  0  0  0  0  0  0  0  0
   -1.9022    4.6674    3.0887 H   0  0  0  1  0  0  0  0  0  0  0  0
   -2.5152    3.6543   -0.9397 H   0  0  0  1  0  0  0  0  0  0  0  0
   -3.6699    5.7589   -1.2920 H   0  0  0  1  0  0  0  0  0  0  0  0
   -1.4070    2.5291    2.4297 H   0  0  0  1  0  0  0  0  0  0  0  0
   -1.9245    1.9127    0.8784 H   0  0  0  1  0  0  0  0  0  0  0  0
  1  4  1  0  0  0  0
  2  4  1  0  0  0  0
  2  5  2  0  0  0  0
  2  6  1  0  0  0  0
  3  4  1  0  0  0  0
  3  7  1  0  0  0  0
  3  8  1  0  0  0  0
  4 26  1  0  0  0  0
  6  9  1  0  0  0  0
  6 12  1  0  0  0  0
  8 10  1  0  0  0  0
  8 11  2  0  0  0  0
  9 13  1  0  0  0  0
  9 14  1  0  0  0  0
  9 15  1  0  0  0  0
 10 16  1  0  0  0  0
 10 17  1  0  0  0  0
 10 18  1  0  0  0  0
 19 20  1  0  0  0  0
 20 21  4  0  0  0  0
 20 25  4  0  0  0  0
 21 22  4  0  0  0  0
 21 27  1  0  0  0  0
 22 23  4  0  0  0  0
 22 28  1  0  0  0  0
 23 24  4  0  0  0  0
 23 26  1  0  0  0  0
 24 25  4  0  0  0  0
 24 29  1  0  0  0  0
 25 30  1  0  0  0  0
 26 31  1  0  0  0  0
 26 32  1  0  0  0  0
M  END
> <BCLConfClusterSize>
1

> <ConfClashScore>
0 

> <ConfOneFourInteractionScore>
-0.982563 

> <ConfScore>
0.109742 

> <ConfScorePBest>
0.00370413 

> <ConfTolerance>
0.471476 

> <RosettaParamsInstructions>
M  ROOT 3
M  POLY_N_BB 3
M  POLY_CA_BB 4
M  POLY_C_BB 2
M  POLY_O_BB 5
M  POLY_IGNORE 9 10 11 12 13 14 15 16 17 18 
M  POLY_UPPER 6
M  POLY_LOWER 8
M  POLY_CHG 0
M  POLY_PROPERTIES ALPHA_AA L_AA PROTEIN AROMATIC POLYMER 
M  END

$$$$



 32 32  0  0  0  0  0  0  0  0999 V2000
   -1.7043    0.6639    1.8583 H   0  0  0  1  0  0  0  0  0  0  0  0
   -2.8306    1.8751    3.2046 C   0  0  0  1  0  0  0  0  0  0  0  0
   -3.3956    1.3510    0.8679 N   0  0  0  1  0  0  0  0  0  0  0  0
   -2.2984    1.5520    1.8027 C   0  0  0  1  0  0  0  0  0  0  0  0
   -2.2786    1.3978    4.1948 O   0  0  0  1  0  0  0  0  0  0  0  0
   -3.8408    2.7482    3.2793 N   0  0  0  1  0  0  0  0  0  0  0  0
   -3.8514    2.1593    0.5530 H   0  0  0  1  0  0  0  0  0  0  0  0
   -3.8525    0.1882    0.3898 C   0  0  0  1  0  0  0  0  0  0  0  0
   -4.3885    3.1965    4.5509 C   0  0  0  1  0  0  0  0  0  0  0  0
   -4.9530    0.2898   -0.6484 C   0  0  0  1  0  0  0  0  0  0  0  0
   -3.4207   -0.9015    0.7563 O   0  0  0  1  0  0  0  0  0  0  0  0
   -4.2257    3.0983    2.4488 H   0  0  0  1  0  0  0  0  0  0  0  0
   -5.4250    3.4328    4.4299 H   0  0  0  1  0  0  0  0  0  0  0  0
   -3.8604    4.0672    4.8793 H   0  0  0  1  0  0  0  0  0  0  0  0
   -4.2827    2.4190    5.2784 H   0  0  0  1  0  0  0  0  0  0  0  0
   -4.8787   -0.5323   -1.3293 H   0  0  0  1  0  0  0  0  0  0  0  0
   -4.8512    1.2088   -1.1869 H   0  0  0  1  0  0  0  0  0  0  0  0
   -5.9056    0.2646   -0.1618 H   0  0  0  1  0  0  0  0  0  0  0  0
   -4.4301    8.0052    0.4437 Br  0  0  0  1  0  0  0  0  0  0  0  0
   -3.4402    6.4149    0.6951 C   0  0  0  1  0  0  0  0  0  0  0  0
   -2.9395    6.1049    1.9500 C   0  0  0  1  0  0  0  0  0  0  0  0
   -2.2831    4.9061    2.1555 C   0  0  0  1  0  0  0  0  0  0  0  0
   -2.1302    4.0114    1.1079 C   0  0  0  1  0  0  0  0  0  0  0  0
   -2.6293    4.3203   -0.1435 C   0  0  0  1  0  0  0  0  0  0  0  0
   -3.2876    5.5227   -0.3494 C   0  0  0  1  0  0  0  0  0  0  0  0
   -1.4180    2.6985    1.3331 C   0  0  0  1  0  0  0  0  0  0  0  0
   -3.0578    6.7744    2.7369 H   0  0  0  1  0  0  0  0  0  0  0  0
   -1.9040    4.6754    3.0960 H   0  0  0  1  0  0  0  0  0  0  0  0
   -2.5109    3.6507   -0.9304 H   0  0  0  1  0  0  0  0  0  0  0  0
   -3.6667    5.7534   -1.2900 H   0  0  0  1  0  0  0  0  0  0  0  0
   -0.9620    2.4077    0.4099 H   0  0  0  1  0  0  0  0  0  0  0  0
   -0.6601    2.8566    2.0717 H   0  0  0  1  0  0  0  0  0  0  0  0
  1  4  1  0  0  0  0
  2  4  1  0  0  0  0
  2  5  2  0  0  0  0
  2  6  1  0  0  0  0
  3  4  1  0  0  0  0
  3  7  1  0  0  0  0
  3  8  1  0  0  0  0
  4 26  1  0  0  0  0
  6  9  1  0  0  0  0
  6 12  1  0  0  0  0
  8 10  1  0  0  0  0
  8 11  2  0  0  0  0
  9 13  1  0  0  0  0
  9 14  1  0  0  0  0
  9 15  1  0  0  0  0
 10 16  1  0  0  0  0
 10 17  1  0  0  0  0
 10 18  1  0  0  0  0
 19 20  1  0  0  0  0
 20 21  4  0  0  0  0
 20 25  4  0  0  0  0
 21 22  4  0  0  0  0
 21 27  1  0  0  0  0
 22 23  4  0  0  0  0
 22 28  1  0  0  0  0
 23 24  4  0  0  0  0
 23 26  1  0  0  0  0
 24 25  4  0  0  0  0
 24 29  1  0  0  0  0
 25 30  1  0  0  0  0
 26 31  1  0  0  0  0
 26 32  1  0  0  0  0
M  END
> <BCLConfClusterSize>
1

> <ConfClashScore>
0 

> <ConfOneFourInteractionScore>
-0.950605 

> <ConfScore>
0.113972 

> <ConfScorePBest>
0.00367564 

> <ConfTolerance>
0.480796 

> <RosettaParamsInstructions>
M  ROOT 3
M  POLY_N_BB 3
M  POLY_CA_BB 4
M  POLY_C_BB 2
M  POLY_O_BB 5
M  POLY_IGNORE 9 10 11 12 13 14 15 16 17 18 
M  POLY_UPPER 6
M  POLY_LOWER 8
M  POLY_CHG 0
M  POLY_PROPERTIES ALPHA_AA L_AA PROTEIN AROMATIC POLYMER 
M  END

$$$$



 32 32  0  0  0  0  0  0  0  0999 V2000
   -2.3003    2.2966    3.2274 H   0  0  0  1  0  0  0  0  0  0  0  0
   -1.0137    0.6768    2.7398 C   0  0  0  1  0  0  0  0  0  0  0  0
   -0.3154    2.8594    3.4683 N   0  0  0  1  0  0  0  0  0  0  0  0
   -1.3601    2.1602    2.7351 C   0  0  0  1  0  0  0  0  0  0  0  0
    0.0514    0.2947    2.2575 O   0  0  0  1  0  0  0  0  0  0  0  0
   -1.8717   -0.1405    3.3596 N   0  0  0  1  0  0  0  0  0  0  0  0
    0.6078    2.8043    3.1441 H   0  0  0  1  0  0  0  0  0  0  0  0
   -0.5736    3.5808    4.5788 C   0  0  0  1  0  0  0  0  0  0  0  0
   -1.6382   -1.5725    3.4720 C   0  0  0  1  0  0  0  0  0  0  0  0
    0.6001    4.1126    5.3697 C   0  0  0  1  0  0  0  0  0  0  0  0
   -1.7291    3.8008    4.9393 O   0  0  0  1  0  0  0  0  0  0  0  0
   -2.6861    0.2381    3.7518 H   0  0  0  1  0  0  0  0  0  0  0  0
   -0.5893   -1.7562    3.5775 H   0  0  0  1  0  0  0  0  0  0  0  0
   -1.9991   -2.0626    2.5919 H   0  0  0  1  0  0  0  0  0  0  0  0
   -2.1543   -1.9517    4.3291 H   0  0  0  1  0  0  0  0  0  0  0  0
    0.2603    4.4603    6.3229 H   0  0  0  1  0  0  0  0  0  0  0  0
    1.0525    4.9219    4.8356 H   0  0  0  1  0  0  0  0  0  0  0  0
    1.3181    3.3319    5.5105 H   0  0  0  1  0  0  0  0  0  0  0  0
   -4.4494    7.9934    0.4454 Br  0  0  0  1  0  0  0  0  0  0  0  0
   -3.4439    6.4129    0.6966 C   0  0  0  1  0  0  0  0  0  0  0  0
   -2.9388    6.1084    1.9511 C   0  0  0  1  0  0  0  0  0  0  0  0
   -2.2707    4.9161    2.1565 C   0  0  0  1  0  0  0  0  0  0  0  0
   -2.1103    4.0223    1.1093 C   0  0  0  1  0  0  0  0  0  0  0  0
   -2.6139    4.3256   -0.1416 C   0  0  0  1  0  0  0  0  0  0  0  0
   -3.2840    5.5215   -0.3475 C   0  0  0  1  0  0  0  0  0  0  0  0
   -1.4790    2.6659    1.3166 C   0  0  0  1  0  0  0  0  0  0  0  0
   -3.0627    6.7773    2.7378 H   0  0  0  1  0  0  0  0  0  0  0  0
   -1.8883    4.6896    3.0968 H   0  0  0  1  0  0  0  0  0  0  0  0
   -2.4900    3.6568   -0.9283 H   0  0  0  1  0  0  0  0  0  0  0  0
   -3.6664    5.7481   -1.2878 H   0  0  0  1  0  0  0  0  0  0  0  0
   -2.0627    1.9543    0.7709 H   0  0  0  1  0  0  0  0  0  0  0  0
   -0.4912    2.7066    0.9074 H   0  0  0  1  0  0  0  0  0  0  0  0
  1  4  1  0  0  0  0
  2  4  1  0  0  0  0
  2  5  2  0  0  0  0
  2  6  1  0  0  0  0
  3  4  1  0  0  0  0
  3  7  1  0  0  0  0
  3  8  1  0  0  0  0
  4 26  1  0  0  0  0
  6  9  1  0  0  0  0
  6 12  1  0  0  0  0
  8 10  1  0  0  0  0
  8 11  2  0  0  0  0
  9 13  1  0  0  0  0
  9 14  1  0  0  0  0
  9 15  1  0  0  0  0
 10 16  1  0  0  0  0
 10 17  1  0  0  0  0
 10 18  1  0  0  0  0
 19 20  1  0  0  0  0
 20 21  4  0  0  0  0
 20 25  4  0  0  0  0
 21 22  4  0  0  0  0
 21 27  1  0  0  0  0
 22 23  4  0  0  0  0
 22 28  1  0  0  0  0
 23 24  4  0  0  0  0
 23 26  1  0  0  0  0
 24 25  4  0  0  0  0
 24 29  1  0  0  0  0
 25 30  1  0  0  0  0
 26 31  1  0  0  0  0
 26 32  1  0  0  0  0
M  END
> <BCLConfClusterSize>
1

> <ConfClashScore>
0 

> <ConfOneFourInteractionScore>
-0.971506 

> <ConfScore>
0.114254 

> <ConfScorePBest>
0.00364716 

> <ConfTolerance>
0.568225 

> <RosettaParamsInstructions>
M  ROOT 3
M  POLY_N_BB 3
M  POLY_CA_BB 4
M  POLY_C_BB 2
M  POLY_O_BB 5
M  POLY_IGNORE 9 10 11 12 13 14 15 16 17 18 
M  POLY_UPPER 6
M  POLY_LOWER 8
M  POLY_CHG 0
M  POLY_PROPERTIES ALPHA_AA L_AA PROTEIN AROMATIC POLYMER 
M  END

$$$$



 32 32  0  0  0  0  0  0  0  0999 V2000
    0.2451    3.2448    0.1770 H   0  0  0  1  0  0  0  0  0  0  0  0
    0.7821    3.6601    2.1788 C   0  0  0  1  0  0  0  0  0  0  0  0
    0.6353    1.4481    1.1226 N   0  0  0  1  0  0  0  0  0  0  0  0
    0.0896    2.7971    1.1363 C   0  0  0  1  0  0  0  0  0  0  0  0
    1.1420    3.1632    3.2449 O   0  0  0  1  0  0  0  0  0  0  0  0
    1.0436    4.9260    1.8359 N   0  0  0  1  0  0  0  0  0  0  0  0
    0.8249    0.9887    1.9672 H   0  0  0  1  0  0  0  0  0  0  0  0
    0.8784    0.8345   -0.0391 C   0  0  0  1  0  0  0  0  0  0  0  0
    1.8537    5.8500    2.6155 C   0  0  0  1  0  0  0  0  0  0  0  0
    1.3026   -0.6179    0.0592 C   0  0  0  1  0  0  0  0  0  0  0  0
    0.7712    1.3911   -1.1195 O   0  0  0  1  0  0  0  0  0  0  0  0
    0.6607    5.2564    0.9965 H   0  0  0  1  0  0  0  0  0  0  0  0
    2.2571    5.3412    3.4660 H   0  0  0  1  0  0  0  0  0  0  0  0
    1.2460    6.6670    2.9441 H   0  0  0  1  0  0  0  0  0  0  0  0
    2.6538    6.2211    2.0096 H   0  0  0  1  0  0  0  0  0  0  0  0
    0.5667   -1.1687    0.6070 H   0  0  0  1  0  0  0  0  0  0  0  0
    2.2439   -0.6809    0.5641 H   0  0  0  1  0  0  0  0  0  0  0  0
    1.3966   -1.0291   -0.9242 H   0  0  0  1  0  0  0  0  0  0  0  0
   -4.4293    8.0064    0.4488 Br  0  0  0  1  0  0  0  0  0  0  0  0
   -3.4402    6.4147    0.6945 C   0  0  0  1  0  0  0  0  0  0  0  0
   -2.9381    6.1009    1.9479 C   0  0  0  1  0  0  0  0  0  0  0  0
   -2.2824    4.9010    2.1493 C   0  0  0  1  0  0  0  0  0  0  0  0
   -2.1315    4.0091    1.0990 C   0  0  0  1  0  0  0  0  0  0  0  0
   -2.6320    4.3218   -0.1508 C   0  0  0  1  0  0  0  0  0  0  0  0
   -3.2897    5.5252   -0.3526 C   0  0  0  1  0  0  0  0  0  0  0  0
   -1.4121    2.7100    1.3751 C   0  0  0  1  0  0  0  0  0  0  0  0
   -3.0549    6.7683    2.7368 H   0  0  0  1  0  0  0  0  0  0  0  0
   -1.9022    4.6674    3.0887 H   0  0  0  1  0  0  0  0  0  0  0  0
   -2.5152    3.6543   -0.9397 H   0  0  0  1  0  0  0  0  0  0  0  0
   -3.6699    5.7589   -1.2920 H   0  0  0  1  0  0  0  0  0  0  0  0
   -1.5793    2.4385    2.3965 H   0  0  0  1  0  0  0  0  0  0  0  0
   -1.8156    1.9543    0.7341 H   0  0  0  1  0  0  0  0  0  0  0  0
  1  4  1  0  0  0  0
  2  4  1  0  0  0  0
  2  5  2  0  0  0  0
  2  6  1  0  0  0  0
  3  4  1  0  0  0  0
  3  7  1  0  0  0  0
  3  8  1  0  0  0  0
  4 26  1  0  0  0  0
  6  9  1  0  0  0  0
  6 12  1  0  0  0  0
  8 10  1  0  0  0  0
  8 11  2  0  0  0  0
  9 13  1  0  0  0  0
  9 14  1  0  0  0  0
  9 15  1  0  0  0  0
 10 16  1  0  0  0  0
 10 17  1  0  0  0  0
 10 18  1  0  0  0  0
 19 20  1  0  0  0  0
 20 21  4  0  0  0  0
 20 25  4  0  0  0  0
 21 22  4  0  0  0  0
 21 27  1  0  0  0  0
 22 23  4  0  0  0  0
 22 28  1  0  0  0  0
 23 24  4  0  0  0  0
 23 26  1  0  0  0  0
 24 25  4  0  0  0  0
 24 29  1  0  0  0  0
 25 30  1  0  0  0  0
 26 31  1  0  0  0  0
 26 32  1  0  0  0  0
M  END
> <BCLConfClusterSize>
1

> <ConfClashScore>
0 

> <ConfOneFourInteractionScore>
-0.982823 

> <ConfScore>
0.117345 

> <ConfScorePBest>
0.00361868 

> <ConfTolerance>
0.342659 

> <RosettaParamsInstructions>
M  ROOT 3
M  POLY_N_BB 3
M  POLY_CA_BB 4
M  POLY_C_BB 2
M  POLY_O_BB 5
M  POLY_IGNORE 9 10 11 12 13 14 15 16 17 18 
M  POLY_UPPER 6
M  POLY_LOWER 8
M  POLY_CHG 0
M  POLY_PROPERTIES ALPHA_AA L_AA PROTEIN AROMATIC POLYMER 
M  END

$$$$



 32 32  0  0  0  0  0  0  0  0999 V2000
   -3.1439    1.8776    2.2772 H   0  0  0  1  0  0  0  0  0  0  0  0
   -1.6112    0.4641    2.5837 C   0  0  0  1  0  0  0  0  0  0  0  0
   -1.9343    2.5223    3.8153 N   0  0  0  1  0  0  0  0  0  0  0  0
   -2.0996    1.9029    2.5088 C   0  0  0  1  0  0  0  0  0  0  0  0
   -0.7317    0.1565    3.3867 O   0  0  0  1  0  0  0  0  0  0  0  0
   -2.2405   -0.4270    1.8102 N   0  0  0  1  0  0  0  0  0  0  0  0
   -1.3214    3.2818    3.9045 H   0  0  0  1  0  0  0  0  0  0  0  0
   -2.5890    2.0915    4.8974 C   0  0  0  1  0  0  0  0  0  0  0  0
   -1.9026   -1.8397    1.8994 C   0  0  0  1  0  0  0  0  0  0  0  0
   -2.3450    2.8771    6.1711 C   0  0  0  1  0  0  0  0  0  0  0  0
   -3.3455    1.1214    4.8806 O   0  0  0  1  0  0  0  0  0  0  0  0
   -2.9307   -0.1280    1.1820 H   0  0  0  1  0  0  0  0  0  0  0  0
   -2.5455   -2.3165    2.6094 H   0  0  0  1  0  0  0  0  0  0  0  0
   -0.8851   -1.9436    2.2138 H   0  0  0  1  0  0  0  0  0  0  0  0
   -2.0287   -2.2975    0.9406 H   0  0  0  1  0  0  0  0  0  0  0  0
   -3.2797    3.2162    6.5663 H   0  0  0  1  0  0  0  0  0  0  0  0
   -1.7220    3.7201    5.9562 H   0  0  0  1  0  0  0  0  0  0  0  0
   -1.8609    2.2493    6.8899 H   0  0  0  1  0  0  0  0  0  0  0  0
   -4.4284    8.0074    0.4539 Br  0  0  0  1  0  0  0  0  0  0  0  0
   -3.4402    6.4143    0.6940 C   0  0  0  1  0  0  0  0  0  0  0  0
   -2.9367    6.0968    1.9459 C   0  0  0  1  0  0  0  0  0  0  0  0
   -2.2816    4.8959    2.1431 C   0  0  0  1  0  0  0  0  0  0  0  0
   -2.1327    4.0067    1.0903 C   0  0  0  1  0  0  0  0  0  0  0  0
   -2.6346    4.3231   -0.1580 C   0  0  0  1  0  0  0  0  0  0  0  0
   -3.2917    5.5276   -0.3557 C   0  0  0  1  0  0  0  0  0  0  0  0
   -1.4070    2.7227    1.4163 C   0  0  0  1  0  0  0  0  0  0  0  0
   -3.0520    6.7622    2.7367 H   0  0  0  1  0  0  0  0  0  0  0  0
   -1.9003    4.6595    3.0814 H   0  0  0  1  0  0  0  0  0  0  0  0
   -2.5194    3.6576   -0.9489 H   0  0  0  1  0  0  0  0  0  0  0  0
   -3.6729    5.7640   -1.2940 H   0  0  0  1  0  0  0  0  0  0  0  0
   -1.3510    2.1283    0.5283 H   0  0  0  1  0  0  0  0  0  0  0  0
   -0.4186    2.9647    1.7470 H   0  0  0  1  0  0  0  0  0  0  0  0
  1  4  1  0  0  0  0
  2  4  1  0  0  0  0
  2  5  2  0  0  0  0
  2  6  1  0  0  0  0
  3  4  1  0  0  0  0
  3  7  1  0  0  0  0
  3  8  1  0  0  0  0
  4 26  1  0  0  0  0
  6  9  1  0  0  0  0
  6 12  1  0  0  0  0
  8 10  1  0  0  0  0
  8 11  2  0  0  0  0
  9 13  1  0  0  0  0
  9 14  1  0  0  0  0
  9 15  1  0  0  0  0
 10 16  1  0  0  0  0
 10 17  1  0  0  0  0
 10 18  1  0  0  0  0
 19 20  1  0  0  0  0
 20 21  4  0  0  0  0
 20 25  4  0  0  0  0
 21 22  4  0  0  0  0
 21 27  1  0  0  0  0
 22 23  4  0  0  0  0
 22 28  1  0  0  0  0
 23 24  4  0  0  0  0
 23 26  1  0  0  0  0
 24 25  4  0  0  0  0
 24 29  1  0  0  0  0
 25 30  1  0  0  0  0
 26 31  1  0  0  0  0
 26 32  1  0  0  0  0
M  END
> <BCLConfClusterSize>
1

> <ConfClashScore>
0 

> <ConfOneFourInteractionScore>
-0.981931 

> <ConfScore>
0.121126 

> <ConfScorePBest>
0.0035902 

> <ConfTolerance>
0.531779 

> <RosettaParamsInstructions>
M  ROOT 3
M  POLY_N_BB 3
M  POLY_CA_BB 4
M  POLY_C_BB 2
M  POLY_O_BB 5
M  POLY_IGNORE 9 10 11 12 13 14 15 16 17 18 
M  POLY_UPPER 6
M  POLY_LOWER 8
M  POLY_CHG 0
M  POLY_PROPERTIES ALPHA_AA L_AA PROTEIN AROMATIC POLYMER 
M  END

$$$$



 32 32  0  0  0  0  0  0  0  0999 V2000
    0.2954    3.1989    0.1988 H   0  0  0  1  0  0  0  0  0  0  0  0
    0.6831    3.7603    2.2042 C   0  0  0  1  0  0  0  0  0  0  0  0
    0.7857    1.5331    1.3225 N   0  0  0  1  0  0  0  0  0  0  0  0
    0.0929    2.8041    1.1725 C   0  0  0  1  0  0  0  0  0  0  0  0
    1.1460    3.3335    3.2608 O   0  0  0  1  0  0  0  0  0  0  0  0
    0.7262    5.0436    1.8190 N   0  0  0  1  0  0  0  0  0  0  0  0
    0.4958    0.8769    1.9901 H   0  0  0  1  0  0  0  0  0  0  0  0
    1.8358    1.2846    0.5182 C   0  0  0  1  0  0  0  0  0  0  0  0
    1.1524    6.1521    2.6602 C   0  0  0  1  0  0  0  0  0  0  0  0
    2.5168   -0.0412    0.7972 C   0  0  0  1  0  0  0  0  0  0  0  0
    2.2325    2.0392   -0.3689 O   0  0  0  1  0  0  0  0  0  0  0  0
    0.4500    5.2509    0.9019 H   0  0  0  1  0  0  0  0  0  0  0  0
    2.2004    6.0675    2.8587 H   0  0  0  1  0  0  0  0  0  0  0  0
    0.6117    6.1274    3.5832 H   0  0  0  1  0  0  0  0  0  0  0  0
    0.9584    7.0763    2.1571 H   0  0  0  1  0  0  0  0  0  0  0  0
    1.7763   -0.7910    0.9824 H   0  0  0  1  0  0  0  0  0  0  0  0
    3.1481    0.0561    1.6556 H   0  0  0  1  0  0  0  0  0  0  0  0
    3.1065   -0.3241   -0.0496 H   0  0  0  1  0  0  0  0  0  0  0  0
   -4.4301    8.0052    0.4437 Br  0  0  0  1  0  0  0  0  0  0  0  0
   -3.4402    6.4149    0.6951 C   0  0  0  1  0  0  0  0  0  0  0  0
   -2.9395    6.1049    1.9500 C   0  0  0  1  0  0  0  0  0  0  0  0
   -2.2831    4.9061    2.1555 C   0  0  0  1  0  0  0  0  0  0  0  0
   -2.1302    4.0114    1.1079 C   0  0  0  1  0  0  0  0  0  0  0  0
   -2.6293    4.3203   -0.1435 C   0  0  0  1  0  0  0  0  0  0  0  0
   -3.2876    5.5227   -0.3494 C   0  0  0  1  0  0  0  0  0  0  0  0
   -1.4180    2.6985    1.3331 C   0  0  0  1  0  0  0  0  0  0  0  0
   -3.0578    6.7744    2.7369 H   0  0  0  1  0  0  0  0  0  0  0  0
   -1.9040    4.6754    3.0960 H   0  0  0  1  0  0  0  0  0  0  0  0
   -2.5109    3.6507   -0.9304 H   0  0  0  1  0  0  0  0  0  0  0  0
   -3.6667    5.7534   -1.2900 H   0  0  0  1  0  0  0  0  0  0  0  0
   -1.6323    2.3608    2.3255 H   0  0  0  1  0  0  0  0  0  0  0  0
   -1.7867    1.9854    0.6257 H   0  0  0  1  0  0  0  0  0  0  0  0
  1  4  1  0  0  0  0
  2  4  1  0  0  0  0
  2  5  2  0  0  0  0
  2  6  1  0  0  0  0
  3  4  1  0  0  0  0
  3  7  1  0  0  0  0
  3  8  1  0  0  0  0
  4 26  1  0  0  0  0
  6  9  1  0  0  0  0
  6 12  1  0  0  0  0
  8 10  1  0  0  0  0
  8 11  2  0  0  0  0
  9 13  1  0  0  0  0
  9 14  1  0  0  0  0
  9 15  1  0  0  0  0
 10 16  1  0  0  0  0
 10 17  1  0  0  0  0
 10 18  1  0  0  0  0
 19 20  1  0  0  0  0
 20 21  4  0  0  0  0
 20 25  4  0  0  0  0
 21 22  4  0  0  0  0
 21 27  1  0  0  0  0
 22 23  4  0  0  0  0
 22 28  1  0  0  0  0
 23 24  4  0  0  0  0
 23 26  1  0  0  0  0
 24 25  4  0  0  0  0
 24 29  1  0  0  0  0
 25 30  1  0  0  0  0
 26 31  1  0  0  0  0
 26 32  1  0  0  0  0
M  END
> <BCLConfClusterSize>
1

> <ConfClashScore>
0 

> <ConfOneFourInteractionScore>
-0.987695 

> <ConfScore>
0.122185 

> <ConfScorePBest>
0.00356172 

> <ConfTolerance>
0.459143 

> <RosettaParamsInstructions>
M  ROOT 3
M  POLY_N_BB 3
M  POLY_CA_BB 4
M  POLY_C_BB 2
M  POLY_O_BB 5
M  POLY_IGNORE 9 10 11 12 13 14 15 16 17 18 
M  POLY_UPPER 6
M  POLY_LOWER 8
M  POLY_CHG 0
M  POLY_PROPERTIES ALPHA_AA L_AA PROTEIN AROMATIC POLYMER 
M  END

$$$$



 32 32  0  0  0  0  0  0  0  0999 V2000
    0.1783    1.7297    0.3910 H   0  0  0  1  0  0  0  0  0  0  0  0
    0.1758    3.7925   -0.1513 C   0  0  0  1  0  0  0  0  0  0  0  0
    0.8860    2.8347    2.0010 N   0  0  0  1  0  0  0  0  0  0  0  0
   -0.0162    2.6657    0.8717 C   0  0  0  1  0  0  0  0  0  0  0  0
    0.1373    3.5429   -1.3449 O   0  0  0  1  0  0  0  0  0  0  0  0
    0.2944    5.0330    0.3338 N   0  0  0  1  0  0  0  0  0  0  0  0
    0.5445    2.7545    2.9160 H   0  0  0  1  0  0  0  0  0  0  0  0
    2.1790    3.0991    1.7929 C   0  0  0  1  0  0  0  0  0  0  0  0
    0.3673    6.2019   -0.5302 C   0  0  0  1  0  0  0  0  0  0  0  0
    3.0094    3.2732    3.0658 C   0  0  0  1  0  0  0  0  0  0  0  0
    2.7159    3.1271    0.6863 O   0  0  0  1  0  0  0  0  0  0  0  0
    0.3337    5.1594    1.3048 H   0  0  0  1  0  0  0  0  0  0  0  0
    1.0096    5.9931   -1.3601 H   0  0  0  1  0  0  0  0  0  0  0  0
    0.7578    7.0303    0.0232 H   0  0  0  1  0  0  0  0  0  0  0  0
   -0.6119    6.4416   -0.8888 H   0  0  0  1  0  0  0  0  0  0  0  0
    3.2671    2.3118    3.4585 H   0  0  0  1  0  0  0  0  0  0  0  0
    2.4391    3.8137    3.7922 H   0  0  0  1  0  0  0  0  0  0  0  0
    3.9027    3.8160    2.8372 H   0  0  0  1  0  0  0  0  0  0  0  0
   -4.4484    7.9948    0.4502 Br  0  0  0  1  0  0  0  0  0  0  0  0
   -3.4440    6.4128    0.6961 C   0  0  0  1  0  0  0  0  0  0  0  0
   -2.9376    6.1047    1.9491 C   0  0  0  1  0  0  0  0  0  0  0  0
   -2.2702    4.9114    2.1507 C   0  0  0  1  0  0  0  0  0  0  0  0
   -2.1119    4.0201    1.1010 C   0  0  0  1  0  0  0  0  0  0  0  0
   -2.6167    4.3270   -0.1486 C   0  0  0  1  0  0  0  0  0  0  0  0
   -3.2861    5.5240   -0.3506 C   0  0  0  1  0  0  0  0  0  0  0  0
   -1.4720    2.6759    1.3562 C   0  0  0  1  0  0  0  0  0  0  0  0
   -3.0599    6.7717    2.7377 H   0  0  0  1  0  0  0  0  0  0  0  0
   -1.8869    4.6821    3.0899 H   0  0  0  1  0  0  0  0  0  0  0  0
   -2.4944    3.6601   -0.9371 H   0  0  0  1  0  0  0  0  0  0  0  0
   -3.6694    5.7533   -1.2897 H   0  0  0  1  0  0  0  0  0  0  0  0
   -1.4937    2.4707    2.4061 H   0  0  0  1  0  0  0  0  0  0  0  0
   -2.0211    1.9210    0.8333 H   0  0  0  1  0  0  0  0  0  0  0  0
  1  4  1  0  0  0  0
  2  4  1  0  0  0  0
  2  5  2  0  0  0  0
  2  6  1  0  0  0  0
  3  4  1  0  0  0  0
  3  7  1  0  0  0  0
  3  8  1  0  0  0  0
  4 26  1  0  0  0  0
  6  9  1  0  0  0  0
  6 12  1  0  0  0  0
  8 10  1  0  0  0  0
  8 11  2  0  0  0  0
  9 13  1  0  0  0  0
  9 14  1  0  0  0  0
  9 15  1  0  0  0  0
 10 16  1  0  0  0  0
 10 17  1  0  0  0  0
 10 18  1  0  0  0  0
 19 20  1  0  0  0  0
 20 21  4  0  0  0  0
 20 25  4  0  0  0  0
 21 22  4  0  0  0  0
 21 27  1  0  0  0  0
 22 23  4  0  0  0  0
 22 28  1  0  0  0  0
 23 24  4  0  0  0  0
 23 26  1  0  0  0  0
 24 25  4  0  0  0  0
 24 29  1  0  0  0  0
 25 30  1  0  0  0  0
 26 31  1  0  0  0  0
 26 32  1  0  0  0  0
M  END
> <BCLConfClusterSize>
1

> <ConfClashScore>
0.000273746 

> <ConfOneFourInteractionScore>
-0.942345 

> <ConfScore>
0.132595 

> <ConfScorePBest>
0.00353324 

> <ConfTolerance>
0.790353 

> <RosettaParamsInstructions>
M  ROOT 3
M  POLY_N_BB 3
M  POLY_CA_BB 4
M  POLY_C_BB 2
M  POLY_O_BB 5
M  POLY_IGNORE 9 10 11 12 13 14 15 16 17 18 
M  POLY_UPPER 6
M  POLY_LOWER 8
M  POLY_CHG 0
M  POLY_PROPERTIES ALPHA_AA L_AA PROTEIN AROMATIC POLYMER 
M  END

$$$$



 32 32  0  0  0  0  0  0  0  0999 V2000
   -2.2048    2.3368    3.2149 H   0  0  0  1  0  0  0  0  0  0  0  0
   -3.3597    1.1564    1.9063 C   0  0  0  1  0  0  0  0  0  0  0  0
   -1.1125    0.6785    2.6674 N   0  0  0  1  0  0  0  0  0  0  0  0
   -2.0290    1.7582    2.3323 C   0  0  0  1  0  0  0  0  0  0  0  0
   -3.3963    0.3367    0.9900 O   0  0  0  1  0  0  0  0  0  0  0  0
   -4.4336    1.4982    2.6263 N   0  0  0  1  0  0  0  0  0  0  0  0
   -0.3203    0.5198    2.1129 H   0  0  0  1  0  0  0  0  0  0  0  0
   -1.3490   -0.0967    3.7296 C   0  0  0  1  0  0  0  0  0  0  0  0
   -5.7644    0.9921    2.3254 C   0  0  0  1  0  0  0  0  0  0  0  0
   -0.5093   -1.3556    3.8262 C   0  0  0  1  0  0  0  0  0  0  0  0
   -2.1900    0.1770    4.5847 O   0  0  0  1  0  0  0  0  0  0  0  0
   -4.3204    2.1107    3.3829 H   0  0  0  1  0  0  0  0  0  0  0  0
   -6.1845    1.5512    1.5155 H   0  0  0  1  0  0  0  0  0  0  0  0
   -6.3878    1.0929    3.1892 H   0  0  0  1  0  0  0  0  0  0  0  0
   -5.6995   -0.0399    2.0503 H   0  0  0  1  0  0  0  0  0  0  0  0
   -1.1511   -2.2108    3.8663 H   0  0  0  1  0  0  0  0  0  0  0  0
    0.0894   -1.3175    4.7122 H   0  0  0  1  0  0  0  0  0  0  0  0
    0.1263   -1.4269    2.9684 H   0  0  0  1  0  0  0  0  0  0  0  0
   -4.4309    8.0037    0.4382 Br  0  0  0  1  0  0  0  0  0  0  0  0
   -3.4400    6.4150    0.6957 C   0  0  0  1  0  0  0  0  0  0  0  0
   -2.9409    6.1090    1.9522 C   0  0  0  1  0  0  0  0  0  0  0  0
   -2.2839    4.9114    2.1622 C   0  0  0  1  0  0  0  0  0  0  0  0
   -2.1287    4.0137    1.1174 C   0  0  0  1  0  0  0  0  0  0  0  0
   -2.6263    4.3185   -0.1355 C   0  0  0  1  0  0  0  0  0  0  0  0
   -3.2853    5.5198   -0.3459 C   0  0  0  1  0  0  0  0  0  0  0  0
   -1.4253    2.6879    1.2878 C   0  0  0  1  0  0  0  0  0  0  0  0
   -3.0609    6.7808    2.7370 H   0  0  0  1  0  0  0  0  0  0  0  0
   -1.9059    4.6837    3.1039 H   0  0  0  1  0  0  0  0  0  0  0  0
   -2.5063    3.6467   -0.9203 H   0  0  0  1  0  0  0  0  0  0  0  0
   -3.6632    5.7475   -1.2877 H   0  0  0  1  0  0  0  0  0  0  0  0
   -1.4429    2.1814    0.3454 H   0  0  0  1  0  0  0  0  0  0  0  0
   -0.4118    2.8856    1.5682 H   0  0  0  1  0  0  0  0  0  0  0  0
  1  4  1  0  0  0  0
  2  4  1  0  0  0  0
  2  5  2  0  0  0  0
  2  6  1  0  0  0  0
  3  4  1  0  0  0  0
  3  7  1  0  0  0  0
  3  8  1  0  0  0  0
  4 26  1  0  0  0  0
  6  9  1  0  0  0  0
  6 12  1  0  0  0  0
  8 10  1  0  0  0  0
  8 11  2  0  0  0  0
  9 13  1  0  0  0  0
  9 14  1  0  0  0  0
  9 15  1  0  0  0  0
 10 16  1  0  0  0  0
 10 17  1  0  0  0  0
 10 18  1  0  0  0  0
 19 20  1  0  0  0  0
 20 21  4  0  0  0  0
 20 25  4  0  0  0  0
 21 22  4  0  0  0  0
 21 27  1  0  0  0  0
 22 23  4  0  0  0  0
 22 28  1  0  0  0  0
 23 24  4  0  0  0  0
 23 26  1  0  0  0  0
 24 25  4  0  0  0  0
 24 29  1  0  0  0  0
 25 30  1  0  0  0  0
 26 31  1  0  0  0  0
 26 32  1  0  0  0  0
M  END
> <BCLConfClusterSize>
1

> <ConfClashScore>
0 

> <ConfOneFourInteractionScore>
-0.978127 

> <ConfScore>
0.143739 

> <ConfScorePBest>
0.00350476 

> <ConfTolerance>
0.53557 

> <RosettaParamsInstructions>
M  ROOT 3
M  POLY_N_BB 3
M  POLY_CA_BB 4
M  POLY_C_BB 2
M  POLY_O_BB 5
M  POLY_IGNORE 9 10 11 12 13 14 15 16 17 18 
M  POLY_UPPER 6
M  POLY_LOWER 8
M  POLY_CHG 0
M  POLY_PROPERTIES ALPHA_AA L_AA PROTEIN AROMATIC POLYMER 
M  END

$$$$



 32 32  0  0  0  0  0  0  0  0999 V2000
   -3.1179    1.5639    1.4456 H   0  0  0  1  0  0  0  0  0  0  0  0
   -1.4980    0.2693    1.8407 C   0  0  0  1  0  0  0  0  0  0  0  0
   -2.4937    1.8514    3.3884 N   0  0  0  1  0  0  0  0  0  0  0  0
   -2.1944    1.6190    1.9833 C   0  0  0  1  0  0  0  0  0  0  0  0
   -1.1808   -0.3798    2.8362 O   0  0  0  1  0  0  0  0  0  0  0  0
   -1.3569   -0.1569    0.5810 N   0  0  0  1  0  0  0  0  0  0  0  0
   -1.7573    1.8514    4.0351 H   0  0  0  1  0  0  0  0  0  0  0  0
   -3.7373    2.0649    3.8274 C   0  0  0  1  0  0  0  0  0  0  0  0
   -0.7612   -1.4449    0.2583 C   0  0  0  1  0  0  0  0  0  0  0  0
   -3.8972    2.1620    5.3321 C   0  0  0  1  0  0  0  0  0  0  0  0
   -4.6954    2.1772    3.0804 O   0  0  0  1  0  0  0  0  0  0  0  0
   -1.6653    0.4180   -0.1502 H   0  0  0  1  0  0  0  0  0  0  0  0
   -0.7579   -2.0654    1.1300 H   0  0  0  1  0  0  0  0  0  0  0  0
    0.2437   -1.2984   -0.0787 H   0  0  0  1  0  0  0  0  0  0  0  0
   -1.3315   -1.9179   -0.5137 H   0  0  0  1  0  0  0  0  0  0  0  0
   -3.3652    3.0172    5.6934 H   0  0  0  1  0  0  0  0  0  0  0  0
   -3.5044    1.2783    5.7900 H   0  0  0  1  0  0  0  0  0  0  0  0
   -4.9348    2.2591    5.5748 H   0  0  0  1  0  0  0  0  0  0  0  0
   -4.4104    8.0163    0.4421 Br  0  0  0  1  0  0  0  0  0  0  0  0
   -3.4362    6.4164    0.6936 C   0  0  0  1  0  0  0  0  0  0  0  0
   -2.9399    6.1008    1.9488 C   0  0  0  1  0  0  0  0  0  0  0  0
   -2.2954    4.8956    2.1543 C   0  0  0  1  0  0  0  0  0  0  0  0
   -2.1498    4.0001    1.1063 C   0  0  0  1  0  0  0  0  0  0  0  0
   -2.6445    4.3146   -0.1454 C   0  0  0  1  0  0  0  0  0  0  0  0
   -3.2910    5.5234   -0.3513 C   0  0  0  1  0  0  0  0  0  0  0  0
   -1.3595    2.7362    1.3498 C   0  0  0  1  0  0  0  0  0  0  0  0
   -3.0527    6.7709    2.7361 H   0  0  0  1  0  0  0  0  0  0  0  0
   -1.9195    4.6606    3.0951 H   0  0  0  1  0  0  0  0  0  0  0  0
   -2.5318    3.6444   -0.9326 H   0  0  0  1  0  0  0  0  0  0  0  0
   -3.6668    5.7584   -1.2921 H   0  0  0  1  0  0  0  0  0  0  0  0
   -0.9783    2.3871    0.4130 H   0  0  0  1  0  0  0  0  0  0  0  0
   -0.5444    2.9650    2.0041 H   0  0  0  1  0  0  0  0  0  0  0  0
  1  4  1  0  0  0  0
  2  4  1  0  0  0  0
  2  5  2  0  0  0  0
  2  6  1  0  0  0  0
  3  4  1  0  0  0  0
  3  7  1  0  0  0  0
  3  8  1  0  0  0  0
  4 26  1  0  0  0  0
  6  9  1  0  0  0  0
  6 12  1  0  0  0  0
  8 10  1  0  0  0  0
  8 11  2  0  0  0  0
  9 13  1  0  0  0  0
  9 14  1  0  0  0  0
  9 15  1  0  0  0  0
 10 16  1  0  0  0  0
 10 17  1  0  0  0  0
 10 18  1  0  0  0  0
 19 20  1  0  0  0  0
 20 21  4  0  0  0  0
 20 25  4  0  0  0  0
 21 22  4  0  0  0  0
 21 27  1  0  0  0  0
 22 23  4  0  0  0  0
 22 28  1  0  0  0  0
 23 24  4  0  0  0  0
 23 26  1  0  0  0  0
 24 25  4  0  0  0  0
 24 29  1  0  0  0  0
 25 30  1  0  0  0  0
 26 31  1  0  0  0  0
 26 32  1  0  0  0  0
M  END
> <BCLConfClusterSize>
1

> <ConfClashScore>
0 

> <ConfOneFourInteractionScore>
-0.986698 

> <ConfScore>
0.145213 

> <ConfScorePBest>
0.00347628 

> <ConfTolerance>
0.535083 

> <RosettaParamsInstructions>
M  ROOT 3
M  POLY_N_BB 3
M  POLY_CA_BB 4
M  POLY_C_BB 2
M  POLY_O_BB 5
M  POLY_IGNORE 9 10 11 12 13 14 15 16 17 18 
M  POLY_UPPER 6
M  POLY_LOWER 8
M  POLY_CHG 0
M  POLY_PROPERTIES ALPHA_AA L_AA PROTEIN AROMATIC POLYMER 
M  END

$$$$



 32 32  0  0  0  0  0  0  0  0999 V2000
    0.2322    3.8635    1.8315 H   0  0  0  1  0  0  0  0  0  0  0  0
   -0.2181    2.7259    3.5421 C   0  0  0  1  0  0  0  0  0  0  0  0
    0.8774    1.9391    1.4599 N   0  0  0  1  0  0  0  0  0  0  0  0
   -0.1047    2.8677    2.0305 C   0  0  0  1  0  0  0  0  0  0  0  0
   -0.6131    3.6591    4.2394 O   0  0  0  1  0  0  0  0  0  0  0  0
    0.0480    1.5162    4.0461 N   0  0  0  1  0  0  0  0  0  0  0  0
    0.5810    1.2926    0.7857 H   0  0  0  1  0  0  0  0  0  0  0  0
    2.1912    1.9445    1.8356 C   0  0  0  1  0  0  0  0  0  0  0  0
   -0.0598    1.2255    5.4680 C   0  0  0  1  0  0  0  0  0  0  0  0
    3.0758    1.1331    0.9347 C   0  0  0  1  0  0  0  0  0  0  0  0
    2.5806    2.5570    2.8120 O   0  0  0  1  0  0  0  0  0  0  0  0
    0.3253    0.8005    3.4368 H   0  0  0  1  0  0  0  0  0  0  0  0
    0.5211    0.3574    5.7002 H   0  0  0  1  0  0  0  0  0  0  0  0
   -1.0845    1.0461    5.7184 H   0  0  0  1  0  0  0  0  0  0  0  0
    0.3047    2.0593    6.0309 H   0  0  0  1  0  0  0  0  0  0  0  0
    2.7840    1.2848   -0.0835 H   0  0  0  1  0  0  0  0  0  0  0  0
    2.9813    0.0963    1.1819 H   0  0  0  1  0  0  0  0  0  0  0  0
    4.0929    1.4396    1.0634 H   0  0  0  1  0  0  0  0  0  0  0  0
   -4.4309    8.0037    0.4382 Br  0  0  0  1  0  0  0  0  0  0  0  0
   -3.4400    6.4150    0.6957 C   0  0  0  1  0  0  0  0  0  0  0  0
   -2.9409    6.1090    1.9522 C   0  0  0  1  0  0  0  0  0  0  0  0
   -2.2839    4.9114    2.1622 C   0  0  0  1  0  0  0  0  0  0  0  0
   -2.1287    4.0137    1.1174 C   0  0  0  1  0  0  0  0  0  0  0  0
   -2.6263    4.3185   -0.1355 C   0  0  0  1  0  0  0  0  0  0  0  0
   -3.2853    5.5198   -0.3459 C   0  0  0  1  0  0  0  0  0  0  0  0
   -1.4253    2.6879    1.2878 C   0  0  0  1  0  0  0  0  0  0  0  0
   -3.0609    6.7808    2.7370 H   0  0  0  1  0  0  0  0  0  0  0  0
   -1.9059    4.6837    3.1039 H   0  0  0  1  0  0  0  0  0  0  0  0
   -2.5063    3.6467   -0.9203 H   0  0  0  1  0  0  0  0  0  0  0  0
   -3.6632    5.7475   -1.2877 H   0  0  0  1  0  0  0  0  0  0  0  0
   -2.0544    2.0262    1.8457 H   0  0  0  1  0  0  0  0  0  0  0  0
   -1.2309    2.2674    0.3233 H   0  0  0  1  0  0  0  0  0  0  0  0
  1  4  1  0  0  0  0
  2  4  1  0  0  0  0
  2  5  2  0  0  0  0
  2  6  1  0  0  0  0
  3  4  1  0  0  0  0
  3  7  1  0  0  0  0
  3  8  1  0  0  0  0
  4 26  1  0  0  0  0
  6  9  1  0  0  0  0
  6 12  1  0  0  0  0
  8 10  1  0  0  0  0
  8 11  2  0  0  0  0
  9 13  1  0  0  0  0
  9 14  1  0  0  0  0
  9 15  1  0  0  0  0
 10 16  1  0  0  0  0
 10 17  1  0  0  0  0
 10 18  1  0  0  0  0
 19 20  1  0  0  0  0
 20 21  4  0  0  0  0
 20 25  4  0  0  0  0
 21 22  4  0  0  0  0
 21 27  1  0  0  0  0
 22 23  4  0  0  0  0
 22 28  1  0  0  0  0
 23 24  4  0  0  0  0
 23 26  1  0  0  0  0
 24 25  4  0  0  0  0
 24 29  1  0  0  0  0
 25 30  1  0  0  0  0
 26 31  1  0  0  0  0
 26 32  1  0  0  0  0
M  END
> <BCLConfClusterSize>
1

> <ConfClashScore>
0 

> <ConfOneFourInteractionScore>
-0.948834 

> <ConfScore>
0.147025 

> <ConfScorePBest>
0.0034478 

> <ConfTolerance>
0.644565 

> <RosettaParamsInstructions>
M  ROOT 3
M  POLY_N_BB 3
M  POLY_CA_BB 4
M  POLY_C_BB 2
M  POLY_O_BB 5
M  POLY_IGNORE 9 10 11 12 13 14 15 16 17 18 
M  POLY_UPPER 6
M  POLY_LOWER 8
M  POLY_CHG 0
M  POLY_PROPERTIES ALPHA_AA L_AA PROTEIN AROMATIC POLYMER 
M  END

$$$$



 32 32  0  0  0  0  0  0  0  0999 V2000
   -1.1245    2.6771   -0.7695 H   0  0  0  1  0  0  0  0  0  0  0  0
    0.3421    1.3983    0.0834 C   0  0  0  1  0  0  0  0  0  0  0  0
   -2.0377    0.9013   -0.2297 N   0  0  0  1  0  0  0  0  0  0  0  0
   -1.0814    1.9672    0.0299 C   0  0  0  1  0  0  0  0  0  0  0  0
    1.2890    2.0364   -0.3740 O   0  0  0  1  0  0  0  0  0  0  0  0
    0.4549    0.2331    0.7299 N   0  0  0  1  0  0  0  0  0  0  0  0
   -2.7462    0.7316    0.4258 H   0  0  0  1  0  0  0  0  0  0  0  0
   -1.9833    0.1461   -1.3305 C   0  0  0  1  0  0  0  0  0  0  0  0
    1.7245   -0.4673    0.8543 C   0  0  0  1  0  0  0  0  0  0  0  0
   -3.0579   -0.9164   -1.4541 C   0  0  0  1  0  0  0  0  0  0  0  0
   -1.1237    0.2890   -2.1990 O   0  0  0  1  0  0  0  0  0  0  0  0
   -0.3453   -0.1630    1.1339 H   0  0  0  1  0  0  0  0  0  0  0  0
    2.4451    0.1782    1.3114 H   0  0  0  1  0  0  0  0  0  0  0  0
    2.0693   -0.7554   -0.1167 H   0  0  0  1  0  0  0  0  0  0  0  0
    1.5925   -1.3395    1.4598 H   0  0  0  1  0  0  0  0  0  0  0  0
   -3.6017   -0.7703   -2.3640 H   0  0  0  1  0  0  0  0  0  0  0  0
   -3.7279   -0.8441   -0.6230 H   0  0  0  1  0  0  0  0  0  0  0  0
   -2.6025   -1.8847   -1.4626 H   0  0  0  1  0  0  0  0  0  0  0  0
   -4.4301    8.0052    0.4437 Br  0  0  0  1  0  0  0  0  0  0  0  0
   -3.4402    6.4149    0.6951 C   0  0  0  1  0  0  0  0  0  0  0  0
   -2.9395    6.1049    1.9500 C   0  0  0  1  0  0  0  0  0  0  0  0
   -2.2831    4.9061    2.1555 C   0  0  0  1  0  0  0  0  0  0  0  0
   -2.1302    4.0114    1.1079 C   0  0  0  1  0  0  0  0  0  0  0  0
   -2.6293    4.3203   -0.1435 C   0  0  0  1  0  0  0  0  0  0  0  0
   -3.2876    5.5227   -0.3494 C   0  0  0  1  0  0  0  0  0  0  0  0
   -1.4180    2.6985    1.3331 C   0  0  0  1  0  0  0  0  0  0  0  0
   -3.0578    6.7744    2.7369 H   0  0  0  1  0  0  0  0  0  0  0  0
   -1.9040    4.6754    3.0960 H   0  0  0  1  0  0  0  0  0  0  0  0
   -2.5109    3.6507   -0.9304 H   0  0  0  1  0  0  0  0  0  0  0  0
   -3.6667    5.7534   -1.2900 H   0  0  0  1  0  0  0  0  0  0  0  0
   -0.5072    2.8912    1.8605 H   0  0  0  1  0  0  0  0  0  0  0  0
   -2.0470    2.0672    1.9253 H   0  0  0  1  0  0  0  0  0  0  0  0
  1  4  1  0  0  0  0
  2  4  1  0  0  0  0
  2  5  2  0  0  0  0
  2  6  1  0  0  0  0
  3  4  1  0  0  0  0
  3  7  1  0  0  0  0
  3  8  1  0  0  0  0
  4 26  1  0  0  0  0
  6  9  1  0  0  0  0
  6 12  1  0  0  0  0
  8 10  1  0  0  0  0
  8 11  2  0  0  0  0
  9 13  1  0  0  0  0
  9 14  1  0  0  0  0
  9 15  1  0  0  0  0
 10 16  1  0  0  0  0
 10 17  1  0  0  0  0
 10 18  1  0  0  0  0
 19 20  1  0  0  0  0
 20 21  4  0  0  0  0
 20 25  4  0  0  0  0
 21 22  4  0  0  0  0
 21 27  1  0  0  0  0
 22 23  4  0  0  0  0
 22 28  1  0  0  0  0
 23 24  4  0  0  0  0
 23 26  1  0  0  0  0
 24 25  4  0  0  0  0
 24 29  1  0  0  0  0
 25 30  1  0  0  0  0
 26 31  1  0  0  0  0
 26 32  1  0  0  0  0
M  END
> <BCLConfClusterSize>
1

> <ConfClashScore>
0 

> <ConfOneFourInteractionScore>
-0.941392 

> <ConfScore>
0.148336 

> <ConfScorePBest>
0.00341932 

> <ConfTolerance>
0.869618 

> <RosettaParamsInstructions>
M  ROOT 3
M  POLY_N_BB 3
M  POLY_CA_BB 4
M  POLY_C_BB 2
M  POLY_O_BB 5
M  POLY_IGNORE 9 10 11 12 13 14 15 16 17 18 
M  POLY_UPPER 6
M  POLY_LOWER 8
M  POLY_CHG 0
M  POLY_PROPERTIES ALPHA_AA L_AA PROTEIN AROMATIC POLYMER 
M  END

$$$$



 32 32  0  0  0  0  0  0  0  0999 V2000
   -0.2247    3.4377    2.9659 H   0  0  0  1  0  0  0  0  0  0  0  0
    0.6103    1.5755    2.3880 C   0  0  0  1  0  0  0  0  0  0  0  0
    0.7779    3.7146    1.1794 N   0  0  0  1  0  0  0  0  0  0  0  0
   -0.0614    2.9078    2.0507 C   0  0  0  1  0  0  0  0  0  0  0  0
   -0.0582    0.5709    2.5676 O   0  0  0  1  0  0  0  0  0  0  0  0
    1.9472    1.6043    2.3759 N   0  0  0  1  0  0  0  0  0  0  0  0
    1.0742    4.5953    1.4910 H   0  0  0  1  0  0  0  0  0  0  0  0
    1.1628    3.2930   -0.0430 C   0  0  0  1  0  0  0  0  0  0  0  0
    2.7527    0.4204    2.6358 C   0  0  0  1  0  0  0  0  0  0  0  0
    2.0757    4.1931   -0.8527 C   0  0  0  1  0  0  0  0  0  0  0  0
    0.7855    2.2106   -0.4899 O   0  0  0  1  0  0  0  0  0  0  0  0
    2.4003    2.4521    2.1855 H   0  0  0  1  0  0  0  0  0  0  0  0
    2.4820   -0.3537    1.9486 H   0  0  0  1  0  0  0  0  0  0  0  0
    2.5801    0.0846    3.6370 H   0  0  0  1  0  0  0  0  0  0  0  0
    3.7883    0.6599    2.5130 H   0  0  0  1  0  0  0  0  0  0  0  0
    2.9631    4.3996   -0.2915 H   0  0  0  1  0  0  0  0  0  0  0  0
    1.5701    5.1106   -1.0704 H   0  0  0  1  0  0  0  0  0  0  0  0
    2.3383    3.7042   -1.7676 H   0  0  0  1  0  0  0  0  0  0  0  0
   -4.4293    8.0064    0.4488 Br  0  0  0  1  0  0  0  0  0  0  0  0
   -3.4402    6.4147    0.6945 C   0  0  0  1  0  0  0  0  0  0  0  0
   -2.9381    6.1009    1.9479 C   0  0  0  1  0  0  0  0  0  0  0  0
   -2.2824    4.9010    2.1493 C   0  0  0  1  0  0  0  0  0  0  0  0
   -2.1315    4.0091    1.0990 C   0  0  0  1  0  0  0  0  0  0  0  0
   -2.6320    4.3218   -0.1508 C   0  0  0  1  0  0  0  0  0  0  0  0
   -3.2897    5.5252   -0.3526 C   0  0  0  1  0  0  0  0  0  0  0  0
   -1.4121    2.7100    1.3751 C   0  0  0  1  0  0  0  0  0  0  0  0
   -3.0549    6.7683    2.7368 H   0  0  0  1  0  0  0  0  0  0  0  0
   -1.9022    4.6674    3.0887 H   0  0  0  1  0  0  0  0  0  0  0  0
   -2.5152    3.6543   -0.9397 H   0  0  0  1  0  0  0  0  0  0  0  0
   -3.6699    5.7589   -1.2920 H   0  0  0  1  0  0  0  0  0  0  0  0
   -2.0268    2.1090    2.0123 H   0  0  0  1  0  0  0  0  0  0  0  0
   -1.2571    2.2023    0.4461 H   0  0  0  1  0  0  0  0  0  0  0  0
  1  4  1  0  0  0  0
  2  4  1  0  0  0  0
  2  5  2  0  0  0  0
  2  6  1  0  0  0  0
  3  4  1  0  0  0  0
  3  7  1  0  0  0  0
  3  8  1  0  0  0  0
  4 26  1  0  0  0  0
  6  9  1  0  0  0  0
  6 12  1  0  0  0  0
  8 10  1  0  0  0  0
  8 11  2  0  0  0  0
  9 13  1  0  0  0  0
  9 14  1  0  0  0  0
  9 15  1  0  0  0  0
 10 16  1  0  0  0  0
 10 17  1  0  0  0  0
 10 18  1  0  0  0  0
 19 20  1  0  0  0  0
 20 21  4  0  0  0  0
 20 25  4  0  0  0  0
 21 22  4  0  0  0  0
 21 27  1  0  0  0  0
 22 23  4  0  0  0  0
 22 28  1  0  0  0  0
 23 24  4  0  0  0  0
 23 26  1  0  0  0  0
 24 25  4  0  0  0  0
 24 29  1  0  0  0  0
 25 30  1  0  0  0  0
 26 31  1  0  0  0  0
 26 32  1  0  0  0  0
M  END
> <BCLConfClusterSize>
1

> <ConfClashScore>
0 

> <ConfOneFourInteractionScore>
-0.956972 

> <ConfScore>
0.151795 

> <ConfScorePBest>
0.00339084 

> <ConfTolerance>
0.340112 

> <RosettaParamsInstructions>
M  ROOT 3
M  POLY_N_BB 3
M  POLY_CA_BB 4
M  POLY_C_BB 2
M  POLY_O_BB 5
M  POLY_IGNORE 9 10 11 12 13 14 15 16 17 18 
M  POLY_UPPER 6
M  POLY_LOWER 8
M  POLY_CHG 0
M  POLY_PROPERTIES ALPHA_AA L_AA PROTEIN AROMATIC POLYMER 
M  END

$$$$



 32 32  0  0  0  0  0  0  0  0999 V2000
    0.4721    1.7669    1.4076 H   0  0  0  1  0  0  0  0  0  0  0  0
    0.5756    3.2496   -0.0868 C   0  0  0  1  0  0  0  0  0  0  0  0
    0.6821    3.6079    2.3081 N   0  0  0  1  0  0  0  0  0  0  0  0
    0.1026    2.7623    1.2751 C   0  0  0  1  0  0  0  0  0  0  0  0
    0.4800    4.4365   -0.3949 O   0  0  0  1  0  0  0  0  0  0  0  0
    1.1618    2.3149   -0.8426 N   0  0  0  1  0  0  0  0  0  0  0  0
    0.4365    4.5538    2.3815 H   0  0  0  1  0  0  0  0  0  0  0  0
    1.5584    3.0580    3.1535 C   0  0  0  1  0  0  0  0  0  0  0  0
    1.7720    2.6240   -2.1270 C   0  0  0  1  0  0  0  0  0  0  0  0
    2.3133    4.0270    4.0425 C   0  0  0  1  0  0  0  0  0  0  0  0
    1.7538    1.8451    3.2207 O   0  0  0  1  0  0  0  0  0  0  0  0
    1.1811    1.3897   -0.5202 H   0  0  0  1  0  0  0  0  0  0  0  0
    2.2198    3.5950   -2.0853 H   0  0  0  1  0  0  0  0  0  0  0  0
    1.0224    2.6097   -2.8904 H   0  0  0  1  0  0  0  0  0  0  0  0
    2.5226    1.8947   -2.3498 H   0  0  0  1  0  0  0  0  0  0  0  0
    3.0175    3.4881    4.6412 H   0  0  0  1  0  0  0  0  0  0  0  0
    1.6223    4.5390    4.6791 H   0  0  0  1  0  0  0  0  0  0  0  0
    2.8327    4.7379    3.4344 H   0  0  0  1  0  0  0  0  0  0  0  0
   -4.4301    8.0052    0.4437 Br  0  0  0  1  0  0  0  0  0  0  0  0
   -3.4402    6.4149    0.6951 C   0  0  0  1  0  0  0  0  0  0  0  0
   -2.9395    6.1049    1.9500 C   0  0  0  1  0  0  0  0  0  0  0  0
   -2.2831    4.9061    2.1555 C   0  0  0  1  0  0  0  0  0  0  0  0
   -2.1302    4.0114    1.1079 C   0  0  0  1  0  0  0  0  0  0  0  0
   -2.6293    4.3203   -0.1435 C   0  0  0  1  0  0  0  0  0  0  0  0
   -3.2876    5.5227   -0.3494 C   0  0  0  1  0  0  0  0  0  0  0  0
   -1.4180    2.6985    1.3331 C   0  0  0  1  0  0  0  0  0  0  0  0
   -3.0578    6.7744    2.7369 H   0  0  0  1  0  0  0  0  0  0  0  0
   -1.9040    4.6754    3.0960 H   0  0  0  1  0  0  0  0  0  0  0  0
   -2.5109    3.6507   -0.9304 H   0  0  0  1  0  0  0  0  0  0  0  0
   -3.6667    5.7534   -1.2900 H   0  0  0  1  0  0  0  0  0  0  0  0
   -1.6965    2.3336    2.2996 H   0  0  0  1  0  0  0  0  0  0  0  0
   -1.7484    2.0109    0.5829 H   0  0  0  1  0  0  0  0  0  0  0  0
  1  4  1  0  0  0  0
  2  4  1  0  0  0  0
  2  5  2  0  0  0  0
  2  6  1  0  0  0  0
  3  4  1  0  0  0  0
  3  7  1  0  0  0  0
  3  8  1  0  0  0  0
  4 26  1  0  0  0  0
  6  9  1  0  0  0  0
  6 12  1  0  0  0  0
  8 10  1  0  0  0  0
  8 11  2  0  0  0  0
  9 13  1  0  0  0  0
  9 14  1  0  0  0  0
  9 15  1  0  0  0  0
 10 16  1  0  0  0  0
 10 17  1  0  0  0  0
 10 18  1  0  0  0  0
 19 20  1  0  0  0  0
 20 21  4  0  0  0  0
 20 25  4  0  0  0  0
 21 22  4  0  0  0  0
 21 27  1  0  0  0  0
 22 23  4  0  0  0  0
 22 28  1  0  0  0  0
 23 24  4  0  0  0  0
 23 26  1  0  0  0  0
 24 25  4  0  0  0  0
 24 29  1  0  0  0  0
 25 30  1  0  0  0  0
 26 31  1  0  0  0  0
 26 32  1  0  0  0  0
M  END
> <BCLConfClusterSize>
1

> <ConfClashScore>
0 

> <ConfOneFourInteractionScore>
-0.987258 

> <ConfScore>
0.152996 

> <ConfScorePBest>
0.00336236 

> <ConfTolerance>
0.54807 

> <RosettaParamsInstructions>
M  ROOT 3
M  POLY_N_BB 3
M  POLY_CA_BB 4
M  POLY_C_BB 2
M  POLY_O_BB 5
M  POLY_IGNORE 9 10 11 12 13 14 15 16 17 18 
M  POLY_UPPER 6
M  POLY_LOWER 8
M  POLY_CHG 0
M  POLY_PROPERTIES ALPHA_AA L_AA PROTEIN AROMATIC POLYMER 
M  END

$$$$



 32 32  0  0  0  0  0  0  0  0999 V2000
    0.5738    3.3004    1.1502 H   0  0  0  1  0  0  0  0  0  0  0  0
    0.1201    3.6455    3.1621 C   0  0  0  1  0  0  0  0  0  0  0  0
    0.5760    1.4655    2.0875 N   0  0  0  1  0  0  0  0  0  0  0  0
   -0.0117    2.8089    1.8989 C   0  0  0  1  0  0  0  0  0  0  0  0
    0.4564    4.8260    3.0830 O   0  0  0  1  0  0  0  0  0  0  0  0
   -0.2272    3.0587    4.3125 N   0  0  0  1  0  0  0  0  0  0  0  0
    0.0849    0.6840    1.7582 H   0  0  0  1  0  0  0  0  0  0  0  0
    1.7514    1.2802    2.6904 C   0  0  0  1  0  0  0  0  0  0  0  0
   -0.0255    3.7516    5.5763 C   0  0  0  1  0  0  0  0  0  0  0  0
    2.1387   -0.1629    2.9489 C   0  0  0  1  0  0  0  0  0  0  0  0
    2.4875    2.2082    3.0227 O   0  0  0  1  0  0  0  0  0  0  0  0
   -0.6184    2.1602    4.3045 H   0  0  0  1  0  0  0  0  0  0  0  0
    0.1026    3.0347    6.3602 H   0  0  0  1  0  0  0  0  0  0  0  0
   -0.8781    4.3625    5.7878 H   0  0  0  1  0  0  0  0  0  0  0  0
    0.8472    4.3671    5.5100 H   0  0  0  1  0  0  0  0  0  0  0  0
    3.2050   -0.2516    2.9505 H   0  0  0  1  0  0  0  0  0  0  0  0
    1.7304   -0.7848    2.1799 H   0  0  0  1  0  0  0  0  0  0  0  0
    1.7541   -0.4704    3.8989 H   0  0  0  1  0  0  0  0  0  0  0  0
   -4.4301    8.0052    0.4437 Br  0  0  0  1  0  0  0  0  0  0  0  0
   -3.4402    6.4149    0.6951 C   0  0  0  1  0  0  0  0  0  0  0  0
   -2.9395    6.1049    1.9500 C   0  0  0  1  0  0  0  0  0  0  0  0
   -2.2831    4.9061    2.1555 C   0  0  0  1  0  0  0  0  0  0  0  0
   -2.1302    4.0114    1.1079 C   0  0  0  1  0  0  0  0  0  0  0  0
   -2.6293    4.3203   -0.1435 C   0  0  0  1  0  0  0  0  0  0  0  0
   -3.2876    5.5227   -0.3494 C   0  0  0  1  0  0  0  0  0  0  0  0
   -1.4180    2.6985    1.3331 C   0  0  0  1  0  0  0  0  0  0  0  0
   -3.0578    6.7744    2.7369 H   0  0  0  1  0  0  0  0  0  0  0  0
   -1.9040    4.6754    3.0960 H   0  0  0  1  0  0  0  0  0  0  0  0
   -2.5109    3.6507   -0.9304 H   0  0  0  1  0  0  0  0  0  0  0  0
   -3.6667    5.7534   -1.2900 H   0  0  0  1  0  0  0  0  0  0  0  0
   -2.0036    2.1182    2.0151 H   0  0  0  1  0  0  0  0  0  0  0  0
   -1.3568    2.1907    0.3933 H   0  0  0  1  0  0  0  0  0  0  0  0
  1  4  1  0  0  0  0
  2  4  1  0  0  0  0
  2  5  2  0  0  0  0
  2  6  1  0  0  0  0
  3  4  1  0  0  0  0
  3  7  1  0  0  0  0
  3  8  1  0  0  0  0
  4 26  1  0  0  0  0
  6  9  1  0  0  0  0
  6 12  1  0  0  0  0
  8 10  1  0  0  0  0
  8 11  2  0  0  0  0
  9 13  1  0  0  0  0
  9 14  1  0  0  0  0
  9 15  1  0  0  0  0
 10 16  1  0  0  0  0
 10 17  1  0  0  0  0
 10 18  1  0  0  0  0
 19 20  1  0  0  0  0
 20 21  4  0  0  0  0
 20 25  4  0  0  0  0
 21 22  4  0  0  0  0
 21 27  1  0  0  0  0
 22 23  4  0  0  0  0
 22 28  1  0  0  0  0
 23 24  4  0  0  0  0
 23 26  1  0  0  0  0
 24 25  4  0  0  0  0
 24 29  1  0  0  0  0
 25 30  1  0  0  0  0
 26 31  1  0  0  0  0
 26 32  1  0  0  0  0
M  END
> <BCLConfClusterSize>
1

> <ConfClashScore>
0 

> <ConfOneFourInteractionScore>
-0.956443 

> <ConfScore>
0.154663 

> <ConfScorePBest>
0.00333388 

> <ConfTolerance>
0.657308 

> <RosettaParamsInstructions>
M  ROOT 3
M  POLY_N_BB 3
M  POLY_CA_BB 4
M  POLY_C_BB 2
M  POLY_O_BB 5
M  POLY_IGNORE 9 10 11 12 13 14 15 16 17 18 
M  POLY_UPPER 6
M  POLY_LOWER 8
M  POLY_CHG 0
M  POLY_PROPERTIES ALPHA_AA L_AA PROTEIN AROMATIC POLYMER 
M  END

$$$$



 32 32  0  0  0  0  0  0  0  0999 V2000
   -1.8669    0.6831    1.8108 H   0  0  0  1  0  0  0  0  0  0  0  0
   -3.1490    1.9221    2.9412 C   0  0  0  1  0  0  0  0  0  0  0  0
   -3.3097    1.3949    0.5171 N   0  0  0  1  0  0  0  0  0  0  0  0
   -2.4197    1.5852    1.6512 C   0  0  0  1  0  0  0  0  0  0  0  0
   -2.5353    2.3050    3.9360 O   0  0  0  1  0  0  0  0  0  0  0  0
   -4.4843    1.8635    2.9004 N   0  0  0  1  0  0  0  0  0  0  0  0
   -4.1736    1.8568    0.4906 H   0  0  0  1  0  0  0  0  0  0  0  0
   -2.9485    0.5837   -0.4987 C   0  0  0  1  0  0  0  0  0  0  0  0
   -5.3607    2.0205    4.0516 C   0  0  0  1  0  0  0  0  0  0  0  0
   -3.9484    0.3502   -1.6145 C   0  0  0  1  0  0  0  0  0  0  0  0
   -1.8412    0.0481   -0.5214 O   0  0  0  1  0  0  0  0  0  0  0  0
   -4.9044    1.7026    2.0298 H   0  0  0  1  0  0  0  0  0  0  0  0
   -5.0000    2.8165    4.6691 H   0  0  0  1  0  0  0  0  0  0  0  0
   -5.3755    1.1110    4.6150 H   0  0  0  1  0  0  0  0  0  0  0  0
   -6.3509    2.2496    3.7171 H   0  0  0  1  0  0  0  0  0  0  0  0
   -4.2015    1.2853   -2.0688 H   0  0  0  1  0  0  0  0  0  0  0  0
   -4.8314   -0.1015   -1.2130 H   0  0  0  1  0  0  0  0  0  0  0  0
   -3.5179   -0.2980   -2.3489 H   0  0  0  1  0  0  0  0  0  0  0  0
   -4.4301    8.0052    0.4437 Br  0  0  0  1  0  0  0  0  0  0  0  0
   -3.4402    6.4149    0.6951 C   0  0  0  1  0  0  0  0  0  0  0  0
   -2.9395    6.1049    1.9500 C   0  0  0  1  0  0  0  0  0  0  0  0
   -2.2831    4.9061    2.1555 C   0  0  0  1  0  0  0  0  0  0  0  0
   -2.1302    4.0114    1.1079 C   0  0  0  1  0  0  0  0  0  0  0  0
   -2.6293    4.3203   -0.1435 C   0  0  0  1  0  0  0  0  0  0  0  0
   -3.2876    5.5227   -0.3494 C   0  0  0  1  0  0  0  0  0  0  0  0
   -1.4180    2.6985    1.3331 C   0  0  0  1  0  0  0  0  0  0  0  0
   -3.0578    6.7744    2.7369 H   0  0  0  1  0  0  0  0  0  0  0  0
   -1.9040    4.6754    3.0960 H   0  0  0  1  0  0  0  0  0  0  0  0
   -2.5109    3.6507   -0.9304 H   0  0  0  1  0  0  0  0  0  0  0  0
   -3.6667    5.7534   -1.2900 H   0  0  0  1  0  0  0  0  0  0  0  0
   -0.8736    2.4386    0.4494 H   0  0  0  1  0  0  0  0  0  0  0  0
   -0.7387    2.8041    2.1530 H   0  0  0  1  0  0  0  0  0  0  0  0
  1  4  1  0  0  0  0
  2  4  1  0  0  0  0
  2  5  2  0  0  0  0
  2  6  1  0  0  0  0
  3  4  1  0  0  0  0
  3  7  1  0  0  0  0
  3  8  1  0  0  0  0
  4 26  1  0  0  0  0
  6  9  1  0  0  0  0
  6 12  1  0  0  0  0
  8 10  1  0  0  0  0
  8 11  2  0  0  0  0
  9 13  1  0  0  0  0
  9 14  1  0  0  0  0
  9 15  1  0  0  0  0
 10 16  1  0  0  0  0
 10 17  1  0  0  0  0
 10 18  1  0  0  0  0
 19 20  1  0  0  0  0
 20 21  4  0  0  0  0
 20 25  4  0  0  0  0
 21 22  4  0  0  0  0
 21 27  1  0  0  0  0
 22 23  4  0  0  0  0
 22 28  1  0  0  0  0
 23 24  4  0  0  0  0
 23 26  1  0  0  0  0
 24 25  4  0  0  0  0
 24 29  1  0  0  0  0
 25 30  1  0  0  0  0
 26 31  1  0  0  0  0
 26 32  1  0  0  0  0
M  END
> <BCLConfClusterSize>
1

> <ConfClashScore>
0 

> <ConfOneFourInteractionScore>
-0.951253 

> <ConfScore>
0.170024 

> <ConfScorePBest>
0.0033054 

> <ConfTolerance>
0.262874 

> <RosettaParamsInstructions>
M  ROOT 3
M  POLY_N_BB 3
M  POLY_CA_BB 4
M  POLY_C_BB 2
M  POLY_O_BB 5
M  POLY_IGNORE 9 10 11 12 13 14 15 16 17 18 
M  POLY_UPPER 6
M  POLY_LOWER 8
M  POLY_CHG 0
M  POLY_PROPERTIES ALPHA_AA L_AA PROTEIN AROMATIC POLYMER 
M  END

$$$$



 32 32  0  0  0  0  0  0  0  0999 V2000
   -1.9899    1.5943   -0.3088 H   0  0  0  1  0  0  0  0  0  0  0  0
   -1.4946    0.1699    1.1518 C   0  0  0  1  0  0  0  0  0  0  0  0
   -3.5324    1.5750    1.0613 N   0  0  0  1  0  0  0  0  0  0  0  0
   -2.1001    1.5027    0.7516 C   0  0  0  1  0  0  0  0  0  0  0  0
   -0.2752    0.0153    1.1997 O   0  0  0  1  0  0  0  0  0  0  0  0
   -2.3539   -0.7827    1.5295 N   0  0  0  1  0  0  0  0  0  0  0  0
   -3.8305    1.3682    1.9716 H   0  0  0  1  0  0  0  0  0  0  0  0
   -4.4444    1.9131    0.1454 C   0  0  0  1  0  0  0  0  0  0  0  0
   -1.9172   -2.1188    1.9060 C   0  0  0  1  0  0  0  0  0  0  0  0
   -5.8825    1.9372    0.6254 C   0  0  0  1  0  0  0  0  0  0  0  0
   -4.1549    2.1904   -1.0178 O   0  0  0  1  0  0  0  0  0  0  0  0
   -3.3111   -0.5736    1.5535 H   0  0  0  1  0  0  0  0  0  0  0  0
   -2.4955   -2.4623    2.7382 H   0  0  0  1  0  0  0  0  0  0  0  0
   -0.8826   -2.0922    2.1777 H   0  0  0  1  0  0  0  0  0  0  0  0
   -2.0523   -2.7842    1.0791 H   0  0  0  1  0  0  0  0  0  0  0  0
   -6.5182    1.5249   -0.1301 H   0  0  0  1  0  0  0  0  0  0  0  0
   -6.1748    2.9470    0.8250 H   0  0  0  1  0  0  0  0  0  0  0  0
   -5.9694    1.3568    1.5201 H   0  0  0  1  0  0  0  0  0  0  0  0
   -4.4293    8.0064    0.4488 Br  0  0  0  1  0  0  0  0  0  0  0  0
   -3.4402    6.4147    0.6945 C   0  0  0  1  0  0  0  0  0  0  0  0
   -2.9381    6.1009    1.9479 C   0  0  0  1  0  0  0  0  0  0  0  0
   -2.2824    4.9010    2.1493 C   0  0  0  1  0  0  0  0  0  0  0  0
   -2.1315    4.0091    1.0990 C   0  0  0  1  0  0  0  0  0  0  0  0
   -2.6320    4.3218   -0.1508 C   0  0  0  1  0  0  0  0  0  0  0  0
   -3.2897    5.5252   -0.3526 C   0  0  0  1  0  0  0  0  0  0  0  0
   -1.4121    2.7100    1.3751 C   0  0  0  1  0  0  0  0  0  0  0  0
   -3.0549    6.7683    2.7368 H   0  0  0  1  0  0  0  0  0  0  0  0
   -1.9022    4.6674    3.0887 H   0  0  0  1  0  0  0  0  0  0  0  0
   -2.5152    3.6543   -0.9397 H   0  0  0  1  0  0  0  0  0  0  0  0
   -3.6699    5.7589   -1.2920 H   0  0  0  1  0  0  0  0  0  0  0  0
   -0.4204    2.7790    0.9792 H   0  0  0  1  0  0  0  0  0  0  0  0
   -1.3645    2.5655    2.4343 H   0  0  0  1  0  0  0  0  0  0  0  0
  1  4  1  0  0  0  0
  2  4  1  0  0  0  0
  2  5  2  0  0  0  0
  2  6  1  0  0  0  0
  3  4  1  0  0  0  0
  3  7  1  0  0  0  0
  3  8  1  0  0  0  0
  4 26  1  0  0  0  0
  6  9  1  0  0  0  0
  6 12  1  0  0  0  0
  8 10  1  0  0  0  0
  8 11  2  0  0  0  0
  9 13  1  0  0  0  0
  9 14  1  0  0  0  0
  9 15  1  0  0  0  0
 10 16  1  0  0  0  0
 10 17  1  0  0  0  0
 10 18  1  0  0  0  0
 19 20  1  0  0  0  0
 20 21  4  0  0  0  0
 20 25  4  0  0  0  0
 21 22  4  0  0  0  0
 21 27  1  0  0  0  0
 22 23  4  0  0  0  0
 22 28  1  0  0  0  0
 23 24  4  0  0  0  0
 23 26  1  0  0  0  0
 24 25  4  0  0  0  0
 24 29  1  0  0  0  0
 25 30  1  0  0  0  0
 26 31  1  0  0  0  0
 26 32  1  0  0  0  0
M  END
> <BCLConfClusterSize>
1

> <ConfClashScore>
0 

> <ConfOneFourInteractionScore>
-0.946346 

> <ConfScore>
0.176308 

> <ConfScorePBest>
0.00327691 

> <ConfTolerance>
0.571404 

> <RosettaParamsInstructions>
M  ROOT 3
M  POLY_N_BB 3
M  POLY_CA_BB 4
M  POLY_C_BB 2
M  POLY_O_BB 5
M  POLY_IGNORE 9 10 11 12 13 14 15 16 17 18 
M  POLY_UPPER 6
M  POLY_LOWER 8
M  POLY_CHG 0
M  POLY_PROPERTIES ALPHA_AA L_AA PROTEIN AROMATIC POLYMER 
M  END

$$$$



 32 32  0  0  0  0  0  0  0  0999 V2000
   -2.2229    1.7149    3.0427 H   0  0  0  1  0  0  0  0  0  0  0  0
   -3.7605    1.9006    1.5864 C   0  0  0  1  0  0  0  0  0  0  0  0
   -1.8957    0.3114    1.5518 N   0  0  0  1  0  0  0  0  0  0  0  0
   -2.3107    1.6350    1.9793 C   0  0  0  1  0  0  0  0  0  0  0  0
   -4.4149    2.7708    2.1586 O   0  0  0  1  0  0  0  0  0  0  0  0
   -4.1968    1.1869    0.5446 N   0  0  0  1  0  0  0  0  0  0  0  0
   -1.1802    0.2317    0.8869 H   0  0  0  1  0  0  0  0  0  0  0  0
   -2.4608   -0.8131    2.0381 C   0  0  0  1  0  0  0  0  0  0  0  0
   -5.5478    1.3223    0.0206 C   0  0  0  1  0  0  0  0  0  0  0  0
   -2.1745   -2.1169    1.3279 C   0  0  0  1  0  0  0  0  0  0  0  0
   -3.1866   -0.7814    3.0283 O   0  0  0  1  0  0  0  0  0  0  0  0
   -3.5859    0.5501    0.1184 H   0  0  0  1  0  0  0  0  0  0  0  0
   -5.5300    1.2183   -1.0442 H   0  0  0  1  0  0  0  0  0  0  0  0
   -5.9350    2.2860    0.2782 H   0  0  0  1  0  0  0  0  0  0  0  0
   -6.1716    0.5623    0.4426 H   0  0  0  1  0  0  0  0  0  0  0  0
   -3.0358   -2.7495    1.3818 H   0  0  0  1  0  0  0  0  0  0  0  0
   -1.3450   -2.6035    1.7969 H   0  0  0  1  0  0  0  0  0  0  0  0
   -1.9402   -1.9203    0.3026 H   0  0  0  1  0  0  0  0  0  0  0  0
   -4.4301    8.0052    0.4437 Br  0  0  0  1  0  0  0  0  0  0  0  0
   -3.4402    6.4149    0.6951 C   0  0  0  1  0  0  0  0  0  0  0  0
   -2.9395    6.1049    1.9500 C   0  0  0  1  0  0  0  0  0  0  0  0
   -2.2831    4.9061    2.1555 C   0  0  0  1  0  0  0  0  0  0  0  0
   -2.1302    4.0114    1.1079 C   0  0  0  1  0  0  0  0  0  0  0  0
   -2.6293    4.3203   -0.1435 C   0  0  0  1  0  0  0  0  0  0  0  0
   -3.2876    5.5227   -0.3494 C   0  0  0  1  0  0  0  0  0  0  0  0
   -1.4180    2.6985    1.3331 C   0  0  0  1  0  0  0  0  0  0  0  0
   -3.0578    6.7744    2.7369 H   0  0  0  1  0  0  0  0  0  0  0  0
   -1.9040    4.6754    3.0960 H   0  0  0  1  0  0  0  0  0  0  0  0
   -2.5109    3.6507   -0.9304 H   0  0  0  1  0  0  0  0  0  0  0  0
   -3.6667    5.7534   -1.2900 H   0  0  0  1  0  0  0  0  0  0  0  0
   -1.0776    2.3292    0.3883 H   0  0  0  1  0  0  0  0  0  0  0  0
   -0.5778    2.8722    1.9724 H   0  0  0  1  0  0  0  0  0  0  0  0
  1  4  1  0  0  0  0
  2  4  1  0  0  0  0
  2  5  2  0  0  0  0
  2  6  1  0  0  0  0
  3  4  1  0  0  0  0
  3  7  1  0  0  0  0
  3  8  1  0  0  0  0
  4 26  1  0  0  0  0
  6  9  1  0  0  0  0
  6 12  1  0  0  0  0
  8 10  1  0  0  0  0
  8 11  2  0  0  0  0
  9 13  1  0  0  0  0
  9 14  1  0  0  0  0
  9 15  1  0  0  0  0
 10 16  1  0  0  0  0
 10 17  1  0  0  0  0
 10 18  1  0  0  0  0
 19 20  1  0  0  0  0
 20 21  4  0  0  0  0
 20 25  4  0  0  0  0
 21 22  4  0  0  0  0
 21 27  1  0  0  0  0
 22 23  4  0  0  0  0
 22 28  1  0  0  0  0
 23 24  4  0  0  0  0
 23 26  1  0  0  0  0
 24 25  4  0  0  0  0
 24 29  1  0  0  0  0
 25 30  1  0  0  0  0
 26 31  1  0  0  0  0
 26 32  1  0  0  0  0
M  END
> <BCLConfClusterSize>
1

> <ConfClashScore>
0 

> <ConfOneFourInteractionScore>
-0.942345 

> <ConfScore>
0.176902 

> <ConfScorePBest>
0.00324843 

> <ConfTolerance>
0.840082 

> <RosettaParamsInstructions>
M  ROOT 3
M  POLY_N_BB 3
M  POLY_CA_BB 4
M  POLY_C_BB 2
M  POLY_O_BB 5
M  POLY_IGNORE 9 10 11 12 13 14 15 16 17 18 
M  POLY_UPPER 6
M  POLY_LOWER 8
M  POLY_CHG 0
M  POLY_PROPERTIES ALPHA_AA L_AA PROTEIN AROMATIC POLYMER 
M  END

$$$$



 32 32  0  0  0  0  0  0  0  0999 V2000
   -2.7605    1.9440    2.7896 H   0  0  0  1  0  0  0  0  0  0  0  0
   -3.4805    1.3822    0.8862 C   0  0  0  1  0  0  0  0  0  0  0  0
   -1.5637    0.3967    2.1269 N   0  0  0  1  0  0  0  0  0  0  0  0
   -2.3409    1.5995    1.8676 C   0  0  0  1  0  0  0  0  0  0  0  0
   -3.5186    0.3843    0.1685 O   0  0  0  1  0  0  0  0  0  0  0  0
   -4.4684    2.2831    0.9154 N   0  0  0  1  0  0  0  0  0  0  0  0
   -1.5070   -0.2893    1.4294 H   0  0  0  1  0  0  0  0  0  0  0  0
   -0.9249    0.1952    3.2829 C   0  0  0  1  0  0  0  0  0  0  0  0
   -5.5288    2.3066   -0.0811 C   0  0  0  1  0  0  0  0  0  0  0  0
   -0.2829   -1.1749    3.4706 C   0  0  0  1  0  0  0  0  0  0  0  0
   -0.8124    1.0112    4.1967 O   0  0  0  1  0  0  0  0  0  0  0  0
   -4.4786    2.9508    1.6327 H   0  0  0  1  0  0  0  0  0  0  0  0
   -6.4504    2.5870    0.3846 H   0  0  0  1  0  0  0  0  0  0  0  0
   -5.6307    1.3343   -0.5161 H   0  0  0  1  0  0  0  0  0  0  0  0
   -5.2850    3.0157   -0.8444 H   0  0  0  1  0  0  0  0  0  0  0  0
    0.7522   -1.1238    3.2042 H   0  0  0  1  0  0  0  0  0  0  0  0
   -0.7771   -1.8887    2.8453 H   0  0  0  1  0  0  0  0  0  0  0  0
   -0.3731   -1.4735    4.4941 H   0  0  0  1  0  0  0  0  0  0  0  0
   -4.4301    8.0052    0.4437 Br  0  0  0  1  0  0  0  0  0  0  0  0
   -3.4402    6.4149    0.6951 C   0  0  0  1  0  0  0  0  0  0  0  0
   -2.9395    6.1049    1.9500 C   0  0  0  1  0  0  0  0  0  0  0  0
   -2.2831    4.9061    2.1555 C   0  0  0  1  0  0  0  0  0  0  0  0
   -2.1302    4.0114    1.1079 C   0  0  0  1  0  0  0  0  0  0  0  0
   -2.6293    4.3203   -0.1435 C   0  0  0  1  0  0  0  0  0  0  0  0
   -3.2876    5.5227   -0.3494 C   0  0  0  1  0  0  0  0  0  0  0  0
   -1.4180    2.6985    1.3331 C   0  0  0  1  0  0  0  0  0  0  0  0
   -3.0578    6.7744    2.7369 H   0  0  0  1  0  0  0  0  0  0  0  0
   -1.9040    4.6754    3.0960 H   0  0  0  1  0  0  0  0  0  0  0  0
   -2.5109    3.6507   -0.9304 H   0  0  0  1  0  0  0  0  0  0  0  0
   -3.6667    5.7534   -1.2900 H   0  0  0  1  0  0  0  0  0  0  0  0
   -1.0031    2.3721    0.4024 H   0  0  0  1  0  0  0  0  0  0  0  0
   -0.6302    2.8553    2.0400 H   0  0  0  1  0  0  0  0  0  0  0  0
  1  4  1  0  0  0  0
  2  4  1  0  0  0  0
  2  5  2  0  0  0  0
  2  6  1  0  0  0  0
  3  4  1  0  0  0  0
  3  7  1  0  0  0  0
  3  8  1  0  0  0  0
  4 26  1  0  0  0  0
  6  9  1  0  0  0  0
  6 12  1  0  0  0  0
  8 10  1  0  0  0  0
  8 11  2  0  0  0  0
  9 13  1  0  0  0  0
  9 14  1  0  0  0  0
  9 15  1  0  0  0  0
 10 16  1  0  0  0  0
 10 17  1  0  0  0  0
 10 18  1  0  0  0  0
 19 20  1  0  0  0  0
 20 21  4  0  0  0  0
 20 25  4  0  0  0  0
 21 22  4  0  0  0  0
 21 27  1  0  0  0  0
 22 23  4  0  0  0  0
 22 28  1  0  0  0  0
 23 24  4  0  0  0  0
 23 26  1  0  0  0  0
 24 25  4  0  0  0  0
 24 29  1  0  0  0  0
 25 30  1  0  0  0  0
 26 31  1  0  0  0  0
 26 32  1  0  0  0  0
M  END
> <BCLConfClusterSize>
1

> <ConfClashScore>
0 

> <ConfOneFourInteractionScore>
-0.990503 

> <ConfScore>
0.181017 

> <ConfScorePBest>
0.00321995 

> <ConfTolerance>
0.644068 

> <RosettaParamsInstructions>
M  ROOT 3
M  POLY_N_BB 3
M  POLY_CA_BB 4
M  POLY_C_BB 2
M  POLY_O_BB 5
M  POLY_IGNORE 9 10 11 12 13 14 15 16 17 18 
M  POLY_UPPER 6
M  POLY_LOWER 8
M  POLY_CHG 0
M  POLY_PROPERTIES ALPHA_AA L_AA PROTEIN AROMATIC POLYMER 
M  END

$$$$



 32 32  0  0  0  0  0  0  0  0999 V2000
   -0.1097    3.3465    2.9050 H   0  0  0  1  0  0  0  0  0  0  0  0
    0.7484    1.6139    2.0052 C   0  0  0  1  0  0  0  0  0  0  0  0
    0.7593    3.9006    1.1051 N   0  0  0  1  0  0  0  0  0  0  0  0
    0.0121    2.9566    1.9161 C   0  0  0  1  0  0  0  0  0  0  0  0
    0.6836    0.8021    1.0836 O   0  0  0  1  0  0  0  0  0  0  0  0
    1.5061    1.4629    3.0967 N   0  0  0  1  0  0  0  0  0  0  0  0
    0.9612    3.6686    0.1746 H   0  0  0  1  0  0  0  0  0  0  0  0
    1.1845    5.0833    1.5866 C   0  0  0  1  0  0  0  0  0  0  0  0
    2.4713    0.3763    3.1716 C   0  0  0  1  0  0  0  0  0  0  0  0
    1.8686    6.0387    0.6283 C   0  0  0  1  0  0  0  0  0  0  0  0
    1.0241    5.3828    2.7690 O   0  0  0  1  0  0  0  0  0  0  0  0
    1.4112    2.0852    3.8477 H   0  0  0  1  0  0  0  0  0  0  0  0
    1.9613   -0.5407    3.3811 H   0  0  0  1  0  0  0  0  0  0  0  0
    3.1758    0.5784    3.9511 H   0  0  0  1  0  0  0  0  0  0  0  0
    2.9865    0.2922    2.2375 H   0  0  0  1  0  0  0  0  0  0  0  0
    1.9876    5.5653   -0.3239 H   0  0  0  1  0  0  0  0  0  0  0  0
    2.8295    6.3055    1.0162 H   0  0  0  1  0  0  0  0  0  0  0  0
    1.2715    6.9195    0.5162 H   0  0  0  1  0  0  0  0  0  0  0  0
   -4.4115    8.0150    0.4374 Br  0  0  0  1  0  0  0  0  0  0  0  0
   -3.4362    6.4166    0.6942 C   0  0  0  1  0  0  0  0  0  0  0  0
   -2.9412    6.1046    1.9508 C   0  0  0  1  0  0  0  0  0  0  0  0
   -2.2959    4.9005    2.1601 C   0  0  0  1  0  0  0  0  0  0  0  0
   -2.1483    4.0024    1.1146 C   0  0  0  1  0  0  0  0  0  0  0  0
   -2.6417    4.3133   -0.1385 C   0  0  0  1  0  0  0  0  0  0  0  0
   -3.2890    5.5210   -0.3483 C   0  0  0  1  0  0  0  0  0  0  0  0
   -1.3660    2.7252    1.3104 C   0  0  0  1  0  0  0  0  0  0  0  0
   -3.0554    6.7766    2.7362 H   0  0  0  1  0  0  0  0  0  0  0  0
   -1.9210    4.6682    3.1020 H   0  0  0  1  0  0  0  0  0  0  0  0
   -2.5275    3.6412   -0.9239 H   0  0  0  1  0  0  0  0  0  0  0  0
   -3.6639    5.7533   -1.2901 H   0  0  0  1  0  0  0  0  0  0  0  0
   -1.9207    2.0826    1.9617 H   0  0  0  1  0  0  0  0  0  0  0  0
   -1.2446    2.2510    0.3590 H   0  0  0  1  0  0  0  0  0  0  0  0
  1  4  1  0  0  0  0
  2  4  1  0  0  0  0
  2  5  2  0  0  0  0
  2  6  1  0  0  0  0
  3  4  1  0  0  0  0
  3  7  1  0  0  0  0
  3  8  1  0  0  0  0
  4 26  1  0  0  0  0
  6  9  1  0  0  0  0
  6 12  1  0  0  0  0
  8 10  1  0  0  0  0
  8 11  2  0  0  0  0
  9 13  1  0  0  0  0
  9 14  1  0  0  0  0
  9 15  1  0  0  0  0
 10 16  1  0  0  0  0
 10 17  1  0  0  0  0
 10 18  1  0  0  0  0
 19 20  1  0  0  0  0
 20 21  4  0  0  0  0
 20 25  4  0  0  0  0
 21 22  4  0  0  0  0
 21 27  1  0  0  0  0
 22 23  4  0  0  0  0
 22 28  1  0  0  0  0
 23 24  4  0  0  0  0
 23 26  1  0  0  0  0
 24 25  4  0  0  0  0
 24 29  1  0  0  0  0
 25 30  1  0  0  0  0
 26 31  1  0  0  0  0
 26 32  1  0  0  0  0
M  END
> <BCLConfClusterSize>
1

> <ConfClashScore>
0 

> <ConfOneFourInteractionScore>
-0.979134 

> <ConfScore>
0.182163 

> <ConfScorePBest>
0.00319147 

> <ConfTolerance>
0.720662 

> <RosettaParamsInstructions>
M  ROOT 3
M  POLY_N_BB 3
M  POLY_CA_BB 4
M  POLY_C_BB 2
M  POLY_O_BB 5
M  POLY_IGNORE 9 10 11 12 13 14 15 16 17 18 
M  POLY_UPPER 6
M  POLY_LOWER 8
M  POLY_CHG 0
M  POLY_PROPERTIES ALPHA_AA L_AA PROTEIN AROMATIC POLYMER 
M  END

$$$$



 32 32  0  0  0  0  0  0  0  0999 V2000
   -2.8943    1.2676    0.7971 H   0  0  0  1  0  0  0  0  0  0  0  0
   -1.4920    0.2947    2.0824 C   0  0  0  1  0  0  0  0  0  0  0  0
   -3.1955    1.8852    2.7591 N   0  0  0  1  0  0  0  0  0  0  0  0
   -2.3169    1.5179    1.6624 C   0  0  0  1  0  0  0  0  0  0  0  0
   -1.0739    0.2041    3.2356 O   0  0  0  1  0  0  0  0  0  0  0  0
   -1.3397   -0.6714    1.1704 N   0  0  0  1  0  0  0  0  0  0  0  0
   -4.1633    1.8995    2.6054 H   0  0  0  1  0  0  0  0  0  0  0  0
   -2.7155    2.2144    4.0086 C   0  0  0  1  0  0  0  0  0  0  0  0
   -0.6611   -1.9234    1.4701 C   0  0  0  1  0  0  0  0  0  0  0  0
   -3.7521    2.5177    5.0508 C   0  0  0  1  0  0  0  0  0  0  0  0
   -1.5166    2.2458    4.2127 O   0  0  0  1  0  0  0  0  0  0  0  0
   -1.6974   -0.5314    0.2688 H   0  0  0  1  0  0  0  0  0  0  0  0
   -1.0708   -2.3467    2.3634 H   0  0  0  1  0  0  0  0  0  0  0  0
    0.3834   -1.7382    1.6099 H   0  0  0  1  0  0  0  0  0  0  0  0
   -0.7972   -2.6060    0.6574 H   0  0  0  1  0  0  0  0  0  0  0  0
   -4.3342    1.6403    5.2415 H   0  0  0  1  0  0  0  0  0  0  0  0
   -4.3917    3.3005    4.7001 H   0  0  0  1  0  0  0  0  0  0  0  0
   -3.2694    2.8284    5.9537 H   0  0  0  1  0  0  0  0  0  0  0  0
   -4.4301    8.0052    0.4437 Br  0  0  0  1  0  0  0  0  0  0  0  0
   -3.4402    6.4149    0.6951 C   0  0  0  1  0  0  0  0  0  0  0  0
   -2.9395    6.1049    1.9500 C   0  0  0  1  0  0  0  0  0  0  0  0
   -2.2831    4.9061    2.1555 C   0  0  0  1  0  0  0  0  0  0  0  0
   -2.1302    4.0114    1.1079 C   0  0  0  1  0  0  0  0  0  0  0  0
   -2.6293    4.3203   -0.1435 C   0  0  0  1  0  0  0  0  0  0  0  0
   -3.2876    5.5227   -0.3494 C   0  0  0  1  0  0  0  0  0  0  0  0
   -1.4180    2.6985    1.3331 C   0  0  0  1  0  0  0  0  0  0  0  0
   -3.0578    6.7744    2.7369 H   0  0  0  1  0  0  0  0  0  0  0  0
   -1.9040    4.6754    3.0960 H   0  0  0  1  0  0  0  0  0  0  0  0
   -2.5109    3.6507   -0.9304 H   0  0  0  1  0  0  0  0  0  0  0  0
   -3.6667    5.7534   -1.2900 H   0  0  0  1  0  0  0  0  0  0  0  0
   -0.8741    2.4610    0.4428 H   0  0  0  1  0  0  0  0  0  0  0  0
   -0.7339    2.8292    2.1454 H   0  0  0  1  0  0  0  0  0  0  0  0
  1  4  1  0  0  0  0
  2  4  1  0  0  0  0
  2  5  2  0  0  0  0
  2  6  1  0  0  0  0
  3  4  1  0  0  0  0
  3  7  1  0  0  0  0
  3  8  1  0  0  0  0
  4 26  1  0  0  0  0
  6  9  1  0  0  0  0
  6 12  1  0  0  0  0
  8 10  1  0  0  0  0
  8 11  2  0  0  0  0
  9 13  1  0  0  0  0
  9 14  1  0  0  0  0
  9 15  1  0  0  0  0
 10 16  1  0  0  0  0
 10 17  1  0  0  0  0
 10 18  1  0  0  0  0
 19 20  1  0  0  0  0
 20 21  4  0  0  0  0
 20 25  4  0  0  0  0
 21 22  4  0  0  0  0
 21 27  1  0  0  0  0
 22 23  4  0  0  0  0
 22 28  1  0  0  0  0
 23 24  4  0  0  0  0
 23 26  1  0  0  0  0
 24 25  4  0  0  0  0
 24 29  1  0  0  0  0
 25 30  1  0  0  0  0
 26 31  1  0  0  0  0
 26 32  1  0  0  0  0
M  END
> <BCLConfClusterSize>
1

> <ConfClashScore>
0 

> <ConfOneFourInteractionScore>
-0.984592 

> <ConfScore>
0.188772 

> <ConfScorePBest>
0.00316299 

> <ConfTolerance>
0.335499 

> <RosettaParamsInstructions>
M  ROOT 3
M  POLY_N_BB 3
M  POLY_CA_BB 4
M  POLY_C_BB 2
M  POLY_O_BB 5
M  POLY_IGNORE 9 10 11 12 13 14 15 16 17 18 
M  POLY_UPPER 6
M  POLY_LOWER 8
M  POLY_CHG 0
M  POLY_PROPERTIES ALPHA_AA L_AA PROTEIN AROMATIC POLYMER 
M  END

$$$$



 32 32  0  0  0  0  0  0  0  0999 V2000
   -2.8313    1.2624    0.7567 H   0  0  0  1  0  0  0  0  0  0  0  0
   -1.5042    0.2823    2.0682 C   0  0  0  1  0  0  0  0  0  0  0  0
   -3.3238    1.8433    2.6637 N   0  0  0  1  0  0  0  0  0  0  0  0
   -2.3171    1.5173    1.6598 C   0  0  0  1  0  0  0  0  0  0  0  0
   -1.7899   -0.3263    3.0982 O   0  0  0  1  0  0  0  0  0  0  0  0
   -0.5575   -0.1249    1.2160 N   0  0  0  1  0  0  0  0  0  0  0  0
   -3.1714    2.6100    3.2547 H   0  0  0  1  0  0  0  0  0  0  0  0
   -4.4575    1.1260    2.8068 C   0  0  0  1  0  0  0  0  0  0  0  0
    0.2012   -1.3360    1.4908 C   0  0  0  1  0  0  0  0  0  0  0  0
   -5.4735    1.5953    3.8299 C   0  0  0  1  0  0  0  0  0  0  0  0
   -4.6633    0.1205    2.1285 O   0  0  0  1  0  0  0  0  0  0  0  0
   -0.3743    0.3933    0.4046 H   0  0  0  1  0  0  0  0  0  0  0  0
    0.1623   -1.9828    0.6393 H   0  0  0  1  0  0  0  0  0  0  0  0
   -0.2201   -1.8360    2.3378 H   0  0  0  1  0  0  0  0  0  0  0  0
    1.2193   -1.0796    1.6974 H   0  0  0  1  0  0  0  0  0  0  0  0
   -5.0116    1.6484    4.7936 H   0  0  0  1  0  0  0  0  0  0  0  0
   -6.2903    0.9049    3.8637 H   0  0  0  1  0  0  0  0  0  0  0  0
   -5.8356    2.5638    3.5544 H   0  0  0  1  0  0  0  0  0  0  0  0
   -4.4301    8.0052    0.4437 Br  0  0  0  1  0  0  0  0  0  0  0  0
   -3.4402    6.4149    0.6951 C   0  0  0  1  0  0  0  0  0  0  0  0
   -2.9395    6.1049    1.9500 C   0  0  0  1  0  0  0  0  0  0  0  0
   -2.2831    4.9061    2.1555 C   0  0  0  1  0  0  0  0  0  0  0  0
   -2.1302    4.0114    1.1079 C   0  0  0  1  0  0  0  0  0  0  0  0
   -2.6293    4.3203   -0.1435 C   0  0  0  1  0  0  0  0  0  0  0  0
   -3.2876    5.5227   -0.3494 C   0  0  0  1  0  0  0  0  0  0  0  0
   -1.4180    2.6985    1.3331 C   0  0  0  1  0  0  0  0  0  0  0  0
   -3.0578    6.7744    2.7369 H   0  0  0  1  0  0  0  0  0  0  0  0
   -1.9040    4.6754    3.0960 H   0  0  0  1  0  0  0  0  0  0  0  0
   -2.5109    3.6507   -0.9304 H   0  0  0  1  0  0  0  0  0  0  0  0
   -3.6667    5.7534   -1.2900 H   0  0  0  1  0  0  0  0  0  0  0  0
   -0.8725    2.4620    0.4435 H   0  0  0  1  0  0  0  0  0  0  0  0
   -0.7354    2.8287    2.1467 H   0  0  0  1  0  0  0  0  0  0  0  0
  1  4  1  0  0  0  0
  2  4  1  0  0  0  0
  2  5  2  0  0  0  0
  2  6  1  0  0  0  0
  3  4  1  0  0  0  0
  3  7  1  0  0  0  0
  3  8  1  0  0  0  0
  4 26  1  0  0  0  0
  6  9  1  0  0  0  0
  6 12  1  0  0  0  0
  8 10  1  0  0  0  0
  8 11  2  0  0  0  0
  9 13  1  0  0  0  0
  9 14  1  0  0  0  0
  9 15  1  0  0  0  0
 10 16  1  0  0  0  0
 10 17  1  0  0  0  0
 10 18  1  0  0  0  0
 19 20  1  0  0  0  0
 20 21  4  0  0  0  0
 20 25  4  0  0  0  0
 21 22  4  0  0  0  0
 21 27  1  0  0  0  0
 22 23  4  0  0  0  0
 22 28  1  0  0  0  0
 23 24  4  0  0  0  0
 23 26  1  0  0  0  0
 24 25  4  0  0  0  0
 24 29  1  0  0  0  0
 25 30  1  0  0  0  0
 26 31  1  0  0  0  0
 26 32  1  0  0  0  0
M  END
> <BCLConfClusterSize>
1

> <ConfClashScore>
0 

> <ConfOneFourInteractionScore>
-0.987695 

> <ConfScore>
0.192578 

> <ConfScorePBest>
0.00313451 

> <ConfTolerance>
0.588042 

> <RosettaParamsInstructions>
M  ROOT 3
M  POLY_N_BB 3
M  POLY_CA_BB 4
M  POLY_C_BB 2
M  POLY_O_BB 5
M  POLY_IGNORE 9 10 11 12 13 14 15 16 17 18 
M  POLY_UPPER 6
M  POLY_LOWER 8
M  POLY_CHG 0
M  POLY_PROPERTIES ALPHA_AA L_AA PROTEIN AROMATIC POLYMER 
M  END

$$$$



 32 32  0  0  0  0  0  0  0  0999 V2000
    0.5526    1.9313    1.3114 H   0  0  0  1  0  0  0  0  0  0  0  0
    0.2906    2.8801   -0.5520 C   0  0  0  1  0  0  0  0  0  0  0  0
    0.6789    3.9710    1.5732 N   0  0  0  1  0  0  0  0  0  0  0  0
    0.0606    2.8102    0.9502 C   0  0  0  1  0  0  0  0  0  0  0  0
   -0.3287    2.1275   -1.3024 O   0  0  0  1  0  0  0  0  0  0  0  0
    1.1131    3.8384   -0.9918 N   0  0  0  1  0  0  0  0  0  0  0  0
    0.7774    4.7929    1.0487 H   0  0  0  1  0  0  0  0  0  0  0  0
    1.1167    3.9551    2.8354 C   0  0  0  1  0  0  0  0  0  0  0  0
    1.2611    4.2350   -2.3842 C   0  0  0  1  0  0  0  0  0  0  0  0
    1.8489    5.2011    3.3345 C   0  0  0  1  0  0  0  0  0  0  0  0
    1.0213    2.9698    3.5485 O   0  0  0  1  0  0  0  0  0  0  0  0
    1.6571    4.3092   -0.3263 H   0  0  0  1  0  0  0  0  0  0  0  0
    2.0031    5.0022   -2.4601 H   0  0  0  1  0  0  0  0  0  0  0  0
    0.3266    4.6054   -2.7506 H   0  0  0  1  0  0  0  0  0  0  0  0
    1.5626    3.3888   -2.9656 H   0  0  0  1  0  0  0  0  0  0  0  0
    1.1855    6.0401    3.3073 H   0  0  0  1  0  0  0  0  0  0  0  0
    2.6934    5.3938    2.7063 H   0  0  0  1  0  0  0  0  0  0  0  0
    2.1803    5.0412    4.3393 H   0  0  0  1  0  0  0  0  0  0  0  0
   -4.4301    8.0052    0.4437 Br  0  0  0  1  0  0  0  0  0  0  0  0
   -3.4402    6.4149    0.6951 C   0  0  0  1  0  0  0  0  0  0  0  0
   -2.9395    6.1049    1.9500 C   0  0  0  1  0  0  0  0  0  0  0  0
   -2.2831    4.9061    2.1555 C   0  0  0  1  0  0  0  0  0  0  0  0
   -2.1302    4.0114    1.1079 C   0  0  0  1  0  0  0  0  0  0  0  0
   -2.6293    4.3203   -0.1435 C   0  0  0  1  0  0  0  0  0  0  0  0
   -3.2876    5.5227   -0.3494 C   0  0  0  1  0  0  0  0  0  0  0  0
   -1.4180    2.6985    1.3331 C   0  0  0  1  0  0  0  0  0  0  0  0
   -3.0578    6.7744    2.7369 H   0  0  0  1  0  0  0  0  0  0  0  0
   -1.9040    4.6754    3.0960 H   0  0  0  1  0  0  0  0  0  0  0  0
   -2.5109    3.6507   -0.9304 H   0  0  0  1  0  0  0  0  0  0  0  0
   -3.6667    5.7534   -1.2900 H   0  0  0  1  0  0  0  0  0  0  0  0
   -1.4936    2.4312    2.3664 H   0  0  0  1  0  0  0  0  0  0  0  0
   -1.8795    1.9418    0.7337 H   0  0  0  1  0  0  0  0  0  0  0  0
  1  4  1  0  0  0  0
  2  4  1  0  0  0  0
  2  5  2  0  0  0  0
  2  6  1  0  0  0  0
  3  4  1  0  0  0  0
  3  7  1  0  0  0  0
  3  8  1  0  0  0  0
  4 26  1  0  0  0  0
  6  9  1  0  0  0  0
  6 12  1  0  0  0  0
  8 10  1  0  0  0  0
  8 11  2  0  0  0  0
  9 13  1  0  0  0  0
  9 14  1  0  0  0  0
  9 15  1  0  0  0  0
 10 16  1  0  0  0  0
 10 17  1  0  0  0  0
 10 18  1  0  0  0  0
 19 20  1  0  0  0  0
 20 21  4  0  0  0  0
 20 25  4  0  0  0  0
 21 22  4  0  0  0  0
 21 27  1  0  0  0  0
 22 23  4  0  0  0  0
 22 28  1  0  0  0  0
 23 24  4  0  0  0  0
 23 26  1  0  0  0  0
 24 25  4  0  0  0  0
 24 29  1  0  0  0  0
 25 30  1  0  0  0  0
 26 31  1  0  0  0  0
 26 32  1  0  0  0  0
M  END
> <BCLConfClusterSize>
1

> <ConfClashScore>
0 

> <ConfOneFourInteractionScore>
-0.932585 

> <ConfScore>
0.200302 

> <ConfScorePBest>
0.00310603 

> <ConfTolerance>
0.413961 

> <RosettaParamsInstructions>
M  ROOT 3
M  POLY_N_BB 3
M  POLY_CA_BB 4
M  POLY_C_BB 2
M  POLY_O_BB 5
M  POLY_IGNORE 9 10 11 12 13 14 15 16 17 18 
M  POLY_UPPER 6
M  POLY_LOWER 8
M  POLY_CHG 0
M  POLY_PROPERTIES ALPHA_AA L_AA PROTEIN AROMATIC POLYMER 
M  END

$$$$



 32 32  0  0  0  0  0  0  0  0999 V2000
    0.1169    1.8090    2.5296 H   0  0  0  1  0  0  0  0  0  0  0  0
    0.3229    3.9273    2.6739 C   0  0  0  1  0  0  0  0  0  0  0  0
   -1.4266    2.5560    3.7131 N   0  0  0  1  0  0  0  0  0  0  0  0
   -0.5256    2.6634    2.5753 C   0  0  0  1  0  0  0  0  0  0  0  0
    1.0623    4.2690    1.7522 O   0  0  0  1  0  0  0  0  0  0  0  0
    0.1476    4.6772    3.7711 N   0  0  0  1  0  0  0  0  0  0  0  0
   -2.3417    2.8957    3.6255 H   0  0  0  1  0  0  0  0  0  0  0  0
   -1.0496    2.0104    4.8730 C   0  0  0  1  0  0  0  0  0  0  0  0
    0.8001    5.9651    3.9441 C   0  0  0  1  0  0  0  0  0  0  0  0
   -2.0507    2.1030    5.9963 C   0  0  0  1  0  0  0  0  0  0  0  0
    0.0388    1.4643    5.0326 O   0  0  0  1  0  0  0  0  0  0  0  0
   -0.4408    4.3459    4.4813 H   0  0  0  1  0  0  0  0  0  0  0  0
    1.1397    6.3238    2.9950 H   0  0  0  1  0  0  0  0  0  0  0  0
    1.6357    5.8556    4.6035 H   0  0  0  1  0  0  0  0  0  0  0  0
    0.1051    6.6636    4.3612 H   0  0  0  1  0  0  0  0  0  0  0  0
   -2.5564    3.0446    5.9474 H   0  0  0  1  0  0  0  0  0  0  0  0
   -1.5427    2.0195    6.9343 H   0  0  0  1  0  0  0  0  0  0  0  0
   -2.7637    1.3104    5.9045 H   0  0  0  1  0  0  0  0  0  0  0  0
   -4.4115    8.0150    0.4374 Br  0  0  0  1  0  0  0  0  0  0  0  0
   -3.4362    6.4166    0.6942 C   0  0  0  1  0  0  0  0  0  0  0  0
   -2.9412    6.1046    1.9508 C   0  0  0  1  0  0  0  0  0  0  0  0
   -2.2959    4.9005    2.1601 C   0  0  0  1  0  0  0  0  0  0  0  0
   -2.1483    4.0024    1.1146 C   0  0  0  1  0  0  0  0  0  0  0  0
   -2.6417    4.3133   -0.1385 C   0  0  0  1  0  0  0  0  0  0  0  0
   -3.2890    5.5210   -0.3483 C   0  0  0  1  0  0  0  0  0  0  0  0
   -1.3660    2.7252    1.3104 C   0  0  0  1  0  0  0  0  0  0  0  0
   -3.0554    6.7766    2.7362 H   0  0  0  1  0  0  0  0  0  0  0  0
   -1.9210    4.6682    3.1020 H   0  0  0  1  0  0  0  0  0  0  0  0
   -2.5275    3.6412   -0.9239 H   0  0  0  1  0  0  0  0  0  0  0  0
   -3.6639    5.7533   -1.2901 H   0  0  0  1  0  0  0  0  0  0  0  0
   -2.0618    1.9127    1.3363 H   0  0  0  1  0  0  0  0  0  0  0  0
   -0.7108    2.6078    0.4727 H   0  0  0  1  0  0  0  0  0  0  0  0
  1  4  1  0  0  0  0
  2  4  1  0  0  0  0
  2  5  2  0  0  0  0
  2  6  1  0  0  0  0
  3  4  1  0  0  0  0
  3  7  1  0  0  0  0
  3  8  1  0  0  0  0
  4 26  1  0  0  0  0
  6  9  1  0  0  0  0
  6 12  1  0  0  0  0
  8 10  1  0  0  0  0
  8 11  2  0  0  0  0
  9 13  1  0  0  0  0
  9 14  1  0  0  0  0
  9 15  1  0  0  0  0
 10 16  1  0  0  0  0
 10 17  1  0  0  0  0
 10 18  1  0  0  0  0
 19 20  1  0  0  0  0
 20 21  4  0  0  0  0
 20 25  4  0  0  0  0
 21 22  4  0  0  0  0
 21 27  1  0  0  0  0
 22 23  4  0  0  0  0
 22 28  1  0  0  0  0
 23 24  4  0  0  0  0
 23 26  1  0  0  0  0
 24 25  4  0  0  0  0
 24 29  1  0  0  0  0
 25 30  1  0  0  0  0
 26 31  1  0  0  0  0
 26 32  1  0  0  0  0
M  END
> <BCLConfClusterSize>
1

> <ConfClashScore>
0 

> <ConfOneFourInteractionScore>
-0.949633 

> <ConfScore>
0.201872 

> <ConfScorePBest>
0.00307755 

> <ConfTolerance>
0.683428 

> <RosettaParamsInstructions>
M  ROOT 3
M  POLY_N_BB 3
M  POLY_CA_BB 4
M  POLY_C_BB 2
M  POLY_O_BB 5
M  POLY_IGNORE 9 10 11 12 13 14 15 16 17 18 
M  POLY_UPPER 6
M  POLY_LOWER 8
M  POLY_CHG 0
M  POLY_PROPERTIES ALPHA_AA L_AA PROTEIN AROMATIC POLYMER 
M  END

$$$$



 32 32  0  0  0  0  0  0  0  0999 V2000
   -2.0425    0.8981    2.2982 H   0  0  0  1  0  0  0  0  0  0  0  0
   -0.8426    1.9651    3.6625 C   0  0  0  1  0  0  0  0  0  0  0  0
   -3.2000    2.4004    3.0776 N   0  0  0  1  0  0  0  0  0  0  0  0
   -1.9208    1.9252    2.5721 C   0  0  0  1  0  0  0  0  0  0  0  0
    0.0681    1.1384    3.6543 O   0  0  0  1  0  0  0  0  0  0  0  0
   -0.9070    2.9748    4.5370 N   0  0  0  1  0  0  0  0  0  0  0  0
   -3.6683    3.0840    2.5543 H   0  0  0  1  0  0  0  0  0  0  0  0
   -3.7841    1.9749    4.2013 C   0  0  0  1  0  0  0  0  0  0  0  0
    0.0148    3.0933    5.6568 C   0  0  0  1  0  0  0  0  0  0  0  0
   -4.9891    2.7837    4.6688 C   0  0  0  1  0  0  0  0  0  0  0  0
   -3.3892    0.9953    4.8321 O   0  0  0  1  0  0  0  0  0  0  0  0
   -1.5991    3.6586    4.4197 H   0  0  0  1  0  0  0  0  0  0  0  0
   -0.0332    2.2069    6.2543 H   0  0  0  1  0  0  0  0  0  0  0  0
   -0.2553    3.9399    6.2528 H   0  0  0  1  0  0  0  0  0  0  0  0
    1.0108    3.2201    5.2867 H   0  0  0  1  0  0  0  0  0  0  0  0
   -5.6750    2.9046    3.8565 H   0  0  0  1  0  0  0  0  0  0  0  0
   -4.6635    3.7454    5.0065 H   0  0  0  1  0  0  0  0  0  0  0  0
   -5.4744    2.2688    5.4714 H   0  0  0  1  0  0  0  0  0  0  0  0
   -4.4494    7.9934    0.4454 Br  0  0  0  1  0  0  0  0  0  0  0  0
   -3.4439    6.4129    0.6966 C   0  0  0  1  0  0  0  0  0  0  0  0
   -2.9388    6.1084    1.9511 C   0  0  0  1  0  0  0  0  0  0  0  0
   -2.2707    4.9161    2.1565 C   0  0  0  1  0  0  0  0  0  0  0  0
   -2.1103    4.0223    1.1093 C   0  0  0  1  0  0  0  0  0  0  0  0
   -2.6139    4.3256   -0.1416 C   0  0  0  1  0  0  0  0  0  0  0  0
   -3.2840    5.5215   -0.3475 C   0  0  0  1  0  0  0  0  0  0  0  0
   -1.4790    2.6659    1.3166 C   0  0  0  1  0  0  0  0  0  0  0  0
   -3.0627    6.7773    2.7378 H   0  0  0  1  0  0  0  0  0  0  0  0
   -1.8883    4.6896    3.0968 H   0  0  0  1  0  0  0  0  0  0  0  0
   -2.4900    3.6568   -0.9283 H   0  0  0  1  0  0  0  0  0  0  0  0
   -3.6664    5.7481   -1.2878 H   0  0  0  1  0  0  0  0  0  0  0  0
   -1.7213    2.0563    0.4713 H   0  0  0  1  0  0  0  0  0  0  0  0
   -0.4187    2.7997    1.3683 H   0  0  0  1  0  0  0  0  0  0  0  0
  1  4  1  0  0  0  0
  2  4  1  0  0  0  0
  2  5  2  0  0  0  0
  2  6  1  0  0  0  0
  3  4  1  0  0  0  0
  3  7  1  0  0  0  0
  3  8  1  0  0  0  0
  4 26  1  0  0  0  0
  6  9  1  0  0  0  0
  6 12  1  0  0  0  0
  8 10  1  0  0  0  0
  8 11  2  0  0  0  0
  9 13  1  0  0  0  0
  9 14  1  0  0  0  0
  9 15  1  0  0  0  0
 10 16  1  0  0  0  0
 10 17  1  0  0  0  0
 10 18  1  0  0  0  0
 19 20  1  0  0  0  0
 20 21  4  0  0  0  0
 20 25  4  0  0  0  0
 21 22  4  0  0  0  0
 21 27  1  0  0  0  0
 22 23  4  0  0  0  0
 22 28  1  0  0  0  0
 23 24  4  0  0  0  0
 23 26  1  0  0  0  0
 24 25  4  0  0  0  0
 24 29  1  0  0  0  0
 25 30  1  0  0  0  0
 26 31  1  0  0  0  0
 26 32  1  0  0  0  0
M  END
> <BCLConfClusterSize>
1

> <ConfClashScore>
0 

> <ConfOneFourInteractionScore>
-0.937067 

> <ConfScore>
0.20188 

> <ConfScorePBest>
0.00304907 

> <ConfTolerance>
0.791659 

> <RosettaParamsInstructions>
M  ROOT 3
M  POLY_N_BB 3
M  POLY_CA_BB 4
M  POLY_C_BB 2
M  POLY_O_BB 5
M  POLY_IGNORE 9 10 11 12 13 14 15 16 17 18 
M  POLY_UPPER 6
M  POLY_LOWER 8
M  POLY_CHG 0
M  POLY_PROPERTIES ALPHA_AA L_AA PROTEIN AROMATIC POLYMER 
M  END

$$$$



 32 32  0  0  0  0  0  0  0  0999 V2000
   -1.3242    0.7262    0.6163 H   0  0  0  1  0  0  0  0  0  0  0  0
   -3.2557    1.3798    0.1028 C   0  0  0  1  0  0  0  0  0  0  0  0
   -1.1632    1.9383   -1.0332 N   0  0  0  1  0  0  0  0  0  0  0  0
   -1.7546    1.6444    0.2750 C   0  0  0  1  0  0  0  0  0  0  0  0
   -3.8381    1.7849   -0.9020 O   0  0  0  1  0  0  0  0  0  0  0  0
   -3.8469    0.6307    1.0397 N   0  0  0  1  0  0  0  0  0  0  0  0
   -1.6812    2.3930   -1.7298 H   0  0  0  1  0  0  0  0  0  0  0  0
    0.1149    1.5650   -1.2513 C   0  0  0  1  0  0  0  0  0  0  0  0
   -5.2601    0.2877    0.9833 C   0  0  0  1  0  0  0  0  0  0  0  0
    0.6569    1.8538   -2.6329 C   0  0  0  1  0  0  0  0  0  0  0  0
    0.8102    1.0230   -0.3931 O   0  0  0  1  0  0  0  0  0  0  0  0
   -3.3099    0.3013    1.7903 H   0  0  0  1  0  0  0  0  0  0  0  0
   -5.8404    1.0999    1.3686 H   0  0  0  1  0  0  0  0  0  0  0  0
   -5.4380   -0.5881    1.5717 H   0  0  0  1  0  0  0  0  0  0  0  0
   -5.5409    0.0991   -0.0318 H   0  0  0  1  0  0  0  0  0  0  0  0
    0.7495    2.9114   -2.7663 H   0  0  0  1  0  0  0  0  0  0  0  0
   -0.0128    1.4592   -3.3682 H   0  0  0  1  0  0  0  0  0  0  0  0
    1.6175    1.3954   -2.7419 H   0  0  0  1  0  0  0  0  0  0  0  0
   -4.4301    8.0052    0.4437 Br  0  0  0  1  0  0  0  0  0  0  0  0
   -3.4402    6.4149    0.6951 C   0  0  0  1  0  0  0  0  0  0  0  0
   -2.9395    6.1049    1.9500 C   0  0  0  1  0  0  0  0  0  0  0  0
   -2.2831    4.9061    2.1555 C   0  0  0  1  0  0  0  0  0  0  0  0
   -2.1302    4.0114    1.1079 C   0  0  0  1  0  0  0  0  0  0  0  0
   -2.6293    4.3203   -0.1435 C   0  0  0  1  0  0  0  0  0  0  0  0
   -3.2876    5.5227   -0.3494 C   0  0  0  1  0  0  0  0  0  0  0  0
   -1.4180    2.6985    1.3331 C   0  0  0  1  0  0  0  0  0  0  0  0
   -3.0578    6.7744    2.7369 H   0  0  0  1  0  0  0  0  0  0  0  0
   -1.9040    4.6754    3.0960 H   0  0  0  1  0  0  0  0  0  0  0  0
   -2.5109    3.6507   -0.9304 H   0  0  0  1  0  0  0  0  0  0  0  0
   -3.6667    5.7534   -1.2900 H   0  0  0  1  0  0  0  0  0  0  0  0
   -0.3630    2.8757    1.3138 H   0  0  0  1  0  0  0  0  0  0  0  0
   -1.6990    2.3190    2.2933 H   0  0  0  1  0  0  0  0  0  0  0  0
  1  4  1  0  0  0  0
  2  4  1  0  0  0  0
  2  5  2  0  0  0  0
  2  6  1  0  0  0  0
  3  4  1  0  0  0  0
  3  7  1  0  0  0  0
  3  8  1  0  0  0  0
  4 26  1  0  0  0  0
  6  9  1  0  0  0  0
  6 12  1  0  0  0  0
  8 10  1  0  0  0  0
  8 11  2  0  0  0  0
  9 13  1  0  0  0  0
  9 14  1  0  0  0  0
  9 15  1  0  0  0  0
 10 16  1  0  0  0  0
 10 17  1  0  0  0  0
 10 18  1  0  0  0  0
 19 20  1  0  0  0  0
 20 21  4  0  0  0  0
 20 25  4  0  0  0  0
 21 22  4  0  0  0  0
 21 27  1  0  0  0  0
 22 23  4  0  0  0  0
 22 28  1  0  0  0  0
 23 24  4  0  0  0  0
 23 26  1  0  0  0  0
 24 25  4  0  0  0  0
 24 29  1  0  0  0  0
 25 30  1  0  0  0  0
 26 31  1  0  0  0  0
 26 32  1  0  0  0  0
M  END
> <BCLConfClusterSize>
1

> <ConfClashScore>
0 

> <ConfOneFourInteractionScore>
-0.979817 

> <ConfScore>
0.205523 

> <ConfScorePBest>
0.00302059 

> <ConfTolerance>
0.664523 

> <RosettaParamsInstructions>
M  ROOT 3
M  POLY_N_BB 3
M  POLY_CA_BB 4
M  POLY_C_BB 2
M  POLY_O_BB 5
M  POLY_IGNORE 9 10 11 12 13 14 15 16 17 18 
M  POLY_UPPER 6
M  POLY_LOWER 8
M  POLY_CHG 0
M  POLY_PROPERTIES ALPHA_AA L_AA PROTEIN AROMATIC POLYMER 
M  END

$$$$



 32 32  0  0  0  0  0  0  0  0999 V2000
   -3.0539    1.5814    0.6201 H   0  0  0  1  0  0  0  0  0  0  0  0
   -1.6433    0.1816    1.2942 C   0  0  0  1  0  0  0  0  0  0  0  0
   -3.1638    1.5398    2.6671 N   0  0  0  1  0  0  0  0  0  0  0  0
   -2.3754    1.5079    1.4442 C   0  0  0  1  0  0  0  0  0  0  0  0
   -1.3889   -0.2811    0.1832 O   0  0  0  1  0  0  0  0  0  0  0  0
   -1.2220   -0.3947    2.4250 N   0  0  0  1  0  0  0  0  0  0  0  0
   -2.8846    0.9542    3.4016 H   0  0  0  1  0  0  0  0  0  0  0  0
   -4.2502    2.3148    2.8657 C   0  0  0  1  0  0  0  0  0  0  0  0
   -0.4366   -1.6187    2.3727 C   0  0  0  1  0  0  0  0  0  0  0  0
   -5.0384    2.1160    4.1297 C   0  0  0  1  0  0  0  0  0  0  0  0
   -4.5877    3.1602    2.0380 O   0  0  0  1  0  0  0  0  0  0  0  0
   -1.4426    0.0081    3.2907 H   0  0  0  1  0  0  0  0  0  0  0  0
    0.1962   -1.6005    1.5100 H   0  0  0  1  0  0  0  0  0  0  0  0
   -1.0934   -2.4615    2.3153 H   0  0  0  1  0  0  0  0  0  0  0  0
    0.1650   -1.6941    3.2544 H   0  0  0  1  0  0  0  0  0  0  0  0
   -4.4396    2.3944    4.9716 H   0  0  0  1  0  0  0  0  0  0  0  0
   -5.3191    1.0871    4.2166 H   0  0  0  1  0  0  0  0  0  0  0  0
   -5.9179    2.7248    4.1009 H   0  0  0  1  0  0  0  0  0  0  0  0
   -4.4301    8.0052    0.4437 Br  0  0  0  1  0  0  0  0  0  0  0  0
   -3.4402    6.4149    0.6951 C   0  0  0  1  0  0  0  0  0  0  0  0
   -2.9395    6.1049    1.9500 C   0  0  0  1  0  0  0  0  0  0  0  0
   -2.2831    4.9061    2.1555 C   0  0  0  1  0  0  0  0  0  0  0  0
   -2.1302    4.0114    1.1079 C   0  0  0  1  0  0  0  0  0  0  0  0
   -2.6293    4.3203   -0.1435 C   0  0  0  1  0  0  0  0  0  0  0  0
   -3.2876    5.5227   -0.3494 C   0  0  0  1  0  0  0  0  0  0  0  0
   -1.4180    2.6985    1.3331 C   0  0  0  1  0  0  0  0  0  0  0  0
   -3.0578    6.7744    2.7369 H   0  0  0  1  0  0  0  0  0  0  0  0
   -1.9040    4.6754    3.0960 H   0  0  0  1  0  0  0  0  0  0  0  0
   -2.5109    3.6507   -0.9304 H   0  0  0  1  0  0  0  0  0  0  0  0
   -3.6667    5.7534   -1.2900 H   0  0  0  1  0  0  0  0  0  0  0  0
   -0.7539    2.5261    0.5121 H   0  0  0  1  0  0  0  0  0  0  0  0
   -0.8543    2.7680    2.2399 H   0  0  0  1  0  0  0  0  0  0  0  0
  1  4  1  0  0  0  0
  2  4  1  0  0  0  0
  2  5  2  0  0  0  0
  2  6  1  0  0  0  0
  3  4  1  0  0  0  0
  3  7  1  0  0  0  0
  3  8  1  0  0  0  0
  4 26  1  0  0  0  0
  6  9  1  0  0  0  0
  6 12  1  0  0  0  0
  8 10  1  0  0  0  0
  8 11  2  0  0  0  0
  9 13  1  0  0  0  0
  9 14  1  0  0  0  0
  9 15  1  0  0  0  0
 10 16  1  0  0  0  0
 10 17  1  0  0  0  0
 10 18  1  0  0  0  0
 19 20  1  0  0  0  0
 20 21  4  0  0  0  0
 20 25  4  0  0  0  0
 21 22  4  0  0  0  0
 21 27  1  0  0  0  0
 22 23  4  0  0  0  0
 22 28  1  0  0  0  0
 23 24  4  0  0  0  0
 23 26  1  0  0  0  0
 24 25  4  0  0  0  0
 24 29  1  0  0  0  0
 25 30  1  0  0  0  0
 26 31  1  0  0  0  0
 26 32  1  0  0  0  0
M  END
> <BCLConfClusterSize>
1

> <ConfClashScore>
0 

> <ConfOneFourInteractionScore>
-0.965014 

> <ConfScore>
0.208068 

> <ConfScorePBest>
0.00299211 

> <ConfTolerance>
0.634341 

> <RosettaParamsInstructions>
M  ROOT 3
M  POLY_N_BB 3
M  POLY_CA_BB 4
M  POLY_C_BB 2
M  POLY_O_BB 5
M  POLY_IGNORE 9 10 11 12 13 14 15 16 17 18 
M  POLY_UPPER 6
M  POLY_LOWER 8
M  POLY_CHG 0
M  POLY_PROPERTIES ALPHA_AA L_AA PROTEIN AROMATIC POLYMER 
M  END

$$$$



 32 32  0  0  0  0  0  0  0  0999 V2000
   -2.3615    1.5778   -0.0858 H   0  0  0  1  0  0  0  0  0  0  0  0
   -0.5729    2.3537   -0.9222 C   0  0  0  1  0  0  0  0  0  0  0  0
   -0.7669    0.4830    0.6454 N   0  0  0  1  0  0  0  0  0  0  0  0
   -1.3586    1.7507    0.2447 C   0  0  0  1  0  0  0  0  0  0  0  0
    0.5922    2.7179   -0.7707 O   0  0  0  1  0  0  0  0  0  0  0  0
   -1.2230    2.3591   -2.0909 N   0  0  0  1  0  0  0  0  0  0  0  0
    0.1475    0.4783    0.9980 H   0  0  0  1  0  0  0  0  0  0  0  0
   -1.4325   -0.6844    0.5486 C   0  0  0  1  0  0  0  0  0  0  0  0
   -0.6668    2.8273   -3.3515 C   0  0  0  1  0  0  0  0  0  0  0  0
   -0.5990   -1.8941    0.9244 C   0  0  0  1  0  0  0  0  0  0  0  0
   -2.6049   -0.7946    0.1925 O   0  0  0  1  0  0  0  0  0  0  0  0
   -2.1433    2.0223   -2.0989 H   0  0  0  1  0  0  0  0  0  0  0  0
   -1.1885    3.7065   -3.6675 H   0  0  0  1  0  0  0  0  0  0  0  0
   -0.7732    2.0638   -4.0935 H   0  0  0  1  0  0  0  0  0  0  0  0
    0.3702    3.0561   -3.2205 H   0  0  0  1  0  0  0  0  0  0  0  0
   -0.4609   -2.5142    0.0634 H   0  0  0  1  0  0  0  0  0  0  0  0
   -1.1022   -2.4505    1.6874 H   0  0  0  1  0  0  0  0  0  0  0  0
    0.3543   -1.5712    1.2877 H   0  0  0  1  0  0  0  0  0  0  0  0
   -4.4284    8.0074    0.4539 Br  0  0  0  1  0  0  0  0  0  0  0  0
   -3.4402    6.4143    0.6940 C   0  0  0  1  0  0  0  0  0  0  0  0
   -2.9367    6.0968    1.9459 C   0  0  0  1  0  0  0  0  0  0  0  0
   -2.2816    4.8959    2.1431 C   0  0  0  1  0  0  0  0  0  0  0  0
   -2.1327    4.0067    1.0903 C   0  0  0  1  0  0  0  0  0  0  0  0
   -2.6346    4.3231   -0.1580 C   0  0  0  1  0  0  0  0  0  0  0  0
   -3.2917    5.5276   -0.3557 C   0  0  0  1  0  0  0  0  0  0  0  0
   -1.4070    2.7227    1.4163 C   0  0  0  1  0  0  0  0  0  0  0  0
   -3.0520    6.7622    2.7367 H   0  0  0  1  0  0  0  0  0  0  0  0
   -1.9003    4.6595    3.0814 H   0  0  0  1  0  0  0  0  0  0  0  0
   -2.5194    3.6576   -0.9489 H   0  0  0  1  0  0  0  0  0  0  0  0
   -3.6729    5.7640   -1.2940 H   0  0  0  1  0  0  0  0  0  0  0  0
   -0.4040    2.9616    1.7023 H   0  0  0  1  0  0  0  0  0  0  0  0
   -1.9076    2.2466    2.2333 H   0  0  0  1  0  0  0  0  0  0  0  0
  1  4  1  0  0  0  0
  2  4  1  0  0  0  0
  2  5  2  0  0  0  0
  2  6  1  0  0  0  0
  3  4  1  0  0  0  0
  3  7  1  0  0  0  0
  3  8  1  0  0  0  0
  4 26  1  0  0  0  0
  6  9  1  0  0  0  0
  6 12  1  0  0  0  0
  8 10  1  0  0  0  0
  8 11  2  0  0  0  0
  9 13  1  0  0  0  0
  9 14  1  0  0  0  0
  9 15  1  0  0  0  0
 10 16  1  0  0  0  0
 10 17  1  0  0  0  0
 10 18  1  0  0  0  0
 19 20  1  0  0  0  0
 20 21  4  0  0  0  0
 20 25  4  0  0  0  0
 21 22  4  0  0  0  0
 21 27  1  0  0  0  0
 22 23  4  0  0  0  0
 22 28  1  0  0  0  0
 23 24  4  0  0  0  0
 23 26  1  0  0  0  0
 24 25  4  0  0  0  0
 24 29  1  0  0  0  0
 25 30  1  0  0  0  0
 26 31  1  0  0  0  0
 26 32  1  0  0  0  0
M  END
> <BCLConfClusterSize>
1

> <ConfClashScore>
0 

> <ConfOneFourInteractionScore>
-0.964013 

> <ConfScore>
0.213273 

> <ConfScorePBest>
0.00296363 

> <ConfTolerance>
0.73699 

> <RosettaParamsInstructions>
M  ROOT 3
M  POLY_N_BB 3
M  POLY_CA_BB 4
M  POLY_C_BB 2
M  POLY_O_BB 5
M  POLY_IGNORE 9 10 11 12 13 14 15 16 17 18 
M  POLY_UPPER 6
M  POLY_LOWER 8
M  POLY_CHG 0
M  POLY_PROPERTIES ALPHA_AA L_AA PROTEIN AROMATIC POLYMER 
M  END

$$$$



 32 32  0  0  0  0  0  0  0  0999 V2000
   -1.0452    2.7450    3.4080 H   0  0  0  1  0  0  0  0  0  0  0  0
    0.4121    1.4851    2.5496 C   0  0  0  1  0  0  0  0  0  0  0  0
    0.4025    3.9103    2.5187 N   0  0  0  1  0  0  0  0  0  0  0  0
   -0.4571    2.7360    2.5142 C   0  0  0  1  0  0  0  0  0  0  0  0
   -0.0338    0.4169    2.1335 O   0  0  0  1  0  0  0  0  0  0  0  0
    1.6740    1.6397    2.9645 N   0  0  0  1  0  0  0  0  0  0  0  0
    0.2904    4.5957    3.2101 H   0  0  0  1  0  0  0  0  0  0  0  0
    1.3520    4.0572    1.5742 C   0  0  0  1  0  0  0  0  0  0  0  0
    2.6393    0.5657    2.7839 C   0  0  0  1  0  0  0  0  0  0  0  0
    2.1178    5.3618    1.6777 C   0  0  0  1  0  0  0  0  0  0  0  0
    1.6005    3.2314    0.6967 O   0  0  0  1  0  0  0  0  0  0  0  0
    1.9492    2.4779    3.3911 H   0  0  0  1  0  0  0  0  0  0  0  0
    2.7452    0.3523    1.7408 H   0  0  0  1  0  0  0  0  0  0  0  0
    2.2973   -0.3104    3.2941 H   0  0  0  1  0  0  0  0  0  0  0  0
    3.5853    0.8657    3.1841 H   0  0  0  1  0  0  0  0  0  0  0  0
    1.4575    6.1802    1.4798 H   0  0  0  1  0  0  0  0  0  0  0  0
    2.9140    5.3654    0.9628 H   0  0  0  1  0  0  0  0  0  0  0  0
    2.5223    5.4605    2.6633 H   0  0  0  1  0  0  0  0  0  0  0  0
   -4.4301    8.0052    0.4437 Br  0  0  0  1  0  0  0  0  0  0  0  0
   -3.4402    6.4149    0.6951 C   0  0  0  1  0  0  0  0  0  0  0  0
   -2.9395    6.1049    1.9500 C   0  0  0  1  0  0  0  0  0  0  0  0
   -2.2831    4.9061    2.1555 C   0  0  0  1  0  0  0  0  0  0  0  0
   -2.1302    4.0114    1.1079 C   0  0  0  1  0  0  0  0  0  0  0  0
   -2.6293    4.3203   -0.1435 C   0  0  0  1  0  0  0  0  0  0  0  0
   -3.2876    5.5227   -0.3494 C   0  0  0  1  0  0  0  0  0  0  0  0
   -1.4180    2.6985    1.3331 C   0  0  0  1  0  0  0  0  0  0  0  0
   -3.0578    6.7744    2.7369 H   0  0  0  1  0  0  0  0  0  0  0  0
   -1.9040    4.6754    3.0960 H   0  0  0  1  0  0  0  0  0  0  0  0
   -2.5109    3.6507   -0.9304 H   0  0  0  1  0  0  0  0  0  0  0  0
   -3.6667    5.7534   -1.2900 H   0  0  0  1  0  0  0  0  0  0  0  0
   -2.1509    1.9403    1.5142 H   0  0  0  1  0  0  0  0  0  0  0  0
   -0.8637    2.4560    0.4506 H   0  0  0  1  0  0  0  0  0  0  0  0
  1  4  1  0  0  0  0
  2  4  1  0  0  0  0
  2  5  2  0  0  0  0
  2  6  1  0  0  0  0
  3  4  1  0  0  0  0
  3  7  1  0  0  0  0
  3  8  1  0  0  0  0
  4 26  1  0  0  0  0
  6  9  1  0  0  0  0
  6 12  1  0  0  0  0
  8 10  1  0  0  0  0
  8 11  2  0  0  0  0
  9 13  1  0  0  0  0
  9 14  1  0  0  0  0
  9 15  1  0  0  0  0
 10 16  1  0  0  0  0
 10 17  1  0  0  0  0
 10 18  1  0  0  0  0
 19 20  1  0  0  0  0
 20 21  4  0  0  0  0
 20 25  4  0  0  0  0
 21 22  4  0  0  0  0
 21 27  1  0  0  0  0
 22 23  4  0  0  0  0
 22 28  1  0  0  0  0
 23 24  4  0  0  0  0
 23 26  1  0  0  0  0
 24 25  4  0  0  0  0
 24 29  1  0  0  0  0
 25 30  1  0  0  0  0
 26 31  1  0  0  0  0
 26 32  1  0  0  0  0
M  END
> <BCLConfClusterSize>
1

> <ConfClashScore>
0 

> <ConfOneFourInteractionScore>
-0.931255 

> <ConfScore>
0.220656 

> <ConfScorePBest>
0.00293515 

> <ConfTolerance>
0.488517 

> <RosettaParamsInstructions>
M  ROOT 3
M  POLY_N_BB 3
M  POLY_CA_BB 4
M  POLY_C_BB 2
M  POLY_O_BB 5
M  POLY_IGNORE 9 10 11 12 13 14 15 16 17 18 
M  POLY_UPPER 6
M  POLY_LOWER 8
M  POLY_CHG 0
M  POLY_PROPERTIES ALPHA_AA L_AA PROTEIN AROMATIC POLYMER 
M  END

$$$$



 32 32  0  0  0  0  0  0  0  0999 V2000
    0.3724    3.8088    1.1736 H   0  0  0  1  0  0  0  0  0  0  0  0
    0.8727    1.9922    2.1190 C   0  0  0  1  0  0  0  0  0  0  0  0
    0.3858    2.3577   -0.2856 N   0  0  0  1  0  0  0  0  0  0  0  0
    0.0896    2.7816    1.0747 C   0  0  0  1  0  0  0  0  0  0  0  0
    0.5679    2.0382    3.3098 O   0  0  0  1  0  0  0  0  0  0  0  0
    1.8402    1.1887    1.6548 N   0  0  0  1  0  0  0  0  0  0  0  0
   -0.1086    1.6006   -0.6633 H   0  0  0  1  0  0  0  0  0  0  0  0
    1.3083    2.9650   -1.0375 C   0  0  0  1  0  0  0  0  0  0  0  0
    2.5400    0.2408    2.5090 C   0  0  0  1  0  0  0  0  0  0  0  0
    1.5805    2.3297   -2.3871 C   0  0  0  1  0  0  0  0  0  0  0  0
    1.9088    3.9756   -0.6748 O   0  0  0  1  0  0  0  0  0  0  0  0
    2.0846    1.2415    0.7072 H   0  0  0  1  0  0  0  0  0  0  0  0
    3.5958    0.3874    2.4151 H   0  0  0  1  0  0  0  0  0  0  0  0
    2.2910   -0.7568    2.2132 H   0  0  0  1  0  0  0  0  0  0  0  0
    2.2479    0.3951    3.5267 H   0  0  0  1  0  0  0  0  0  0  0  0
    1.9987    3.0600   -3.0478 H   0  0  0  1  0  0  0  0  0  0  0  0
    0.6644    1.9601   -2.7983 H   0  0  0  1  0  0  0  0  0  0  0  0
    2.2704    1.5206   -2.2675 H   0  0  0  1  0  0  0  0  0  0  0  0
   -4.4301    8.0052    0.4437 Br  0  0  0  1  0  0  0  0  0  0  0  0
   -3.4402    6.4149    0.6951 C   0  0  0  1  0  0  0  0  0  0  0  0
   -2.9395    6.1049    1.9500 C   0  0  0  1  0  0  0  0  0  0  0  0
   -2.2831    4.9061    2.1555 C   0  0  0  1  0  0  0  0  0  0  0  0
   -2.1302    4.0114    1.1079 C   0  0  0  1  0  0  0  0  0  0  0  0
   -2.6293    4.3203   -0.1435 C   0  0  0  1  0  0  0  0  0  0  0  0
   -3.2876    5.5227   -0.3494 C   0  0  0  1  0  0  0  0  0  0  0  0
   -1.4180    2.6985    1.3331 C   0  0  0  1  0  0  0  0  0  0  0  0
   -3.0578    6.7744    2.7369 H   0  0  0  1  0  0  0  0  0  0  0  0
   -1.9040    4.6754    3.0960 H   0  0  0  1  0  0  0  0  0  0  0  0
   -2.5109    3.6507   -0.9304 H   0  0  0  1  0  0  0  0  0  0  0  0
   -3.6667    5.7534   -1.2900 H   0  0  0  1  0  0  0  0  0  0  0  0
   -1.5735    2.3964    2.3477 H   0  0  0  1  0  0  0  0  0  0  0  0
   -1.8366    1.9666    0.6744 H   0  0  0  1  0  0  0  0  0  0  0  0
  1  4  1  0  0  0  0
  2  4  1  0  0  0  0
  2  5  2  0  0  0  0
  2  6  1  0  0  0  0
  3  4  1  0  0  0  0
  3  7  1  0  0  0  0
  3  8  1  0  0  0  0
  4 26  1  0  0  0  0
  6  9  1  0  0  0  0
  6 12  1  0  0  0  0
  8 10  1  0  0  0  0
  8 11  2  0  0  0  0
  9 13  1  0  0  0  0
  9 14  1  0  0  0  0
  9 15  1  0  0  0  0
 10 16  1  0  0  0  0
 10 17  1  0  0  0  0
 10 18  1  0  0  0  0
 19 20  1  0  0  0  0
 20 21  4  0  0  0  0
 20 25  4  0  0  0  0
 21 22  4  0  0  0  0
 21 27  1  0  0  0  0
 22 23  4  0  0  0  0
 22 28  1  0  0  0  0
 23 24  4  0  0  0  0
 23 26  1  0  0  0  0
 24 25  4  0  0  0  0
 24 29  1  0  0  0  0
 25 30  1  0  0  0  0
 26 31  1  0  0  0  0
 26 32  1  0  0  0  0
M  END
> <BCLConfClusterSize>
1

> <ConfClashScore>
0 

> <ConfOneFourInteractionScore>
-0.948834 

> <ConfScore>
0.224277 

> <ConfScorePBest>
0.00290666 

> <ConfTolerance>
0.897655 

> <RosettaParamsInstructions>
M  ROOT 3
M  POLY_N_BB 3
M  POLY_CA_BB 4
M  POLY_C_BB 2
M  POLY_O_BB 5
M  POLY_IGNORE 9 10 11 12 13 14 15 16 17 18 
M  POLY_UPPER 6
M  POLY_LOWER 8
M  POLY_CHG 0
M  POLY_PROPERTIES ALPHA_AA L_AA PROTEIN AROMATIC POLYMER 
M  END

$$$$



 32 32  0  0  0  0  0  0  0  0999 V2000
    0.5286    3.5360    1.2490 H   0  0  0  1  0  0  0  0  0  0  0  0
    0.7100    1.4253    1.4952 C   0  0  0  1  0  0  0  0  0  0  0  0
    0.1063    2.6226   -0.5678 N   0  0  0  1  0  0  0  0  0  0  0  0
    0.0339    2.6597    0.8852 C   0  0  0  1  0  0  0  0  0  0  0  0
    0.7106    0.3601    0.8802 O   0  0  0  1  0  0  0  0  0  0  0  0
    1.3514    1.6011    2.6555 N   0  0  0  1  0  0  0  0  0  0  0  0
   -0.6465    2.2457   -1.0694 H   0  0  0  1  0  0  0  0  0  0  0  0
    1.1738    3.0890   -1.2483 C   0  0  0  1  0  0  0  0  0  0  0  0
    1.2849    2.8052    3.4701 C   0  0  0  1  0  0  0  0  0  0  0  0
    1.1168    3.0714   -2.7591 C   0  0  0  1  0  0  0  0  0  0  0  0
    2.1657    3.5167   -0.6593 O   0  0  0  1  0  0  0  0  0  0  0  0
    1.9081    0.8635    2.9817 H   0  0  0  1  0  0  0  0  0  0  0  0
    1.1558    3.6581    2.8369 H   0  0  0  1  0  0  0  0  0  0  0  0
    2.1925    2.9091    4.0273 H   0  0  0  1  0  0  0  0  0  0  0  0
    0.4576    2.7338    4.1449 H   0  0  0  1  0  0  0  0  0  0  0  0
    0.1287    3.3247   -3.0822 H   0  0  0  1  0  0  0  0  0  0  0  0
    1.3681    2.0937   -3.1138 H   0  0  0  1  0  0  0  0  0  0  0  0
    1.8132    3.7833   -3.1504 H   0  0  0  1  0  0  0  0  0  0  0  0
   -4.4301    8.0052    0.4437 Br  0  0  0  1  0  0  0  0  0  0  0  0
   -3.4402    6.4149    0.6951 C   0  0  0  1  0  0  0  0  0  0  0  0
   -2.9395    6.1049    1.9500 C   0  0  0  1  0  0  0  0  0  0  0  0
   -2.2831    4.9061    2.1555 C   0  0  0  1  0  0  0  0  0  0  0  0
   -2.1302    4.0114    1.1079 C   0  0  0  1  0  0  0  0  0  0  0  0
   -2.6293    4.3203   -0.1435 C   0  0  0  1  0  0  0  0  0  0  0  0
   -3.2876    5.5227   -0.3494 C   0  0  0  1  0  0  0  0  0  0  0  0
   -1.4180    2.6985    1.3331 C   0  0  0  1  0  0  0  0  0  0  0  0
   -3.0578    6.7744    2.7369 H   0  0  0  1  0  0  0  0  0  0  0  0
   -1.9040    4.6754    3.0960 H   0  0  0  1  0  0  0  0  0  0  0  0
   -2.5109    3.6507   -0.9304 H   0  0  0  1  0  0  0  0  0  0  0  0
   -3.6667    5.7534   -1.2900 H   0  0  0  1  0  0  0  0  0  0  0  0
   -1.4461    2.4833    2.3809 H   0  0  0  1  0  0  0  0  0  0  0  0
   -1.9489    1.9390    0.7981 H   0  0  0  1  0  0  0  0  0  0  0  0
  1  4  1  0  0  0  0
  2  4  1  0  0  0  0
  2  5  2  0  0  0  0
  2  6  1  0  0  0  0
  3  4  1  0  0  0  0
  3  7  1  0  0  0  0
  3  8  1  0  0  0  0
  4 26  1  0  0  0  0
  6  9  1  0  0  0  0
  6 12  1  0  0  0  0
  8 10  1  0  0  0  0
  8 11  2  0  0  0  0
  9 13  1  0  0  0  0
  9 14  1  0  0  0  0
  9 15  1  0  0  0  0
 10 16  1  0  0  0  0
 10 17  1  0  0  0  0
 10 18  1  0  0  0  0
 19 20  1  0  0  0  0
 20 21  4  0  0  0  0
 20 25  4  0  0  0  0
 21 22  4  0  0  0  0
 21 27  1  0  0  0  0
 22 23  4  0  0  0  0
 22 28  1  0  0  0  0
 23 24  4  0  0  0  0
 23 26  1  0  0  0  0
 24 25  4  0  0  0  0
 24 29  1  0  0  0  0
 25 30  1  0  0  0  0
 26 31  1  0  0  0  0
 26 32  1  0  0  0  0
M  END
> <BCLConfClusterSize>
1

> <ConfClashScore>
0 

> <ConfOneFourInteractionScore>
-0.981931 

> <ConfScore>
0.224375 

> <ConfScorePBest>
0.00287818 

> <ConfTolerance>
0.629251 

> <RosettaParamsInstructions>
M  ROOT 3
M  POLY_N_BB 3
M  POLY_CA_BB 4
M  POLY_C_BB 2
M  POLY_O_BB 5
M  POLY_IGNORE 9 10 11 12 13 14 15 16 17 18 
M  POLY_UPPER 6
M  POLY_LOWER 8
M  POLY_CHG 0
M  POLY_PROPERTIES ALPHA_AA L_AA PROTEIN AROMATIC POLYMER 
M  END

$$$$



 32 32  0  0  0  0  0  0  0  0999 V2000
   -0.0049    2.8106   -0.2223 H   0  0  0  1  0  0  0  0  0  0  0  0
    0.9169    3.5771    1.5318 C   0  0  0  1  0  0  0  0  0  0  0  0
    0.4991    1.2207    1.0013 N   0  0  0  1  0  0  0  0  0  0  0  0
   -0.0021    2.5751    0.8215 C   0  0  0  1  0  0  0  0  0  0  0  0
    0.5709    4.7410    1.6503 O   0  0  0  1  0  0  0  0  0  0  0  0
    2.0394    3.0886    2.0701 N   0  0  0  1  0  0  0  0  0  0  0  0
    0.6387    0.9074    1.9193 H   0  0  0  1  0  0  0  0  0  0  0  0
    0.7832    0.3722    0.0091 C   0  0  0  1  0  0  0  0  0  0  0  0
    2.9138    3.8943    2.9091 C   0  0  0  1  0  0  0  0  0  0  0  0
    1.0289   -1.0659    0.4222 C   0  0  0  1  0  0  0  0  0  0  0  0
    0.8459    0.7174   -1.1701 O   0  0  0  1  0  0  0  0  0  0  0  0
    2.2815    2.1555    1.8934 H   0  0  0  1  0  0  0  0  0  0  0  0
    2.3228    4.4829    3.5794 H   0  0  0  1  0  0  0  0  0  0  0  0
    3.5033    4.5404    2.2926 H   0  0  0  1  0  0  0  0  0  0  0  0
    3.5583    3.2522    3.4723 H   0  0  0  1  0  0  0  0  0  0  0  0
    0.4673   -1.2844    1.3064 H   0  0  0  1  0  0  0  0  0  0  0  0
    2.0713   -1.2074    0.6179 H   0  0  0  1  0  0  0  0  0  0  0  0
    0.7215   -1.7207   -0.3662 H   0  0  0  1  0  0  0  0  0  0  0  0
   -4.4301    8.0052    0.4437 Br  0  0  0  1  0  0  0  0  0  0  0  0
   -3.4402    6.4149    0.6951 C   0  0  0  1  0  0  0  0  0  0  0  0
   -2.9395    6.1049    1.9500 C   0  0  0  1  0  0  0  0  0  0  0  0
   -2.2831    4.9061    2.1555 C   0  0  0  1  0  0  0  0  0  0  0  0
   -2.1302    4.0114    1.1079 C   0  0  0  1  0  0  0  0  0  0  0  0
   -2.6293    4.3203   -0.1435 C   0  0  0  1  0  0  0  0  0  0  0  0
   -3.2876    5.5227   -0.3494 C   0  0  0  1  0  0  0  0  0  0  0  0
   -1.4180    2.6985    1.3331 C   0  0  0  1  0  0  0  0  0  0  0  0
   -3.0578    6.7744    2.7369 H   0  0  0  1  0  0  0  0  0  0  0  0
   -1.9040    4.6754    3.0960 H   0  0  0  1  0  0  0  0  0  0  0  0
   -2.5109    3.6507   -0.9304 H   0  0  0  1  0  0  0  0  0  0  0  0
   -3.6667    5.7534   -1.2900 H   0  0  0  1  0  0  0  0  0  0  0  0
   -1.3934    2.5246    2.3886 H   0  0  0  1  0  0  0  0  0  0  0  0
   -1.9976    1.9344    0.8587 H   0  0  0  1  0  0  0  0  0  0  0  0
  1  4  1  0  0  0  0
  2  4  1  0  0  0  0
  2  5  2  0  0  0  0
  2  6  1  0  0  0  0
  3  4  1  0  0  0  0
  3  7  1  0  0  0  0
  3  8  1  0  0  0  0
  4 26  1  0  0  0  0
  6  9  1  0  0  0  0
  6 12  1  0  0  0  0
  8 10  1  0  0  0  0
  8 11  2  0  0  0  0
  9 13  1  0  0  0  0
  9 14  1  0  0  0  0
  9 15  1  0  0  0  0
 10 16  1  0  0  0  0
 10 17  1  0  0  0  0
 10 18  1  0  0  0  0
 19 20  1  0  0  0  0
 20 21  4  0  0  0  0
 20 25  4  0  0  0  0
 21 22  4  0  0  0  0
 21 27  1  0  0  0  0
 22 23  4  0  0  0  0
 22 28  1  0  0  0  0
 23 24  4  0  0  0  0
 23 26  1  0  0  0  0
 24 25  4  0  0  0  0
 24 29  1  0  0  0  0
 25 30  1  0  0  0  0
 26 31  1  0  0  0  0
 26 32  1  0  0  0  0
M  END
> <BCLConfClusterSize>
1

> <ConfClashScore>
0 

> <ConfOneFourInteractionScore>
-0.965014 

> <ConfScore>
0.226818 

> <ConfScorePBest>
0.0028497 

> <ConfTolerance>
0.471071 

> <RosettaParamsInstructions>
M  ROOT 3
M  POLY_N_BB 3
M  POLY_CA_BB 4
M  POLY_C_BB 2
M  POLY_O_BB 5
M  POLY_IGNORE 9 10 11 12 13 14 15 16 17 18 
M  POLY_UPPER 6
M  POLY_LOWER 8
M  POLY_CHG 0
M  POLY_PROPERTIES ALPHA_AA L_AA PROTEIN AROMATIC POLYMER 
M  END

$$$$



 32 32  0  0  0  0  0  0  0  0999 V2000
    0.4680    1.7769    1.0873 H   0  0  0  1  0  0  0  0  0  0  0  0
    0.2780    3.2815   -0.3873 C   0  0  0  1  0  0  0  0  0  0  0  0
    0.7313    3.5882    2.0437 N   0  0  0  1  0  0  0  0  0  0  0  0
    0.0739    2.7703    1.0354 C   0  0  0  1  0  0  0  0  0  0  0  0
   -0.5842    3.1205   -1.2496 O   0  0  0  1  0  0  0  0  0  0  0  0
    1.3947    3.9824   -0.6113 N   0  0  0  1  0  0  0  0  0  0  0  0
    0.6478    4.5632    1.9899 H   0  0  0  1  0  0  0  0  0  0  0  0
    1.4508    3.0518    3.0486 C   0  0  0  1  0  0  0  0  0  0  0  0
    1.7858    4.4165   -1.9442 C   0  0  0  1  0  0  0  0  0  0  0  0
    2.0250    4.0846    4.0098 C   0  0  0  1  0  0  0  0  0  0  0  0
    1.6438    1.8566    3.2037 O   0  0  0  1  0  0  0  0  0  0  0  0
    1.9697    4.2116    0.1485 H   0  0  0  1  0  0  0  0  0  0  0  0
    1.8722    3.5649   -2.5862 H   0  0  0  1  0  0  0  0  0  0  0  0
    2.7280    4.9211   -1.8925 H   0  0  0  1  0  0  0  0  0  0  0  0
    1.0447    5.0828   -2.3337 H   0  0  0  1  0  0  0  0  0  0  0  0
    1.2356    4.7030    4.3829 H   0  0  0  1  0  0  0  0  0  0  0  0
    2.7402    4.6916    3.4950 H   0  0  0  1  0  0  0  0  0  0  0  0
    2.5026    3.5848    4.8264 H   0  0  0  1  0  0  0  0  0  0  0  0
   -4.4301    8.0052    0.4437 Br  0  0  0  1  0  0  0  0  0  0  0  0
   -3.4402    6.4149    0.6951 C   0  0  0  1  0  0  0  0  0  0  0  0
   -2.9395    6.1049    1.9500 C   0  0  0  1  0  0  0  0  0  0  0  0
   -2.2831    4.9061    2.1555 C   0  0  0  1  0  0  0  0  0  0  0  0
   -2.1302    4.0114    1.1079 C   0  0  0  1  0  0  0  0  0  0  0  0
   -2.6293    4.3203   -0.1435 C   0  0  0  1  0  0  0  0  0  0  0  0
   -3.2876    5.5227   -0.3494 C   0  0  0  1  0  0  0  0  0  0  0  0
   -1.4180    2.6985    1.3331 C   0  0  0  1  0  0  0  0  0  0  0  0
   -3.0578    6.7744    2.7369 H   0  0  0  1  0  0  0  0  0  0  0  0
   -1.9040    4.6754    3.0960 H   0  0  0  1  0  0  0  0  0  0  0  0
   -2.5109    3.6507   -0.9304 H   0  0  0  1  0  0  0  0  0  0  0  0
   -3.6667    5.7534   -1.2900 H   0  0  0  1  0  0  0  0  0  0  0  0
   -1.5478    2.4117    2.3558 H   0  0  0  1  0  0  0  0  0  0  0  0
   -1.8572    1.9592    0.6963 H   0  0  0  1  0  0  0  0  0  0  0  0
  1  4  1  0  0  0  0
  2  4  1  0  0  0  0
  2  5  2  0  0  0  0
  2  6  1  0  0  0  0
  3  4  1  0  0  0  0
  3  7  1  0  0  0  0
  3  8  1  0  0  0  0
  4 26  1  0  0  0  0
  6  9  1  0  0  0  0
  6 12  1  0  0  0  0
  8 10  1  0  0  0  0
  8 11  2  0  0  0  0
  9 13  1  0  0  0  0
  9 14  1  0  0  0  0
  9 15  1  0  0  0  0
 10 16  1  0  0  0  0
 10 17  1  0  0  0  0
 10 18  1  0  0  0  0
 19 20  1  0  0  0  0
 20 21  4  0  0  0  0
 20 25  4  0  0  0  0
 21 22  4  0  0  0  0
 21 27  1  0  0  0  0
 22 23  4  0  0  0  0
 22 28  1  0  0  0  0
 23 24  4  0  0  0  0
 23 26  1  0  0  0  0
 24 25  4  0  0  0  0
 24 29  1  0  0  0  0
 25 30  1  0  0  0  0
 26 31  1  0  0  0  0
 26 32  1  0  0  0  0
M  END
> <BCLConfClusterSize>
1

> <ConfClashScore>
0 

> <ConfOneFourInteractionScore>
-0.957364 

> <ConfScore>
0.22764 

> <ConfScorePBest>
0.00282122 

> <ConfTolerance>
0.645339 

> <RosettaParamsInstructions>
M  ROOT 3
M  POLY_N_BB 3
M  POLY_CA_BB 4
M  POLY_C_BB 2
M  POLY_O_BB 5
M  POLY_IGNORE 9 10 11 12 13 14 15 16 17 18 
M  POLY_UPPER 6
M  POLY_LOWER 8
M  POLY_CHG 0
M  POLY_PROPERTIES ALPHA_AA L_AA PROTEIN AROMATIC POLYMER 
M  END

$$$$



 32 32  0  0  0  0  0  0  0  0999 V2000
    0.4976    3.2020    0.6393 H   0  0  0  1  0  0  0  0  0  0  0  0
    0.4086    1.1077    0.6736 C   0  0  0  1  0  0  0  0  0  0  0  0
   -0.6178    2.6100   -0.9758 N   0  0  0  1  0  0  0  0  0  0  0  0
   -0.2405    2.4586    0.4215 C   0  0  0  1  0  0  0  0  0  0  0  0
    0.3924    0.6049    1.7960 O   0  0  0  1  0  0  0  0  0  0  0  0
    0.8958    0.5088   -0.4184 N   0  0  0  1  0  0  0  0  0  0  0  0
   -0.2575    3.3668   -1.4836 H   0  0  0  1  0  0  0  0  0  0  0  0
   -1.4383    1.7532   -1.5904 C   0  0  0  1  0  0  0  0  0  0  0  0
    1.6257   -0.7502   -0.4227 C   0  0  0  1  0  0  0  0  0  0  0  0
   -1.8000    2.0991   -3.0217 C   0  0  0  1  0  0  0  0  0  0  0  0
   -1.8820    0.7430   -1.0461 O   0  0  0  1  0  0  0  0  0  0  0  0
    0.7504    0.9512   -1.2808 H   0  0  0  1  0  0  0  0  0  0  0  0
    1.2832   -1.3643    0.3839 H   0  0  0  1  0  0  0  0  0  0  0  0
    2.6713   -0.5564   -0.3040 H   0  0  0  1  0  0  0  0  0  0  0  0
    1.4592   -1.2555   -1.3510 H   0  0  0  1  0  0  0  0  0  0  0  0
   -0.9187    2.3955   -3.5512 H   0  0  0  1  0  0  0  0  0  0  0  0
   -2.5059    2.9032   -3.0266 H   0  0  0  1  0  0  0  0  0  0  0  0
   -2.2306    1.2429   -3.4974 H   0  0  0  1  0  0  0  0  0  0  0  0
   -4.4293    8.0064    0.4488 Br  0  0  0  1  0  0  0  0  0  0  0  0
   -3.4402    6.4147    0.6945 C   0  0  0  1  0  0  0  0  0  0  0  0
   -2.9381    6.1009    1.9479 C   0  0  0  1  0  0  0  0  0  0  0  0
   -2.2824    4.9010    2.1493 C   0  0  0  1  0  0  0  0  0  0  0  0
   -2.1315    4.0091    1.0990 C   0  0  0  1  0  0  0  0  0  0  0  0
   -2.6320    4.3218   -0.1508 C   0  0  0  1  0  0  0  0  0  0  0  0
   -3.2897    5.5252   -0.3526 C   0  0  0  1  0  0  0  0  0  0  0  0
   -1.4121    2.7100    1.3751 C   0  0  0  1  0  0  0  0  0  0  0  0
   -3.0549    6.7683    2.7368 H   0  0  0  1  0  0  0  0  0  0  0  0
   -1.9022    4.6674    3.0887 H   0  0  0  1  0  0  0  0  0  0  0  0
   -2.5152    3.6543   -0.9397 H   0  0  0  1  0  0  0  0  0  0  0  0
   -3.6699    5.7589   -1.2920 H   0  0  0  1  0  0  0  0  0  0  0  0
   -1.0366    2.7349    2.3768 H   0  0  0  1  0  0  0  0  0  0  0  0
   -2.1109    1.9058    1.2755 H   0  0  0  1  0  0  0  0  0  0  0  0
  1  4  1  0  0  0  0
  2  4  1  0  0  0  0
  2  5  2  0  0  0  0
  2  6  1  0  0  0  0
  3  4  1  0  0  0  0
  3  7  1  0  0  0  0
  3  8  1  0  0  0  0
  4 26  1  0  0  0  0
  6  9  1  0  0  0  0
  6 12  1  0  0  0  0
  8 10  1  0  0  0  0
  8 11  2  0  0  0  0
  9 13  1  0  0  0  0
  9 14  1  0  0  0  0
  9 15  1  0  0  0  0
 10 16  1  0  0  0  0
 10 17  1  0  0  0  0
 10 18  1  0  0  0  0
 19 20  1  0  0  0  0
 20 21  4  0  0  0  0
 20 25  4  0  0  0  0
 21 22  4  0  0  0  0
 21 27  1  0  0  0  0
 22 23  4  0  0  0  0
 22 28  1  0  0  0  0
 23 24  4  0  0  0  0
 23 26  1  0  0  0  0
 24 25  4  0  0  0  0
 24 29  1  0  0  0  0
 25 30  1  0  0  0  0
 26 31  1  0  0  0  0
 26 32  1  0  0  0  0
M  END
> <BCLConfClusterSize>
1

> <ConfClashScore>
0 

> <ConfOneFourInteractionScore>
-0.938696 

> <ConfScore>
0.230008 

> <ConfScorePBest>
0.00279274 

> <ConfTolerance>
0.594327 

> <RosettaParamsInstructions>
M  ROOT 3
M  POLY_N_BB 3
M  POLY_CA_BB 4
M  POLY_C_BB 2
M  POLY_O_BB 5
M  POLY_IGNORE 9 10 11 12 13 14 15 16 17 18 
M  POLY_UPPER 6
M  POLY_LOWER 8
M  POLY_CHG 0
M  POLY_PROPERTIES ALPHA_AA L_AA PROTEIN AROMATIC POLYMER 
M  END

$$$$



 32 32  0  0  0  0  0  0  0  0999 V2000
    0.4086    3.6273    1.7953 H   0  0  0  1  0  0  0  0  0  0  0  0
    0.8687    1.5899    1.6740 C   0  0  0  1  0  0  0  0  0  0  0  0
    0.5190    3.1165   -0.1897 N   0  0  0  1  0  0  0  0  0  0  0  0
    0.1024    2.8067    1.1807 C   0  0  0  1  0  0  0  0  0  0  0  0
    1.4596    0.8583    0.8812 O   0  0  0  1  0  0  0  0  0  0  0  0
    0.9083    1.4549    3.0071 N   0  0  0  1  0  0  0  0  0  0  0  0
    1.0899    3.8938   -0.3633 H   0  0  0  1  0  0  0  0  0  0  0  0
    0.1095    2.3167   -1.2351 C   0  0  0  1  0  0  0  0  0  0  0  0
    1.5304    0.3095    3.6544 C   0  0  0  1  0  0  0  0  0  0  0  0
    0.5758    2.7324   -2.6021 C   0  0  0  1  0  0  0  0  0  0  0  0
   -0.5873    1.3415   -1.0210 O   0  0  0  1  0  0  0  0  0  0  0  0
    0.5043    2.1518    3.5653 H   0  0  0  1  0  0  0  0  0  0  0  0
    0.9607   -0.5717    3.4455 H   0  0  0  1  0  0  0  0  0  0  0  0
    1.5620    0.4713    4.7116 H   0  0  0  1  0  0  0  0  0  0  0  0
    2.5260    0.1869    3.2819 H   0  0  0  1  0  0  0  0  0  0  0  0
    1.4000    2.1186   -2.9003 H   0  0  0  1  0  0  0  0  0  0  0  0
    0.8847    3.7565   -2.5771 H   0  0  0  1  0  0  0  0  0  0  0  0
   -0.2254    2.6180   -3.3020 H   0  0  0  1  0  0  0  0  0  0  0  0
   -4.4301    8.0052    0.4437 Br  0  0  0  1  0  0  0  0  0  0  0  0
   -3.4402    6.4149    0.6951 C   0  0  0  1  0  0  0  0  0  0  0  0
   -2.9395    6.1049    1.9500 C   0  0  0  1  0  0  0  0  0  0  0  0
   -2.2831    4.9061    2.1555 C   0  0  0  1  0  0  0  0  0  0  0  0
   -2.1302    4.0114    1.1079 C   0  0  0  1  0  0  0  0  0  0  0  0
   -2.6293    4.3203   -0.1435 C   0  0  0  1  0  0  0  0  0  0  0  0
   -3.2876    5.5227   -0.3494 C   0  0  0  1  0  0  0  0  0  0  0  0
   -1.4180    2.6985    1.3331 C   0  0  0  1  0  0  0  0  0  0  0  0
   -3.0578    6.7744    2.7369 H   0  0  0  1  0  0  0  0  0  0  0  0
   -1.9040    4.6754    3.0960 H   0  0  0  1  0  0  0  0  0  0  0  0
   -2.5109    3.6507   -0.9304 H   0  0  0  1  0  0  0  0  0  0  0  0
   -3.6667    5.7534   -1.2900 H   0  0  0  1  0  0  0  0  0  0  0  0
   -1.6376    2.3575    2.3232 H   0  0  0  1  0  0  0  0  0  0  0  0
   -1.7819    1.9872    0.6214 H   0  0  0  1  0  0  0  0  0  0  0  0
  1  4  1  0  0  0  0
  2  4  1  0  0  0  0
  2  5  2  0  0  0  0
  2  6  1  0  0  0  0
  3  4  1  0  0  0  0
  3  7  1  0  0  0  0
  3  8  1  0  0  0  0
  4 26  1  0  0  0  0
  6  9  1  0  0  0  0
  6 12  1  0  0  0  0
  8 10  1  0  0  0  0
  8 11  2  0  0  0  0
  9 13  1  0  0  0  0
  9 14  1  0  0  0  0
  9 15  1  0  0  0  0
 10 16  1  0  0  0  0
 10 17  1  0  0  0  0
 10 18  1  0  0  0  0
 19 20  1  0  0  0  0
 20 21  4  0  0  0  0
 20 25  4  0  0  0  0
 21 22  4  0  0  0  0
 21 27  1  0  0  0  0
 22 23  4  0  0  0  0
 22 28  1  0  0  0  0
 23 24  4  0  0  0  0
 23 26  1  0  0  0  0
 24 25  4  0  0  0  0
 24 29  1  0  0  0  0
 25 30  1  0  0  0  0
 26 31  1  0  0  0  0
 26 32  1  0  0  0  0
M  END
> <BCLConfClusterSize>
1

> <ConfClashScore>
0 

> <ConfOneFourInteractionScore>
-0.986088 

> <ConfScore>
0.235315 

> <ConfScorePBest>
0.00276426 

> <ConfTolerance>
0.369685 

> <RosettaParamsInstructions>
M  ROOT 3
M  POLY_N_BB 3
M  POLY_CA_BB 4
M  POLY_C_BB 2
M  POLY_O_BB 5
M  POLY_IGNORE 9 10 11 12 13 14 15 16 17 18 
M  POLY_UPPER 6
M  POLY_LOWER 8
M  POLY_CHG 0
M  POLY_PROPERTIES ALPHA_AA L_AA PROTEIN AROMATIC POLYMER 
M  END

$$$$



 32 32  0  0  0  0  0  0  0  0999 V2000
   -0.3333    1.1890    0.3458 H   0  0  0  1  0  0  0  0  0  0  0  0
   -2.3022    1.1912   -0.4244 C   0  0  0  1  0  0  0  0  0  0  0  0
   -0.4753    2.7849   -0.9497 N   0  0  0  1  0  0  0  0  0  0  0  0
   -1.0569    1.9287    0.0733 C   0  0  0  1  0  0  0  0  0  0  0  0
   -3.1334    1.7558   -1.1339 O   0  0  0  1  0  0  0  0  0  0  0  0
   -2.3835   -0.1084   -0.1195 N   0  0  0  1  0  0  0  0  0  0  0  0
   -0.5392    3.7572   -0.8451 H   0  0  0  1  0  0  0  0  0  0  0  0
    0.1489    2.2866   -2.0371 C   0  0  0  1  0  0  0  0  0  0  0  0
   -3.4997   -0.9387   -0.5466 C   0  0  0  1  0  0  0  0  0  0  0  0
    0.6154    3.2590   -3.0968 C   0  0  0  1  0  0  0  0  0  0  0  0
    0.3341    1.0771   -2.1651 O   0  0  0  1  0  0  0  0  0  0  0  0
   -1.6665   -0.5157    0.4100 H   0  0  0  1  0  0  0  0  0  0  0  0
   -4.4037   -0.5784   -0.1017 H   0  0  0  1  0  0  0  0  0  0  0  0
   -3.3298   -1.9496   -0.2397 H   0  0  0  1  0  0  0  0  0  0  0  0
   -3.5864   -0.8987   -1.6123 H   0  0  0  1  0  0  0  0  0  0  0  0
    0.2218    2.9667   -4.0479 H   0  0  0  1  0  0  0  0  0  0  0  0
    1.6847    3.2559   -3.1373 H   0  0  0  1  0  0  0  0  0  0  0  0
    0.2700    4.2424   -2.8550 H   0  0  0  1  0  0  0  0  0  0  0  0
   -4.4301    8.0052    0.4437 Br  0  0  0  1  0  0  0  0  0  0  0  0
   -3.4402    6.4149    0.6951 C   0  0  0  1  0  0  0  0  0  0  0  0
   -2.9395    6.1049    1.9500 C   0  0  0  1  0  0  0  0  0  0  0  0
   -2.2831    4.9061    2.1555 C   0  0  0  1  0  0  0  0  0  0  0  0
   -2.1302    4.0114    1.1079 C   0  0  0  1  0  0  0  0  0  0  0  0
   -2.6293    4.3203   -0.1435 C   0  0  0  1  0  0  0  0  0  0  0  0
   -3.2876    5.5227   -0.3494 C   0  0  0  1  0  0  0  0  0  0  0  0
   -1.4180    2.6985    1.3331 C   0  0  0  1  0  0  0  0  0  0  0  0
   -3.0578    6.7744    2.7369 H   0  0  0  1  0  0  0  0  0  0  0  0
   -1.9040    4.6754    3.0960 H   0  0  0  1  0  0  0  0  0  0  0  0
   -2.5109    3.6507   -0.9304 H   0  0  0  1  0  0  0  0  0  0  0  0
   -3.6667    5.7534   -1.2900 H   0  0  0  1  0  0  0  0  0  0  0  0
   -0.5131    2.9012    1.8669 H   0  0  0  1  0  0  0  0  0  0  0  0
   -2.0528    2.0768    1.9293 H   0  0  0  1  0  0  0  0  0  0  0  0
  1  4  1  0  0  0  0
  2  4  1  0  0  0  0
  2  5  2  0  0  0  0
  2  6  1  0  0  0  0
  3  4  1  0  0  0  0
  3  7  1  0  0  0  0
  3  8  1  0  0  0  0
  4 26  1  0  0  0  0
  6  9  1  0  0  0  0
  6 12  1  0  0  0  0
  8 10  1  0  0  0  0
  8 11  2  0  0  0  0
  9 13  1  0  0  0  0
  9 14  1  0  0  0  0
  9 15  1  0  0  0  0
 10 16  1  0  0  0  0
 10 17  1  0  0  0  0
 10 18  1  0  0  0  0
 19 20  1  0  0  0  0
 20 21  4  0  0  0  0
 20 25  4  0  0  0  0
 21 22  4  0  0  0  0
 21 27  1  0  0  0  0
 22 23  4  0  0  0  0
 22 28  1  0  0  0  0
 23 24  4  0  0  0  0
 23 26  1  0  0  0  0
 24 25  4  0  0  0  0
 24 29  1  0  0  0  0
 25 30  1  0  0  0  0
 26 31  1  0  0  0  0
 26 32  1  0  0  0  0
M  END
> <BCLConfClusterSize>
1

> <ConfClashScore>
0 

> <ConfOneFourInteractionScore>
-0.968652 

> <ConfScore>
0.26799 

> <ConfScorePBest>
0.00273578 

> <ConfTolerance>
0.832787 

> <RosettaParamsInstructions>
M  ROOT 3
M  POLY_N_BB 3
M  POLY_CA_BB 4
M  POLY_C_BB 2
M  POLY_O_BB 5
M  POLY_IGNORE 9 10 11 12 13 14 15 16 17 18 
M  POLY_UPPER 6
M  POLY_LOWER 8
M  POLY_CHG 0
M  POLY_PROPERTIES ALPHA_AA L_AA PROTEIN AROMATIC POLYMER 
M  END

$$$$



 32 32  0  0  0  0  0  0  0  0999 V2000
   -1.7525    2.6575    3.4187 H   0  0  0  1  0  0  0  0  0  0  0  0
   -0.7019    0.9016    2.8638 C   0  0  0  1  0  0  0  0  0  0  0  0
    0.2145    3.1656    2.9961 N   0  0  0  1  0  0  0  0  0  0  0  0
   -0.9833    2.3866    2.7261 C   0  0  0  1  0  0  0  0  0  0  0  0
   -1.1504    0.0926    2.0531 O   0  0  0  1  0  0  0  0  0  0  0  0
    0.1239    0.5436    3.8529 N   0  0  0  1  0  0  0  0  0  0  0  0
    0.1755    3.9234    3.6162 H   0  0  0  1  0  0  0  0  0  0  0  0
    1.3681    2.8504    2.4004 C   0  0  0  1  0  0  0  0  0  0  0  0
    0.5275   -0.8382    4.0668 C   0  0  0  1  0  0  0  0  0  0  0  0
    2.5578    3.7248    2.7902 C   0  0  0  1  0  0  0  0  0  0  0  0
    1.4785    1.9761    1.5419 O   0  0  0  1  0  0  0  0  0  0  0  0
    0.4693    1.2358    4.4546 H   0  0  0  1  0  0  0  0  0  0  0  0
   -0.3425   -1.4550    4.1540 H   0  0  0  1  0  0  0  0  0  0  0  0
    1.1039   -0.9060    4.9657 H   0  0  0  1  0  0  0  0  0  0  0  0
    1.1177   -1.1694    3.2381 H   0  0  0  1  0  0  0  0  0  0  0  0
    2.9556    3.3903    3.7254 H   0  0  0  1  0  0  0  0  0  0  0  0
    2.2377    4.7417    2.8822 H   0  0  0  1  0  0  0  0  0  0  0  0
    3.3136    3.6551    2.0360 H   0  0  0  1  0  0  0  0  0  0  0  0
   -4.4494    7.9934    0.4454 Br  0  0  0  1  0  0  0  0  0  0  0  0
   -3.4439    6.4129    0.6966 C   0  0  0  1  0  0  0  0  0  0  0  0
   -2.9388    6.1084    1.9511 C   0  0  0  1  0  0  0  0  0  0  0  0
   -2.2707    4.9161    2.1565 C   0  0  0  1  0  0  0  0  0  0  0  0
   -2.1103    4.0223    1.1093 C   0  0  0  1  0  0  0  0  0  0  0  0
   -2.6139    4.3256   -0.1416 C   0  0  0  1  0  0  0  0  0  0  0  0
   -3.2840    5.5215   -0.3475 C   0  0  0  1  0  0  0  0  0  0  0  0
   -1.4790    2.6659    1.3166 C   0  0  0  1  0  0  0  0  0  0  0  0
   -3.0627    6.7773    2.7378 H   0  0  0  1  0  0  0  0  0  0  0  0
   -1.8883    4.6896    3.0968 H   0  0  0  1  0  0  0  0  0  0  0  0
   -2.4900    3.6568   -0.9283 H   0  0  0  1  0  0  0  0  0  0  0  0
   -3.6664    5.7481   -1.2878 H   0  0  0  1  0  0  0  0  0  0  0  0
   -2.2070    1.9217    1.0693 H   0  0  0  1  0  0  0  0  0  0  0  0
   -0.6450    2.5848    0.6513 H   0  0  0  1  0  0  0  0  0  0  0  0
  1  4  1  0  0  0  0
  2  4  1  0  0  0  0
  2  5  2  0  0  0  0
  2  6  1  0  0  0  0
  3  4  1  0  0  0  0
  3  7  1  0  0  0  0
  3  8  1  0  0  0  0
  4 26  1  0  0  0  0
  6  9  1  0  0  0  0
  6 12  1  0  0  0  0
  8 10  1  0  0  0  0
  8 11  2  0  0  0  0
  9 13  1  0  0  0  0
  9 14  1  0  0  0  0
  9 15  1  0  0  0  0
 10 16  1  0  0  0  0
 10 17  1  0  0  0  0
 10 18  1  0  0  0  0
 19 20  1  0  0  0  0
 20 21  4  0  0  0  0
 20 25  4  0  0  0  0
 21 22  4  0  0  0  0
 21 27  1  0  0  0  0
 22 23  4  0  0  0  0
 22 28  1  0  0  0  0
 23 24  4  0  0  0  0
 23 26  1  0  0  0  0
 24 25  4  0  0  0  0
 24 29  1  0  0  0  0
 25 30  1  0  0  0  0
 26 31  1  0  0  0  0
 26 32  1  0  0  0  0
M  END
> <BCLConfClusterSize>
1

> <ConfClashScore>
0 

> <ConfOneFourInteractionScore>
-0.946047 

> <ConfScore>
0.269973 

> <ConfScorePBest>
0.0027073 

> <ConfTolerance>
0.793637 

> <RosettaParamsInstructions>
M  ROOT 3
M  POLY_N_BB 3
M  POLY_CA_BB 4
M  POLY_C_BB 2
M  POLY_O_BB 5
M  POLY_IGNORE 9 10 11 12 13 14 15 16 17 18 
M  POLY_UPPER 6
M  POLY_LOWER 8
M  POLY_CHG 0
M  POLY_PROPERTIES ALPHA_AA L_AA PROTEIN AROMATIC POLYMER 
M  END

$$$$



 32 32  0  0  0  0  0  0  0  0999 V2000
    0.7072    2.3034    1.1479 H   0  0  0  1  0  0  0  0  0  0  0  0
   -0.1618    1.7945   -0.7103 C   0  0  0  1  0  0  0  0  0  0  0  0
    0.2866    4.0560    0.1353 N   0  0  0  1  0  0  0  0  0  0  0  0
   -0.0594    2.6934    0.5114 C   0  0  0  1  0  0  0  0  0  0  0  0
   -0.9588    2.0670   -1.6067 O   0  0  0  1  0  0  0  0  0  0  0  0
    0.7025    0.7766   -0.7837 N   0  0  0  1  0  0  0  0  0  0  0  0
   -0.2932    4.5349   -0.4931 H   0  0  0  1  0  0  0  0  0  0  0  0
    1.3672    4.6767    0.6168 C   0  0  0  1  0  0  0  0  0  0  0  0
    0.8067   -0.0713   -1.9618 C   0  0  0  1  0  0  0  0  0  0  0  0
    1.6520    6.0853    0.0949 C   0  0  0  1  0  0  0  0  0  0  0  0
    2.1577    4.1265    1.3823 O   0  0  0  1  0  0  0  0  0  0  0  0
    1.2860    0.5955   -0.0175 H   0  0  0  1  0  0  0  0  0  0  0  0
   -0.1430   -0.1196   -2.4523 H   0  0  0  1  0  0  0  0  0  0  0  0
    1.1061   -1.0555   -1.6672 H   0  0  0  1  0  0  0  0  0  0  0  0
    1.5337    0.3375   -2.6321 H   0  0  0  1  0  0  0  0  0  0  0  0
    1.8888    6.0389   -0.9476 H   0  0  0  1  0  0  0  0  0  0  0  0
    2.4790    6.5033    0.6299 H   0  0  0  1  0  0  0  0  0  0  0  0
    0.7875    6.6997    0.2370 H   0  0  0  1  0  0  0  0  0  0  0  0
   -4.4115    8.0150    0.4374 Br  0  0  0  1  0  0  0  0  0  0  0  0
   -3.4362    6.4166    0.6942 C   0  0  0  1  0  0  0  0  0  0  0  0
   -2.9412    6.1046    1.9508 C   0  0  0  1  0  0  0  0  0  0  0  0
   -2.2959    4.9005    2.1601 C   0  0  0  1  0  0  0  0  0  0  0  0
   -2.1483    4.0024    1.1146 C   0  0  0  1  0  0  0  0  0  0  0  0
   -2.6417    4.3133   -0.1385 C   0  0  0  1  0  0  0  0  0  0  0  0
   -3.2890    5.5210   -0.3483 C   0  0  0  1  0  0  0  0  0  0  0  0
   -1.3660    2.7252    1.3104 C   0  0  0  1  0  0  0  0  0  0  0  0
   -3.0554    6.7766    2.7362 H   0  0  0  1  0  0  0  0  0  0  0  0
   -1.9210    4.6682    3.1020 H   0  0  0  1  0  0  0  0  0  0  0  0
   -2.5275    3.6412   -0.9239 H   0  0  0  1  0  0  0  0  0  0  0  0
   -3.6639    5.7533   -1.2901 H   0  0  0  1  0  0  0  0  0  0  0  0
   -1.1322    2.6250    2.3497 H   0  0  0  1  0  0  0  0  0  0  0  0
   -1.9750    1.9019    1.0003 H   0  0  0  1  0  0  0  0  0  0  0  0
  1  4  1  0  0  0  0
  2  4  1  0  0  0  0
  2  5  2  0  0  0  0
  2  6  1  0  0  0  0
  3  4  1  0  0  0  0
  3  7  1  0  0  0  0
  3  8  1  0  0  0  0
  4 26  1  0  0  0  0
  6  9  1  0  0  0  0
  6 12  1  0  0  0  0
  8 10  1  0  0  0  0
  8 11  2  0  0  0  0
  9 13  1  0  0  0  0
  9 14  1  0  0  0  0
  9 15  1  0  0  0  0
 10 16  1  0  0  0  0
 10 17  1  0  0  0  0
 10 18  1  0  0  0  0
 19 20  1  0  0  0  0
 20 21  4  0  0  0  0
 20 25  4  0  0  0  0
 21 22  4  0  0  0  0
 21 27  1  0  0  0  0
 22 23  4  0  0  0  0
 22 28  1  0  0  0  0
 23 24  4  0  0  0  0
 23 26  1  0  0  0  0
 24 25  4  0  0  0  0
 24 29  1  0  0  0  0
 25 30  1  0  0  0  0
 26 31  1  0  0  0  0
 26 32  1  0  0  0  0
M  END
> <BCLConfClusterSize>
1

> <ConfClashScore>
0 

> <ConfOneFourInteractionScore>
-0.967251 

> <ConfScore>
0.279499 

> <ConfScorePBest>
0.00267882 

> <ConfTolerance>
0.984168 

> <RosettaParamsInstructions>
M  ROOT 3
M  POLY_N_BB 3
M  POLY_CA_BB 4
M  POLY_C_BB 2
M  POLY_O_BB 5
M  POLY_IGNORE 9 10 11 12 13 14 15 16 17 18 
M  POLY_UPPER 6
M  POLY_LOWER 8
M  POLY_CHG 0
M  POLY_PROPERTIES ALPHA_AA L_AA PROTEIN AROMATIC POLYMER 
M  END

$$$$



 32 32  0  0  0  0  0  0  0  0999 V2000
   -3.1573    2.1850    2.4228 H   0  0  0  1  0  0  0  0  0  0  0  0
   -3.0193    0.7739    0.8616 C   0  0  0  1  0  0  0  0  0  0  0  0
   -1.6142    0.9003    2.9234 N   0  0  0  1  0  0  0  0  0  0  0  0
   -2.3740    1.6560    1.9213 C   0  0  0  1  0  0  0  0  0  0  0  0
   -2.5026   -0.2940    0.5364 O   0  0  0  1  0  0  0  0  0  0  0  0
   -4.1976    1.2150    0.4084 N   0  0  0  1  0  0  0  0  0  0  0  0
   -0.6677    0.6983    2.7692 H   0  0  0  1  0  0  0  0  0  0  0  0
   -2.2157    0.4830    4.0566 C   0  0  0  1  0  0  0  0  0  0  0  0
   -5.0460    0.5041   -0.5364 C   0  0  0  1  0  0  0  0  0  0  0  0
   -1.4029   -0.3469    5.0312 C   0  0  0  1  0  0  0  0  0  0  0  0
   -3.3871    0.7655    4.2942 O   0  0  0  1  0  0  0  0  0  0  0  0
   -4.5136    2.0824    0.7374 H   0  0  0  1  0  0  0  0  0  0  0  0
   -5.0154    0.9975   -1.4853 H   0  0  0  1  0  0  0  0  0  0  0  0
   -6.0523    0.4924   -0.1730 H   0  0  0  1  0  0  0  0  0  0  0  0
   -4.6940   -0.5005   -0.6455 H   0  0  0  1  0  0  0  0  0  0  0  0
   -0.9147   -1.1400    4.5043 H   0  0  0  1  0  0  0  0  0  0  0  0
   -2.0516   -0.7596    5.7753 H   0  0  0  1  0  0  0  0  0  0  0  0
   -0.6688    0.2734    5.5016 H   0  0  0  1  0  0  0  0  0  0  0  0
   -4.4301    8.0052    0.4437 Br  0  0  0  1  0  0  0  0  0  0  0  0
   -3.4402    6.4149    0.6951 C   0  0  0  1  0  0  0  0  0  0  0  0
   -2.9395    6.1049    1.9500 C   0  0  0  1  0  0  0  0  0  0  0  0
   -2.2831    4.9061    2.1555 C   0  0  0  1  0  0  0  0  0  0  0  0
   -2.1302    4.0114    1.1079 C   0  0  0  1  0  0  0  0  0  0  0  0
   -2.6293    4.3203   -0.1435 C   0  0  0  1  0  0  0  0  0  0  0  0
   -3.2876    5.5227   -0.3494 C   0  0  0  1  0  0  0  0  0  0  0  0
   -1.4180    2.6985    1.3331 C   0  0  0  1  0  0  0  0  0  0  0  0
   -3.0578    6.7744    2.7369 H   0  0  0  1  0  0  0  0  0  0  0  0
   -1.9040    4.6754    3.0960 H   0  0  0  1  0  0  0  0  0  0  0  0
   -2.5109    3.6507   -0.9304 H   0  0  0  1  0  0  0  0  0  0  0  0
   -3.6667    5.7534   -1.2900 H   0  0  0  1  0  0  0  0  0  0  0  0
   -1.0396    2.3398    0.3987 H   0  0  0  1  0  0  0  0  0  0  0  0
   -0.6055    2.8521    2.0122 H   0  0  0  1  0  0  0  0  0  0  0  0
  1  4  1  0  0  0  0
  2  4  1  0  0  0  0
  2  5  2  0  0  0  0
  2  6  1  0  0  0  0
  3  4  1  0  0  0  0
  3  7  1  0  0  0  0
  3  8  1  0  0  0  0
  4 26  1  0  0  0  0
  6  9  1  0  0  0  0
  6 12  1  0  0  0  0
  8 10  1  0  0  0  0
  8 11  2  0  0  0  0
  9 13  1  0  0  0  0
  9 14  1  0  0  0  0
  9 15  1  0  0  0  0
 10 16  1  0  0  0  0
 10 17  1  0  0  0  0
 10 18  1  0  0  0  0
 19 20  1  0  0  0  0
 20 21  4  0  0  0  0
 20 25  4  0  0  0  0
 21 22  4  0  0  0  0
 21 27  1  0  0  0  0
 22 23  4  0  0  0  0
 22 28  1  0  0  0  0
 23 24  4  0  0  0  0
 23 26  1  0  0  0  0
 24 25  4  0  0  0  0
 24 29  1  0  0  0  0
 25 30  1  0  0  0  0
 26 31  1  0  0  0  0
 26 32  1  0  0  0  0
M  END
> <BCLConfClusterSize>
1

> <ConfClashScore>
0 

> <ConfOneFourInteractionScore>
-0.970447 

> <ConfScore>
0.30198 

> <ConfScorePBest>
0.00265034 

> <ConfTolerance>
0.719654 

> <RosettaParamsInstructions>
M  ROOT 3
M  POLY_N_BB 3
M  POLY_CA_BB 4
M  POLY_C_BB 2
M  POLY_O_BB 5
M  POLY_IGNORE 9 10 11 12 13 14 15 16 17 18 
M  POLY_UPPER 6
M  POLY_LOWER 8
M  POLY_CHG 0
M  POLY_PROPERTIES ALPHA_AA L_AA PROTEIN AROMATIC POLYMER 
M  END

$$$$



 32 32  0  0  0  0  0  0  0  0999 V2000
   -2.7085    1.9565    2.8532 H   0  0  0  1  0  0  0  0  0  0  0  0
   -3.5491    1.4109    1.0095 C   0  0  0  1  0  0  0  0  0  0  0  0
   -1.6386    0.3583    2.1425 N   0  0  0  1  0  0  0  0  0  0  0  0
   -2.3383    1.6130    1.9099 C   0  0  0  1  0  0  0  0  0  0  0  0
   -4.5614    2.0934    1.1590 O   0  0  0  1  0  0  0  0  0  0  0  0
   -3.3733    0.5203    0.0274 N   0  0  0  1  0  0  0  0  0  0  0  0
   -1.7578   -0.3561    1.4823 H   0  0  0  1  0  0  0  0  0  0  0  0
   -0.8474    0.1073    3.1866 C   0  0  0  1  0  0  0  0  0  0  0  0
   -4.3219    0.1546   -1.0139 C   0  0  0  1  0  0  0  0  0  0  0  0
   -0.2770   -1.3055    3.2615 C   0  0  0  1  0  0  0  0  0  0  0  0
   -0.5831    0.9488    4.0444 O   0  0  0  1  0  0  0  0  0  0  0  0
   -2.5074    0.0619    0.0066 H   0  0  0  1  0  0  0  0  0  0  0  0
   -5.3013    0.0703   -0.5913 H   0  0  0  1  0  0  0  0  0  0  0  0
   -4.0366   -0.7835   -1.4423 H   0  0  0  1  0  0  0  0  0  0  0  0
   -4.3251    0.9080   -1.7737 H   0  0  0  1  0  0  0  0  0  0  0  0
    0.7501   -1.2608    3.5583 H   0  0  0  1  0  0  0  0  0  0  0  0
   -0.3504   -1.7708    2.3007 H   0  0  0  1  0  0  0  0  0  0  0  0
   -0.8305   -1.8759    3.9778 H   0  0  0  1  0  0  0  0  0  0  0  0
   -4.4293    8.0064    0.4488 Br  0  0  0  1  0  0  0  0  0  0  0  0
   -3.4402    6.4147    0.6945 C   0  0  0  1  0  0  0  0  0  0  0  0
   -2.9381    6.1009    1.9479 C   0  0  0  1  0  0  0  0  0  0  0  0
   -2.2824    4.9010    2.1493 C   0  0  0  1  0  0  0  0  0  0  0  0
   -2.1315    4.0091    1.0990 C   0  0  0  1  0  0  0  0  0  0  0  0
   -2.6320    4.3218   -0.1508 C   0  0  0  1  0  0  0  0  0  0  0  0
   -3.2897    5.5252   -0.3526 C   0  0  0  1  0  0  0  0  0  0  0  0
   -1.4121    2.7100    1.3751 C   0  0  0  1  0  0  0  0  0  0  0  0
   -3.0549    6.7683    2.7368 H   0  0  0  1  0  0  0  0  0  0  0  0
   -1.9022    4.6674    3.0887 H   0  0  0  1  0  0  0  0  0  0  0  0
   -2.5152    3.6543   -0.9397 H   0  0  0  1  0  0  0  0  0  0  0  0
   -3.6699    5.7589   -1.2920 H   0  0  0  1  0  0  0  0  0  0  0  0
   -0.9677    2.3665    0.4644 H   0  0  0  1  0  0  0  0  0  0  0  0
   -0.6462    2.8922    2.0998 H   0  0  0  1  0  0  0  0  0  0  0  0
  1  4  1  0  0  0  0
  2  4  1  0  0  0  0
  2  5  2  0  0  0  0
  2  6  1  0  0  0  0
  3  4  1  0  0  0  0
  3  7  1  0  0  0  0
  3  8  1  0  0  0  0
  4 26  1  0  0  0  0
  6  9  1  0  0  0  0
  6 12  1  0  0  0  0
  8 10  1  0  0  0  0
  8 11  2  0  0  0  0
  9 13  1  0  0  0  0
  9 14  1  0  0  0  0
  9 15  1  0  0  0  0
 10 16  1  0  0  0  0
 10 17  1  0  0  0  0
 10 18  1  0  0  0  0
 19 20  1  0  0  0  0
 20 21  4  0  0  0  0
 20 25  4  0  0  0  0
 21 22  4  0  0  0  0
 21 27  1  0  0  0  0
 22 23  4  0  0  0  0
 22 28  1  0  0  0  0
 23 24  4  0  0  0  0
 23 26  1  0  0  0  0
 24 25  4  0  0  0  0
 24 29  1  0  0  0  0
 25 30  1  0  0  0  0
 26 31  1  0  0  0  0
 26 32  1  0  0  0  0
M  END
> <BCLConfClusterSize>
1

> <ConfClashScore>
0 

> <ConfOneFourInteractionScore>
-0.965014 

> <ConfScore>
0.30523 

> <ConfScorePBest>
0.00262186 

> <ConfTolerance>
0.520069 

> <RosettaParamsInstructions>
M  ROOT 3
M  POLY_N_BB 3
M  POLY_CA_BB 4
M  POLY_C_BB 2
M  POLY_O_BB 5
M  POLY_IGNORE 9 10 11 12 13 14 15 16 17 18 
M  POLY_UPPER 6
M  POLY_LOWER 8
M  POLY_CHG 0
M  POLY_PROPERTIES ALPHA_AA L_AA PROTEIN AROMATIC POLYMER 
M  END

$$$$



 32 32  0  0  0  0  0  0  0  0999 V2000
    0.5393    1.8863    1.5781 H   0  0  0  1  0  0  0  0  0  0  0  0
    0.6238    3.4464    0.1228 C   0  0  0  1  0  0  0  0  0  0  0  0
    0.3968    3.7219    2.5531 N   0  0  0  1  0  0  0  0  0  0  0  0
    0.0975    2.8491    1.4277 C   0  0  0  1  0  0  0  0  0  0  0  0
    1.6367    4.1442    0.1328 O   0  0  0  1  0  0  0  0  0  0  0  0
   -0.0151    3.0993   -0.9996 N   0  0  0  1  0  0  0  0  0  0  0  0
    0.5777    4.6697    2.3815 H   0  0  0  1  0  0  0  0  0  0  0  0
    0.4336    3.2760    3.8120 C   0  0  0  1  0  0  0  0  0  0  0  0
    0.5561    3.4283   -2.2971 C   0  0  0  1  0  0  0  0  0  0  0  0
    0.7438    4.3165    4.8705 C   0  0  0  1  0  0  0  0  0  0  0  0
    0.2318    2.1022    4.1118 O   0  0  0  1  0  0  0  0  0  0  0  0
   -0.8697    2.6225   -0.9483 H   0  0  0  1  0  0  0  0  0  0  0  0
    1.6240    3.4012   -2.2345 H   0  0  0  1  0  0  0  0  0  0  0  0
    0.2409    4.4088   -2.5870 H   0  0  0  1  0  0  0  0  0  0  0  0
    0.2236    2.7167   -3.0237 H   0  0  0  1  0  0  0  0  0  0  0  0
    1.4255    5.0387    4.4724 H   0  0  0  1  0  0  0  0  0  0  0  0
    1.1858    3.8396    5.7203 H   0  0  0  1  0  0  0  0  0  0  0  0
   -0.1611    4.8053    5.1657 H   0  0  0  1  0  0  0  0  0  0  0  0
   -4.4301    8.0052    0.4437 Br  0  0  0  1  0  0  0  0  0  0  0  0
   -3.4402    6.4149    0.6951 C   0  0  0  1  0  0  0  0  0  0  0  0
   -2.9395    6.1049    1.9500 C   0  0  0  1  0  0  0  0  0  0  0  0
   -2.2831    4.9061    2.1555 C   0  0  0  1  0  0  0  0  0  0  0  0
   -2.1302    4.0114    1.1079 C   0  0  0  1  0  0  0  0  0  0  0  0
   -2.6293    4.3203   -0.1435 C   0  0  0  1  0  0  0  0  0  0  0  0
   -3.2876    5.5227   -0.3494 C   0  0  0  1  0  0  0  0  0  0  0  0
   -1.4180    2.6985    1.3331 C   0  0  0  1  0  0  0  0  0  0  0  0
   -3.0578    6.7744    2.7369 H   0  0  0  1  0  0  0  0  0  0  0  0
   -1.9040    4.6754    3.0960 H   0  0  0  1  0  0  0  0  0  0  0  0
   -2.5109    3.6507   -0.9304 H   0  0  0  1  0  0  0  0  0  0  0  0
   -3.6667    5.7534   -1.2900 H   0  0  0  1  0  0  0  0  0  0  0  0
   -1.7753    2.2695    2.2459 H   0  0  0  1  0  0  0  0  0  0  0  0
   -1.6450    2.0437    0.5179 H   0  0  0  1  0  0  0  0  0  0  0  0
  1  4  1  0  0  0  0
  2  4  1  0  0  0  0
  2  5  2  0  0  0  0
  2  6  1  0  0  0  0
  3  4  1  0  0  0  0
  3  7  1  0  0  0  0
  3  8  1  0  0  0  0
  4 26  1  0  0  0  0
  6  9  1  0  0  0  0
  6 12  1  0  0  0  0
  8 10  1  0  0  0  0
  8 11  2  0  0  0  0
  9 13  1  0  0  0  0
  9 14  1  0  0  0  0
  9 15  1  0  0  0  0
 10 16  1  0  0  0  0
 10 17  1  0  0  0  0
 10 18  1  0  0  0  0
 19 20  1  0  0  0  0
 20 21  4  0  0  0  0
 20 25  4  0  0  0  0
 21 22  4  0  0  0  0
 21 27  1  0  0  0  0
 22 23  4  0  0  0  0
 22 28  1  0  0  0  0
 23 24  4  0  0  0  0
 23 26  1  0  0  0  0
 24 25  4  0  0  0  0
 24 29  1  0  0  0  0
 25 30  1  0  0  0  0
 26 31  1  0  0  0  0
 26 32  1  0  0  0  0
M  END
> <BCLConfClusterSize>
1

> <ConfClashScore>
0 

> <ConfOneFourInteractionScore>
-0.927466 

> <ConfScore>
0.306451 

> <ConfScorePBest>
0.00259338 

> <ConfTolerance>
0.805654 

> <RosettaParamsInstructions>
M  ROOT 3
M  POLY_N_BB 3
M  POLY_CA_BB 4
M  POLY_C_BB 2
M  POLY_O_BB 5
M  POLY_IGNORE 9 10 11 12 13 14 15 16 17 18 
M  POLY_UPPER 6
M  POLY_LOWER 8
M  POLY_CHG 0
M  POLY_PROPERTIES ALPHA_AA L_AA PROTEIN AROMATIC POLYMER 
M  END

$$$$



 32 32  0  0  0  0  0  0  0  0999 V2000
   -0.3579    3.3924    3.0760 H   0  0  0  1  0  0  0  0  0  0  0  0
    0.5765    1.5896    2.5123 C   0  0  0  1  0  0  0  0  0  0  0  0
    0.8259    3.7371    1.4265 N   0  0  0  1  0  0  0  0  0  0  0  0
   -0.1108    2.8999    2.1587 C   0  0  0  1  0  0  0  0  0  0  0  0
    1.3821    1.0676    1.7433 O   0  0  0  1  0  0  0  0  0  0  0  0
    0.3225    1.0959    3.7289 N   0  0  0  1  0  0  0  0  0  0  0  0
    1.0981    4.6037    1.7945 H   0  0  0  1  0  0  0  0  0  0  0  0
    1.3183    3.3257    0.2482 C   0  0  0  1  0  0  0  0  0  0  0  0
    0.9677   -0.1087    4.2293 C   0  0  0  1  0  0  0  0  0  0  0  0
    2.3045    4.2654   -0.4383 C   0  0  0  1  0  0  0  0  0  0  0  0
    1.0612    2.2193   -0.2245 O   0  0  0  1  0  0  0  0  0  0  0  0
   -0.3205    1.5616    4.3035 H   0  0  0  1  0  0  0  0  0  0  0  0
    0.7657   -0.9238    3.5662 H   0  0  0  1  0  0  0  0  0  0  0  0
    0.5876   -0.3386    5.2027 H   0  0  0  1  0  0  0  0  0  0  0  0
    2.0242    0.0504    4.2868 H   0  0  0  1  0  0  0  0  0  0  0  0
    2.7452    4.9144    0.2894 H   0  0  0  1  0  0  0  0  0  0  0  0
    1.7888    4.8499   -1.1713 H   0  0  0  1  0  0  0  0  0  0  0  0
    3.0715    3.6911   -0.9146 H   0  0  0  1  0  0  0  0  0  0  0  0
   -4.4293    8.0064    0.4488 Br  0  0  0  1  0  0  0  0  0  0  0  0
   -3.4402    6.4147    0.6945 C   0  0  0  1  0  0  0  0  0  0  0  0
   -2.9381    6.1009    1.9479 C   0  0  0  1  0  0  0  0  0  0  0  0
   -2.2824    4.9010    2.1493 C   0  0  0  1  0  0  0  0  0  0  0  0
   -2.1315    4.0091    1.0990 C   0  0  0  1  0  0  0  0  0  0  0  0
   -2.6320    4.3218   -0.1508 C   0  0  0  1  0  0  0  0  0  0  0  0
   -3.2897    5.5252   -0.3526 C   0  0  0  1  0  0  0  0  0  0  0  0
   -1.4121    2.7100    1.3751 C   0  0  0  1  0  0  0  0  0  0  0  0
   -3.0549    6.7683    2.7368 H   0  0  0  1  0  0  0  0  0  0  0  0
   -1.9022    4.6674    3.0887 H   0  0  0  1  0  0  0  0  0  0  0  0
   -2.5152    3.6543   -0.9397 H   0  0  0  1  0  0  0  0  0  0  0  0
   -3.6699    5.7589   -1.2920 H   0  0  0  1  0  0  0  0  0  0  0  0
   -2.0610    2.0750    1.9414 H   0  0  0  1  0  0  0  0  0  0  0  0
   -1.1817    2.2429    0.4405 H   0  0  0  1  0  0  0  0  0  0  0  0
  1  4  1  0  0  0  0
  2  4  1  0  0  0  0
  2  5  2  0  0  0  0
  2  6  1  0  0  0  0
  3  4  1  0  0  0  0
  3  7  1  0  0  0  0
  3  8  1  0  0  0  0
  4 26  1  0  0  0  0
  6  9  1  0  0  0  0
  6 12  1  0  0  0  0
  8 10  1  0  0  0  0
  8 11  2  0  0  0  0
  9 13  1  0  0  0  0
  9 14  1  0  0  0  0
  9 15  1  0  0  0  0
 10 16  1  0  0  0  0
 10 17  1  0  0  0  0
 10 18  1  0  0  0  0
 19 20  1  0  0  0  0
 20 21  4  0  0  0  0
 20 25  4  0  0  0  0
 21 22  4  0  0  0  0
 21 27  1  0  0  0  0
 22 23  4  0  0  0  0
 22 28  1  0  0  0  0
 23 24  4  0  0  0  0
 23 26  1  0  0  0  0
 24 25  4  0  0  0  0
 24 29  1  0  0  0  0
 25 30  1  0  0  0  0
 26 31  1  0  0  0  0
 26 32  1  0  0  0  0
M  END
> <BCLConfClusterSize>
1

> <ConfClashScore>
0 

> <ConfOneFourInteractionScore>
-0.984592 

> <ConfScore>
0.308777 

> <ConfScorePBest>
0.0025649 

> <ConfTolerance>
0.64986 

> <RosettaParamsInstructions>
M  ROOT 3
M  POLY_N_BB 3
M  POLY_CA_BB 4
M  POLY_C_BB 2
M  POLY_O_BB 5
M  POLY_IGNORE 9 10 11 12 13 14 15 16 17 18 
M  POLY_UPPER 6
M  POLY_LOWER 8
M  POLY_CHG 0
M  POLY_PROPERTIES ALPHA_AA L_AA PROTEIN AROMATIC POLYMER 
M  END

$$$$



 32 32  0  0  0  0  0  0  0  0999 V2000
    0.5149    1.8942    1.3954 H   0  0  0  1  0  0  0  0  0  0  0  0
    0.7489    3.9723    1.1388 C   0  0  0  1  0  0  0  0  0  0  0  0
    0.1363    2.7754    3.2067 N   0  0  0  1  0  0  0  0  0  0  0  0
    0.0212    2.7719    1.7571 C   0  0  0  1  0  0  0  0  0  0  0  0
    0.8661    5.0150    1.7806 O   0  0  0  1  0  0  0  0  0  0  0  0
    1.3036    3.7866   -0.0638 N   0  0  0  1  0  0  0  0  0  0  0  0
   -0.6467    2.9814    3.7589 H   0  0  0  1  0  0  0  0  0  0  0  0
    1.3072    2.4983    3.7873 C   0  0  0  1  0  0  0  0  0  0  0  0
    1.9296    4.8701   -0.8068 C   0  0  0  1  0  0  0  0  0  0  0  0
    1.3339    2.6041    5.3067 C   0  0  0  1  0  0  0  0  0  0  0  0
    2.3021    2.1793    3.1573 O   0  0  0  1  0  0  0  0  0  0  0  0
    1.2881    2.8897   -0.4584 H   0  0  0  1  0  0  0  0  0  0  0  0
    2.3429    5.5807   -0.1220 H   0  0  0  1  0  0  0  0  0  0  0  0
    1.1969    5.3511   -1.4206 H   0  0  0  1  0  0  0  0  0  0  0  0
    2.7091    4.4751   -1.4242 H   0  0  0  1  0  0  0  0  0  0  0  0
    0.9666    3.5640    5.6044 H   0  0  0  1  0  0  0  0  0  0  0  0
    2.3385    2.4833    5.6548 H   0  0  0  1  0  0  0  0  0  0  0  0
    0.7155    1.8394    5.7282 H   0  0  0  1  0  0  0  0  0  0  0  0
   -4.4309    8.0037    0.4382 Br  0  0  0  1  0  0  0  0  0  0  0  0
   -3.4400    6.4150    0.6957 C   0  0  0  1  0  0  0  0  0  0  0  0
   -2.9409    6.1090    1.9522 C   0  0  0  1  0  0  0  0  0  0  0  0
   -2.2839    4.9114    2.1622 C   0  0  0  1  0  0  0  0  0  0  0  0
   -2.1287    4.0137    1.1174 C   0  0  0  1  0  0  0  0  0  0  0  0
   -2.6263    4.3185   -0.1355 C   0  0  0  1  0  0  0  0  0  0  0  0
   -3.2853    5.5198   -0.3459 C   0  0  0  1  0  0  0  0  0  0  0  0
   -1.4253    2.6879    1.2878 C   0  0  0  1  0  0  0  0  0  0  0  0
   -3.0609    6.7808    2.7370 H   0  0  0  1  0  0  0  0  0  0  0  0
   -1.9059    4.6837    3.1039 H   0  0  0  1  0  0  0  0  0  0  0  0
   -2.5063    3.6467   -0.9203 H   0  0  0  1  0  0  0  0  0  0  0  0
   -3.6632    5.7475   -1.2877 H   0  0  0  1  0  0  0  0  0  0  0  0
   -1.9726    2.1139    2.0060 H   0  0  0  1  0  0  0  0  0  0  0  0
   -1.4374    2.1842    0.3439 H   0  0  0  1  0  0  0  0  0  0  0  0
  1  4  1  0  0  0  0
  2  4  1  0  0  0  0
  2  5  2  0  0  0  0
  2  6  1  0  0  0  0
  3  4  1  0  0  0  0
  3  7  1  0  0  0  0
  3  8  1  0  0  0  0
  4 26  1  0  0  0  0
  6  9  1  0  0  0  0
  6 12  1  0  0  0  0
  8 10  1  0  0  0  0
  8 11  2  0  0  0  0
  9 13  1  0  0  0  0
  9 14  1  0  0  0  0
  9 15  1  0  0  0  0
 10 16  1  0  0  0  0
 10 17  1  0  0  0  0
 10 18  1  0  0  0  0
 19 20  1  0  0  0  0
 20 21  4  0  0  0  0
 20 25  4  0  0  0  0
 21 22  4  0  0  0  0
 21 27  1  0  0  0  0
 22 23  4  0  0  0  0
 22 28  1  0  0  0  0
 23 24  4  0  0  0  0
 23 26  1  0  0  0  0
 24 25  4  0  0  0  0
 24 29  1  0  0  0  0
 25 30  1  0  0  0  0
 26 31  1  0  0  0  0
 26 32  1  0  0  0  0
M  END
> <BCLConfClusterSize>
1

> <ConfClashScore>
0 

> <ConfOneFourInteractionScore>
-0.967834 

> <ConfScore>
0.320607 

> <ConfScorePBest>
0.00253641 

> <ConfTolerance>
0.974243 

> <RosettaParamsInstructions>
M  ROOT 3
M  POLY_N_BB 3
M  POLY_CA_BB 4
M  POLY_C_BB 2
M  POLY_O_BB 5
M  POLY_IGNORE 9 10 11 12 13 14 15 16 17 18 
M  POLY_UPPER 6
M  POLY_LOWER 8
M  POLY_CHG 0
M  POLY_PROPERTIES ALPHA_AA L_AA PROTEIN AROMATIC POLYMER 
M  END

$$$$



 32 32  0  0  0  0  0  0  0  0999 V2000
   -0.7508    3.4251    3.1618 H   0  0  0  1  0  0  0  0  0  0  0  0
   -0.0456    1.4695    3.1267 C   0  0  0  1  0  0  0  0  0  0  0  0
    0.8823    3.4418    1.9293 N   0  0  0  1  0  0  0  0  0  0  0  0
   -0.3454    2.7789    2.4115 C   0  0  0  1  0  0  0  0  0  0  0  0
    0.9606    0.8265    2.8316 O   0  0  0  1  0  0  0  0  0  0  0  0
   -0.8701    1.1235    4.1211 N   0  0  0  1  0  0  0  0  0  0  0  0
    1.0958    3.4046    0.9736 H   0  0  0  1  0  0  0  0  0  0  0  0
    1.7208    4.0972    2.7587 C   0  0  0  1  0  0  0  0  0  0  0  0
   -0.5329    0.0105    4.9960 C   0  0  0  1  0  0  0  0  0  0  0  0
    3.0501    4.5592    2.2060 C   0  0  0  1  0  0  0  0  0  0  0  0
    1.4150    4.3137    3.9305 O   0  0  0  1  0  0  0  0  0  0  0  0
   -1.7031    1.6204    4.2609 H   0  0  0  1  0  0  0  0  0  0  0  0
    0.1489   -0.6442    4.4945 H   0  0  0  1  0  0  0  0  0  0  0  0
   -1.4231   -0.5272    5.2479 H   0  0  0  1  0  0  0  0  0  0  0  0
   -0.0768    0.3844    5.8887 H   0  0  0  1  0  0  0  0  0  0  0  0
    3.6773    3.7108    2.0281 H   0  0  0  1  0  0  0  0  0  0  0  0
    3.5227    5.2100    2.9118 H   0  0  0  1  0  0  0  0  0  0  0  0
    2.8911    5.0839    1.2871 H   0  0  0  1  0  0  0  0  0  0  0  0
   -4.4301    8.0052    0.4437 Br  0  0  0  1  0  0  0  0  0  0  0  0
   -3.4402    6.4149    0.6951 C   0  0  0  1  0  0  0  0  0  0  0  0
   -2.9395    6.1049    1.9500 C   0  0  0  1  0  0  0  0  0  0  0  0
   -2.2831    4.9061    2.1555 C   0  0  0  1  0  0  0  0  0  0  0  0
   -2.1302    4.0114    1.1079 C   0  0  0  1  0  0  0  0  0  0  0  0
   -2.6293    4.3203   -0.1435 C   0  0  0  1  0  0  0  0  0  0  0  0
   -3.2876    5.5227   -0.3494 C   0  0  0  1  0  0  0  0  0  0  0  0
   -1.4180    2.6985    1.3331 C   0  0  0  1  0  0  0  0  0  0  0  0
   -3.0578    6.7744    2.7369 H   0  0  0  1  0  0  0  0  0  0  0  0
   -1.9040    4.6754    3.0960 H   0  0  0  1  0  0  0  0  0  0  0  0
   -2.5109    3.6507   -0.9304 H   0  0  0  1  0  0  0  0  0  0  0  0
   -3.6667    5.7534   -1.2900 H   0  0  0  1  0  0  0  0  0  0  0  0
   -2.1403    1.9650    1.6251 H   0  0  0  1  0  0  0  0  0  0  0  0
   -0.9564    2.3996    0.4152 H   0  0  0  1  0  0  0  0  0  0  0  0
  1  4  1  0  0  0  0
  2  4  1  0  0  0  0
  2  5  2  0  0  0  0
  2  6  1  0  0  0  0
  3  4  1  0  0  0  0
  3  7  1  0  0  0  0
  3  8  1  0  0  0  0
  4 26  1  0  0  0  0
  6  9  1  0  0  0  0
  6 12  1  0  0  0  0
  8 10  1  0  0  0  0
  8 11  2  0  0  0  0
  9 13  1  0  0  0  0
  9 14  1  0  0  0  0
  9 15  1  0  0  0  0
 10 16  1  0  0  0  0
 10 17  1  0  0  0  0
 10 18  1  0  0  0  0
 19 20  1  0  0  0  0
 20 21  4  0  0  0  0
 20 25  4  0  0  0  0
 21 22  4  0  0  0  0
 21 27  1  0  0  0  0
 22 23  4  0  0  0  0
 22 28  1  0  0  0  0
 23 24  4  0  0  0  0
 23 26  1  0  0  0  0
 24 25  4  0  0  0  0
 24 29  1  0  0  0  0
 25 30  1  0  0  0  0
 26 31  1  0  0  0  0
 26 32  1  0  0  0  0
M  END
> <BCLConfClusterSize>
1

> <ConfClashScore>
0 

> <ConfOneFourInteractionScore>
-0.96681 

> <ConfScore>
0.321127 

> <ConfScorePBest>
0.00250793 

> <ConfTolerance>
0.984466 

> <RosettaParamsInstructions>
M  ROOT 3
M  POLY_N_BB 3
M  POLY_CA_BB 4
M  POLY_C_BB 2
M  POLY_O_BB 5
M  POLY_IGNORE 9 10 11 12 13 14 15 16 17 18 
M  POLY_UPPER 6
M  POLY_LOWER 8
M  POLY_CHG 0
M  POLY_PROPERTIES ALPHA_AA L_AA PROTEIN AROMATIC POLYMER 
M  END

$$$$



 32 32  0  0  0  0  0  0  0  0999 V2000
    0.1388    2.8835   -0.0707 H   0  0  0  1  0  0  0  0  0  0  0  0
    0.8601    3.7610    1.7045 C   0  0  0  1  0  0  0  0  0  0  0  0
    0.6586    1.3920    1.2524 N   0  0  0  1  0  0  0  0  0  0  0  0
    0.0600    2.6899    0.9787 C   0  0  0  1  0  0  0  0  0  0  0  0
    0.2753    4.6520    2.3187 O   0  0  0  1  0  0  0  0  0  0  0  0
    2.1903    3.6233    1.7046 N   0  0  0  1  0  0  0  0  0  0  0  0
    0.9622    0.8274    0.5111 H   0  0  0  1  0  0  0  0  0  0  0  0
    0.7953    0.9684    2.5121 C   0  0  0  1  0  0  0  0  0  0  0  0
    3.1183    4.4970    2.4068 C   0  0  0  1  0  0  0  0  0  0  0  0
    1.2835   -0.4575    2.6784 C   0  0  0  1  0  0  0  0  0  0  0  0
    0.5458    1.6757    3.4874 O   0  0  0  1  0  0  0  0  0  0  0  0
    2.5686    2.8777    1.1933 H   0  0  0  1  0  0  0  0  0  0  0  0
    3.1175    5.4629    1.9464 H   0  0  0  1  0  0  0  0  0  0  0  0
    4.1032    4.0813    2.3612 H   0  0  0  1  0  0  0  0  0  0  0  0
    2.8166    4.5894    3.4293 H   0  0  0  1  0  0  0  0  0  0  0  0
    0.9291   -1.0536    1.8636 H   0  0  0  1  0  0  0  0  0  0  0  0
    0.9124   -0.8561    3.5995 H   0  0  0  1  0  0  0  0  0  0  0  0
    2.3533   -0.4689    2.6895 H   0  0  0  1  0  0  0  0  0  0  0  0
   -4.4301    8.0052    0.4437 Br  0  0  0  1  0  0  0  0  0  0  0  0
   -3.4402    6.4149    0.6951 C   0  0  0  1  0  0  0  0  0  0  0  0
   -2.9395    6.1049    1.9500 C   0  0  0  1  0  0  0  0  0  0  0  0
   -2.2831    4.9061    2.1555 C   0  0  0  1  0  0  0  0  0  0  0  0
   -2.1302    4.0114    1.1079 C   0  0  0  1  0  0  0  0  0  0  0  0
   -2.6293    4.3203   -0.1435 C   0  0  0  1  0  0  0  0  0  0  0  0
   -3.2876    5.5227   -0.3494 C   0  0  0  1  0  0  0  0  0  0  0  0
   -1.4180    2.6985    1.3331 C   0  0  0  1  0  0  0  0  0  0  0  0
   -3.0578    6.7744    2.7369 H   0  0  0  1  0  0  0  0  0  0  0  0
   -1.9040    4.6754    3.0960 H   0  0  0  1  0  0  0  0  0  0  0  0
   -2.5109    3.6507   -0.9304 H   0  0  0  1  0  0  0  0  0  0  0  0
   -3.6667    5.7534   -1.2900 H   0  0  0  1  0  0  0  0  0  0  0  0
   -1.5106    2.4463    2.3688 H   0  0  0  1  0  0  0  0  0  0  0  0
   -1.9043    1.9531    0.7391 H   0  0  0  1  0  0  0  0  0  0  0  0
  1  4  1  0  0  0  0
  2  4  1  0  0  0  0
  2  5  2  0  0  0  0
  2  6  1  0  0  0  0
  3  4  1  0  0  0  0
  3  7  1  0  0  0  0
  3  8  1  0  0  0  0
  4 26  1  0  0  0  0
  6  9  1  0  0  0  0
  6 12  1  0  0  0  0
  8 10  1  0  0  0  0
  8 11  2  0  0  0  0
  9 13  1  0  0  0  0
  9 14  1  0  0  0  0
  9 15  1  0  0  0  0
 10 16  1  0  0  0  0
 10 17  1  0  0  0  0
 10 18  1  0  0  0  0
 19 20  1  0  0  0  0
 20 21  4  0  0  0  0
 20 25  4  0  0  0  0
 21 22  4  0  0  0  0
 21 27  1  0  0  0  0
 22 23  4  0  0  0  0
 22 28  1  0  0  0  0
 23 24  4  0  0  0  0
 23 26  1  0  0  0  0
 24 25  4  0  0  0  0
 24 29  1  0  0  0  0
 25 30  1  0  0  0  0
 26 31  1  0  0  0  0
 26 32  1  0  0  0  0
M  END
> <BCLConfClusterSize>
1

> <ConfClashScore>
0 

> <ConfOneFourInteractionScore>
-0.957364 

> <ConfScore>
0.354612 

> <ConfScorePBest>
0.00247945 

> <ConfTolerance>
0.414294 

> <RosettaParamsInstructions>
M  ROOT 3
M  POLY_N_BB 3
M  POLY_CA_BB 4
M  POLY_C_BB 2
M  POLY_O_BB 5
M  POLY_IGNORE 9 10 11 12 13 14 15 16 17 18 
M  POLY_UPPER 6
M  POLY_LOWER 8
M  POLY_CHG 0
M  POLY_PROPERTIES ALPHA_AA L_AA PROTEIN AROMATIC POLYMER 
M  END

$$$$



 32 32  0  0  0  0  0  0  0  0999 V2000
    0.1187    3.1450   -0.0349 H   0  0  0  1  0  0  0  0  0  0  0  0
    0.7763    3.7410    1.8685 C   0  0  0  1  0  0  0  0  0  0  0  0
    0.6542    1.4182    0.9343 N   0  0  0  1  0  0  0  0  0  0  0  0
    0.0648    2.7487    0.9575 C   0  0  0  1  0  0  0  0  0  0  0  0
    0.9016    3.4922    3.0666 O   0  0  0  1  0  0  0  0  0  0  0  0
    1.3131    4.8176    1.2843 N   0  0  0  1  0  0  0  0  0  0  0  0
    0.8326    0.9950    0.0686 H   0  0  0  1  0  0  0  0  0  0  0  0
    0.9605    0.7538    2.0522 C   0  0  0  1  0  0  0  0  0  0  0  0
    2.1370    5.8086    1.9603 C   0  0  0  1  0  0  0  0  0  0  0  0
    1.6163   -0.5992    1.8556 C   0  0  0  1  0  0  0  0  0  0  0  0
    0.7331    1.1946    3.1758 O   0  0  0  1  0  0  0  0  0  0  0  0
    1.1384    4.9491    0.3290 H   0  0  0  1  0  0  0  0  0  0  0  0
    1.8351    5.8858    2.9840 H   0  0  0  1  0  0  0  0  0  0  0  0
    2.0181    6.7578    1.4811 H   0  0  0  1  0  0  0  0  0  0  0  0
    3.1636    5.5106    1.9131 H   0  0  0  1  0  0  0  0  0  0  0  0
    1.1534   -1.1044    1.0338 H   0  0  0  1  0  0  0  0  0  0  0  0
    1.5006   -1.1838    2.7443 H   0  0  0  1  0  0  0  0  0  0  0  0
    2.6576   -0.4640    1.6501 H   0  0  0  1  0  0  0  0  0  0  0  0
   -4.4301    8.0052    0.4437 Br  0  0  0  1  0  0  0  0  0  0  0  0
   -3.4402    6.4149    0.6951 C   0  0  0  1  0  0  0  0  0  0  0  0
   -2.9395    6.1049    1.9500 C   0  0  0  1  0  0  0  0  0  0  0  0
   -2.2831    4.9061    2.1555 C   0  0  0  1  0  0  0  0  0  0  0  0
   -2.1302    4.0114    1.1079 C   0  0  0  1  0  0  0  0  0  0  0  0
   -2.6293    4.3203   -0.1435 C   0  0  0  1  0  0  0  0  0  0  0  0
   -3.2876    5.5227   -0.3494 C   0  0  0  1  0  0  0  0  0  0  0  0
   -1.4180    2.6985    1.3331 C   0  0  0  1  0  0  0  0  0  0  0  0
   -3.0578    6.7744    2.7369 H   0  0  0  1  0  0  0  0  0  0  0  0
   -1.9040    4.6754    3.0960 H   0  0  0  1  0  0  0  0  0  0  0  0
   -2.5109    3.6507   -0.9304 H   0  0  0  1  0  0  0  0  0  0  0  0
   -3.6667    5.7534   -1.2900 H   0  0  0  1  0  0  0  0  0  0  0  0
   -1.4986    2.4406    2.3684 H   0  0  0  1  0  0  0  0  0  0  0  0
   -1.8945    1.9464    0.7396 H   0  0  0  1  0  0  0  0  0  0  0  0
  1  4  1  0  0  0  0
  2  4  1  0  0  0  0
  2  5  2  0  0  0  0
  2  6  1  0  0  0  0
  3  4  1  0  0  0  0
  3  7  1  0  0  0  0
  3  8  1  0  0  0  0
  4 26  1  0  0  0  0
  6  9  1  0  0  0  0
  6 12  1  0  0  0  0
  8 10  1  0  0  0  0
  8 11  2  0  0  0  0
  9 13  1  0  0  0  0
  9 14  1  0  0  0  0
  9 15  1  0  0  0  0
 10 16  1  0  0  0  0
 10 17  1  0  0  0  0
 10 18  1  0  0  0  0
 19 20  1  0  0  0  0
 20 21  4  0  0  0  0
 20 25  4  0  0  0  0
 21 22  4  0  0  0  0
 21 27  1  0  0  0  0
 22 23  4  0  0  0  0
 22 28  1  0  0  0  0
 23 24  4  0  0  0  0
 23 26  1  0  0  0  0
 24 25  4  0  0  0  0
 24 29  1  0  0  0  0
 25 30  1  0  0  0  0
 26 31  1  0  0  0  0
 26 32  1  0  0  0  0
M  END
> <BCLConfClusterSize>
1

> <ConfClashScore>
0 

> <ConfOneFourInteractionScore>
-0.983211 

> <ConfScore>
0.357611 

> <ConfScorePBest>
0.00245097 

> <ConfTolerance>
0.693127 

> <RosettaParamsInstructions>
M  ROOT 3
M  POLY_N_BB 3
M  POLY_CA_BB 4
M  POLY_C_BB 2
M  POLY_O_BB 5
M  POLY_IGNORE 9 10 11 12 13 14 15 16 17 18 
M  POLY_UPPER 6
M  POLY_LOWER 8
M  POLY_CHG 0
M  POLY_PROPERTIES ALPHA_AA L_AA PROTEIN AROMATIC POLYMER 
M  END

$$$$



 32 32  0  0  0  0  0  0  0  0999 V2000
   -1.5675    0.6083    1.0901 H   0  0  0  1  0  0  0  0  0  0  0  0
   -3.5033    1.3633    1.4754 C   0  0  0  1  0  0  0  0  0  0  0  0
   -2.2087    1.5289   -0.6423 N   0  0  0  1  0  0  0  0  0  0  0  0
   -2.1390    1.4678    0.8079 C   0  0  0  1  0  0  0  0  0  0  0  0
   -3.6070    0.8268    2.5773 O   0  0  0  1  0  0  0  0  0  0  0  0
   -4.5277    1.9508    0.8478 N   0  0  0  1  0  0  0  0  0  0  0  0
   -3.0515    1.8279   -1.0432 H   0  0  0  1  0  0  0  0  0  0  0  0
   -1.1727    1.1960   -1.5016 C   0  0  0  1  0  0  0  0  0  0  0  0
   -5.8903    2.1062    1.3347 C   0  0  0  1  0  0  0  0  0  0  0  0
   -1.3256    1.4709   -2.9712 C   0  0  0  1  0  0  0  0  0  0  0  0
   -0.1688    0.6895   -1.0345 O   0  0  0  1  0  0  0  0  0  0  0  0
   -4.3395    2.3184   -0.0409 H   0  0  0  1  0  0  0  0  0  0  0  0
   -5.9035    2.8099    2.1407 H   0  0  0  1  0  0  0  0  0  0  0  0
   -6.2552    1.1616    1.6802 H   0  0  0  1  0  0  0  0  0  0  0  0
   -6.5140    2.4615    0.5412 H   0  0  0  1  0  0  0  0  0  0  0  0
   -2.1409    0.8967   -3.3591 H   0  0  0  1  0  0  0  0  0  0  0  0
   -0.4244    1.1995   -3.4803 H   0  0  0  1  0  0  0  0  0  0  0  0
   -1.5203    2.5124   -3.1206 H   0  0  0  1  0  0  0  0  0  0  0  0
   -4.4301    8.0052    0.4437 Br  0  0  0  1  0  0  0  0  0  0  0  0
   -3.4402    6.4149    0.6951 C   0  0  0  1  0  0  0  0  0  0  0  0
   -2.9395    6.1049    1.9500 C   0  0  0  1  0  0  0  0  0  0  0  0
   -2.2831    4.9061    2.1555 C   0  0  0  1  0  0  0  0  0  0  0  0
   -2.1302    4.0114    1.1079 C   0  0  0  1  0  0  0  0  0  0  0  0
   -2.6293    4.3203   -0.1435 C   0  0  0  1  0  0  0  0  0  0  0  0
   -3.2876    5.5227   -0.3494 C   0  0  0  1  0  0  0  0  0  0  0  0
   -1.4180    2.6985    1.3331 C   0  0  0  1  0  0  0  0  0  0  0  0
   -3.0578    6.7744    2.7369 H   0  0  0  1  0  0  0  0  0  0  0  0
   -1.9040    4.6754    3.0960 H   0  0  0  1  0  0  0  0  0  0  0  0
   -2.5109    3.6507   -0.9304 H   0  0  0  1  0  0  0  0  0  0  0  0
   -3.6667    5.7534   -1.2900 H   0  0  0  1  0  0  0  0  0  0  0  0
   -0.4644    2.7533    0.8509 H   0  0  0  1  0  0  0  0  0  0  0  0
   -1.2789    2.5750    2.3868 H   0  0  0  1  0  0  0  0  0  0  0  0
  1  4  1  0  0  0  0
  2  4  1  0  0  0  0
  2  5  2  0  0  0  0
  2  6  1  0  0  0  0
  3  4  1  0  0  0  0
  3  7  1  0  0  0  0
  3  8  1  0  0  0  0
  4 26  1  0  0  0  0
  6  9  1  0  0  0  0
  6 12  1  0  0  0  0
  8 10  1  0  0  0  0
  8 11  2  0  0  0  0
  9 13  1  0  0  0  0
  9 14  1  0  0  0  0
  9 15  1  0  0  0  0
 10 16  1  0  0  0  0
 10 17  1  0  0  0  0
 10 18  1  0  0  0  0
 19 20  1  0  0  0  0
 20 21  4  0  0  0  0
 20 25  4  0  0  0  0
 21 22  4  0  0  0  0
 21 27  1  0  0  0  0
 22 23  4  0  0  0  0
 22 28  1  0  0  0  0
 23 24  4  0  0  0  0
 23 26  1  0  0  0  0
 24 25  4  0  0  0  0
 24 29  1  0  0  0  0
 25 30  1  0  0  0  0
 26 31  1  0  0  0  0
 26 32  1  0  0  0  0
M  END
> <BCLConfClusterSize>
1

> <ConfClashScore>
0 

> <ConfOneFourInteractionScore>
-0.96177 

> <ConfScore>
0.362423 

> <ConfScorePBest>
0.00242249 

> <ConfTolerance>
1.05256 

> <RosettaParamsInstructions>
M  ROOT 3
M  POLY_N_BB 3
M  POLY_CA_BB 4
M  POLY_C_BB 2
M  POLY_O_BB 5
M  POLY_IGNORE 9 10 11 12 13 14 15 16 17 18 
M  POLY_UPPER 6
M  POLY_LOWER 8
M  POLY_CHG 0
M  POLY_PROPERTIES ALPHA_AA L_AA PROTEIN AROMATIC POLYMER 
M  END

$$$$



 32 32  0  0  0  0  0  0  0  0999 V2000
   -3.0956    1.4303    0.9363 H   0  0  0  1  0  0  0  0  0  0  0  0
   -1.5781    0.2628    1.8309 C   0  0  0  1  0  0  0  0  0  0  0  0
   -3.0543    1.9327    2.9394 N   0  0  0  1  0  0  0  0  0  0  0  0
   -2.3690    1.5581    1.7114 C   0  0  0  1  0  0  0  0  0  0  0  0
   -1.0179   -0.0177    2.8894 O   0  0  0  1  0  0  0  0  0  0  0  0
   -1.6065   -0.5601    0.7771 N   0  0  0  1  0  0  0  0  0  0  0  0
   -2.5200    2.1929    3.7186 H   0  0  0  1  0  0  0  0  0  0  0  0
   -4.3864    1.9342    3.0414 C   0  0  0  1  0  0  0  0  0  0  0  0
   -0.9035   -1.8316    0.6938 C   0  0  0  1  0  0  0  0  0  0  0  0
   -5.1338    1.2403    1.9192 C   0  0  0  1  0  0  0  0  0  0  0  0
   -4.9858    2.4597    3.9781 O   0  0  0  1  0  0  0  0  0  0  0  0
   -2.1409   -0.2862    0.0027 H   0  0  0  1  0  0  0  0  0  0  0  0
   -1.0440   -2.3776    1.6032 H   0  0  0  1  0  0  0  0  0  0  0  0
    0.1406   -1.6525    0.5433 H   0  0  0  1  0  0  0  0  0  0  0  0
   -1.2903   -2.3996   -0.1264 H   0  0  0  1  0  0  0  0  0  0  0  0
   -5.3628    1.9489    1.1509 H   0  0  0  1  0  0  0  0  0  0  0  0
   -6.0418    0.8224    2.3009 H   0  0  0  1  0  0  0  0  0  0  0  0
   -4.5240    0.4599    1.5141 H   0  0  0  1  0  0  0  0  0  0  0  0
   -4.4309    8.0037    0.4382 Br  0  0  0  1  0  0  0  0  0  0  0  0
   -3.4400    6.4150    0.6957 C   0  0  0  1  0  0  0  0  0  0  0  0
   -2.9409    6.1090    1.9522 C   0  0  0  1  0  0  0  0  0  0  0  0
   -2.2839    4.9114    2.1622 C   0  0  0  1  0  0  0  0  0  0  0  0
   -2.1287    4.0137    1.1174 C   0  0  0  1  0  0  0  0  0  0  0  0
   -2.6263    4.3185   -0.1355 C   0  0  0  1  0  0  0  0  0  0  0  0
   -3.2853    5.5198   -0.3459 C   0  0  0  1  0  0  0  0  0  0  0  0
   -1.4253    2.6879    1.2878 C   0  0  0  1  0  0  0  0  0  0  0  0
   -3.0609    6.7808    2.7370 H   0  0  0  1  0  0  0  0  0  0  0  0
   -1.9059    4.6837    3.1039 H   0  0  0  1  0  0  0  0  0  0  0  0
   -2.5063    3.6467   -0.9203 H   0  0  0  1  0  0  0  0  0  0  0  0
   -3.6632    5.7475   -1.2877 H   0  0  0  1  0  0  0  0  0  0  0  0
   -0.9712    2.4212    0.3564 H   0  0  0  1  0  0  0  0  0  0  0  0
   -0.6682    2.7977    2.0358 H   0  0  0  1  0  0  0  0  0  0  0  0
  1  4  1  0  0  0  0
  2  4  1  0  0  0  0
  2  5  2  0  0  0  0
  2  6  1  0  0  0  0
  3  4  1  0  0  0  0
  3  7  1  0  0  0  0
  3  8  1  0  0  0  0
  4 26  1  0  0  0  0
  6  9  1  0  0  0  0
  6 12  1  0  0  0  0
  8 10  1  0  0  0  0
  8 11  2  0  0  0  0
  9 13  1  0  0  0  0
  9 14  1  0  0  0  0
  9 15  1  0  0  0  0
 10 16  1  0  0  0  0
 10 17  1  0  0  0  0
 10 18  1  0  0  0  0
 19 20  1  0  0  0  0
 20 21  4  0  0  0  0
 20 25  4  0  0  0  0
 21 22  4  0  0  0  0
 21 27  1  0  0  0  0
 22 23  4  0  0  0  0
 22 28  1  0  0  0  0
 23 24  4  0  0  0  0
 23 26  1  0  0  0  0
 24 25  4  0  0  0  0
 24 29  1  0  0  0  0
 25 30  1  0  0  0  0
 26 31  1  0  0  0  0
 26 32  1  0  0  0  0
M  END
> <BCLConfClusterSize>
1

> <ConfClashScore>
0 

> <ConfOneFourInteractionScore>
-0.985807 

> <ConfScore>
0.363301 

> <ConfScorePBest>
0.00239401 

> <ConfTolerance>
1.1677 

> <RosettaParamsInstructions>
M  ROOT 3
M  POLY_N_BB 3
M  POLY_CA_BB 4
M  POLY_C_BB 2
M  POLY_O_BB 5
M  POLY_IGNORE 9 10 11 12 13 14 15 16 17 18 
M  POLY_UPPER 6
M  POLY_LOWER 8
M  POLY_CHG 0
M  POLY_PROPERTIES ALPHA_AA L_AA PROTEIN AROMATIC POLYMER 
M  END

$$$$



 32 32  0  0  0  0  0  0  0  0999 V2000
    0.3975    1.6932    0.8992 H   0  0  0  1  0  0  0  0  0  0  0  0
   -0.1190    2.8609   -0.7848 C   0  0  0  1  0  0  0  0  0  0  0  0
    0.8251    3.6567    1.3767 N   0  0  0  1  0  0  0  0  0  0  0  0
   -0.0141    2.6647    0.7213 C   0  0  0  1  0  0  0  0  0  0  0  0
   -1.0471    2.3708   -1.4257 O   0  0  0  1  0  0  0  0  0  0  0  0
    0.7956    3.6605   -1.3439 N   0  0  0  1  0  0  0  0  0  0  0  0
    1.5230    3.3525    1.9937 H   0  0  0  1  0  0  0  0  0  0  0  0
    0.6770    4.9678    1.1665 C   0  0  0  1  0  0  0  0  0  0  0  0
    0.6813    4.1319   -2.7160 C   0  0  0  1  0  0  0  0  0  0  0  0
    1.5602    5.8702    1.9982 C   0  0  0  1  0  0  0  0  0  0  0  0
   -0.1216    5.4298    0.3526 O   0  0  0  1  0  0  0  0  0  0  0  0
    1.5696    3.9388   -0.8112 H   0  0  0  1  0  0  0  0  0  0  0  0
   -0.2351    4.6718   -2.8331 H   0  0  0  1  0  0  0  0  0  0  0  0
    0.6893    3.2947   -3.3823 H   0  0  0  1  0  0  0  0  0  0  0  0
    1.5056    4.7757   -2.9415 H   0  0  0  1  0  0  0  0  0  0  0  0
    1.4325    6.8846    1.6825 H   0  0  0  1  0  0  0  0  0  0  0  0
    2.5832    5.5834    1.8709 H   0  0  0  1  0  0  0  0  0  0  0  0
    1.2900    5.7812    3.0296 H   0  0  0  1  0  0  0  0  0  0  0  0
   -4.4301    8.0052    0.4437 Br  0  0  0  1  0  0  0  0  0  0  0  0
   -3.4402    6.4149    0.6951 C   0  0  0  1  0  0  0  0  0  0  0  0
   -2.9395    6.1049    1.9500 C   0  0  0  1  0  0  0  0  0  0  0  0
   -2.2831    4.9061    2.1555 C   0  0  0  1  0  0  0  0  0  0  0  0
   -2.1302    4.0114    1.1079 C   0  0  0  1  0  0  0  0  0  0  0  0
   -2.6293    4.3203   -0.1435 C   0  0  0  1  0  0  0  0  0  0  0  0
   -3.2876    5.5227   -0.3494 C   0  0  0  1  0  0  0  0  0  0  0  0
   -1.4180    2.6985    1.3331 C   0  0  0  1  0  0  0  0  0  0  0  0
   -3.0578    6.7744    2.7369 H   0  0  0  1  0  0  0  0  0  0  0  0
   -1.9040    4.6754    3.0960 H   0  0  0  1  0  0  0  0  0  0  0  0
   -2.5109    3.6507   -0.9304 H   0  0  0  1  0  0  0  0  0  0  0  0
   -3.6667    5.7534   -1.2900 H   0  0  0  1  0  0  0  0  0  0  0  0
   -1.3344    2.5329    2.3869 H   0  0  0  1  0  0  0  0  0  0  0  0
   -2.0000    1.9156    0.8936 H   0  0  0  1  0  0  0  0  0  0  0  0
  1  4  1  0  0  0  0
  2  4  1  0  0  0  0
  2  5  2  0  0  0  0
  2  6  1  0  0  0  0
  3  4  1  0  0  0  0
  3  7  1  0  0  0  0
  3  8  1  0  0  0  0
  4 26  1  0  0  0  0
  6  9  1  0  0  0  0
  6 12  1  0  0  0  0
  8 10  1  0  0  0  0
  8 11  2  0  0  0  0
  9 13  1  0  0  0  0
  9 14  1  0  0  0  0
  9 15  1  0  0  0  0
 10 16  1  0  0  0  0
 10 17  1  0  0  0  0
 10 18  1  0  0  0  0
 19 20  1  0  0  0  0
 20 21  4  0  0  0  0
 20 25  4  0  0  0  0
 21 22  4  0  0  0  0
 21 27  1  0  0  0  0
 22 23  4  0  0  0  0
 22 28  1  0  0  0  0
 23 24  4  0  0  0  0
 23 26  1  0  0  0  0
 24 25  4  0  0  0  0
 24 29  1  0  0  0  0
 25 30  1  0  0  0  0
 26 31  1  0  0  0  0
 26 32  1  0  0  0  0
M  END
> <BCLConfClusterSize>
1

> <ConfClashScore>
0 

> <ConfOneFourInteractionScore>
-0.947651 

> <ConfScore>
0.369162 

> <ConfScorePBest>
0.00236553 

> <ConfTolerance>
0.72482 

> <RosettaParamsInstructions>
M  ROOT 3
M  POLY_N_BB 3
M  POLY_CA_BB 4
M  POLY_C_BB 2
M  POLY_O_BB 5
M  POLY_IGNORE 9 10 11 12 13 14 15 16 17 18 
M  POLY_UPPER 6
M  POLY_LOWER 8
M  POLY_CHG 0
M  POLY_PROPERTIES ALPHA_AA L_AA PROTEIN AROMATIC POLYMER 
M  END

$$$$



 32 32  0  0  0  0  0  0  0  0999 V2000
   -2.9819    1.9263    2.5043 H   0  0  0  1  0  0  0  0  0  0  0  0
   -3.3174    1.1368    0.5916 C   0  0  0  1  0  0  0  0  0  0  0  0
   -1.6682    0.3748    2.2184 N   0  0  0  1  0  0  0  0  0  0  0  0
   -2.3682    1.5573    1.7092 C   0  0  0  1  0  0  0  0  0  0  0  0
   -4.3918    0.5928    0.8423 O   0  0  0  1  0  0  0  0  0  0  0  0
   -2.9557    1.4718   -0.6515 N   0  0  0  1  0  0  0  0  0  0  0  0
   -0.8631    0.0650    1.7533 H   0  0  0  1  0  0  0  0  0  0  0  0
   -2.0934   -0.3021    3.3052 C   0  0  0  1  0  0  0  0  0  0  0  0
   -3.6885    1.1153   -1.8571 C   0  0  0  1  0  0  0  0  0  0  0  0
   -1.3315   -1.5483    3.7121 C   0  0  0  1  0  0  0  0  0  0  0  0
   -3.0704    0.0785    3.9489 O   0  0  0  1  0  0  0  0  0  0  0  0
   -2.1352    1.9970   -0.7586 H   0  0  0  1  0  0  0  0  0  0  0  0
   -4.2410    0.2150   -1.6862 H   0  0  0  1  0  0  0  0  0  0  0  0
   -2.9993    0.9632   -2.6613 H   0  0  0  1  0  0  0  0  0  0  0  0
   -4.3641    1.9054   -2.1103 H   0  0  0  1  0  0  0  0  0  0  0  0
   -0.2826   -1.3372    3.7257 H   0  0  0  1  0  0  0  0  0  0  0  0
   -1.5284   -2.3315    3.0101 H   0  0  0  1  0  0  0  0  0  0  0  0
   -1.6459   -1.8557    4.6876 H   0  0  0  1  0  0  0  0  0  0  0  0
   -4.4301    8.0052    0.4437 Br  0  0  0  1  0  0  0  0  0  0  0  0
   -3.4402    6.4149    0.6951 C   0  0  0  1  0  0  0  0  0  0  0  0
   -2.9395    6.1049    1.9500 C   0  0  0  1  0  0  0  0  0  0  0  0
   -2.2831    4.9061    2.1555 C   0  0  0  1  0  0  0  0  0  0  0  0
   -2.1302    4.0114    1.1079 C   0  0  0  1  0  0  0  0  0  0  0  0
   -2.6293    4.3203   -0.1435 C   0  0  0  1  0  0  0  0  0  0  0  0
   -3.2876    5.5227   -0.3494 C   0  0  0  1  0  0  0  0  0  0  0  0
   -1.4180    2.6985    1.3331 C   0  0  0  1  0  0  0  0  0  0  0  0
   -3.0578    6.7744    2.7369 H   0  0  0  1  0  0  0  0  0  0  0  0
   -1.9040    4.6754    3.0960 H   0  0  0  1  0  0  0  0  0  0  0  0
   -2.5109    3.6507   -0.9304 H   0  0  0  1  0  0  0  0  0  0  0  0
   -3.6667    5.7534   -1.2900 H   0  0  0  1  0  0  0  0  0  0  0  0
   -0.9040    2.4312    0.4336 H   0  0  0  1  0  0  0  0  0  0  0  0
   -0.7096    2.8268    2.1247 H   0  0  0  1  0  0  0  0  0  0  0  0
  1  4  1  0  0  0  0
  2  4  1  0  0  0  0
  2  5  2  0  0  0  0
  2  6  1  0  0  0  0
  3  4  1  0  0  0  0
  3  7  1  0  0  0  0
  3  8  1  0  0  0  0
  4 26  1  0  0  0  0
  6  9  1  0  0  0  0
  6 12  1  0  0  0  0
  8 10  1  0  0  0  0
  8 11  2  0  0  0  0
  9 13  1  0  0  0  0
  9 14  1  0  0  0  0
  9 15  1  0  0  0  0
 10 16  1  0  0  0  0
 10 17  1  0  0  0  0
 10 18  1  0  0  0  0
 19 20  1  0  0  0  0
 20 21  4  0  0  0  0
 20 25  4  0  0  0  0
 21 22  4  0  0  0  0
 21 27  1  0  0  0  0
 22 23  4  0  0  0  0
 22 28  1  0  0  0  0
 23 24  4  0  0  0  0
 23 26  1  0  0  0  0
 24 25  4  0  0  0  0
 24 29  1  0  0  0  0
 25 30  1  0  0  0  0
 26 31  1  0  0  0  0
 26 32  1  0  0  0  0
M  END
> <BCLConfClusterSize>
1

> <ConfClashScore>
0 

> <ConfOneFourInteractionScore>
-0.952541 

> <ConfScore>
0.379931 

> <ConfScorePBest>
0.00233705 

> <ConfTolerance>
0.90565 

> <RosettaParamsInstructions>
M  ROOT 3
M  POLY_N_BB 3
M  POLY_CA_BB 4
M  POLY_C_BB 2
M  POLY_O_BB 5
M  POLY_IGNORE 9 10 11 12 13 14 15 16 17 18 
M  POLY_UPPER 6
M  POLY_LOWER 8
M  POLY_CHG 0
M  POLY_PROPERTIES ALPHA_AA L_AA PROTEIN AROMATIC POLYMER 
M  END

$$$$



 32 32  0  0  0  0  0  0  0  0999 V2000
   -1.7311    0.7629    2.1039 H   0  0  0  1  0  0  0  0  0  0  0  0
   -2.6636    2.0777    3.4546 C   0  0  0  1  0  0  0  0  0  0  0  0
   -3.4674    1.4098    1.2105 N   0  0  0  1  0  0  0  0  0  0  0  0
   -2.2982    1.6679    2.0377 C   0  0  0  1  0  0  0  0  0  0  0  0
   -3.7064    2.6893    3.6802 O   0  0  0  1  0  0  0  0  0  0  0  0
   -1.8193    1.6453    4.3973 N   0  0  0  1  0  0  0  0  0  0  0  0
   -3.4762    0.5589    0.7244 H   0  0  0  1  0  0  0  0  0  0  0  0
   -4.5300    2.2011    1.0384 C   0  0  0  1  0  0  0  0  0  0  0  0
   -1.9010    2.0940    5.7792 C   0  0  0  1  0  0  0  0  0  0  0  0
   -5.5411    1.7351   -0.0033 C   0  0  0  1  0  0  0  0  0  0  0  0
   -4.6989    3.2428    1.6707 O   0  0  0  1  0  0  0  0  0  0  0  0
   -1.1213    1.0038    4.1488 H   0  0  0  1  0  0  0  0  0  0  0  0
   -2.8984    2.4185    5.9910 H   0  0  0  1  0  0  0  0  0  0  0  0
   -1.2220    2.9070    5.9307 H   0  0  0  1  0  0  0  0  0  0  0  0
   -1.6427    1.2866    6.4320 H   0  0  0  1  0  0  0  0  0  0  0  0
   -5.9987    0.8254    0.3251 H   0  0  0  1  0  0  0  0  0  0  0  0
   -5.0416    1.5669   -0.9345 H   0  0  0  1  0  0  0  0  0  0  0  0
   -6.2925    2.4860   -0.1316 H   0  0  0  1  0  0  0  0  0  0  0  0
   -4.4293    8.0064    0.4488 Br  0  0  0  1  0  0  0  0  0  0  0  0
   -3.4402    6.4147    0.6945 C   0  0  0  1  0  0  0  0  0  0  0  0
   -2.9381    6.1009    1.9479 C   0  0  0  1  0  0  0  0  0  0  0  0
   -2.2824    4.9010    2.1493 C   0  0  0  1  0  0  0  0  0  0  0  0
   -2.1315    4.0091    1.0990 C   0  0  0  1  0  0  0  0  0  0  0  0
   -2.6320    4.3218   -0.1508 C   0  0  0  1  0  0  0  0  0  0  0  0
   -3.2897    5.5252   -0.3526 C   0  0  0  1  0  0  0  0  0  0  0  0
   -1.4121    2.7100    1.3751 C   0  0  0  1  0  0  0  0  0  0  0  0
   -3.0549    6.7683    2.7368 H   0  0  0  1  0  0  0  0  0  0  0  0
   -1.9022    4.6674    3.0887 H   0  0  0  1  0  0  0  0  0  0  0  0
   -2.5152    3.6543   -0.9397 H   0  0  0  1  0  0  0  0  0  0  0  0
   -3.6699    5.7589   -1.2920 H   0  0  0  1  0  0  0  0  0  0  0  0
   -1.0560    2.3139    0.4471 H   0  0  0  1  0  0  0  0  0  0  0  0
   -0.5820    2.9107    2.0198 H   0  0  0  1  0  0  0  0  0  0  0  0
  1  4  1  0  0  0  0
  2  4  1  0  0  0  0
  2  5  2  0  0  0  0
  2  6  1  0  0  0  0
  3  4  1  0  0  0  0
  3  7  1  0  0  0  0
  3  8  1  0  0  0  0
  4 26  1  0  0  0  0
  6  9  1  0  0  0  0
  6 12  1  0  0  0  0
  8 10  1  0  0  0  0
  8 11  2  0  0  0  0
  9 13  1  0  0  0  0
  9 14  1  0  0  0  0
  9 15  1  0  0  0  0
 10 16  1  0  0  0  0
 10 17  1  0  0  0  0
 10 18  1  0  0  0  0
 19 20  1  0  0  0  0
 20 21  4  0  0  0  0
 20 25  4  0  0  0  0
 21 22  4  0  0  0  0
 21 27  1  0  0  0  0
 22 23  4  0  0  0  0
 22 28  1  0  0  0  0
 23 24  4  0  0  0  0
 23 26  1  0  0  0  0
 24 25  4  0  0  0  0
 24 29  1  0  0  0  0
 25 30  1  0  0  0  0
 26 31  1  0  0  0  0
 26 32  1  0  0  0  0
M  END
> <BCLConfClusterSize>
1

> <ConfClashScore>
0 

> <ConfOneFourInteractionScore>
-0.977545 

> <ConfScore>
0.388404 

> <ConfScorePBest>
0.00230857 

> <ConfTolerance>
1.23653 

> <RosettaParamsInstructions>
M  ROOT 3
M  POLY_N_BB 3
M  POLY_CA_BB 4
M  POLY_C_BB 2
M  POLY_O_BB 5
M  POLY_IGNORE 9 10 11 12 13 14 15 16 17 18 
M  POLY_UPPER 6
M  POLY_LOWER 8
M  POLY_CHG 0
M  POLY_PROPERTIES ALPHA_AA L_AA PROTEIN AROMATIC POLYMER 
M  END

$$$$



 32 32  0  0  0  0  0  0  0  0999 V2000
   -2.7792    1.7086    2.5735 H   0  0  0  1  0  0  0  0  0  0  0  0
   -3.4626    1.3212    0.6230 C   0  0  0  1  0  0  0  0  0  0  0  0
   -1.5809    0.2520    1.7618 N   0  0  0  1  0  0  0  0  0  0  0  0
   -2.3193    1.5107    1.6279 C   0  0  0  1  0  0  0  0  0  0  0  0
   -3.3608    0.4814   -0.2700 O   0  0  0  1  0  0  0  0  0  0  0  0
   -4.5713    2.0400    0.8289 N   0  0  0  1  0  0  0  0  0  0  0  0
   -0.6297    0.2574    1.5260 H   0  0  0  1  0  0  0  0  0  0  0  0
   -2.1119   -0.9137    2.1854 C   0  0  0  1  0  0  0  0  0  0  0  0
   -4.7400    3.0272    1.8848 C   0  0  0  1  0  0  0  0  0  0  0  0
   -1.2346   -2.1501    2.1531 C   0  0  0  1  0  0  0  0  0  0  0  0
   -3.2734   -0.9745    2.5865 O   0  0  0  1  0  0  0  0  0  0  0  0
   -5.3271    1.8907    0.2232 H   0  0  0  1  0  0  0  0  0  0  0  0
   -3.8845    3.0128    2.5273 H   0  0  0  1  0  0  0  0  0  0  0  0
   -5.6165    2.7951    2.4530 H   0  0  0  1  0  0  0  0  0  0  0  0
   -4.8431    3.9996    1.4504 H   0  0  0  1  0  0  0  0  0  0  0  0
   -1.0437   -2.4262    1.1372 H   0  0  0  1  0  0  0  0  0  0  0  0
   -1.7331   -2.9540    2.6533 H   0  0  0  1  0  0  0  0  0  0  0  0
   -0.3079   -1.9425    2.6462 H   0  0  0  1  0  0  0  0  0  0  0  0
   -4.4301    8.0052    0.4437 Br  0  0  0  1  0  0  0  0  0  0  0  0
   -3.4402    6.4149    0.6951 C   0  0  0  1  0  0  0  0  0  0  0  0
   -2.9395    6.1049    1.9500 C   0  0  0  1  0  0  0  0  0  0  0  0
   -2.2831    4.9061    2.1555 C   0  0  0  1  0  0  0  0  0  0  0  0
   -2.1302    4.0114    1.1079 C   0  0  0  1  0  0  0  0  0  0  0  0
   -2.6293    4.3203   -0.1435 C   0  0  0  1  0  0  0  0  0  0  0  0
   -3.2876    5.5227   -0.3494 C   0  0  0  1  0  0  0  0  0  0  0  0
   -1.4180    2.6985    1.3331 C   0  0  0  1  0  0  0  0  0  0  0  0
   -3.0578    6.7744    2.7369 H   0  0  0  1  0  0  0  0  0  0  0  0
   -1.9040    4.6754    3.0960 H   0  0  0  1  0  0  0  0  0  0  0  0
   -2.5109    3.6507   -0.9304 H   0  0  0  1  0  0  0  0  0  0  0  0
   -3.6667    5.7534   -1.2900 H   0  0  0  1  0  0  0  0  0  0  0  0
   -0.8534    2.4739    0.4524 H   0  0  0  1  0  0  0  0  0  0  0  0
   -0.7528    2.8218    2.1621 H   0  0  0  1  0  0  0  0  0  0  0  0
  1  4  1  0  0  0  0
  2  4  1  0  0  0  0
  2  5  2  0  0  0  0
  2  6  1  0  0  0  0
  3  4  1  0  0  0  0
  3  7  1  0  0  0  0
  3  8  1  0  0  0  0
  4 26  1  0  0  0  0
  6  9  1  0  0  0  0
  6 12  1  0  0  0  0
  8 10  1  0  0  0  0
  8 11  2  0  0  0  0
  9 13  1  0  0  0  0
  9 14  1  0  0  0  0
  9 15  1  0  0  0  0
 10 16  1  0  0  0  0
 10 17  1  0  0  0  0
 10 18  1  0  0  0  0
 19 20  1  0  0  0  0
 20 21  4  0  0  0  0
 20 25  4  0  0  0  0
 21 22  4  0  0  0  0
 21 27  1  0  0  0  0
 22 23  4  0  0  0  0
 22 28  1  0  0  0  0
 23 24  4  0  0  0  0
 23 26  1  0  0  0  0
 24 25  4  0  0  0  0
 24 29  1  0  0  0  0
 25 30  1  0  0  0  0
 26 31  1  0  0  0  0
 26 32  1  0  0  0  0
M  END
> <BCLConfClusterSize>
1

> <ConfClashScore>
0 

> <ConfOneFourInteractionScore>
-0.985807 

> <ConfScore>
0.390632 

> <ConfScorePBest>
0.00228009 

> <ConfTolerance>
1.17489 

> <RosettaParamsInstructions>
M  ROOT 3
M  POLY_N_BB 3
M  POLY_CA_BB 4
M  POLY_C_BB 2
M  POLY_O_BB 5
M  POLY_IGNORE 9 10 11 12 13 14 15 16 17 18 
M  POLY_UPPER 6
M  POLY_LOWER 8
M  POLY_CHG 0
M  POLY_PROPERTIES ALPHA_AA L_AA PROTEIN AROMATIC POLYMER 
M  END

$$$$



 32 32  0  0  0  0  0  0  0  0999 V2000
   -1.6176    2.0855   -0.6717 H   0  0  0  1  0  0  0  0  0  0  0  0
    0.1803    3.1808   -0.5770 C   0  0  0  1  0  0  0  0  0  0  0  0
   -0.2065    0.8635    0.1778 N   0  0  0  1  0  0  0  0  0  0  0  0
   -0.8118    2.1782    0.0261 C   0  0  0  1  0  0  0  0  0  0  0  0
   -0.1925    4.2857   -0.9685 O   0  0  0  1  0  0  0  0  0  0  0  0
    1.4679    2.8197   -0.5680 N   0  0  0  1  0  0  0  0  0  0  0  0
    0.4484    0.7059    0.8896 H   0  0  0  1  0  0  0  0  0  0  0  0
   -0.5451   -0.1388   -0.6594 C   0  0  0  1  0  0  0  0  0  0  0  0
    2.5154    3.6619   -1.1260 C   0  0  0  1  0  0  0  0  0  0  0  0
    0.2598   -1.4223   -0.5971 C   0  0  0  1  0  0  0  0  0  0  0  0
   -1.4790   -0.0176   -1.4511 O   0  0  0  1  0  0  0  0  0  0  0  0
    1.7147    1.9580   -0.1718 H   0  0  0  1  0  0  0  0  0  0  0  0
    2.2384    4.6905   -1.0250 H   0  0  0  1  0  0  0  0  0  0  0  0
    2.6466    3.4282   -2.1619 H   0  0  0  1  0  0  0  0  0  0  0  0
    3.4313    3.4862   -0.6015 H   0  0  0  1  0  0  0  0  0  0  0  0
    0.5650   -1.6039    0.4123 H   0  0  0  1  0  0  0  0  0  0  0  0
    1.1250   -1.3311   -1.2200 H   0  0  0  1  0  0  0  0  0  0  0  0
   -0.3424   -2.2377   -0.9395 H   0  0  0  1  0  0  0  0  0  0  0  0
   -4.4301    8.0052    0.4437 Br  0  0  0  1  0  0  0  0  0  0  0  0
   -3.4402    6.4149    0.6951 C   0  0  0  1  0  0  0  0  0  0  0  0
   -2.9395    6.1049    1.9500 C   0  0  0  1  0  0  0  0  0  0  0  0
   -2.2831    4.9061    2.1555 C   0  0  0  1  0  0  0  0  0  0  0  0
   -2.1302    4.0114    1.1079 C   0  0  0  1  0  0  0  0  0  0  0  0
   -2.6293    4.3203   -0.1435 C   0  0  0  1  0  0  0  0  0  0  0  0
   -3.2876    5.5227   -0.3494 C   0  0  0  1  0  0  0  0  0  0  0  0
   -1.4180    2.6985    1.3331 C   0  0  0  1  0  0  0  0  0  0  0  0
   -3.0578    6.7744    2.7369 H   0  0  0  1  0  0  0  0  0  0  0  0
   -1.9040    4.6754    3.0960 H   0  0  0  1  0  0  0  0  0  0  0  0
   -2.5109    3.6507   -0.9304 H   0  0  0  1  0  0  0  0  0  0  0  0
   -3.6667    5.7534   -1.2900 H   0  0  0  1  0  0  0  0  0  0  0  0
   -0.6365    2.8418    2.0498 H   0  0  0  1  0  0  0  0  0  0  0  0
   -2.1173    1.9796    1.7061 H   0  0  0  1  0  0  0  0  0  0  0  0
  1  4  1  0  0  0  0
  2  4  1  0  0  0  0
  2  5  2  0  0  0  0
  2  6  1  0  0  0  0
  3  4  1  0  0  0  0
  3  7  1  0  0  0  0
  3  8  1  0  0  0  0
  4 26  1  0  0  0  0
  6  9  1  0  0  0  0
  6 12  1  0  0  0  0
  8 10  1  0  0  0  0
  8 11  2  0  0  0  0
  9 13  1  0  0  0  0
  9 14  1  0  0  0  0
  9 15  1  0  0  0  0
 10 16  1  0  0  0  0
 10 17  1  0  0  0  0
 10 18  1  0  0  0  0
 19 20  1  0  0  0  0
 20 21  4  0  0  0  0
 20 25  4  0  0  0  0
 21 22  4  0  0  0  0
 21 27  1  0  0  0  0
 22 23  4  0  0  0  0
 22 28  1  0  0  0  0
 23 24  4  0  0  0  0
 23 26  1  0  0  0  0
 24 25  4  0  0  0  0
 24 29  1  0  0  0  0
 25 30  1  0  0  0  0
 26 31  1  0  0  0  0
 26 32  1  0  0  0  0
M  END
> <BCLConfClusterSize>
1

> <ConfClashScore>
0 

> <ConfOneFourInteractionScore>
-0.934209 

> <ConfScore>
0.402193 

> <ConfScorePBest>
0.00225161 

> <ConfTolerance>
1.10656 

> <RosettaParamsInstructions>
M  ROOT 3
M  POLY_N_BB 3
M  POLY_CA_BB 4
M  POLY_C_BB 2
M  POLY_O_BB 5
M  POLY_IGNORE 9 10 11 12 13 14 15 16 17 18 
M  POLY_UPPER 6
M  POLY_LOWER 8
M  POLY_CHG 0
M  POLY_PROPERTIES ALPHA_AA L_AA PROTEIN AROMATIC POLYMER 
M  END

$$$$



 32 32  0  0  0  0  0  0  0  0999 V2000
    0.2272    3.4738    0.2921 H   0  0  0  1  0  0  0  0  0  0  0  0
    0.9137    3.0912    2.2270 C   0  0  0  1  0  0  0  0  0  0  0  0
    0.4902    1.4515    0.3982 N   0  0  0  1  0  0  0  0  0  0  0  0
    0.0788    2.7021    1.0184 C   0  0  0  1  0  0  0  0  0  0  0  0
    0.4131    3.6875    3.1790 O   0  0  0  1  0  0  0  0  0  0  0  0
    2.1838    2.6727    2.2301 N   0  0  0  1  0  0  0  0  0  0  0  0
    0.7904    1.4854   -0.5341 H   0  0  0  1  0  0  0  0  0  0  0  0
    0.4895    0.2608    1.0040 C   0  0  0  1  0  0  0  0  0  0  0  0
    3.1149    3.0223    3.2926 C   0  0  0  1  0  0  0  0  0  0  0  0
    0.8646   -0.9122    0.1052 C   0  0  0  1  0  0  0  0  0  0  0  0
    0.2891    0.0898    2.2058 O   0  0  0  1  0  0  0  0  0  0  0  0
    2.4986    2.1111    1.4913 H   0  0  0  1  0  0  0  0  0  0  0  0
    2.7727    2.6081    4.2179 H   0  0  0  1  0  0  0  0  0  0  0  0
    3.1737    4.0872    3.3789 H   0  0  0  1  0  0  0  0  0  0  0  0
    4.0828    2.6286    3.0621 H   0  0  0  1  0  0  0  0  0  0  0  0
    0.1075   -1.0487   -0.6385 H   0  0  0  1  0  0  0  0  0  0  0  0
    0.9488   -1.8008    0.6953 H   0  0  0  1  0  0  0  0  0  0  0  0
    1.8007   -0.7104   -0.3721 H   0  0  0  1  0  0  0  0  0  0  0  0
   -4.4301    8.0052    0.4437 Br  0  0  0  1  0  0  0  0  0  0  0  0
   -3.4402    6.4149    0.6951 C   0  0  0  1  0  0  0  0  0  0  0  0
   -2.9395    6.1049    1.9500 C   0  0  0  1  0  0  0  0  0  0  0  0
   -2.2831    4.9061    2.1555 C   0  0  0  1  0  0  0  0  0  0  0  0
   -2.1302    4.0114    1.1079 C   0  0  0  1  0  0  0  0  0  0  0  0
   -2.6293    4.3203   -0.1435 C   0  0  0  1  0  0  0  0  0  0  0  0
   -3.2876    5.5227   -0.3494 C   0  0  0  1  0  0  0  0  0  0  0  0
   -1.4180    2.6985    1.3331 C   0  0  0  1  0  0  0  0  0  0  0  0
   -3.0578    6.7744    2.7369 H   0  0  0  1  0  0  0  0  0  0  0  0
   -1.9040    4.6754    3.0960 H   0  0  0  1  0  0  0  0  0  0  0  0
   -2.5109    3.6507   -0.9304 H   0  0  0  1  0  0  0  0  0  0  0  0
   -3.6667    5.7534   -1.2900 H   0  0  0  1  0  0  0  0  0  0  0  0
   -1.5383    2.4300    2.3619 H   0  0  0  1  0  0  0  0  0  0  0  0
   -1.8836    1.9601    0.7144 H   0  0  0  1  0  0  0  0  0  0  0  0
  1  4  1  0  0  0  0
  2  4  1  0  0  0  0
  2  5  2  0  0  0  0
  2  6  1  0  0  0  0
  3  4  1  0  0  0  0
  3  7  1  0  0  0  0
  3  8  1  0  0  0  0
  4 26  1  0  0  0  0
  6  9  1  0  0  0  0
  6 12  1  0  0  0  0
  8 10  1  0  0  0  0
  8 11  2  0  0  0  0
  9 13  1  0  0  0  0
  9 14  1  0  0  0  0
  9 15  1  0  0  0  0
 10 16  1  0  0  0  0
 10 17  1  0  0  0  0
 10 18  1  0  0  0  0
 19 20  1  0  0  0  0
 20 21  4  0  0  0  0
 20 25  4  0  0  0  0
 21 22  4  0  0  0  0
 21 27  1  0  0  0  0
 22 23  4  0  0  0  0
 22 28  1  0  0  0  0
 23 24  4  0  0  0  0
 23 26  1  0  0  0  0
 24 25  4  0  0  0  0
 24 29  1  0  0  0  0
 25 30  1  0  0  0  0
 26 31  1  0  0  0  0
 26 32  1  0  0  0  0
M  END
> <BCLConfClusterSize>
1

> <ConfClashScore>
0 

> <ConfOneFourInteractionScore>
-0.949684 

> <ConfScore>
0.419858 

> <ConfScorePBest>
0.00222313 

> <ConfTolerance>
1.10508 

> <RosettaParamsInstructions>
M  ROOT 3
M  POLY_N_BB 3
M  POLY_CA_BB 4
M  POLY_C_BB 2
M  POLY_O_BB 5
M  POLY_IGNORE 9 10 11 12 13 14 15 16 17 18 
M  POLY_UPPER 6
M  POLY_LOWER 8
M  POLY_CHG 0
M  POLY_PROPERTIES ALPHA_AA L_AA PROTEIN AROMATIC POLYMER 
M  END

$$$$



 32 32  0  0  0  0  0  0  0  0999 V2000
    0.4548    3.5774    1.7710 H   0  0  0  1  0  0  0  0  0  0  0  0
    0.7347    1.4968    1.5996 C   0  0  0  1  0  0  0  0  0  0  0  0
    0.4539    3.1256   -0.2387 N   0  0  0  1  0  0  0  0  0  0  0  0
    0.0976    2.7960    1.1333 C   0  0  0  1  0  0  0  0  0  0  0  0
    1.2390    1.4025    2.7175 O   0  0  0  1  0  0  0  0  0  0  0  0
    0.6345    0.4548    0.7674 N   0  0  0  1  0  0  0  0  0  0  0  0
    1.1224    3.8240   -0.3989 H   0  0  0  1  0  0  0  0  0  0  0  0
   -0.0987    2.5092   -1.2873 C   0  0  0  1  0  0  0  0  0  0  0  0
    1.2123   -0.8448    1.0759 C   0  0  0  1  0  0  0  0  0  0  0  0
    0.5022    2.8423   -2.6391 C   0  0  0  1  0  0  0  0  0  0  0  0
   -1.0278    1.7254   -1.1833 O   0  0  0  1  0  0  0  0  0  0  0  0
    0.1552    0.5703   -0.0795 H   0  0  0  1  0  0  0  0  0  0  0  0
    0.4977   -1.6126    0.8646 H   0  0  0  1  0  0  0  0  0  0  0  0
    1.4776   -0.8801    2.1119 H   0  0  0  1  0  0  0  0  0  0  0  0
    2.0864   -0.9971    0.4779 H   0  0  0  1  0  0  0  0  0  0  0  0
    0.9513    3.8127   -2.6009 H   0  0  0  1  0  0  0  0  0  0  0  0
   -0.2671    2.8346   -3.3827 H   0  0  0  1  0  0  0  0  0  0  0  0
    1.2463    2.1147   -2.8874 H   0  0  0  1  0  0  0  0  0  0  0  0
   -4.4301    8.0052    0.4437 Br  0  0  0  1  0  0  0  0  0  0  0  0
   -3.4402    6.4149    0.6951 C   0  0  0  1  0  0  0  0  0  0  0  0
   -2.9395    6.1049    1.9500 C   0  0  0  1  0  0  0  0  0  0  0  0
   -2.2831    4.9061    2.1555 C   0  0  0  1  0  0  0  0  0  0  0  0
   -2.1302    4.0114    1.1079 C   0  0  0  1  0  0  0  0  0  0  0  0
   -2.6293    4.3203   -0.1435 C   0  0  0  1  0  0  0  0  0  0  0  0
   -3.2876    5.5227   -0.3494 C   0  0  0  1  0  0  0  0  0  0  0  0
   -1.4180    2.6985    1.3331 C   0  0  0  1  0  0  0  0  0  0  0  0
   -3.0578    6.7744    2.7369 H   0  0  0  1  0  0  0  0  0  0  0  0
   -1.9040    4.6754    3.0960 H   0  0  0  1  0  0  0  0  0  0  0  0
   -2.5109    3.6507   -0.9304 H   0  0  0  1  0  0  0  0  0  0  0  0
   -3.6667    5.7534   -1.2900 H   0  0  0  1  0  0  0  0  0  0  0  0
   -1.6094    2.3748    2.3349 H   0  0  0  1  0  0  0  0  0  0  0  0
   -1.8067    1.9777    0.6444 H   0  0  0  1  0  0  0  0  0  0  0  0
  1  4  1  0  0  0  0
  2  4  1  0  0  0  0
  2  5  2  0  0  0  0
  2  6  1  0  0  0  0
  3  4  1  0  0  0  0
  3  7  1  0  0  0  0
  3  8  1  0  0  0  0
  4 26  1  0  0  0  0
  6  9  1  0  0  0  0
  6 12  1  0  0  0  0
  8 10  1  0  0  0  0
  8 11  2  0  0  0  0
  9 13  1  0  0  0  0
  9 14  1  0  0  0  0
  9 15  1  0  0  0  0
 10 16  1  0  0  0  0
 10 17  1  0  0  0  0
 10 18  1  0  0  0  0
 19 20  1  0  0  0  0
 20 21  4  0  0  0  0
 20 25  4  0  0  0  0
 21 22  4  0  0  0  0
 21 27  1  0  0  0  0
 22 23  4  0  0  0  0
 22 28  1  0  0  0  0
 23 24  4  0  0  0  0
 23 26  1  0  0  0  0
 24 25  4  0  0  0  0
 24 29  1  0  0  0  0
 25 30  1  0  0  0  0
 26 31  1  0  0  0  0
 26 32  1  0  0  0  0
M  END
> <BCLConfClusterSize>
1

> <ConfClashScore>
0.000374226 

> <ConfOneFourInteractionScore>
-0.958711 

> <ConfScore>
0.427991 

> <ConfScorePBest>
0.00219465 

> <ConfTolerance>
1.27682 

> <RosettaParamsInstructions>
M  ROOT 3
M  POLY_N_BB 3
M  POLY_CA_BB 4
M  POLY_C_BB 2
M  POLY_O_BB 5
M  POLY_IGNORE 9 10 11 12 13 14 15 16 17 18 
M  POLY_UPPER 6
M  POLY_LOWER 8
M  POLY_CHG 0
M  POLY_PROPERTIES ALPHA_AA L_AA PROTEIN AROMATIC POLYMER 
M  END

$$$$



 32 32  0  0  0  0  0  0  0  0999 V2000
   -1.8192    0.7674    2.0386 H   0  0  0  1  0  0  0  0  0  0  0  0
   -2.6882    2.0398    3.4476 C   0  0  0  1  0  0  0  0  0  0  0  0
   -3.5290    1.4711    1.1709 N   0  0  0  1  0  0  0  0  0  0  0  0
   -2.3571    1.6918    2.0063 C   0  0  0  1  0  0  0  0  0  0  0  0
   -1.8252    1.9333    4.3176 O   0  0  0  1  0  0  0  0  0  0  0  0
   -3.9077    2.5356    3.6830 N   0  0  0  1  0  0  0  0  0  0  0  0
   -3.4952    1.7812    0.2419 H   0  0  0  1  0  0  0  0  0  0  0  0
   -4.6569    0.8676    1.5937 C   0  0  0  1  0  0  0  0  0  0  0  0
   -4.3794    2.8342    5.0269 C   0  0  0  1  0  0  0  0  0  0  0  0
   -5.7033    0.6813    0.4946 C   0  0  0  1  0  0  0  0  0  0  0  0
   -4.8588    0.4896    2.7470 O   0  0  0  1  0  0  0  0  0  0  0  0
   -4.5045    2.7036    2.9240 H   0  0  0  1  0  0  0  0  0  0  0  0
   -3.5528    3.1323    5.6376 H   0  0  0  1  0  0  0  0  0  0  0  0
   -4.8362    1.9623    5.4463 H   0  0  0  1  0  0  0  0  0  0  0  0
   -5.0960    3.6278    4.9850 H   0  0  0  1  0  0  0  0  0  0  0  0
   -6.6458    0.4345    0.9369 H   0  0  0  1  0  0  0  0  0  0  0  0
   -5.3978   -0.1098   -0.1579 H   0  0  0  1  0  0  0  0  0  0  0  0
   -5.7985    1.5887   -0.0643 H   0  0  0  1  0  0  0  0  0  0  0  0
   -4.4293    8.0064    0.4488 Br  0  0  0  1  0  0  0  0  0  0  0  0
   -3.4402    6.4147    0.6945 C   0  0  0  1  0  0  0  0  0  0  0  0
   -2.9381    6.1009    1.9479 C   0  0  0  1  0  0  0  0  0  0  0  0
   -2.2824    4.9010    2.1493 C   0  0  0  1  0  0  0  0  0  0  0  0
   -2.1315    4.0091    1.0990 C   0  0  0  1  0  0  0  0  0  0  0  0
   -2.6320    4.3218   -0.1508 C   0  0  0  1  0  0  0  0  0  0  0  0
   -3.2897    5.5252   -0.3526 C   0  0  0  1  0  0  0  0  0  0  0  0
   -1.4121    2.7100    1.3751 C   0  0  0  1  0  0  0  0  0  0  0  0
   -3.0549    6.7683    2.7368 H   0  0  0  1  0  0  0  0  0  0  0  0
   -1.9022    4.6674    3.0887 H   0  0  0  1  0  0  0  0  0  0  0  0
   -2.5152    3.6543   -0.9397 H   0  0  0  1  0  0  0  0  0  0  0  0
   -3.6699    5.7589   -1.2920 H   0  0  0  1  0  0  0  0  0  0  0  0
   -1.0350    2.3152    0.4549 H   0  0  0  1  0  0  0  0  0  0  0  0
   -0.5981    2.8951    2.0445 H   0  0  0  1  0  0  0  0  0  0  0  0
  1  4  1  0  0  0  0
  2  4  1  0  0  0  0
  2  5  2  0  0  0  0
  2  6  1  0  0  0  0
  3  4  1  0  0  0  0
  3  7  1  0  0  0  0
  3  8  1  0  0  0  0
  4 26  1  0  0  0  0
  6  9  1  0  0  0  0
  6 12  1  0  0  0  0
  8 10  1  0  0  0  0
  8 11  2  0  0  0  0
  9 13  1  0  0  0  0
  9 14  1  0  0  0  0
  9 15  1  0  0  0  0
 10 16  1  0  0  0  0
 10 17  1  0  0  0  0
 10 18  1  0  0  0  0
 19 20  1  0  0  0  0
 20 21  4  0  0  0  0
 20 25  4  0  0  0  0
 21 22  4  0  0  0  0
 21 27  1  0  0  0  0
 22 23  4  0  0  0  0
 22 28  1  0  0  0  0
 23 24  4  0  0  0  0
 23 26  1  0  0  0  0
 24 25  4  0  0  0  0
 24 29  1  0  0  0  0
 25 30  1  0  0  0  0
 26 31  1  0  0  0  0
 26 32  1  0  0  0  0
M  END
> <BCLConfClusterSize>
1

> <ConfClashScore>
0.000543119 

> <ConfOneFourInteractionScore>
-0.950605 

> <ConfScore>
0.457038 

> <ConfScorePBest>
0.00216617 

> <ConfTolerance>
1.97574 

> <RosettaParamsInstructions>
M  ROOT 3
M  POLY_N_BB 3
M  POLY_CA_BB 4
M  POLY_C_BB 2
M  POLY_O_BB 5
M  POLY_IGNORE 9 10 11 12 13 14 15 16 17 18 
M  POLY_UPPER 6
M  POLY_LOWER 8
M  POLY_CHG 0
M  POLY_PROPERTIES ALPHA_AA L_AA PROTEIN AROMATIC POLYMER 
M  END

$$$$
