


 32 32  0  0  0  0  0  0  0  0999 V2000
    0.4541    1.7204   -1.1225 H   0  0  0  1  0  0  0  0  0  0  0  0
   -0.3925    1.2567   -3.0003 C   0  0  0  1  0  0  0  0  0  0  0  0
   -1.0511    0.3373   -0.8171 N   0  0  0  1  0  0  0  0  0  0  0  0
   -0.5193    1.5006   -1.5087 C   0  0  0  1  0  0  0  0  0  0  0  0
   -0.2651    0.1165   -3.4447 O   0  0  0  1  0  0  0  0  0  0  0  0
   -0.4235    2.3204   -3.8187 N   0  0  0  1  0  0  0  0  0  0  0  0
   -1.9478    0.3703   -0.4232 H   0  0  0  1  0  0  0  0  0  0  0  0
   -0.3126   -0.7873   -0.7167 C   0  0  0  1  0  0  0  0  0  0  0  0
   -0.2371    2.2677   -5.2610 C   0  0  0  1  0  0  0  0  0  0  0  0
   -0.9497   -1.9270    0.0543 C   0  0  0  1  0  0  0  0  0  0  0  0
    0.8078   -0.8995   -1.2123 O   0  0  0  1  0  0  0  0  0  0  0  0
   -0.5837    3.1986   -3.4143 H   0  0  0  1  0  0  0  0  0  0  0  0
   -0.7459    1.4133   -5.6559 H   0  0  0  1  0  0  0  0  0  0  0  0
    0.8071    2.1947   -5.4830 H   0  0  0  1  0  0  0  0  0  0  0  0
   -0.6353    3.1563   -5.7046 H   0  0  0  1  0  0  0  0  0  0  0  0
   -1.1583   -1.6090    1.0545 H   0  0  0  1  0  0  0  0  0  0  0  0
   -0.2788   -2.7603    0.0779 H   0  0  0  1  0  0  0  0  0  0  0  0
   -1.8615   -2.2160   -0.4253 H   0  0  0  1  0  0  0  0  0  0  0  0
   -6.0702    1.3178   -0.9688 F   0  0  0  1  0  0  0  0  0  0  0  0
   -5.0579    1.8679   -1.6663 C   0  0  0  1  0  0  0  0  0  0  0  0
   -5.3137    2.2954   -2.9599 C   0  0  0  1  0  0  0  0  0  0  0  0
   -4.3026    2.8609   -3.7137 C   0  0  0  1  0  0  0  0  0  0  0  0
   -3.0340    3.0053   -3.1741 C   0  0  0  1  0  0  0  0  0  0  0  0
   -2.7787    2.5791   -1.8843 C   0  0  0  1  0  0  0  0  0  0  0  0
   -3.7930    2.0120   -1.1285 C   0  0  0  1  0  0  0  0  0  0  0  0
   -1.4159    2.7050   -1.2454 C   0  0  0  1  0  0  0  0  0  0  0  0
   -4.5499    3.2715   -4.9723 F   0  0  0  1  0  0  0  0  0  0  0  0
   -6.2666    2.1907   -3.3633 H   0  0  0  1  0  0  0  0  0  0  0  0
   -2.2741    3.4345   -3.7398 H   0  0  0  1  0  0  0  0  0  0  0  0
   -3.6020    1.6949   -0.1566 H   0  0  0  1  0  0  0  0  0  0  0  0
   -0.9363    3.5784   -1.6354 H   0  0  0  1  0  0  0  0  0  0  0  0
   -1.5437    2.8098   -0.1882 H   0  0  0  1  0  0  0  0  0  0  0  0
  1  4  1  0  0  0  0
  2  4  1  0  0  0  0
  2  5  2  0  0  0  0
  2  6  1  0  0  0  0
  3  4  1  0  0  0  0
  3  7  1  0  0  0  0
  3  8  1  0  0  0  0
  4 26  1  0  0  0  0
  6  9  1  0  0  0  0
  6 12  1  0  0  0  0
  8 10  1  0  0  0  0
  8 11  2  0  0  0  0
  9 13  1  0  0  0  0
  9 14  1  0  0  0  0
  9 15  1  0  0  0  0
 10 16  1  0  0  0  0
 10 17  1  0  0  0  0
 10 18  1  0  0  0  0
 19 20  1  0  0  0  0
 20 21  4  0  0  0  0
 20 25  4  0  0  0  0
 21 22  4  0  0  0  0
 21 28  1  0  0  0  0
 22 23  4  0  0  0  0
 22 27  1  0  0  0  0
 23 24  4  0  0  0  0
 23 29  1  0  0  0  0
 24 25  4  0  0  0  0
 24 26  1  0  0  0  0
 25 30  1  0  0  0  0
 26 31  1  0  0  0  0
 26 32  1  0  0  0  0
M  END
> <BCLConfClusterSize>
1

> <ConfClashScore>
0 

> <ConfOneFourInteractionScore>
-0.955611 

> <ConfScore>
-0.143344 

> <ConfScorePBest>
0.00783383 

> <ConfTolerance>
0.208752 

> <RosettaParamsInstructions>
M  ROOT 3
M  POLY_N_BB 3
M  POLY_CA_BB 4
M  POLY_C_BB 2
M  POLY_O_BB 5
M  POLY_IGNORE 9 10 11 12 13 14 15 16 17 18 
M  POLY_UPPER 6
M  POLY_LOWER 8
M  POLY_CHG 0
M  POLY_PROPERTIES ALPHA_AA D_AA PROTEIN AROMATIC POLYMER 
M  END

$$$$



 32 32  0  0  0  0  0  0  0  0999 V2000
    0.3011    1.6324   -0.7831 H   0  0  0  1  0  0  0  0  0  0  0  0
   -0.1721    1.0064   -2.7031 C   0  0  0  1  0  0  0  0  0  0  0  0
   -1.2375    0.3043   -0.5490 N   0  0  0  1  0  0  0  0  0  0  0  0
   -0.6081    1.4151   -1.3037 C   0  0  0  1  0  0  0  0  0  0  0  0
    0.1474   -0.1295   -3.0133 O   0  0  0  1  0  0  0  0  0  0  0  0
   -0.1521    1.9810   -3.6167 N   0  0  0  1  0  0  0  0  0  0  0  0
   -1.2699    0.3556    0.4291 H   0  0  0  1  0  0  0  0  0  0  0  0
   -1.7619   -0.7640   -1.1563 C   0  0  0  1  0  0  0  0  0  0  0  0
    0.4559    1.8057   -4.9272 C   0  0  0  1  0  0  0  0  0  0  0  0
   -2.1123   -1.9298   -0.2522 C   0  0  0  1  0  0  0  0  0  0  0  0
   -1.9538   -0.8163   -2.3600 O   0  0  0  1  0  0  0  0  0  0  0  0
   -0.5611    2.8440   -3.3966 H   0  0  0  1  0  0  0  0  0  0  0  0
    0.8652    2.7372   -5.2585 H   0  0  0  1  0  0  0  0  0  0  0  0
   -0.2865    1.4750   -5.6232 H   0  0  0  1  0  0  0  0  0  0  0  0
    1.2359    1.0761   -4.8635 H   0  0  0  1  0  0  0  0  0  0  0  0
   -1.2561   -2.2004    0.3297 H   0  0  0  1  0  0  0  0  0  0  0  0
   -2.4162   -2.7646   -0.8486 H   0  0  0  1  0  0  0  0  0  0  0  0
   -2.9118   -1.6471    0.4003 H   0  0  0  1  0  0  0  0  0  0  0  0
   -6.0702    1.3178   -0.9688 F   0  0  0  1  0  0  0  0  0  0  0  0
   -5.0579    1.8679   -1.6663 C   0  0  0  1  0  0  0  0  0  0  0  0
   -5.3137    2.2954   -2.9599 C   0  0  0  1  0  0  0  0  0  0  0  0
   -4.3026    2.8609   -3.7137 C   0  0  0  1  0  0  0  0  0  0  0  0
   -3.0340    3.0053   -3.1741 C   0  0  0  1  0  0  0  0  0  0  0  0
   -2.7787    2.5791   -1.8843 C   0  0  0  1  0  0  0  0  0  0  0  0
   -3.7930    2.0120   -1.1285 C   0  0  0  1  0  0  0  0  0  0  0  0
   -1.4159    2.7050   -1.2454 C   0  0  0  1  0  0  0  0  0  0  0  0
   -4.5499    3.2715   -4.9723 F   0  0  0  1  0  0  0  0  0  0  0  0
   -6.2666    2.1907   -3.3633 H   0  0  0  1  0  0  0  0  0  0  0  0
   -2.2741    3.4345   -3.7398 H   0  0  0  1  0  0  0  0  0  0  0  0
   -3.6020    1.6949   -0.1566 H   0  0  0  1  0  0  0  0  0  0  0  0
   -0.8704    3.4718   -1.7548 H   0  0  0  1  0  0  0  0  0  0  0  0
   -1.5449    2.9801   -0.2194 H   0  0  0  1  0  0  0  0  0  0  0  0
  1  4  1  0  0  0  0
  2  4  1  0  0  0  0
  2  5  2  0  0  0  0
  2  6  1  0  0  0  0
  3  4  1  0  0  0  0
  3  7  1  0  0  0  0
  3  8  1  0  0  0  0
  4 26  1  0  0  0  0
  6  9  1  0  0  0  0
  6 12  1  0  0  0  0
  8 10  1  0  0  0  0
  8 11  2  0  0  0  0
  9 13  1  0  0  0  0
  9 14  1  0  0  0  0
  9 15  1  0  0  0  0
 10 16  1  0  0  0  0
 10 17  1  0  0  0  0
 10 18  1  0  0  0  0
 19 20  1  0  0  0  0
 20 21  4  0  0  0  0
 20 25  4  0  0  0  0
 21 22  4  0  0  0  0
 21 28  1  0  0  0  0
 22 23  4  0  0  0  0
 22 27  1  0  0  0  0
 23 24  4  0  0  0  0
 23 29  1  0  0  0  0
 24 25  4  0  0  0  0
 24 26  1  0  0  0  0
 25 30  1  0  0  0  0
 26 31  1  0  0  0  0
 26 32  1  0  0  0  0
M  END
> <BCLConfClusterSize>
1

> <ConfClashScore>
0 

> <ConfOneFourInteractionScore>
-0.917907 

> <ConfScore>
-0.13272 

> <ConfScorePBest>
0.00780535 

> <ConfTolerance>
0.207224 

> <RosettaParamsInstructions>
M  ROOT 3
M  POLY_N_BB 3
M  POLY_CA_BB 4
M  POLY_C_BB 2
M  POLY_O_BB 5
M  POLY_IGNORE 9 10 11 12 13 14 15 16 17 18 
M  POLY_UPPER 6
M  POLY_LOWER 8
M  POLY_CHG 0
M  POLY_PROPERTIES ALPHA_AA D_AA PROTEIN AROMATIC POLYMER 
M  END

$$$$



 32 32  0  0  0  0  0  0  0  0999 V2000
    0.5916    2.0704   -1.4462 H   0  0  0  1  0  0  0  0  0  0  0  0
    0.0414    2.8129   -3.3333 C   0  0  0  1  0  0  0  0  0  0  0  0
   -0.6178    0.6566   -2.3306 N   0  0  0  1  0  0  0  0  0  0  0  0
   -0.2824    2.0507   -2.0631 C   0  0  0  1  0  0  0  0  0  0  0  0
    0.2880    2.2297   -4.3762 O   0  0  0  1  0  0  0  0  0  0  0  0
    0.0368    4.1512   -3.2277 N   0  0  0  1  0  0  0  0  0  0  0  0
   -1.4719    0.3219   -1.9857 H   0  0  0  1  0  0  0  0  0  0  0  0
    0.1549   -0.2020   -3.0131 C   0  0  0  1  0  0  0  0  0  0  0  0
    0.3809    5.0202   -4.3431 C   0  0  0  1  0  0  0  0  0  0  0  0
   -0.2976   -1.6460   -3.1102 C   0  0  0  1  0  0  0  0  0  0  0  0
    1.2003    0.1688   -3.5454 O   0  0  0  1  0  0  0  0  0  0  0  0
   -0.2067    4.5570   -2.3696 H   0  0  0  1  0  0  0  0  0  0  0  0
    1.1185    4.5426   -4.9537 H   0  0  0  1  0  0  0  0  0  0  0  0
    0.7717    5.9432   -3.9685 H   0  0  0  1  0  0  0  0  0  0  0  0
   -0.4944    5.2138   -4.9273 H   0  0  0  1  0  0  0  0  0  0  0  0
   -1.2017   -1.6994   -3.6801 H   0  0  0  1  0  0  0  0  0  0  0  0
   -0.4725   -2.0315   -2.1275 H   0  0  0  1  0  0  0  0  0  0  0  0
    0.4619   -2.2259   -3.5915 H   0  0  0  1  0  0  0  0  0  0  0  0
   -6.0561    1.3124   -0.9444 F   0  0  0  1  0  0  0  0  0  0  0  0
   -5.0671    1.8672   -1.6711 C   0  0  0  1  0  0  0  0  0  0  0  0
   -5.3152    2.2971   -2.9653 C   0  0  0  1  0  0  0  0  0  0  0  0
   -4.2991    2.8616   -3.7130 C   0  0  0  1  0  0  0  0  0  0  0  0
   -3.0330    3.0027   -3.1666 C   0  0  0  1  0  0  0  0  0  0  0  0
   -2.7853    2.5741   -1.8761 C   0  0  0  1  0  0  0  0  0  0  0  0
   -3.8046    2.0080   -1.1264 C   0  0  0  1  0  0  0  0  0  0  0  0
   -1.4045    2.7223   -1.2822 C   0  0  0  1  0  0  0  0  0  0  0  0
   -4.5390    3.2745   -4.9723 F   0  0  0  1  0  0  0  0  0  0  0  0
   -6.2661    2.1949   -3.3738 H   0  0  0  1  0  0  0  0  0  0  0  0
   -2.2693    3.4311   -3.7277 H   0  0  0  1  0  0  0  0  0  0  0  0
   -3.6194    1.6891   -0.1540 H   0  0  0  1  0  0  0  0  0  0  0  0
   -1.1829    3.7672   -1.2187 H   0  0  0  1  0  0  0  0  0  0  0  0
   -1.4209    2.3002   -0.2991 H   0  0  0  1  0  0  0  0  0  0  0  0
  1  4  1  0  0  0  0
  2  4  1  0  0  0  0
  2  5  2  0  0  0  0
  2  6  1  0  0  0  0
  3  4  1  0  0  0  0
  3  7  1  0  0  0  0
  3  8  1  0  0  0  0
  4 26  1  0  0  0  0
  6  9  1  0  0  0  0
  6 12  1  0  0  0  0
  8 10  1  0  0  0  0
  8 11  2  0  0  0  0
  9 13  1  0  0  0  0
  9 14  1  0  0  0  0
  9 15  1  0  0  0  0
 10 16  1  0  0  0  0
 10 17  1  0  0  0  0
 10 18  1  0  0  0  0
 19 20  1  0  0  0  0
 20 21  4  0  0  0  0
 20 25  4  0  0  0  0
 21 22  4  0  0  0  0
 21 28  1  0  0  0  0
 22 23  4  0  0  0  0
 22 27  1  0  0  0  0
 23 24  4  0  0  0  0
 23 29  1  0  0  0  0
 24 25  4  0  0  0  0
 24 26  1  0  0  0  0
 25 30  1  0  0  0  0
 26 31  1  0  0  0  0
 26 32  1  0  0  0  0
M  END
> <BCLConfClusterSize>
1

> <ConfClashScore>
0 

> <ConfOneFourInteractionScore>
-0.976093 

> <ConfScore>
-0.103341 

> <ConfScorePBest>
0.00777687 

> <ConfTolerance>
0.220256 

> <RosettaParamsInstructions>
M  ROOT 3
M  POLY_N_BB 3
M  POLY_CA_BB 4
M  POLY_C_BB 2
M  POLY_O_BB 5
M  POLY_IGNORE 9 10 11 12 13 14 15 16 17 18 
M  POLY_UPPER 6
M  POLY_LOWER 8
M  POLY_CHG 0
M  POLY_PROPERTIES ALPHA_AA D_AA PROTEIN AROMATIC POLYMER 
M  END

$$$$



 32 32  0  0  0  0  0  0  0  0999 V2000
   -0.2005    4.0730   -0.2080 H   0  0  0  1  0  0  0  0  0  0  0  0
   -2.0148    4.0368    0.8387 C   0  0  0  1  0  0  0  0  0  0  0  0
   -1.5562    5.1891   -1.2910 N   0  0  0  1  0  0  0  0  0  0  0  0
   -1.2369    4.0084   -0.4662 C   0  0  0  1  0  0  0  0  0  0  0  0
   -2.2814    5.0547    1.4493 O   0  0  0  1  0  0  0  0  0  0  0  0
   -2.4104    2.8524    1.3077 N   0  0  0  1  0  0  0  0  0  0  0  0
   -1.7965    5.0352   -2.2286 H   0  0  0  1  0  0  0  0  0  0  0  0
   -1.5423    6.4629   -0.8525 C   0  0  0  1  0  0  0  0  0  0  0  0
   -3.0968    2.6456    2.5699 C   0  0  0  1  0  0  0  0  0  0  0  0
   -1.8522    7.4823   -1.9314 C   0  0  0  1  0  0  0  0  0  0  0  0
   -1.3051    6.8015    0.3040 O   0  0  0  1  0  0  0  0  0  0  0  0
   -2.2235    2.0624    0.7588 H   0  0  0  1  0  0  0  0  0  0  0  0
   -3.9148    3.3309    2.6481 H   0  0  0  1  0  0  0  0  0  0  0  0
   -2.4149    2.8111    3.3777 H   0  0  0  1  0  0  0  0  0  0  0  0
   -3.4665    1.6425    2.6144 H   0  0  0  1  0  0  0  0  0  0  0  0
   -0.9883    8.0881   -2.1091 H   0  0  0  1  0  0  0  0  0  0  0  0
   -2.6635    8.1030   -1.6129 H   0  0  0  1  0  0  0  0  0  0  0  0
   -2.1235    6.9750   -2.8336 H   0  0  0  1  0  0  0  0  0  0  0  0
   -6.0561    1.3124   -0.9444 F   0  0  0  1  0  0  0  0  0  0  0  0
   -5.0671    1.8672   -1.6711 C   0  0  0  1  0  0  0  0  0  0  0  0
   -5.3152    2.2971   -2.9653 C   0  0  0  1  0  0  0  0  0  0  0  0
   -4.2991    2.8616   -3.7130 C   0  0  0  1  0  0  0  0  0  0  0  0
   -3.0330    3.0027   -3.1666 C   0  0  0  1  0  0  0  0  0  0  0  0
   -2.7853    2.5741   -1.8761 C   0  0  0  1  0  0  0  0  0  0  0  0
   -3.8046    2.0080   -1.1264 C   0  0  0  1  0  0  0  0  0  0  0  0
   -1.4045    2.7223   -1.2822 C   0  0  0  1  0  0  0  0  0  0  0  0
   -4.5390    3.2745   -4.9723 F   0  0  0  1  0  0  0  0  0  0  0  0
   -6.2661    2.1949   -3.3738 H   0  0  0  1  0  0  0  0  0  0  0  0
   -2.2693    3.4311   -3.7277 H   0  0  0  1  0  0  0  0  0  0  0  0
   -3.6194    1.6891   -0.1540 H   0  0  0  1  0  0  0  0  0  0  0  0
   -1.2176    1.8858   -0.6418 H   0  0  0  1  0  0  0  0  0  0  0  0
   -0.6901    2.7289   -2.0788 H   0  0  0  1  0  0  0  0  0  0  0  0
  1  4  1  0  0  0  0
  2  4  1  0  0  0  0
  2  5  2  0  0  0  0
  2  6  1  0  0  0  0
  3  4  1  0  0  0  0
  3  7  1  0  0  0  0
  3  8  1  0  0  0  0
  4 26  1  0  0  0  0
  6  9  1  0  0  0  0
  6 12  1  0  0  0  0
  8 10  1  0  0  0  0
  8 11  2  0  0  0  0
  9 13  1  0  0  0  0
  9 14  1  0  0  0  0
  9 15  1  0  0  0  0
 10 16  1  0  0  0  0
 10 17  1  0  0  0  0
 10 18  1  0  0  0  0
 19 20  1  0  0  0  0
 20 21  4  0  0  0  0
 20 25  4  0  0  0  0
 21 22  4  0  0  0  0
 21 28  1  0  0  0  0
 22 23  4  0  0  0  0
 22 27  1  0  0  0  0
 23 24  4  0  0  0  0
 23 29  1  0  0  0  0
 24 25  4  0  0  0  0
 24 26  1  0  0  0  0
 25 30  1  0  0  0  0
 26 31  1  0  0  0  0
 26 32  1  0  0  0  0
M  END
> <BCLConfClusterSize>
1

> <ConfClashScore>
0 

> <ConfOneFourInteractionScore>
-0.942828 

> <ConfScore>
-0.0977035 

> <ConfScorePBest>
0.00774839 

> <ConfTolerance>
0.184239 

> <RosettaParamsInstructions>
M  ROOT 3
M  POLY_N_BB 3
M  POLY_CA_BB 4
M  POLY_C_BB 2
M  POLY_O_BB 5
M  POLY_IGNORE 9 10 11 12 13 14 15 16 17 18 
M  POLY_UPPER 6
M  POLY_LOWER 8
M  POLY_CHG 0
M  POLY_PROPERTIES ALPHA_AA D_AA PROTEIN AROMATIC POLYMER 
M  END

$$$$



 32 32  0  0  0  0  0  0  0  0999 V2000
    0.1135    4.0143   -0.6921 H   0  0  0  1  0  0  0  0  0  0  0  0
   -1.6311    4.5038    0.3770 C   0  0  0  1  0  0  0  0  0  0  0  0
   -1.1327    5.0213   -1.9837 N   0  0  0  1  0  0  0  0  0  0  0  0
   -0.9344    4.0690   -0.9013 C   0  0  0  1  0  0  0  0  0  0  0  0
   -2.0329    5.6573    0.5245 O   0  0  0  1  0  0  0  0  0  0  0  0
   -1.7731    3.5547    1.3157 N   0  0  0  1  0  0  0  0  0  0  0  0
   -1.5720    4.7184   -2.8057 H   0  0  0  1  0  0  0  0  0  0  0  0
   -0.7363    6.2960   -1.8956 C   0  0  0  1  0  0  0  0  0  0  0  0
   -2.2961    3.9485    2.6154 C   0  0  0  1  0  0  0  0  0  0  0  0
   -1.0432    7.1659   -3.0990 C   0  0  0  1  0  0  0  0  0  0  0  0
   -0.1584    6.7512   -0.9095 O   0  0  0  1  0  0  0  0  0  0  0  0
   -1.5315    2.6231    1.1309 H   0  0  0  1  0  0  0  0  0  0  0  0
   -2.0780    4.9813    2.7901 H   0  0  0  1  0  0  0  0  0  0  0  0
   -1.8392    3.3537    3.3785 H   0  0  0  1  0  0  0  0  0  0  0  0
   -3.3556    3.8000    2.6332 H   0  0  0  1  0  0  0  0  0  0  0  0
   -0.2596    7.0665   -3.8208 H   0  0  0  1  0  0  0  0  0  0  0  0
   -1.1162    8.1879   -2.7907 H   0  0  0  1  0  0  0  0  0  0  0  0
   -1.9704    6.8572   -3.5348 H   0  0  0  1  0  0  0  0  0  0  0  0
   -6.0595    1.3058   -0.9485 F   0  0  0  1  0  0  0  0  0  0  0  0
   -5.0703    1.8668   -1.6702 C   0  0  0  1  0  0  0  0  0  0  0  0
   -5.3133    2.2910   -2.9673 C   0  0  0  1  0  0  0  0  0  0  0  0
   -4.2969    2.8617   -3.7098 C   0  0  0  1  0  0  0  0  0  0  0  0
   -3.0357    3.0148   -3.1554 C   0  0  0  1  0  0  0  0  0  0  0  0
   -2.7931    2.5919   -1.8621 C   0  0  0  1  0  0  0  0  0  0  0  0
   -3.8127    2.0195   -1.1175 C   0  0  0  1  0  0  0  0  0  0  0  0
   -1.3813    2.6818   -1.3328 C   0  0  0  1  0  0  0  0  0  0  0  0
   -4.5319    3.2691   -4.9719 F   0  0  0  1  0  0  0  0  0  0  0  0
   -6.2607    2.1798   -3.3818 H   0  0  0  1  0  0  0  0  0  0  0  0
   -2.2719    3.4480   -3.7127 H   0  0  0  1  0  0  0  0  0  0  0  0
   -3.6313    1.7049   -0.1430 H   0  0  0  1  0  0  0  0  0  0  0  0
   -1.3042    2.0320   -0.4862 H   0  0  0  1  0  0  0  0  0  0  0  0
   -0.7182    2.3459   -2.1025 H   0  0  0  1  0  0  0  0  0  0  0  0
  1  4  1  0  0  0  0
  2  4  1  0  0  0  0
  2  5  2  0  0  0  0
  2  6  1  0  0  0  0
  3  4  1  0  0  0  0
  3  7  1  0  0  0  0
  3  8  1  0  0  0  0
  4 26  1  0  0  0  0
  6  9  1  0  0  0  0
  6 12  1  0  0  0  0
  8 10  1  0  0  0  0
  8 11  2  0  0  0  0
  9 13  1  0  0  0  0
  9 14  1  0  0  0  0
  9 15  1  0  0  0  0
 10 16  1  0  0  0  0
 10 17  1  0  0  0  0
 10 18  1  0  0  0  0
 19 20  1  0  0  0  0
 20 21  4  0  0  0  0
 20 25  4  0  0  0  0
 21 22  4  0  0  0  0
 21 28  1  0  0  0  0
 22 23  4  0  0  0  0
 22 27  1  0  0  0  0
 23 24  4  0  0  0  0
 23 29  1  0  0  0  0
 24 25  4  0  0  0  0
 24 26  1  0  0  0  0
 25 30  1  0  0  0  0
 26 31  1  0  0  0  0
 26 32  1  0  0  0  0
M  END
> <BCLConfClusterSize>
1

> <ConfClashScore>
0 

> <ConfOneFourInteractionScore>
-0.976093 

> <ConfScore>
-0.0972586 

> <ConfScorePBest>
0.00771991 

> <ConfTolerance>
0.327038 

> <RosettaParamsInstructions>
M  ROOT 3
M  POLY_N_BB 3
M  POLY_CA_BB 4
M  POLY_C_BB 2
M  POLY_O_BB 5
M  POLY_IGNORE 9 10 11 12 13 14 15 16 17 18 
M  POLY_UPPER 6
M  POLY_LOWER 8
M  POLY_CHG 0
M  POLY_PROPERTIES ALPHA_AA D_AA PROTEIN AROMATIC POLYMER 
M  END

$$$$



 32 32  0  0  0  0  0  0  0  0999 V2000
    0.3811    1.8074   -0.8413 H   0  0  0  1  0  0  0  0  0  0  0  0
   -0.3246    0.8944   -2.5873 C   0  0  0  1  0  0  0  0  0  0  0  0
   -1.1670    0.5807   -0.2643 N   0  0  0  1  0  0  0  0  0  0  0  0
   -0.5735    1.5158   -1.2268 C   0  0  0  1  0  0  0  0  0  0  0  0
   -0.0792   -0.3051   -2.7059 O   0  0  0  1  0  0  0  0  0  0  0  0
   -0.3905    1.7338   -3.6328 N   0  0  0  1  0  0  0  0  0  0  0  0
   -1.9992    0.8322    0.1880 H   0  0  0  1  0  0  0  0  0  0  0  0
   -0.6122   -0.6018    0.0170 C   0  0  0  1  0  0  0  0  0  0  0  0
   -0.0597    1.2142   -4.9513 C   0  0  0  1  0  0  0  0  0  0  0  0
   -1.2259   -1.3383    1.2055 C   0  0  0  1  0  0  0  0  0  0  0  0
    0.3682   -1.0543   -0.5710 O   0  0  0  1  0  0  0  0  0  0  0  0
   -0.6540    2.6700   -3.5116 H   0  0  0  1  0  0  0  0  0  0  0  0
   -0.1129    2.0048   -5.6704 H   0  0  0  1  0  0  0  0  0  0  0  0
   -0.7544    0.4446   -5.2157 H   0  0  0  1  0  0  0  0  0  0  0  0
    0.9314    0.8113   -4.9372 H   0  0  0  1  0  0  0  0  0  0  0  0
   -1.9915   -2.0005    0.8587 H   0  0  0  1  0  0  0  0  0  0  0  0
   -1.6495   -0.6283    1.8847 H   0  0  0  1  0  0  0  0  0  0  0  0
   -0.4667   -1.9023    1.7060 H   0  0  0  1  0  0  0  0  0  0  0  0
   -6.0358    1.3119   -0.9110 F   0  0  0  1  0  0  0  0  0  0  0  0
   -5.0737    1.8657   -1.6737 C   0  0  0  1  0  0  0  0  0  0  0  0
   -5.3227    2.3026   -2.9654 C   0  0  0  1  0  0  0  0  0  0  0  0
   -4.3043    2.8603   -3.7150 C   0  0  0  1  0  0  0  0  0  0  0  0
   -3.0348    2.9878   -3.1729 C   0  0  0  1  0  0  0  0  0  0  0  0
   -2.7863    2.5523   -1.8849 C   0  0  0  1  0  0  0  0  0  0  0  0
   -3.8079    1.9929   -1.1333 C   0  0  0  1  0  0  0  0  0  0  0  0
   -1.4241    2.7784   -1.2727 C   0  0  0  1  0  0  0  0  0  0  0  0
   -4.5017    3.2926   -4.9751 F   0  0  0  1  0  0  0  0  0  0  0  0
   -6.2761    2.2106   -3.3707 H   0  0  0  1  0  0  0  0  0  0  0  0
   -2.2694    3.4111   -3.7354 H   0  0  0  1  0  0  0  0  0  0  0  0
   -3.6219    1.6689   -0.1627 H   0  0  0  1  0  0  0  0  0  0  0  0
   -0.9084    3.5156   -1.8521 H   0  0  0  1  0  0  0  0  0  0  0  0
   -1.5552    3.1373   -0.2732 H   0  0  0  1  0  0  0  0  0  0  0  0
  1  4  1  0  0  0  0
  2  4  1  0  0  0  0
  2  5  2  0  0  0  0
  2  6  1  0  0  0  0
  3  4  1  0  0  0  0
  3  7  1  0  0  0  0
  3  8  1  0  0  0  0
  4 26  1  0  0  0  0
  6  9  1  0  0  0  0
  6 12  1  0  0  0  0
  8 10  1  0  0  0  0
  8 11  2  0  0  0  0
  9 13  1  0  0  0  0
  9 14  1  0  0  0  0
  9 15  1  0  0  0  0
 10 16  1  0  0  0  0
 10 17  1  0  0  0  0
 10 18  1  0  0  0  0
 19 20  1  0  0  0  0
 20 21  4  0  0  0  0
 20 25  4  0  0  0  0
 21 22  4  0  0  0  0
 21 28  1  0  0  0  0
 22 23  4  0  0  0  0
 22 27  1  0  0  0  0
 23 24  4  0  0  0  0
 23 29  1  0  0  0  0
 24 25  4  0  0  0  0
 24 26  1  0  0  0  0
 25 30  1  0  0  0  0
 26 31  1  0  0  0  0
 26 32  1  0  0  0  0
M  END
> <BCLConfClusterSize>
1

> <ConfClashScore>
0 

> <ConfOneFourInteractionScore>
-0.949142 

> <ConfScore>
-0.072713 

> <ConfScorePBest>
0.00769143 

> <ConfTolerance>
0.339137 

> <RosettaParamsInstructions>
M  ROOT 3
M  POLY_N_BB 3
M  POLY_CA_BB 4
M  POLY_C_BB 2
M  POLY_O_BB 5
M  POLY_IGNORE 9 10 11 12 13 14 15 16 17 18 
M  POLY_UPPER 6
M  POLY_LOWER 8
M  POLY_CHG 0
M  POLY_PROPERTIES ALPHA_AA D_AA PROTEIN AROMATIC POLYMER 
M  END

$$$$



 32 32  0  0  0  0  0  0  0  0999 V2000
   -0.1179    4.1207   -0.4092 H   0  0  0  1  0  0  0  0  0  0  0  0
   -2.0253    4.6463    0.2626 C   0  0  0  1  0  0  0  0  0  0  0  0
   -1.0645    5.0156   -2.0008 N   0  0  0  1  0  0  0  0  0  0  0  0
   -1.1038    4.1410   -0.8244 C   0  0  0  1  0  0  0  0  0  0  0  0
   -2.0720    5.8429    0.5444 O   0  0  0  1  0  0  0  0  0  0  0  0
   -2.7890    3.7513    0.9090 N   0  0  0  1  0  0  0  0  0  0  0  0
   -0.3682    4.8223   -2.6627 H   0  0  0  1  0  0  0  0  0  0  0  0
   -1.8712    6.0474   -2.2731 C   0  0  0  1  0  0  0  0  0  0  0  0
   -3.7564    4.1432    1.9231 C   0  0  0  1  0  0  0  0  0  0  0  0
   -1.5336    6.8340   -3.5195 C   0  0  0  1  0  0  0  0  0  0  0  0
   -2.8295    6.3514   -1.5677 O   0  0  0  1  0  0  0  0  0  0  0  0
   -2.6916    2.8010    0.6905 H   0  0  0  1  0  0  0  0  0  0  0  0
   -3.2405    4.5029    2.7888 H   0  0  0  1  0  0  0  0  0  0  0  0
   -4.3549    3.2975    2.1905 H   0  0  0  1  0  0  0  0  0  0  0  0
   -4.3851    4.9175    1.5356 H   0  0  0  1  0  0  0  0  0  0  0  0
   -2.4348    7.1975   -3.9674 H   0  0  0  1  0  0  0  0  0  0  0  0
   -1.0213    6.2003   -4.2130 H   0  0  0  1  0  0  0  0  0  0  0  0
   -0.9059    7.6607   -3.2600 H   0  0  0  1  0  0  0  0  0  0  0  0
   -6.0335    1.3084   -0.9179 F   0  0  0  1  0  0  0  0  0  0  0  0
   -5.0716    1.8680   -1.6765 C   0  0  0  1  0  0  0  0  0  0  0  0
   -5.3166    2.2989   -2.9710 C   0  0  0  1  0  0  0  0  0  0  0  0
   -4.2984    2.8630   -3.7161 C   0  0  0  1  0  0  0  0  0  0  0  0
   -3.0333    3.0028   -3.1670 C   0  0  0  1  0  0  0  0  0  0  0  0
   -2.7888    2.5732   -1.8762 C   0  0  0  1  0  0  0  0  0  0  0  0
   -3.8102    2.0074   -1.1290 C   0  0  0  1  0  0  0  0  0  0  0  0
   -1.4091    2.7199   -1.2793 C   0  0  0  1  0  0  0  0  0  0  0  0
   -4.5352    3.2769   -4.9757 F   0  0  0  1  0  0  0  0  0  0  0  0
   -6.2667    2.1977   -3.3816 H   0  0  0  1  0  0  0  0  0  0  0  0
   -2.2681    3.4309   -3.7262 H   0  0  0  1  0  0  0  0  0  0  0  0
   -3.6273    1.6879   -0.1564 H   0  0  0  1  0  0  0  0  0  0  0  0
   -1.3325    2.0680   -0.4343 H   0  0  0  1  0  0  0  0  0  0  0  0
   -0.6872    2.4357   -2.0162 H   0  0  0  1  0  0  0  0  0  0  0  0
  1  4  1  0  0  0  0
  2  4  1  0  0  0  0
  2  5  2  0  0  0  0
  2  6  1  0  0  0  0
  3  4  1  0  0  0  0
  3  7  1  0  0  0  0
  3  8  1  0  0  0  0
  4 26  1  0  0  0  0
  6  9  1  0  0  0  0
  6 12  1  0  0  0  0
  8 10  1  0  0  0  0
  8 11  2  0  0  0  0
  9 13  1  0  0  0  0
  9 14  1  0  0  0  0
  9 15  1  0  0  0  0
 10 16  1  0  0  0  0
 10 17  1  0  0  0  0
 10 18  1  0  0  0  0
 19 20  1  0  0  0  0
 20 21  4  0  0  0  0
 20 25  4  0  0  0  0
 21 22  4  0  0  0  0
 21 28  1  0  0  0  0
 22 23  4  0  0  0  0
 22 27  1  0  0  0  0
 23 24  4  0  0  0  0
 23 29  1  0  0  0  0
 24 25  4  0  0  0  0
 24 26  1  0  0  0  0
 25 30  1  0  0  0  0
 26 31  1  0  0  0  0
 26 32  1  0  0  0  0
M  END
> <BCLConfClusterSize>
1

> <ConfClashScore>
0.000539712 

> <ConfOneFourInteractionScore>
-0.944279 

> <ConfScore>
-0.0527797 

> <ConfScorePBest>
0.00766295 

> <ConfTolerance>
0.315158 

> <RosettaParamsInstructions>
M  ROOT 3
M  POLY_N_BB 3
M  POLY_CA_BB 4
M  POLY_C_BB 2
M  POLY_O_BB 5
M  POLY_IGNORE 9 10 11 12 13 14 15 16 17 18 
M  POLY_UPPER 6
M  POLY_LOWER 8
M  POLY_CHG 0
M  POLY_PROPERTIES ALPHA_AA D_AA PROTEIN AROMATIC POLYMER 
M  END

$$$$



 32 32  0  0  0  0  0  0  0  0999 V2000
    0.4720    1.7221   -1.5135 H   0  0  0  1  0  0  0  0  0  0  0  0
    0.0888    2.5259   -3.4113 C   0  0  0  1  0  0  0  0  0  0  0  0
   -0.9645    0.5205   -2.3664 N   0  0  0  1  0  0  0  0  0  0  0  0
   -0.3892    1.8504   -2.1354 C   0  0  0  1  0  0  0  0  0  0  0  0
    0.6806    1.9209   -4.2866 O   0  0  0  1  0  0  0  0  0  0  0  0
   -0.1465    3.8298   -3.5830 N   0  0  0  1  0  0  0  0  0  0  0  0
   -1.8475    0.3302   -1.9861 H   0  0  0  1  0  0  0  0  0  0  0  0
   -0.3626   -0.4456   -3.0608 C   0  0  0  1  0  0  0  0  0  0  0  0
    0.3530    4.5648   -4.7355 C   0  0  0  1  0  0  0  0  0  0  0  0
   -1.1341   -1.7414   -3.2183 C   0  0  0  1  0  0  0  0  0  0  0  0
    0.7220   -0.2806   -3.6177 O   0  0  0  1  0  0  0  0  0  0  0  0
   -0.6739    4.3080   -2.9095 H   0  0  0  1  0  0  0  0  0  0  0  0
    0.3609    3.9235   -5.5920 H   0  0  0  1  0  0  0  0  0  0  0  0
    1.3474    4.9063   -4.5368 H   0  0  0  1  0  0  0  0  0  0  0  0
   -0.2820    5.4049   -4.9251 H   0  0  0  1  0  0  0  0  0  0  0  0
   -0.5952   -2.5374   -2.7483 H   0  0  0  1  0  0  0  0  0  0  0  0
   -1.2563   -1.9593   -4.2587 H   0  0  0  1  0  0  0  0  0  0  0  0
   -2.0954   -1.6420   -2.7589 H   0  0  0  1  0  0  0  0  0  0  0  0
   -6.0595    1.3058   -0.9485 F   0  0  0  1  0  0  0  0  0  0  0  0
   -5.0703    1.8668   -1.6702 C   0  0  0  1  0  0  0  0  0  0  0  0
   -5.3133    2.2910   -2.9673 C   0  0  0  1  0  0  0  0  0  0  0  0
   -4.2969    2.8617   -3.7098 C   0  0  0  1  0  0  0  0  0  0  0  0
   -3.0357    3.0148   -3.1554 C   0  0  0  1  0  0  0  0  0  0  0  0
   -2.7931    2.5919   -1.8621 C   0  0  0  1  0  0  0  0  0  0  0  0
   -3.8127    2.0195   -1.1175 C   0  0  0  1  0  0  0  0  0  0  0  0
   -1.3813    2.6818   -1.3328 C   0  0  0  1  0  0  0  0  0  0  0  0
   -4.5319    3.2691   -4.9719 F   0  0  0  1  0  0  0  0  0  0  0  0
   -6.2607    2.1798   -3.3818 H   0  0  0  1  0  0  0  0  0  0  0  0
   -2.2719    3.4480   -3.7127 H   0  0  0  1  0  0  0  0  0  0  0  0
   -3.6313    1.7049   -0.1430 H   0  0  0  1  0  0  0  0  0  0  0  0
   -1.0708    3.7053   -1.3629 H   0  0  0  1  0  0  0  0  0  0  0  0
   -1.3746    2.3361   -0.3202 H   0  0  0  1  0  0  0  0  0  0  0  0
  1  4  1  0  0  0  0
  2  4  1  0  0  0  0
  2  5  2  0  0  0  0
  2  6  1  0  0  0  0
  3  4  1  0  0  0  0
  3  7  1  0  0  0  0
  3  8  1  0  0  0  0
  4 26  1  0  0  0  0
  6  9  1  0  0  0  0
  6 12  1  0  0  0  0
  8 10  1  0  0  0  0
  8 11  2  0  0  0  0
  9 13  1  0  0  0  0
  9 14  1  0  0  0  0
  9 15  1  0  0  0  0
 10 16  1  0  0  0  0
 10 17  1  0  0  0  0
 10 18  1  0  0  0  0
 19 20  1  0  0  0  0
 20 21  4  0  0  0  0
 20 25  4  0  0  0  0
 21 22  4  0  0  0  0
 21 28  1  0  0  0  0
 22 23  4  0  0  0  0
 22 27  1  0  0  0  0
 23 24  4  0  0  0  0
 23 29  1  0  0  0  0
 24 25  4  0  0  0  0
 24 26  1  0  0  0  0
 25 30  1  0  0  0  0
 26 31  1  0  0  0  0
 26 32  1  0  0  0  0
M  END
> <BCLConfClusterSize>
1

> <ConfClashScore>
0 

> <ConfOneFourInteractionScore>
-0.942828 

> <ConfScore>
-0.0385662 

> <ConfScorePBest>
0.00763447 

> <ConfTolerance>
0.261365 

> <RosettaParamsInstructions>
M  ROOT 3
M  POLY_N_BB 3
M  POLY_CA_BB 4
M  POLY_C_BB 2
M  POLY_O_BB 5
M  POLY_IGNORE 9 10 11 12 13 14 15 16 17 18 
M  POLY_UPPER 6
M  POLY_LOWER 8
M  POLY_CHG 0
M  POLY_PROPERTIES ALPHA_AA D_AA PROTEIN AROMATIC POLYMER 
M  END

$$$$



 32 32  0  0  0  0  0  0  0  0999 V2000
   -1.0716    0.6352   -1.0383 H   0  0  0  1  0  0  0  0  0  0  0  0
    0.7918    1.6158   -0.7218 C   0  0  0  1  0  0  0  0  0  0  0  0
   -0.2812    1.2374   -2.8747 N   0  0  0  1  0  0  0  0  0  0  0  0
   -0.5454    1.4722   -1.4476 C   0  0  0  1  0  0  0  0  0  0  0  0
    1.8528    1.2206   -1.1667 O   0  0  0  1  0  0  0  0  0  0  0  0
    0.7477    2.2176    0.4703 N   0  0  0  1  0  0  0  0  0  0  0  0
   -0.7905    0.5427   -3.3420 H   0  0  0  1  0  0  0  0  0  0  0  0
    0.6335    1.9417   -3.5599 C   0  0  0  1  0  0  0  0  0  0  0  0
    1.9201    2.3419    1.3215 C   0  0  0  1  0  0  0  0  0  0  0  0
    0.9250    1.4516   -4.9649 C   0  0  0  1  0  0  0  0  0  0  0  0
    1.2087    2.9246   -3.0944 O   0  0  0  1  0  0  0  0  0  0  0  0
   -0.1044    2.5881    0.7818 H   0  0  0  1  0  0  0  0  0  0  0  0
    2.6152    1.5626    1.0881 H   0  0  0  1  0  0  0  0  0  0  0  0
    1.6260    2.2617    2.3471 H   0  0  0  1  0  0  0  0  0  0  0  0
    2.3818    3.2928    1.1556 H   0  0  0  1  0  0  0  0  0  0  0  0
    0.0200    1.4443   -5.5357 H   0  0  0  1  0  0  0  0  0  0  0  0
    1.3265    0.4608   -4.9206 H   0  0  0  1  0  0  0  0  0  0  0  0
    1.6344    2.1039   -5.4299 H   0  0  0  1  0  0  0  0  0  0  0  0
   -6.0561    1.3124   -0.9444 F   0  0  0  1  0  0  0  0  0  0  0  0
   -5.0671    1.8672   -1.6711 C   0  0  0  1  0  0  0  0  0  0  0  0
   -5.3152    2.2971   -2.9653 C   0  0  0  1  0  0  0  0  0  0  0  0
   -4.2991    2.8616   -3.7130 C   0  0  0  1  0  0  0  0  0  0  0  0
   -3.0330    3.0027   -3.1666 C   0  0  0  1  0  0  0  0  0  0  0  0
   -2.7853    2.5741   -1.8761 C   0  0  0  1  0  0  0  0  0  0  0  0
   -3.8046    2.0080   -1.1264 C   0  0  0  1  0  0  0  0  0  0  0  0
   -1.4045    2.7223   -1.2822 C   0  0  0  1  0  0  0  0  0  0  0  0
   -4.5390    3.2745   -4.9723 F   0  0  0  1  0  0  0  0  0  0  0  0
   -6.2661    2.1949   -3.3738 H   0  0  0  1  0  0  0  0  0  0  0  0
   -2.2693    3.4311   -3.7277 H   0  0  0  1  0  0  0  0  0  0  0  0
   -3.6194    1.6891   -0.1540 H   0  0  0  1  0  0  0  0  0  0  0  0
   -0.9120    3.5403   -1.7653 H   0  0  0  1  0  0  0  0  0  0  0  0
   -1.5037    2.9317   -0.2376 H   0  0  0  1  0  0  0  0  0  0  0  0
  1  4  1  0  0  0  0
  2  4  1  0  0  0  0
  2  5  2  0  0  0  0
  2  6  1  0  0  0  0
  3  4  1  0  0  0  0
  3  7  1  0  0  0  0
  3  8  1  0  0  0  0
  4 26  1  0  0  0  0
  6  9  1  0  0  0  0
  6 12  1  0  0  0  0
  8 10  1  0  0  0  0
  8 11  2  0  0  0  0
  9 13  1  0  0  0  0
  9 14  1  0  0  0  0
  9 15  1  0  0  0  0
 10 16  1  0  0  0  0
 10 17  1  0  0  0  0
 10 18  1  0  0  0  0
 19 20  1  0  0  0  0
 20 21  4  0  0  0  0
 20 25  4  0  0  0  0
 21 22  4  0  0  0  0
 21 28  1  0  0  0  0
 22 23  4  0  0  0  0
 22 27  1  0  0  0  0
 23 24  4  0  0  0  0
 23 29  1  0  0  0  0
 24 25  4  0  0  0  0
 24 26  1  0  0  0  0
 25 30  1  0  0  0  0
 26 31  1  0  0  0  0
 26 32  1  0  0  0  0
M  END
> <BCLConfClusterSize>
1

> <ConfClashScore>
0 

> <ConfOneFourInteractionScore>
-0.933935 

> <ConfScore>
-0.0383796 

> <ConfScorePBest>
0.00760599 

> <ConfTolerance>
0.168573 

> <RosettaParamsInstructions>
M  ROOT 3
M  POLY_N_BB 3
M  POLY_CA_BB 4
M  POLY_C_BB 2
M  POLY_O_BB 5
M  POLY_IGNORE 9 10 11 12 13 14 15 16 17 18 
M  POLY_UPPER 6
M  POLY_LOWER 8
M  POLY_CHG 0
M  POLY_PROPERTIES ALPHA_AA D_AA PROTEIN AROMATIC POLYMER 
M  END

$$$$



 32 32  0  0  0  0  0  0  0  0999 V2000
   -1.3109    4.8345   -1.2452 H   0  0  0  1  0  0  0  0  0  0  0  0
    0.0421    4.1303    0.2118 C   0  0  0  1  0  0  0  0  0  0  0  0
   -2.3787    4.2137    0.4109 N   0  0  0  1  0  0  0  0  0  0  0  0
   -1.2792    4.0421   -0.5269 C   0  0  0  1  0  0  0  0  0  0  0  0
    0.1441    4.7296    1.2805 O   0  0  0  1  0  0  0  0  0  0  0  0
    1.0516    3.5022   -0.4113 N   0  0  0  1  0  0  0  0  0  0  0  0
   -3.1165    4.8122    0.1702 H   0  0  0  1  0  0  0  0  0  0  0  0
   -2.4172    3.5839    1.5885 C   0  0  0  1  0  0  0  0  0  0  0  0
    2.4277    3.5911    0.0538 C   0  0  0  1  0  0  0  0  0  0  0  0
   -3.4700    4.0508    2.5942 C   0  0  0  1  0  0  0  0  0  0  0  0
   -1.5991    2.7232    1.9021 O   0  0  0  1  0  0  0  0  0  0  0  0
    0.8552    2.9652   -1.2072 H   0  0  0  1  0  0  0  0  0  0  0  0
    2.5228    3.0781    0.9880 H   0  0  0  1  0  0  0  0  0  0  0  0
    2.6946    4.6192    0.1830 H   0  0  0  1  0  0  0  0  0  0  0  0
    3.0775    3.1413   -0.6675 H   0  0  0  1  0  0  0  0  0  0  0  0
   -3.1057    4.9082    3.1205 H   0  0  0  1  0  0  0  0  0  0  0  0
   -3.6711    3.2639    3.2908 H   0  0  0  1  0  0  0  0  0  0  0  0
   -4.3699    4.3070    2.0751 H   0  0  0  1  0  0  0  0  0  0  0  0
   -6.0561    1.3124   -0.9444 F   0  0  0  1  0  0  0  0  0  0  0  0
   -5.0671    1.8672   -1.6711 C   0  0  0  1  0  0  0  0  0  0  0  0
   -5.3152    2.2971   -2.9653 C   0  0  0  1  0  0  0  0  0  0  0  0
   -4.2991    2.8616   -3.7130 C   0  0  0  1  0  0  0  0  0  0  0  0
   -3.0330    3.0027   -3.1666 C   0  0  0  1  0  0  0  0  0  0  0  0
   -2.7853    2.5741   -1.8761 C   0  0  0  1  0  0  0  0  0  0  0  0
   -3.8046    2.0080   -1.1264 C   0  0  0  1  0  0  0  0  0  0  0  0
   -1.4045    2.7223   -1.2822 C   0  0  0  1  0  0  0  0  0  0  0  0
   -4.5390    3.2745   -4.9723 F   0  0  0  1  0  0  0  0  0  0  0  0
   -6.2661    2.1949   -3.3738 H   0  0  0  1  0  0  0  0  0  0  0  0
   -2.2693    3.4311   -3.7277 H   0  0  0  1  0  0  0  0  0  0  0  0
   -3.6194    1.6891   -0.1540 H   0  0  0  1  0  0  0  0  0  0  0  0
   -1.2246    1.9127   -0.6061 H   0  0  0  1  0  0  0  0  0  0  0  0
   -0.6797    2.6983   -2.0691 H   0  0  0  1  0  0  0  0  0  0  0  0
  1  4  1  0  0  0  0
  2  4  1  0  0  0  0
  2  5  2  0  0  0  0
  2  6  1  0  0  0  0
  3  4  1  0  0  0  0
  3  7  1  0  0  0  0
  3  8  1  0  0  0  0
  4 26  1  0  0  0  0
  6  9  1  0  0  0  0
  6 12  1  0  0  0  0
  8 10  1  0  0  0  0
  8 11  2  0  0  0  0
  9 13  1  0  0  0  0
  9 14  1  0  0  0  0
  9 15  1  0  0  0  0
 10 16  1  0  0  0  0
 10 17  1  0  0  0  0
 10 18  1  0  0  0  0
 19 20  1  0  0  0  0
 20 21  4  0  0  0  0
 20 25  4  0  0  0  0
 21 22  4  0  0  0  0
 21 28  1  0  0  0  0
 22 23  4  0  0  0  0
 22 27  1  0  0  0  0
 23 24  4  0  0  0  0
 23 29  1  0  0  0  0
 24 25  4  0  0  0  0
 24 26  1  0  0  0  0
 25 30  1  0  0  0  0
 26 31  1  0  0  0  0
 26 32  1  0  0  0  0
M  END
> <BCLConfClusterSize>
1

> <ConfClashScore>
0 

> <ConfOneFourInteractionScore>
-0.935823 

> <ConfScore>
-0.0304534 

> <ConfScorePBest>
0.00757751 

> <ConfTolerance>
0.232592 

> <RosettaParamsInstructions>
M  ROOT 3
M  POLY_N_BB 3
M  POLY_CA_BB 4
M  POLY_C_BB 2
M  POLY_O_BB 5
M  POLY_IGNORE 9 10 11 12 13 14 15 16 17 18 
M  POLY_UPPER 6
M  POLY_LOWER 8
M  POLY_CHG 0
M  POLY_PROPERTIES ALPHA_AA D_AA PROTEIN AROMATIC POLYMER 
M  END

$$$$



 32 32  0  0  0  0  0  0  0  0999 V2000
   -1.4316    4.7612   -0.8095 H   0  0  0  1  0  0  0  0  0  0  0  0
    0.1698    3.8829    0.2447 C   0  0  0  1  0  0  0  0  0  0  0  0
   -2.2852    3.7420    0.7646 N   0  0  0  1  0  0  0  0  0  0  0  0
   -1.2642    3.8557   -0.2646 C   0  0  0  1  0  0  0  0  0  0  0  0
    0.4250    4.1469    1.4167 O   0  0  0  1  0  0  0  0  0  0  0  0
    1.1125    3.6037   -0.6600 N   0  0  0  1  0  0  0  0  0  0  0  0
   -3.0672    4.3311    0.7221 H   0  0  0  1  0  0  0  0  0  0  0  0
   -2.1908    2.8291    1.8040 C   0  0  0  1  0  0  0  0  0  0  0  0
    2.5368    3.5090   -0.3770 C   0  0  0  1  0  0  0  0  0  0  0  0
   -3.2263    2.8525    2.8930 C   0  0  0  1  0  0  0  0  0  0  0  0
   -1.2676    2.0353    1.7996 O   0  0  0  1  0  0  0  0  0  0  0  0
    0.8229    3.4511   -1.5837 H   0  0  0  1  0  0  0  0  0  0  0  0
    2.7878    2.4957   -0.1424 H   0  0  0  1  0  0  0  0  0  0  0  0
    2.7775    4.1376    0.4548 H   0  0  0  1  0  0  0  0  0  0  0  0
    3.0924    3.8242   -1.2354 H   0  0  0  1  0  0  0  0  0  0  0  0
   -4.1895    2.6477    2.4744 H   0  0  0  1  0  0  0  0  0  0  0  0
   -3.2362    3.8177    3.3547 H   0  0  0  1  0  0  0  0  0  0  0  0
   -2.9903    2.1088    3.6252 H   0  0  0  1  0  0  0  0  0  0  0  0
   -6.0485    1.3134   -0.9416 F   0  0  0  1  0  0  0  0  0  0  0  0
   -5.0624    1.8688   -1.6718 C   0  0  0  1  0  0  0  0  0  0  0  0
   -5.3150    2.2973   -2.9656 C   0  0  0  1  0  0  0  0  0  0  0  0
   -4.3018    2.8624   -3.7169 C   0  0  0  1  0  0  0  0  0  0  0  0
   -3.0342    3.0054   -3.1745 C   0  0  0  1  0  0  0  0  0  0  0  0
   -2.7821    2.5782   -1.8845 C   0  0  0  1  0  0  0  0  0  0  0  0
   -3.7984    2.0115   -1.1311 C   0  0  0  1  0  0  0  0  0  0  0  0
   -1.4205    2.7027   -1.2425 C   0  0  0  1  0  0  0  0  0  0  0  0
   -4.5461    3.2739   -4.9758 F   0  0  0  1  0  0  0  0  0  0  0  0
   -6.2671    2.1936   -3.3711 H   0  0  0  1  0  0  0  0  0  0  0  0
   -2.2728    3.4343   -3.7384 H   0  0  0  1  0  0  0  0  0  0  0  0
   -3.6098    1.6937   -0.1590 H   0  0  0  1  0  0  0  0  0  0  0  0
   -1.2197    1.7933   -0.7155 H   0  0  0  1  0  0  0  0  0  0  0  0
   -0.6986    2.8307   -2.0219 H   0  0  0  1  0  0  0  0  0  0  0  0
  1  4  1  0  0  0  0
  2  4  1  0  0  0  0
  2  5  2  0  0  0  0
  2  6  1  0  0  0  0
  3  4  1  0  0  0  0
  3  7  1  0  0  0  0
  3  8  1  0  0  0  0
  4 26  1  0  0  0  0
  6  9  1  0  0  0  0
  6 12  1  0  0  0  0
  8 10  1  0  0  0  0
  8 11  2  0  0  0  0
  9 13  1  0  0  0  0
  9 14  1  0  0  0  0
  9 15  1  0  0  0  0
 10 16  1  0  0  0  0
 10 17  1  0  0  0  0
 10 18  1  0  0  0  0
 19 20  1  0  0  0  0
 20 21  4  0  0  0  0
 20 25  4  0  0  0  0
 21 22  4  0  0  0  0
 21 28  1  0  0  0  0
 22 23  4  0  0  0  0
 22 27  1  0  0  0  0
 23 24  4  0  0  0  0
 23 29  1  0  0  0  0
 24 25  4  0  0  0  0
 24 26  1  0  0  0  0
 25 30  1  0  0  0  0
 26 31  1  0  0  0  0
 26 32  1  0  0  0  0
M  END
> <BCLConfClusterSize>
1

> <ConfClashScore>
0 

> <ConfOneFourInteractionScore>
-0.933935 

> <ConfScore>
-0.0277084 

> <ConfScorePBest>
0.00754903 

> <ConfTolerance>
0.263314 

> <RosettaParamsInstructions>
M  ROOT 3
M  POLY_N_BB 3
M  POLY_CA_BB 4
M  POLY_C_BB 2
M  POLY_O_BB 5
M  POLY_IGNORE 9 10 11 12 13 14 15 16 17 18 
M  POLY_UPPER 6
M  POLY_LOWER 8
M  POLY_CHG 0
M  POLY_PROPERTIES ALPHA_AA D_AA PROTEIN AROMATIC POLYMER 
M  END

$$$$



 32 32  0  0  0  0  0  0  0  0999 V2000
    0.5905    2.1115   -1.2783 H   0  0  0  1  0  0  0  0  0  0  0  0
   -0.0141    2.3051   -3.2816 C   0  0  0  1  0  0  0  0  0  0  0  0
   -0.5732    0.4749   -1.7279 N   0  0  0  1  0  0  0  0  0  0  0  0
   -0.2899    1.8973   -1.8475 C   0  0  0  1  0  0  0  0  0  0  0  0
    0.2954    1.4732   -4.1336 O   0  0  0  1  0  0  0  0  0  0  0  0
   -0.1304    3.6157   -3.5480 N   0  0  0  1  0  0  0  0  0  0  0  0
   -1.3791    0.1919   -1.2475 H   0  0  0  1  0  0  0  0  0  0  0  0
    0.2272   -0.4586   -2.2504 C   0  0  0  1  0  0  0  0  0  0  0  0
    0.1688    4.1720   -4.8590 C   0  0  0  1  0  0  0  0  0  0  0  0
   -0.2140   -1.8947   -2.0448 C   0  0  0  1  0  0  0  0  0  0  0  0
    1.2600   -0.1894   -2.8623 O   0  0  0  1  0  0  0  0  0  0  0  0
   -0.4270    4.2187   -2.8347 H   0  0  0  1  0  0  0  0  0  0  0  0
   -0.6393    3.9631   -5.5285 H   0  0  0  1  0  0  0  0  0  0  0  0
    1.0676    3.7311   -5.2366 H   0  0  0  1  0  0  0  0  0  0  0  0
    0.2980    5.2310   -4.7757 H   0  0  0  1  0  0  0  0  0  0  0  0
    0.6404   -2.5382   -2.0722 H   0  0  0  1  0  0  0  0  0  0  0  0
   -0.8949   -2.1731   -2.8219 H   0  0  0  1  0  0  0  0  0  0  0  0
   -0.6988   -1.9862   -1.0954 H   0  0  0  1  0  0  0  0  0  0  0  0
   -6.0698    1.3159   -0.9635 F   0  0  0  1  0  0  0  0  0  0  0  0
   -5.0595    1.8664   -1.6635 C   0  0  0  1  0  0  0  0  0  0  0  0
   -5.3184    2.2930   -2.9568 C   0  0  0  1  0  0  0  0  0  0  0  0
   -4.3094    2.8588   -3.7130 C   0  0  0  1  0  0  0  0  0  0  0  0
   -3.0397    3.0046   -3.1763 C   0  0  0  1  0  0  0  0  0  0  0  0
   -2.7813    2.5793   -1.8868 C   0  0  0  1  0  0  0  0  0  0  0  0
   -3.7935    2.0118   -1.1285 C   0  0  0  1  0  0  0  0  0  0  0  0
   -1.4172    2.7068   -1.2509 C   0  0  0  1  0  0  0  0  0  0  0  0
   -4.5165    3.2817   -4.9749 F   0  0  0  1  0  0  0  0  0  0  0  0
   -6.2720    2.1872   -3.3581 H   0  0  0  1  0  0  0  0  0  0  0  0
   -2.2814    3.4340   -3.7439 H   0  0  0  1  0  0  0  0  0  0  0  0
   -3.6002    1.6955   -0.1568 H   0  0  0  1  0  0  0  0  0  0  0  0
   -1.1343    3.7373   -1.3039 H   0  0  0  1  0  0  0  0  0  0  0  0
   -1.5133    2.4150   -0.2259 H   0  0  0  1  0  0  0  0  0  0  0  0
  1  4  1  0  0  0  0
  2  4  1  0  0  0  0
  2  5  2  0  0  0  0
  2  6  1  0  0  0  0
  3  4  1  0  0  0  0
  3  7  1  0  0  0  0
  3  8  1  0  0  0  0
  4 26  1  0  0  0  0
  6  9  1  0  0  0  0
  6 12  1  0  0  0  0
  8 10  1  0  0  0  0
  8 11  2  0  0  0  0
  9 13  1  0  0  0  0
  9 14  1  0  0  0  0
  9 15  1  0  0  0  0
 10 16  1  0  0  0  0
 10 17  1  0  0  0  0
 10 18  1  0  0  0  0
 19 20  1  0  0  0  0
 20 21  4  0  0  0  0
 20 25  4  0  0  0  0
 21 22  4  0  0  0  0
 21 28  1  0  0  0  0
 22 23  4  0  0  0  0
 22 27  1  0  0  0  0
 23 24  4  0  0  0  0
 23 29  1  0  0  0  0
 24 25  4  0  0  0  0
 24 26  1  0  0  0  0
 25 30  1  0  0  0  0
 26 31  1  0  0  0  0
 26 32  1  0  0  0  0
M  END
> <BCLConfClusterSize>
1

> <ConfClashScore>
0 

> <ConfOneFourInteractionScore>
-0.949142 

> <ConfScore>
-0.0179287 

> <ConfScorePBest>
0.00752055 

> <ConfTolerance>
0.298254 

> <RosettaParamsInstructions>
M  ROOT 3
M  POLY_N_BB 3
M  POLY_CA_BB 4
M  POLY_C_BB 2
M  POLY_O_BB 5
M  POLY_IGNORE 9 10 11 12 13 14 15 16 17 18 
M  POLY_UPPER 6
M  POLY_LOWER 8
M  POLY_CHG 0
M  POLY_PROPERTIES ALPHA_AA D_AA PROTEIN AROMATIC POLYMER 
M  END

$$$$



 32 32  0  0  0  0  0  0  0  0999 V2000
   -1.1601    4.7671   -1.5271 H   0  0  0  1  0  0  0  0  0  0  0  0
    0.3629    4.1440   -0.2200 C   0  0  0  1  0  0  0  0  0  0  0  0
   -2.0181    4.4817    0.3215 N   0  0  0  1  0  0  0  0  0  0  0  0
   -1.0711    4.0831   -0.7091 C   0  0  0  1  0  0  0  0  0  0  0  0
    0.6890    4.9122    0.6811 O   0  0  0  1  0  0  0  0  0  0  0  0
    1.2627    3.3344   -0.8007 N   0  0  0  1  0  0  0  0  0  0  0  0
   -2.8050    5.0058    0.0636 H   0  0  0  1  0  0  0  0  0  0  0  0
   -1.8523    4.1585    1.6050 C   0  0  0  1  0  0  0  0  0  0  0  0
    2.6883    3.4323   -0.5253 C   0  0  0  1  0  0  0  0  0  0  0  0
   -2.9156    4.6719    2.5563 C   0  0  0  1  0  0  0  0  0  0  0  0
   -0.9054    3.4887    2.0090 O   0  0  0  1  0  0  0  0  0  0  0  0
    0.9486    2.6539   -1.4320 H   0  0  0  1  0  0  0  0  0  0  0  0
    2.8729    4.2758    0.1066 H   0  0  0  1  0  0  0  0  0  0  0  0
    3.2216    3.5526   -1.4451 H   0  0  0  1  0  0  0  0  0  0  0  0
    3.0186    2.5405   -0.0349 H   0  0  0  1  0  0  0  0  0  0  0  0
   -3.7938    4.9325    2.0033 H   0  0  0  1  0  0  0  0  0  0  0  0
   -2.5478    5.5361    3.0691 H   0  0  0  1  0  0  0  0  0  0  0  0
   -3.1555    3.9096    3.2677 H   0  0  0  1  0  0  0  0  0  0  0  0
   -6.0489    1.3153   -0.9470 F   0  0  0  1  0  0  0  0  0  0  0  0
   -5.0608    1.8703   -1.6747 C   0  0  0  1  0  0  0  0  0  0  0  0
   -5.3103    2.2998   -2.9688 C   0  0  0  1  0  0  0  0  0  0  0  0
   -4.2951    2.8645   -3.7176 C   0  0  0  1  0  0  0  0  0  0  0  0
   -3.0286    3.0062   -3.1724 C   0  0  0  1  0  0  0  0  0  0  0  0
   -2.7795    2.5780   -1.8821 C   0  0  0  1  0  0  0  0  0  0  0  0
   -3.7979    2.0117   -1.1312 C   0  0  0  1  0  0  0  0  0  0  0  0
   -1.4192    2.7010   -1.2372 C   0  0  0  1  0  0  0  0  0  0  0  0
   -4.5794    3.2634   -4.9722 F   0  0  0  1  0  0  0  0  0  0  0  0
   -6.2616    2.1971   -3.3764 H   0  0  0  1  0  0  0  0  0  0  0  0
   -2.2656    3.4348   -3.7344 H   0  0  0  1  0  0  0  0  0  0  0  0
   -3.6116    1.6931   -0.1589 H   0  0  0  1  0  0  0  0  0  0  0  0
   -1.3794    2.0147   -0.4172 H   0  0  0  1  0  0  0  0  0  0  0  0
   -0.6831    2.4307   -1.9652 H   0  0  0  1  0  0  0  0  0  0  0  0
  1  4  1  0  0  0  0
  2  4  1  0  0  0  0
  2  5  2  0  0  0  0
  2  6  1  0  0  0  0
  3  4  1  0  0  0  0
  3  7  1  0  0  0  0
  3  8  1  0  0  0  0
  4 26  1  0  0  0  0
  6  9  1  0  0  0  0
  6 12  1  0  0  0  0
  8 10  1  0  0  0  0
  8 11  2  0  0  0  0
  9 13  1  0  0  0  0
  9 14  1  0  0  0  0
  9 15  1  0  0  0  0
 10 16  1  0  0  0  0
 10 17  1  0  0  0  0
 10 18  1  0  0  0  0
 19 20  1  0  0  0  0
 20 21  4  0  0  0  0
 20 25  4  0  0  0  0
 21 22  4  0  0  0  0
 21 28  1  0  0  0  0
 22 23  4  0  0  0  0
 22 27  1  0  0  0  0
 23 24  4  0  0  0  0
 23 29  1  0  0  0  0
 24 25  4  0  0  0  0
 24 26  1  0  0  0  0
 25 30  1  0  0  0  0
 26 31  1  0  0  0  0
 26 32  1  0  0  0  0
M  END
> <BCLConfClusterSize>
1

> <ConfClashScore>
0 

> <ConfOneFourInteractionScore>
-0.933935 

> <ConfScore>
0.00933358 

> <ConfScorePBest>
0.00749207 

> <ConfTolerance>
0.279502 

> <RosettaParamsInstructions>
M  ROOT 3
M  POLY_N_BB 3
M  POLY_CA_BB 4
M  POLY_C_BB 2
M  POLY_O_BB 5
M  POLY_IGNORE 9 10 11 12 13 14 15 16 17 18 
M  POLY_UPPER 6
M  POLY_LOWER 8
M  POLY_CHG 0
M  POLY_PROPERTIES ALPHA_AA D_AA PROTEIN AROMATIC POLYMER 
M  END

$$$$



 32 32  0  0  0  0  0  0  0  0999 V2000
   -1.2966    0.6415   -0.9085 H   0  0  0  1  0  0  0  0  0  0  0  0
    0.4759    1.4289   -0.1133 C   0  0  0  1  0  0  0  0  0  0  0  0
   -0.1060    1.1123   -2.5111 N   0  0  0  1  0  0  0  0  0  0  0  0
   -0.6111    1.4178   -1.1773 C   0  0  0  1  0  0  0  0  0  0  0  0
    1.5417    0.8464   -0.2955 O   0  0  0  1  0  0  0  0  0  0  0  0
    0.2337    2.0966    1.0339 N   0  0  0  1  0  0  0  0  0  0  0  0
   -0.6405    0.5114   -3.0713 H   0  0  0  1  0  0  0  0  0  0  0  0
    1.0351    1.5918   -3.0289 C   0  0  0  1  0  0  0  0  0  0  0  0
    1.1812    2.0195    2.1401 C   0  0  0  1  0  0  0  0  0  0  0  0
    1.3064    1.2273   -4.4755 C   0  0  0  1  0  0  0  0  0  0  0  0
    1.8218    2.2832   -2.3875 O   0  0  0  1  0  0  0  0  0  0  0  0
   -0.5805    2.6345    1.1240 H   0  0  0  1  0  0  0  0  0  0  0  0
    1.7960    1.1514    2.0240 H   0  0  0  1  0  0  0  0  0  0  0  0
    0.6457    1.9560    3.0643 H   0  0  0  1  0  0  0  0  0  0  0  0
    1.7971    2.8945    2.1435 H   0  0  0  1  0  0  0  0  0  0  0  0
    0.3944    1.2752   -5.0330 H   0  0  0  1  0  0  0  0  0  0  0  0
    1.7025    0.2346   -4.5247 H   0  0  0  1  0  0  0  0  0  0  0  0
    2.0138    1.9151   -4.8897 H   0  0  0  1  0  0  0  0  0  0  0  0
   -6.0485    1.3134   -0.9416 F   0  0  0  1  0  0  0  0  0  0  0  0
   -5.0624    1.8688   -1.6718 C   0  0  0  1  0  0  0  0  0  0  0  0
   -5.3150    2.2973   -2.9656 C   0  0  0  1  0  0  0  0  0  0  0  0
   -4.3018    2.8624   -3.7169 C   0  0  0  1  0  0  0  0  0  0  0  0
   -3.0342    3.0054   -3.1745 C   0  0  0  1  0  0  0  0  0  0  0  0
   -2.7821    2.5782   -1.8845 C   0  0  0  1  0  0  0  0  0  0  0  0
   -3.7984    2.0115   -1.1311 C   0  0  0  1  0  0  0  0  0  0  0  0
   -1.4205    2.7027   -1.2425 C   0  0  0  1  0  0  0  0  0  0  0  0
   -4.5461    3.2739   -4.9758 F   0  0  0  1  0  0  0  0  0  0  0  0
   -6.2671    2.1936   -3.3711 H   0  0  0  1  0  0  0  0  0  0  0  0
   -2.2728    3.4343   -3.7384 H   0  0  0  1  0  0  0  0  0  0  0  0
   -3.6098    1.6937   -0.1590 H   0  0  0  1  0  0  0  0  0  0  0  0
   -0.8565    3.4201   -1.8012 H   0  0  0  1  0  0  0  0  0  0  0  0
   -1.5583    3.0571   -0.2424 H   0  0  0  1  0  0  0  0  0  0  0  0
  1  4  1  0  0  0  0
  2  4  1  0  0  0  0
  2  5  2  0  0  0  0
  2  6  1  0  0  0  0
  3  4  1  0  0  0  0
  3  7  1  0  0  0  0
  3  8  1  0  0  0  0
  4 26  1  0  0  0  0
  6  9  1  0  0  0  0
  6 12  1  0  0  0  0
  8 10  1  0  0  0  0
  8 11  2  0  0  0  0
  9 13  1  0  0  0  0
  9 14  1  0  0  0  0
  9 15  1  0  0  0  0
 10 16  1  0  0  0  0
 10 17  1  0  0  0  0
 10 18  1  0  0  0  0
 19 20  1  0  0  0  0
 20 21  4  0  0  0  0
 20 25  4  0  0  0  0
 21 22  4  0  0  0  0
 21 28  1  0  0  0  0
 22 23  4  0  0  0  0
 22 27  1  0  0  0  0
 23 24  4  0  0  0  0
 23 29  1  0  0  0  0
 24 25  4  0  0  0  0
 24 26  1  0  0  0  0
 25 30  1  0  0  0  0
 26 31  1  0  0  0  0
 26 32  1  0  0  0  0
M  END
> <BCLConfClusterSize>
1

> <ConfClashScore>
0 

> <ConfOneFourInteractionScore>
-0.957011 

> <ConfScore>
0.0204178 

> <ConfScorePBest>
0.00746359 

> <ConfTolerance>
0.337491 

> <RosettaParamsInstructions>
M  ROOT 3
M  POLY_N_BB 3
M  POLY_CA_BB 4
M  POLY_C_BB 2
M  POLY_O_BB 5
M  POLY_IGNORE 9 10 11 12 13 14 15 16 17 18 
M  POLY_UPPER 6
M  POLY_LOWER 8
M  POLY_CHG 0
M  POLY_PROPERTIES ALPHA_AA D_AA PROTEIN AROMATIC POLYMER 
M  END

$$$$



 32 32  0  0  0  0  0  0  0  0999 V2000
    0.3628    1.6239   -0.9477 H   0  0  0  1  0  0  0  0  0  0  0  0
   -0.0479    1.4900   -3.0124 C   0  0  0  1  0  0  0  0  0  0  0  0
   -1.2439    0.3433   -1.1553 N   0  0  0  1  0  0  0  0  0  0  0  0
   -0.5052    1.5280   -1.5660 C   0  0  0  1  0  0  0  0  0  0  0  0
    0.0829    0.4326   -3.6078 O   0  0  0  1  0  0  0  0  0  0  0  0
    0.1981    2.6856   -3.5794 N   0  0  0  1  0  0  0  0  0  0  0  0
   -1.1246    0.0039   -0.2437 H   0  0  0  1  0  0  0  0  0  0  0  0
   -2.0792   -0.2976   -1.9778 C   0  0  0  1  0  0  0  0  0  0  0  0
    0.8341    2.7059   -4.8883 C   0  0  0  1  0  0  0  0  0  0  0  0
   -2.8530   -1.4845   -1.3900 C   0  0  0  1  0  0  0  0  0  0  0  0
   -2.3020    0.0690   -3.1333 O   0  0  0  1  0  0  0  0  0  0  0  0
   -0.0441    3.5188   -3.1239 H   0  0  0  1  0  0  0  0  0  0  0  0
    0.5422    1.8372   -5.4407 H   0  0  0  1  0  0  0  0  0  0  0  0
    1.8973    2.7112   -4.7679 H   0  0  0  1  0  0  0  0  0  0  0  0
    0.5303    3.5842   -5.4186 H   0  0  0  1  0  0  0  0  0  0  0  0
   -2.1651   -2.2519   -1.1019 H   0  0  0  1  0  0  0  0  0  0  0  0
   -3.5284   -1.8691   -2.1254 H   0  0  0  1  0  0  0  0  0  0  0  0
   -3.4051   -1.1606   -0.5326 H   0  0  0  1  0  0  0  0  0  0  0  0
   -6.0335    1.3084   -0.9179 F   0  0  0  1  0  0  0  0  0  0  0  0
   -5.0716    1.8680   -1.6765 C   0  0  0  1  0  0  0  0  0  0  0  0
   -5.3166    2.2989   -2.9710 C   0  0  0  1  0  0  0  0  0  0  0  0
   -4.2984    2.8630   -3.7161 C   0  0  0  1  0  0  0  0  0  0  0  0
   -3.0333    3.0028   -3.1670 C   0  0  0  1  0  0  0  0  0  0  0  0
   -2.7888    2.5732   -1.8762 C   0  0  0  1  0  0  0  0  0  0  0  0
   -3.8102    2.0074   -1.1290 C   0  0  0  1  0  0  0  0  0  0  0  0
   -1.4091    2.7199   -1.2793 C   0  0  0  1  0  0  0  0  0  0  0  0
   -4.5352    3.2769   -4.9757 F   0  0  0  1  0  0  0  0  0  0  0  0
   -6.2667    2.1977   -3.3816 H   0  0  0  1  0  0  0  0  0  0  0  0
   -2.2681    3.4309   -3.7262 H   0  0  0  1  0  0  0  0  0  0  0  0
   -3.6273    1.6879   -0.1564 H   0  0  0  1  0  0  0  0  0  0  0  0
   -0.9536    3.5984   -1.6863 H   0  0  0  1  0  0  0  0  0  0  0  0
   -1.5063    2.8264   -0.2191 H   0  0  0  1  0  0  0  0  0  0  0  0
  1  4  1  0  0  0  0
  2  4  1  0  0  0  0
  2  5  2  0  0  0  0
  2  6  1  0  0  0  0
  3  4  1  0  0  0  0
  3  7  1  0  0  0  0
  3  8  1  0  0  0  0
  4 26  1  0  0  0  0
  6  9  1  0  0  0  0
  6 12  1  0  0  0  0
  8 10  1  0  0  0  0
  8 11  2  0  0  0  0
  9 13  1  0  0  0  0
  9 14  1  0  0  0  0
  9 15  1  0  0  0  0
 10 16  1  0  0  0  0
 10 17  1  0  0  0  0
 10 18  1  0  0  0  0
 19 20  1  0  0  0  0
 20 21  4  0  0  0  0
 20 25  4  0  0  0  0
 21 22  4  0  0  0  0
 21 28  1  0  0  0  0
 22 23  4  0  0  0  0
 22 27  1  0  0  0  0
 23 24  4  0  0  0  0
 23 29  1  0  0  0  0
 24 25  4  0  0  0  0
 24 26  1  0  0  0  0
 25 30  1  0  0  0  0
 26 31  1  0  0  0  0
 26 32  1  0  0  0  0
M  END
> <BCLConfClusterSize>
1

> <ConfClashScore>
0 

> <ConfOneFourInteractionScore>
-0.924221 

> <ConfScore>
0.0318866 

> <ConfScorePBest>
0.0074351 

> <ConfTolerance>
0.275974 

> <RosettaParamsInstructions>
M  ROOT 3
M  POLY_N_BB 3
M  POLY_CA_BB 4
M  POLY_C_BB 2
M  POLY_O_BB 5
M  POLY_IGNORE 9 10 11 12 13 14 15 16 17 18 
M  POLY_UPPER 6
M  POLY_LOWER 8
M  POLY_CHG 0
M  POLY_PROPERTIES ALPHA_AA D_AA PROTEIN AROMATIC POLYMER 
M  END

$$$$



 32 32  0  0  0  0  0  0  0  0999 V2000
   -0.2740    4.0936   -0.1985 H   0  0  0  1  0  0  0  0  0  0  0  0
   -2.0826    3.9966    0.8273 C   0  0  0  1  0  0  0  0  0  0  0  0
   -1.6147    5.1766   -1.3041 N   0  0  0  1  0  0  0  0  0  0  0  0
   -1.3041    4.0046   -0.4739 C   0  0  0  1  0  0  0  0  0  0  0  0
   -1.6556    3.4139    1.8231 O   0  0  0  1  0  0  0  0  0  0  0  0
   -3.2498    4.6595    0.8127 N   0  0  0  1  0  0  0  0  0  0  0  0
   -2.3426    5.7720   -1.0283 H   0  0  0  1  0  0  0  0  0  0  0  0
   -0.9326    5.4615   -2.4327 C   0  0  0  1  0  0  0  0  0  0  0  0
   -4.0849    4.6951    2.0040 C   0  0  0  1  0  0  0  0  0  0  0  0
   -1.3236    6.7006   -3.2059 C   0  0  0  1  0  0  0  0  0  0  0  0
   -0.0191    4.7360   -2.8235 O   0  0  0  1  0  0  0  0  0  0  0  0
   -3.5402    5.1204   -0.0020 H   0  0  0  1  0  0  0  0  0  0  0  0
   -3.7762    3.9250    2.6797 H   0  0  0  1  0  0  0  0  0  0  0  0
   -5.1067    4.5385    1.7278 H   0  0  0  1  0  0  0  0  0  0  0  0
   -3.9857    5.6481    2.4804 H   0  0  0  1  0  0  0  0  0  0  0  0
   -2.3834    6.7106   -3.3525 H   0  0  0  1  0  0  0  0  0  0  0  0
   -0.8323    6.6974   -4.1564 H   0  0  0  1  0  0  0  0  0  0  0  0
   -1.0316    7.5707   -2.6559 H   0  0  0  1  0  0  0  0  0  0  0  0
   -6.0335    1.3084   -0.9179 F   0  0  0  1  0  0  0  0  0  0  0  0
   -5.0716    1.8680   -1.6765 C   0  0  0  1  0  0  0  0  0  0  0  0
   -5.3166    2.2989   -2.9710 C   0  0  0  1  0  0  0  0  0  0  0  0
   -4.2984    2.8630   -3.7161 C   0  0  0  1  0  0  0  0  0  0  0  0
   -3.0333    3.0028   -3.1670 C   0  0  0  1  0  0  0  0  0  0  0  0
   -2.7888    2.5732   -1.8762 C   0  0  0  1  0  0  0  0  0  0  0  0
   -3.8102    2.0074   -1.1290 C   0  0  0  1  0  0  0  0  0  0  0  0
   -1.4091    2.7199   -1.2793 C   0  0  0  1  0  0  0  0  0  0  0  0
   -4.5352    3.2769   -4.9757 F   0  0  0  1  0  0  0  0  0  0  0  0
   -6.2667    2.1977   -3.3816 H   0  0  0  1  0  0  0  0  0  0  0  0
   -2.2681    3.4309   -3.7262 H   0  0  0  1  0  0  0  0  0  0  0  0
   -3.6273    1.6879   -0.1564 H   0  0  0  1  0  0  0  0  0  0  0  0
   -1.2142    1.8864   -0.6372 H   0  0  0  1  0  0  0  0  0  0  0  0
   -0.6860    2.7401   -2.0678 H   0  0  0  1  0  0  0  0  0  0  0  0
  1  4  1  0  0  0  0
  2  4  1  0  0  0  0
  2  5  2  0  0  0  0
  2  6  1  0  0  0  0
  3  4  1  0  0  0  0
  3  7  1  0  0  0  0
  3  8  1  0  0  0  0
  4 26  1  0  0  0  0
  6  9  1  0  0  0  0
  6 12  1  0  0  0  0
  8 10  1  0  0  0  0
  8 11  2  0  0  0  0
  9 13  1  0  0  0  0
  9 14  1  0  0  0  0
  9 15  1  0  0  0  0
 10 16  1  0  0  0  0
 10 17  1  0  0  0  0
 10 18  1  0  0  0  0
 19 20  1  0  0  0  0
 20 21  4  0  0  0  0
 20 25  4  0  0  0  0
 21 22  4  0  0  0  0
 21 28  1  0  0  0  0
 22 23  4  0  0  0  0
 22 27  1  0  0  0  0
 23 24  4  0  0  0  0
 23 29  1  0  0  0  0
 24 25  4  0  0  0  0
 24 26  1  0  0  0  0
 25 30  1  0  0  0  0
 26 31  1  0  0  0  0
 26 32  1  0  0  0  0
M  END
> <BCLConfClusterSize>
1

> <ConfClashScore>
0 

> <ConfOneFourInteractionScore>
-0.952634 

> <ConfScore>
0.0405125 

> <ConfScorePBest>
0.00740662 

> <ConfTolerance>
0.251002 

> <RosettaParamsInstructions>
M  ROOT 3
M  POLY_N_BB 3
M  POLY_CA_BB 4
M  POLY_C_BB 2
M  POLY_O_BB 5
M  POLY_IGNORE 9 10 11 12 13 14 15 16 17 18 
M  POLY_UPPER 6
M  POLY_LOWER 8
M  POLY_CHG 0
M  POLY_PROPERTIES ALPHA_AA D_AA PROTEIN AROMATIC POLYMER 
M  END

$$$$



 32 32  0  0  0  0  0  0  0  0999 V2000
   -0.9815    0.7285   -1.2830 H   0  0  0  1  0  0  0  0  0  0  0  0
    0.7949    1.6424   -0.6488 C   0  0  0  1  0  0  0  0  0  0  0  0
   -0.0857    1.5491   -2.9502 N   0  0  0  1  0  0  0  0  0  0  0  0
   -0.4501    1.6257   -1.5227 C   0  0  0  1  0  0  0  0  0  0  0  0
    0.7079    1.7760    0.5690 O   0  0  0  1  0  0  0  0  0  0  0  0
    1.9876    1.5072   -1.2476 N   0  0  0  1  0  0  0  0  0  0  0  0
   -0.1746    2.3655   -3.4850 H   0  0  0  1  0  0  0  0  0  0  0  0
    0.3608    0.4397   -3.5749 C   0  0  0  1  0  0  0  0  0  0  0  0
    3.2090    1.5301   -0.4568 C   0  0  0  1  0  0  0  0  0  0  0  0
    0.5186    0.4852   -5.0823 C   0  0  0  1  0  0  0  0  0  0  0  0
    0.6325   -0.5800   -2.9425 O   0  0  0  1  0  0  0  0  0  0  0  0
    2.0365    1.3926   -2.2197 H   0  0  0  1  0  0  0  0  0  0  0  0
    2.9803    1.2907    0.5607 H   0  0  0  1  0  0  0  0  0  0  0  0
    3.6458    2.5058   -0.5039 H   0  0  0  1  0  0  0  0  0  0  0  0
    3.8991    0.8108   -0.8458 H   0  0  0  1  0  0  0  0  0  0  0  0
   -0.1930    1.1691   -5.4955 H   0  0  0  1  0  0  0  0  0  0  0  0
    0.3517   -0.4909   -5.4877 H   0  0  0  1  0  0  0  0  0  0  0  0
    1.5084    0.8093   -5.3274 H   0  0  0  1  0  0  0  0  0  0  0  0
   -6.0802    1.3208   -0.9645 F   0  0  0  1  0  0  0  0  0  0  0  0
   -5.0647    1.8638   -1.6629 C   0  0  0  1  0  0  0  0  0  0  0  0
   -5.3200    2.2988   -2.9540 C   0  0  0  1  0  0  0  0  0  0  0  0
   -4.3057    2.8574   -3.7085 C   0  0  0  1  0  0  0  0  0  0  0  0
   -3.0342    2.9877   -3.1721 C   0  0  0  1  0  0  0  0  0  0  0  0
   -2.7794    2.5541   -1.8847 C   0  0  0  1  0  0  0  0  0  0  0  0
   -3.7969    1.9938   -1.1281 C   0  0  0  1  0  0  0  0  0  0  0  0
   -1.4150    2.7833   -1.2785 C   0  0  0  1  0  0  0  0  0  0  0  0
   -4.5093    3.2880   -4.9683 F   0  0  0  1  0  0  0  0  0  0  0  0
   -6.2750    2.2047   -3.3551 H   0  0  0  1  0  0  0  0  0  0  0  0
   -2.2719    3.4117   -3.7383 H   0  0  0  1  0  0  0  0  0  0  0  0
   -3.6062    1.6712   -0.1579 H   0  0  0  1  0  0  0  0  0  0  0  0
   -0.9973    3.6708   -1.7058 H   0  0  0  1  0  0  0  0  0  0  0  0
   -1.5291    2.9146   -0.2227 H   0  0  0  1  0  0  0  0  0  0  0  0
  1  4  1  0  0  0  0
  2  4  1  0  0  0  0
  2  5  2  0  0  0  0
  2  6  1  0  0  0  0
  3  4  1  0  0  0  0
  3  7  1  0  0  0  0
  3  8  1  0  0  0  0
  4 26  1  0  0  0  0
  6  9  1  0  0  0  0
  6 12  1  0  0  0  0
  8 10  1  0  0  0  0
  8 11  2  0  0  0  0
  9 13  1  0  0  0  0
  9 14  1  0  0  0  0
  9 15  1  0  0  0  0
 10 16  1  0  0  0  0
 10 17  1  0  0  0  0
 10 18  1  0  0  0  0
 19 20  1  0  0  0  0
 20 21  4  0  0  0  0
 20 25  4  0  0  0  0
 21 22  4  0  0  0  0
 21 28  1  0  0  0  0
 22 23  4  0  0  0  0
 22 27  1  0  0  0  0
 23 24  4  0  0  0  0
 23 29  1  0  0  0  0
 24 25  4  0  0  0  0
 24 26  1  0  0  0  0
 25 30  1  0  0  0  0
 26 31  1  0  0  0  0
 26 32  1  0  0  0  0
M  END
> <BCLConfClusterSize>
1

> <ConfClashScore>
0 

> <ConfOneFourInteractionScore>
-0.960318 

> <ConfScore>
0.0691554 

> <ConfScorePBest>
0.00737814 

> <ConfTolerance>
0.214172 

> <RosettaParamsInstructions>
M  ROOT 3
M  POLY_N_BB 3
M  POLY_CA_BB 4
M  POLY_C_BB 2
M  POLY_O_BB 5
M  POLY_IGNORE 9 10 11 12 13 14 15 16 17 18 
M  POLY_UPPER 6
M  POLY_LOWER 8
M  POLY_CHG 0
M  POLY_PROPERTIES ALPHA_AA D_AA PROTEIN AROMATIC POLYMER 
M  END

$$$$



 32 32  0  0  0  0  0  0  0  0999 V2000
   -1.2515    4.8233   -1.1820 H   0  0  0  1  0  0  0  0  0  0  0  0
    0.2195    4.0599    0.1115 C   0  0  0  1  0  0  0  0  0  0  0  0
   -2.2127    4.1262    0.5093 N   0  0  0  1  0  0  0  0  0  0  0  0
   -1.1623    4.0040   -0.4996 C   0  0  0  1  0  0  0  0  0  0  0  0
    1.2289    4.0692   -0.5919 O   0  0  0  1  0  0  0  0  0  0  0  0
    0.2629    4.0980    1.4527 N   0  0  0  1  0  0  0  0  0  0  0  0
   -2.6380    3.3118    0.8503 H   0  0  0  1  0  0  0  0  0  0  0  0
   -2.6260    5.3470    0.9978 C   0  0  0  1  0  0  0  0  0  0  0  0
    1.5128    4.2286    2.1867 C   0  0  0  1  0  0  0  0  0  0  0  0
   -3.8443    5.3243    1.8777 C   0  0  0  1  0  0  0  0  0  0  0  0
   -2.0120    6.3610    0.7093 O   0  0  0  1  0  0  0  0  0  0  0  0
   -0.5762    4.0356    1.9551 H   0  0  0  1  0  0  0  0  0  0  0  0
    2.2699    4.6151    1.5368 H   0  0  0  1  0  0  0  0  0  0  0  0
    1.8131    3.2690    2.5527 H   0  0  0  1  0  0  0  0  0  0  0  0
    1.3743    4.8977    3.0101 H   0  0  0  1  0  0  0  0  0  0  0  0
   -4.2140    4.3229    1.9500 H   0  0  0  1  0  0  0  0  0  0  0  0
   -4.6000    5.9538    1.4564 H   0  0  0  1  0  0  0  0  0  0  0  0
   -3.5860    5.6802    2.8532 H   0  0  0  1  0  0  0  0  0  0  0  0
   -6.0778    1.3168   -0.9716 F   0  0  0  1  0  0  0  0  0  0  0  0
   -5.0627    1.8663   -1.6656 C   0  0  0  1  0  0  0  0  0  0  0  0
   -5.3139    2.2953   -2.9596 C   0  0  0  1  0  0  0  0  0  0  0  0
   -4.2999    2.8601   -3.7097 C   0  0  0  1  0  0  0  0  0  0  0  0
   -3.0327    3.0026   -3.1661 C   0  0  0  1  0  0  0  0  0  0  0  0
   -2.7819    2.5750   -1.8759 C   0  0  0  1  0  0  0  0  0  0  0  0
   -3.7992    2.0085   -1.1237 C   0  0  0  1  0  0  0  0  0  0  0  0
   -1.3999    2.7247   -1.2851 C   0  0  0  1  0  0  0  0  0  0  0  0
   -4.5428    3.2721   -4.9688 F   0  0  0  1  0  0  0  0  0  0  0  0
   -6.2657    2.1920   -3.3660 H   0  0  0  1  0  0  0  0  0  0  0  0
   -2.2706    3.4313   -3.7292 H   0  0  0  1  0  0  0  0  0  0  0  0
   -3.6116    1.6903   -0.1515 H   0  0  0  1  0  0  0  0  0  0  0  0
   -1.2306    1.8975   -0.6279 H   0  0  0  1  0  0  0  0  0  0  0  0
   -0.6928    2.6939   -2.0876 H   0  0  0  1  0  0  0  0  0  0  0  0
  1  4  1  0  0  0  0
  2  4  1  0  0  0  0
  2  5  2  0  0  0  0
  2  6  1  0  0  0  0
  3  4  1  0  0  0  0
  3  7  1  0  0  0  0
  3  8  1  0  0  0  0
  4 26  1  0  0  0  0
  6  9  1  0  0  0  0
  6 12  1  0  0  0  0
  8 10  1  0  0  0  0
  8 11  2  0  0  0  0
  9 13  1  0  0  0  0
  9 14  1  0  0  0  0
  9 15  1  0  0  0  0
 10 16  1  0  0  0  0
 10 17  1  0  0  0  0
 10 18  1  0  0  0  0
 19 20  1  0  0  0  0
 20 21  4  0  0  0  0
 20 25  4  0  0  0  0
 21 22  4  0  0  0  0
 21 28  1  0  0  0  0
 22 23  4  0  0  0  0
 22 27  1  0  0  0  0
 23 24  4  0  0  0  0
 23 29  1  0  0  0  0
 24 25  4  0  0  0  0
 24 26  1  0  0  0  0
 25 30  1  0  0  0  0
 26 31  1  0  0  0  0
 26 32  1  0  0  0  0
M  END
> <BCLConfClusterSize>
1

> <ConfClashScore>
0 

> <ConfOneFourInteractionScore>
-0.94165 

> <ConfScore>
0.0714683 

> <ConfScorePBest>
0.00734966 

> <ConfTolerance>
0.204294 

> <RosettaParamsInstructions>
M  ROOT 3
M  POLY_N_BB 3
M  POLY_CA_BB 4
M  POLY_C_BB 2
M  POLY_O_BB 5
M  POLY_IGNORE 9 10 11 12 13 14 15 16 17 18 
M  POLY_UPPER 6
M  POLY_LOWER 8
M  POLY_CHG 0
M  POLY_PROPERTIES ALPHA_AA D_AA PROTEIN AROMATIC POLYMER 
M  END

$$$$



 32 32  0  0  0  0  0  0  0  0999 V2000
   -1.0738    4.7170   -1.6646 H   0  0  0  1  0  0  0  0  0  0  0  0
    0.2667    4.2031   -0.1476 C   0  0  0  1  0  0  0  0  0  0  0  0
   -2.1629    4.6642    0.0679 N   0  0  0  1  0  0  0  0  0  0  0  0
   -1.1091    4.1172   -0.7792 C   0  0  0  1  0  0  0  0  0  0  0  0
    1.2790    3.9233   -0.7843 O   0  0  0  1  0  0  0  0  0  0  0  0
    0.2960    4.5998    1.1346 N   0  0  0  1  0  0  0  0  0  0  0  0
   -2.5570    4.0708    0.7409 H   0  0  0  1  0  0  0  0  0  0  0  0
   -2.6307    5.9113   -0.0044 C   0  0  0  1  0  0  0  0  0  0  0  0
    1.5436    4.8294    1.8493 C   0  0  0  1  0  0  0  0  0  0  0  0
   -3.7221    6.2640    0.9873 C   0  0  0  1  0  0  0  0  0  0  0  0
   -2.2161    6.7351   -0.8156 O   0  0  0  1  0  0  0  0  0  0  0  0
   -0.5518    4.7398    1.6058 H   0  0  0  1  0  0  0  0  0  0  0  0
    2.2788    5.2099    1.1714 H   0  0  0  1  0  0  0  0  0  0  0  0
    1.8887    3.9076    2.2690 H   0  0  0  1  0  0  0  0  0  0  0  0
    1.3799    5.5394    2.6329 H   0  0  0  1  0  0  0  0  0  0  0  0
   -3.8764    5.4428    1.6557 H   0  0  0  1  0  0  0  0  0  0  0  0
   -4.6301    6.4697    0.4599 H   0  0  0  1  0  0  0  0  0  0  0  0
   -3.4301    7.1285    1.5462 H   0  0  0  1  0  0  0  0  0  0  0  0
   -6.0258    1.3095   -0.9151 F   0  0  0  1  0  0  0  0  0  0  0  0
   -5.0668    1.8696   -1.6772 C   0  0  0  1  0  0  0  0  0  0  0  0
   -5.3164    2.2991   -2.9713 C   0  0  0  1  0  0  0  0  0  0  0  0
   -4.3011    2.8638   -3.7201 C   0  0  0  1  0  0  0  0  0  0  0  0
   -3.0346    3.0055   -3.1749 C   0  0  0  1  0  0  0  0  0  0  0  0
   -2.7855    2.5773   -1.8846 C   0  0  0  1  0  0  0  0  0  0  0  0
   -3.8039    2.0110   -1.1337 C   0  0  0  1  0  0  0  0  0  0  0  0
   -1.4252    2.7002   -1.2396 C   0  0  0  1  0  0  0  0  0  0  0  0
   -4.5424    3.2763   -4.9793 F   0  0  0  1  0  0  0  0  0  0  0  0
   -6.2676    2.1964   -3.3789 H   0  0  0  1  0  0  0  0  0  0  0  0
   -2.2716    3.4340   -3.7369 H   0  0  0  1  0  0  0  0  0  0  0  0
   -3.6176    1.6924   -0.1614 H   0  0  0  1  0  0  0  0  0  0  0  0
   -1.3911    2.0505   -0.3902 H   0  0  0  1  0  0  0  0  0  0  0  0
   -0.6833    2.3993   -1.9495 H   0  0  0  1  0  0  0  0  0  0  0  0
  1  4  1  0  0  0  0
  2  4  1  0  0  0  0
  2  5  2  0  0  0  0
  2  6  1  0  0  0  0
  3  4  1  0  0  0  0
  3  7  1  0  0  0  0
  3  8  1  0  0  0  0
  4 26  1  0  0  0  0
  6  9  1  0  0  0  0
  6 12  1  0  0  0  0
  8 10  1  0  0  0  0
  8 11  2  0  0  0  0
  9 13  1  0  0  0  0
  9 14  1  0  0  0  0
  9 15  1  0  0  0  0
 10 16  1  0  0  0  0
 10 17  1  0  0  0  0
 10 18  1  0  0  0  0
 19 20  1  0  0  0  0
 20 21  4  0  0  0  0
 20 25  4  0  0  0  0
 21 22  4  0  0  0  0
 21 28  1  0  0  0  0
 22 23  4  0  0  0  0
 22 27  1  0  0  0  0
 23 24  4  0  0  0  0
 23 29  1  0  0  0  0
 24 25  4  0  0  0  0
 24 26  1  0  0  0  0
 25 30  1  0  0  0  0
 26 31  1  0  0  0  0
 26 32  1  0  0  0  0
M  END
> <BCLConfClusterSize>
1

> <ConfClashScore>
0 

> <ConfOneFourInteractionScore>
-0.94165 

> <ConfScore>
0.0714683 

> <ConfScorePBest>
0.00732118 

> <ConfTolerance>
0.306391 

> <RosettaParamsInstructions>
M  ROOT 3
M  POLY_N_BB 3
M  POLY_CA_BB 4
M  POLY_C_BB 2
M  POLY_O_BB 5
M  POLY_IGNORE 9 10 11 12 13 14 15 16 17 18 
M  POLY_UPPER 6
M  POLY_LOWER 8
M  POLY_CHG 0
M  POLY_PROPERTIES ALPHA_AA D_AA PROTEIN AROMATIC POLYMER 
M  END

$$$$



 32 32  0  0  0  0  0  0  0  0999 V2000
    0.4500    3.6696   -1.6086 H   0  0  0  1  0  0  0  0  0  0  0  0
   -0.9890    4.9704   -2.4180 C   0  0  0  1  0  0  0  0  0  0  0  0
   -0.1960    2.8942   -3.4143 N   0  0  0  1  0  0  0  0  0  0  0  0
   -0.4736    3.5718   -2.1399 C   0  0  0  1  0  0  0  0  0  0  0  0
   -0.8488    5.4909   -3.5124 O   0  0  0  1  0  0  0  0  0  0  0  0
   -1.5966    5.5791   -1.3955 N   0  0  0  1  0  0  0  0  0  0  0  0
   -0.5635    1.9980   -3.5633 H   0  0  0  1  0  0  0  0  0  0  0  0
    0.5470    3.4631   -4.3862 C   0  0  0  1  0  0  0  0  0  0  0  0
   -2.1285    6.9297   -1.4996 C   0  0  0  1  0  0  0  0  0  0  0  0
    0.6427    2.7512   -5.7165 C   0  0  0  1  0  0  0  0  0  0  0  0
    1.1306    4.5297   -4.1979 O   0  0  0  1  0  0  0  0  0  0  0  0
   -1.6872    5.0993   -0.5458 H   0  0  0  1  0  0  0  0  0  0  0  0
   -2.7142    7.0151   -2.3910 H   0  0  0  1  0  0  0  0  0  0  0  0
   -1.3198    7.6294   -1.5361 H   0  0  0  1  0  0  0  0  0  0  0  0
   -2.7425    7.1375   -0.6484 H   0  0  0  1  0  0  0  0  0  0  0  0
    1.1882    1.8388   -5.5950 H   0  0  0  1  0  0  0  0  0  0  0  0
    1.1489    3.3780   -6.4206 H   0  0  0  1  0  0  0  0  0  0  0  0
   -0.3414    2.5329   -6.0755 H   0  0  0  1  0  0  0  0  0  0  0  0
   -6.0561    1.3124   -0.9444 F   0  0  0  1  0  0  0  0  0  0  0  0
   -5.0671    1.8672   -1.6711 C   0  0  0  1  0  0  0  0  0  0  0  0
   -5.3152    2.2971   -2.9653 C   0  0  0  1  0  0  0  0  0  0  0  0
   -4.2991    2.8616   -3.7130 C   0  0  0  1  0  0  0  0  0  0  0  0
   -3.0330    3.0027   -3.1666 C   0  0  0  1  0  0  0  0  0  0  0  0
   -2.7853    2.5741   -1.8761 C   0  0  0  1  0  0  0  0  0  0  0  0
   -3.8046    2.0080   -1.1264 C   0  0  0  1  0  0  0  0  0  0  0  0
   -1.4045    2.7223   -1.2822 C   0  0  0  1  0  0  0  0  0  0  0  0
   -4.5390    3.2745   -4.9723 F   0  0  0  1  0  0  0  0  0  0  0  0
   -6.2661    2.1949   -3.3738 H   0  0  0  1  0  0  0  0  0  0  0  0
   -2.2693    3.4311   -3.7277 H   0  0  0  1  0  0  0  0  0  0  0  0
   -3.6194    1.6891   -0.1540 H   0  0  0  1  0  0  0  0  0  0  0  0
   -1.4950    3.1817   -0.3201 H   0  0  0  1  0  0  0  0  0  0  0  0
   -0.9740    1.7487   -1.1740 H   0  0  0  1  0  0  0  0  0  0  0  0
  1  4  1  0  0  0  0
  2  4  1  0  0  0  0
  2  5  2  0  0  0  0
  2  6  1  0  0  0  0
  3  4  1  0  0  0  0
  3  7  1  0  0  0  0
  3  8  1  0  0  0  0
  4 26  1  0  0  0  0
  6  9  1  0  0  0  0
  6 12  1  0  0  0  0
  8 10  1  0  0  0  0
  8 11  2  0  0  0  0
  9 13  1  0  0  0  0
  9 14  1  0  0  0  0
  9 15  1  0  0  0  0
 10 16  1  0  0  0  0
 10 17  1  0  0  0  0
 10 18  1  0  0  0  0
 19 20  1  0  0  0  0
 20 21  4  0  0  0  0
 20 25  4  0  0  0  0
 21 22  4  0  0  0  0
 21 28  1  0  0  0  0
 22 23  4  0  0  0  0
 22 27  1  0  0  0  0
 23 24  4  0  0  0  0
 23 29  1  0  0  0  0
 24 25  4  0  0  0  0
 24 26  1  0  0  0  0
 25 30  1  0  0  0  0
 26 31  1  0  0  0  0
 26 32  1  0  0  0  0
M  END
> <BCLConfClusterSize>
1

> <ConfClashScore>
0 

> <ConfOneFourInteractionScore>
-0.968652 

> <ConfScore>
0.0794707 

> <ConfScorePBest>
0.0072927 

> <ConfTolerance>
0.420607 

> <RosettaParamsInstructions>
M  ROOT 3
M  POLY_N_BB 3
M  POLY_CA_BB 4
M  POLY_C_BB 2
M  POLY_O_BB 5
M  POLY_IGNORE 9 10 11 12 13 14 15 16 17 18 
M  POLY_UPPER 6
M  POLY_LOWER 8
M  POLY_CHG 0
M  POLY_PROPERTIES ALPHA_AA D_AA PROTEIN AROMATIC POLYMER 
M  END

$$$$



 32 32  0  0  0  0  0  0  0  0999 V2000
    0.5050    1.8450   -1.1542 H   0  0  0  1  0  0  0  0  0  0  0  0
   -0.2778    1.3161   -3.0314 C   0  0  0  1  0  0  0  0  0  0  0  0
   -0.9022    0.3767   -0.8396 N   0  0  0  1  0  0  0  0  0  0  0  0
   -0.4509    1.5664   -1.5460 C   0  0  0  1  0  0  0  0  0  0  0  0
   -0.1020    0.1854   -3.4775 O   0  0  0  1  0  0  0  0  0  0  0  0
   -0.3365    2.4310   -3.7769 N   0  0  0  1  0  0  0  0  0  0  0  0
   -0.4933    0.1552    0.0230 H   0  0  0  1  0  0  0  0  0  0  0  0
   -1.8586   -0.4274   -1.3284 C   0  0  0  1  0  0  0  0  0  0  0  0
   -0.0029    2.4375   -5.1934 C   0  0  0  1  0  0  0  0  0  0  0  0
   -2.1832   -1.6493   -0.4913 C   0  0  0  1  0  0  0  0  0  0  0  0
   -2.4447   -0.2043   -2.3844 O   0  0  0  1  0  0  0  0  0  0  0  0
   -0.6136    3.2698   -3.3524 H   0  0  0  1  0  0  0  0  0  0  0  0
    0.7840    1.7365   -5.3782 H   0  0  0  1  0  0  0  0  0  0  0  0
    0.3181    3.4173   -5.4795 H   0  0  0  1  0  0  0  0  0  0  0  0
   -0.8656    2.1636   -5.7640 H   0  0  0  1  0  0  0  0  0  0  0  0
   -3.1654   -1.9977   -0.7337 H   0  0  0  1  0  0  0  0  0  0  0  0
   -2.1425   -1.3914    0.5464 H   0  0  0  1  0  0  0  0  0  0  0  0
   -1.4708   -2.4209   -0.6958 H   0  0  0  1  0  0  0  0  0  0  0  0
   -6.0778    1.3168   -0.9716 F   0  0  0  1  0  0  0  0  0  0  0  0
   -5.0627    1.8663   -1.6656 C   0  0  0  1  0  0  0  0  0  0  0  0
   -5.3139    2.2953   -2.9596 C   0  0  0  1  0  0  0  0  0  0  0  0
   -4.2999    2.8601   -3.7097 C   0  0  0  1  0  0  0  0  0  0  0  0
   -3.0327    3.0026   -3.1661 C   0  0  0  1  0  0  0  0  0  0  0  0
   -2.7819    2.5750   -1.8759 C   0  0  0  1  0  0  0  0  0  0  0  0
   -3.7992    2.0085   -1.1237 C   0  0  0  1  0  0  0  0  0  0  0  0
   -1.3999    2.7247   -1.2851 C   0  0  0  1  0  0  0  0  0  0  0  0
   -4.5428    3.2721   -4.9688 F   0  0  0  1  0  0  0  0  0  0  0  0
   -6.2657    2.1920   -3.3660 H   0  0  0  1  0  0  0  0  0  0  0  0
   -2.2706    3.4313   -3.7292 H   0  0  0  1  0  0  0  0  0  0  0  0
   -3.6116    1.6903   -0.1515 H   0  0  0  1  0  0  0  0  0  0  0  0
   -0.9602    3.6102   -1.6942 H   0  0  0  1  0  0  0  0  0  0  0  0
   -1.5039    2.8341   -0.2258 H   0  0  0  1  0  0  0  0  0  0  0  0
  1  4  1  0  0  0  0
  2  4  1  0  0  0  0
  2  5  2  0  0  0  0
  2  6  1  0  0  0  0
  3  4  1  0  0  0  0
  3  7  1  0  0  0  0
  3  8  1  0  0  0  0
  4 26  1  0  0  0  0
  6  9  1  0  0  0  0
  6 12  1  0  0  0  0
  8 10  1  0  0  0  0
  8 11  2  0  0  0  0
  9 13  1  0  0  0  0
  9 14  1  0  0  0  0
  9 15  1  0  0  0  0
 10 16  1  0  0  0  0
 10 17  1  0  0  0  0
 10 18  1  0  0  0  0
 19 20  1  0  0  0  0
 20 21  4  0  0  0  0
 20 25  4  0  0  0  0
 21 22  4  0  0  0  0
 21 28  1  0  0  0  0
 22 23  4  0  0  0  0
 22 27  1  0  0  0  0
 23 24  4  0  0  0  0
 23 29  1  0  0  0  0
 24 25  4  0  0  0  0
 24 26  1  0  0  0  0
 25 30  1  0  0  0  0
 26 31  1  0  0  0  0
 26 32  1  0  0  0  0
M  END
> <BCLConfClusterSize>
1

> <ConfClashScore>
0 

> <ConfOneFourInteractionScore>
-0.930691 

> <ConfScore>
0.0844005 

> <ConfScorePBest>
0.00726422 

> <ConfTolerance>
0.339751 

> <RosettaParamsInstructions>
M  ROOT 3
M  POLY_N_BB 3
M  POLY_CA_BB 4
M  POLY_C_BB 2
M  POLY_O_BB 5
M  POLY_IGNORE 9 10 11 12 13 14 15 16 17 18 
M  POLY_UPPER 6
M  POLY_LOWER 8
M  POLY_CHG 0
M  POLY_PROPERTIES ALPHA_AA D_AA PROTEIN AROMATIC POLYMER 
M  END

$$$$



 32 32  0  0  0  0  0  0  0  0999 V2000
    0.4332    1.6813   -1.2065 H   0  0  0  1  0  0  0  0  0  0  0  0
   -0.4546    1.1541   -3.0368 C   0  0  0  1  0  0  0  0  0  0  0  0
   -1.0940    0.3662   -0.7904 N   0  0  0  1  0  0  0  0  0  0  0  0
   -0.5565    1.4788   -1.5592 C   0  0  0  1  0  0  0  0  0  0  0  0
    0.3991    1.6682   -3.7406 O   0  0  0  1  0  0  0  0  0  0  0  0
   -1.3503    0.2817   -3.5015 N   0  0  0  1  0  0  0  0  0  0  0  0
   -1.5283   -0.3592   -1.2860 H   0  0  0  1  0  0  0  0  0  0  0  0
   -1.0380    0.2551    0.5906 C   0  0  0  1  0  0  0  0  0  0  0  0
   -1.3878   -0.2277   -4.8642 C   0  0  0  1  0  0  0  0  0  0  0  0
   -1.6616   -0.9505    1.2567 C   0  0  0  1  0  0  0  0  0  0  0  0
   -0.4858    1.1364    1.2237 O   0  0  0  1  0  0  0  0  0  0  0  0
   -2.0346   -0.0405   -2.8784 H   0  0  0  1  0  0  0  0  0  0  0  0
   -0.4697   -0.7320   -5.0824 H   0  0  0  1  0  0  0  0  0  0  0  0
   -1.5178    0.5868   -5.5458 H   0  0  0  1  0  0  0  0  0  0  0  0
   -2.2036   -0.9125   -4.9664 H   0  0  0  1  0  0  0  0  0  0  0  0
   -2.4995   -0.6399    1.8451 H   0  0  0  1  0  0  0  0  0  0  0  0
   -0.9382   -1.4229    1.8880 H   0  0  0  1  0  0  0  0  0  0  0  0
   -1.9883   -1.6420    0.5083 H   0  0  0  1  0  0  0  0  0  0  0  0
   -6.0630    1.3115   -0.9470 F   0  0  0  1  0  0  0  0  0  0  0  0
   -5.0713    1.8658   -1.6703 C   0  0  0  1  0  0  0  0  0  0  0  0
   -5.3153    2.2970   -2.9650 C   0  0  0  1  0  0  0  0  0  0  0  0
   -4.2963    2.8609   -3.7092 C   0  0  0  1  0  0  0  0  0  0  0  0
   -3.0317    3.0002   -3.1591 C   0  0  0  1  0  0  0  0  0  0  0  0
   -2.7882    2.5703   -1.8683 C   0  0  0  1  0  0  0  0  0  0  0  0
   -3.8103    2.0047   -1.1219 C   0  0  0  1  0  0  0  0  0  0  0  0
   -1.3911    2.7405   -1.3200 C   0  0  0  1  0  0  0  0  0  0  0  0
   -4.5322    3.2751   -4.9689 F   0  0  0  1  0  0  0  0  0  0  0  0
   -6.2651    2.1961   -3.3763 H   0  0  0  1  0  0  0  0  0  0  0  0
   -2.2659    3.4282   -3.7177 H   0  0  0  1  0  0  0  0  0  0  0  0
   -3.6282    1.6849   -0.1492 H   0  0  0  1  0  0  0  0  0  0  0  0
   -0.9215    3.5693   -1.8073 H   0  0  0  1  0  0  0  0  0  0  0  0
   -1.4476    2.9296   -0.2684 H   0  0  0  1  0  0  0  0  0  0  0  0
  1  4  1  0  0  0  0
  2  4  1  0  0  0  0
  2  5  2  0  0  0  0
  2  6  1  0  0  0  0
  3  4  1  0  0  0  0
  3  7  1  0  0  0  0
  3  8  1  0  0  0  0
  4 26  1  0  0  0  0
  6  9  1  0  0  0  0
  6 12  1  0  0  0  0
  8 10  1  0  0  0  0
  8 11  2  0  0  0  0
  9 13  1  0  0  0  0
  9 14  1  0  0  0  0
  9 15  1  0  0  0  0
 10 16  1  0  0  0  0
 10 17  1  0  0  0  0
 10 18  1  0  0  0  0
 19 20  1  0  0  0  0
 20 21  4  0  0  0  0
 20 25  4  0  0  0  0
 21 22  4  0  0  0  0
 21 28  1  0  0  0  0
 22 23  4  0  0  0  0
 22 27  1  0  0  0  0
 23 24  4  0  0  0  0
 23 29  1  0  0  0  0
 24 25  4  0  0  0  0
 24 26  1  0  0  0  0
 25 30  1  0  0  0  0
 26 31  1  0  0  0  0
 26 32  1  0  0  0  0
M  END
> <BCLConfClusterSize>
1

> <ConfClashScore>
0 

> <ConfOneFourInteractionScore>
-0.96177 

> <ConfScore>
0.0852408 

> <ConfScorePBest>
0.00723574 

> <ConfTolerance>
0.287115 

> <RosettaParamsInstructions>
M  ROOT 3
M  POLY_N_BB 3
M  POLY_CA_BB 4
M  POLY_C_BB 2
M  POLY_O_BB 5
M  POLY_IGNORE 9 10 11 12 13 14 15 16 17 18 
M  POLY_UPPER 6
M  POLY_LOWER 8
M  POLY_CHG 0
M  POLY_PROPERTIES ALPHA_AA D_AA PROTEIN AROMATIC POLYMER 
M  END

$$$$



 32 32  0  0  0  0  0  0  0  0999 V2000
   -0.9323    0.6774   -0.9387 H   0  0  0  1  0  0  0  0  0  0  0  0
    0.9150    1.6791   -1.0485 C   0  0  0  1  0  0  0  0  0  0  0  0
   -0.5488    1.1322   -2.9200 N   0  0  0  1  0  0  0  0  0  0  0  0
   -0.5253    1.4951   -1.4960 C   0  0  0  1  0  0  0  0  0  0  0  0
    1.8208    1.0126   -1.5474 O   0  0  0  1  0  0  0  0  0  0  0  0
    1.1665    2.5832   -0.1004 N   0  0  0  1  0  0  0  0  0  0  0  0
   -1.0578    1.6924   -3.5425 H   0  0  0  1  0  0  0  0  0  0  0  0
    0.0996    0.0651   -3.3954 C   0  0  0  1  0  0  0  0  0  0  0  0
    2.4698    2.8166    0.5036 C   0  0  0  1  0  0  0  0  0  0  0  0
   -0.0253   -0.1706   -4.8880 C   0  0  0  1  0  0  0  0  0  0  0  0
    0.7551   -0.6829   -2.6889 O   0  0  0  1  0  0  0  0  0  0  0  0
    0.4172    3.1316    0.2129 H   0  0  0  1  0  0  0  0  0  0  0  0
    3.1019    3.3232   -0.1955 H   0  0  0  1  0  0  0  0  0  0  0  0
    2.9122    1.8794    0.7698 H   0  0  0  1  0  0  0  0  0  0  0  0
    2.3536    3.4186    1.3805 H   0  0  0  1  0  0  0  0  0  0  0  0
   -1.0081    0.1017   -5.2116 H   0  0  0  1  0  0  0  0  0  0  0  0
    0.1463   -1.2051   -5.1011 H   0  0  0  1  0  0  0  0  0  0  0  0
    0.6979    0.4252   -5.4047 H   0  0  0  1  0  0  0  0  0  0  0  0
   -6.0702    1.3178   -0.9688 F   0  0  0  1  0  0  0  0  0  0  0  0
   -5.0579    1.8679   -1.6663 C   0  0  0  1  0  0  0  0  0  0  0  0
   -5.3137    2.2954   -2.9599 C   0  0  0  1  0  0  0  0  0  0  0  0
   -4.3026    2.8609   -3.7137 C   0  0  0  1  0  0  0  0  0  0  0  0
   -3.0340    3.0053   -3.1741 C   0  0  0  1  0  0  0  0  0  0  0  0
   -2.7787    2.5791   -1.8843 C   0  0  0  1  0  0  0  0  0  0  0  0
   -3.7930    2.0120   -1.1285 C   0  0  0  1  0  0  0  0  0  0  0  0
   -1.4159    2.7050   -1.2454 C   0  0  0  1  0  0  0  0  0  0  0  0
   -4.5499    3.2715   -4.9723 F   0  0  0  1  0  0  0  0  0  0  0  0
   -6.2666    2.1907   -3.3633 H   0  0  0  1  0  0  0  0  0  0  0  0
   -2.2741    3.4345   -3.7398 H   0  0  0  1  0  0  0  0  0  0  0  0
   -3.6020    1.6949   -0.1566 H   0  0  0  1  0  0  0  0  0  0  0  0
   -0.9320    3.5724   -1.6434 H   0  0  0  1  0  0  0  0  0  0  0  0
   -1.5442    2.8206   -0.1894 H   0  0  0  1  0  0  0  0  0  0  0  0
  1  4  1  0  0  0  0
  2  4  1  0  0  0  0
  2  5  2  0  0  0  0
  2  6  1  0  0  0  0
  3  4  1  0  0  0  0
  3  7  1  0  0  0  0
  3  8  1  0  0  0  0
  4 26  1  0  0  0  0
  6  9  1  0  0  0  0
  6 12  1  0  0  0  0
  8 10  1  0  0  0  0
  8 11  2  0  0  0  0
  9 13  1  0  0  0  0
  9 14  1  0  0  0  0
  9 15  1  0  0  0  0
 10 16  1  0  0  0  0
 10 17  1  0  0  0  0
 10 18  1  0  0  0  0
 19 20  1  0  0  0  0
 20 21  4  0  0  0  0
 20 25  4  0  0  0  0
 21 22  4  0  0  0  0
 21 28  1  0  0  0  0
 22 23  4  0  0  0  0
 22 27  1  0  0  0  0
 23 24  4  0  0  0  0
 23 29  1  0  0  0  0
 24 25  4  0  0  0  0
 24 26  1  0  0  0  0
 25 30  1  0  0  0  0
 26 31  1  0  0  0  0
 26 32  1  0  0  0  0
M  END
> <BCLConfClusterSize>
1

> <ConfClashScore>
0 

> <ConfOneFourInteractionScore>
-0.960744 

> <ConfScore>
0.0870518 

> <ConfScorePBest>
0.00720726 

> <ConfTolerance>
0.302067 

> <RosettaParamsInstructions>
M  ROOT 3
M  POLY_N_BB 3
M  POLY_CA_BB 4
M  POLY_C_BB 2
M  POLY_O_BB 5
M  POLY_IGNORE 9 10 11 12 13 14 15 16 17 18 
M  POLY_UPPER 6
M  POLY_LOWER 8
M  POLY_CHG 0
M  POLY_PROPERTIES ALPHA_AA D_AA PROTEIN AROMATIC POLYMER 
M  END

$$$$



 32 32  0  0  0  0  0  0  0  0999 V2000
   -0.0909    3.9581   -0.2383 H   0  0  0  1  0  0  0  0  0  0  0  0
   -2.0396    4.2387    0.5367 C   0  0  0  1  0  0  0  0  0  0  0  0
   -1.1663    5.0697   -1.6183 N   0  0  0  1  0  0  0  0  0  0  0  0
   -1.0873    3.9993   -0.6262 C   0  0  0  1  0  0  0  0  0  0  0  0
   -1.7649    4.0331    1.7045 O   0  0  0  1  0  0  0  0  0  0  0  0
   -3.2338    4.7054    0.1612 N   0  0  0  1  0  0  0  0  0  0  0  0
   -1.3318    4.8131   -2.5495 H   0  0  0  1  0  0  0  0  0  0  0  0
   -1.0299    6.3696   -1.3517 C   0  0  0  1  0  0  0  0  0  0  0  0
   -4.2938    4.9880    1.1175 C   0  0  0  1  0  0  0  0  0  0  0  0
   -1.1188    7.3501   -2.5049 C   0  0  0  1  0  0  0  0  0  0  0  0
   -0.8363    6.8215   -0.2263 O   0  0  0  1  0  0  0  0  0  0  0  0
   -3.4019    4.8629   -0.7914 H   0  0  0  1  0  0  0  0  0  0  0  0
   -4.2847    4.2476    1.8899 H   0  0  0  1  0  0  0  0  0  0  0  0
   -5.2394    4.9695    0.6172 H   0  0  0  1  0  0  0  0  0  0  0  0
   -4.1366    5.9547    1.5485 H   0  0  0  1  0  0  0  0  0  0  0  0
   -0.2715    7.2251   -3.1462 H   0  0  0  1  0  0  0  0  0  0  0  0
   -1.1321    8.3495   -2.1228 H   0  0  0  1  0  0  0  0  0  0  0  0
   -2.0155    7.1678   -3.0595 H   0  0  0  1  0  0  0  0  0  0  0  0
   -6.0534    1.3087   -0.9514 F   0  0  0  1  0  0  0  0  0  0  0  0
   -5.0647    1.8696   -1.6738 C   0  0  0  1  0  0  0  0  0  0  0  0
   -5.3087    2.2938   -2.9707 C   0  0  0  1  0  0  0  0  0  0  0  0
   -4.2928    2.8646   -3.7139 C   0  0  0  1  0  0  0  0  0  0  0  0
   -3.0312    3.0178   -3.1604 C   0  0  0  1  0  0  0  0  0  0  0  0
   -2.7878    2.5950   -1.8672 C   0  0  0  1  0  0  0  0  0  0  0  0
   -3.8068    2.0225   -1.1219 C   0  0  0  1  0  0  0  0  0  0  0  0
   -1.3930    2.6638   -1.2916 C   0  0  0  1  0  0  0  0  0  0  0  0
   -4.5715    3.2579   -4.9715 F   0  0  0  1  0  0  0  0  0  0  0  0
   -6.2562    2.1824   -3.3846 H   0  0  0  1  0  0  0  0  0  0  0  0
   -2.2678    3.4510   -3.7182 H   0  0  0  1  0  0  0  0  0  0  0  0
   -3.6248    1.7080   -0.1475 H   0  0  0  1  0  0  0  0  0  0  0  0
   -1.2868    1.8878   -0.5625 H   0  0  0  1  0  0  0  0  0  0  0  0
   -0.6899    2.5088   -2.0831 H   0  0  0  1  0  0  0  0  0  0  0  0
  1  4  1  0  0  0  0
  2  4  1  0  0  0  0
  2  5  2  0  0  0  0
  2  6  1  0  0  0  0
  3  4  1  0  0  0  0
  3  7  1  0  0  0  0
  3  8  1  0  0  0  0
  4 26  1  0  0  0  0
  6  9  1  0  0  0  0
  6 12  1  0  0  0  0
  8 10  1  0  0  0  0
  8 11  2  0  0  0  0
  9 13  1  0  0  0  0
  9 14  1  0  0  0  0
  9 15  1  0  0  0  0
 10 16  1  0  0  0  0
 10 17  1  0  0  0  0
 10 18  1  0  0  0  0
 19 20  1  0  0  0  0
 20 21  4  0  0  0  0
 20 25  4  0  0  0  0
 21 22  4  0  0  0  0
 21 28  1  0  0  0  0
 22 23  4  0  0  0  0
 22 27  1  0  0  0  0
 23 24  4  0  0  0  0
 23 29  1  0  0  0  0
 24 25  4  0  0  0  0
 24 26  1  0  0  0  0
 25 30  1  0  0  0  0
 26 31  1  0  0  0  0
 26 32  1  0  0  0  0
M  END
> <BCLConfClusterSize>
1

> <ConfClashScore>
0 

> <ConfOneFourInteractionScore>
-0.950605 

> <ConfScore>
0.107153 

> <ConfScorePBest>
0.00717878 

> <ConfTolerance>
0.207489 

> <RosettaParamsInstructions>
M  ROOT 3
M  POLY_N_BB 3
M  POLY_CA_BB 4
M  POLY_C_BB 2
M  POLY_O_BB 5
M  POLY_IGNORE 9 10 11 12 13 14 15 16 17 18 
M  POLY_UPPER 6
M  POLY_LOWER 8
M  POLY_CHG 0
M  POLY_PROPERTIES ALPHA_AA D_AA PROTEIN AROMATIC POLYMER 
M  END

$$$$



 32 32  0  0  0  0  0  0  0  0999 V2000
   -1.6207    4.8129   -1.1313 H   0  0  0  1  0  0  0  0  0  0  0  0
    0.2417    4.3450   -0.2585 C   0  0  0  1  0  0  0  0  0  0  0  0
   -1.9965    3.9598    0.7089 N   0  0  0  1  0  0  0  0  0  0  0  0
   -1.2225    4.0284   -0.5224 C   0  0  0  1  0  0  0  0  0  0  0  0
    0.6032    4.8590    0.7989 O   0  0  0  1  0  0  0  0  0  0  0  0
    1.0929    4.0285   -1.2446 N   0  0  0  1  0  0  0  0  0  0  0  0
   -2.4540    3.1229    0.9340 H   0  0  0  1  0  0  0  0  0  0  0  0
   -2.1046    4.9982    1.5427 C   0  0  0  1  0  0  0  0  0  0  0  0
    2.5218    4.2881   -1.1514 C   0  0  0  1  0  0  0  0  0  0  0  0
   -3.0225    4.7922    2.7407 C   0  0  0  1  0  0  0  0  0  0  0  0
   -1.5097    6.0588    1.3705 O   0  0  0  1  0  0  0  0  0  0  0  0
    0.7406    3.6076   -2.0566 H   0  0  0  1  0  0  0  0  0  0  0  0
    2.9381    3.7119   -0.3517 H   0  0  0  1  0  0  0  0  0  0  0  0
    2.6833    5.3288   -0.9625 H   0  0  0  1  0  0  0  0  0  0  0  0
    2.9945    4.0146   -2.0715 H   0  0  0  1  0  0  0  0  0  0  0  0
   -3.0309    3.7567    3.0104 H   0  0  0  1  0  0  0  0  0  0  0  0
   -4.0146    5.1025    2.4871 H   0  0  0  1  0  0  0  0  0  0  0  0
   -2.6668    5.3725    3.5663 H   0  0  0  1  0  0  0  0  0  0  0  0
   -6.0335    1.3084   -0.9179 F   0  0  0  1  0  0  0  0  0  0  0  0
   -5.0716    1.8680   -1.6765 C   0  0  0  1  0  0  0  0  0  0  0  0
   -5.3166    2.2989   -2.9710 C   0  0  0  1  0  0  0  0  0  0  0  0
   -4.2984    2.8630   -3.7161 C   0  0  0  1  0  0  0  0  0  0  0  0
   -3.0333    3.0028   -3.1670 C   0  0  0  1  0  0  0  0  0  0  0  0
   -2.7888    2.5732   -1.8762 C   0  0  0  1  0  0  0  0  0  0  0  0
   -3.8102    2.0074   -1.1290 C   0  0  0  1  0  0  0  0  0  0  0  0
   -1.4091    2.7199   -1.2793 C   0  0  0  1  0  0  0  0  0  0  0  0
   -4.5352    3.2769   -4.9757 F   0  0  0  1  0  0  0  0  0  0  0  0
   -6.2667    2.1977   -3.3816 H   0  0  0  1  0  0  0  0  0  0  0  0
   -2.2681    3.4309   -3.7262 H   0  0  0  1  0  0  0  0  0  0  0  0
   -3.6273    1.6879   -0.1564 H   0  0  0  1  0  0  0  0  0  0  0  0
   -1.2428    1.9082   -0.6023 H   0  0  0  1  0  0  0  0  0  0  0  0
   -0.6896    2.6784   -2.0702 H   0  0  0  1  0  0  0  0  0  0  0  0
  1  4  1  0  0  0  0
  2  4  1  0  0  0  0
  2  5  2  0  0  0  0
  2  6  1  0  0  0  0
  3  4  1  0  0  0  0
  3  7  1  0  0  0  0
  3  8  1  0  0  0  0
  4 26  1  0  0  0  0
  6  9  1  0  0  0  0
  6 12  1  0  0  0  0
  8 10  1  0  0  0  0
  8 11  2  0  0  0  0
  9 13  1  0  0  0  0
  9 14  1  0  0  0  0
  9 15  1  0  0  0  0
 10 16  1  0  0  0  0
 10 17  1  0  0  0  0
 10 18  1  0  0  0  0
 19 20  1  0  0  0  0
 20 21  4  0  0  0  0
 20 25  4  0  0  0  0
 21 22  4  0  0  0  0
 21 28  1  0  0  0  0
 22 23  4  0  0  0  0
 22 27  1  0  0  0  0
 23 24  4  0  0  0  0
 23 29  1  0  0  0  0
 24 25  4  0  0  0  0
 24 26  1  0  0  0  0
 25 30  1  0  0  0  0
 26 31  1  0  0  0  0
 26 32  1  0  0  0  0
M  END
> <BCLConfClusterSize>
1

> <ConfClashScore>
0 

> <ConfOneFourInteractionScore>
-0.95498 

> <ConfScore>
0.113666 

> <ConfScorePBest>
0.0071503 

> <ConfTolerance>
0.349708 

> <RosettaParamsInstructions>
M  ROOT 3
M  POLY_N_BB 3
M  POLY_CA_BB 4
M  POLY_C_BB 2
M  POLY_O_BB 5
M  POLY_IGNORE 9 10 11 12 13 14 15 16 17 18 
M  POLY_UPPER 6
M  POLY_LOWER 8
M  POLY_CHG 0
M  POLY_PROPERTIES ALPHA_AA D_AA PROTEIN AROMATIC POLYMER 
M  END

$$$$



 32 32  0  0  0  0  0  0  0  0999 V2000
   -0.2062    4.1059   -0.2283 H   0  0  0  1  0  0  0  0  0  0  0  0
   -2.0360    3.9635    0.8181 C   0  0  0  1  0  0  0  0  0  0  0  0
   -1.6392    5.1284   -1.3132 N   0  0  0  1  0  0  0  0  0  0  0  0
   -1.2424    4.0063   -0.4757 C   0  0  0  1  0  0  0  0  0  0  0  0
   -1.5770    3.4207    1.8222 O   0  0  0  1  0  0  0  0  0  0  0  0
   -3.2507    4.5347    0.8325 N   0  0  0  1  0  0  0  0  0  0  0  0
   -1.9737    4.9491   -2.2167 H   0  0  0  1  0  0  0  0  0  0  0  0
   -1.5633    6.3924   -0.8938 C   0  0  0  1  0  0  0  0  0  0  0  0
   -4.1387    4.4442    1.9819 C   0  0  0  1  0  0  0  0  0  0  0  0
   -1.8478    7.4568   -1.9458 C   0  0  0  1  0  0  0  0  0  0  0  0
   -1.2834    6.6977    0.2624 O   0  0  0  1  0  0  0  0  0  0  0  0
   -3.5500    5.0299    0.0415 H   0  0  0  1  0  0  0  0  0  0  0  0
   -3.6693    4.8932    2.8322 H   0  0  0  1  0  0  0  0  0  0  0  0
   -4.3468    3.4157    2.1914 H   0  0  0  1  0  0  0  0  0  0  0  0
   -5.0530    4.9570    1.7673 H   0  0  0  1  0  0  0  0  0  0  0  0
   -2.8064    7.2769   -2.3858 H   0  0  0  1  0  0  0  0  0  0  0  0
   -1.0945    7.4183   -2.7046 H   0  0  0  1  0  0  0  0  0  0  0  0
   -1.8424    8.4229   -1.4858 H   0  0  0  1  0  0  0  0  0  0  0  0
   -6.0480    1.3115   -0.9364 F   0  0  0  1  0  0  0  0  0  0  0  0
   -5.0639    1.8673   -1.6690 C   0  0  0  1  0  0  0  0  0  0  0  0
   -5.3197    2.2948   -2.9625 C   0  0  0  1  0  0  0  0  0  0  0  0
   -4.3086    2.8603   -3.7163 C   0  0  0  1  0  0  0  0  0  0  0  0
   -3.0399    3.0047   -3.1767 C   0  0  0  1  0  0  0  0  0  0  0  0
   -2.7847    2.5785   -1.8870 C   0  0  0  1  0  0  0  0  0  0  0  0
   -3.7989    2.0113   -1.1311 C   0  0  0  1  0  0  0  0  0  0  0  0
   -1.4218    2.7044   -1.2480 C   0  0  0  1  0  0  0  0  0  0  0  0
   -4.5127    3.2841   -4.9783 F   0  0  0  1  0  0  0  0  0  0  0  0
   -6.2725    2.1901   -3.3659 H   0  0  0  1  0  0  0  0  0  0  0  0
   -2.2801    3.4338   -3.7425 H   0  0  0  1  0  0  0  0  0  0  0  0
   -3.6079    1.6943   -0.1592 H   0  0  0  1  0  0  0  0  0  0  0  0
   -1.2855    1.8860   -0.5723 H   0  0  0  1  0  0  0  0  0  0  0  0
   -0.6795    2.6598   -2.0174 H   0  0  0  1  0  0  0  0  0  0  0  0
  1  4  1  0  0  0  0
  2  4  1  0  0  0  0
  2  5  2  0  0  0  0
  2  6  1  0  0  0  0
  3  4  1  0  0  0  0
  3  7  1  0  0  0  0
  3  8  1  0  0  0  0
  4 26  1  0  0  0  0
  6  9  1  0  0  0  0
  6 12  1  0  0  0  0
  8 10  1  0  0  0  0
  8 11  2  0  0  0  0
  9 13  1  0  0  0  0
  9 14  1  0  0  0  0
  9 15  1  0  0  0  0
 10 16  1  0  0  0  0
 10 17  1  0  0  0  0
 10 18  1  0  0  0  0
 19 20  1  0  0  0  0
 20 21  4  0  0  0  0
 20 25  4  0  0  0  0
 21 22  4  0  0  0  0
 21 28  1  0  0  0  0
 22 23  4  0  0  0  0
 22 27  1  0  0  0  0
 23 24  4  0  0  0  0
 23 29  1  0  0  0  0
 24 25  4  0  0  0  0
 24 26  1  0  0  0  0
 25 30  1  0  0  0  0
 26 31  1  0  0  0  0
 26 32  1  0  0  0  0
M  END
> <BCLConfClusterSize>
1

> <ConfClashScore>
0 

> <ConfOneFourInteractionScore>
-0.950605 

> <ConfScore>
0.116503 

> <ConfScorePBest>
0.00712182 

> <ConfTolerance>
0.211523 

> <RosettaParamsInstructions>
M  ROOT 3
M  POLY_N_BB 3
M  POLY_CA_BB 4
M  POLY_C_BB 2
M  POLY_O_BB 5
M  POLY_IGNORE 9 10 11 12 13 14 15 16 17 18 
M  POLY_UPPER 6
M  POLY_LOWER 8
M  POLY_CHG 0
M  POLY_PROPERTIES ALPHA_AA D_AA PROTEIN AROMATIC POLYMER 
M  END

$$$$



 32 32  0  0  0  0  0  0  0  0999 V2000
   -1.3021    0.5951   -1.0556 H   0  0  0  1  0  0  0  0  0  0  0  0
    0.5080    1.4485   -0.3734 C   0  0  0  1  0  0  0  0  0  0  0  0
   -0.2350    1.1889   -2.7272 N   0  0  0  1  0  0  0  0  0  0  0  0
   -0.6515    1.3923   -1.3489 C   0  0  0  1  0  0  0  0  0  0  0  0
    0.3190    1.5449    0.8363 O   0  0  0  1  0  0  0  0  0  0  0  0
    1.7270    1.3867   -0.9167 N   0  0  0  1  0  0  0  0  0  0  0  0
   -0.1000    1.9605   -3.3161 H   0  0  0  1  0  0  0  0  0  0  0  0
   -0.0284   -0.0944   -3.2099 C   0  0  0  1  0  0  0  0  0  0  0  0
    2.9744    1.5522   -0.1855 C   0  0  0  1  0  0  0  0  0  0  0  0
    0.4593   -0.2746   -4.6201 C   0  0  0  1  0  0  0  0  0  0  0  0
   -0.2500   -1.0368   -2.4717 O   0  0  0  1  0  0  0  0  0  0  0  0
    1.7857    1.2172   -1.8801 H   0  0  0  1  0  0  0  0  0  0  0  0
    3.0339    0.8176    0.5902 H   0  0  0  1  0  0  0  0  0  0  0  0
    3.0070    2.5305    0.2468 H   0  0  0  1  0  0  0  0  0  0  0  0
    3.7994    1.4303   -0.8559 H   0  0  0  1  0  0  0  0  0  0  0  0
    0.2365   -1.2675   -4.9509 H   0  0  0  1  0  0  0  0  0  0  0  0
    1.5170   -0.1165   -4.6543 H   0  0  0  1  0  0  0  0  0  0  0  0
   -0.0283    0.4318   -5.2589 H   0  0  0  1  0  0  0  0  0  0  0  0
   -6.0485    1.3134   -0.9416 F   0  0  0  1  0  0  0  0  0  0  0  0
   -5.0624    1.8688   -1.6718 C   0  0  0  1  0  0  0  0  0  0  0  0
   -5.3150    2.2973   -2.9656 C   0  0  0  1  0  0  0  0  0  0  0  0
   -4.3018    2.8624   -3.7169 C   0  0  0  1  0  0  0  0  0  0  0  0
   -3.0342    3.0054   -3.1745 C   0  0  0  1  0  0  0  0  0  0  0  0
   -2.7821    2.5782   -1.8845 C   0  0  0  1  0  0  0  0  0  0  0  0
   -3.7984    2.0115   -1.1311 C   0  0  0  1  0  0  0  0  0  0  0  0
   -1.4205    2.7027   -1.2425 C   0  0  0  1  0  0  0  0  0  0  0  0
   -4.5461    3.2739   -4.9758 F   0  0  0  1  0  0  0  0  0  0  0  0
   -6.2671    2.1936   -3.3711 H   0  0  0  1  0  0  0  0  0  0  0  0
   -2.2728    3.4343   -3.7384 H   0  0  0  1  0  0  0  0  0  0  0  0
   -3.6098    1.6937   -0.1590 H   0  0  0  1  0  0  0  0  0  0  0  0
   -0.8687    3.4745   -1.7372 H   0  0  0  1  0  0  0  0  0  0  0  0
   -1.5413    2.9557   -0.2099 H   0  0  0  1  0  0  0  0  0  0  0  0
  1  4  1  0  0  0  0
  2  4  1  0  0  0  0
  2  5  2  0  0  0  0
  2  6  1  0  0  0  0
  3  4  1  0  0  0  0
  3  7  1  0  0  0  0
  3  8  1  0  0  0  0
  4 26  1  0  0  0  0
  6  9  1  0  0  0  0
  6 12  1  0  0  0  0
  8 10  1  0  0  0  0
  8 11  2  0  0  0  0
  9 13  1  0  0  0  0
  9 14  1  0  0  0  0
  9 15  1  0  0  0  0
 10 16  1  0  0  0  0
 10 17  1  0  0  0  0
 10 18  1  0  0  0  0
 19 20  1  0  0  0  0
 20 21  4  0  0  0  0
 20 25  4  0  0  0  0
 21 22  4  0  0  0  0
 21 28  1  0  0  0  0
 22 23  4  0  0  0  0
 22 27  1  0  0  0  0
 23 24  4  0  0  0  0
 23 29  1  0  0  0  0
 24 25  4  0  0  0  0
 24 26  1  0  0  0  0
 25 30  1  0  0  0  0
 26 31  1  0  0  0  0
 26 32  1  0  0  0  0
M  END
> <BCLConfClusterSize>
1

> <ConfClashScore>
0 

> <ConfOneFourInteractionScore>
-0.956443 

> <ConfScore>
0.120244 

> <ConfScorePBest>
0.00709334 

> <ConfTolerance>
0.308778 

> <RosettaParamsInstructions>
M  ROOT 3
M  POLY_N_BB 3
M  POLY_CA_BB 4
M  POLY_C_BB 2
M  POLY_O_BB 5
M  POLY_IGNORE 9 10 11 12 13 14 15 16 17 18 
M  POLY_UPPER 6
M  POLY_LOWER 8
M  POLY_CHG 0
M  POLY_PROPERTIES ALPHA_AA D_AA PROTEIN AROMATIC POLYMER 
M  END

$$$$



 32 32  0  0  0  0  0  0  0  0999 V2000
   -0.2655    3.8046    0.1117 H   0  0  0  1  0  0  0  0  0  0  0  0
   -2.1850    3.7901    0.9349 C   0  0  0  1  0  0  0  0  0  0  0  0
   -1.4044    5.1509   -0.9576 N   0  0  0  1  0  0  0  0  0  0  0  0
   -1.2661    3.8563   -0.2639 C   0  0  0  1  0  0  0  0  0  0  0  0
   -1.8523    3.2013    1.9627 O   0  0  0  1  0  0  0  0  0  0  0  0
   -3.3681    4.4095    0.7978 N   0  0  0  1  0  0  0  0  0  0  0  0
   -1.7414    5.1608   -1.8778 H   0  0  0  1  0  0  0  0  0  0  0  0
   -1.0865    6.3085   -0.3760 C   0  0  0  1  0  0  0  0  0  0  0  0
   -4.4442    4.3767    1.7770 C   0  0  0  1  0  0  0  0  0  0  0  0
   -1.2375    7.5817   -1.1855 C   0  0  0  1  0  0  0  0  0  0  0  0
   -0.6773    6.4061    0.7802 O   0  0  0  1  0  0  0  0  0  0  0  0
   -3.5185    4.9223   -0.0236 H   0  0  0  1  0  0  0  0  0  0  0  0
   -4.0332    4.4538    2.7620 H   0  0  0  1  0  0  0  0  0  0  0  0
   -4.9810    3.4556    1.6860 H   0  0  0  1  0  0  0  0  0  0  0  0
   -5.1094    5.1965    1.6032 H   0  0  0  1  0  0  0  0  0  0  0  0
   -1.0520    7.3724   -2.2183 H   0  0  0  1  0  0  0  0  0  0  0  0
   -0.5353    8.3105   -0.8379 H   0  0  0  1  0  0  0  0  0  0  0  0
   -2.2316    7.9608   -1.0716 H   0  0  0  1  0  0  0  0  0  0  0  0
   -6.0480    1.3115   -0.9364 F   0  0  0  1  0  0  0  0  0  0  0  0
   -5.0639    1.8673   -1.6690 C   0  0  0  1  0  0  0  0  0  0  0  0
   -5.3197    2.2948   -2.9625 C   0  0  0  1  0  0  0  0  0  0  0  0
   -4.3086    2.8603   -3.7163 C   0  0  0  1  0  0  0  0  0  0  0  0
   -3.0399    3.0047   -3.1767 C   0  0  0  1  0  0  0  0  0  0  0  0
   -2.7847    2.5785   -1.8870 C   0  0  0  1  0  0  0  0  0  0  0  0
   -3.7989    2.0113   -1.1311 C   0  0  0  1  0  0  0  0  0  0  0  0
   -1.4218    2.7044   -1.2480 C   0  0  0  1  0  0  0  0  0  0  0  0
   -4.5127    3.2841   -4.9783 F   0  0  0  1  0  0  0  0  0  0  0  0
   -6.2725    2.1901   -3.3659 H   0  0  0  1  0  0  0  0  0  0  0  0
   -2.2801    3.4338   -3.7425 H   0  0  0  1  0  0  0  0  0  0  0  0
   -3.6079    1.6943   -0.1592 H   0  0  0  1  0  0  0  0  0  0  0  0
   -1.2170    1.7936   -0.7252 H   0  0  0  1  0  0  0  0  0  0  0  0
   -0.7023    2.8377   -2.0287 H   0  0  0  1  0  0  0  0  0  0  0  0
  1  4  1  0  0  0  0
  2  4  1  0  0  0  0
  2  5  2  0  0  0  0
  2  6  1  0  0  0  0
  3  4  1  0  0  0  0
  3  7  1  0  0  0  0
  3  8  1  0  0  0  0
  4 26  1  0  0  0  0
  6  9  1  0  0  0  0
  6 12  1  0  0  0  0
  8 10  1  0  0  0  0
  8 11  2  0  0  0  0
  9 13  1  0  0  0  0
  9 14  1  0  0  0  0
  9 15  1  0  0  0  0
 10 16  1  0  0  0  0
 10 17  1  0  0  0  0
 10 18  1  0  0  0  0
 19 20  1  0  0  0  0
 20 21  4  0  0  0  0
 20 25  4  0  0  0  0
 21 22  4  0  0  0  0
 21 28  1  0  0  0  0
 22 23  4  0  0  0  0
 22 27  1  0  0  0  0
 23 24  4  0  0  0  0
 23 29  1  0  0  0  0
 24 25  4  0  0  0  0
 24 26  1  0  0  0  0
 25 30  1  0  0  0  0
 26 31  1  0  0  0  0
 26 32  1  0  0  0  0
M  END
> <BCLConfClusterSize>
1

> <ConfClashScore>
0 

> <ConfOneFourInteractionScore>
-0.950605 

> <ConfScore>
0.123009 

> <ConfScorePBest>
0.00706485 

> <ConfTolerance>
0.257101 

> <RosettaParamsInstructions>
M  ROOT 3
M  POLY_N_BB 3
M  POLY_CA_BB 4
M  POLY_C_BB 2
M  POLY_O_BB 5
M  POLY_IGNORE 9 10 11 12 13 14 15 16 17 18 
M  POLY_UPPER 6
M  POLY_LOWER 8
M  POLY_CHG 0
M  POLY_PROPERTIES ALPHA_AA D_AA PROTEIN AROMATIC POLYMER 
M  END

$$$$



 32 32  0  0  0  0  0  0  0  0999 V2000
    0.1868    1.5875   -0.5098 H   0  0  0  1  0  0  0  0  0  0  0  0
   -0.8728    0.2988   -1.7849 C   0  0  0  1  0  0  0  0  0  0  0  0
   -1.4975    0.9721    0.4977 N   0  0  0  1  0  0  0  0  0  0  0  0
   -0.8431    1.4101   -0.7393 C   0  0  0  1  0  0  0  0  0  0  0  0
   -0.9932   -0.8734   -1.4688 O   0  0  0  1  0  0  0  0  0  0  0  0
   -0.7564    0.7389   -3.0387 N   0  0  0  1  0  0  0  0  0  0  0  0
   -2.2544    1.4910    0.8417 H   0  0  0  1  0  0  0  0  0  0  0  0
   -1.0851   -0.1440    1.1935 C   0  0  0  1  0  0  0  0  0  0  0  0
   -0.7465   -0.1086   -4.2217 C   0  0  0  1  0  0  0  0  0  0  0  0
   -1.7746   -0.3927    2.5032 C   0  0  0  1  0  0  0  0  0  0  0  0
   -0.2118   -0.8583    0.7384 O   0  0  0  1  0  0  0  0  0  0  0  0
   -0.6711    1.7059   -3.1733 H   0  0  0  1  0  0  0  0  0  0  0  0
   -1.1914    0.4165   -5.0409 H   0  0  0  1  0  0  0  0  0  0  0  0
   -1.3035   -1.0009   -4.0255 H   0  0  0  1  0  0  0  0  0  0  0  0
    0.2628   -0.3645   -4.4683 H   0  0  0  1  0  0  0  0  0  0  0  0
   -2.6515   -0.9834    2.3387 H   0  0  0  1  0  0  0  0  0  0  0  0
   -2.0522    0.5424    2.9430 H   0  0  0  1  0  0  0  0  0  0  0  0
   -1.1118   -0.9143    3.1615 H   0  0  0  1  0  0  0  0  0  0  0  0
   -6.0566    1.3143   -0.9498 F   0  0  0  1  0  0  0  0  0  0  0  0
   -5.0656    1.8687   -1.6740 C   0  0  0  1  0  0  0  0  0  0  0  0
   -5.3106    2.2996   -2.9685 C   0  0  0  1  0  0  0  0  0  0  0  0
   -4.2924    2.8637   -3.7136 C   0  0  0  1  0  0  0  0  0  0  0  0
   -3.0273    3.0035   -3.1645 C   0  0  0  1  0  0  0  0  0  0  0  0
   -2.7828    2.5739   -1.8737 C   0  0  0  1  0  0  0  0  0  0  0  0
   -3.8042    2.0081   -1.1265 C   0  0  0  1  0  0  0  0  0  0  0  0
   -1.4031    2.7206   -1.2768 C   0  0  0  1  0  0  0  0  0  0  0  0
   -4.5723    3.2640   -4.9688 F   0  0  0  1  0  0  0  0  0  0  0  0
   -6.2607    2.1984   -3.3791 H   0  0  0  1  0  0  0  0  0  0  0  0
   -2.2621    3.4316   -3.7237 H   0  0  0  1  0  0  0  0  0  0  0  0
   -3.6213    1.6886   -0.1539 H   0  0  0  1  0  0  0  0  0  0  0  0
   -0.7420    3.0886   -2.0334 H   0  0  0  1  0  0  0  0  0  0  0  0
   -1.4530    3.4249   -0.4728 H   0  0  0  1  0  0  0  0  0  0  0  0
  1  4  1  0  0  0  0
  2  4  1  0  0  0  0
  2  5  2  0  0  0  0
  2  6  1  0  0  0  0
  3  4  1  0  0  0  0
  3  7  1  0  0  0  0
  3  8  1  0  0  0  0
  4 26  1  0  0  0  0
  6  9  1  0  0  0  0
  6 12  1  0  0  0  0
  8 10  1  0  0  0  0
  8 11  2  0  0  0  0
  9 13  1  0  0  0  0
  9 14  1  0  0  0  0
  9 15  1  0  0  0  0
 10 16  1  0  0  0  0
 10 17  1  0  0  0  0
 10 18  1  0  0  0  0
 19 20  1  0  0  0  0
 20 21  4  0  0  0  0
 20 25  4  0  0  0  0
 21 22  4  0  0  0  0
 21 28  1  0  0  0  0
 22 23  4  0  0  0  0
 22 27  1  0  0  0  0
 23 24  4  0  0  0  0
 23 29  1  0  0  0  0
 24 25  4  0  0  0  0
 24 26  1  0  0  0  0
 25 30  1  0  0  0  0
 26 31  1  0  0  0  0
 26 32  1  0  0  0  0
M  END
> <BCLConfClusterSize>
1

> <ConfClashScore>
0 

> <ConfOneFourInteractionScore>
-0.955611 

> <ConfScore>
0.123181 

> <ConfScorePBest>
0.00703637 

> <ConfTolerance>
0.511298 

> <RosettaParamsInstructions>
M  ROOT 3
M  POLY_N_BB 3
M  POLY_CA_BB 4
M  POLY_C_BB 2
M  POLY_O_BB 5
M  POLY_IGNORE 9 10 11 12 13 14 15 16 17 18 
M  POLY_UPPER 6
M  POLY_LOWER 8
M  POLY_CHG 0
M  POLY_PROPERTIES ALPHA_AA D_AA PROTEIN AROMATIC POLYMER 
M  END

$$$$



 32 32  0  0  0  0  0  0  0  0999 V2000
   -1.3210    0.9268   -0.2139 H   0  0  0  1  0  0  0  0  0  0  0  0
    0.6555    1.6094   -0.3010 C   0  0  0  1  0  0  0  0  0  0  0  0
   -0.6723    0.5686   -2.1335 N   0  0  0  1  0  0  0  0  0  0  0  0
   -0.7070    1.4195   -0.9386 C   0  0  0  1  0  0  0  0  0  0  0  0
    1.4895    0.7049   -0.2955 O   0  0  0  1  0  0  0  0  0  0  0  0
    0.8792    2.8085    0.2441 N   0  0  0  1  0  0  0  0  0  0  0  0
   -1.3190   -0.1636   -2.2117 H   0  0  0  1  0  0  0  0  0  0  0  0
    0.2191    0.7591   -3.1282 C   0  0  0  1  0  0  0  0  0  0  0  0
    2.1376    3.1449    0.8932 C   0  0  0  1  0  0  0  0  0  0  0  0
    0.1548   -0.1612   -4.3262 C   0  0  0  1  0  0  0  0  0  0  0  0
    1.0604    1.6545   -3.0649 O   0  0  0  1  0  0  0  0  0  0  0  0
    0.1714    3.4851    0.2054 H   0  0  0  1  0  0  0  0  0  0  0  0
    2.9403    2.6362    0.4015 H   0  0  0  1  0  0  0  0  0  0  0  0
    2.1007    2.8443    1.9195 H   0  0  0  1  0  0  0  0  0  0  0  0
    2.2969    4.2014    0.8359 H   0  0  0  1  0  0  0  0  0  0  0  0
    1.1317   -0.2641   -4.7504 H   0  0  0  1  0  0  0  0  0  0  0  0
   -0.5095    0.2508   -5.0568 H   0  0  0  1  0  0  0  0  0  0  0  0
   -0.2034   -1.1216   -4.0190 H   0  0  0  1  0  0  0  0  0  0  0  0
   -6.0330    1.3066   -0.9127 F   0  0  0  1  0  0  0  0  0  0  0  0
   -5.0731    1.8665   -1.6737 C   0  0  0  1  0  0  0  0  0  0  0  0
   -5.3213    2.2965   -2.9679 C   0  0  0  1  0  0  0  0  0  0  0  0
   -4.3051    2.8609   -3.7156 C   0  0  0  1  0  0  0  0  0  0  0  0
   -3.0390    3.0020   -3.1692 C   0  0  0  1  0  0  0  0  0  0  0  0
   -2.7914    2.5734   -1.8787 C   0  0  0  1  0  0  0  0  0  0  0  0
   -3.8107    2.0073   -1.1290 C   0  0  0  1  0  0  0  0  0  0  0  0
   -1.4105    2.7216   -1.2848 C   0  0  0  1  0  0  0  0  0  0  0  0
   -4.5017    3.2870   -4.9780 F   0  0  0  1  0  0  0  0  0  0  0  0
   -6.2722    2.1943   -3.3764 H   0  0  0  1  0  0  0  0  0  0  0  0
   -2.2754    3.4305   -3.7303 H   0  0  0  1  0  0  0  0  0  0  0  0
   -3.6254    1.6884   -0.1566 H   0  0  0  1  0  0  0  0  0  0  0  0
   -0.8023    3.2477   -1.9907 H   0  0  0  1  0  0  0  0  0  0  0  0
   -1.4971    3.2986   -0.3879 H   0  0  0  1  0  0  0  0  0  0  0  0
  1  4  1  0  0  0  0
  2  4  1  0  0  0  0
  2  5  2  0  0  0  0
  2  6  1  0  0  0  0
  3  4  1  0  0  0  0
  3  7  1  0  0  0  0
  3  8  1  0  0  0  0
  4 26  1  0  0  0  0
  6  9  1  0  0  0  0
  6 12  1  0  0  0  0
  8 10  1  0  0  0  0
  8 11  2  0  0  0  0
  9 13  1  0  0  0  0
  9 14  1  0  0  0  0
  9 15  1  0  0  0  0
 10 16  1  0  0  0  0
 10 17  1  0  0  0  0
 10 18  1  0  0  0  0
 19 20  1  0  0  0  0
 20 21  4  0  0  0  0
 20 25  4  0  0  0  0
 21 22  4  0  0  0  0
 21 28  1  0  0  0  0
 22 23  4  0  0  0  0
 22 27  1  0  0  0  0
 23 24  4  0  0  0  0
 23 29  1  0  0  0  0
 24 25  4  0  0  0  0
 24 26  1  0  0  0  0
 25 30  1  0  0  0  0
 26 31  1  0  0  0  0
 26 32  1  0  0  0  0
M  END
> <BCLConfClusterSize>
1

> <ConfClashScore>
0 

> <ConfOneFourInteractionScore>
-0.927621 

> <ConfScore>
0.126539 

> <ConfScorePBest>
0.00700789 

> <ConfTolerance>
0.365412 

> <RosettaParamsInstructions>
M  ROOT 3
M  POLY_N_BB 3
M  POLY_CA_BB 4
M  POLY_C_BB 2
M  POLY_O_BB 5
M  POLY_IGNORE 9 10 11 12 13 14 15 16 17 18 
M  POLY_UPPER 6
M  POLY_LOWER 8
M  POLY_CHG 0
M  POLY_PROPERTIES ALPHA_AA D_AA PROTEIN AROMATIC POLYMER 
M  END

$$$$



 32 32  0  0  0  0  0  0  0  0999 V2000
    0.2880    1.5836   -0.7299 H   0  0  0  1  0  0  0  0  0  0  0  0
   -0.1624    0.9879   -2.6951 C   0  0  0  1  0  0  0  0  0  0  0  0
   -1.3613    0.3354   -0.6779 N   0  0  0  1  0  0  0  0  0  0  0  0
   -0.5972    1.4210   -1.3086 C   0  0  0  1  0  0  0  0  0  0  0  0
    0.9189    1.3437   -3.1561 O   0  0  0  1  0  0  0  0  0  0  0  0
   -0.9897    0.2092   -3.3982 N   0  0  0  1  0  0  0  0  0  0  0  0
   -2.2671    0.5211   -0.3533 H   0  0  0  1  0  0  0  0  0  0  0  0
   -0.8638   -0.8960   -0.5317 C   0  0  0  1  0  0  0  0  0  0  0  0
   -0.6119   -0.3698   -4.6788 C   0  0  0  1  0  0  0  0  0  0  0  0
   -1.8248   -1.9039    0.1114 C   0  0  0  1  0  0  0  0  0  0  0  0
    0.2395   -1.2556   -0.9404 O   0  0  0  1  0  0  0  0  0  0  0  0
   -1.8820    0.0214   -3.0390 H   0  0  0  1  0  0  0  0  0  0  0  0
    0.4382   -0.5752   -4.6820 H   0  0  0  1  0  0  0  0  0  0  0  0
   -0.8427    0.3198   -5.4637 H   0  0  0  1  0  0  0  0  0  0  0  0
   -1.1536   -1.2798   -4.8321 H   0  0  0  1  0  0  0  0  0  0  0  0
   -2.4076   -2.3779   -0.6505 H   0  0  0  1  0  0  0  0  0  0  0  0
   -2.4743   -1.3933    0.7912 H   0  0  0  1  0  0  0  0  0  0  0  0
   -1.2626   -2.6437    0.6420 H   0  0  0  1  0  0  0  0  0  0  0  0
   -6.0561    1.3124   -0.9444 F   0  0  0  1  0  0  0  0  0  0  0  0
   -5.0671    1.8672   -1.6711 C   0  0  0  1  0  0  0  0  0  0  0  0
   -5.3152    2.2971   -2.9653 C   0  0  0  1  0  0  0  0  0  0  0  0
   -4.2991    2.8616   -3.7130 C   0  0  0  1  0  0  0  0  0  0  0  0
   -3.0330    3.0027   -3.1666 C   0  0  0  1  0  0  0  0  0  0  0  0
   -2.7853    2.5741   -1.8761 C   0  0  0  1  0  0  0  0  0  0  0  0
   -3.8046    2.0080   -1.1264 C   0  0  0  1  0  0  0  0  0  0  0  0
   -1.4045    2.7223   -1.2822 C   0  0  0  1  0  0  0  0  0  0  0  0
   -4.5390    3.2745   -4.9723 F   0  0  0  1  0  0  0  0  0  0  0  0
   -6.2661    2.1949   -3.3738 H   0  0  0  1  0  0  0  0  0  0  0  0
   -2.2693    3.4311   -3.7277 H   0  0  0  1  0  0  0  0  0  0  0  0
   -3.6194    1.6891   -0.1540 H   0  0  0  1  0  0  0  0  0  0  0  0
   -0.8720    3.4647   -1.8393 H   0  0  0  1  0  0  0  0  0  0  0  0
   -1.5033    3.0412   -0.2657 H   0  0  0  1  0  0  0  0  0  0  0  0
  1  4  1  0  0  0  0
  2  4  1  0  0  0  0
  2  5  2  0  0  0  0
  2  6  1  0  0  0  0
  3  4  1  0  0  0  0
  3  7  1  0  0  0  0
  3  8  1  0  0  0  0
  4 26  1  0  0  0  0
  6  9  1  0  0  0  0
  6 12  1  0  0  0  0
  8 10  1  0  0  0  0
  8 11  2  0  0  0  0
  9 13  1  0  0  0  0
  9 14  1  0  0  0  0
  9 15  1  0  0  0  0
 10 16  1  0  0  0  0
 10 17  1  0  0  0  0
 10 18  1  0  0  0  0
 19 20  1  0  0  0  0
 20 21  4  0  0  0  0
 20 25  4  0  0  0  0
 21 22  4  0  0  0  0
 21 28  1  0  0  0  0
 22 23  4  0  0  0  0
 22 27  1  0  0  0  0
 23 24  4  0  0  0  0
 23 29  1  0  0  0  0
 24 25  4  0  0  0  0
 24 26  1  0  0  0  0
 25 30  1  0  0  0  0
 26 31  1  0  0  0  0
 26 32  1  0  0  0  0
M  END
> <BCLConfClusterSize>
1

> <ConfClashScore>
0 

> <ConfOneFourInteractionScore>
-0.950605 

> <ConfScore>
0.139035 

> <ConfScorePBest>
0.00697941 

> <ConfTolerance>
0.276201 

> <RosettaParamsInstructions>
M  ROOT 3
M  POLY_N_BB 3
M  POLY_CA_BB 4
M  POLY_C_BB 2
M  POLY_O_BB 5
M  POLY_IGNORE 9 10 11 12 13 14 15 16 17 18 
M  POLY_UPPER 6
M  POLY_LOWER 8
M  POLY_CHG 0
M  POLY_PROPERTIES ALPHA_AA D_AA PROTEIN AROMATIC POLYMER 
M  END

$$$$



 32 32  0  0  0  0  0  0  0  0999 V2000
    0.3760    1.6593   -0.9813 H   0  0  0  1  0  0  0  0  0  0  0  0
   -0.5659    0.7469   -2.6213 C   0  0  0  1  0  0  0  0  0  0  0  0
   -1.1306    0.4700   -0.2430 N   0  0  0  1  0  0  0  0  0  0  0  0
   -0.6299    1.4115   -1.2490 C   0  0  0  1  0  0  0  0  0  0  0  0
    0.1213    1.2084   -3.5287 O   0  0  0  1  0  0  0  0  0  0  0  0
   -1.3155   -0.3547   -2.7200 N   0  0  0  1  0  0  0  0  0  0  0  0
   -1.8921    0.7730    0.2944 H   0  0  0  1  0  0  0  0  0  0  0  0
   -0.6668   -0.7541    0.0244 C   0  0  0  1  0  0  0  0  0  0  0  0
   -1.3392   -1.1737   -3.9227 C   0  0  0  1  0  0  0  0  0  0  0  0
   -1.3052   -1.4566    1.2068 C   0  0  0  1  0  0  0  0  0  0  0  0
    0.2208   -1.2930   -0.6354 O   0  0  0  1  0  0  0  0  0  0  0  0
   -1.8686   -0.6203   -1.9559 H   0  0  0  1  0  0  0  0  0  0  0  0
   -1.3963   -0.5417   -4.7842 H   0  0  0  1  0  0  0  0  0  0  0  0
   -2.1919   -1.8196   -3.8973 H   0  0  0  1  0  0  0  0  0  0  0  0
   -0.4468   -1.7621   -3.9708 H   0  0  0  1  0  0  0  0  0  0  0  0
   -0.8037   -2.3851    1.3839 H   0  0  0  1  0  0  0  0  0  0  0  0
   -2.3373   -1.6436    0.9956 H   0  0  0  1  0  0  0  0  0  0  0  0
   -1.2249   -0.8369    2.0754 H   0  0  0  1  0  0  0  0  0  0  0  0
   -6.0335    1.3084   -0.9179 F   0  0  0  1  0  0  0  0  0  0  0  0
   -5.0716    1.8680   -1.6765 C   0  0  0  1  0  0  0  0  0  0  0  0
   -5.3166    2.2989   -2.9710 C   0  0  0  1  0  0  0  0  0  0  0  0
   -4.2984    2.8630   -3.7161 C   0  0  0  1  0  0  0  0  0  0  0  0
   -3.0333    3.0028   -3.1670 C   0  0  0  1  0  0  0  0  0  0  0  0
   -2.7888    2.5732   -1.8762 C   0  0  0  1  0  0  0  0  0  0  0  0
   -3.8102    2.0074   -1.1290 C   0  0  0  1  0  0  0  0  0  0  0  0
   -1.4091    2.7199   -1.2793 C   0  0  0  1  0  0  0  0  0  0  0  0
   -4.5352    3.2769   -4.9757 F   0  0  0  1  0  0  0  0  0  0  0  0
   -6.2667    2.1977   -3.3816 H   0  0  0  1  0  0  0  0  0  0  0  0
   -2.2681    3.4309   -3.7262 H   0  0  0  1  0  0  0  0  0  0  0  0
   -3.6273    1.6879   -0.1564 H   0  0  0  1  0  0  0  0  0  0  0  0
   -0.8598    3.4299   -1.8616 H   0  0  0  1  0  0  0  0  0  0  0  0
   -1.5083    3.0805   -0.2768 H   0  0  0  1  0  0  0  0  0  0  0  0
  1  4  1  0  0  0  0
  2  4  1  0  0  0  0
  2  5  2  0  0  0  0
  2  6  1  0  0  0  0
  3  4  1  0  0  0  0
  3  7  1  0  0  0  0
  3  8  1  0  0  0  0
  4 26  1  0  0  0  0
  6  9  1  0  0  0  0
  6 12  1  0  0  0  0
  8 10  1  0  0  0  0
  8 11  2  0  0  0  0
  9 13  1  0  0  0  0
  9 14  1  0  0  0  0
  9 15  1  0  0  0  0
 10 16  1  0  0  0  0
 10 17  1  0  0  0  0
 10 18  1  0  0  0  0
 19 20  1  0  0  0  0
 20 21  4  0  0  0  0
 20 25  4  0  0  0  0
 21 22  4  0  0  0  0
 21 28  1  0  0  0  0
 22 23  4  0  0  0  0
 22 27  1  0  0  0  0
 23 24  4  0  0  0  0
 23 29  1  0  0  0  0
 24 25  4  0  0  0  0
 24 26  1  0  0  0  0
 25 30  1  0  0  0  0
 26 31  1  0  0  0  0
 26 32  1  0  0  0  0
M  END
> <BCLConfClusterSize>
1

> <ConfClashScore>
0 

> <ConfOneFourInteractionScore>
-0.938406 

> <ConfScore>
0.145348 

> <ConfScorePBest>
0.00695093 

> <ConfTolerance>
0.213704 

> <RosettaParamsInstructions>
M  ROOT 3
M  POLY_N_BB 3
M  POLY_CA_BB 4
M  POLY_C_BB 2
M  POLY_O_BB 5
M  POLY_IGNORE 9 10 11 12 13 14 15 16 17 18 
M  POLY_UPPER 6
M  POLY_LOWER 8
M  POLY_CHG 0
M  POLY_PROPERTIES ALPHA_AA D_AA PROTEIN AROMATIC POLYMER 
M  END

$$$$



 32 32  0  0  0  0  0  0  0  0999 V2000
    0.5429    1.9363   -1.2919 H   0  0  0  1  0  0  0  0  0  0  0  0
    0.0286    2.2515   -3.3012 C   0  0  0  1  0  0  0  0  0  0  0  0
   -0.7810    0.4440   -1.7821 N   0  0  0  1  0  0  0  0  0  0  0  0
   -0.3357    1.8251   -1.8924 C   0  0  0  1  0  0  0  0  0  0  0  0
    0.8655    3.1296   -3.5062 O   0  0  0  1  0  0  0  0  0  0  0  0
   -0.6143    1.6155   -4.2847 N   0  0  0  1  0  0  0  0  0  0  0  0
   -1.0229   -0.0416   -2.5983 H   0  0  0  1  0  0  0  0  0  0  0  0
   -0.8715   -0.1850   -0.6068 C   0  0  0  1  0  0  0  0  0  0  0  0
   -0.3374    1.9489   -5.6740 C   0  0  0  1  0  0  0  0  0  0  0  0
   -1.4616   -1.5811   -0.6506 C   0  0  0  1  0  0  0  0  0  0  0  0
   -0.5044    0.3205    0.4540 O   0  0  0  1  0  0  0  0  0  0  0  0
   -1.2736    0.9230   -4.0701 H   0  0  0  1  0  0  0  0  0  0  0  0
   -0.1329    2.9959   -5.7561 H   0  0  0  1  0  0  0  0  0  0  0  0
   -1.1875    1.7035   -6.2756 H   0  0  0  1  0  0  0  0  0  0  0  0
    0.5118    1.3923   -6.0116 H   0  0  0  1  0  0  0  0  0  0  0  0
   -2.5071   -1.5202   -0.8701 H   0  0  0  1  0  0  0  0  0  0  0  0
   -1.3237   -2.0562    0.2982 H   0  0  0  1  0  0  0  0  0  0  0  0
   -0.9705   -2.1520   -1.4107 H   0  0  0  1  0  0  0  0  0  0  0  0
   -6.0774    1.3149   -0.9663 F   0  0  0  1  0  0  0  0  0  0  0  0
   -5.0642    1.8648   -1.6628 C   0  0  0  1  0  0  0  0  0  0  0  0
   -5.3186    2.2928   -2.9565 C   0  0  0  1  0  0  0  0  0  0  0  0
   -4.3066    2.8581   -3.7091 C   0  0  0  1  0  0  0  0  0  0  0  0
   -3.0384    3.0019   -3.1683 C   0  0  0  1  0  0  0  0  0  0  0  0
   -2.7845    2.5752   -1.8784 C   0  0  0  1  0  0  0  0  0  0  0  0
   -3.7997    2.0083   -1.1237 C   0  0  0  1  0  0  0  0  0  0  0  0
   -1.4014    2.7264   -1.2907 C   0  0  0  1  0  0  0  0  0  0  0  0
   -4.5093    3.2823   -4.9713 F   0  0  0  1  0  0  0  0  0  0  0  0
   -6.2711    2.1885   -3.3608 H   0  0  0  1  0  0  0  0  0  0  0  0
   -2.2779    3.4309   -3.7333 H   0  0  0  1  0  0  0  0  0  0  0  0
   -3.6098    1.6909   -0.1517 H   0  0  0  1  0  0  0  0  0  0  0  0
   -1.0925    3.7413   -1.4302 H   0  0  0  1  0  0  0  0  0  0  0  0
   -1.4623    2.5122   -0.2441 H   0  0  0  1  0  0  0  0  0  0  0  0
  1  4  1  0  0  0  0
  2  4  1  0  0  0  0
  2  5  2  0  0  0  0
  2  6  1  0  0  0  0
  3  4  1  0  0  0  0
  3  7  1  0  0  0  0
  3  8  1  0  0  0  0
  4 26  1  0  0  0  0
  6  9  1  0  0  0  0
  6 12  1  0  0  0  0
  8 10  1  0  0  0  0
  8 11  2  0  0  0  0
  9 13  1  0  0  0  0
  9 14  1  0  0  0  0
  9 15  1  0  0  0  0
 10 16  1  0  0  0  0
 10 17  1  0  0  0  0
 10 18  1  0  0  0  0
 19 20  1  0  0  0  0
 20 21  4  0  0  0  0
 20 25  4  0  0  0  0
 21 22  4  0  0  0  0
 21 28  1  0  0  0  0
 22 23  4  0  0  0  0
 22 27  1  0  0  0  0
 23 24  4  0  0  0  0
 23 29  1  0  0  0  0
 24 25  4  0  0  0  0
 24 26  1  0  0  0  0
 25 30  1  0  0  0  0
 26 31  1  0  0  0  0
 26 32  1  0  0  0  0
M  END
> <BCLConfClusterSize>
1

> <ConfClashScore>
0 

> <ConfOneFourInteractionScore>
-0.952634 

> <ConfScore>
0.151577 

> <ConfScorePBest>
0.00692245 

> <ConfTolerance>
0.381095 

> <RosettaParamsInstructions>
M  ROOT 3
M  POLY_N_BB 3
M  POLY_CA_BB 4
M  POLY_C_BB 2
M  POLY_O_BB 5
M  POLY_IGNORE 9 10 11 12 13 14 15 16 17 18 
M  POLY_UPPER 6
M  POLY_LOWER 8
M  POLY_CHG 0
M  POLY_PROPERTIES ALPHA_AA D_AA PROTEIN AROMATIC POLYMER 
M  END

$$$$



 32 32  0  0  0  0  0  0  0  0999 V2000
    0.4750    1.7980   -1.0617 H   0  0  0  1  0  0  0  0  0  0  0  0
   -0.2152    1.4233   -3.0152 C   0  0  0  1  0  0  0  0  0  0  0  0
   -0.9974    0.3678   -0.8758 N   0  0  0  1  0  0  0  0  0  0  0  0
   -0.4593    1.5549   -1.5232 C   0  0  0  1  0  0  0  0  0  0  0  0
    0.2876    2.3799   -3.6032 O   0  0  0  1  0  0  0  0  0  0  0  0
   -0.5581    0.2782   -3.6120 N   0  0  0  1  0  0  0  0  0  0  0  0
   -1.8466    0.4370   -0.3916 H   0  0  0  1  0  0  0  0  0  0  0  0
   -0.3748   -0.8111   -0.9185 C   0  0  0  1  0  0  0  0  0  0  0  0
   -0.3102    0.0924   -5.0339 C   0  0  0  1  0  0  0  0  0  0  0  0
   -1.0587   -1.9420   -0.1841 C   0  0  0  1  0  0  0  0  0  0  0  0
    0.6884   -0.9862   -1.5123 O   0  0  0  1  0  0  0  0  0  0  0  0
   -0.9774   -0.4382   -3.0910 H   0  0  0  1  0  0  0  0  0  0  0  0
    0.1534    0.9701   -5.4333 H   0  0  0  1  0  0  0  0  0  0  0  0
   -1.2380   -0.0813   -5.5377 H   0  0  0  1  0  0  0  0  0  0  0  0
    0.3363   -0.7483   -5.1761 H   0  0  0  1  0  0  0  0  0  0  0  0
   -0.9810   -1.7814    0.8709 H   0  0  0  1  0  0  0  0  0  0  0  0
   -0.5884   -2.8686   -0.4392 H   0  0  0  1  0  0  0  0  0  0  0  0
   -2.0908   -1.9763   -0.4643 H   0  0  0  1  0  0  0  0  0  0  0  0
   -6.0566    1.3143   -0.9498 F   0  0  0  1  0  0  0  0  0  0  0  0
   -5.0656    1.8687   -1.6740 C   0  0  0  1  0  0  0  0  0  0  0  0
   -5.3106    2.2996   -2.9685 C   0  0  0  1  0  0  0  0  0  0  0  0
   -4.2924    2.8637   -3.7136 C   0  0  0  1  0  0  0  0  0  0  0  0
   -3.0273    3.0035   -3.1645 C   0  0  0  1  0  0  0  0  0  0  0  0
   -2.7828    2.5739   -1.8737 C   0  0  0  1  0  0  0  0  0  0  0  0
   -3.8042    2.0081   -1.1265 C   0  0  0  1  0  0  0  0  0  0  0  0
   -1.4031    2.7206   -1.2768 C   0  0  0  1  0  0  0  0  0  0  0  0
   -4.5723    3.2640   -4.9688 F   0  0  0  1  0  0  0  0  0  0  0  0
   -6.2607    2.1984   -3.3791 H   0  0  0  1  0  0  0  0  0  0  0  0
   -2.2621    3.4316   -3.7237 H   0  0  0  1  0  0  0  0  0  0  0  0
   -3.6213    1.6886   -0.1539 H   0  0  0  1  0  0  0  0  0  0  0  0
   -0.9562    3.6003   -1.6907 H   0  0  0  1  0  0  0  0  0  0  0  0
   -1.5120    2.8392   -0.2190 H   0  0  0  1  0  0  0  0  0  0  0  0
  1  4  1  0  0  0  0
  2  4  1  0  0  0  0
  2  5  2  0  0  0  0
  2  6  1  0  0  0  0
  3  4  1  0  0  0  0
  3  7  1  0  0  0  0
  3  8  1  0  0  0  0
  4 26  1  0  0  0  0
  6  9  1  0  0  0  0
  6 12  1  0  0  0  0
  8 10  1  0  0  0  0
  8 11  2  0  0  0  0
  9 13  1  0  0  0  0
  9 14  1  0  0  0  0
  9 15  1  0  0  0  0
 10 16  1  0  0  0  0
 10 17  1  0  0  0  0
 10 18  1  0  0  0  0
 19 20  1  0  0  0  0
 20 21  4  0  0  0  0
 20 25  4  0  0  0  0
 21 22  4  0  0  0  0
 21 28  1  0  0  0  0
 22 23  4  0  0  0  0
 22 27  1  0  0  0  0
 23 24  4  0  0  0  0
 23 29  1  0  0  0  0
 24 25  4  0  0  0  0
 24 26  1  0  0  0  0
 25 30  1  0  0  0  0
 26 31  1  0  0  0  0
 26 32  1  0  0  0  0
M  END
> <BCLConfClusterSize>
1

> <ConfClashScore>
0 

> <ConfOneFourInteractionScore>
-0.950605 

> <ConfScore>
0.152691 

> <ConfScorePBest>
0.00689397 

> <ConfTolerance>
0.196179 

> <RosettaParamsInstructions>
M  ROOT 3
M  POLY_N_BB 3
M  POLY_CA_BB 4
M  POLY_C_BB 2
M  POLY_O_BB 5
M  POLY_IGNORE 9 10 11 12 13 14 15 16 17 18 
M  POLY_UPPER 6
M  POLY_LOWER 8
M  POLY_CHG 0
M  POLY_PROPERTIES ALPHA_AA D_AA PROTEIN AROMATIC POLYMER 
M  END

$$$$



 32 32  0  0  0  0  0  0  0  0999 V2000
   -1.8343    4.7803   -1.1658 H   0  0  0  1  0  0  0  0  0  0  0  0
   -0.1556    4.5301   -2.4173 C   0  0  0  1  0  0  0  0  0  0  0  0
   -0.2514    4.3563    0.0966 N   0  0  0  1  0  0  0  0  0  0  0  0
   -0.9554    4.1701   -1.1745 C   0  0  0  1  0  0  0  0  0  0  0  0
   -0.3298    3.8554   -3.4286 O   0  0  0  1  0  0  0  0  0  0  0  0
    0.6903    5.5556   -2.3452 N   0  0  0  1  0  0  0  0  0  0  0  0
    0.0006    3.5403    0.5771 H   0  0  0  1  0  0  0  0  0  0  0  0
    0.0895    5.5237    0.6808 C   0  0  0  1  0  0  0  0  0  0  0  0
    1.6061    5.8855   -3.4270 C   0  0  0  1  0  0  0  0  0  0  0  0
    0.9124    5.4705    1.9532 C   0  0  0  1  0  0  0  0  0  0  0  0
   -0.2560    6.6010    0.1974 O   0  0  0  1  0  0  0  0  0  0  0  0
    0.6964    6.1075   -1.5354 H   0  0  0  1  0  0  0  0  0  0  0  0
    1.2349    5.4804   -4.3452 H   0  0  0  1  0  0  0  0  0  0  0  0
    2.5695    5.4696   -3.2177 H   0  0  0  1  0  0  0  0  0  0  0  0
    1.6872    6.9489   -3.5136 H   0  0  0  1  0  0  0  0  0  0  0  0
    0.5216    6.1714    2.6610 H   0  0  0  1  0  0  0  0  0  0  0  0
    1.9293    5.7181    1.7306 H   0  0  0  1  0  0  0  0  0  0  0  0
    0.8671    4.4843    2.3660 H   0  0  0  1  0  0  0  0  0  0  0  0
   -6.0335    1.3084   -0.9179 F   0  0  0  1  0  0  0  0  0  0  0  0
   -5.0716    1.8680   -1.6765 C   0  0  0  1  0  0  0  0  0  0  0  0
   -5.3166    2.2989   -2.9710 C   0  0  0  1  0  0  0  0  0  0  0  0
   -4.2984    2.8630   -3.7161 C   0  0  0  1  0  0  0  0  0  0  0  0
   -3.0333    3.0028   -3.1670 C   0  0  0  1  0  0  0  0  0  0  0  0
   -2.7888    2.5732   -1.8762 C   0  0  0  1  0  0  0  0  0  0  0  0
   -3.8102    2.0074   -1.1290 C   0  0  0  1  0  0  0  0  0  0  0  0
   -1.4091    2.7199   -1.2793 C   0  0  0  1  0  0  0  0  0  0  0  0
   -4.5352    3.2769   -4.9757 F   0  0  0  1  0  0  0  0  0  0  0  0
   -6.2667    2.1977   -3.3816 H   0  0  0  1  0  0  0  0  0  0  0  0
   -2.2681    3.4309   -3.7262 H   0  0  0  1  0  0  0  0  0  0  0  0
   -3.6273    1.6879   -0.1564 H   0  0  0  1  0  0  0  0  0  0  0  0
   -1.4154    2.2933   -0.2981 H   0  0  0  1  0  0  0  0  0  0  0  0
   -0.7134    2.1891   -1.8951 H   0  0  0  1  0  0  0  0  0  0  0  0
  1  4  1  0  0  0  0
  2  4  1  0  0  0  0
  2  5  2  0  0  0  0
  2  6  1  0  0  0  0
  3  4  1  0  0  0  0
  3  7  1  0  0  0  0
  3  8  1  0  0  0  0
  4 26  1  0  0  0  0
  6  9  1  0  0  0  0
  6 12  1  0  0  0  0
  8 10  1  0  0  0  0
  8 11  2  0  0  0  0
  9 13  1  0  0  0  0
  9 14  1  0  0  0  0
  9 15  1  0  0  0  0
 10 16  1  0  0  0  0
 10 17  1  0  0  0  0
 10 18  1  0  0  0  0
 19 20  1  0  0  0  0
 20 21  4  0  0  0  0
 20 25  4  0  0  0  0
 21 22  4  0  0  0  0
 21 28  1  0  0  0  0
 22 23  4  0  0  0  0
 22 27  1  0  0  0  0
 23 24  4  0  0  0  0
 23 29  1  0  0  0  0
 24 25  4  0  0  0  0
 24 26  1  0  0  0  0
 25 30  1  0  0  0  0
 26 31  1  0  0  0  0
 26 32  1  0  0  0  0
M  END
> <BCLConfClusterSize>
1

> <ConfClashScore>
0 

> <ConfOneFourInteractionScore>
-0.948475 

> <ConfScore>
0.154801 

> <ConfScorePBest>
0.00686549 

> <ConfTolerance>
0.57421 

> <RosettaParamsInstructions>
M  ROOT 3
M  POLY_N_BB 3
M  POLY_CA_BB 4
M  POLY_C_BB 2
M  POLY_O_BB 5
M  POLY_IGNORE 9 10 11 12 13 14 15 16 17 18 
M  POLY_UPPER 6
M  POLY_LOWER 8
M  POLY_CHG 0
M  POLY_PROPERTIES ALPHA_AA D_AA PROTEIN AROMATIC POLYMER 
M  END

$$$$



 32 32  0  0  0  0  0  0  0  0999 V2000
   -0.5113    1.2243   -2.4615 H   0  0  0  1  0  0  0  0  0  0  0  0
   -1.1291    0.2434   -0.7005 C   0  0  0  1  0  0  0  0  0  0  0  0
    0.8058    1.7142   -0.9429 N   0  0  0  1  0  0  0  0  0  0  0  0
   -0.5616    1.4622   -1.4195 C   0  0  0  1  0  0  0  0  0  0  0  0
   -1.1827    0.1859    0.5273 O   0  0  0  1  0  0  0  0  0  0  0  0
   -1.5467   -0.7208   -1.5258 N   0  0  0  1  0  0  0  0  0  0  0  0
    1.0405    2.6140   -0.6336 H   0  0  0  1  0  0  0  0  0  0  0  0
    1.7382    0.7607   -0.9166 C   0  0  0  1  0  0  0  0  0  0  0  0
   -2.1545   -1.9506   -1.0401 C   0  0  0  1  0  0  0  0  0  0  0  0
    3.0401    1.1120   -0.2231 C   0  0  0  1  0  0  0  0  0  0  0  0
    1.5371   -0.3716   -1.3538 O   0  0  0  1  0  0  0  0  0  0  0  0
   -1.4399   -0.5954   -2.4919 H   0  0  0  1  0  0  0  0  0  0  0  0
   -3.0654   -1.7207   -0.5279 H   0  0  0  1  0  0  0  0  0  0  0  0
   -1.4811   -2.4395   -0.3675 H   0  0  0  1  0  0  0  0  0  0  0  0
   -2.3639   -2.5957   -1.8676 H   0  0  0  1  0  0  0  0  0  0  0  0
    3.5353    1.8899   -0.7658 H   0  0  0  1  0  0  0  0  0  0  0  0
    3.6690    0.2471   -0.1862 H   0  0  0  1  0  0  0  0  0  0  0  0
    2.8347    1.4470    0.7722 H   0  0  0  1  0  0  0  0  0  0  0  0
   -6.0335    1.3084   -0.9179 F   0  0  0  1  0  0  0  0  0  0  0  0
   -5.0716    1.8680   -1.6765 C   0  0  0  1  0  0  0  0  0  0  0  0
   -5.3166    2.2989   -2.9710 C   0  0  0  1  0  0  0  0  0  0  0  0
   -4.2984    2.8630   -3.7161 C   0  0  0  1  0  0  0  0  0  0  0  0
   -3.0333    3.0028   -3.1670 C   0  0  0  1  0  0  0  0  0  0  0  0
   -2.7888    2.5732   -1.8762 C   0  0  0  1  0  0  0  0  0  0  0  0
   -3.8102    2.0074   -1.1290 C   0  0  0  1  0  0  0  0  0  0  0  0
   -1.4091    2.7199   -1.2793 C   0  0  0  1  0  0  0  0  0  0  0  0
   -4.5352    3.2769   -4.9757 F   0  0  0  1  0  0  0  0  0  0  0  0
   -6.2667    2.1977   -3.3816 H   0  0  0  1  0  0  0  0  0  0  0  0
   -2.2681    3.4309   -3.7262 H   0  0  0  1  0  0  0  0  0  0  0  0
   -3.6273    1.6879   -0.1564 H   0  0  0  1  0  0  0  0  0  0  0  0
   -0.9078    3.5253   -1.7742 H   0  0  0  1  0  0  0  0  0  0  0  0
   -1.5106    2.9479   -0.2388 H   0  0  0  1  0  0  0  0  0  0  0  0
  1  4  1  0  0  0  0
  2  4  1  0  0  0  0
  2  5  2  0  0  0  0
  2  6  1  0  0  0  0
  3  4  1  0  0  0  0
  3  7  1  0  0  0  0
  3  8  1  0  0  0  0
  4 26  1  0  0  0  0
  6  9  1  0  0  0  0
  6 12  1  0  0  0  0
  8 10  1  0  0  0  0
  8 11  2  0  0  0  0
  9 13  1  0  0  0  0
  9 14  1  0  0  0  0
  9 15  1  0  0  0  0
 10 16  1  0  0  0  0
 10 17  1  0  0  0  0
 10 18  1  0  0  0  0
 19 20  1  0  0  0  0
 20 21  4  0  0  0  0
 20 25  4  0  0  0  0
 21 22  4  0  0  0  0
 21 28  1  0  0  0  0
 22 23  4  0  0  0  0
 22 27  1  0  0  0  0
 23 24  4  0  0  0  0
 23 29  1  0  0  0  0
 24 25  4  0  0  0  0
 24 26  1  0  0  0  0
 25 30  1  0  0  0  0
 26 31  1  0  0  0  0
 26 32  1  0  0  0  0
M  END
> <BCLConfClusterSize>
1

> <ConfClashScore>
0 

> <ConfOneFourInteractionScore>
-0.978127 

> <ConfScore>
0.158812 

> <ConfScorePBest>
0.00683701 

> <ConfTolerance>
0.217296 

> <RosettaParamsInstructions>
M  ROOT 3
M  POLY_N_BB 3
M  POLY_CA_BB 4
M  POLY_C_BB 2
M  POLY_O_BB 5
M  POLY_IGNORE 9 10 11 12 13 14 15 16 17 18 
M  POLY_UPPER 6
M  POLY_LOWER 8
M  POLY_CHG 0
M  POLY_PROPERTIES ALPHA_AA D_AA PROTEIN AROMATIC POLYMER 
M  END

$$$$



 32 32  0  0  0  0  0  0  0  0999 V2000
    0.4836    1.7730   -1.3161 H   0  0  0  1  0  0  0  0  0  0  0  0
   -0.2026    1.9849   -3.3066 C   0  0  0  1  0  0  0  0  0  0  0  0
   -0.9690    0.3334   -1.6422 N   0  0  0  1  0  0  0  0  0  0  0  0
   -0.4475    1.6818   -1.8353 C   0  0  0  1  0  0  0  0  0  0  0  0
    0.7372    2.6980   -3.6560 O   0  0  0  1  0  0  0  0  0  0  0  0
   -1.0359    1.4550   -4.2033 N   0  0  0  1  0  0  0  0  0  0  0  0
   -1.7366    0.1860   -1.0509 H   0  0  0  1  0  0  0  0  0  0  0  0
   -0.4025   -0.7012   -2.2696 C   0  0  0  1  0  0  0  0  0  0  0  0
   -1.0727    1.8049   -5.6154 C   0  0  0  1  0  0  0  0  0  0  0  0
   -1.0087   -2.0603   -1.9785 C   0  0  0  1  0  0  0  0  0  0  0  0
    0.5505   -0.5785   -3.0379 O   0  0  0  1  0  0  0  0  0  0  0  0
   -1.6713    0.7791   -3.8873 H   0  0  0  1  0  0  0  0  0  0  0  0
   -0.6592    2.7823   -5.7520 H   0  0  0  1  0  0  0  0  0  0  0  0
   -2.0861    1.7954   -5.9587 H   0  0  0  1  0  0  0  0  0  0  0  0
   -0.4998    1.0943   -6.1737 H   0  0  0  1  0  0  0  0  0  0  0  0
   -1.2645   -2.1225   -0.9414 H   0  0  0  1  0  0  0  0  0  0  0  0
   -0.2997   -2.8253   -2.2173 H   0  0  0  1  0  0  0  0  0  0  0  0
   -1.8896   -2.1920   -2.5714 H   0  0  0  1  0  0  0  0  0  0  0  0
   -6.0258    1.3095   -0.9151 F   0  0  0  1  0  0  0  0  0  0  0  0
   -5.0668    1.8696   -1.6772 C   0  0  0  1  0  0  0  0  0  0  0  0
   -5.3164    2.2991   -2.9713 C   0  0  0  1  0  0  0  0  0  0  0  0
   -4.3011    2.8638   -3.7201 C   0  0  0  1  0  0  0  0  0  0  0  0
   -3.0346    3.0055   -3.1749 C   0  0  0  1  0  0  0  0  0  0  0  0
   -2.7855    2.5773   -1.8846 C   0  0  0  1  0  0  0  0  0  0  0  0
   -3.8039    2.0110   -1.1337 C   0  0  0  1  0  0  0  0  0  0  0  0
   -1.4252    2.7002   -1.2396 C   0  0  0  1  0  0  0  0  0  0  0  0
   -4.5424    3.2763   -4.9793 F   0  0  0  1  0  0  0  0  0  0  0  0
   -6.2676    2.1964   -3.3789 H   0  0  0  1  0  0  0  0  0  0  0  0
   -2.2716    3.4340   -3.7369 H   0  0  0  1  0  0  0  0  0  0  0  0
   -3.6176    1.6924   -0.1614 H   0  0  0  1  0  0  0  0  0  0  0  0
   -1.0469    3.6875   -1.4042 H   0  0  0  1  0  0  0  0  0  0  0  0
   -1.5182    2.5240   -0.1884 H   0  0  0  1  0  0  0  0  0  0  0  0
  1  4  1  0  0  0  0
  2  4  1  0  0  0  0
  2  5  2  0  0  0  0
  2  6  1  0  0  0  0
  3  4  1  0  0  0  0
  3  7  1  0  0  0  0
  3  8  1  0  0  0  0
  4 26  1  0  0  0  0
  6  9  1  0  0  0  0
  6 12  1  0  0  0  0
  8 10  1  0  0  0  0
  8 11  2  0  0  0  0
  9 13  1  0  0  0  0
  9 14  1  0  0  0  0
  9 15  1  0  0  0  0
 10 16  1  0  0  0  0
 10 17  1  0  0  0  0
 10 18  1  0  0  0  0
 19 20  1  0  0  0  0
 20 21  4  0  0  0  0
 20 25  4  0  0  0  0
 21 22  4  0  0  0  0
 21 28  1  0  0  0  0
 22 23  4  0  0  0  0
 22 27  1  0  0  0  0
 23 24  4  0  0  0  0
 23 29  1  0  0  0  0
 24 25  4  0  0  0  0
 24 26  1  0  0  0  0
 25 30  1  0  0  0  0
 26 31  1  0  0  0  0
 26 32  1  0  0  0  0
M  END
> <BCLConfClusterSize>
1

> <ConfClashScore>
0 

> <ConfOneFourInteractionScore>
-0.950605 

> <ConfScore>
0.170088 

> <ConfScorePBest>
0.00680853 

> <ConfTolerance>
0.252789 

> <RosettaParamsInstructions>
M  ROOT 3
M  POLY_N_BB 3
M  POLY_CA_BB 4
M  POLY_C_BB 2
M  POLY_O_BB 5
M  POLY_IGNORE 9 10 11 12 13 14 15 16 17 18 
M  POLY_UPPER 6
M  POLY_LOWER 8
M  POLY_CHG 0
M  POLY_PROPERTIES ALPHA_AA D_AA PROTEIN AROMATIC POLYMER 
M  END

$$$$



 32 32  0  0  0  0  0  0  0  0999 V2000
   -1.8913    3.6960    0.5164 H   0  0  0  1  0  0  0  0  0  0  0  0
   -1.6458    5.1961   -0.9361 C   0  0  0  1  0  0  0  0  0  0  0  0
    0.1300    3.9133    0.1963 N   0  0  0  1  0  0  0  0  0  0  0  0
   -1.2345    3.8770   -0.3086 C   0  0  0  1  0  0  0  0  0  0  0  0
   -0.9282    5.7633   -1.7557 O   0  0  0  1  0  0  0  0  0  0  0  0
   -2.8238    5.6854   -0.5387 N   0  0  0  1  0  0  0  0  0  0  0  0
    0.7498    3.2003   -0.0643 H   0  0  0  1  0  0  0  0  0  0  0  0
    0.5663    4.8833    1.0013 C   0  0  0  1  0  0  0  0  0  0  0  0
   -3.3997    6.9288   -1.0289 C   0  0  0  1  0  0  0  0  0  0  0  0
    1.9531    4.6841    1.5812 C   0  0  0  1  0  0  0  0  0  0  0  0
   -0.0997    5.8829    1.2678 O   0  0  0  1  0  0  0  0  0  0  0  0
   -3.3324    5.1746    0.1252 H   0  0  0  1  0  0  0  0  0  0  0  0
   -4.4671    6.8547   -1.0232 H   0  0  0  1  0  0  0  0  0  0  0  0
   -3.0604    7.1095   -2.0275 H   0  0  0  1  0  0  0  0  0  0  0  0
   -3.0951    7.7364   -0.3965 H   0  0  0  1  0  0  0  0  0  0  0  0
    2.0436    3.6859    1.9556 H   0  0  0  1  0  0  0  0  0  0  0  0
    2.1090    5.3796    2.3792 H   0  0  0  1  0  0  0  0  0  0  0  0
    2.6852    4.8462    0.8179 H   0  0  0  1  0  0  0  0  0  0  0  0
   -6.0561    1.3124   -0.9444 F   0  0  0  1  0  0  0  0  0  0  0  0
   -5.0671    1.8672   -1.6711 C   0  0  0  1  0  0  0  0  0  0  0  0
   -5.3152    2.2971   -2.9653 C   0  0  0  1  0  0  0  0  0  0  0  0
   -4.2991    2.8616   -3.7130 C   0  0  0  1  0  0  0  0  0  0  0  0
   -3.0330    3.0027   -3.1666 C   0  0  0  1  0  0  0  0  0  0  0  0
   -2.7853    2.5741   -1.8761 C   0  0  0  1  0  0  0  0  0  0  0  0
   -3.8046    2.0080   -1.1264 C   0  0  0  1  0  0  0  0  0  0  0  0
   -1.4045    2.7223   -1.2822 C   0  0  0  1  0  0  0  0  0  0  0  0
   -4.5390    3.2745   -4.9723 F   0  0  0  1  0  0  0  0  0  0  0  0
   -6.2661    2.1949   -3.3738 H   0  0  0  1  0  0  0  0  0  0  0  0
   -2.2693    3.4311   -3.7277 H   0  0  0  1  0  0  0  0  0  0  0  0
   -3.6194    1.6891   -0.1540 H   0  0  0  1  0  0  0  0  0  0  0  0
   -1.1690    1.8163   -0.7640 H   0  0  0  1  0  0  0  0  0  0  0  0
   -0.7128    2.8639   -2.0863 H   0  0  0  1  0  0  0  0  0  0  0  0
  1  4  1  0  0  0  0
  2  4  1  0  0  0  0
  2  5  2  0  0  0  0
  2  6  1  0  0  0  0
  3  4  1  0  0  0  0
  3  7  1  0  0  0  0
  3  8  1  0  0  0  0
  4 26  1  0  0  0  0
  6  9  1  0  0  0  0
  6 12  1  0  0  0  0
  8 10  1  0  0  0  0
  8 11  2  0  0  0  0
  9 13  1  0  0  0  0
  9 14  1  0  0  0  0
  9 15  1  0  0  0  0
 10 16  1  0  0  0  0
 10 17  1  0  0  0  0
 10 18  1  0  0  0  0
 19 20  1  0  0  0  0
 20 21  4  0  0  0  0
 20 25  4  0  0  0  0
 21 22  4  0  0  0  0
 21 28  1  0  0  0  0
 22 23  4  0  0  0  0
 22 27  1  0  0  0  0
 23 24  4  0  0  0  0
 23 29  1  0  0  0  0
 24 25  4  0  0  0  0
 24 26  1  0  0  0  0
 25 30  1  0  0  0  0
 26 31  1  0  0  0  0
 26 32  1  0  0  0  0
M  END
> <BCLConfClusterSize>
1

> <ConfClashScore>
0 

> <ConfOneFourInteractionScore>
-0.985807 

> <ConfScore>
0.175616 

> <ConfScorePBest>
0.00678005 

> <ConfTolerance>
0.290452 

> <RosettaParamsInstructions>
M  ROOT 3
M  POLY_N_BB 3
M  POLY_CA_BB 4
M  POLY_C_BB 2
M  POLY_O_BB 5
M  POLY_IGNORE 9 10 11 12 13 14 15 16 17 18 
M  POLY_UPPER 6
M  POLY_LOWER 8
M  POLY_CHG 0
M  POLY_PROPERTIES ALPHA_AA D_AA PROTEIN AROMATIC POLYMER 
M  END

$$$$



 32 32  0  0  0  0  0  0  0  0999 V2000
   -0.9788    0.6872   -0.9651 H   0  0  0  1  0  0  0  0  0  0  0  0
    0.8789    1.6453   -0.7634 C   0  0  0  1  0  0  0  0  0  0  0  0
   -0.3268    1.1620   -2.8642 N   0  0  0  1  0  0  0  0  0  0  0  0
   -0.4827    1.5085   -1.4387 C   0  0  0  1  0  0  0  0  0  0  0  0
    0.9847    1.6641    0.4622 O   0  0  0  1  0  0  0  0  0  0  0  0
    1.9326    1.7417   -1.5895 N   0  0  0  1  0  0  0  0  0  0  0  0
   -0.7230    1.7355   -3.5530 H   0  0  0  1  0  0  0  0  0  0  0  0
    0.3536    0.0680   -3.2181 C   0  0  0  1  0  0  0  0  0  0  0  0
    3.2906    1.8935   -1.0998 C   0  0  0  1  0  0  0  0  0  0  0  0
    0.5159   -0.1531   -4.7094 C   0  0  0  1  0  0  0  0  0  0  0  0
    0.8248   -0.7196   -2.4020 O   0  0  0  1  0  0  0  0  0  0  0  0
    1.7797    1.7085   -2.5570 H   0  0  0  1  0  0  0  0  0  0  0  0
    3.3938    1.3782   -0.1678 H   0  0  0  1  0  0  0  0  0  0  0  0
    3.5044    2.9324   -0.9583 H   0  0  0  1  0  0  0  0  0  0  0  0
    3.9745    1.4819   -1.8123 H   0  0  0  1  0  0  0  0  0  0  0  0
   -0.4448   -0.3078   -5.1542 H   0  0  0  1  0  0  0  0  0  0  0  0
    1.1292   -1.0136   -4.8775 H   0  0  0  1  0  0  0  0  0  0  0  0
    0.9780    0.7062   -5.1489 H   0  0  0  1  0  0  0  0  0  0  0  0
   -6.0782    1.3188   -0.9770 F   0  0  0  1  0  0  0  0  0  0  0  0
   -5.0612    1.8678   -1.6685 C   0  0  0  1  0  0  0  0  0  0  0  0
   -5.3093    2.2978   -2.9628 C   0  0  0  1  0  0  0  0  0  0  0  0
   -4.2932    2.8622   -3.7104 C   0  0  0  1  0  0  0  0  0  0  0  0
   -3.0271    3.0034   -3.1640 C   0  0  0  1  0  0  0  0  0  0  0  0
   -2.7794    2.5748   -1.8736 C   0  0  0  1  0  0  0  0  0  0  0  0
   -3.7987    2.0086   -1.1238 C   0  0  0  1  0  0  0  0  0  0  0  0
   -1.3985    2.7230   -1.2797 C   0  0  0  1  0  0  0  0  0  0  0  0
   -4.5761    3.2616   -4.9652 F   0  0  0  1  0  0  0  0  0  0  0  0
   -6.2602    2.1955   -3.3713 H   0  0  0  1  0  0  0  0  0  0  0  0
   -2.2634    3.4318   -3.7252 H   0  0  0  1  0  0  0  0  0  0  0  0
   -3.6135    1.6898   -0.1514 H   0  0  0  1  0  0  0  0  0  0  0  0
   -0.9242    3.5581   -1.7514 H   0  0  0  1  0  0  0  0  0  0  0  0
   -1.5084    2.9188   -0.2335 H   0  0  0  1  0  0  0  0  0  0  0  0
  1  4  1  0  0  0  0
  2  4  1  0  0  0  0
  2  5  2  0  0  0  0
  2  6  1  0  0  0  0
  3  4  1  0  0  0  0
  3  7  1  0  0  0  0
  3  8  1  0  0  0  0
  4 26  1  0  0  0  0
  6  9  1  0  0  0  0
  6 12  1  0  0  0  0
  8 10  1  0  0  0  0
  8 11  2  0  0  0  0
  9 13  1  0  0  0  0
  9 14  1  0  0  0  0
  9 15  1  0  0  0  0
 10 16  1  0  0  0  0
 10 17  1  0  0  0  0
 10 18  1  0  0  0  0
 19 20  1  0  0  0  0
 20 21  4  0  0  0  0
 20 25  4  0  0  0  0
 21 22  4  0  0  0  0
 21 28  1  0  0  0  0
 22 23  4  0  0  0  0
 22 27  1  0  0  0  0
 23 24  4  0  0  0  0
 23 29  1  0  0  0  0
 24 25  4  0  0  0  0
 24 26  1  0  0  0  0
 25 30  1  0  0  0  0
 26 31  1  0  0  0  0
 26 32  1  0  0  0  0
M  END
> <BCLConfClusterSize>
1

> <ConfClashScore>
0 

> <ConfOneFourInteractionScore>
-0.94165 

> <ConfScore>
0.176318 

> <ConfScorePBest>
0.00675157 

> <ConfTolerance>
0.209223 

> <RosettaParamsInstructions>
M  ROOT 3
M  POLY_N_BB 3
M  POLY_CA_BB 4
M  POLY_C_BB 2
M  POLY_O_BB 5
M  POLY_IGNORE 9 10 11 12 13 14 15 16 17 18 
M  POLY_UPPER 6
M  POLY_LOWER 8
M  POLY_CHG 0
M  POLY_PROPERTIES ALPHA_AA D_AA PROTEIN AROMATIC POLYMER 
M  END

$$$$



 32 32  0  0  0  0  0  0  0  0999 V2000
   -1.0955    4.6218   -2.1943 H   0  0  0  1  0  0  0  0  0  0  0  0
    0.6072    4.2855   -1.0078 C   0  0  0  1  0  0  0  0  0  0  0  0
   -1.6057    4.9185   -0.2112 N   0  0  0  1  0  0  0  0  0  0  0  0
   -0.8852    4.1672   -1.2487 C   0  0  0  1  0  0  0  0  0  0  0  0
    1.4136    3.7649   -1.7770 O   0  0  0  1  0  0  0  0  0  0  0  0
    1.0201    4.9742    0.0679 N   0  0  0  1  0  0  0  0  0  0  0  0
   -1.9592    4.4195    0.5546 H   0  0  0  1  0  0  0  0  0  0  0  0
   -1.8094    6.2385   -0.2455 C   0  0  0  1  0  0  0  0  0  0  0  0
    2.4264    5.0894    0.4244 C   0  0  0  1  0  0  0  0  0  0  0  0
   -2.7714    6.7838    0.7920 C   0  0  0  1  0  0  0  0  0  0  0  0
   -1.2651    6.9739   -1.0526 O   0  0  0  1  0  0  0  0  0  0  0  0
    0.3514    5.4147    0.6329 H   0  0  0  1  0  0  0  0  0  0  0  0
    2.9336    4.1807    0.1756 H   0  0  0  1  0  0  0  0  0  0  0  0
    2.5140    5.2703    1.4754 H   0  0  0  1  0  0  0  0  0  0  0  0
    2.8655    5.9021   -0.1156 H   0  0  0  1  0  0  0  0  0  0  0  0
   -2.3822    7.6950    1.1960 H   0  0  0  1  0  0  0  0  0  0  0  0
   -2.8911    6.0678    1.5782 H   0  0  0  1  0  0  0  0  0  0  0  0
   -3.7197    6.9733    0.3341 H   0  0  0  1  0  0  0  0  0  0  0  0
   -6.0411    1.3093   -0.9257 F   0  0  0  1  0  0  0  0  0  0  0  0
   -5.0743    1.8681   -1.6787 C   0  0  0  1  0  0  0  0  0  0  0  0
   -5.3119    2.3013   -2.9738 C   0  0  0  1  0  0  0  0  0  0  0  0
   -4.2889    2.8644   -3.7131 C   0  0  0  1  0  0  0  0  0  0  0  0
   -3.0264    3.0010   -3.1573 C   0  0  0  1  0  0  0  0  0  0  0  0
   -2.7892    2.5692   -1.8660 C   0  0  0  1  0  0  0  0  0  0  0  0
   -3.8154    2.0044   -1.1247 C   0  0  0  1  0  0  0  0  0  0  0  0
   -1.3941    2.7364   -1.3115 C   0  0  0  1  0  0  0  0  0  0  0  0
   -4.5617    3.2670   -4.9690 F   0  0  0  1  0  0  0  0  0  0  0  0
   -6.2602    2.2025   -3.3893 H   0  0  0  1  0  0  0  0  0  0  0  0
   -2.2576    3.4284   -3.7121 H   0  0  0  1  0  0  0  0  0  0  0  0
   -3.6380    1.6831   -0.1516 H   0  0  0  1  0  0  0  0  0  0  0  0
   -1.3838    2.3385   -0.3183 H   0  0  0  1  0  0  0  0  0  0  0  0
   -0.7243    2.1745   -1.9284 H   0  0  0  1  0  0  0  0  0  0  0  0
  1  4  1  0  0  0  0
  2  4  1  0  0  0  0
  2  5  2  0  0  0  0
  2  6  1  0  0  0  0
  3  4  1  0  0  0  0
  3  7  1  0  0  0  0
  3  8  1  0  0  0  0
  4 26  1  0  0  0  0
  6  9  1  0  0  0  0
  6 12  1  0  0  0  0
  8 10  1  0  0  0  0
  8 11  2  0  0  0  0
  9 13  1  0  0  0  0
  9 14  1  0  0  0  0
  9 15  1  0  0  0  0
 10 16  1  0  0  0  0
 10 17  1  0  0  0  0
 10 18  1  0  0  0  0
 19 20  1  0  0  0  0
 20 21  4  0  0  0  0
 20 25  4  0  0  0  0
 21 22  4  0  0  0  0
 21 28  1  0  0  0  0
 22 23  4  0  0  0  0
 22 27  1  0  0  0  0
 23 24  4  0  0  0  0
 23 29  1  0  0  0  0
 24 25  4  0  0  0  0
 24 26  1  0  0  0  0
 25 30  1  0  0  0  0
 26 31  1  0  0  0  0
 26 32  1  0  0  0  0
M  END
> <BCLConfClusterSize>
1

> <ConfClashScore>
0 

> <ConfOneFourInteractionScore>
-0.960318 

> <ConfScore>
0.180255 

> <ConfScorePBest>
0.00672309 

> <ConfTolerance>
0.294593 

> <RosettaParamsInstructions>
M  ROOT 3
M  POLY_N_BB 3
M  POLY_CA_BB 4
M  POLY_C_BB 2
M  POLY_O_BB 5
M  POLY_IGNORE 9 10 11 12 13 14 15 16 17 18 
M  POLY_UPPER 6
M  POLY_LOWER 8
M  POLY_CHG 0
M  POLY_PROPERTIES ALPHA_AA D_AA PROTEIN AROMATIC POLYMER 
M  END

$$$$



 32 32  0  0  0  0  0  0  0  0999 V2000
   -0.5155    3.1410   -3.1426 H   0  0  0  1  0  0  0  0  0  0  0  0
    0.9564    3.5453   -1.6802 C   0  0  0  1  0  0  0  0  0  0  0  0
   -1.0434    4.9243   -2.2441 N   0  0  0  1  0  0  0  0  0  0  0  0
   -0.4862    3.5821   -2.1682 C   0  0  0  1  0  0  0  0  0  0  0  0
    1.6615    4.5535   -1.6758 O   0  0  0  1  0  0  0  0  0  0  0  0
    1.3580    2.3269   -1.2688 N   0  0  0  1  0  0  0  0  0  0  0  0
   -1.5392    5.2035   -3.0420 H   0  0  0  1  0  0  0  0  0  0  0  0
   -0.8788    5.7851   -1.2184 C   0  0  0  1  0  0  0  0  0  0  0  0
    2.7490    2.0998   -0.9062 C   0  0  0  1  0  0  0  0  0  0  0  0
   -1.4339    7.1835   -1.3680 C   0  0  0  1  0  0  0  0  0  0  0  0
   -0.2947    5.4447   -0.1905 O   0  0  0  1  0  0  0  0  0  0  0  0
    0.7121    1.5919   -1.2136 H   0  0  0  1  0  0  0  0  0  0  0  0
    3.2816    3.0273   -0.9351 H   0  0  0  1  0  0  0  0  0  0  0  0
    3.1903    1.4137   -1.5986 H   0  0  0  1  0  0  0  0  0  0  0  0
    2.7977    1.6913    0.0816 H   0  0  0  1  0  0  0  0  0  0  0  0
   -1.0465    7.6280   -2.2608 H   0  0  0  1  0  0  0  0  0  0  0  0
   -1.1467    7.7733   -0.5226 H   0  0  0  1  0  0  0  0  0  0  0  0
   -2.5014    7.1389   -1.4262 H   0  0  0  1  0  0  0  0  0  0  0  0
   -6.0589    1.3180   -0.9427 F   0  0  0  1  0  0  0  0  0  0  0  0
   -5.0676    1.8663   -1.6711 C   0  0  0  1  0  0  0  0  0  0  0  0
   -5.3167    2.3031   -2.9629 C   0  0  0  1  0  0  0  0  0  0  0  0
   -4.2982    2.8609   -3.7124 C   0  0  0  1  0  0  0  0  0  0  0  0
   -3.0288    2.9884   -3.1703 C   0  0  0  1  0  0  0  0  0  0  0  0
   -2.7802    2.5530   -1.8823 C   0  0  0  1  0  0  0  0  0  0  0  0
   -3.8019    1.9935   -1.1307 C   0  0  0  1  0  0  0  0  0  0  0  0
   -1.4181    2.7792   -1.2701 C   0  0  0  1  0  0  0  0  0  0  0  0
   -4.5390    3.2805   -4.9693 F   0  0  0  1  0  0  0  0  0  0  0  0
   -6.2700    2.2110   -3.3681 H   0  0  0  1  0  0  0  0  0  0  0  0
   -2.2634    3.4118   -3.7328 H   0  0  0  1  0  0  0  0  0  0  0  0
   -3.6159    1.6695   -0.1601 H   0  0  0  1  0  0  0  0  0  0  0  0
   -1.5426    3.3085   -0.3485 H   0  0  0  1  0  0  0  0  0  0  0  0
   -0.9690    1.8273   -1.0774 H   0  0  0  1  0  0  0  0  0  0  0  0
  1  4  1  0  0  0  0
  2  4  1  0  0  0  0
  2  5  2  0  0  0  0
  2  6  1  0  0  0  0
  3  4  1  0  0  0  0
  3  7  1  0  0  0  0
  3  8  1  0  0  0  0
  4 26  1  0  0  0  0
  6  9  1  0  0  0  0
  6 12  1  0  0  0  0
  8 10  1  0  0  0  0
  8 11  2  0  0  0  0
  9 13  1  0  0  0  0
  9 14  1  0  0  0  0
  9 15  1  0  0  0  0
 10 16  1  0  0  0  0
 10 17  1  0  0  0  0
 10 18  1  0  0  0  0
 19 20  1  0  0  0  0
 20 21  4  0  0  0  0
 20 25  4  0  0  0  0
 21 22  4  0  0  0  0
 21 28  1  0  0  0  0
 22 23  4  0  0  0  0
 22 27  1  0  0  0  0
 23 24  4  0  0  0  0
 23 29  1  0  0  0  0
 24 25  4  0  0  0  0
 24 26  1  0  0  0  0
 25 30  1  0  0  0  0
 26 31  1  0  0  0  0
 26 32  1  0  0  0  0
M  END
> <BCLConfClusterSize>
1

> <ConfClashScore>
0 

> <ConfOneFourInteractionScore>
-0.94957 

> <ConfScore>
0.181633 

> <ConfScorePBest>
0.0066946 

> <ConfTolerance>
0.387774 

> <RosettaParamsInstructions>
M  ROOT 3
M  POLY_N_BB 3
M  POLY_CA_BB 4
M  POLY_C_BB 2
M  POLY_O_BB 5
M  POLY_IGNORE 9 10 11 12 13 14 15 16 17 18 
M  POLY_UPPER 6
M  POLY_LOWER 8
M  POLY_CHG 0
M  POLY_PROPERTIES ALPHA_AA D_AA PROTEIN AROMATIC POLYMER 
M  END

$$$$



 32 32  0  0  0  0  0  0  0  0999 V2000
    0.5230    1.8790   -1.3480 H   0  0  0  1  0  0  0  0  0  0  0  0
   -0.1668    1.7139   -3.3216 C   0  0  0  1  0  0  0  0  0  0  0  0
   -0.8464    0.3368   -1.3903 N   0  0  0  1  0  0  0  0  0  0  0  0
   -0.4168    1.6813   -1.8196 C   0  0  0  1  0  0  0  0  0  0  0  0
    0.1955    2.7432   -3.8852 O   0  0  0  1  0  0  0  0  0  0  0  0
   -0.3665    0.5639   -3.9674 N   0  0  0  1  0  0  0  0  0  0  0  0
   -1.8034    0.1308   -1.4359 H   0  0  0  1  0  0  0  0  0  0  0  0
   -0.0220   -0.6291   -0.9401 C   0  0  0  1  0  0  0  0  0  0  0  0
   -0.3104    0.5229   -5.4210 C   0  0  0  1  0  0  0  0  0  0  0  0
   -0.7471   -1.8216   -0.3472 C   0  0  0  1  0  0  0  0  0  0  0  0
    1.2060   -0.5807   -0.9898 O   0  0  0  1  0  0  0  0  0  0  0  0
   -0.5514   -0.2550   -3.4619 H   0  0  0  1  0  0  0  0  0  0  0  0
   -1.0973    1.1243   -5.8259 H   0  0  0  1  0  0  0  0  0  0  0  0
   -0.4265   -0.4874   -5.7538 H   0  0  0  1  0  0  0  0  0  0  0  0
    0.6340    0.9017   -5.7521 H   0  0  0  1  0  0  0  0  0  0  0  0
   -1.4760   -2.1791   -1.0442 H   0  0  0  1  0  0  0  0  0  0  0  0
   -1.2344   -1.5279    0.5590 H   0  0  0  1  0  0  0  0  0  0  0  0
   -0.0425   -2.5992   -0.1381 H   0  0  0  1  0  0  0  0  0  0  0  0
   -6.0635    1.3134   -0.9524 F   0  0  0  1  0  0  0  0  0  0  0  0
   -5.0698    1.8673   -1.6733 C   0  0  0  1  0  0  0  0  0  0  0  0
   -5.3106    2.2995   -2.9682 C   0  0  0  1  0  0  0  0  0  0  0  0
   -4.2896    2.8630   -3.7099 C   0  0  0  1  0  0  0  0  0  0  0  0
   -3.0260    3.0009   -3.1570 C   0  0  0  1  0  0  0  0  0  0  0  0
   -2.7857    2.5701   -1.8659 C   0  0  0  1  0  0  0  0  0  0  0  0
   -3.8098    2.0049   -1.1220 C   0  0  0  1  0  0  0  0  0  0  0  0
   -1.3896    2.7388   -1.3145 C   0  0  0  1  0  0  0  0  0  0  0  0
   -4.5655    3.2646   -4.9655 F   0  0  0  1  0  0  0  0  0  0  0  0
   -6.2597    2.1996   -3.3816 H   0  0  0  1  0  0  0  0  0  0  0  0
   -2.2587    3.4287   -3.7137 H   0  0  0  1  0  0  0  0  0  0  0  0
   -3.6301    1.6843   -0.1491 H   0  0  0  1  0  0  0  0  0  0  0  0
   -1.0242    3.7026   -1.6016 H   0  0  0  1  0  0  0  0  0  0  0  0
   -1.4352    2.6775   -0.2472 H   0  0  0  1  0  0  0  0  0  0  0  0
  1  4  1  0  0  0  0
  2  4  1  0  0  0  0
  2  5  2  0  0  0  0
  2  6  1  0  0  0  0
  3  4  1  0  0  0  0
  3  7  1  0  0  0  0
  3  8  1  0  0  0  0
  4 26  1  0  0  0  0
  6  9  1  0  0  0  0
  6 12  1  0  0  0  0
  8 10  1  0  0  0  0
  8 11  2  0  0  0  0
  9 13  1  0  0  0  0
  9 14  1  0  0  0  0
  9 15  1  0  0  0  0
 10 16  1  0  0  0  0
 10 17  1  0  0  0  0
 10 18  1  0  0  0  0
 19 20  1  0  0  0  0
 20 21  4  0  0  0  0
 20 25  4  0  0  0  0
 21 22  4  0  0  0  0
 21 28  1  0  0  0  0
 22 23  4  0  0  0  0
 22 27  1  0  0  0  0
 23 24  4  0  0  0  0
 23 29  1  0  0  0  0
 24 25  4  0  0  0  0
 24 26  1  0  0  0  0
 25 30  1  0  0  0  0
 26 31  1  0  0  0  0
 26 32  1  0  0  0  0
M  END
> <BCLConfClusterSize>
1

> <ConfClashScore>
0 

> <ConfOneFourInteractionScore>
-0.931937 

> <ConfScore>
0.183102 

> <ConfScorePBest>
0.00666612 

> <ConfTolerance>
0.282396 

> <RosettaParamsInstructions>
M  ROOT 3
M  POLY_N_BB 3
M  POLY_CA_BB 4
M  POLY_C_BB 2
M  POLY_O_BB 5
M  POLY_IGNORE 9 10 11 12 13 14 15 16 17 18 
M  POLY_UPPER 6
M  POLY_LOWER 8
M  POLY_CHG 0
M  POLY_PROPERTIES ALPHA_AA D_AA PROTEIN AROMATIC POLYMER 
M  END

$$$$



 32 32  0  0  0  0  0  0  0  0999 V2000
   -0.7961    4.5789   -2.2615 H   0  0  0  1  0  0  0  0  0  0  0  0
    0.2602    4.4665   -0.4360 C   0  0  0  1  0  0  0  0  0  0  0  0
   -2.0910    5.0785   -0.7400 N   0  0  0  1  0  0  0  0  0  0  0  0
   -1.0033    4.2835   -1.2542 C   0  0  0  1  0  0  0  0  0  0  0  0
    1.2024    3.7075   -0.6546 O   0  0  0  1  0  0  0  0  0  0  0  0
    0.2843    5.4371    0.4747 N   0  0  0  1  0  0  0  0  0  0  0  0
   -2.8122    4.6099   -0.2703 H   0  0  0  1  0  0  0  0  0  0  0  0
   -2.1935    6.4575   -0.8604 C   0  0  0  1  0  0  0  0  0  0  0  0
    1.4662    5.7243    1.2738 C   0  0  0  1  0  0  0  0  0  0  0  0
   -3.4783    7.0706   -0.3384 C   0  0  0  1  0  0  0  0  0  0  0  0
   -1.3105    7.1530   -1.3553 O   0  0  0  1  0  0  0  0  0  0  0  0
   -0.5219    5.9771    0.6119 H   0  0  0  1  0  0  0  0  0  0  0  0
    1.1749    6.2153    2.1787 H   0  0  0  1  0  0  0  0  0  0  0  0
    2.1252    6.3596    0.7197 H   0  0  0  1  0  0  0  0  0  0  0  0
    1.9675    4.8090    1.5103 H   0  0  0  1  0  0  0  0  0  0  0  0
   -4.1202    6.2969    0.0279 H   0  0  0  1  0  0  0  0  0  0  0  0
   -3.9697    7.5964   -1.1302 H   0  0  0  1  0  0  0  0  0  0  0  0
   -3.2516    7.7512    0.4555 H   0  0  0  1  0  0  0  0  0  0  0  0
   -6.0585    1.3161   -0.9374 F   0  0  0  1  0  0  0  0  0  0  0  0
   -5.0692    1.8648   -1.6683 C   0  0  0  1  0  0  0  0  0  0  0  0
   -5.3213    2.3007   -2.9598 C   0  0  0  1  0  0  0  0  0  0  0  0
   -4.3049    2.8589   -3.7118 C   0  0  0  1  0  0  0  0  0  0  0  0
   -3.0345    2.9877   -3.1725 C   0  0  0  1  0  0  0  0  0  0  0  0
   -2.7828    2.5532   -1.8848 C   0  0  0  1  0  0  0  0  0  0  0  0
   -3.8024    1.9934   -1.1307 C   0  0  0  1  0  0  0  0  0  0  0  0
   -1.4195    2.7809   -1.2756 C   0  0  0  1  0  0  0  0  0  0  0  0
   -4.5055    3.2903   -4.9718 F   0  0  0  1  0  0  0  0  0  0  0  0
   -6.2755    2.2077   -3.3629 H   0  0  0  1  0  0  0  0  0  0  0  0
   -2.2706    3.4114   -3.7369 H   0  0  0  1  0  0  0  0  0  0  0  0
   -3.6140    1.6700   -0.1604 H   0  0  0  1  0  0  0  0  0  0  0  0
   -1.4308    2.4162   -0.2698 H   0  0  0  1  0  0  0  0  0  0  0  0
   -0.6965    2.2353   -1.8453 H   0  0  0  1  0  0  0  0  0  0  0  0
  1  4  1  0  0  0  0
  2  4  1  0  0  0  0
  2  5  2  0  0  0  0
  2  6  1  0  0  0  0
  3  4  1  0  0  0  0
  3  7  1  0  0  0  0
  3  8  1  0  0  0  0
  4 26  1  0  0  0  0
  6  9  1  0  0  0  0
  6 12  1  0  0  0  0
  8 10  1  0  0  0  0
  8 11  2  0  0  0  0
  9 13  1  0  0  0  0
  9 14  1  0  0  0  0
  9 15  1  0  0  0  0
 10 16  1  0  0  0  0
 10 17  1  0  0  0  0
 10 18  1  0  0  0  0
 19 20  1  0  0  0  0
 20 21  4  0  0  0  0
 20 25  4  0  0  0  0
 21 22  4  0  0  0  0
 21 28  1  0  0  0  0
 22 23  4  0  0  0  0
 22 27  1  0  0  0  0
 23 24  4  0  0  0  0
 23 29  1  0  0  0  0
 24 25  4  0  0  0  0
 24 26  1  0  0  0  0
 25 30  1  0  0  0  0
 26 31  1  0  0  0  0
 26 32  1  0  0  0  0
M  END
> <BCLConfClusterSize>
1

> <ConfClashScore>
0 

> <ConfOneFourInteractionScore>
-0.928132 

> <ConfScore>
0.187897 

> <ConfScorePBest>
0.00663764 

> <ConfTolerance>
0.364769 

> <RosettaParamsInstructions>
M  ROOT 3
M  POLY_N_BB 3
M  POLY_CA_BB 4
M  POLY_C_BB 2
M  POLY_O_BB 5
M  POLY_IGNORE 9 10 11 12 13 14 15 16 17 18 
M  POLY_UPPER 6
M  POLY_LOWER 8
M  POLY_CHG 0
M  POLY_PROPERTIES ALPHA_AA D_AA PROTEIN AROMATIC POLYMER 
M  END

$$$$



 32 32  0  0  0  0  0  0  0  0999 V2000
   -2.0334    4.4092   -0.0473 H   0  0  0  1  0  0  0  0  0  0  0  0
   -1.2819    5.1735   -1.8797 C   0  0  0  1  0  0  0  0  0  0  0  0
    0.0424    4.2827   -0.0349 N   0  0  0  1  0  0  0  0  0  0  0  0
   -1.2352    4.1911   -0.7256 C   0  0  0  1  0  0  0  0  0  0  0  0
   -2.3492    5.6110   -2.3015 O   0  0  0  1  0  0  0  0  0  0  0  0
   -0.0989    5.5213   -2.3941 N   0  0  0  1  0  0  0  0  0  0  0  0
    0.6447    3.5097   -0.0500 H   0  0  0  1  0  0  0  0  0  0  0  0
    0.4228    5.3838    0.6192 C   0  0  0  1  0  0  0  0  0  0  0  0
    0.0178    6.3588   -3.5785 C   0  0  0  1  0  0  0  0  0  0  0  0
    1.8346    5.3668    1.1724 C   0  0  0  1  0  0  0  0  0  0  0  0
   -0.3113    6.3590    0.7728 O   0  0  0  1  0  0  0  0  0  0  0  0
    0.7186    5.2013   -1.9587 H   0  0  0  1  0  0  0  0  0  0  0  0
   -0.8748    6.9369   -3.6966 H   0  0  0  1  0  0  0  0  0  0  0  0
    0.1583    5.7401   -4.4401 H   0  0  0  1  0  0  0  0  0  0  0  0
    0.8558    7.0152   -3.4697 H   0  0  0  1  0  0  0  0  0  0  0  0
    1.8743    4.7284    2.0302 H   0  0  0  1  0  0  0  0  0  0  0  0
    2.1193    6.3592    1.4531 H   0  0  0  1  0  0  0  0  0  0  0  0
    2.5061    5.0006    0.4242 H   0  0  0  1  0  0  0  0  0  0  0  0
   -6.0589    1.3180   -0.9427 F   0  0  0  1  0  0  0  0  0  0  0  0
   -5.0676    1.8663   -1.6711 C   0  0  0  1  0  0  0  0  0  0  0  0
   -5.3167    2.3031   -2.9629 C   0  0  0  1  0  0  0  0  0  0  0  0
   -4.2982    2.8609   -3.7124 C   0  0  0  1  0  0  0  0  0  0  0  0
   -3.0288    2.9884   -3.1703 C   0  0  0  1  0  0  0  0  0  0  0  0
   -2.7802    2.5530   -1.8823 C   0  0  0  1  0  0  0  0  0  0  0  0
   -3.8019    1.9935   -1.1307 C   0  0  0  1  0  0  0  0  0  0  0  0
   -1.4181    2.7792   -1.2701 C   0  0  0  1  0  0  0  0  0  0  0  0
   -4.5390    3.2805   -4.9693 F   0  0  0  1  0  0  0  0  0  0  0  0
   -6.2700    2.2110   -3.3681 H   0  0  0  1  0  0  0  0  0  0  0  0
   -2.2634    3.4118   -3.7328 H   0  0  0  1  0  0  0  0  0  0  0  0
   -3.6159    1.6695   -0.1601 H   0  0  0  1  0  0  0  0  0  0  0  0
   -1.2861    2.0847   -0.4669 H   0  0  0  1  0  0  0  0  0  0  0  0
   -0.6746    2.6041   -2.0194 H   0  0  0  1  0  0  0  0  0  0  0  0
  1  4  1  0  0  0  0
  2  4  1  0  0  0  0
  2  5  2  0  0  0  0
  2  6  1  0  0  0  0
  3  4  1  0  0  0  0
  3  7  1  0  0  0  0
  3  8  1  0  0  0  0
  4 26  1  0  0  0  0
  6  9  1  0  0  0  0
  6 12  1  0  0  0  0
  8 10  1  0  0  0  0
  8 11  2  0  0  0  0
  9 13  1  0  0  0  0
  9 14  1  0  0  0  0
  9 15  1  0  0  0  0
 10 16  1  0  0  0  0
 10 17  1  0  0  0  0
 10 18  1  0  0  0  0
 19 20  1  0  0  0  0
 20 21  4  0  0  0  0
 20 25  4  0  0  0  0
 21 22  4  0  0  0  0
 21 28  1  0  0  0  0
 22 23  4  0  0  0  0
 22 27  1  0  0  0  0
 23 24  4  0  0  0  0
 23 29  1  0  0  0  0
 24 25  4  0  0  0  0
 24 26  1  0  0  0  0
 25 30  1  0  0  0  0
 26 31  1  0  0  0  0
 26 32  1  0  0  0  0
M  END
> <BCLConfClusterSize>
1

> <ConfClashScore>
0 

> <ConfOneFourInteractionScore>
-0.960318 

> <ConfScore>
0.188145 

> <ConfScorePBest>
0.00660916 

> <ConfTolerance>
0.230292 

> <RosettaParamsInstructions>
M  ROOT 3
M  POLY_N_BB 3
M  POLY_CA_BB 4
M  POLY_C_BB 2
M  POLY_O_BB 5
M  POLY_IGNORE 9 10 11 12 13 14 15 16 17 18 
M  POLY_UPPER 6
M  POLY_LOWER 8
M  POLY_CHG 0
M  POLY_PROPERTIES ALPHA_AA D_AA PROTEIN AROMATIC POLYMER 
M  END

$$$$



 32 32  0  0  0  0  0  0  0  0999 V2000
   -0.3749    4.0057    0.0535 H   0  0  0  1  0  0  0  0  0  0  0  0
   -2.4208    4.2633    0.4584 C   0  0  0  1  0  0  0  0  0  0  0  0
   -1.1652    5.1319   -1.4768 N   0  0  0  1  0  0  0  0  0  0  0  0
   -1.2798    4.0449   -0.5160 C   0  0  0  1  0  0  0  0  0  0  0  0
   -2.5400    3.5709    1.4658 O   0  0  0  1  0  0  0  0  0  0  0  0
   -3.2748    5.2504    0.1447 N   0  0  0  1  0  0  0  0  0  0  0  0
   -1.2128    4.9245   -2.4335 H   0  0  0  1  0  0  0  0  0  0  0  0
   -0.9911    6.4507   -1.0859 C   0  0  0  1  0  0  0  0  0  0  0  0
   -4.4073    5.5400    1.0116 C   0  0  0  1  0  0  0  0  0  0  0  0
   -0.7779    7.5025   -2.1381 C   0  0  0  1  0  0  0  0  0  0  0  0
   -1.0169    6.7147    0.1062 O   0  0  0  1  0  0  0  0  0  0  0  0
   -3.1353    5.7772   -0.6698 H   0  0  0  1  0  0  0  0  0  0  0  0
   -4.0986    6.2024    1.7932 H   0  0  0  1  0  0  0  0  0  0  0  0
   -4.7707    4.6290    1.4394 H   0  0  0  1  0  0  0  0  0  0  0  0
   -5.1851    6.0013    0.4398 H   0  0  0  1  0  0  0  0  0  0  0  0
   -1.4729    7.3535   -2.9379 H   0  0  0  1  0  0  0  0  0  0  0  0
    0.2207    7.4316   -2.5157 H   0  0  0  1  0  0  0  0  0  0  0  0
   -0.9299    8.4711   -1.7097 H   0  0  0  1  0  0  0  0  0  0  0  0
   -6.0702    1.3178   -0.9688 F   0  0  0  1  0  0  0  0  0  0  0  0
   -5.0579    1.8679   -1.6663 C   0  0  0  1  0  0  0  0  0  0  0  0
   -5.3137    2.2954   -2.9599 C   0  0  0  1  0  0  0  0  0  0  0  0
   -4.3026    2.8609   -3.7137 C   0  0  0  1  0  0  0  0  0  0  0  0
   -3.0340    3.0053   -3.1741 C   0  0  0  1  0  0  0  0  0  0  0  0
   -2.7787    2.5791   -1.8843 C   0  0  0  1  0  0  0  0  0  0  0  0
   -3.7930    2.0120   -1.1285 C   0  0  0  1  0  0  0  0  0  0  0  0
   -1.4159    2.7050   -1.2454 C   0  0  0  1  0  0  0  0  0  0  0  0
   -4.5499    3.2715   -4.9723 F   0  0  0  1  0  0  0  0  0  0  0  0
   -6.2666    2.1907   -3.3633 H   0  0  0  1  0  0  0  0  0  0  0  0
   -2.2741    3.4345   -3.7398 H   0  0  0  1  0  0  0  0  0  0  0  0
   -3.6020    1.6949   -0.1566 H   0  0  0  1  0  0  0  0  0  0  0  0
   -1.2825    1.9085   -0.5436 H   0  0  0  1  0  0  0  0  0  0  0  0
   -0.6650    2.6413   -2.0050 H   0  0  0  1  0  0  0  0  0  0  0  0
  1  4  1  0  0  0  0
  2  4  1  0  0  0  0
  2  5  2  0  0  0  0
  2  6  1  0  0  0  0
  3  4  1  0  0  0  0
  3  7  1  0  0  0  0
  3  8  1  0  0  0  0
  4 26  1  0  0  0  0
  6  9  1  0  0  0  0
  6 12  1  0  0  0  0
  8 10  1  0  0  0  0
  8 11  2  0  0  0  0
  9 13  1  0  0  0  0
  9 14  1  0  0  0  0
  9 15  1  0  0  0  0
 10 16  1  0  0  0  0
 10 17  1  0  0  0  0
 10 18  1  0  0  0  0
 19 20  1  0  0  0  0
 20 21  4  0  0  0  0
 20 25  4  0  0  0  0
 21 22  4  0  0  0  0
 21 28  1  0  0  0  0
 22 23  4  0  0  0  0
 22 27  1  0  0  0  0
 23 24  4  0  0  0  0
 23 29  1  0  0  0  0
 24 25  4  0  0  0  0
 24 26  1  0  0  0  0
 25 30  1  0  0  0  0
 26 31  1  0  0  0  0
 26 32  1  0  0  0  0
M  END
> <BCLConfClusterSize>
1

> <ConfClashScore>
0 

> <ConfOneFourInteractionScore>
-0.957074 

> <ConfScore>
0.191476 

> <ConfScorePBest>
0.00658068 

> <ConfTolerance>
0.245027 

> <RosettaParamsInstructions>
M  ROOT 3
M  POLY_N_BB 3
M  POLY_CA_BB 4
M  POLY_C_BB 2
M  POLY_O_BB 5
M  POLY_IGNORE 9 10 11 12 13 14 15 16 17 18 
M  POLY_UPPER 6
M  POLY_LOWER 8
M  POLY_CHG 0
M  POLY_PROPERTIES ALPHA_AA D_AA PROTEIN AROMATIC POLYMER 
M  END

$$$$



 32 32  0  0  0  0  0  0  0  0999 V2000
   -1.7077    4.4636   -0.1238 H   0  0  0  1  0  0  0  0  0  0  0  0
    0.0944    3.5726    0.5224 C   0  0  0  1  0  0  0  0  0  0  0  0
   -2.1900    2.8103    1.0215 N   0  0  0  1  0  0  0  0  0  0  0  0
   -1.3406    3.4725    0.0427 C   0  0  0  1  0  0  0  0  0  0  0  0
    0.3745    3.4940    1.7156 O   0  0  0  1  0  0  0  0  0  0  0  0
    1.0140    3.7491   -0.4307 N   0  0  0  1  0  0  0  0  0  0  0  0
   -3.1274    3.0860    1.0977 H   0  0  0  1  0  0  0  0  0  0  0  0
   -1.7326    1.8315    1.8264 C   0  0  0  1  0  0  0  0  0  0  0  0
    2.4066    3.9699   -0.0704 C   0  0  0  1  0  0  0  0  0  0  0  0
   -2.7818    1.3002    2.8066 C   0  0  0  1  0  0  0  0  0  0  0  0
   -0.5869    1.3836    1.8027 O   0  0  0  1  0  0  0  0  0  0  0  0
    0.7501    3.7300   -1.3743 H   0  0  0  1  0  0  0  0  0  0  0  0
    2.8639    4.6153   -0.7910 H   0  0  0  1  0  0  0  0  0  0  0  0
    2.9230    3.0329   -0.0527 H   0  0  0  1  0  0  0  0  0  0  0  0
    2.4568    4.4237    0.8973 H   0  0  0  1  0  0  0  0  0  0  0  0
   -3.1187    2.0973    3.4360 H   0  0  0  1  0  0  0  0  0  0  0  0
   -2.3487    0.5291    3.4090 H   0  0  0  1  0  0  0  0  0  0  0  0
   -3.6114    0.9028    2.2599 H   0  0  0  1  0  0  0  0  0  0  0  0
   -6.0566    1.3143   -0.9498 F   0  0  0  1  0  0  0  0  0  0  0  0
   -5.0656    1.8687   -1.6740 C   0  0  0  1  0  0  0  0  0  0  0  0
   -5.3106    2.2996   -2.9685 C   0  0  0  1  0  0  0  0  0  0  0  0
   -4.2924    2.8637   -3.7136 C   0  0  0  1  0  0  0  0  0  0  0  0
   -3.0273    3.0035   -3.1645 C   0  0  0  1  0  0  0  0  0  0  0  0
   -2.7828    2.5739   -1.8737 C   0  0  0  1  0  0  0  0  0  0  0  0
   -3.8042    2.0081   -1.1265 C   0  0  0  1  0  0  0  0  0  0  0  0
   -1.4031    2.7206   -1.2768 C   0  0  0  1  0  0  0  0  0  0  0  0
   -4.5723    3.2640   -4.9688 F   0  0  0  1  0  0  0  0  0  0  0  0
   -6.2607    2.1984   -3.3791 H   0  0  0  1  0  0  0  0  0  0  0  0
   -2.2621    3.4316   -3.7237 H   0  0  0  1  0  0  0  0  0  0  0  0
   -3.6213    1.6886   -0.1539 H   0  0  0  1  0  0  0  0  0  0  0  0
   -1.0066    1.7397   -1.1169 H   0  0  0  1  0  0  0  0  0  0  0  0
   -0.7916    3.2422   -1.9831 H   0  0  0  1  0  0  0  0  0  0  0  0
  1  4  1  0  0  0  0
  2  4  1  0  0  0  0
  2  5  2  0  0  0  0
  2  6  1  0  0  0  0
  3  4  1  0  0  0  0
  3  7  1  0  0  0  0
  3  8  1  0  0  0  0
  4 26  1  0  0  0  0
  6  9  1  0  0  0  0
  6 12  1  0  0  0  0
  8 10  1  0  0  0  0
  8 11  2  0  0  0  0
  9 13  1  0  0  0  0
  9 14  1  0  0  0  0
  9 15  1  0  0  0  0
 10 16  1  0  0  0  0
 10 17  1  0  0  0  0
 10 18  1  0  0  0  0
 19 20  1  0  0  0  0
 20 21  4  0  0  0  0
 20 25  4  0  0  0  0
 21 22  4  0  0  0  0
 21 28  1  0  0  0  0
 22 23  4  0  0  0  0
 22 27  1  0  0  0  0
 23 24  4  0  0  0  0
 23 29  1  0  0  0  0
 24 25  4  0  0  0  0
 24 26  1  0  0  0  0
 25 30  1  0  0  0  0
 26 31  1  0  0  0  0
 26 32  1  0  0  0  0
M  END
> <BCLConfClusterSize>
1

> <ConfClashScore>
0 

> <ConfOneFourInteractionScore>
-0.930059 

> <ConfScore>
0.191648 

> <ConfScorePBest>
0.0065522 

> <ConfTolerance>
0.328303 

> <RosettaParamsInstructions>
M  ROOT 3
M  POLY_N_BB 3
M  POLY_CA_BB 4
M  POLY_C_BB 2
M  POLY_O_BB 5
M  POLY_IGNORE 9 10 11 12 13 14 15 16 17 18 
M  POLY_UPPER 6
M  POLY_LOWER 8
M  POLY_CHG 0
M  POLY_PROPERTIES ALPHA_AA D_AA PROTEIN AROMATIC POLYMER 
M  END

$$$$



 32 32  0  0  0  0  0  0  0  0999 V2000
   -0.3796    1.9081   -2.9308 H   0  0  0  1  0  0  0  0  0  0  0  0
   -0.5288    0.3410   -1.5383 C   0  0  0  1  0  0  0  0  0  0  0  0
    1.0007    2.2331   -1.4250 N   0  0  0  1  0  0  0  0  0  0  0  0
   -0.3355    1.8087   -1.8663 C   0  0  0  1  0  0  0  0  0  0  0  0
    0.2288   -0.5132   -1.9967 O   0  0  0  1  0  0  0  0  0  0  0  0
   -1.5494    0.0031   -0.7343 N   0  0  0  1  0  0  0  0  0  0  0  0
    1.0939    2.9779   -0.7949 H   0  0  0  1  0  0  0  0  0  0  0  0
    2.0992    1.5994   -1.8854 C   0  0  0  1  0  0  0  0  0  0  0  0
   -1.8919   -1.3832   -0.4538 C   0  0  0  1  0  0  0  0  0  0  0  0
    3.4432    1.9855   -1.2990 C   0  0  0  1  0  0  0  0  0  0  0  0
    2.0156    0.7336   -2.7555 O   0  0  0  1  0  0  0  0  0  0  0  0
   -2.0822    0.7147   -0.3220 H   0  0  0  1  0  0  0  0  0  0  0  0
   -1.3347   -2.0270   -1.1017 H   0  0  0  1  0  0  0  0  0  0  0  0
   -2.9388   -1.5319   -0.6178 H   0  0  0  1  0  0  0  0  0  0  0  0
   -1.6542   -1.6100    0.5645 H   0  0  0  1  0  0  0  0  0  0  0  0
    3.3069    2.3468   -0.3011 H   0  0  0  1  0  0  0  0  0  0  0  0
    3.8865    2.7529   -1.8985 H   0  0  0  1  0  0  0  0  0  0  0  0
    4.0845    1.1291   -1.2835 H   0  0  0  1  0  0  0  0  0  0  0  0
   -6.0782    1.3188   -0.9770 F   0  0  0  1  0  0  0  0  0  0  0  0
   -5.0612    1.8678   -1.6685 C   0  0  0  1  0  0  0  0  0  0  0  0
   -5.3093    2.2978   -2.9628 C   0  0  0  1  0  0  0  0  0  0  0  0
   -4.2932    2.8622   -3.7104 C   0  0  0  1  0  0  0  0  0  0  0  0
   -3.0271    3.0034   -3.1640 C   0  0  0  1  0  0  0  0  0  0  0  0
   -2.7794    2.5748   -1.8736 C   0  0  0  1  0  0  0  0  0  0  0  0
   -3.7987    2.0086   -1.1238 C   0  0  0  1  0  0  0  0  0  0  0  0
   -1.3985    2.7230   -1.2797 C   0  0  0  1  0  0  0  0  0  0  0  0
   -4.5761    3.2616   -4.9652 F   0  0  0  1  0  0  0  0  0  0  0  0
   -6.2602    2.1955   -3.3713 H   0  0  0  1  0  0  0  0  0  0  0  0
   -2.2634    3.4318   -3.7252 H   0  0  0  1  0  0  0  0  0  0  0  0
   -3.6135    1.6898   -0.1514 H   0  0  0  1  0  0  0  0  0  0  0  0
   -1.0823    3.7344   -1.4278 H   0  0  0  1  0  0  0  0  0  0  0  0
   -1.4666    2.5199   -0.2313 H   0  0  0  1  0  0  0  0  0  0  0  0
  1  4  1  0  0  0  0
  2  4  1  0  0  0  0
  2  5  2  0  0  0  0
  2  6  1  0  0  0  0
  3  4  1  0  0  0  0
  3  7  1  0  0  0  0
  3  8  1  0  0  0  0
  4 26  1  0  0  0  0
  6  9  1  0  0  0  0
  6 12  1  0  0  0  0
  8 10  1  0  0  0  0
  8 11  2  0  0  0  0
  9 13  1  0  0  0  0
  9 14  1  0  0  0  0
  9 15  1  0  0  0  0
 10 16  1  0  0  0  0
 10 17  1  0  0  0  0
 10 18  1  0  0  0  0
 19 20  1  0  0  0  0
 20 21  4  0  0  0  0
 20 25  4  0  0  0  0
 21 22  4  0  0  0  0
 21 28  1  0  0  0  0
 22 23  4  0  0  0  0
 22 27  1  0  0  0  0
 23 24  4  0  0  0  0
 23 29  1  0  0  0  0
 24 25  4  0  0  0  0
 24 26  1  0  0  0  0
 25 30  1  0  0  0  0
 26 31  1  0  0  0  0
 26 32  1  0  0  0  0
M  END
> <BCLConfClusterSize>
1

> <ConfClashScore>
0 

> <ConfOneFourInteractionScore>
-0.952541 

> <ConfScore>
0.192361 

> <ConfScorePBest>
0.00652372 

> <ConfTolerance>
0.419509 

> <RosettaParamsInstructions>
M  ROOT 3
M  POLY_N_BB 3
M  POLY_CA_BB 4
M  POLY_C_BB 2
M  POLY_O_BB 5
M  POLY_IGNORE 9 10 11 12 13 14 15 16 17 18 
M  POLY_UPPER 6
M  POLY_LOWER 8
M  POLY_CHG 0
M  POLY_PROPERTIES ALPHA_AA D_AA PROTEIN AROMATIC POLYMER 
M  END

$$$$



 32 32  0  0  0  0  0  0  0  0999 V2000
   -0.5178    1.1216   -2.3009 H   0  0  0  1  0  0  0  0  0  0  0  0
   -1.0110    0.4220   -0.3807 C   0  0  0  1  0  0  0  0  0  0  0  0
    0.8669    1.8989   -0.9918 N   0  0  0  1  0  0  0  0  0  0  0  0
   -0.5007    1.5121   -1.3049 C   0  0  0  1  0  0  0  0  0  0  0  0
   -1.1928    0.5726    0.8163 O   0  0  0  1  0  0  0  0  0  0  0  0
   -1.2639   -0.7583   -0.9533 N   0  0  0  1  0  0  0  0  0  0  0  0
    1.0486    2.8266   -0.7335 H   0  0  0  1  0  0  0  0  0  0  0  0
    1.8932    1.0247   -1.0449 C   0  0  0  1  0  0  0  0  0  0  0  0
   -1.8870   -1.8561   -0.2292 C   0  0  0  1  0  0  0  0  0  0  0  0
    3.2941    1.5550   -0.8095 C   0  0  0  1  0  0  0  0  0  0  0  0
    1.7008   -0.1680   -1.2773 O   0  0  0  1  0  0  0  0  0  0  0  0
   -1.0214   -0.8893   -1.8938 H   0  0  0  1  0  0  0  0  0  0  0  0
   -1.4677   -2.7841   -0.5576 H   0  0  0  1  0  0  0  0  0  0  0  0
   -2.9404   -1.8546   -0.4170 H   0  0  0  1  0  0  0  0  0  0  0  0
   -1.7110   -1.7367    0.8195 H   0  0  0  1  0  0  0  0  0  0  0  0
    3.3876    2.5252   -1.2510 H   0  0  0  1  0  0  0  0  0  0  0  0
    4.0059    0.8911   -1.2539 H   0  0  0  1  0  0  0  0  0  0  0  0
    3.4774    1.6230    0.2425 H   0  0  0  1  0  0  0  0  0  0  0  0
   -6.0561    1.3124   -0.9444 F   0  0  0  1  0  0  0  0  0  0  0  0
   -5.0671    1.8672   -1.6711 C   0  0  0  1  0  0  0  0  0  0  0  0
   -5.3152    2.2971   -2.9653 C   0  0  0  1  0  0  0  0  0  0  0  0
   -4.2991    2.8616   -3.7130 C   0  0  0  1  0  0  0  0  0  0  0  0
   -3.0330    3.0027   -3.1666 C   0  0  0  1  0  0  0  0  0  0  0  0
   -2.7853    2.5741   -1.8761 C   0  0  0  1  0  0  0  0  0  0  0  0
   -3.8046    2.0080   -1.1264 C   0  0  0  1  0  0  0  0  0  0  0  0
   -1.4045    2.7223   -1.2822 C   0  0  0  1  0  0  0  0  0  0  0  0
   -4.5390    3.2745   -4.9723 F   0  0  0  1  0  0  0  0  0  0  0  0
   -6.2661    2.1949   -3.3738 H   0  0  0  1  0  0  0  0  0  0  0  0
   -2.2693    3.4311   -3.7277 H   0  0  0  1  0  0  0  0  0  0  0  0
   -3.6194    1.6891   -0.1540 H   0  0  0  1  0  0  0  0  0  0  0  0
   -0.9073    3.5032   -1.8188 H   0  0  0  1  0  0  0  0  0  0  0  0
   -1.5253    3.0126   -0.2595 H   0  0  0  1  0  0  0  0  0  0  0  0
  1  4  1  0  0  0  0
  2  4  1  0  0  0  0
  2  5  2  0  0  0  0
  2  6  1  0  0  0  0
  3  4  1  0  0  0  0
  3  7  1  0  0  0  0
  3  8  1  0  0  0  0
  4 26  1  0  0  0  0
  6  9  1  0  0  0  0
  6 12  1  0  0  0  0
  8 10  1  0  0  0  0
  8 11  2  0  0  0  0
  9 13  1  0  0  0  0
  9 14  1  0  0  0  0
  9 15  1  0  0  0  0
 10 16  1  0  0  0  0
 10 17  1  0  0  0  0
 10 18  1  0  0  0  0
 19 20  1  0  0  0  0
 20 21  4  0  0  0  0
 20 25  4  0  0  0  0
 21 22  4  0  0  0  0
 21 28  1  0  0  0  0
 22 23  4  0  0  0  0
 22 27  1  0  0  0  0
 23 24  4  0  0  0  0
 23 29  1  0  0  0  0
 24 25  4  0  0  0  0
 24 26  1  0  0  0  0
 25 30  1  0  0  0  0
 26 31  1  0  0  0  0
 26 32  1  0  0  0  0
M  END
> <BCLConfClusterSize>
1

> <ConfClashScore>
0 

> <ConfOneFourInteractionScore>
-0.971454 

> <ConfScore>
0.193949 

> <ConfScorePBest>
0.00649524 

> <ConfTolerance>
0.388514 

> <RosettaParamsInstructions>
M  ROOT 3
M  POLY_N_BB 3
M  POLY_CA_BB 4
M  POLY_C_BB 2
M  POLY_O_BB 5
M  POLY_IGNORE 9 10 11 12 13 14 15 16 17 18 
M  POLY_UPPER 6
M  POLY_LOWER 8
M  POLY_CHG 0
M  POLY_PROPERTIES ALPHA_AA D_AA PROTEIN AROMATIC POLYMER 
M  END

$$$$



 32 32  0  0  0  0  0  0  0  0999 V2000
   -0.3647    3.6284    0.2947 H   0  0  0  1  0  0  0  0  0  0  0  0
   -2.2169    3.0792    1.1094 C   0  0  0  1  0  0  0  0  0  0  0  0
   -1.7359    4.9778   -0.4361 N   0  0  0  1  0  0  0  0  0  0  0  0
   -1.3794    3.6094   -0.0444 C   0  0  0  1  0  0  0  0  0  0  0  0
   -1.8043    2.1890    1.8344 O   0  0  0  1  0  0  0  0  0  0  0  0
   -3.4205    3.6522    1.2680 N   0  0  0  1  0  0  0  0  0  0  0  0
   -1.9658    5.1755   -1.3680 H   0  0  0  1  0  0  0  0  0  0  0  0
   -1.7477    5.9549    0.4751 C   0  0  0  1  0  0  0  0  0  0  0  0
   -4.2479    3.4110    2.4406 C   0  0  0  1  0  0  0  0  0  0  0  0
   -2.1452    7.3264   -0.0348 C   0  0  0  1  0  0  0  0  0  0  0  0
   -1.4575    5.7724    1.6567 O   0  0  0  1  0  0  0  0  0  0  0  0
   -3.7535    4.2539    0.5697 H   0  0  0  1  0  0  0  0  0  0  0  0
   -4.0210    2.4470    2.8457 H   0  0  0  1  0  0  0  0  0  0  0  0
   -5.2803    3.4464    2.1617 H   0  0  0  1  0  0  0  0  0  0  0  0
   -4.0507    4.1623    3.1765 H   0  0  0  1  0  0  0  0  0  0  0  0
   -1.2656    7.8971   -0.2477 H   0  0  0  1  0  0  0  0  0  0  0  0
   -2.7247    7.8297    0.7108 H   0  0  0  1  0  0  0  0  0  0  0  0
   -2.7260    7.2203   -0.9272 H   0  0  0  1  0  0  0  0  0  0  0  0
   -6.0561    1.3124   -0.9444 F   0  0  0  1  0  0  0  0  0  0  0  0
   -5.0671    1.8672   -1.6711 C   0  0  0  1  0  0  0  0  0  0  0  0
   -5.3152    2.2971   -2.9653 C   0  0  0  1  0  0  0  0  0  0  0  0
   -4.2991    2.8616   -3.7130 C   0  0  0  1  0  0  0  0  0  0  0  0
   -3.0330    3.0027   -3.1666 C   0  0  0  1  0  0  0  0  0  0  0  0
   -2.7853    2.5741   -1.8761 C   0  0  0  1  0  0  0  0  0  0  0  0
   -3.8046    2.0080   -1.1264 C   0  0  0  1  0  0  0  0  0  0  0  0
   -1.4045    2.7223   -1.2822 C   0  0  0  1  0  0  0  0  0  0  0  0
   -4.5390    3.2745   -4.9723 F   0  0  0  1  0  0  0  0  0  0  0  0
   -6.2661    2.1949   -3.3738 H   0  0  0  1  0  0  0  0  0  0  0  0
   -2.2693    3.4311   -3.7277 H   0  0  0  1  0  0  0  0  0  0  0  0
   -3.6194    1.6891   -0.1540 H   0  0  0  1  0  0  0  0  0  0  0  0
   -1.0436    1.7517   -1.0130 H   0  0  0  1  0  0  0  0  0  0  0  0
   -0.7600    3.1506   -2.0213 H   0  0  0  1  0  0  0  0  0  0  0  0
  1  4  1  0  0  0  0
  2  4  1  0  0  0  0
  2  5  2  0  0  0  0
  2  6  1  0  0  0  0
  3  4  1  0  0  0  0
  3  7  1  0  0  0  0
  3  8  1  0  0  0  0
  4 26  1  0  0  0  0
  6  9  1  0  0  0  0
  6 12  1  0  0  0  0
  8 10  1  0  0  0  0
  8 11  2  0  0  0  0
  9 13  1  0  0  0  0
  9 14  1  0  0  0  0
  9 15  1  0  0  0  0
 10 16  1  0  0  0  0
 10 17  1  0  0  0  0
 10 18  1  0  0  0  0
 19 20  1  0  0  0  0
 20 21  4  0  0  0  0
 20 25  4  0  0  0  0
 21 22  4  0  0  0  0
 21 28  1  0  0  0  0
 22 23  4  0  0  0  0
 22 27  1  0  0  0  0
 23 24  4  0  0  0  0
 23 29  1  0  0  0  0
 24 25  4  0  0  0  0
 24 26  1  0  0  0  0
 25 30  1  0  0  0  0
 26 31  1  0  0  0  0
 26 32  1  0  0  0  0
M  END
> <BCLConfClusterSize>
1

> <ConfClashScore>
0 

> <ConfOneFourInteractionScore>
-0.950605 

> <ConfScore>
0.194812 

> <ConfScorePBest>
0.00646676 

> <ConfTolerance>
0.274131 

> <RosettaParamsInstructions>
M  ROOT 3
M  POLY_N_BB 3
M  POLY_CA_BB 4
M  POLY_C_BB 2
M  POLY_O_BB 5
M  POLY_IGNORE 9 10 11 12 13 14 15 16 17 18 
M  POLY_UPPER 6
M  POLY_LOWER 8
M  POLY_CHG 0
M  POLY_PROPERTIES ALPHA_AA D_AA PROTEIN AROMATIC POLYMER 
M  END

$$$$



 32 32  0  0  0  0  0  0  0  0999 V2000
   -1.5172    4.7960   -0.9290 H   0  0  0  1  0  0  0  0  0  0  0  0
    0.2438    4.1174   -0.0124 C   0  0  0  1  0  0  0  0  0  0  0  0
   -2.0617    3.8176    0.7968 N   0  0  0  1  0  0  0  0  0  0  0  0
   -1.2116    3.9307   -0.3789 C   0  0  0  1  0  0  0  0  0  0  0  0
    1.0315    4.6569   -0.7851 O   0  0  0  1  0  0  0  0  0  0  0  0
    0.6042    3.6587    1.1966 N   0  0  0  1  0  0  0  0  0  0  0  0
   -2.6223    3.0205    0.9003 H   0  0  0  1  0  0  0  0  0  0  0  0
   -2.1045    4.7628    1.7402 C   0  0  0  1  0  0  0  0  0  0  0  0
    1.9024    3.9534    1.7846 C   0  0  0  1  0  0  0  0  0  0  0  0
   -3.0263    4.5140    2.9343 C   0  0  0  1  0  0  0  0  0  0  0  0
   -1.5028    5.8299    1.6322 O   0  0  0  1  0  0  0  0  0  0  0  0
   -0.0289    3.1062    1.7009 H   0  0  0  1  0  0  0  0  0  0  0  0
    2.2246    4.9243    1.4706 H   0  0  0  1  0  0  0  0  0  0  0  0
    2.6135    3.2209    1.4639 H   0  0  0  1  0  0  0  0  0  0  0  0
    1.8237    3.9317    2.8514 H   0  0  0  1  0  0  0  0  0  0  0  0
   -3.2050    3.4638    3.0349 H   0  0  0  1  0  0  0  0  0  0  0  0
   -3.9559    5.0204    2.7786 H   0  0  0  1  0  0  0  0  0  0  0  0
   -2.5630    4.8837    3.8252 H   0  0  0  1  0  0  0  0  0  0  0  0
   -6.0556    1.3105   -0.9392 F   0  0  0  1  0  0  0  0  0  0  0  0
   -5.0686    1.8657   -1.6683 C   0  0  0  1  0  0  0  0  0  0  0  0
   -5.3199    2.2947   -2.9622 C   0  0  0  1  0  0  0  0  0  0  0  0
   -4.3058    2.8595   -3.7124 C   0  0  0  1  0  0  0  0  0  0  0  0
   -3.0387    3.0020   -3.1688 C   0  0  0  1  0  0  0  0  0  0  0  0
   -2.7879    2.5744   -1.8786 C   0  0  0  1  0  0  0  0  0  0  0  0
   -3.8051    2.0078   -1.1264 C   0  0  0  1  0  0  0  0  0  0  0  0
   -1.4059    2.7240   -1.2878 C   0  0  0  1  0  0  0  0  0  0  0  0
   -4.5055    3.2847   -4.9747 F   0  0  0  1  0  0  0  0  0  0  0  0
   -6.2716    2.1914   -3.3686 H   0  0  0  1  0  0  0  0  0  0  0  0
   -2.2766    3.4307   -3.7318 H   0  0  0  1  0  0  0  0  0  0  0  0
   -3.6175    1.6897   -0.1541 H   0  0  0  1  0  0  0  0  0  0  0  0
   -1.1935    1.8438   -0.7177 H   0  0  0  1  0  0  0  0  0  0  0  0
   -0.7085    2.8034   -2.0954 H   0  0  0  1  0  0  0  0  0  0  0  0
  1  4  1  0  0  0  0
  2  4  1  0  0  0  0
  2  5  2  0  0  0  0
  2  6  1  0  0  0  0
  3  4  1  0  0  0  0
  3  7  1  0  0  0  0
  3  8  1  0  0  0  0
  4 26  1  0  0  0  0
  6  9  1  0  0  0  0
  6 12  1  0  0  0  0
  8 10  1  0  0  0  0
  8 11  2  0  0  0  0
  9 13  1  0  0  0  0
  9 14  1  0  0  0  0
  9 15  1  0  0  0  0
 10 16  1  0  0  0  0
 10 17  1  0  0  0  0
 10 18  1  0  0  0  0
 19 20  1  0  0  0  0
 20 21  4  0  0  0  0
 20 25  4  0  0  0  0
 21 22  4  0  0  0  0
 21 28  1  0  0  0  0
 22 23  4  0  0  0  0
 22 27  1  0  0  0  0
 23 24  4  0  0  0  0
 23 29  1  0  0  0  0
 24 25  4  0  0  0  0
 24 26  1  0  0  0  0
 25 30  1  0  0  0  0
 26 31  1  0  0  0  0
 26 32  1  0  0  0  0
M  END
> <BCLConfClusterSize>
1

> <ConfClashScore>
0 

> <ConfOneFourInteractionScore>
-0.956443 

> <ConfScore>
0.194831 

> <ConfScorePBest>
0.00643828 

> <ConfTolerance>
0.23474 

> <RosettaParamsInstructions>
M  ROOT 3
M  POLY_N_BB 3
M  POLY_CA_BB 4
M  POLY_C_BB 2
M  POLY_O_BB 5
M  POLY_IGNORE 9 10 11 12 13 14 15 16 17 18 
M  POLY_UPPER 6
M  POLY_LOWER 8
M  POLY_CHG 0
M  POLY_PROPERTIES ALPHA_AA D_AA PROTEIN AROMATIC POLYMER 
M  END

$$$$



 32 32  0  0  0  0  0  0  0  0999 V2000
    0.4333    1.6834   -1.0769 H   0  0  0  1  0  0  0  0  0  0  0  0
   -0.5032    0.9405   -2.8173 C   0  0  0  1  0  0  0  0  0  0  0  0
   -1.0915    0.4080   -0.5184 N   0  0  0  1  0  0  0  0  0  0  0  0
   -0.5636    1.4482   -1.3865 C   0  0  0  1  0  0  0  0  0  0  0  0
   -1.1023   -0.0782   -3.1591 O   0  0  0  1  0  0  0  0  0  0  0  0
    0.2381    1.6716   -3.6648 N   0  0  0  1  0  0  0  0  0  0  0  0
   -1.6916    0.6621    0.2135 H   0  0  0  1  0  0  0  0  0  0  0  0
   -0.7753   -0.9311   -0.6902 C   0  0  0  1  0  0  0  0  0  0  0  0
    0.4346    1.3681   -5.0744 C   0  0  0  1  0  0  0  0  0  0  0  0
   -1.4596   -1.9589    0.1667 C   0  0  0  1  0  0  0  0  0  0  0  0
    0.0500   -1.2309   -1.5336 O   0  0  0  1  0  0  0  0  0  0  0  0
    0.6801    2.4698   -3.3072 H   0  0  0  1  0  0  0  0  0  0  0  0
   -0.4059    0.8172   -5.4417 H   0  0  0  1  0  0  0  0  0  0  0  0
    1.3231    0.7837   -5.1927 H   0  0  0  1  0  0  0  0  0  0  0  0
    0.5312    2.2803   -5.6253 H   0  0  0  1  0  0  0  0  0  0  0  0
   -1.2462   -1.7642    1.1970 H   0  0  0  1  0  0  0  0  0  0  0  0
   -1.1032   -2.9338   -0.0930 H   0  0  0  1  0  0  0  0  0  0  0  0
   -2.5163   -1.9104    0.0062 H   0  0  0  1  0  0  0  0  0  0  0  0
   -6.0778    1.3168   -0.9716 F   0  0  0  1  0  0  0  0  0  0  0  0
   -5.0627    1.8663   -1.6656 C   0  0  0  1  0  0  0  0  0  0  0  0
   -5.3139    2.2953   -2.9596 C   0  0  0  1  0  0  0  0  0  0  0  0
   -4.2999    2.8601   -3.7097 C   0  0  0  1  0  0  0  0  0  0  0  0
   -3.0327    3.0026   -3.1661 C   0  0  0  1  0  0  0  0  0  0  0  0
   -2.7819    2.5750   -1.8759 C   0  0  0  1  0  0  0  0  0  0  0  0
   -3.7992    2.0085   -1.1237 C   0  0  0  1  0  0  0  0  0  0  0  0
   -1.3999    2.7247   -1.2851 C   0  0  0  1  0  0  0  0  0  0  0  0
   -4.5428    3.2721   -4.9688 F   0  0  0  1  0  0  0  0  0  0  0  0
   -6.2657    2.1920   -3.3660 H   0  0  0  1  0  0  0  0  0  0  0  0
   -2.2706    3.4313   -3.7292 H   0  0  0  1  0  0  0  0  0  0  0  0
   -3.6116    1.6903   -0.1515 H   0  0  0  1  0  0  0  0  0  0  0  0
   -0.8900    3.5082   -1.8057 H   0  0  0  1  0  0  0  0  0  0  0  0
   -1.4976    2.9867   -0.2523 H   0  0  0  1  0  0  0  0  0  0  0  0
  1  4  1  0  0  0  0
  2  4  1  0  0  0  0
  2  5  2  0  0  0  0
  2  6  1  0  0  0  0
  3  4  1  0  0  0  0
  3  7  1  0  0  0  0
  3  8  1  0  0  0  0
  4 26  1  0  0  0  0
  6  9  1  0  0  0  0
  6 12  1  0  0  0  0
  8 10  1  0  0  0  0
  8 11  2  0  0  0  0
  9 13  1  0  0  0  0
  9 14  1  0  0  0  0
  9 15  1  0  0  0  0
 10 16  1  0  0  0  0
 10 17  1  0  0  0  0
 10 18  1  0  0  0  0
 19 20  1  0  0  0  0
 20 21  4  0  0  0  0
 20 25  4  0  0  0  0
 21 22  4  0  0  0  0
 21 28  1  0  0  0  0
 22 23  4  0  0  0  0
 22 27  1  0  0  0  0
 23 24  4  0  0  0  0
 23 29  1  0  0  0  0
 24 25  4  0  0  0  0
 24 26  1  0  0  0  0
 25 30  1  0  0  0  0
 26 31  1  0  0  0  0
 26 32  1  0  0  0  0
M  END
> <BCLConfClusterSize>
1

> <ConfClashScore>
0 

> <ConfOneFourInteractionScore>
-0.975514 

> <ConfScore>
0.195949 

> <ConfScorePBest>
0.0064098 

> <ConfTolerance>
0.330352 

> <RosettaParamsInstructions>
M  ROOT 3
M  POLY_N_BB 3
M  POLY_CA_BB 4
M  POLY_C_BB 2
M  POLY_O_BB 5
M  POLY_IGNORE 9 10 11 12 13 14 15 16 17 18 
M  POLY_UPPER 6
M  POLY_LOWER 8
M  POLY_CHG 0
M  POLY_PROPERTIES ALPHA_AA D_AA PROTEIN AROMATIC POLYMER 
M  END

$$$$



 32 32  0  0  0  0  0  0  0  0999 V2000
   -2.0107    3.9188    0.3273 H   0  0  0  1  0  0  0  0  0  0  0  0
   -1.4888    5.2744   -1.1900 C   0  0  0  1  0  0  0  0  0  0  0  0
    0.0461    3.9287    0.2520 N   0  0  0  1  0  0  0  0  0  0  0  0
   -1.2539    3.9736   -0.4271 C   0  0  0  1  0  0  0  0  0  0  0  0
   -2.6214    5.6477   -1.4472 O   0  0  0  1  0  0  0  0  0  0  0  0
   -0.3821    5.9748   -1.4544 N   0  0  0  1  0  0  0  0  0  0  0  0
    0.6679    3.2029    0.0355 H   0  0  0  1  0  0  0  0  0  0  0  0
    0.4114    4.8429    1.1552 C   0  0  0  1  0  0  0  0  0  0  0  0
   -0.4264    7.3089   -2.0341 C   0  0  0  1  0  0  0  0  0  0  0  0
    1.7418    4.5894    1.8526 C   0  0  0  1  0  0  0  0  0  0  0  0
   -0.2645    5.8247    1.4179 O   0  0  0  1  0  0  0  0  0  0  0  0
    0.4897    5.5762   -1.2509 H   0  0  0  1  0  0  0  0  0  0  0  0
   -0.8770    7.9857   -1.3386 H   0  0  0  1  0  0  0  0  0  0  0  0
   -1.0032    7.2871   -2.9350 H   0  0  0  1  0  0  0  0  0  0  0  0
    0.5686    7.6348   -2.2548 H   0  0  0  1  0  0  0  0  0  0  0  0
    2.5399    4.6918    1.1474 H   0  0  0  1  0  0  0  0  0  0  0  0
    1.7488    3.5991    2.2576 H   0  0  0  1  0  0  0  0  0  0  0  0
    1.8710    5.2993    2.6427 H   0  0  0  1  0  0  0  0  0  0  0  0
   -6.0561    1.3124   -0.9444 F   0  0  0  1  0  0  0  0  0  0  0  0
   -5.0671    1.8672   -1.6711 C   0  0  0  1  0  0  0  0  0  0  0  0
   -5.3152    2.2971   -2.9653 C   0  0  0  1  0  0  0  0  0  0  0  0
   -4.2991    2.8616   -3.7130 C   0  0  0  1  0  0  0  0  0  0  0  0
   -3.0330    3.0027   -3.1666 C   0  0  0  1  0  0  0  0  0  0  0  0
   -2.7853    2.5741   -1.8761 C   0  0  0  1  0  0  0  0  0  0  0  0
   -3.8046    2.0080   -1.1264 C   0  0  0  1  0  0  0  0  0  0  0  0
   -1.4045    2.7223   -1.2822 C   0  0  0  1  0  0  0  0  0  0  0  0
   -4.5390    3.2745   -4.9723 F   0  0  0  1  0  0  0  0  0  0  0  0
   -6.2661    2.1949   -3.3738 H   0  0  0  1  0  0  0  0  0  0  0  0
   -2.2693    3.4311   -3.7277 H   0  0  0  1  0  0  0  0  0  0  0  0
   -3.6194    1.6891   -0.1540 H   0  0  0  1  0  0  0  0  0  0  0  0
   -1.2024    1.8667   -0.6723 H   0  0  0  1  0  0  0  0  0  0  0  0
   -0.6935    2.7678   -2.0806 H   0  0  0  1  0  0  0  0  0  0  0  0
  1  4  1  0  0  0  0
  2  4  1  0  0  0  0
  2  5  2  0  0  0  0
  2  6  1  0  0  0  0
  3  4  1  0  0  0  0
  3  7  1  0  0  0  0
  3  8  1  0  0  0  0
  4 26  1  0  0  0  0
  6  9  1  0  0  0  0
  6 12  1  0  0  0  0
  8 10  1  0  0  0  0
  8 11  2  0  0  0  0
  9 13  1  0  0  0  0
  9 14  1  0  0  0  0
  9 15  1  0  0  0  0
 10 16  1  0  0  0  0
 10 17  1  0  0  0  0
 10 18  1  0  0  0  0
 19 20  1  0  0  0  0
 20 21  4  0  0  0  0
 20 25  4  0  0  0  0
 21 22  4  0  0  0  0
 21 28  1  0  0  0  0
 22 23  4  0  0  0  0
 22 27  1  0  0  0  0
 23 24  4  0  0  0  0
 23 29  1  0  0  0  0
 24 25  4  0  0  0  0
 24 26  1  0  0  0  0
 25 30  1  0  0  0  0
 26 31  1  0  0  0  0
 26 32  1  0  0  0  0
M  END
> <BCLConfClusterSize>
1

> <ConfClashScore>
0 

> <ConfOneFourInteractionScore>
-0.960318 

> <ConfScore>
0.198664 

> <ConfScorePBest>
0.00638132 

> <ConfTolerance>
0.244951 

> <RosettaParamsInstructions>
M  ROOT 3
M  POLY_N_BB 3
M  POLY_CA_BB 4
M  POLY_C_BB 2
M  POLY_O_BB 5
M  POLY_IGNORE 9 10 11 12 13 14 15 16 17 18 
M  POLY_UPPER 6
M  POLY_LOWER 8
M  POLY_CHG 0
M  POLY_PROPERTIES ALPHA_AA D_AA PROTEIN AROMATIC POLYMER 
M  END

$$$$



 32 32  0  0  0  0  0  0  0  0999 V2000
    0.4006    1.6760   -1.0031 H   0  0  0  1  0  0  0  0  0  0  0  0
   -0.3853    0.9486   -2.8118 C   0  0  0  1  0  0  0  0  0  0  0  0
   -1.1587    0.3870   -0.5716 N   0  0  0  1  0  0  0  0  0  0  0  0
   -0.5702    1.4535   -1.3941 C   0  0  0  1  0  0  0  0  0  0  0  0
    0.2268    1.6091   -3.6501 O   0  0  0  1  0  0  0  0  0  0  0  0
   -0.9257   -0.2439   -3.0784 N   0  0  0  1  0  0  0  0  0  0  0  0
   -2.1227    0.3811   -0.3953 H   0  0  0  1  0  0  0  0  0  0  0  0
   -0.3529   -0.6107   -0.0447 C   0  0  0  1  0  0  0  0  0  0  0  0
   -0.6149   -0.9844   -4.2920 C   0  0  0  1  0  0  0  0  0  0  0  0
   -0.9710   -1.6595    0.8368 C   0  0  0  1  0  0  0  0  0  0  0  0
    0.8342   -0.6038   -0.3150 O   0  0  0  1  0  0  0  0  0  0  0  0
   -1.5532   -0.6334   -2.4342 H   0  0  0  1  0  0  0  0  0  0  0  0
    0.4447   -1.1092   -4.3728 H   0  0  0  1  0  0  0  0  0  0  0  0
   -0.9760   -0.4436   -5.1418 H   0  0  0  1  0  0  0  0  0  0  0  0
   -1.0851   -1.9448   -4.2537 H   0  0  0  1  0  0  0  0  0  0  0  0
   -1.8228   -2.0819    0.3459 H   0  0  0  1  0  0  0  0  0  0  0  0
   -1.2765   -1.2139    1.7604 H   0  0  0  1  0  0  0  0  0  0  0  0
   -0.2538   -2.4292    1.0316 H   0  0  0  1  0  0  0  0  0  0  0  0
   -6.0556    1.3105   -0.9392 F   0  0  0  1  0  0  0  0  0  0  0  0
   -5.0686    1.8657   -1.6683 C   0  0  0  1  0  0  0  0  0  0  0  0
   -5.3199    2.2947   -2.9622 C   0  0  0  1  0  0  0  0  0  0  0  0
   -4.3058    2.8595   -3.7124 C   0  0  0  1  0  0  0  0  0  0  0  0
   -3.0387    3.0020   -3.1688 C   0  0  0  1  0  0  0  0  0  0  0  0
   -2.7879    2.5744   -1.8786 C   0  0  0  1  0  0  0  0  0  0  0  0
   -3.8051    2.0078   -1.1264 C   0  0  0  1  0  0  0  0  0  0  0  0
   -1.4059    2.7240   -1.2878 C   0  0  0  1  0  0  0  0  0  0  0  0
   -4.5055    3.2847   -4.9747 F   0  0  0  1  0  0  0  0  0  0  0  0
   -6.2716    2.1914   -3.3686 H   0  0  0  1  0  0  0  0  0  0  0  0
   -2.2766    3.4307   -3.7318 H   0  0  0  1  0  0  0  0  0  0  0  0
   -3.6175    1.6897   -0.1541 H   0  0  0  1  0  0  0  0  0  0  0  0
   -0.8975    3.5104   -1.8056 H   0  0  0  1  0  0  0  0  0  0  0  0
   -1.5036    2.9819   -0.2539 H   0  0  0  1  0  0  0  0  0  0  0  0
  1  4  1  0  0  0  0
  2  4  1  0  0  0  0
  2  5  2  0  0  0  0
  2  6  1  0  0  0  0
  3  4  1  0  0  0  0
  3  7  1  0  0  0  0
  3  8  1  0  0  0  0
  4 26  1  0  0  0  0
  6  9  1  0  0  0  0
  6 12  1  0  0  0  0
  8 10  1  0  0  0  0
  8 11  2  0  0  0  0
  9 13  1  0  0  0  0
  9 14  1  0  0  0  0
  9 15  1  0  0  0  0
 10 16  1  0  0  0  0
 10 17  1  0  0  0  0
 10 18  1  0  0  0  0
 19 20  1  0  0  0  0
 20 21  4  0  0  0  0
 20 25  4  0  0  0  0
 21 22  4  0  0  0  0
 21 28  1  0  0  0  0
 22 23  4  0  0  0  0
 22 27  1  0  0  0  0
 23 24  4  0  0  0  0
 23 29  1  0  0  0  0
 24 25  4  0  0  0  0
 24 26  1  0  0  0  0
 25 30  1  0  0  0  0
 26 31  1  0  0  0  0
 26 32  1  0  0  0  0
M  END
> <BCLConfClusterSize>
1

> <ConfClashScore>
0 

> <ConfOneFourInteractionScore>
-0.931937 

> <ConfScore>
0.200541 

> <ConfScorePBest>
0.00635284 

> <ConfTolerance>
0.291725 

> <RosettaParamsInstructions>
M  ROOT 3
M  POLY_N_BB 3
M  POLY_CA_BB 4
M  POLY_C_BB 2
M  POLY_O_BB 5
M  POLY_IGNORE 9 10 11 12 13 14 15 16 17 18 
M  POLY_UPPER 6
M  POLY_LOWER 8
M  POLY_CHG 0
M  POLY_PROPERTIES ALPHA_AA D_AA PROTEIN AROMATIC POLYMER 
M  END

$$$$



 32 32  0  0  0  0  0  0  0  0999 V2000
   -1.6958    4.2367    0.1906 H   0  0  0  1  0  0  0  0  0  0  0  0
   -1.4671    5.1219   -1.7208 C   0  0  0  1  0  0  0  0  0  0  0  0
    0.3128    4.1189   -0.3016 N   0  0  0  1  0  0  0  0  0  0  0  0
   -1.0922    4.0780   -0.6786 C   0  0  0  1  0  0  0  0  0  0  0  0
   -2.6416    5.3844   -1.9662 O   0  0  0  1  0  0  0  0  0  0  0  0
   -0.4390    5.7232   -2.3401 N   0  0  0  1  0  0  0  0  0  0  0  0
    0.8433    3.2973   -0.3637 H   0  0  0  1  0  0  0  0  0  0  0  0
    0.9047    5.2377    0.1263 C   0  0  0  1  0  0  0  0  0  0  0  0
   -0.6346    6.7352   -3.3675 C   0  0  0  1  0  0  0  0  0  0  0  0
    2.2980    5.0679    0.6998 C   0  0  0  1  0  0  0  0  0  0  0  0
    0.3693    6.3435    0.0668 O   0  0  0  1  0  0  0  0  0  0  0  0
    0.4751    5.4718   -2.0918 H   0  0  0  1  0  0  0  0  0  0  0  0
   -1.4275    6.4335   -4.0196 H   0  0  0  1  0  0  0  0  0  0  0  0
    0.2672    6.8491   -3.9319 H   0  0  0  1  0  0  0  0  0  0  0  0
   -0.8875    7.6670   -2.9063 H   0  0  0  1  0  0  0  0  0  0  0  0
    2.9781    4.8091   -0.0847 H   0  0  0  1  0  0  0  0  0  0  0  0
    2.2887    4.2900    1.4344 H   0  0  0  1  0  0  0  0  0  0  0  0
    2.6105    5.9848    1.1543 H   0  0  0  1  0  0  0  0  0  0  0  0
   -6.0480    1.3115   -0.9364 F   0  0  0  1  0  0  0  0  0  0  0  0
   -5.0639    1.8673   -1.6690 C   0  0  0  1  0  0  0  0  0  0  0  0
   -5.3197    2.2948   -2.9625 C   0  0  0  1  0  0  0  0  0  0  0  0
   -4.3086    2.8603   -3.7163 C   0  0  0  1  0  0  0  0  0  0  0  0
   -3.0399    3.0047   -3.1767 C   0  0  0  1  0  0  0  0  0  0  0  0
   -2.7847    2.5785   -1.8870 C   0  0  0  1  0  0  0  0  0  0  0  0
   -3.7989    2.0113   -1.1311 C   0  0  0  1  0  0  0  0  0  0  0  0
   -1.4218    2.7044   -1.2480 C   0  0  0  1  0  0  0  0  0  0  0  0
   -4.5127    3.2841   -4.9783 F   0  0  0  1  0  0  0  0  0  0  0  0
   -6.2725    2.1901   -3.3659 H   0  0  0  1  0  0  0  0  0  0  0  0
   -2.2801    3.4338   -3.7425 H   0  0  0  1  0  0  0  0  0  0  0  0
   -3.6079    1.6943   -0.1592 H   0  0  0  1  0  0  0  0  0  0  0  0
   -1.3644    1.9938   -0.4501 H   0  0  0  1  0  0  0  0  0  0  0  0
   -0.6868    2.4693   -1.9892 H   0  0  0  1  0  0  0  0  0  0  0  0
  1  4  1  0  0  0  0
  2  4  1  0  0  0  0
  2  5  2  0  0  0  0
  2  6  1  0  0  0  0
  3  4  1  0  0  0  0
  3  7  1  0  0  0  0
  3  8  1  0  0  0  0
  4 26  1  0  0  0  0
  6  9  1  0  0  0  0
  6 12  1  0  0  0  0
  8 10  1  0  0  0  0
  8 11  2  0  0  0  0
  9 13  1  0  0  0  0
  9 14  1  0  0  0  0
  9 15  1  0  0  0  0
 10 16  1  0  0  0  0
 10 17  1  0  0  0  0
 10 18  1  0  0  0  0
 19 20  1  0  0  0  0
 20 21  4  0  0  0  0
 20 25  4  0  0  0  0
 21 22  4  0  0  0  0
 21 28  1  0  0  0  0
 22 23  4  0  0  0  0
 22 27  1  0  0  0  0
 23 24  4  0  0  0  0
 23 29  1  0  0  0  0
 24 25  4  0  0  0  0
 24 26  1  0  0  0  0
 25 30  1  0  0  0  0
 26 31  1  0  0  0  0
 26 32  1  0  0  0  0
M  END
> <BCLConfClusterSize>
1

> <ConfClashScore>
0 

> <ConfOneFourInteractionScore>
-0.949394 

> <ConfScore>
0.202054 

> <ConfScorePBest>
0.00632436 

> <ConfTolerance>
0.206773 

> <RosettaParamsInstructions>
M  ROOT 3
M  POLY_N_BB 3
M  POLY_CA_BB 4
M  POLY_C_BB 2
M  POLY_O_BB 5
M  POLY_IGNORE 9 10 11 12 13 14 15 16 17 18 
M  POLY_UPPER 6
M  POLY_LOWER 8
M  POLY_CHG 0
M  POLY_PROPERTIES ALPHA_AA D_AA PROTEIN AROMATIC POLYMER 
M  END

$$$$



 32 32  0  0  0  0  0  0  0  0999 V2000
   -0.8160    0.7012   -1.1060 H   0  0  0  1  0  0  0  0  0  0  0  0
    0.9310    1.8899   -0.9976 C   0  0  0  1  0  0  0  0  0  0  0  0
   -0.3793    1.3625   -3.0156 N   0  0  0  1  0  0  0  0  0  0  0  0
   -0.4417    1.5845   -1.5799 C   0  0  0  1  0  0  0  0  0  0  0  0
    1.2228    1.5424    0.1450 O   0  0  0  1  0  0  0  0  0  0  0  0
    1.8069    2.5455   -1.7645 N   0  0  0  1  0  0  0  0  0  0  0  0
   -0.9769    1.8583   -3.6135 H   0  0  0  1  0  0  0  0  0  0  0  0
    0.4911    0.4841   -3.5214 C   0  0  0  1  0  0  0  0  0  0  0  0
    3.1446    2.8807   -1.3034 C   0  0  0  1  0  0  0  0  0  0  0  0
    0.3640    0.2120   -5.0077 C   0  0  0  1  0  0  0  0  0  0  0  0
    1.3463   -0.0770   -2.8416 O   0  0  0  1  0  0  0  0  0  0  0  0
    1.5384    2.8097   -2.6692 H   0  0  0  1  0  0  0  0  0  0  0  0
    3.2973    2.4750   -0.3251 H   0  0  0  1  0  0  0  0  0  0  0  0
    3.2536    3.9446   -1.2690 H   0  0  0  1  0  0  0  0  0  0  0  0
    3.8672    2.4692   -1.9767 H   0  0  0  1  0  0  0  0  0  0  0  0
    0.6156    1.0961   -5.5555 H   0  0  0  1  0  0  0  0  0  0  0  0
   -0.6426   -0.0725   -5.2331 H   0  0  0  1  0  0  0  0  0  0  0  0
    1.0291   -0.5795   -5.2833 H   0  0  0  1  0  0  0  0  0  0  0  0
   -6.0561    1.3124   -0.9444 F   0  0  0  1  0  0  0  0  0  0  0  0
   -5.0671    1.8672   -1.6711 C   0  0  0  1  0  0  0  0  0  0  0  0
   -5.3152    2.2971   -2.9653 C   0  0  0  1  0  0  0  0  0  0  0  0
   -4.2991    2.8616   -3.7130 C   0  0  0  1  0  0  0  0  0  0  0  0
   -3.0330    3.0027   -3.1666 C   0  0  0  1  0  0  0  0  0  0  0  0
   -2.7853    2.5741   -1.8761 C   0  0  0  1  0  0  0  0  0  0  0  0
   -3.8046    2.0080   -1.1264 C   0  0  0  1  0  0  0  0  0  0  0  0
   -1.4045    2.7223   -1.2822 C   0  0  0  1  0  0  0  0  0  0  0  0
   -4.5390    3.2745   -4.9723 F   0  0  0  1  0  0  0  0  0  0  0  0
   -6.2661    2.1949   -3.3738 H   0  0  0  1  0  0  0  0  0  0  0  0
   -2.2693    3.4311   -3.7277 H   0  0  0  1  0  0  0  0  0  0  0  0
   -3.6194    1.6891   -0.1540 H   0  0  0  1  0  0  0  0  0  0  0  0
   -0.9762    3.6255   -1.6640 H   0  0  0  1  0  0  0  0  0  0  0  0
   -1.5083    2.7974   -0.2199 H   0  0  0  1  0  0  0  0  0  0  0  0
  1  4  1  0  0  0  0
  2  4  1  0  0  0  0
  2  5  2  0  0  0  0
  2  6  1  0  0  0  0
  3  4  1  0  0  0  0
  3  7  1  0  0  0  0
  3  8  1  0  0  0  0
  4 26  1  0  0  0  0
  6  9  1  0  0  0  0
  6 12  1  0  0  0  0
  8 10  1  0  0  0  0
  8 11  2  0  0  0  0
  9 13  1  0  0  0  0
  9 14  1  0  0  0  0
  9 15  1  0  0  0  0
 10 16  1  0  0  0  0
 10 17  1  0  0  0  0
 10 18  1  0  0  0  0
 19 20  1  0  0  0  0
 20 21  4  0  0  0  0
 20 25  4  0  0  0  0
 21 22  4  0  0  0  0
 21 28  1  0  0  0  0
 22 23  4  0  0  0  0
 22 27  1  0  0  0  0
 23 24  4  0  0  0  0
 23 29  1  0  0  0  0
 24 25  4  0  0  0  0
 24 26  1  0  0  0  0
 25 30  1  0  0  0  0
 26 31  1  0  0  0  0
 26 32  1  0  0  0  0
M  END
> <BCLConfClusterSize>
1

> <ConfClashScore>
0 

> <ConfOneFourInteractionScore>
-0.960318 

> <ConfScore>
0.205136 

> <ConfScorePBest>
0.00629587 

> <ConfTolerance>
0.287887 

> <RosettaParamsInstructions>
M  ROOT 3
M  POLY_N_BB 3
M  POLY_CA_BB 4
M  POLY_C_BB 2
M  POLY_O_BB 5
M  POLY_IGNORE 9 10 11 12 13 14 15 16 17 18 
M  POLY_UPPER 6
M  POLY_LOWER 8
M  POLY_CHG 0
M  POLY_PROPERTIES ALPHA_AA D_AA PROTEIN AROMATIC POLYMER 
M  END

$$$$



 32 32  0  0  0  0  0  0  0  0999 V2000
   -1.0250    4.7440   -1.6932 H   0  0  0  1  0  0  0  0  0  0  0  0
    0.2355    4.2382   -0.0917 C   0  0  0  1  0  0  0  0  0  0  0  0
   -2.1772    4.7090    0.0103 N   0  0  0  1  0  0  0  0  0  0  0  0
   -1.1056    4.1403   -0.8134 C   0  0  0  1  0  0  0  0  0  0  0  0
    1.2929    4.2824   -0.7150 O   0  0  0  1  0  0  0  0  0  0  0  0
    0.1757    4.2714    1.2404 N   0  0  0  1  0  0  0  0  0  0  0  0
   -2.8936    4.0951    0.2755 H   0  0  0  1  0  0  0  0  0  0  0  0
   -2.2890    5.9815    0.4447 C   0  0  0  1  0  0  0  0  0  0  0  0
    1.3022    4.5510    2.1183 C   0  0  0  1  0  0  0  0  0  0  0  0
   -3.5669    6.3824    1.1556 C   0  0  0  1  0  0  0  0  0  0  0  0
   -1.3822    6.7945    0.2703 O   0  0  0  1  0  0  0  0  0  0  0  0
   -0.6922    4.0942    1.6595 H   0  0  0  1  0  0  0  0  0  0  0  0
    1.0798    4.2049    3.1060 H   0  0  0  1  0  0  0  0  0  0  0  0
    1.4822    5.6055    2.1422 H   0  0  0  1  0  0  0  0  0  0  0  0
    2.1728    4.0483    1.7521 H   0  0  0  1  0  0  0  0  0  0  0  0
   -4.3615    6.4630    0.4435 H   0  0  0  1  0  0  0  0  0  0  0  0
   -3.4247    7.3262    1.6392 H   0  0  0  1  0  0  0  0  0  0  0  0
   -3.8163    5.6409    1.8856 H   0  0  0  1  0  0  0  0  0  0  0  0
   -6.0561    1.3124   -0.9444 F   0  0  0  1  0  0  0  0  0  0  0  0
   -5.0671    1.8672   -1.6711 C   0  0  0  1  0  0  0  0  0  0  0  0
   -5.3152    2.2971   -2.9653 C   0  0  0  1  0  0  0  0  0  0  0  0
   -4.2991    2.8616   -3.7130 C   0  0  0  1  0  0  0  0  0  0  0  0
   -3.0330    3.0027   -3.1666 C   0  0  0  1  0  0  0  0  0  0  0  0
   -2.7853    2.5741   -1.8761 C   0  0  0  1  0  0  0  0  0  0  0  0
   -3.8046    2.0080   -1.1264 C   0  0  0  1  0  0  0  0  0  0  0  0
   -1.4045    2.7223   -1.2822 C   0  0  0  1  0  0  0  0  0  0  0  0
   -4.5390    3.2745   -4.9723 F   0  0  0  1  0  0  0  0  0  0  0  0
   -6.2661    2.1949   -3.3738 H   0  0  0  1  0  0  0  0  0  0  0  0
   -2.2693    3.4311   -3.7277 H   0  0  0  1  0  0  0  0  0  0  0  0
   -3.6194    1.6891   -0.1540 H   0  0  0  1  0  0  0  0  0  0  0  0
   -1.3214    2.0620   -0.4444 H   0  0  0  1  0  0  0  0  0  0  0  0
   -0.6835    2.4500   -2.0245 H   0  0  0  1  0  0  0  0  0  0  0  0
  1  4  1  0  0  0  0
  2  4  1  0  0  0  0
  2  5  2  0  0  0  0
  2  6  1  0  0  0  0
  3  4  1  0  0  0  0
  3  7  1  0  0  0  0
  3  8  1  0  0  0  0
  4 26  1  0  0  0  0
  6  9  1  0  0  0  0
  6 12  1  0  0  0  0
  8 10  1  0  0  0  0
  8 11  2  0  0  0  0
  9 13  1  0  0  0  0
  9 14  1  0  0  0  0
  9 15  1  0  0  0  0
 10 16  1  0  0  0  0
 10 17  1  0  0  0  0
 10 18  1  0  0  0  0
 19 20  1  0  0  0  0
 20 21  4  0  0  0  0
 20 25  4  0  0  0  0
 21 22  4  0  0  0  0
 21 28  1  0  0  0  0
 22 23  4  0  0  0  0
 22 27  1  0  0  0  0
 23 24  4  0  0  0  0
 23 29  1  0  0  0  0
 24 25  4  0  0  0  0
 24 26  1  0  0  0  0
 25 30  1  0  0  0  0
 26 31  1  0  0  0  0
 26 32  1  0  0  0  0
M  END
> <BCLConfClusterSize>
1

> <ConfClashScore>
0 

> <ConfOneFourInteractionScore>
-0.94165 

> <ConfScore>
0.205563 

> <ConfScorePBest>
0.00626739 

> <ConfTolerance>
0.322015 

> <RosettaParamsInstructions>
M  ROOT 3
M  POLY_N_BB 3
M  POLY_CA_BB 4
M  POLY_C_BB 2
M  POLY_O_BB 5
M  POLY_IGNORE 9 10 11 12 13 14 15 16 17 18 
M  POLY_UPPER 6
M  POLY_LOWER 8
M  POLY_CHG 0
M  POLY_PROPERTIES ALPHA_AA D_AA PROTEIN AROMATIC POLYMER 
M  END

$$$$



 32 32  0  0  0  0  0  0  0  0999 V2000
   -0.9465    0.6609   -1.3757 H   0  0  0  1  0  0  0  0  0  0  0  0
    0.8231    1.7239   -0.8765 C   0  0  0  1  0  0  0  0  0  0  0  0
   -0.1976    1.5769   -3.0862 N   0  0  0  1  0  0  0  0  0  0  0  0
   -0.4681    1.5756   -1.6575 C   0  0  0  1  0  0  0  0  0  0  0  0
    0.9228    1.3094    0.2666 O   0  0  0  1  0  0  0  0  0  0  0  0
    1.8244    2.3304   -1.5203 N   0  0  0  1  0  0  0  0  0  0  0  0
   -0.0331    2.4233   -3.5520 H   0  0  0  1  0  0  0  0  0  0  0  0
   -0.1726    0.4169   -3.7710 C   0  0  0  1  0  0  0  0  0  0  0  0
    3.0721    2.6128   -0.8289 C   0  0  0  1  0  0  0  0  0  0  0  0
    0.2578    0.5718   -5.2167 C   0  0  0  1  0  0  0  0  0  0  0  0
   -0.4643   -0.6792   -3.3002 O   0  0  0  1  0  0  0  0  0  0  0  0
    1.7178    2.5856   -2.4604 H   0  0  0  1  0  0  0  0  0  0  0  0
    2.9414    2.4573    0.2217 H   0  0  0  1  0  0  0  0  0  0  0  0
    3.3558    3.6291   -1.0062 H   0  0  0  1  0  0  0  0  0  0  0  0
    3.8373    1.9596   -1.1934 H   0  0  0  1  0  0  0  0  0  0  0  0
   -0.4196    1.2276   -5.7227 H   0  0  0  1  0  0  0  0  0  0  0  0
    0.2515   -0.3853   -5.6950 H   0  0  0  1  0  0  0  0  0  0  0  0
    1.2451    0.9826   -5.2526 H   0  0  0  1  0  0  0  0  0  0  0  0
   -6.0635    1.3134   -0.9524 F   0  0  0  1  0  0  0  0  0  0  0  0
   -5.0698    1.8673   -1.6733 C   0  0  0  1  0  0  0  0  0  0  0  0
   -5.3106    2.2995   -2.9682 C   0  0  0  1  0  0  0  0  0  0  0  0
   -4.2896    2.8630   -3.7099 C   0  0  0  1  0  0  0  0  0  0  0  0
   -3.0260    3.0009   -3.1570 C   0  0  0  1  0  0  0  0  0  0  0  0
   -2.7857    2.5701   -1.8659 C   0  0  0  1  0  0  0  0  0  0  0  0
   -3.8098    2.0049   -1.1220 C   0  0  0  1  0  0  0  0  0  0  0  0
   -1.3896    2.7388   -1.3145 C   0  0  0  1  0  0  0  0  0  0  0  0
   -4.5655    3.2646   -4.9655 F   0  0  0  1  0  0  0  0  0  0  0  0
   -6.2597    2.1996   -3.3816 H   0  0  0  1  0  0  0  0  0  0  0  0
   -2.2587    3.4287   -3.7137 H   0  0  0  1  0  0  0  0  0  0  0  0
   -3.6301    1.6843   -0.1491 H   0  0  0  1  0  0  0  0  0  0  0  0
   -0.9700    3.6363   -1.7186 H   0  0  0  1  0  0  0  0  0  0  0  0
   -1.4517    2.8215   -0.2495 H   0  0  0  1  0  0  0  0  0  0  0  0
  1  4  1  0  0  0  0
  2  4  1  0  0  0  0
  2  5  2  0  0  0  0
  2  6  1  0  0  0  0
  3  4  1  0  0  0  0
  3  7  1  0  0  0  0
  3  8  1  0  0  0  0
  4 26  1  0  0  0  0
  6  9  1  0  0  0  0
  6 12  1  0  0  0  0
  8 10  1  0  0  0  0
  8 11  2  0  0  0  0
  9 13  1  0  0  0  0
  9 14  1  0  0  0  0
  9 15  1  0  0  0  0
 10 16  1  0  0  0  0
 10 17  1  0  0  0  0
 10 18  1  0  0  0  0
 19 20  1  0  0  0  0
 20 21  4  0  0  0  0
 20 25  4  0  0  0  0
 21 22  4  0  0  0  0
 21 28  1  0  0  0  0
 22 23  4  0  0  0  0
 22 27  1  0  0  0  0
 23 24  4  0  0  0  0
 23 29  1  0  0  0  0
 24 25  4  0  0  0  0
 24 26  1  0  0  0  0
 25 30  1  0  0  0  0
 26 31  1  0  0  0  0
 26 32  1  0  0  0  0
M  END
> <BCLConfClusterSize>
1

> <ConfClashScore>
0 

> <ConfOneFourInteractionScore>
-0.960318 

> <ConfScore>
0.206428 

> <ConfScorePBest>
0.00623891 

> <ConfTolerance>
0.396131 

> <RosettaParamsInstructions>
M  ROOT 3
M  POLY_N_BB 3
M  POLY_CA_BB 4
M  POLY_C_BB 2
M  POLY_O_BB 5
M  POLY_IGNORE 9 10 11 12 13 14 15 16 17 18 
M  POLY_UPPER 6
M  POLY_LOWER 8
M  POLY_CHG 0
M  POLY_PROPERTIES ALPHA_AA D_AA PROTEIN AROMATIC POLYMER 
M  END

$$$$



 32 32  0  0  0  0  0  0  0  0999 V2000
   -1.5010    1.5514    0.4065 H   0  0  0  1  0  0  0  0  0  0  0  0
   -2.4237    3.2856    1.0115 C   0  0  0  1  0  0  0  0  0  0  0  0
    0.0368    2.8743    0.8017 N   0  0  0  1  0  0  0  0  0  0  0  0
   -1.3399    2.5970    0.2465 C   0  0  0  1  0  0  0  0  0  0  0  0
   -2.7454    2.9053    2.1341 O   0  0  0  1  0  0  0  0  0  0  0  0
   -3.0493    4.2707    0.3495 N   0  0  0  1  0  0  0  0  0  0  0  0
    0.7377    3.2296    0.2161 H   0  0  0  1  0  0  0  0  0  0  0  0
    0.3012    2.6363    2.0895 C   0  0  0  1  0  0  0  0  0  0  0  0
   -4.0782    5.0925    0.9691 C   0  0  0  1  0  0  0  0  0  0  0  0
    1.7269    2.9057    2.5299 C   0  0  0  1  0  0  0  0  0  0  0  0
   -0.5449    2.2248    2.8822 O   0  0  0  1  0  0  0  0  0  0  0  0
   -2.8049    4.4429   -0.5838 H   0  0  0  1  0  0  0  0  0  0  0  0
   -3.6807    5.5627    1.8443 H   0  0  0  1  0  0  0  0  0  0  0  0
   -4.9098    4.4769    1.2417 H   0  0  0  1  0  0  0  0  0  0  0  0
   -4.4004    5.8422    0.2769 H   0  0  0  1  0  0  0  0  0  0  0  0
    2.3897    2.2346    2.0246 H   0  0  0  1  0  0  0  0  0  0  0  0
    1.8075    2.7579    3.5866 H   0  0  0  1  0  0  0  0  0  0  0  0
    1.9897    3.9146    2.2893 H   0  0  0  1  0  0  0  0  0  0  0  0
   -6.0585    1.3161   -0.9374 F   0  0  0  1  0  0  0  0  0  0  0  0
   -5.0692    1.8648   -1.6683 C   0  0  0  1  0  0  0  0  0  0  0  0
   -5.3213    2.3007   -2.9598 C   0  0  0  1  0  0  0  0  0  0  0  0
   -4.3049    2.8589   -3.7118 C   0  0  0  1  0  0  0  0  0  0  0  0
   -3.0345    2.9877   -3.1725 C   0  0  0  1  0  0  0  0  0  0  0  0
   -2.7828    2.5532   -1.8848 C   0  0  0  1  0  0  0  0  0  0  0  0
   -3.8024    1.9934   -1.1307 C   0  0  0  1  0  0  0  0  0  0  0  0
   -1.4195    2.7809   -1.2756 C   0  0  0  1  0  0  0  0  0  0  0  0
   -4.5055    3.2903   -4.9718 F   0  0  0  1  0  0  0  0  0  0  0  0
   -6.2755    2.2077   -3.3629 H   0  0  0  1  0  0  0  0  0  0  0  0
   -2.2706    3.4114   -3.7369 H   0  0  0  1  0  0  0  0  0  0  0  0
   -3.6140    1.6700   -0.1604 H   0  0  0  1  0  0  0  0  0  0  0  0
   -0.7368    2.0919   -1.7275 H   0  0  0  1  0  0  0  0  0  0  0  0
   -1.1193    3.7823   -1.5033 H   0  0  0  1  0  0  0  0  0  0  0  0
  1  4  1  0  0  0  0
  2  4  1  0  0  0  0
  2  5  2  0  0  0  0
  2  6  1  0  0  0  0
  3  4  1  0  0  0  0
  3  7  1  0  0  0  0
  3  8  1  0  0  0  0
  4 26  1  0  0  0  0
  6  9  1  0  0  0  0
  6 12  1  0  0  0  0
  8 10  1  0  0  0  0
  8 11  2  0  0  0  0
  9 13  1  0  0  0  0
  9 14  1  0  0  0  0
  9 15  1  0  0  0  0
 10 16  1  0  0  0  0
 10 17  1  0  0  0  0
 10 18  1  0  0  0  0
 19 20  1  0  0  0  0
 20 21  4  0  0  0  0
 20 25  4  0  0  0  0
 21 22  4  0  0  0  0
 21 28  1  0  0  0  0
 22 23  4  0  0  0  0
 22 27  1  0  0  0  0
 23 24  4  0  0  0  0
 23 29  1  0  0  0  0
 24 25  4  0  0  0  0
 24 26  1  0  0  0  0
 25 30  1  0  0  0  0
 26 31  1  0  0  0  0
 26 32  1  0  0  0  0
M  END
> <BCLConfClusterSize>
1

> <ConfClashScore>
0 

> <ConfOneFourInteractionScore>
-0.9451 

> <ConfScore>
0.21413 

> <ConfScorePBest>
0.00621043 

> <ConfTolerance>
0.485754 

> <RosettaParamsInstructions>
M  ROOT 3
M  POLY_N_BB 3
M  POLY_CA_BB 4
M  POLY_C_BB 2
M  POLY_O_BB 5
M  POLY_IGNORE 9 10 11 12 13 14 15 16 17 18 
M  POLY_UPPER 6
M  POLY_LOWER 8
M  POLY_CHG 0
M  POLY_PROPERTIES ALPHA_AA D_AA PROTEIN AROMATIC POLYMER 
M  END

$$$$



 32 32  0  0  0  0  0  0  0  0999 V2000
   -0.7739    4.5379   -2.1505 H   0  0  0  1  0  0  0  0  0  0  0  0
    0.3390    4.2978   -0.3840 C   0  0  0  1  0  0  0  0  0  0  0  0
   -2.0197    4.9879   -0.5754 N   0  0  0  1  0  0  0  0  0  0  0  0
   -0.9589    4.1804   -1.1591 C   0  0  0  1  0  0  0  0  0  0  0  0
    0.5982    5.3000    0.2769 O   0  0  0  1  0  0  0  0  0  0  0  0
    1.1680    3.2456   -0.4719 N   0  0  0  1  0  0  0  0  0  0  0  0
   -2.8683    4.5568   -0.3422 H   0  0  0  1  0  0  0  0  0  0  0  0
   -1.8756    6.3074   -0.3446 C   0  0  0  1  0  0  0  0  0  0  0  0
    2.4819    3.2361    0.1553 C   0  0  0  1  0  0  0  0  0  0  0  0
   -3.1454    6.9848    0.1328 C   0  0  0  1  0  0  0  0  0  0  0  0
   -0.8299    6.9334   -0.4960 O   0  0  0  1  0  0  0  0  0  0  0  0
    0.8786    2.4563   -0.9757 H   0  0  0  1  0  0  0  0  0  0  0  0
    2.3835    2.9688    1.1867 H   0  0  0  1  0  0  0  0  0  0  0  0
    2.9201    4.2094    0.0796 H   0  0  0  1  0  0  0  0  0  0  0  0
    3.1079    2.5231   -0.3395 H   0  0  0  1  0  0  0  0  0  0  0  0
   -3.3952    7.7848   -0.5323 H   0  0  0  1  0  0  0  0  0  0  0  0
   -2.9929    7.3744    1.1176 H   0  0  0  1  0  0  0  0  0  0  0  0
   -3.9442    6.2731    0.1501 H   0  0  0  1  0  0  0  0  0  0  0  0
   -6.0335    1.3084   -0.9179 F   0  0  0  1  0  0  0  0  0  0  0  0
   -5.0716    1.8680   -1.6765 C   0  0  0  1  0  0  0  0  0  0  0  0
   -5.3166    2.2989   -2.9710 C   0  0  0  1  0  0  0  0  0  0  0  0
   -4.2984    2.8630   -3.7161 C   0  0  0  1  0  0  0  0  0  0  0  0
   -3.0333    3.0028   -3.1670 C   0  0  0  1  0  0  0  0  0  0  0  0
   -2.7888    2.5732   -1.8762 C   0  0  0  1  0  0  0  0  0  0  0  0
   -3.8102    2.0074   -1.1290 C   0  0  0  1  0  0  0  0  0  0  0  0
   -1.4091    2.7199   -1.2793 C   0  0  0  1  0  0  0  0  0  0  0  0
   -4.5352    3.2769   -4.9757 F   0  0  0  1  0  0  0  0  0  0  0  0
   -6.2667    2.1977   -3.3816 H   0  0  0  1  0  0  0  0  0  0  0  0
   -2.2681    3.4309   -3.7262 H   0  0  0  1  0  0  0  0  0  0  0  0
   -3.6273    1.6879   -0.1564 H   0  0  0  1  0  0  0  0  0  0  0  0
   -1.4124    2.2830   -0.3026 H   0  0  0  1  0  0  0  0  0  0  0  0
   -0.7117    2.1987   -1.9013 H   0  0  0  1  0  0  0  0  0  0  0  0
  1  4  1  0  0  0  0
  2  4  1  0  0  0  0
  2  5  2  0  0  0  0
  2  6  1  0  0  0  0
  3  4  1  0  0  0  0
  3  7  1  0  0  0  0
  3  8  1  0  0  0  0
  4 26  1  0  0  0  0
  6  9  1  0  0  0  0
  6 12  1  0  0  0  0
  8 10  1  0  0  0  0
  8 11  2  0  0  0  0
  9 13  1  0  0  0  0
  9 14  1  0  0  0  0
  9 15  1  0  0  0  0
 10 16  1  0  0  0  0
 10 17  1  0  0  0  0
 10 18  1  0  0  0  0
 19 20  1  0  0  0  0
 20 21  4  0  0  0  0
 20 25  4  0  0  0  0
 21 22  4  0  0  0  0
 21 28  1  0  0  0  0
 22 23  4  0  0  0  0
 22 27  1  0  0  0  0
 23 24  4  0  0  0  0
 23 29  1  0  0  0  0
 24 25  4  0  0  0  0
 24 26  1  0  0  0  0
 25 30  1  0  0  0  0
 26 31  1  0  0  0  0
 26 32  1  0  0  0  0
M  END
> <BCLConfClusterSize>
1

> <ConfClashScore>
0 

> <ConfOneFourInteractionScore>
-0.960744 

> <ConfScore>
0.216813 

> <ConfScorePBest>
0.00618195 

> <ConfTolerance>
0.461305 

> <RosettaParamsInstructions>
M  ROOT 3
M  POLY_N_BB 3
M  POLY_CA_BB 4
M  POLY_C_BB 2
M  POLY_O_BB 5
M  POLY_IGNORE 9 10 11 12 13 14 15 16 17 18 
M  POLY_UPPER 6
M  POLY_LOWER 8
M  POLY_CHG 0
M  POLY_PROPERTIES ALPHA_AA D_AA PROTEIN AROMATIC POLYMER 
M  END

$$$$



 32 32  0  0  0  0  0  0  0  0999 V2000
   -0.2058    4.1024   -0.2386 H   0  0  0  1  0  0  0  0  0  0  0  0
   -2.0177    3.9925    0.8446 C   0  0  0  1  0  0  0  0  0  0  0  0
   -1.6342    5.0774   -1.3677 N   0  0  0  1  0  0  0  0  0  0  0  0
   -1.2458    4.0010   -0.4686 C   0  0  0  1  0  0  0  0  0  0  0  0
   -1.5046    3.6161    1.8855 O   0  0  0  1  0  0  0  0  0  0  0  0
   -3.2861    4.4320    0.7301 N   0  0  0  1  0  0  0  0  0  0  0  0
   -1.5854    4.9266   -2.3348 H   0  0  0  1  0  0  0  0  0  0  0  0
   -2.0584    6.2740   -0.9168 C   0  0  0  1  0  0  0  0  0  0  0  0
   -4.1331    4.3977    1.9130 C   0  0  0  1  0  0  0  0  0  0  0  0
   -2.4151    7.2550   -2.0263 C   0  0  0  1  0  0  0  0  0  0  0  0
   -2.1587    6.5746    0.2542 O   0  0  0  1  0  0  0  0  0  0  0  0
   -3.6286    4.7654   -0.1255 H   0  0  0  1  0  0  0  0  0  0  0  0
   -4.1312    3.4103    2.3252 H   0  0  0  1  0  0  0  0  0  0  0  0
   -5.1324    4.6697    1.6439 H   0  0  0  1  0  0  0  0  0  0  0  0
   -3.7585    5.0880    2.6397 H   0  0  0  1  0  0  0  0  0  0  0  0
   -2.2066    6.8103   -2.9769 H   0  0  0  1  0  0  0  0  0  0  0  0
   -1.8338    8.1463   -1.9145 H   0  0  0  1  0  0  0  0  0  0  0  0
   -3.4556    7.4974   -1.9668 H   0  0  0  1  0  0  0  0  0  0  0  0
   -6.0480    1.3115   -0.9364 F   0  0  0  1  0  0  0  0  0  0  0  0
   -5.0639    1.8673   -1.6690 C   0  0  0  1  0  0  0  0  0  0  0  0
   -5.3197    2.2948   -2.9625 C   0  0  0  1  0  0  0  0  0  0  0  0
   -4.3086    2.8603   -3.7163 C   0  0  0  1  0  0  0  0  0  0  0  0
   -3.0399    3.0047   -3.1767 C   0  0  0  1  0  0  0  0  0  0  0  0
   -2.7847    2.5785   -1.8870 C   0  0  0  1  0  0  0  0  0  0  0  0
   -3.7989    2.0113   -1.1311 C   0  0  0  1  0  0  0  0  0  0  0  0
   -1.4218    2.7044   -1.2480 C   0  0  0  1  0  0  0  0  0  0  0  0
   -4.5127    3.2841   -4.9783 F   0  0  0  1  0  0  0  0  0  0  0  0
   -6.2725    2.1901   -3.3659 H   0  0  0  1  0  0  0  0  0  0  0  0
   -2.2801    3.4338   -3.7425 H   0  0  0  1  0  0  0  0  0  0  0  0
   -3.6079    1.6943   -0.1592 H   0  0  0  1  0  0  0  0  0  0  0  0
   -1.2828    1.8823   -0.5774 H   0  0  0  1  0  0  0  0  0  0  0  0
   -0.6799    2.6665   -2.0181 H   0  0  0  1  0  0  0  0  0  0  0  0
  1  4  1  0  0  0  0
  2  4  1  0  0  0  0
  2  5  2  0  0  0  0
  2  6  1  0  0  0  0
  3  4  1  0  0  0  0
  3  7  1  0  0  0  0
  3  8  1  0  0  0  0
  4 26  1  0  0  0  0
  6  9  1  0  0  0  0
  6 12  1  0  0  0  0
  8 10  1  0  0  0  0
  8 11  2  0  0  0  0
  9 13  1  0  0  0  0
  9 14  1  0  0  0  0
  9 15  1  0  0  0  0
 10 16  1  0  0  0  0
 10 17  1  0  0  0  0
 10 18  1  0  0  0  0
 19 20  1  0  0  0  0
 20 21  4  0  0  0  0
 20 25  4  0  0  0  0
 21 22  4  0  0  0  0
 21 28  1  0  0  0  0
 22 23  4  0  0  0  0
 22 27  1  0  0  0  0
 23 24  4  0  0  0  0
 23 29  1  0  0  0  0
 24 25  4  0  0  0  0
 24 26  1  0  0  0  0
 25 30  1  0  0  0  0
 26 31  1  0  0  0  0
 26 32  1  0  0  0  0
M  END
> <BCLConfClusterSize>
1

> <ConfClashScore>
0 

> <ConfOneFourInteractionScore>
-0.943556 

> <ConfScore>
0.219023 

> <ConfScorePBest>
0.00615347 

> <ConfTolerance>
0.288178 

> <RosettaParamsInstructions>
M  ROOT 3
M  POLY_N_BB 3
M  POLY_CA_BB 4
M  POLY_C_BB 2
M  POLY_O_BB 5
M  POLY_IGNORE 9 10 11 12 13 14 15 16 17 18 
M  POLY_UPPER 6
M  POLY_LOWER 8
M  POLY_CHG 0
M  POLY_PROPERTIES ALPHA_AA D_AA PROTEIN AROMATIC POLYMER 
M  END

$$$$



 32 32  0  0  0  0  0  0  0  0999 V2000
   -1.5342    4.7847   -1.1747 H   0  0  0  1  0  0  0  0  0  0  0  0
    0.2107    4.3340   -0.1284 C   0  0  0  1  0  0  0  0  0  0  0  0
   -2.0936    4.1395    0.6921 N   0  0  0  1  0  0  0  0  0  0  0  0
   -1.2275    4.0172   -0.4952 C   0  0  0  1  0  0  0  0  0  0  0  0
    0.5318    5.4422    0.2924 O   0  0  0  1  0  0  0  0  0  0  0  0
    1.0835    3.3389   -0.2937 N   0  0  0  1  0  0  0  0  0  0  0  0
   -2.8925    4.7045    0.6385 H   0  0  0  1  0  0  0  0  0  0  0  0
   -1.8185    3.4868    1.8745 C   0  0  0  1  0  0  0  0  0  0  0  0
    2.5304    3.4801   -0.2266 C   0  0  0  1  0  0  0  0  0  0  0  0
   -2.8041    3.6997    2.9862 C   0  0  0  1  0  0  0  0  0  0  0  0
   -0.8260    2.7898    1.9699 O   0  0  0  1  0  0  0  0  0  0  0  0
    0.7233    2.4455   -0.4740 H   0  0  0  1  0  0  0  0  0  0  0  0
    2.7791    4.3223    0.3847 H   0  0  0  1  0  0  0  0  0  0  0  0
    2.9202    3.6274   -1.2122 H   0  0  0  1  0  0  0  0  0  0  0  0
    2.9556    2.5942    0.1969 H   0  0  0  1  0  0  0  0  0  0  0  0
   -2.4642    3.1951    3.8664 H   0  0  0  1  0  0  0  0  0  0  0  0
   -3.7573    3.3089    2.6971 H   0  0  0  1  0  0  0  0  0  0  0  0
   -2.8935    4.7467    3.1877 H   0  0  0  1  0  0  0  0  0  0  0  0
   -6.0489    1.3153   -0.9470 F   0  0  0  1  0  0  0  0  0  0  0  0
   -5.0608    1.8703   -1.6747 C   0  0  0  1  0  0  0  0  0  0  0  0
   -5.3103    2.2998   -2.9688 C   0  0  0  1  0  0  0  0  0  0  0  0
   -4.2951    2.8645   -3.7176 C   0  0  0  1  0  0  0  0  0  0  0  0
   -3.0286    3.0062   -3.1724 C   0  0  0  1  0  0  0  0  0  0  0  0
   -2.7795    2.5780   -1.8821 C   0  0  0  1  0  0  0  0  0  0  0  0
   -3.7979    2.0117   -1.1312 C   0  0  0  1  0  0  0  0  0  0  0  0
   -1.4192    2.7010   -1.2372 C   0  0  0  1  0  0  0  0  0  0  0  0
   -4.5794    3.2634   -4.9722 F   0  0  0  1  0  0  0  0  0  0  0  0
   -6.2616    2.1971   -3.3764 H   0  0  0  1  0  0  0  0  0  0  0  0
   -2.2656    3.4348   -3.7344 H   0  0  0  1  0  0  0  0  0  0  0  0
   -3.6116    1.6931   -0.1589 H   0  0  0  1  0  0  0  0  0  0  0  0
   -1.2983    1.8971   -0.5414 H   0  0  0  1  0  0  0  0  0  0  0  0
   -0.6727    2.6283   -2.0002 H   0  0  0  1  0  0  0  0  0  0  0  0
  1  4  1  0  0  0  0
  2  4  1  0  0  0  0
  2  5  2  0  0  0  0
  2  6  1  0  0  0  0
  3  4  1  0  0  0  0
  3  7  1  0  0  0  0
  3  8  1  0  0  0  0
  4 26  1  0  0  0  0
  6  9  1  0  0  0  0
  6 12  1  0  0  0  0
  8 10  1  0  0  0  0
  8 11  2  0  0  0  0
  9 13  1  0  0  0  0
  9 14  1  0  0  0  0
  9 15  1  0  0  0  0
 10 16  1  0  0  0  0
 10 17  1  0  0  0  0
 10 18  1  0  0  0  0
 19 20  1  0  0  0  0
 20 21  4  0  0  0  0
 20 25  4  0  0  0  0
 21 22  4  0  0  0  0
 21 28  1  0  0  0  0
 22 23  4  0  0  0  0
 22 27  1  0  0  0  0
 23 24  4  0  0  0  0
 23 29  1  0  0  0  0
 24 25  4  0  0  0  0
 24 26  1  0  0  0  0
 25 30  1  0  0  0  0
 26 31  1  0  0  0  0
 26 32  1  0  0  0  0
M  END
> <BCLConfClusterSize>
1

> <ConfClashScore>
0 

> <ConfOneFourInteractionScore>
-0.927621 

> <ConfScore>
0.219198 

> <ConfScorePBest>
0.00612499 

> <ConfTolerance>
0.354198 

> <RosettaParamsInstructions>
M  ROOT 3
M  POLY_N_BB 3
M  POLY_CA_BB 4
M  POLY_C_BB 2
M  POLY_O_BB 5
M  POLY_IGNORE 9 10 11 12 13 14 15 16 17 18 
M  POLY_UPPER 6
M  POLY_LOWER 8
M  POLY_CHG 0
M  POLY_PROPERTIES ALPHA_AA D_AA PROTEIN AROMATIC POLYMER 
M  END

$$$$



 32 32  0  0  0  0  0  0  0  0999 V2000
    0.3046    3.9508   -1.3854 H   0  0  0  1  0  0  0  0  0  0  0  0
   -1.3353    5.0483   -2.1438 C   0  0  0  1  0  0  0  0  0  0  0  0
   -0.0758    3.1690   -3.2544 N   0  0  0  1  0  0  0  0  0  0  0  0
   -0.5445    3.7473   -2.0039 C   0  0  0  1  0  0  0  0  0  0  0  0
   -2.1987    5.3418   -1.3187 O   0  0  0  1  0  0  0  0  0  0  0  0
   -1.1064    5.7871   -3.2377 N   0  0  0  1  0  0  0  0  0  0  0  0
   -0.5063    2.3550   -3.5897 H   0  0  0  1  0  0  0  0  0  0  0  0
    0.9211    3.7092   -3.9611 C   0  0  0  1  0  0  0  0  0  0  0  0
   -1.9687    6.8947   -3.6222 C   0  0  0  1  0  0  0  0  0  0  0  0
    1.3275    2.9531   -5.2111 C   0  0  0  1  0  0  0  0  0  0  0  0
    1.4841    4.7508   -3.6349 O   0  0  0  1  0  0  0  0  0  0  0  0
   -0.3314    5.5744   -3.7985 H   0  0  0  1  0  0  0  0  0  0  0  0
   -1.3845    7.6525   -4.1010 H   0  0  0  1  0  0  0  0  0  0  0  0
   -2.4354    7.3024   -2.7499 H   0  0  0  1  0  0  0  0  0  0  0  0
   -2.7200    6.5434   -4.2982 H   0  0  0  1  0  0  0  0  0  0  0  0
    1.6501    1.9685   -4.9439 H   0  0  0  1  0  0  0  0  0  0  0  0
    2.1282    3.4711   -5.6964 H   0  0  0  1  0  0  0  0  0  0  0  0
    0.4910    2.8862   -5.8750 H   0  0  0  1  0  0  0  0  0  0  0  0
   -6.0566    1.3143   -0.9498 F   0  0  0  1  0  0  0  0  0  0  0  0
   -5.0656    1.8687   -1.6740 C   0  0  0  1  0  0  0  0  0  0  0  0
   -5.3106    2.2996   -2.9685 C   0  0  0  1  0  0  0  0  0  0  0  0
   -4.2924    2.8637   -3.7136 C   0  0  0  1  0  0  0  0  0  0  0  0
   -3.0273    3.0035   -3.1645 C   0  0  0  1  0  0  0  0  0  0  0  0
   -2.7828    2.5739   -1.8737 C   0  0  0  1  0  0  0  0  0  0  0  0
   -3.8042    2.0081   -1.1265 C   0  0  0  1  0  0  0  0  0  0  0  0
   -1.4031    2.7206   -1.2768 C   0  0  0  1  0  0  0  0  0  0  0  0
   -4.5723    3.2640   -4.9688 F   0  0  0  1  0  0  0  0  0  0  0  0
   -6.2607    2.1984   -3.3791 H   0  0  0  1  0  0  0  0  0  0  0  0
   -2.2621    3.4316   -3.7237 H   0  0  0  1  0  0  0  0  0  0  0  0
   -3.6213    1.6886   -0.1539 H   0  0  0  1  0  0  0  0  0  0  0  0
   -1.5043    3.0233   -0.2555 H   0  0  0  1  0  0  0  0  0  0  0  0
   -0.9102    1.7719   -1.3210 H   0  0  0  1  0  0  0  0  0  0  0  0
  1  4  1  0  0  0  0
  2  4  1  0  0  0  0
  2  5  2  0  0  0  0
  2  6  1  0  0  0  0
  3  4  1  0  0  0  0
  3  7  1  0  0  0  0
  3  8  1  0  0  0  0
  4 26  1  0  0  0  0
  6  9  1  0  0  0  0
  6 12  1  0  0  0  0
  8 10  1  0  0  0  0
  8 11  2  0  0  0  0
  9 13  1  0  0  0  0
  9 14  1  0  0  0  0
  9 15  1  0  0  0  0
 10 16  1  0  0  0  0
 10 17  1  0  0  0  0
 10 18  1  0  0  0  0
 19 20  1  0  0  0  0
 20 21  4  0  0  0  0
 20 25  4  0  0  0  0
 21 22  4  0  0  0  0
 21 28  1  0  0  0  0
 22 23  4  0  0  0  0
 22 27  1  0  0  0  0
 23 24  4  0  0  0  0
 23 29  1  0  0  0  0
 24 25  4  0  0  0  0
 24 26  1  0  0  0  0
 25 30  1  0  0  0  0
 26 31  1  0  0  0  0
 26 32  1  0  0  0  0
M  END
> <BCLConfClusterSize>
1

> <ConfClashScore>
0.000545846 

> <ConfOneFourInteractionScore>
-0.949274 

> <ConfScore>
0.219908 

> <ConfScorePBest>
0.00609651 

> <ConfTolerance>
0.394692 

> <RosettaParamsInstructions>
M  ROOT 3
M  POLY_N_BB 3
M  POLY_CA_BB 4
M  POLY_C_BB 2
M  POLY_O_BB 5
M  POLY_IGNORE 9 10 11 12 13 14 15 16 17 18 
M  POLY_UPPER 6
M  POLY_LOWER 8
M  POLY_CHG 0
M  POLY_PROPERTIES ALPHA_AA D_AA PROTEIN AROMATIC POLYMER 
M  END

$$$$



 32 32  0  0  0  0  0  0  0  0999 V2000
   -0.1345    4.0487   -0.2548 H   0  0  0  1  0  0  0  0  0  0  0  0
   -1.9484    3.9731    0.8193 C   0  0  0  1  0  0  0  0  0  0  0  0
   -1.5502    5.1709   -1.2583 N   0  0  0  1  0  0  0  0  0  0  0  0
   -1.1777    3.9938   -0.4864 C   0  0  0  1  0  0  0  0  0  0  0  0
   -2.1875    2.9185    1.4016 O   0  0  0  1  0  0  0  0  0  0  0  0
   -2.3426    5.1697    1.2829 N   0  0  0  1  0  0  0  0  0  0  0  0
   -0.8305    5.7190   -1.6352 H   0  0  0  1  0  0  0  0  0  0  0  0
   -2.8506    5.5634   -1.4926 C   0  0  0  1  0  0  0  0  0  0  0  0
   -3.1046    5.3799    2.5048 C   0  0  0  1  0  0  0  0  0  0  0  0
   -3.0234    6.8979   -2.1574 C   0  0  0  1  0  0  0  0  0  0  0  0
   -3.7739    4.8423   -1.1648 O   0  0  0  1  0  0  0  0  0  0  0  0
   -2.0988    5.9612    0.7591 H   0  0  0  1  0  0  0  0  0  0  0  0
   -3.7508    4.5434    2.6711 H   0  0  0  1  0  0  0  0  0  0  0  0
   -3.6909    6.2700    2.4104 H   0  0  0  1  0  0  0  0  0  0  0  0
   -2.4324    5.4809    3.3311 H   0  0  0  1  0  0  0  0  0  0  0  0
   -2.2968    7.0062   -2.9353 H   0  0  0  1  0  0  0  0  0  0  0  0
   -2.8907    7.6759   -1.4349 H   0  0  0  1  0  0  0  0  0  0  0  0
   -4.0060    6.9629   -2.5759 H   0  0  0  1  0  0  0  0  0  0  0  0
   -6.0330    1.3066   -0.9127 F   0  0  0  1  0  0  0  0  0  0  0  0
   -5.0731    1.8665   -1.6737 C   0  0  0  1  0  0  0  0  0  0  0  0
   -5.3213    2.2965   -2.9679 C   0  0  0  1  0  0  0  0  0  0  0  0
   -4.3051    2.8609   -3.7156 C   0  0  0  1  0  0  0  0  0  0  0  0
   -3.0390    3.0020   -3.1692 C   0  0  0  1  0  0  0  0  0  0  0  0
   -2.7914    2.5734   -1.8787 C   0  0  0  1  0  0  0  0  0  0  0  0
   -3.8107    2.0073   -1.1290 C   0  0  0  1  0  0  0  0  0  0  0  0
   -1.4105    2.7216   -1.2848 C   0  0  0  1  0  0  0  0  0  0  0  0
   -4.5017    3.2870   -4.9780 F   0  0  0  1  0  0  0  0  0  0  0  0
   -6.2722    2.1943   -3.3764 H   0  0  0  1  0  0  0  0  0  0  0  0
   -2.2754    3.4305   -3.7303 H   0  0  0  1  0  0  0  0  0  0  0  0
   -3.6254    1.6884   -0.1566 H   0  0  0  1  0  0  0  0  0  0  0  0
   -1.2392    1.8885   -0.6356 H   0  0  0  1  0  0  0  0  0  0  0  0
   -0.7024    2.7010   -2.0867 H   0  0  0  1  0  0  0  0  0  0  0  0
  1  4  1  0  0  0  0
  2  4  1  0  0  0  0
  2  5  2  0  0  0  0
  2  6  1  0  0  0  0
  3  4  1  0  0  0  0
  3  7  1  0  0  0  0
  3  8  1  0  0  0  0
  4 26  1  0  0  0  0
  6  9  1  0  0  0  0
  6 12  1  0  0  0  0
  8 10  1  0  0  0  0
  8 11  2  0  0  0  0
  9 13  1  0  0  0  0
  9 14  1  0  0  0  0
  9 15  1  0  0  0  0
 10 16  1  0  0  0  0
 10 17  1  0  0  0  0
 10 18  1  0  0  0  0
 19 20  1  0  0  0  0
 20 21  4  0  0  0  0
 20 25  4  0  0  0  0
 21 22  4  0  0  0  0
 21 28  1  0  0  0  0
 22 23  4  0  0  0  0
 22 27  1  0  0  0  0
 23 24  4  0  0  0  0
 23 29  1  0  0  0  0
 24 25  4  0  0  0  0
 24 26  1  0  0  0  0
 25 30  1  0  0  0  0
 26 31  1  0  0  0  0
 26 32  1  0  0  0  0
M  END
> <BCLConfClusterSize>
1

> <ConfClashScore>
0 

> <ConfOneFourInteractionScore>
-0.928983 

> <ConfScore>
0.221698 

> <ConfScorePBest>
0.00606803 

> <ConfTolerance>
0.195668 

> <RosettaParamsInstructions>
M  ROOT 3
M  POLY_N_BB 3
M  POLY_CA_BB 4
M  POLY_C_BB 2
M  POLY_O_BB 5
M  POLY_IGNORE 9 10 11 12 13 14 15 16 17 18 
M  POLY_UPPER 6
M  POLY_LOWER 8
M  POLY_CHG 0
M  POLY_PROPERTIES ALPHA_AA D_AA PROTEIN AROMATIC POLYMER 
M  END

$$$$



 32 32  0  0  0  0  0  0  0  0999 V2000
    0.0184    4.1780   -0.7236 H   0  0  0  1  0  0  0  0  0  0  0  0
   -1.8517    5.0046   -0.2259 C   0  0  0  1  0  0  0  0  0  0  0  0
   -0.8993    4.8205   -2.4628 N   0  0  0  1  0  0  0  0  0  0  0  0
   -0.9661    4.1777   -1.1427 C   0  0  0  1  0  0  0  0  0  0  0  0
   -1.6119    5.0859    0.9781 O   0  0  0  1  0  0  0  0  0  0  0  0
   -2.9010    5.6422   -0.7685 N   0  0  0  1  0  0  0  0  0  0  0  0
   -1.3856    5.6593   -2.6056 H   0  0  0  1  0  0  0  0  0  0  0  0
   -0.1721    4.2815   -3.5131 C   0  0  0  1  0  0  0  0  0  0  0  0
   -3.8172    6.4471    0.0256 C   0  0  0  1  0  0  0  0  0  0  0  0
   -0.3345    4.8644   -4.8889 C   0  0  0  1  0  0  0  0  0  0  0  0
    0.5774    3.3496   -3.2846 O   0  0  0  1  0  0  0  0  0  0  0  0
   -3.0554    5.5629   -1.7330 H   0  0  0  1  0  0  0  0  0  0  0  0
   -3.2846    6.8995    0.8359 H   0  0  0  1  0  0  0  0  0  0  0  0
   -4.5946    5.8231    0.4143 H   0  0  0  1  0  0  0  0  0  0  0  0
   -4.2459    7.2105   -0.5895 H   0  0  0  1  0  0  0  0  0  0  0  0
   -1.3645    4.8219   -5.1755 H   0  0  0  1  0  0  0  0  0  0  0  0
    0.2527    4.3031   -5.5854 H   0  0  0  1  0  0  0  0  0  0  0  0
   -0.0072    5.8831   -4.8853 H   0  0  0  1  0  0  0  0  0  0  0  0
   -6.0778    1.3168   -0.9716 F   0  0  0  1  0  0  0  0  0  0  0  0
   -5.0627    1.8663   -1.6656 C   0  0  0  1  0  0  0  0  0  0  0  0
   -5.3139    2.2953   -2.9596 C   0  0  0  1  0  0  0  0  0  0  0  0
   -4.2999    2.8601   -3.7097 C   0  0  0  1  0  0  0  0  0  0  0  0
   -3.0327    3.0026   -3.1661 C   0  0  0  1  0  0  0  0  0  0  0  0
   -2.7819    2.5750   -1.8759 C   0  0  0  1  0  0  0  0  0  0  0  0
   -3.7992    2.0085   -1.1237 C   0  0  0  1  0  0  0  0  0  0  0  0
   -1.3999    2.7247   -1.2851 C   0  0  0  1  0  0  0  0  0  0  0  0
   -4.5428    3.2721   -4.9688 F   0  0  0  1  0  0  0  0  0  0  0  0
   -6.2657    2.1920   -3.3660 H   0  0  0  1  0  0  0  0  0  0  0  0
   -2.2706    3.4313   -3.7292 H   0  0  0  1  0  0  0  0  0  0  0  0
   -3.6116    1.6903   -0.1515 H   0  0  0  1  0  0  0  0  0  0  0  0
   -1.3927    2.2706   -0.3163 H   0  0  0  1  0  0  0  0  0  0  0  0
   -0.7015    2.2214   -1.9206 H   0  0  0  1  0  0  0  0  0  0  0  0
  1  4  1  0  0  0  0
  2  4  1  0  0  0  0
  2  5  2  0  0  0  0
  2  6  1  0  0  0  0
  3  4  1  0  0  0  0
  3  7  1  0  0  0  0
  3  8  1  0  0  0  0
  4 26  1  0  0  0  0
  6  9  1  0  0  0  0
  6 12  1  0  0  0  0
  8 10  1  0  0  0  0
  8 11  2  0  0  0  0
  9 13  1  0  0  0  0
  9 14  1  0  0  0  0
  9 15  1  0  0  0  0
 10 16  1  0  0  0  0
 10 17  1  0  0  0  0
 10 18  1  0  0  0  0
 19 20  1  0  0  0  0
 20 21  4  0  0  0  0
 20 25  4  0  0  0  0
 21 22  4  0  0  0  0
 21 28  1  0  0  0  0
 22 23  4  0  0  0  0
 22 27  1  0  0  0  0
 23 24  4  0  0  0  0
 23 29  1  0  0  0  0
 24 25  4  0  0  0  0
 24 26  1  0  0  0  0
 25 30  1  0  0  0  0
 26 31  1  0  0  0  0
 26 32  1  0  0  0  0
M  END
> <BCLConfClusterSize>
1

> <ConfClashScore>
0 

> <ConfOneFourInteractionScore>
-0.952634 

> <ConfScore>
0.224118 

> <ConfScorePBest>
0.00603955 

> <ConfTolerance>
0.421963 

> <RosettaParamsInstructions>
M  ROOT 3
M  POLY_N_BB 3
M  POLY_CA_BB 4
M  POLY_C_BB 2
M  POLY_O_BB 5
M  POLY_IGNORE 9 10 11 12 13 14 15 16 17 18 
M  POLY_UPPER 6
M  POLY_LOWER 8
M  POLY_CHG 0
M  POLY_PROPERTIES ALPHA_AA D_AA PROTEIN AROMATIC POLYMER 
M  END

$$$$



 32 32  0  0  0  0  0  0  0  0999 V2000
   -0.9771    0.6643   -1.3830 H   0  0  0  1  0  0  0  0  0  0  0  0
    0.7880    1.5671   -0.6854 C   0  0  0  1  0  0  0  0  0  0  0  0
   -0.0384    1.5905   -2.9764 N   0  0  0  1  0  0  0  0  0  0  0  0
   -0.4473    1.5759   -1.5648 C   0  0  0  1  0  0  0  0  0  0  0  0
    0.8341    2.1999    0.3662 O   0  0  0  1  0  0  0  0  0  0  0  0
    1.7933    0.8132   -1.1714 N   0  0  0  1  0  0  0  0  0  0  0  0
   -0.4248    0.9291   -3.5876 H   0  0  0  1  0  0  0  0  0  0  0  0
    0.8418    2.4742   -3.4554 C   0  0  0  1  0  0  0  0  0  0  0  0
    3.0550    0.7256   -0.4515 C   0  0  0  1  0  0  0  0  0  0  0  0
    1.2756    2.2592   -4.8924 C   0  0  0  1  0  0  0  0  0  0  0  0
    1.2824    3.4074   -2.7895 O   0  0  0  1  0  0  0  0  0  0  0  0
    1.6746    0.3227   -2.0116 H   0  0  0  1  0  0  0  0  0  0  0  0
    3.4707   -0.2523   -0.5770 H   0  0  0  1  0  0  0  0  0  0  0  0
    2.8853    0.9100    0.5888 H   0  0  0  1  0  0  0  0  0  0  0  0
    3.7366    1.4548   -0.8369 H   0  0  0  1  0  0  0  0  0  0  0  0
    0.4356    2.3888   -5.5423 H   0  0  0  1  0  0  0  0  0  0  0  0
    1.6624    1.2678   -5.0033 H   0  0  0  1  0  0  0  0  0  0  0  0
    2.0350    2.9693   -5.1454 H   0  0  0  1  0  0  0  0  0  0  0  0
   -6.0561    1.3124   -0.9444 F   0  0  0  1  0  0  0  0  0  0  0  0
   -5.0671    1.8672   -1.6711 C   0  0  0  1  0  0  0  0  0  0  0  0
   -5.3152    2.2971   -2.9653 C   0  0  0  1  0  0  0  0  0  0  0  0
   -4.2991    2.8616   -3.7130 C   0  0  0  1  0  0  0  0  0  0  0  0
   -3.0330    3.0027   -3.1666 C   0  0  0  1  0  0  0  0  0  0  0  0
   -2.7853    2.5741   -1.8761 C   0  0  0  1  0  0  0  0  0  0  0  0
   -3.8046    2.0080   -1.1264 C   0  0  0  1  0  0  0  0  0  0  0  0
   -1.4045    2.7223   -1.2822 C   0  0  0  1  0  0  0  0  0  0  0  0
   -4.5390    3.2745   -4.9723 F   0  0  0  1  0  0  0  0  0  0  0  0
   -6.2661    2.1949   -3.3738 H   0  0  0  1  0  0  0  0  0  0  0  0
   -2.2693    3.4311   -3.7277 H   0  0  0  1  0  0  0  0  0  0  0  0
   -3.6194    1.6891   -0.1540 H   0  0  0  1  0  0  0  0  0  0  0  0
   -0.9709    3.6185   -1.6743 H   0  0  0  1  0  0  0  0  0  0  0  0
   -1.5093    2.8109   -0.2211 H   0  0  0  1  0  0  0  0  0  0  0  0
  1  4  1  0  0  0  0
  2  4  1  0  0  0  0
  2  5  2  0  0  0  0
  2  6  1  0  0  0  0
  3  4  1  0  0  0  0
  3  7  1  0  0  0  0
  3  8  1  0  0  0  0
  4 26  1  0  0  0  0
  6  9  1  0  0  0  0
  6 12  1  0  0  0  0
  8 10  1  0  0  0  0
  8 11  2  0  0  0  0
  9 13  1  0  0  0  0
  9 14  1  0  0  0  0
  9 15  1  0  0  0  0
 10 16  1  0  0  0  0
 10 17  1  0  0  0  0
 10 18  1  0  0  0  0
 19 20  1  0  0  0  0
 20 21  4  0  0  0  0
 20 25  4  0  0  0  0
 21 22  4  0  0  0  0
 21 28  1  0  0  0  0
 22 23  4  0  0  0  0
 22 27  1  0  0  0  0
 23 24  4  0  0  0  0
 23 29  1  0  0  0  0
 24 25  4  0  0  0  0
 24 26  1  0  0  0  0
 25 30  1  0  0  0  0
 26 31  1  0  0  0  0
 26 32  1  0  0  0  0
M  END
> <BCLConfClusterSize>
1

> <ConfClashScore>
0 

> <ConfOneFourInteractionScore>
-0.953489 

> <ConfScore>
0.227242 

> <ConfScorePBest>
0.00601107 

> <ConfTolerance>
0.192673 

> <RosettaParamsInstructions>
M  ROOT 3
M  POLY_N_BB 3
M  POLY_CA_BB 4
M  POLY_C_BB 2
M  POLY_O_BB 5
M  POLY_IGNORE 9 10 11 12 13 14 15 16 17 18 
M  POLY_UPPER 6
M  POLY_LOWER 8
M  POLY_CHG 0
M  POLY_PROPERTIES ALPHA_AA D_AA PROTEIN AROMATIC POLYMER 
M  END

$$$$



 32 32  0  0  0  0  0  0  0  0999 V2000
    0.4193    1.7310   -1.1870 H   0  0  0  1  0  0  0  0  0  0  0  0
   -0.1212    1.5940   -3.1809 C   0  0  0  1  0  0  0  0  0  0  0  0
   -0.9934    0.2526   -1.2611 N   0  0  0  1  0  0  0  0  0  0  0  0
   -0.4998    1.5763   -1.7127 C   0  0  0  1  0  0  0  0  0  0  0  0
   -0.3800    2.5616   -3.8953 O   0  0  0  1  0  0  0  0  0  0  0  0
    0.5013    0.5039   -3.6320 N   0  0  0  1  0  0  0  0  0  0  0  0
   -0.9707    0.0406   -0.3046 H   0  0  0  1  0  0  0  0  0  0  0  0
   -1.4678   -0.6607   -2.1130 C   0  0  0  1  0  0  0  0  0  0  0  0
    0.8579    0.3360   -5.0329 C   0  0  0  1  0  0  0  0  0  0  0  0
   -1.6636   -2.0771   -1.6082 C   0  0  0  1  0  0  0  0  0  0  0  0
   -1.7556   -0.4223   -3.2829 O   0  0  0  1  0  0  0  0  0  0  0  0
    0.7264   -0.2087   -2.9980 H   0  0  0  1  0  0  0  0  0  0  0  0
    1.7736    0.8521   -5.2327 H   0  0  0  1  0  0  0  0  0  0  0  0
    0.0807    0.7375   -5.6491 H   0  0  0  1  0  0  0  0  0  0  0  0
    0.9814   -0.7051   -5.2469 H   0  0  0  1  0  0  0  0  0  0  0  0
   -2.0822   -2.6793   -2.3874 H   0  0  0  1  0  0  0  0  0  0  0  0
   -2.3276   -2.0679   -0.7692 H   0  0  0  1  0  0  0  0  0  0  0  0
   -0.7193   -2.4836   -1.3119 H   0  0  0  1  0  0  0  0  0  0  0  0
   -6.0782    1.3188   -0.9770 F   0  0  0  1  0  0  0  0  0  0  0  0
   -5.0612    1.8678   -1.6685 C   0  0  0  1  0  0  0  0  0  0  0  0
   -5.3093    2.2978   -2.9628 C   0  0  0  1  0  0  0  0  0  0  0  0
   -4.2932    2.8622   -3.7104 C   0  0  0  1  0  0  0  0  0  0  0  0
   -3.0271    3.0034   -3.1640 C   0  0  0  1  0  0  0  0  0  0  0  0
   -2.7794    2.5748   -1.8736 C   0  0  0  1  0  0  0  0  0  0  0  0
   -3.7987    2.0086   -1.1238 C   0  0  0  1  0  0  0  0  0  0  0  0
   -1.3985    2.7230   -1.2797 C   0  0  0  1  0  0  0  0  0  0  0  0
   -4.5761    3.2616   -4.9652 F   0  0  0  1  0  0  0  0  0  0  0  0
   -6.2602    2.1955   -3.3713 H   0  0  0  1  0  0  0  0  0  0  0  0
   -2.2634    3.4318   -3.7252 H   0  0  0  1  0  0  0  0  0  0  0  0
   -3.6135    1.6898   -0.1514 H   0  0  0  1  0  0  0  0  0  0  0  0
   -0.9720    3.6470   -1.6099 H   0  0  0  1  0  0  0  0  0  0  0  0
   -1.4741    2.7257   -0.2123 H   0  0  0  1  0  0  0  0  0  0  0  0
  1  4  1  0  0  0  0
  2  4  1  0  0  0  0
  2  5  2  0  0  0  0
  2  6  1  0  0  0  0
  3  4  1  0  0  0  0
  3  7  1  0  0  0  0
  3  8  1  0  0  0  0
  4 26  1  0  0  0  0
  6  9  1  0  0  0  0
  6 12  1  0  0  0  0
  8 10  1  0  0  0  0
  8 11  2  0  0  0  0
  9 13  1  0  0  0  0
  9 14  1  0  0  0  0
  9 15  1  0  0  0  0
 10 16  1  0  0  0  0
 10 17  1  0  0  0  0
 10 18  1  0  0  0  0
 19 20  1  0  0  0  0
 20 21  4  0  0  0  0
 20 25  4  0  0  0  0
 21 22  4  0  0  0  0
 21 28  1  0  0  0  0
 22 23  4  0  0  0  0
 22 27  1  0  0  0  0
 23 24  4  0  0  0  0
 23 29  1  0  0  0  0
 24 25  4  0  0  0  0
 24 26  1  0  0  0  0
 25 30  1  0  0  0  0
 26 31  1  0  0  0  0
 26 32  1  0  0  0  0
M  END
> <BCLConfClusterSize>
1

> <ConfClashScore>
0 

> <ConfOneFourInteractionScore>
-0.966825 

> <ConfScore>
0.228115 

> <ConfScorePBest>
0.00598259 

> <ConfTolerance>
0.272655 

> <RosettaParamsInstructions>
M  ROOT 3
M  POLY_N_BB 3
M  POLY_CA_BB 4
M  POLY_C_BB 2
M  POLY_O_BB 5
M  POLY_IGNORE 9 10 11 12 13 14 15 16 17 18 
M  POLY_UPPER 6
M  POLY_LOWER 8
M  POLY_CHG 0
M  POLY_PROPERTIES ALPHA_AA D_AA PROTEIN AROMATIC POLYMER 
M  END

$$$$



 32 32  0  0  0  0  0  0  0  0999 V2000
   -1.9163    2.3851    0.7271 H   0  0  0  1  0  0  0  0  0  0  0  0
    0.1659    2.1439    0.5827 C   0  0  0  1  0  0  0  0  0  0  0  0
   -1.5719    0.5610   -0.1615 N   0  0  0  1  0  0  0  0  0  0  0  0
   -1.2311    1.9648    0.0210 C   0  0  0  1  0  0  0  0  0  0  0  0
    0.6161    3.2600    0.8276 O   0  0  0  1  0  0  0  0  0  0  0  0
    0.8609    1.0140    0.7886 N   0  0  0  1  0  0  0  0  0  0  0  0
   -1.6280    0.2179   -1.0778 H   0  0  0  1  0  0  0  0  0  0  0  0
   -1.8153   -0.2974    0.8504 C   0  0  0  1  0  0  0  0  0  0  0  0
    2.2286    0.9555    1.2825 C   0  0  0  1  0  0  0  0  0  0  0  0
   -2.1706   -1.7294    0.5006 C   0  0  0  1  0  0  0  0  0  0  0  0
   -1.7515    0.0683    2.0234 O   0  0  0  1  0  0  0  0  0  0  0  0
    0.4136    0.1646    0.5915 H   0  0  0  1  0  0  0  0  0  0  0  0
    2.3791    1.7260    2.0095 H   0  0  0  1  0  0  0  0  0  0  0  0
    2.9080    1.0963    0.4680 H   0  0  0  1  0  0  0  0  0  0  0  0
    2.4043    0.0010    1.7331 H   0  0  0  1  0  0  0  0  0  0  0  0
   -1.3723   -2.1687   -0.0603 H   0  0  0  1  0  0  0  0  0  0  0  0
   -3.0662   -1.7416   -0.0848 H   0  0  0  1  0  0  0  0  0  0  0  0
   -2.3241   -2.2885    1.3999 H   0  0  0  1  0  0  0  0  0  0  0  0
   -6.0556    1.3105   -0.9392 F   0  0  0  1  0  0  0  0  0  0  0  0
   -5.0686    1.8657   -1.6683 C   0  0  0  1  0  0  0  0  0  0  0  0
   -5.3199    2.2947   -2.9622 C   0  0  0  1  0  0  0  0  0  0  0  0
   -4.3058    2.8595   -3.7124 C   0  0  0  1  0  0  0  0  0  0  0  0
   -3.0387    3.0020   -3.1688 C   0  0  0  1  0  0  0  0  0  0  0  0
   -2.7879    2.5744   -1.8786 C   0  0  0  1  0  0  0  0  0  0  0  0
   -3.8051    2.0078   -1.1264 C   0  0  0  1  0  0  0  0  0  0  0  0
   -1.4059    2.7240   -1.2878 C   0  0  0  1  0  0  0  0  0  0  0  0
   -4.5055    3.2847   -4.9747 F   0  0  0  1  0  0  0  0  0  0  0  0
   -6.2716    2.1914   -3.3686 H   0  0  0  1  0  0  0  0  0  0  0  0
   -2.2766    3.4307   -3.7318 H   0  0  0  1  0  0  0  0  0  0  0  0
   -3.6175    1.6897   -0.1541 H   0  0  0  1  0  0  0  0  0  0  0  0
   -0.6918    2.3546   -1.9938 H   0  0  0  1  0  0  0  0  0  0  0  0
   -1.2239    3.7626   -1.1059 H   0  0  0  1  0  0  0  0  0  0  0  0
  1  4  1  0  0  0  0
  2  4  1  0  0  0  0
  2  5  2  0  0  0  0
  2  6  1  0  0  0  0
  3  4  1  0  0  0  0
  3  7  1  0  0  0  0
  3  8  1  0  0  0  0
  4 26  1  0  0  0  0
  6  9  1  0  0  0  0
  6 12  1  0  0  0  0
  8 10  1  0  0  0  0
  8 11  2  0  0  0  0
  9 13  1  0  0  0  0
  9 14  1  0  0  0  0
  9 15  1  0  0  0  0
 10 16  1  0  0  0  0
 10 17  1  0  0  0  0
 10 18  1  0  0  0  0
 19 20  1  0  0  0  0
 20 21  4  0  0  0  0
 20 25  4  0  0  0  0
 21 22  4  0  0  0  0
 21 28  1  0  0  0  0
 22 23  4  0  0  0  0
 22 27  1  0  0  0  0
 23 24  4  0  0  0  0
 23 29  1  0  0  0  0
 24 25  4  0  0  0  0
 24 26  1  0  0  0  0
 25 30  1  0  0  0  0
 26 31  1  0  0  0  0
 26 32  1  0  0  0  0
M  END
> <BCLConfClusterSize>
1

> <ConfClashScore>
0 

> <ConfOneFourInteractionScore>
-0.934209 

> <ConfScore>
0.229037 

> <ConfScorePBest>
0.00595411 

> <ConfTolerance>
0.269506 

> <RosettaParamsInstructions>
M  ROOT 3
M  POLY_N_BB 3
M  POLY_CA_BB 4
M  POLY_C_BB 2
M  POLY_O_BB 5
M  POLY_IGNORE 9 10 11 12 13 14 15 16 17 18 
M  POLY_UPPER 6
M  POLY_LOWER 8
M  POLY_CHG 0
M  POLY_PROPERTIES ALPHA_AA D_AA PROTEIN AROMATIC POLYMER 
M  END

$$$$



 32 32  0  0  0  0  0  0  0  0999 V2000
   -0.1999    4.0912   -0.2202 H   0  0  0  1  0  0  0  0  0  0  0  0
   -2.1902    4.5472    0.2623 C   0  0  0  1  0  0  0  0  0  0  0  0
   -1.0136    5.0746   -1.8342 N   0  0  0  1  0  0  0  0  0  0  0  0
   -1.1362    4.1267   -0.7368 C   0  0  0  1  0  0  0  0  0  0  0  0
   -2.0222    4.3715    1.4684 O   0  0  0  1  0  0  0  0  0  0  0  0
   -3.3177    5.1196   -0.2082 N   0  0  0  1  0  0  0  0  0  0  0  0
   -0.7169    4.7489   -2.7096 H   0  0  0  1  0  0  0  0  0  0  0  0
   -1.2913    6.3735   -1.6899 C   0  0  0  1  0  0  0  0  0  0  0  0
   -4.3889    5.4842    0.7070 C   0  0  0  1  0  0  0  0  0  0  0  0
   -1.2551    7.2001   -2.9605 C   0  0  0  1  0  0  0  0  0  0  0  0
   -1.5610    6.8831   -0.6055 O   0  0  0  1  0  0  0  0  0  0  0  0
   -3.4156    5.2902   -1.1682 H   0  0  0  1  0  0  0  0  0  0  0  0
   -3.9793    5.6819    1.6756 H   0  0  0  1  0  0  0  0  0  0  0  0
   -5.0900    4.6787    0.7741 H   0  0  0  1  0  0  0  0  0  0  0  0
   -4.8849    6.3601    0.3442 H   0  0  0  1  0  0  0  0  0  0  0  0
   -1.8920    8.0527   -2.8503 H   0  0  0  1  0  0  0  0  0  0  0  0
   -1.5949    6.6052   -3.7825 H   0  0  0  1  0  0  0  0  0  0  0  0
   -0.2527    7.5255   -3.1455 H   0  0  0  1  0  0  0  0  0  0  0  0
   -6.0335    1.3084   -0.9179 F   0  0  0  1  0  0  0  0  0  0  0  0
   -5.0716    1.8680   -1.6765 C   0  0  0  1  0  0  0  0  0  0  0  0
   -5.3166    2.2989   -2.9710 C   0  0  0  1  0  0  0  0  0  0  0  0
   -4.2984    2.8630   -3.7161 C   0  0  0  1  0  0  0  0  0  0  0  0
   -3.0333    3.0028   -3.1670 C   0  0  0  1  0  0  0  0  0  0  0  0
   -2.7888    2.5732   -1.8762 C   0  0  0  1  0  0  0  0  0  0  0  0
   -3.8102    2.0074   -1.1290 C   0  0  0  1  0  0  0  0  0  0  0  0
   -1.4091    2.7199   -1.2793 C   0  0  0  1  0  0  0  0  0  0  0  0
   -4.5352    3.2769   -4.9757 F   0  0  0  1  0  0  0  0  0  0  0  0
   -6.2667    2.1977   -3.3816 H   0  0  0  1  0  0  0  0  0  0  0  0
   -2.2681    3.4309   -3.7262 H   0  0  0  1  0  0  0  0  0  0  0  0
   -3.6273    1.6879   -0.1564 H   0  0  0  1  0  0  0  0  0  0  0  0
   -1.3093    2.0199   -0.4762 H   0  0  0  1  0  0  0  0  0  0  0  0
   -0.6854    2.5005   -2.0363 H   0  0  0  1  0  0  0  0  0  0  0  0
  1  4  1  0  0  0  0
  2  4  1  0  0  0  0
  2  5  2  0  0  0  0
  2  6  1  0  0  0  0
  3  4  1  0  0  0  0
  3  7  1  0  0  0  0
  3  8  1  0  0  0  0
  4 26  1  0  0  0  0
  6  9  1  0  0  0  0
  6 12  1  0  0  0  0
  8 10  1  0  0  0  0
  8 11  2  0  0  0  0
  9 13  1  0  0  0  0
  9 14  1  0  0  0  0
  9 15  1  0  0  0  0
 10 16  1  0  0  0  0
 10 17  1  0  0  0  0
 10 18  1  0  0  0  0
 19 20  1  0  0  0  0
 20 21  4  0  0  0  0
 20 25  4  0  0  0  0
 21 22  4  0  0  0  0
 21 28  1  0  0  0  0
 22 23  4  0  0  0  0
 22 27  1  0  0  0  0
 23 24  4  0  0  0  0
 23 29  1  0  0  0  0
 24 25  4  0  0  0  0
 24 26  1  0  0  0  0
 25 30  1  0  0  0  0
 26 31  1  0  0  0  0
 26 32  1  0  0  0  0
M  END
> <BCLConfClusterSize>
1

> <ConfClashScore>
0 

> <ConfOneFourInteractionScore>
-0.950025 

> <ConfScore>
0.229161 

> <ConfScorePBest>
0.00592562 

> <ConfTolerance>
0.337443 

> <RosettaParamsInstructions>
M  ROOT 3
M  POLY_N_BB 3
M  POLY_CA_BB 4
M  POLY_C_BB 2
M  POLY_O_BB 5
M  POLY_IGNORE 9 10 11 12 13 14 15 16 17 18 
M  POLY_UPPER 6
M  POLY_LOWER 8
M  POLY_CHG 0
M  POLY_PROPERTIES ALPHA_AA D_AA PROTEIN AROMATIC POLYMER 
M  END

$$$$



 32 32  0  0  0  0  0  0  0  0999 V2000
    0.5348    1.9355   -1.4479 H   0  0  0  1  0  0  0  0  0  0  0  0
    0.0797    2.7407   -3.3251 C   0  0  0  1  0  0  0  0  0  0  0  0
   -0.7076    0.6069   -2.4074 N   0  0  0  1  0  0  0  0  0  0  0  0
   -0.3302    1.9846   -2.0758 C   0  0  0  1  0  0  0  0  0  0  0  0
    0.8619    3.6878   -3.2611 O   0  0  0  1  0  0  0  0  0  0  0  0
   -0.4361    2.3455   -4.4998 N   0  0  0  1  0  0  0  0  0  0  0  0
   -1.6047    0.3084   -2.1496 H   0  0  0  1  0  0  0  0  0  0  0  0
    0.0782   -0.2705   -3.0335 C   0  0  0  1  0  0  0  0  0  0  0  0
   -0.0493    2.8737   -5.7995 C   0  0  0  1  0  0  0  0  0  0  0  0
   -0.4973   -1.6624   -3.2084 C   0  0  0  1  0  0  0  0  0  0  0  0
    1.1988    0.0127   -3.4487 O   0  0  0  1  0  0  0  0  0  0  0  0
   -1.1251    1.6489   -4.4807 H   0  0  0  1  0  0  0  0  0  0  0  0
   -0.0598    2.0854   -6.5229 H   0  0  0  1  0  0  0  0  0  0  0  0
    0.9356    3.2873   -5.7374 H   0  0  0  1  0  0  0  0  0  0  0  0
   -0.7392    3.6368   -6.0938 H   0  0  0  1  0  0  0  0  0  0  0  0
   -1.4206   -1.7371   -2.6728 H   0  0  0  1  0  0  0  0  0  0  0  0
    0.1948   -2.3845   -2.8281 H   0  0  0  1  0  0  0  0  0  0  0  0
   -0.6720   -1.8479   -4.2476 H   0  0  0  1  0  0  0  0  0  0  0  0
   -6.0561    1.3124   -0.9444 F   0  0  0  1  0  0  0  0  0  0  0  0
   -5.0671    1.8672   -1.6711 C   0  0  0  1  0  0  0  0  0  0  0  0
   -5.3152    2.2971   -2.9653 C   0  0  0  1  0  0  0  0  0  0  0  0
   -4.2991    2.8616   -3.7130 C   0  0  0  1  0  0  0  0  0  0  0  0
   -3.0330    3.0027   -3.1666 C   0  0  0  1  0  0  0  0  0  0  0  0
   -2.7853    2.5741   -1.8761 C   0  0  0  1  0  0  0  0  0  0  0  0
   -3.8046    2.0080   -1.1264 C   0  0  0  1  0  0  0  0  0  0  0  0
   -1.4045    2.7223   -1.2822 C   0  0  0  1  0  0  0  0  0  0  0  0
   -4.5390    3.2745   -4.9723 F   0  0  0  1  0  0  0  0  0  0  0  0
   -6.2661    2.1949   -3.3738 H   0  0  0  1  0  0  0  0  0  0  0  0
   -2.2693    3.4311   -3.7277 H   0  0  0  1  0  0  0  0  0  0  0  0
   -3.6194    1.6891   -0.1540 H   0  0  0  1  0  0  0  0  0  0  0  0
   -1.1547    3.7624   -1.2563 H   0  0  0  1  0  0  0  0  0  0  0  0
   -1.4189    2.3334   -0.2855 H   0  0  0  1  0  0  0  0  0  0  0  0
  1  4  1  0  0  0  0
  2  4  1  0  0  0  0
  2  5  2  0  0  0  0
  2  6  1  0  0  0  0
  3  4  1  0  0  0  0
  3  7  1  0  0  0  0
  3  8  1  0  0  0  0
  4 26  1  0  0  0  0
  6  9  1  0  0  0  0
  6 12  1  0  0  0  0
  8 10  1  0  0  0  0
  8 11  2  0  0  0  0
  9 13  1  0  0  0  0
  9 14  1  0  0  0  0
  9 15  1  0  0  0  0
 10 16  1  0  0  0  0
 10 17  1  0  0  0  0
 10 18  1  0  0  0  0
 19 20  1  0  0  0  0
 20 21  4  0  0  0  0
 20 25  4  0  0  0  0
 21 22  4  0  0  0  0
 21 28  1  0  0  0  0
 22 23  4  0  0  0  0
 22 27  1  0  0  0  0
 23 24  4  0  0  0  0
 23 29  1  0  0  0  0
 24 25  4  0  0  0  0
 24 26  1  0  0  0  0
 25 30  1  0  0  0  0
 26 31  1  0  0  0  0
 26 32  1  0  0  0  0
M  END
> <BCLConfClusterSize>
1

> <ConfClashScore>
0 

> <ConfOneFourInteractionScore>
-0.931937 

> <ConfScore>
0.229304 

> <ConfScorePBest>
0.00589714 

> <ConfTolerance>
0.371635 

> <RosettaParamsInstructions>
M  ROOT 3
M  POLY_N_BB 3
M  POLY_CA_BB 4
M  POLY_C_BB 2
M  POLY_O_BB 5
M  POLY_IGNORE 9 10 11 12 13 14 15 16 17 18 
M  POLY_UPPER 6
M  POLY_LOWER 8
M  POLY_CHG 0
M  POLY_PROPERTIES ALPHA_AA D_AA PROTEIN AROMATIC POLYMER 
M  END

$$$$



 32 32  0  0  0  0  0  0  0  0999 V2000
   -0.3089    1.6776   -2.7506 H   0  0  0  1  0  0  0  0  0  0  0  0
   -1.0189    0.2243   -1.3981 C   0  0  0  1  0  0  0  0  0  0  0  0
    0.8263    1.8242   -1.0322 N   0  0  0  1  0  0  0  0  0  0  0  0
   -0.4551    1.6044   -1.6932 C   0  0  0  1  0  0  0  0  0  0  0  0
   -1.5983   -0.4206   -2.2710 O   0  0  0  1  0  0  0  0  0  0  0  0
   -0.8665   -0.2652   -0.1666 N   0  0  0  1  0  0  0  0  0  0  0  0
    0.9325    2.6481   -0.5122 H   0  0  0  1  0  0  0  0  0  0  0  0
    1.8766    0.9788   -1.0828 C   0  0  0  1  0  0  0  0  0  0  0  0
   -1.4428   -1.5131    0.3112 C   0  0  0  1  0  0  0  0  0  0  0  0
    3.1465    1.3793   -0.3666 C   0  0  0  1  0  0  0  0  0  0  0  0
    1.8056   -0.0871   -1.6930 O   0  0  0  1  0  0  0  0  0  0  0  0
   -0.3257    0.2548    0.4640 H   0  0  0  1  0  0  0  0  0  0  0  0
   -1.4302   -2.2371   -0.4766 H   0  0  0  1  0  0  0  0  0  0  0  0
   -2.4521   -1.3433    0.6230 H   0  0  0  1  0  0  0  0  0  0  0  0
   -0.8698   -1.8767    1.1384 H   0  0  0  1  0  0  0  0  0  0  0  0
    3.8574    1.7452   -1.0777 H   0  0  0  1  0  0  0  0  0  0  0  0
    3.5538    0.5289    0.1392 H   0  0  0  1  0  0  0  0  0  0  0  0
    2.9272    2.1472    0.3455 H   0  0  0  1  0  0  0  0  0  0  0  0
   -6.0561    1.3124   -0.9444 F   0  0  0  1  0  0  0  0  0  0  0  0
   -5.0671    1.8672   -1.6711 C   0  0  0  1  0  0  0  0  0  0  0  0
   -5.3152    2.2971   -2.9653 C   0  0  0  1  0  0  0  0  0  0  0  0
   -4.2991    2.8616   -3.7130 C   0  0  0  1  0  0  0  0  0  0  0  0
   -3.0330    3.0027   -3.1666 C   0  0  0  1  0  0  0  0  0  0  0  0
   -2.7853    2.5741   -1.8761 C   0  0  0  1  0  0  0  0  0  0  0  0
   -3.8046    2.0080   -1.1264 C   0  0  0  1  0  0  0  0  0  0  0  0
   -1.4045    2.7223   -1.2822 C   0  0  0  1  0  0  0  0  0  0  0  0
   -4.5390    3.2745   -4.9723 F   0  0  0  1  0  0  0  0  0  0  0  0
   -6.2661    2.1949   -3.3738 H   0  0  0  1  0  0  0  0  0  0  0  0
   -2.2693    3.4311   -3.7277 H   0  0  0  1  0  0  0  0  0  0  0  0
   -3.6194    1.6891   -0.1540 H   0  0  0  1  0  0  0  0  0  0  0  0
   -0.9926    3.6552   -1.6064 H   0  0  0  1  0  0  0  0  0  0  0  0
   -1.4905    2.7212   -0.2157 H   0  0  0  1  0  0  0  0  0  0  0  0
  1  4  1  0  0  0  0
  2  4  1  0  0  0  0
  2  5  2  0  0  0  0
  2  6  1  0  0  0  0
  3  4  1  0  0  0  0
  3  7  1  0  0  0  0
  3  8  1  0  0  0  0
  4 26  1  0  0  0  0
  6  9  1  0  0  0  0
  6 12  1  0  0  0  0
  8 10  1  0  0  0  0
  8 11  2  0  0  0  0
  9 13  1  0  0  0  0
  9 14  1  0  0  0  0
  9 15  1  0  0  0  0
 10 16  1  0  0  0  0
 10 17  1  0  0  0  0
 10 18  1  0  0  0  0
 19 20  1  0  0  0  0
 20 21  4  0  0  0  0
 20 25  4  0  0  0  0
 21 22  4  0  0  0  0
 21 28  1  0  0  0  0
 22 23  4  0  0  0  0
 22 27  1  0  0  0  0
 23 24  4  0  0  0  0
 23 29  1  0  0  0  0
 24 25  4  0  0  0  0
 24 26  1  0  0  0  0
 25 30  1  0  0  0  0
 26 31  1  0  0  0  0
 26 32  1  0  0  0  0
M  END
> <BCLConfClusterSize>
1

> <ConfClashScore>
0 

> <ConfOneFourInteractionScore>
-0.960318 

> <ConfScore>
0.229636 

> <ConfScorePBest>
0.00586866 

> <ConfTolerance>
0.289042 

> <RosettaParamsInstructions>
M  ROOT 3
M  POLY_N_BB 3
M  POLY_CA_BB 4
M  POLY_C_BB 2
M  POLY_O_BB 5
M  POLY_IGNORE 9 10 11 12 13 14 15 16 17 18 
M  POLY_UPPER 6
M  POLY_LOWER 8
M  POLY_CHG 0
M  POLY_PROPERTIES ALPHA_AA D_AA PROTEIN AROMATIC POLYMER 
M  END

$$$$



 32 32  0  0  0  0  0  0  0  0999 V2000
   -0.2408    3.5412    0.2255 H   0  0  0  1  0  0  0  0  0  0  0  0
   -2.1096    3.0362    1.0611 C   0  0  0  1  0  0  0  0  0  0  0  0
   -1.6092    4.9063   -0.5014 N   0  0  0  1  0  0  0  0  0  0  0  0
   -1.2643    3.5549   -0.0859 C   0  0  0  1  0  0  0  0  0  0  0  0
   -2.1464    1.8376    1.3360 O   0  0  0  1  0  0  0  0  0  0  0  0
   -2.8012    3.9632    1.7412 N   0  0  0  1  0  0  0  0  0  0  0  0
   -2.0429    5.0378   -1.3703 H   0  0  0  1  0  0  0  0  0  0  0  0
   -1.3549    5.9740    0.2605 C   0  0  0  1  0  0  0  0  0  0  0  0
   -3.7045    3.5633    2.8083 C   0  0  0  1  0  0  0  0  0  0  0  0
   -1.6065    7.3212   -0.3884 C   0  0  0  1  0  0  0  0  0  0  0  0
   -0.9434    5.8893    1.4145 O   0  0  0  1  0  0  0  0  0  0  0  0
   -2.6974    4.9119    1.5184 H   0  0  0  1  0  0  0  0  0  0  0  0
   -4.5493    3.0569    2.3901 H   0  0  0  1  0  0  0  0  0  0  0  0
   -4.0359    4.4314    3.3388 H   0  0  0  1  0  0  0  0  0  0  0  0
   -3.1929    2.9072    3.4811 H   0  0  0  1  0  0  0  0  0  0  0  0
   -1.4432    7.2457   -1.4431 H   0  0  0  1  0  0  0  0  0  0  0  0
   -0.9370    8.0464    0.0249 H   0  0  0  1  0  0  0  0  0  0  0  0
   -2.6167    7.6221   -0.2047 H   0  0  0  1  0  0  0  0  0  0  0  0
   -6.0600    1.3077   -0.9539 F   0  0  0  1  0  0  0  0  0  0  0  0
   -5.0688    1.8683   -1.6731 C   0  0  0  1  0  0  0  0  0  0  0  0
   -5.3087    2.2935   -2.9704 C   0  0  0  1  0  0  0  0  0  0  0  0
   -4.2902    2.8639   -3.7104 C   0  0  0  1  0  0  0  0  0  0  0  0
   -3.0301    3.0156   -3.1532 C   0  0  0  1  0  0  0  0  0  0  0  0
   -2.7906    2.5917   -1.8597 C   0  0  0  1  0  0  0  0  0  0  0  0
   -3.8122    2.0196   -1.1177 C   0  0  0  1  0  0  0  0  0  0  0  0
   -1.3798    2.6801   -1.3273 C   0  0  0  1  0  0  0  0  0  0  0  0
   -4.5651    3.2584   -4.9685 F   0  0  0  1  0  0  0  0  0  0  0  0
   -6.2552    2.1833   -3.3870 H   0  0  0  1  0  0  0  0  0  0  0  0
   -2.2647    3.4485   -3.7086 H   0  0  0  1  0  0  0  0  0  0  0  0
   -3.6332    1.7043   -0.1429 H   0  0  0  1  0  0  0  0  0  0  0  0
   -1.0463    1.6937   -1.0811 H   0  0  0  1  0  0  0  0  0  0  0  0
   -0.7524    3.0889   -2.0916 H   0  0  0  1  0  0  0  0  0  0  0  0
  1  4  1  0  0  0  0
  2  4  1  0  0  0  0
  2  5  2  0  0  0  0
  2  6  1  0  0  0  0
  3  4  1  0  0  0  0
  3  7  1  0  0  0  0
  3  8  1  0  0  0  0
  4 26  1  0  0  0  0
  6  9  1  0  0  0  0
  6 12  1  0  0  0  0
  8 10  1  0  0  0  0
  8 11  2  0  0  0  0
  9 13  1  0  0  0  0
  9 14  1  0  0  0  0
  9 15  1  0  0  0  0
 10 16  1  0  0  0  0
 10 17  1  0  0  0  0
 10 18  1  0  0  0  0
 19 20  1  0  0  0  0
 20 21  4  0  0  0  0
 20 25  4  0  0  0  0
 21 22  4  0  0  0  0
 21 28  1  0  0  0  0
 22 23  4  0  0  0  0
 22 27  1  0  0  0  0
 23 24  4  0  0  0  0
 23 29  1  0  0  0  0
 24 25  4  0  0  0  0
 24 26  1  0  0  0  0
 25 30  1  0  0  0  0
 26 31  1  0  0  0  0
 26 32  1  0  0  0  0
M  END
> <BCLConfClusterSize>
1

> <ConfClashScore>
0.00455365 

> <ConfOneFourInteractionScore>
-0.950605 

> <ConfScore>
0.230216 

> <ConfScorePBest>
0.00584018 

> <ConfTolerance>
0.314603 

> <RosettaParamsInstructions>
M  ROOT 3
M  POLY_N_BB 3
M  POLY_CA_BB 4
M  POLY_C_BB 2
M  POLY_O_BB 5
M  POLY_IGNORE 9 10 11 12 13 14 15 16 17 18 
M  POLY_UPPER 6
M  POLY_LOWER 8
M  POLY_CHG 0
M  POLY_PROPERTIES ALPHA_AA D_AA PROTEIN AROMATIC POLYMER 
M  END

$$$$



 32 32  0  0  0  0  0  0  0  0999 V2000
   -1.0883    4.7223   -1.6709 H   0  0  0  1  0  0  0  0  0  0  0  0
    0.2936    4.2144   -0.1789 C   0  0  0  1  0  0  0  0  0  0  0  0
   -2.1405    4.6587    0.0816 N   0  0  0  1  0  0  0  0  0  0  0  0
   -1.1034    4.1207   -0.7862 C   0  0  0  1  0  0  0  0  0  0  0  0
    1.1719    3.4556   -0.5547 O   0  0  0  1  0  0  0  0  0  0  0  0
    0.5057    5.2036    0.6938 N   0  0  0  1  0  0  0  0  0  0  0  0
   -2.7862    5.2947   -0.2912 H   0  0  0  1  0  0  0  0  0  0  0  0
   -2.2438    4.3124    1.3815 C   0  0  0  1  0  0  0  0  0  0  0  0
    1.7899    5.3994    1.3498 C   0  0  0  1  0  0  0  0  0  0  0  0
   -3.3264    4.9687    2.2080 C   0  0  0  1  0  0  0  0  0  0  0  0
   -1.4869    3.4936    1.8779 O   0  0  0  1  0  0  0  0  0  0  0  0
   -0.2291    5.8187    0.8992 H   0  0  0  1  0  0  0  0  0  0  0  0
    1.9502    4.6169    2.0618 H   0  0  0  1  0  0  0  0  0  0  0  0
    1.7931    6.3443    1.8519 H   0  0  0  1  0  0  0  0  0  0  0  0
    2.5704    5.3810    0.6182 H   0  0  0  1  0  0  0  0  0  0  0  0
   -4.0408    5.4304    1.5590 H   0  0  0  1  0  0  0  0  0  0  0  0
   -2.8895    5.7111    2.8428 H   0  0  0  1  0  0  0  0  0  0  0  0
   -3.8150    4.2291    2.8073 H   0  0  0  1  0  0  0  0  0  0  0  0
   -6.0485    1.3134   -0.9416 F   0  0  0  1  0  0  0  0  0  0  0  0
   -5.0624    1.8688   -1.6718 C   0  0  0  1  0  0  0  0  0  0  0  0
   -5.3150    2.2973   -2.9656 C   0  0  0  1  0  0  0  0  0  0  0  0
   -4.3018    2.8624   -3.7169 C   0  0  0  1  0  0  0  0  0  0  0  0
   -3.0342    3.0054   -3.1745 C   0  0  0  1  0  0  0  0  0  0  0  0
   -2.7821    2.5782   -1.8845 C   0  0  0  1  0  0  0  0  0  0  0  0
   -3.7984    2.0115   -1.1311 C   0  0  0  1  0  0  0  0  0  0  0  0
   -1.4205    2.7027   -1.2425 C   0  0  0  1  0  0  0  0  0  0  0  0
   -4.5461    3.2739   -4.9758 F   0  0  0  1  0  0  0  0  0  0  0  0
   -6.2671    2.1936   -3.3711 H   0  0  0  1  0  0  0  0  0  0  0  0
   -2.2728    3.4343   -3.7384 H   0  0  0  1  0  0  0  0  0  0  0  0
   -3.6098    1.6937   -0.1590 H   0  0  0  1  0  0  0  0  0  0  0  0
   -1.3847    2.0550   -0.3916 H   0  0  0  1  0  0  0  0  0  0  0  0
   -0.6800    2.4000   -1.9531 H   0  0  0  1  0  0  0  0  0  0  0  0
  1  4  1  0  0  0  0
  2  4  1  0  0  0  0
  2  5  2  0  0  0  0
  2  6  1  0  0  0  0
  3  4  1  0  0  0  0
  3  7  1  0  0  0  0
  3  8  1  0  0  0  0
  4 26  1  0  0  0  0
  6  9  1  0  0  0  0
  6 12  1  0  0  0  0
  8 10  1  0  0  0  0
  8 11  2  0  0  0  0
  9 13  1  0  0  0  0
  9 14  1  0  0  0  0
  9 15  1  0  0  0  0
 10 16  1  0  0  0  0
 10 17  1  0  0  0  0
 10 18  1  0  0  0  0
 19 20  1  0  0  0  0
 20 21  4  0  0  0  0
 20 25  4  0  0  0  0
 21 22  4  0  0  0  0
 21 28  1  0  0  0  0
 22 23  4  0  0  0  0
 22 27  1  0  0  0  0
 23 24  4  0  0  0  0
 23 29  1  0  0  0  0
 24 25  4  0  0  0  0
 24 26  1  0  0  0  0
 25 30  1  0  0  0  0
 26 31  1  0  0  0  0
 26 32  1  0  0  0  0
M  END
> <BCLConfClusterSize>
1

> <ConfClashScore>
0 

> <ConfOneFourInteractionScore>
-0.957364 

> <ConfScore>
0.231314 

> <ConfScorePBest>
0.0058117 

> <ConfTolerance>
0.186257 

> <RosettaParamsInstructions>
M  ROOT 3
M  POLY_N_BB 3
M  POLY_CA_BB 4
M  POLY_C_BB 2
M  POLY_O_BB 5
M  POLY_IGNORE 9 10 11 12 13 14 15 16 17 18 
M  POLY_UPPER 6
M  POLY_LOWER 8
M  POLY_CHG 0
M  POLY_PROPERTIES ALPHA_AA D_AA PROTEIN AROMATIC POLYMER 
M  END

$$$$



 32 32  0  0  0  0  0  0  0  0999 V2000
    0.5227    1.8775   -1.2016 H   0  0  0  1  0  0  0  0  0  0  0  0
   -0.0064    1.8739   -3.2429 C   0  0  0  1  0  0  0  0  0  0  0  0
   -0.8329    0.3477   -1.5245 N   0  0  0  1  0  0  0  0  0  0  0  0
   -0.3700    1.7208   -1.7702 C   0  0  0  1  0  0  0  0  0  0  0  0
   -0.3471    2.8667   -3.8848 O   0  0  0  1  0  0  0  0  0  0  0  0
    0.6960    0.8696   -3.7748 N   0  0  0  1  0  0  0  0  0  0  0  0
   -0.4217   -0.1432   -0.7826 H   0  0  0  1  0  0  0  0  0  0  0  0
   -1.7706   -0.2808   -2.2352 C   0  0  0  1  0  0  0  0  0  0  0  0
    1.1556    0.8881   -5.1555 C   0  0  0  1  0  0  0  0  0  0  0  0
   -2.2068   -1.6390   -1.7008 C   0  0  0  1  0  0  0  0  0  0  0  0
   -2.2592    0.1866   -3.2507 O   0  0  0  1  0  0  0  0  0  0  0  0
    0.9093    0.0935   -3.2157 H   0  0  0  1  0  0  0  0  0  0  0  0
    0.5548    1.5678   -5.7228 H   0  0  0  1  0  0  0  0  0  0  0  0
    1.0724   -0.0941   -5.5720 H   0  0  0  1  0  0  0  0  0  0  0  0
    2.1774    1.2040   -5.1869 H   0  0  0  1  0  0  0  0  0  0  0  0
   -2.1502   -2.3659   -2.4839 H   0  0  0  1  0  0  0  0  0  0  0  0
   -3.2141   -1.5754   -1.3456 H   0  0  0  1  0  0  0  0  0  0  0  0
   -1.5625   -1.9295   -0.8975 H   0  0  0  1  0  0  0  0  0  0  0  0
   -6.0566    1.3143   -0.9498 F   0  0  0  1  0  0  0  0  0  0  0  0
   -5.0656    1.8687   -1.6740 C   0  0  0  1  0  0  0  0  0  0  0  0
   -5.3106    2.2996   -2.9685 C   0  0  0  1  0  0  0  0  0  0  0  0
   -4.2924    2.8637   -3.7136 C   0  0  0  1  0  0  0  0  0  0  0  0
   -3.0273    3.0035   -3.1645 C   0  0  0  1  0  0  0  0  0  0  0  0
   -2.7828    2.5739   -1.8737 C   0  0  0  1  0  0  0  0  0  0  0  0
   -3.8042    2.0081   -1.1265 C   0  0  0  1  0  0  0  0  0  0  0  0
   -1.4031    2.7206   -1.2768 C   0  0  0  1  0  0  0  0  0  0  0  0
   -4.5723    3.2640   -4.9688 F   0  0  0  1  0  0  0  0  0  0  0  0
   -6.2607    2.1984   -3.3791 H   0  0  0  1  0  0  0  0  0  0  0  0
   -2.2621    3.4316   -3.7237 H   0  0  0  1  0  0  0  0  0  0  0  0
   -3.6213    1.6886   -0.1539 H   0  0  0  1  0  0  0  0  0  0  0  0
   -1.0471    3.7033   -1.5059 H   0  0  0  1  0  0  0  0  0  0  0  0
   -1.4889    2.6102   -0.2160 H   0  0  0  1  0  0  0  0  0  0  0  0
  1  4  1  0  0  0  0
  2  4  1  0  0  0  0
  2  5  2  0  0  0  0
  2  6  1  0  0  0  0
  3  4  1  0  0  0  0
  3  7  1  0  0  0  0
  3  8  1  0  0  0  0
  4 26  1  0  0  0  0
  6  9  1  0  0  0  0
  6 12  1  0  0  0  0
  8 10  1  0  0  0  0
  8 11  2  0  0  0  0
  9 13  1  0  0  0  0
  9 14  1  0  0  0  0
  9 15  1  0  0  0  0
 10 16  1  0  0  0  0
 10 17  1  0  0  0  0
 10 18  1  0  0  0  0
 19 20  1  0  0  0  0
 20 21  4  0  0  0  0
 20 25  4  0  0  0  0
 21 22  4  0  0  0  0
 21 28  1  0  0  0  0
 22 23  4  0  0  0  0
 22 27  1  0  0  0  0
 23 24  4  0  0  0  0
 23 29  1  0  0  0  0
 24 25  4  0  0  0  0
 24 26  1  0  0  0  0
 25 30  1  0  0  0  0
 26 31  1  0  0  0  0
 26 32  1  0  0  0  0
M  END
> <BCLConfClusterSize>
1

> <ConfClashScore>
0 

> <ConfOneFourInteractionScore>
-0.966825 

> <ConfScore>
0.232149 

> <ConfScorePBest>
0.00578322 

> <ConfTolerance>
0.248804 

> <RosettaParamsInstructions>
M  ROOT 3
M  POLY_N_BB 3
M  POLY_CA_BB 4
M  POLY_C_BB 2
M  POLY_O_BB 5
M  POLY_IGNORE 9 10 11 12 13 14 15 16 17 18 
M  POLY_UPPER 6
M  POLY_LOWER 8
M  POLY_CHG 0
M  POLY_PROPERTIES ALPHA_AA D_AA PROTEIN AROMATIC POLYMER 
M  END

$$$$



 32 32  0  0  0  0  0  0  0  0999 V2000
   -1.3864    4.8131   -1.0627 H   0  0  0  1  0  0  0  0  0  0  0  0
    0.2491    4.0758    0.0318 C   0  0  0  1  0  0  0  0  0  0  0  0
   -2.1299    3.9926    0.6720 N   0  0  0  1  0  0  0  0  0  0  0  0
   -1.1887    3.9674   -0.4377 C   0  0  0  1  0  0  0  0  0  0  0  0
    1.1398    3.9284   -0.8028 O   0  0  0  1  0  0  0  0  0  0  0  0
    0.4725    4.3244    1.3204 N   0  0  0  1  0  0  0  0  0  0  0  0
   -2.8207    4.6875    0.6906 H   0  0  0  1  0  0  0  0  0  0  0  0
   -2.0850    3.1028    1.6647 C   0  0  0  1  0  0  0  0  0  0  0  0
    1.8147    4.3785    1.8804 C   0  0  0  1  0  0  0  0  0  0  0  0
   -3.2346    3.1538    2.6746 C   0  0  0  1  0  0  0  0  0  0  0  0
   -1.2108    2.2570    1.8348 O   0  0  0  1  0  0  0  0  0  0  0  0
   -0.2935    4.4762    1.9126 H   0  0  0  1  0  0  0  0  0  0  0  0
    2.4512    3.7029    1.3482 H   0  0  0  1  0  0  0  0  0  0  0  0
    1.7818    4.0988    2.9126 H   0  0  0  1  0  0  0  0  0  0  0  0
    2.1979    5.3736    1.7920 H   0  0  0  1  0  0  0  0  0  0  0  0
   -3.5298    4.1707    2.8288 H   0  0  0  1  0  0  0  0  0  0  0  0
   -2.9122    2.7315    3.6034 H   0  0  0  1  0  0  0  0  0  0  0  0
   -4.0654    2.5948    2.2975 H   0  0  0  1  0  0  0  0  0  0  0  0
   -6.0561    1.3124   -0.9444 F   0  0  0  1  0  0  0  0  0  0  0  0
   -5.0671    1.8672   -1.6711 C   0  0  0  1  0  0  0  0  0  0  0  0
   -5.3152    2.2971   -2.9653 C   0  0  0  1  0  0  0  0  0  0  0  0
   -4.2991    2.8616   -3.7130 C   0  0  0  1  0  0  0  0  0  0  0  0
   -3.0330    3.0027   -3.1666 C   0  0  0  1  0  0  0  0  0  0  0  0
   -2.7853    2.5741   -1.8761 C   0  0  0  1  0  0  0  0  0  0  0  0
   -3.8046    2.0080   -1.1264 C   0  0  0  1  0  0  0  0  0  0  0  0
   -1.4045    2.7223   -1.2822 C   0  0  0  1  0  0  0  0  0  0  0  0
   -4.5390    3.2745   -4.9723 F   0  0  0  1  0  0  0  0  0  0  0  0
   -6.2661    2.1949   -3.3738 H   0  0  0  1  0  0  0  0  0  0  0  0
   -2.2693    3.4311   -3.7277 H   0  0  0  1  0  0  0  0  0  0  0  0
   -3.6194    1.6891   -0.1540 H   0  0  0  1  0  0  0  0  0  0  0  0
   -1.2171    1.8684   -0.6653 H   0  0  0  1  0  0  0  0  0  0  0  0
   -0.6995    2.7431   -2.0870 H   0  0  0  1  0  0  0  0  0  0  0  0
  1  4  1  0  0  0  0
  2  4  1  0  0  0  0
  2  5  2  0  0  0  0
  2  6  1  0  0  0  0
  3  4  1  0  0  0  0
  3  7  1  0  0  0  0
  3  8  1  0  0  0  0
  4 26  1  0  0  0  0
  6  9  1  0  0  0  0
  6 12  1  0  0  0  0
  8 10  1  0  0  0  0
  8 11  2  0  0  0  0
  9 13  1  0  0  0  0
  9 14  1  0  0  0  0
  9 15  1  0  0  0  0
 10 16  1  0  0  0  0
 10 17  1  0  0  0  0
 10 18  1  0  0  0  0
 19 20  1  0  0  0  0
 20 21  4  0  0  0  0
 20 25  4  0  0  0  0
 21 22  4  0  0  0  0
 21 28  1  0  0  0  0
 22 23  4  0  0  0  0
 22 27  1  0  0  0  0
 23 24  4  0  0  0  0
 23 29  1  0  0  0  0
 24 25  4  0  0  0  0
 24 26  1  0  0  0  0
 25 30  1  0  0  0  0
 26 31  1  0  0  0  0
 26 32  1  0  0  0  0
M  END
> <BCLConfClusterSize>
1

> <ConfClashScore>
0 

> <ConfOneFourInteractionScore>
-0.957723 

> <ConfScore>
0.233183 

> <ConfScorePBest>
0.00575474 

> <ConfTolerance>
0.220156 

> <RosettaParamsInstructions>
M  ROOT 3
M  POLY_N_BB 3
M  POLY_CA_BB 4
M  POLY_C_BB 2
M  POLY_O_BB 5
M  POLY_IGNORE 9 10 11 12 13 14 15 16 17 18 
M  POLY_UPPER 6
M  POLY_LOWER 8
M  POLY_CHG 0
M  POLY_PROPERTIES ALPHA_AA D_AA PROTEIN AROMATIC POLYMER 
M  END

$$$$



 32 32  0  0  0  0  0  0  0  0999 V2000
   -1.6426    1.1335    0.1682 H   0  0  0  1  0  0  0  0  0  0  0  0
    0.4058    1.7158    0.1817 C   0  0  0  1  0  0  0  0  0  0  0  0
   -0.6947    0.3862   -1.5360 N   0  0  0  1  0  0  0  0  0  0  0  0
   -0.9118    1.4512   -0.5459 C   0  0  0  1  0  0  0  0  0  0  0  0
    0.4249    2.0620    1.3619 O   0  0  0  1  0  0  0  0  0  0  0  0
    1.5195    1.5459   -0.5483 N   0  0  0  1  0  0  0  0  0  0  0  0
   -0.8707    0.5761   -2.4812 H   0  0  0  1  0  0  0  0  0  0  0  0
   -0.2666   -0.8295   -1.1925 C   0  0  0  1  0  0  0  0  0  0  0  0
    2.8761    1.6075   -0.0251 C   0  0  0  1  0  0  0  0  0  0  0  0
   -0.1580   -1.8399   -2.3302 C   0  0  0  1  0  0  0  0  0  0  0  0
    0.0266   -1.1348   -0.0376 O   0  0  0  1  0  0  0  0  0  0  0  0
    1.4107    1.3669   -1.5056 H   0  0  0  1  0  0  0  0  0  0  0  0
    3.5466    1.9021   -0.8051 H   0  0  0  1  0  0  0  0  0  0  0  0
    3.1599    0.6440    0.3438 H   0  0  0  1  0  0  0  0  0  0  0  0
    2.9191    2.3216    0.7706 H   0  0  0  1  0  0  0  0  0  0  0  0
    0.4964   -1.4580   -3.0858 H   0  0  0  1  0  0  0  0  0  0  0  0
   -1.1274   -2.0089   -2.7505 H   0  0  0  1  0  0  0  0  0  0  0  0
    0.2332   -2.7614   -1.9525 H   0  0  0  1  0  0  0  0  0  0  0  0
   -6.0485    1.3134   -0.9416 F   0  0  0  1  0  0  0  0  0  0  0  0
   -5.0624    1.8688   -1.6718 C   0  0  0  1  0  0  0  0  0  0  0  0
   -5.3150    2.2973   -2.9656 C   0  0  0  1  0  0  0  0  0  0  0  0
   -4.3018    2.8624   -3.7169 C   0  0  0  1  0  0  0  0  0  0  0  0
   -3.0342    3.0054   -3.1745 C   0  0  0  1  0  0  0  0  0  0  0  0
   -2.7821    2.5782   -1.8845 C   0  0  0  1  0  0  0  0  0  0  0  0
   -3.7984    2.0115   -1.1311 C   0  0  0  1  0  0  0  0  0  0  0  0
   -1.4205    2.7027   -1.2425 C   0  0  0  1  0  0  0  0  0  0  0  0
   -4.5461    3.2739   -4.9758 F   0  0  0  1  0  0  0  0  0  0  0  0
   -6.2671    2.1936   -3.3711 H   0  0  0  1  0  0  0  0  0  0  0  0
   -2.2728    3.4343   -3.7384 H   0  0  0  1  0  0  0  0  0  0  0  0
   -3.6098    1.6937   -0.1590 H   0  0  0  1  0  0  0  0  0  0  0  0
   -0.7181    2.9639   -2.0063 H   0  0  0  1  0  0  0  0  0  0  0  0
   -1.4680    3.4879   -0.5173 H   0  0  0  1  0  0  0  0  0  0  0  0
  1  4  1  0  0  0  0
  2  4  1  0  0  0  0
  2  5  2  0  0  0  0
  2  6  1  0  0  0  0
  3  4  1  0  0  0  0
  3  7  1  0  0  0  0
  3  8  1  0  0  0  0
  4 26  1  0  0  0  0
  6  9  1  0  0  0  0
  6 12  1  0  0  0  0
  8 10  1  0  0  0  0
  8 11  2  0  0  0  0
  9 13  1  0  0  0  0
  9 14  1  0  0  0  0
  9 15  1  0  0  0  0
 10 16  1  0  0  0  0
 10 17  1  0  0  0  0
 10 18  1  0  0  0  0
 19 20  1  0  0  0  0
 20 21  4  0  0  0  0
 20 25  4  0  0  0  0
 21 22  4  0  0  0  0
 21 28  1  0  0  0  0
 22 23  4  0  0  0  0
 22 27  1  0  0  0  0
 23 24  4  0  0  0  0
 23 29  1  0  0  0  0
 24 25  4  0  0  0  0
 24 26  1  0  0  0  0
 25 30  1  0  0  0  0
 26 31  1  0  0  0  0
 26 32  1  0  0  0  0
M  END
> <BCLConfClusterSize>
1

> <ConfClashScore>
0 

> <ConfOneFourInteractionScore>
-0.960318 

> <ConfScore>
0.235184 

> <ConfScorePBest>
0.00572626 

> <ConfTolerance>
0.48995 

> <RosettaParamsInstructions>
M  ROOT 3
M  POLY_N_BB 3
M  POLY_CA_BB 4
M  POLY_C_BB 2
M  POLY_O_BB 5
M  POLY_IGNORE 9 10 11 12 13 14 15 16 17 18 
M  POLY_UPPER 6
M  POLY_LOWER 8
M  POLY_CHG 0
M  POLY_PROPERTIES ALPHA_AA D_AA PROTEIN AROMATIC POLYMER 
M  END

$$$$



 32 32  0  0  0  0  0  0  0  0999 V2000
   -1.0935    0.6124   -1.2587 H   0  0  0  1  0  0  0  0  0  0  0  0
    0.7896    1.4669   -0.8597 C   0  0  0  1  0  0  0  0  0  0  0  0
   -0.3390    1.3911   -3.0212 N   0  0  0  1  0  0  0  0  0  0  0  0
   -0.5552    1.4830   -1.5703 C   0  0  0  1  0  0  0  0  0  0  0  0
    1.7552    0.8761   -1.3361 O   0  0  0  1  0  0  0  0  0  0  0  0
    0.8422    2.1335    0.3044 N   0  0  0  1  0  0  0  0  0  0  0  0
   -0.4749    0.5284   -3.4659 H   0  0  0  1  0  0  0  0  0  0  0  0
    0.0364    2.4427   -3.7548 C   0  0  0  1  0  0  0  0  0  0  0  0
    1.9957    2.0653    1.1871 C   0  0  0  1  0  0  0  0  0  0  0  0
    0.3648    2.1500   -5.2059 C   0  0  0  1  0  0  0  0  0  0  0  0
    0.1164    3.5828   -3.2996 O   0  0  0  1  0  0  0  0  0  0  0  0
    0.0765    2.6852    0.5684 H   0  0  0  1  0  0  0  0  0  0  0  0
    1.6786    2.1995    2.2002 H   0  0  0  1  0  0  0  0  0  0  0  0
    2.6903    2.8362    0.9260 H   0  0  0  1  0  0  0  0  0  0  0  0
    2.4670    1.1102    1.0847 H   0  0  0  1  0  0  0  0  0  0  0  0
   -0.2958    1.3939   -5.5761 H   0  0  0  1  0  0  0  0  0  0  0  0
    1.3758    1.8076   -5.2805 H   0  0  0  1  0  0  0  0  0  0  0  0
    0.2460    3.0418   -5.7851 H   0  0  0  1  0  0  0  0  0  0  0  0
   -6.0258    1.3095   -0.9151 F   0  0  0  1  0  0  0  0  0  0  0  0
   -5.0668    1.8696   -1.6772 C   0  0  0  1  0  0  0  0  0  0  0  0
   -5.3164    2.2991   -2.9713 C   0  0  0  1  0  0  0  0  0  0  0  0
   -4.3011    2.8638   -3.7201 C   0  0  0  1  0  0  0  0  0  0  0  0
   -3.0346    3.0055   -3.1749 C   0  0  0  1  0  0  0  0  0  0  0  0
   -2.7855    2.5773   -1.8846 C   0  0  0  1  0  0  0  0  0  0  0  0
   -3.8039    2.0110   -1.1337 C   0  0  0  1  0  0  0  0  0  0  0  0
   -1.4252    2.7002   -1.2396 C   0  0  0  1  0  0  0  0  0  0  0  0
   -4.5424    3.2763   -4.9793 F   0  0  0  1  0  0  0  0  0  0  0  0
   -6.2676    2.1964   -3.3789 H   0  0  0  1  0  0  0  0  0  0  0  0
   -2.2716    3.4340   -3.7369 H   0  0  0  1  0  0  0  0  0  0  0  0
   -3.6176    1.6924   -0.1614 H   0  0  0  1  0  0  0  0  0  0  0  0
   -0.9438    3.5844   -1.6020 H   0  0  0  1  0  0  0  0  0  0  0  0
   -1.5449    2.7681   -0.1785 H   0  0  0  1  0  0  0  0  0  0  0  0
  1  4  1  0  0  0  0
  2  4  1  0  0  0  0
  2  5  2  0  0  0  0
  2  6  1  0  0  0  0
  3  4  1  0  0  0  0
  3  7  1  0  0  0  0
  3  8  1  0  0  0  0
  4 26  1  0  0  0  0
  6  9  1  0  0  0  0
  6 12  1  0  0  0  0
  8 10  1  0  0  0  0
  8 11  2  0  0  0  0
  9 13  1  0  0  0  0
  9 14  1  0  0  0  0
  9 15  1  0  0  0  0
 10 16  1  0  0  0  0
 10 17  1  0  0  0  0
 10 18  1  0  0  0  0
 19 20  1  0  0  0  0
 20 21  4  0  0  0  0
 20 25  4  0  0  0  0
 21 22  4  0  0  0  0
 21 28  1  0  0  0  0
 22 23  4  0  0  0  0
 22 27  1  0  0  0  0
 23 24  4  0  0  0  0
 23 29  1  0  0  0  0
 24 25  4  0  0  0  0
 24 26  1  0  0  0  0
 25 30  1  0  0  0  0
 26 31  1  0  0  0  0
 26 32  1  0  0  0  0
M  END
> <BCLConfClusterSize>
1

> <ConfClashScore>
0 

> <ConfOneFourInteractionScore>
-0.933542 

> <ConfScore>
0.236321 

> <ConfScorePBest>
0.00569778 

> <ConfTolerance>
0.519252 

> <RosettaParamsInstructions>
M  ROOT 3
M  POLY_N_BB 3
M  POLY_CA_BB 4
M  POLY_C_BB 2
M  POLY_O_BB 5
M  POLY_IGNORE 9 10 11 12 13 14 15 16 17 18 
M  POLY_UPPER 6
M  POLY_LOWER 8
M  POLY_CHG 0
M  POLY_PROPERTIES ALPHA_AA D_AA PROTEIN AROMATIC POLYMER 
M  END

$$$$



 32 32  0  0  0  0  0  0  0  0999 V2000
    0.3914    1.7418   -1.1913 H   0  0  0  1  0  0  0  0  0  0  0  0
    0.1618    2.2825   -3.1881 C   0  0  0  1  0  0  0  0  0  0  0  0
   -0.9808    0.4581   -1.9786 N   0  0  0  1  0  0  0  0  0  0  0  0
   -0.4280    1.8005   -1.8769 C   0  0  0  1  0  0  0  0  0  0  0  0
    0.7500    1.5302   -3.9234 O   0  0  0  1  0  0  0  0  0  0  0  0
   -0.0239    3.6405   -3.4761 N   0  0  0  1  0  0  0  0  0  0  0  0
   -1.0904   -0.0714   -1.1613 H   0  0  0  1  0  0  0  0  0  0  0  0
   -1.3442   -0.0774   -3.1474 C   0  0  0  1  0  0  0  0  0  0  0  0
    0.6875    4.2569   -4.5903 C   0  0  0  1  0  0  0  0  0  0  0  0
   -1.6032   -1.5714   -3.1353 C   0  0  0  1  0  0  0  0  0  0  0  0
   -1.4652    0.5779   -4.1694 O   0  0  0  1  0  0  0  0  0  0  0  0
   -0.6331    4.1778   -2.9278 H   0  0  0  1  0  0  0  0  0  0  0  0
    1.7165    3.9645   -4.5627 H   0  0  0  1  0  0  0  0  0  0  0  0
    0.6174    5.3217   -4.5126 H   0  0  0  1  0  0  0  0  0  0  0  0
    0.2507    3.9365   -5.5130 H   0  0  0  1  0  0  0  0  0  0  0  0
   -2.4223   -1.7972   -3.7856 H   0  0  0  1  0  0  0  0  0  0  0  0
   -1.8416   -1.8838   -2.1401 H   0  0  0  1  0  0  0  0  0  0  0  0
   -0.7283   -2.0875   -3.4717 H   0  0  0  1  0  0  0  0  0  0  0  0
   -6.0518    1.3171   -0.9349 F   0  0  0  1  0  0  0  0  0  0  0  0
   -5.0650    1.8662   -1.6689 C   0  0  0  1  0  0  0  0  0  0  0  0
   -5.3212    2.3009   -2.9600 C   0  0  0  1  0  0  0  0  0  0  0  0
   -4.3074    2.8595   -3.7152 C   0  0  0  1  0  0  0  0  0  0  0  0
   -3.0356    2.9899   -3.1796 C   0  0  0  1  0  0  0  0  0  0  0  0
   -2.7799    2.5565   -1.8923 C   0  0  0  1  0  0  0  0  0  0  0  0
   -3.7969    1.9962   -1.1350 C   0  0  0  1  0  0  0  0  0  0  0  0
   -1.4334    2.7644   -1.2402 C   0  0  0  1  0  0  0  0  0  0  0  0
   -4.5118    3.2899   -4.9750 F   0  0  0  1  0  0  0  0  0  0  0  0
   -6.2764    2.2067   -3.3604 H   0  0  0  1  0  0  0  0  0  0  0  0
   -2.2737    3.4139   -3.7464 H   0  0  0  1  0  0  0  0  0  0  0  0
   -3.6055    1.6738   -0.1649 H   0  0  0  1  0  0  0  0  0  0  0  0
   -1.1113    3.7734   -1.3924 H   0  0  0  1  0  0  0  0  0  0  0  0
   -1.5069    2.5674   -0.1911 H   0  0  0  1  0  0  0  0  0  0  0  0
  1  4  1  0  0  0  0
  2  4  1  0  0  0  0
  2  5  2  0  0  0  0
  2  6  1  0  0  0  0
  3  4  1  0  0  0  0
  3  7  1  0  0  0  0
  3  8  1  0  0  0  0
  4 26  1  0  0  0  0
  6  9  1  0  0  0  0
  6 12  1  0  0  0  0
  8 10  1  0  0  0  0
  8 11  2  0  0  0  0
  9 13  1  0  0  0  0
  9 14  1  0  0  0  0
  9 15  1  0  0  0  0
 10 16  1  0  0  0  0
 10 17  1  0  0  0  0
 10 18  1  0  0  0  0
 19 20  1  0  0  0  0
 20 21  4  0  0  0  0
 20 25  4  0  0  0  0
 21 22  4  0  0  0  0
 21 28  1  0  0  0  0
 22 23  4  0  0  0  0
 22 27  1  0  0  0  0
 23 24  4  0  0  0  0
 23 29  1  0  0  0  0
 24 25  4  0  0  0  0
 24 26  1  0  0  0  0
 25 30  1  0  0  0  0
 26 31  1  0  0  0  0
 26 32  1  0  0  0  0
M  END
> <BCLConfClusterSize>
1

> <ConfClashScore>
0.00184948 

> <ConfOneFourInteractionScore>
-0.908174 

> <ConfScore>
0.236585 

> <ConfScorePBest>
0.0056693 

> <ConfTolerance>
0.246816 

> <RosettaParamsInstructions>
M  ROOT 3
M  POLY_N_BB 3
M  POLY_CA_BB 4
M  POLY_C_BB 2
M  POLY_O_BB 5
M  POLY_IGNORE 9 10 11 12 13 14 15 16 17 18 
M  POLY_UPPER 6
M  POLY_LOWER 8
M  POLY_CHG 0
M  POLY_PROPERTIES ALPHA_AA D_AA PROTEIN AROMATIC POLYMER 
M  END

$$$$



 32 32  0  0  0  0  0  0  0  0999 V2000
   -0.1230    4.1763   -0.4659 H   0  0  0  1  0  0  0  0  0  0  0  0
   -1.8429    4.1636    0.7356 C   0  0  0  1  0  0  0  0  0  0  0  0
   -1.5880    5.1154   -1.5577 N   0  0  0  1  0  0  0  0  0  0  0  0
   -1.1767    4.0779   -0.6238 C   0  0  0  1  0  0  0  0  0  0  0  0
   -2.9072    4.7575    0.8875 O   0  0  0  1  0  0  0  0  0  0  0  0
   -1.1958    3.5542    1.7416 N   0  0  0  1  0  0  0  0  0  0  0  0
   -1.8106    4.8623   -2.4780 H   0  0  0  1  0  0  0  0  0  0  0  0
   -1.6736    6.4137   -1.2008 C   0  0  0  1  0  0  0  0  0  0  0  0
   -1.6434    3.5293    3.1261 C   0  0  0  1  0  0  0  0  0  0  0  0
   -2.3293    7.3778   -2.1702 C   0  0  0  1  0  0  0  0  0  0  0  0
   -1.2334    6.8063   -0.1211 O   0  0  0  1  0  0  0  0  0  0  0  0
   -0.3590    3.0912    1.5275 H   0  0  0  1  0  0  0  0  0  0  0  0
   -1.6873    4.5288    3.5054 H   0  0  0  1  0  0  0  0  0  0  0  0
   -0.9565    2.9555    3.7125 H   0  0  0  1  0  0  0  0  0  0  0  0
   -2.6155    3.0851    3.1785 H   0  0  0  1  0  0  0  0  0  0  0  0
   -3.3431    7.0803   -2.3391 H   0  0  0  1  0  0  0  0  0  0  0  0
   -1.7958    7.3686   -3.0977 H   0  0  0  1  0  0  0  0  0  0  0  0
   -2.3116    8.3650   -1.7578 H   0  0  0  1  0  0  0  0  0  0  0  0
   -6.0566    1.3143   -0.9498 F   0  0  0  1  0  0  0  0  0  0  0  0
   -5.0656    1.8687   -1.6740 C   0  0  0  1  0  0  0  0  0  0  0  0
   -5.3106    2.2996   -2.9685 C   0  0  0  1  0  0  0  0  0  0  0  0
   -4.2924    2.8637   -3.7136 C   0  0  0  1  0  0  0  0  0  0  0  0
   -3.0273    3.0035   -3.1645 C   0  0  0  1  0  0  0  0  0  0  0  0
   -2.7828    2.5739   -1.8737 C   0  0  0  1  0  0  0  0  0  0  0  0
   -3.8042    2.0081   -1.1265 C   0  0  0  1  0  0  0  0  0  0  0  0
   -1.4031    2.7206   -1.2768 C   0  0  0  1  0  0  0  0  0  0  0  0
   -4.5723    3.2640   -4.9688 F   0  0  0  1  0  0  0  0  0  0  0  0
   -6.2607    2.1984   -3.3791 H   0  0  0  1  0  0  0  0  0  0  0  0
   -2.2621    3.4316   -3.7237 H   0  0  0  1  0  0  0  0  0  0  0  0
   -3.6213    1.6886   -0.1539 H   0  0  0  1  0  0  0  0  0  0  0  0
   -1.2698    1.9599   -0.5362 H   0  0  0  1  0  0  0  0  0  0  0  0
   -0.6799    2.5922   -2.0549 H   0  0  0  1  0  0  0  0  0  0  0  0
  1  4  1  0  0  0  0
  2  4  1  0  0  0  0
  2  5  2  0  0  0  0
  2  6  1  0  0  0  0
  3  4  1  0  0  0  0
  3  7  1  0  0  0  0
  3  8  1  0  0  0  0
  4 26  1  0  0  0  0
  6  9  1  0  0  0  0
  6 12  1  0  0  0  0
  8 10  1  0  0  0  0
  8 11  2  0  0  0  0
  9 13  1  0  0  0  0
  9 14  1  0  0  0  0
  9 15  1  0  0  0  0
 10 16  1  0  0  0  0
 10 17  1  0  0  0  0
 10 18  1  0  0  0  0
 19 20  1  0  0  0  0
 20 21  4  0  0  0  0
 20 25  4  0  0  0  0
 21 22  4  0  0  0  0
 21 28  1  0  0  0  0
 22 23  4  0  0  0  0
 22 27  1  0  0  0  0
 23 24  4  0  0  0  0
 23 29  1  0  0  0  0
 24 25  4  0  0  0  0
 24 26  1  0  0  0  0
 25 30  1  0  0  0  0
 26 31  1  0  0  0  0
 26 32  1  0  0  0  0
M  END
> <BCLConfClusterSize>
1

> <ConfClashScore>
0 

> <ConfOneFourInteractionScore>
-0.976093 

> <ConfScore>
0.243813 

> <ConfScorePBest>
0.00564082 

> <ConfTolerance>
0.391635 

> <RosettaParamsInstructions>
M  ROOT 3
M  POLY_N_BB 3
M  POLY_CA_BB 4
M  POLY_C_BB 2
M  POLY_O_BB 5
M  POLY_IGNORE 9 10 11 12 13 14 15 16 17 18 
M  POLY_UPPER 6
M  POLY_LOWER 8
M  POLY_CHG 0
M  POLY_PROPERTIES ALPHA_AA D_AA PROTEIN AROMATIC POLYMER 
M  END

$$$$



 32 32  0  0  0  0  0  0  0  0999 V2000
   -0.9041    0.6670   -1.2148 H   0  0  0  1  0  0  0  0  0  0  0  0
    0.9342    1.7422   -1.2274 C   0  0  0  1  0  0  0  0  0  0  0  0
   -0.5103    1.3514   -3.1483 N   0  0  0  1  0  0  0  0  0  0  0  0
   -0.5082    1.5400   -1.6902 C   0  0  0  1  0  0  0  0  0  0  0  0
    1.1926    2.3852   -0.2233 O   0  0  0  1  0  0  0  0  0  0  0  0
    1.8778    1.1711   -1.9926 N   0  0  0  1  0  0  0  0  0  0  0  0
   -1.0941    0.6544   -3.5142 H   0  0  0  1  0  0  0  0  0  0  0  0
    0.2224    2.0575   -4.0107 C   0  0  0  1  0  0  0  0  0  0  0  0
    3.3098    1.2466   -1.7448 C   0  0  0  1  0  0  0  0  0  0  0  0
    0.1455    1.6135   -5.4585 C   0  0  0  1  0  0  0  0  0  0  0  0
    0.9219    3.0111   -3.6717 O   0  0  0  1  0  0  0  0  0  0  0  0
    1.5798    0.6651   -2.7772 H   0  0  0  1  0  0  0  0  0  0  0  0
    3.5332    0.7952   -0.8007 H   0  0  0  1  0  0  0  0  0  0  0  0
    3.6155    2.2719   -1.7308 H   0  0  0  1  0  0  0  0  0  0  0  0
    3.8336    0.7283   -2.5206 H   0  0  0  1  0  0  0  0  0  0  0  0
    0.5371    0.6219   -5.5493 H   0  0  0  1  0  0  0  0  0  0  0  0
    0.7197    2.2805   -6.0669 H   0  0  0  1  0  0  0  0  0  0  0  0
   -0.8747    1.6246   -5.7810 H   0  0  0  1  0  0  0  0  0  0  0  0
   -6.0846    1.3160   -0.9742 F   0  0  0  1  0  0  0  0  0  0  0  0
   -5.0669    1.8649   -1.6649 C   0  0  0  1  0  0  0  0  0  0  0  0
   -5.3140    2.2951   -2.9592 C   0  0  0  1  0  0  0  0  0  0  0  0
   -4.2971    2.8594   -3.7060 C   0  0  0  1  0  0  0  0  0  0  0  0
   -3.0314    3.0001   -3.1586 C   0  0  0  1  0  0  0  0  0  0  0  0
   -2.7848    2.5712   -1.8681 C   0  0  0  1  0  0  0  0  0  0  0  0
   -3.8048    2.0052   -1.1192 C   0  0  0  1  0  0  0  0  0  0  0  0
   -1.3867    2.7428   -1.3229 C   0  0  0  1  0  0  0  0  0  0  0  0
   -4.5360    3.2727   -4.9654 F   0  0  0  1  0  0  0  0  0  0  0  0
   -6.2646    2.1932   -3.3685 H   0  0  0  1  0  0  0  0  0  0  0  0
   -2.2672    3.4284   -3.7191 H   0  0  0  1  0  0  0  0  0  0  0  0
   -3.6204    1.6861   -0.1467 H   0  0  0  1  0  0  0  0  0  0  0  0
   -0.9558    3.6310   -1.7356 H   0  0  0  1  0  0  0  0  0  0  0  0
   -1.4339    2.8305   -0.2575 H   0  0  0  1  0  0  0  0  0  0  0  0
  1  4  1  0  0  0  0
  2  4  1  0  0  0  0
  2  5  2  0  0  0  0
  2  6  1  0  0  0  0
  3  4  1  0  0  0  0
  3  7  1  0  0  0  0
  3  8  1  0  0  0  0
  4 26  1  0  0  0  0
  6  9  1  0  0  0  0
  6 12  1  0  0  0  0
  8 10  1  0  0  0  0
  8 11  2  0  0  0  0
  9 13  1  0  0  0  0
  9 14  1  0  0  0  0
  9 15  1  0  0  0  0
 10 16  1  0  0  0  0
 10 17  1  0  0  0  0
 10 18  1  0  0  0  0
 19 20  1  0  0  0  0
 20 21  4  0  0  0  0
 20 25  4  0  0  0  0
 21 22  4  0  0  0  0
 21 28  1  0  0  0  0
 22 23  4  0  0  0  0
 22 27  1  0  0  0  0
 23 24  4  0  0  0  0
 23 29  1  0  0  0  0
 24 25  4  0  0  0  0
 24 26  1  0  0  0  0
 25 30  1  0  0  0  0
 26 31  1  0  0  0  0
 26 32  1  0  0  0  0
M  END
> <BCLConfClusterSize>
1

> <ConfClashScore>
0 

> <ConfOneFourInteractionScore>
-0.938696 

> <ConfScore>
0.247666 

> <ConfScorePBest>
0.00561234 

> <ConfTolerance>
0.245804 

> <RosettaParamsInstructions>
M  ROOT 3
M  POLY_N_BB 3
M  POLY_CA_BB 4
M  POLY_C_BB 2
M  POLY_O_BB 5
M  POLY_IGNORE 9 10 11 12 13 14 15 16 17 18 
M  POLY_UPPER 6
M  POLY_LOWER 8
M  POLY_CHG 0
M  POLY_PROPERTIES ALPHA_AA D_AA PROTEIN AROMATIC POLYMER 
M  END

$$$$



 32 32  0  0  0  0  0  0  0  0999 V2000
   -1.8652    4.4220   -0.1998 H   0  0  0  1  0  0  0  0  0  0  0  0
    0.0688    3.9618    0.3926 C   0  0  0  1  0  0  0  0  0  0  0  0
   -2.0647    2.8723    1.1211 N   0  0  0  1  0  0  0  0  0  0  0  0
   -1.3333    3.5160    0.0029 C   0  0  0  1  0  0  0  0  0  0  0  0
    0.8082    4.5182   -0.4150 O   0  0  0  1  0  0  0  0  0  0  0  0
    0.4290    3.7080    1.6539 N   0  0  0  1  0  0  0  0  0  0  0  0
   -2.2372    1.9085    1.0807 H   0  0  0  1  0  0  0  0  0  0  0  0
   -2.4964    3.5607    2.1816 C   0  0  0  1  0  0  0  0  0  0  0  0
    1.7735    3.9689    2.1459 C   0  0  0  1  0  0  0  0  0  0  0  0
   -3.1716    2.7445    3.2665 C   0  0  0  1  0  0  0  0  0  0  0  0
   -2.3646    4.7689    2.2878 O   0  0  0  1  0  0  0  0  0  0  0  0
   -0.2354    3.3332    2.2691 H   0  0  0  1  0  0  0  0  0  0  0  0
    2.3656    4.3904    1.3607 H   0  0  0  1  0  0  0  0  0  0  0  0
    2.2171    3.0520    2.4739 H   0  0  0  1  0  0  0  0  0  0  0  0
    1.7263    4.6559    2.9648 H   0  0  0  1  0  0  0  0  0  0  0  0
   -2.5662    1.8944    3.5029 H   0  0  0  1  0  0  0  0  0  0  0  0
   -4.1291    2.4151    2.9209 H   0  0  0  1  0  0  0  0  0  0  0  0
   -3.2959    3.3479    4.1413 H   0  0  0  1  0  0  0  0  0  0  0  0
   -6.0561    1.3124   -0.9444 F   0  0  0  1  0  0  0  0  0  0  0  0
   -5.0671    1.8672   -1.6711 C   0  0  0  1  0  0  0  0  0  0  0  0
   -5.3152    2.2971   -2.9653 C   0  0  0  1  0  0  0  0  0  0  0  0
   -4.2991    2.8616   -3.7130 C   0  0  0  1  0  0  0  0  0  0  0  0
   -3.0330    3.0027   -3.1666 C   0  0  0  1  0  0  0  0  0  0  0  0
   -2.7853    2.5741   -1.8761 C   0  0  0  1  0  0  0  0  0  0  0  0
   -3.8046    2.0080   -1.1264 C   0  0  0  1  0  0  0  0  0  0  0  0
   -1.4045    2.7223   -1.2822 C   0  0  0  1  0  0  0  0  0  0  0  0
   -4.5390    3.2745   -4.9723 F   0  0  0  1  0  0  0  0  0  0  0  0
   -6.2661    2.1949   -3.3738 H   0  0  0  1  0  0  0  0  0  0  0  0
   -2.2693    3.4311   -3.7277 H   0  0  0  1  0  0  0  0  0  0  0  0
   -3.6194    1.6891   -0.1540 H   0  0  0  1  0  0  0  0  0  0  0  0
   -1.0224    1.7422   -1.0864 H   0  0  0  1  0  0  0  0  0  0  0  0
   -0.7845    3.2093   -2.0057 H   0  0  0  1  0  0  0  0  0  0  0  0
  1  4  1  0  0  0  0
  2  4  1  0  0  0  0
  2  5  2  0  0  0  0
  2  6  1  0  0  0  0
  3  4  1  0  0  0  0
  3  7  1  0  0  0  0
  3  8  1  0  0  0  0
  4 26  1  0  0  0  0
  6  9  1  0  0  0  0
  6 12  1  0  0  0  0
  8 10  1  0  0  0  0
  8 11  2  0  0  0  0
  9 13  1  0  0  0  0
  9 14  1  0  0  0  0
  9 15  1  0  0  0  0
 10 16  1  0  0  0  0
 10 17  1  0  0  0  0
 10 18  1  0  0  0  0
 19 20  1  0  0  0  0
 20 21  4  0  0  0  0
 20 25  4  0  0  0  0
 21 22  4  0  0  0  0
 21 28  1  0  0  0  0
 22 23  4  0  0  0  0
 22 27  1  0  0  0  0
 23 24  4  0  0  0  0
 23 29  1  0  0  0  0
 24 25  4  0  0  0  0
 24 26  1  0  0  0  0
 25 30  1  0  0  0  0
 26 31  1  0  0  0  0
 26 32  1  0  0  0  0
M  END
> <BCLConfClusterSize>
1

> <ConfClashScore>
0 

> <ConfOneFourInteractionScore>
-0.937775 

> <ConfScore>
0.250228 

> <ConfScorePBest>
0.00558386 

> <ConfTolerance>
0.273636 

> <RosettaParamsInstructions>
M  ROOT 3
M  POLY_N_BB 3
M  POLY_CA_BB 4
M  POLY_C_BB 2
M  POLY_O_BB 5
M  POLY_IGNORE 9 10 11 12 13 14 15 16 17 18 
M  POLY_UPPER 6
M  POLY_LOWER 8
M  POLY_CHG 0
M  POLY_PROPERTIES ALPHA_AA D_AA PROTEIN AROMATIC POLYMER 
M  END

$$$$



 32 32  0  0  0  0  0  0  0  0999 V2000
   -1.8868    4.1682    0.1739 H   0  0  0  1  0  0  0  0  0  0  0  0
   -1.4929    5.1745   -1.6407 C   0  0  0  1  0  0  0  0  0  0  0  0
    0.1599    4.1126   -0.0659 N   0  0  0  1  0  0  0  0  0  0  0  0
   -1.1826    4.0772   -0.6265 C   0  0  0  1  0  0  0  0  0  0  0  0
   -0.6437    5.6327   -2.3871 O   0  0  0  1  0  0  0  0  0  0  0  0
   -2.7375    5.6541   -1.7180 N   0  0  0  1  0  0  0  0  0  0  0  0
    0.7509    3.3434   -0.2050 H   0  0  0  1  0  0  0  0  0  0  0  0
    0.6139    5.1557    0.6306 C   0  0  0  1  0  0  0  0  0  0  0  0
   -3.1215    6.6662   -2.6907 C   0  0  0  1  0  0  0  0  0  0  0  0
    2.0215    5.0199    1.1779 C   0  0  0  1  0  0  0  0  0  0  0  0
   -0.0466    6.1628    0.8251 O   0  0  0  1  0  0  0  0  0  0  0  0
   -3.4154    5.3125   -1.0982 H   0  0  0  1  0  0  0  0  0  0  0  0
   -2.2638    7.2463   -2.9602 H   0  0  0  1  0  0  0  0  0  0  0  0
   -3.8651    7.3065   -2.2641 H   0  0  0  1  0  0  0  0  0  0  0  0
   -3.5181    6.1899   -3.5629 H   0  0  0  1  0  0  0  0  0  0  0  0
    2.5022    5.9758    1.1684 H   0  0  0  1  0  0  0  0  0  0  0  0
    2.5760    4.3361    0.5697 H   0  0  0  1  0  0  0  0  0  0  0  0
    1.9796    4.6520    2.1818 H   0  0  0  1  0  0  0  0  0  0  0  0
   -6.0335    1.3084   -0.9179 F   0  0  0  1  0  0  0  0  0  0  0  0
   -5.0716    1.8680   -1.6765 C   0  0  0  1  0  0  0  0  0  0  0  0
   -5.3166    2.2989   -2.9710 C   0  0  0  1  0  0  0  0  0  0  0  0
   -4.2984    2.8630   -3.7161 C   0  0  0  1  0  0  0  0  0  0  0  0
   -3.0333    3.0028   -3.1670 C   0  0  0  1  0  0  0  0  0  0  0  0
   -2.7888    2.5732   -1.8762 C   0  0  0  1  0  0  0  0  0  0  0  0
   -3.8102    2.0074   -1.1290 C   0  0  0  1  0  0  0  0  0  0  0  0
   -1.4091    2.7199   -1.2793 C   0  0  0  1  0  0  0  0  0  0  0  0
   -4.5352    3.2769   -4.9757 F   0  0  0  1  0  0  0  0  0  0  0  0
   -6.2667    2.1977   -3.3816 H   0  0  0  1  0  0  0  0  0  0  0  0
   -2.2681    3.4309   -3.7262 H   0  0  0  1  0  0  0  0  0  0  0  0
   -3.6273    1.6879   -0.1564 H   0  0  0  1  0  0  0  0  0  0  0  0
   -1.2758    1.9593   -0.5386 H   0  0  0  1  0  0  0  0  0  0  0  0
   -0.6859    2.5913   -2.0574 H   0  0  0  1  0  0  0  0  0  0  0  0
  1  4  1  0  0  0  0
  2  4  1  0  0  0  0
  2  5  2  0  0  0  0
  2  6  1  0  0  0  0
  3  4  1  0  0  0  0
  3  7  1  0  0  0  0
  3  8  1  0  0  0  0
  4 26  1  0  0  0  0
  6  9  1  0  0  0  0
  6 12  1  0  0  0  0
  8 10  1  0  0  0  0
  8 11  2  0  0  0  0
  9 13  1  0  0  0  0
  9 14  1  0  0  0  0
  9 15  1  0  0  0  0
 10 16  1  0  0  0  0
 10 17  1  0  0  0  0
 10 18  1  0  0  0  0
 19 20  1  0  0  0  0
 20 21  4  0  0  0  0
 20 25  4  0  0  0  0
 21 22  4  0  0  0  0
 21 28  1  0  0  0  0
 22 23  4  0  0  0  0
 22 27  1  0  0  0  0
 23 24  4  0  0  0  0
 23 29  1  0  0  0  0
 24 25  4  0  0  0  0
 24 26  1  0  0  0  0
 25 30  1  0  0  0  0
 26 31  1  0  0  0  0
 26 32  1  0  0  0  0
M  END
> <BCLConfClusterSize>
1

> <ConfClashScore>
0 

> <ConfOneFourInteractionScore>
-0.985807 

> <ConfScore>
0.250358 

> <ConfScorePBest>
0.00555537 

> <ConfTolerance>
0.466086 

> <RosettaParamsInstructions>
M  ROOT 3
M  POLY_N_BB 3
M  POLY_CA_BB 4
M  POLY_C_BB 2
M  POLY_O_BB 5
M  POLY_IGNORE 9 10 11 12 13 14 15 16 17 18 
M  POLY_UPPER 6
M  POLY_LOWER 8
M  POLY_CHG 0
M  POLY_PROPERTIES ALPHA_AA D_AA PROTEIN AROMATIC POLYMER 
M  END

$$$$



 32 32  0  0  0  0  0  0  0  0999 V2000
   -0.1162    4.1657   -0.4755 H   0  0  0  1  0  0  0  0  0  0  0  0
   -1.8578    4.2739    0.6801 C   0  0  0  1  0  0  0  0  0  0  0  0
   -1.5164    5.1311   -1.6337 N   0  0  0  1  0  0  0  0  0  0  0  0
   -1.1679    4.0920   -0.6579 C   0  0  0  1  0  0  0  0  0  0  0  0
   -2.1705    3.3072    1.3738 O   0  0  0  1  0  0  0  0  0  0  0  0
   -2.0977    5.5434    1.0447 N   0  0  0  1  0  0  0  0  0  0  0  0
   -2.3235    5.6670   -1.4860 H   0  0  0  1  0  0  0  0  0  0  0  0
   -0.7644    5.3743   -2.7270 C   0  0  0  1  0  0  0  0  0  0  0  0
   -2.7782    5.8270    2.2994 C   0  0  0  1  0  0  0  0  0  0  0  0
   -1.1487    6.5408   -3.6089 C   0  0  0  1  0  0  0  0  0  0  0  0
    0.2060    4.6693   -3.0006 O   0  0  0  1  0  0  0  0  0  0  0  0
   -1.8139    6.2806    0.4648 H   0  0  0  1  0  0  0  0  0  0  0  0
   -3.4716    5.0412    2.5153 H   0  0  0  1  0  0  0  0  0  0  0  0
   -3.3052    6.7546    2.2173 H   0  0  0  1  0  0  0  0  0  0  0  0
   -2.0583    5.8939    3.0882 H   0  0  0  1  0  0  0  0  0  0  0  0
   -2.0972    6.3468   -4.0645 H   0  0  0  1  0  0  0  0  0  0  0  0
   -0.4079    6.6715   -4.3699 H   0  0  0  1  0  0  0  0  0  0  0  0
   -1.2129    7.4295   -3.0165 H   0  0  0  1  0  0  0  0  0  0  0  0
   -6.0774    1.3149   -0.9663 F   0  0  0  1  0  0  0  0  0  0  0  0
   -5.0642    1.8648   -1.6628 C   0  0  0  1  0  0  0  0  0  0  0  0
   -5.3186    2.2928   -2.9565 C   0  0  0  1  0  0  0  0  0  0  0  0
   -4.3066    2.8581   -3.7091 C   0  0  0  1  0  0  0  0  0  0  0  0
   -3.0384    3.0019   -3.1683 C   0  0  0  1  0  0  0  0  0  0  0  0
   -2.7845    2.5752   -1.8784 C   0  0  0  1  0  0  0  0  0  0  0  0
   -3.7997    2.0083   -1.1237 C   0  0  0  1  0  0  0  0  0  0  0  0
   -1.4014    2.7264   -1.2907 C   0  0  0  1  0  0  0  0  0  0  0  0
   -4.5093    3.2823   -4.9713 F   0  0  0  1  0  0  0  0  0  0  0  0
   -6.2711    2.1885   -3.3608 H   0  0  0  1  0  0  0  0  0  0  0  0
   -2.2779    3.4309   -3.7333 H   0  0  0  1  0  0  0  0  0  0  0  0
   -3.6098    1.6909   -0.1517 H   0  0  0  1  0  0  0  0  0  0  0  0
   -1.2663    1.9758   -0.5402 H   0  0  0  1  0  0  0  0  0  0  0  0
   -0.6826    2.5851   -2.0706 H   0  0  0  1  0  0  0  0  0  0  0  0
  1  4  1  0  0  0  0
  2  4  1  0  0  0  0
  2  5  2  0  0  0  0
  2  6  1  0  0  0  0
  3  4  1  0  0  0  0
  3  7  1  0  0  0  0
  3  8  1  0  0  0  0
  4 26  1  0  0  0  0
  6  9  1  0  0  0  0
  6 12  1  0  0  0  0
  8 10  1  0  0  0  0
  8 11  2  0  0  0  0
  9 13  1  0  0  0  0
  9 14  1  0  0  0  0
  9 15  1  0  0  0  0
 10 16  1  0  0  0  0
 10 17  1  0  0  0  0
 10 18  1  0  0  0  0
 19 20  1  0  0  0  0
 20 21  4  0  0  0  0
 20 25  4  0  0  0  0
 21 22  4  0  0  0  0
 21 28  1  0  0  0  0
 22 23  4  0  0  0  0
 22 27  1  0  0  0  0
 23 24  4  0  0  0  0
 23 29  1  0  0  0  0
 24 25  4  0  0  0  0
 24 26  1  0  0  0  0
 25 30  1  0  0  0  0
 26 31  1  0  0  0  0
 26 32  1  0  0  0  0
M  END
> <BCLConfClusterSize>
1

> <ConfClashScore>
0 

> <ConfOneFourInteractionScore>
-0.950895 

> <ConfScore>
0.250914 

> <ConfScorePBest>
0.00552689 

> <ConfTolerance>
0.307708 

> <RosettaParamsInstructions>
M  ROOT 3
M  POLY_N_BB 3
M  POLY_CA_BB 4
M  POLY_C_BB 2
M  POLY_O_BB 5
M  POLY_IGNORE 9 10 11 12 13 14 15 16 17 18 
M  POLY_UPPER 6
M  POLY_LOWER 8
M  POLY_CHG 0
M  POLY_PROPERTIES ALPHA_AA D_AA PROTEIN AROMATIC POLYMER 
M  END

$$$$



 32 32  0  0  0  0  0  0  0  0999 V2000
   -0.5024    1.1381   -2.3508 H   0  0  0  1  0  0  0  0  0  0  0  0
   -1.1225    0.3466   -0.5022 C   0  0  0  1  0  0  0  0  0  0  0  0
    0.8435    1.7899   -0.9264 N   0  0  0  1  0  0  0  0  0  0  0  0
   -0.5267    1.4700   -1.3339 C   0  0  0  1  0  0  0  0  0  0  0  0
   -2.1276   -0.2622   -0.8664 O   0  0  0  1  0  0  0  0  0  0  0  0
   -0.4515    0.1027    0.6346 N   0  0  0  1  0  0  0  0  0  0  0  0
    1.0306    2.7325   -0.7341 H   0  0  0  1  0  0  0  0  0  0  0  0
    1.8684    0.9417   -0.7870 C   0  0  0  1  0  0  0  0  0  0  0  0
   -0.8903   -0.9583    1.5288 C   0  0  0  1  0  0  0  0  0  0  0  0
    3.2624    1.5243   -0.5823 C   0  0  0  1  0  0  0  0  0  0  0  0
    1.7543   -0.2828   -0.8140 O   0  0  0  1  0  0  0  0  0  0  0  0
    0.3355    0.6403    0.8629 H   0  0  0  1  0  0  0  0  0  0  0  0
   -1.7100   -1.4835    1.0847 H   0  0  0  1  0  0  0  0  0  0  0  0
   -1.2017   -0.5335    2.4602 H   0  0  0  1  0  0  0  0  0  0  0  0
   -0.0817   -1.6382    1.6989 H   0  0  0  1  0  0  0  0  0  0  0  0
    3.9870    0.8884   -1.0465 H   0  0  0  1  0  0  0  0  0  0  0  0
    3.4690    1.5947    0.4652 H   0  0  0  1  0  0  0  0  0  0  0  0
    3.3095    2.4987   -1.0219 H   0  0  0  1  0  0  0  0  0  0  0  0
   -6.0778    1.3168   -0.9716 F   0  0  0  1  0  0  0  0  0  0  0  0
   -5.0627    1.8663   -1.6656 C   0  0  0  1  0  0  0  0  0  0  0  0
   -5.3139    2.2953   -2.9596 C   0  0  0  1  0  0  0  0  0  0  0  0
   -4.2999    2.8601   -3.7097 C   0  0  0  1  0  0  0  0  0  0  0  0
   -3.0327    3.0026   -3.1661 C   0  0  0  1  0  0  0  0  0  0  0  0
   -2.7819    2.5750   -1.8759 C   0  0  0  1  0  0  0  0  0  0  0  0
   -3.7992    2.0085   -1.1237 C   0  0  0  1  0  0  0  0  0  0  0  0
   -1.3999    2.7247   -1.2851 C   0  0  0  1  0  0  0  0  0  0  0  0
   -4.5428    3.2721   -4.9688 F   0  0  0  1  0  0  0  0  0  0  0  0
   -6.2657    2.1920   -3.3660 H   0  0  0  1  0  0  0  0  0  0  0  0
   -2.2706    3.4313   -3.7292 H   0  0  0  1  0  0  0  0  0  0  0  0
   -3.6116    1.6903   -0.1515 H   0  0  0  1  0  0  0  0  0  0  0  0
   -0.8939    3.5001   -1.8214 H   0  0  0  1  0  0  0  0  0  0  0  0
   -1.5085    3.0116   -0.2600 H   0  0  0  1  0  0  0  0  0  0  0  0
  1  4  1  0  0  0  0
  2  4  1  0  0  0  0
  2  5  2  0  0  0  0
  2  6  1  0  0  0  0
  3  4  1  0  0  0  0
  3  7  1  0  0  0  0
  3  8  1  0  0  0  0
  4 26  1  0  0  0  0
  6  9  1  0  0  0  0
  6 12  1  0  0  0  0
  8 10  1  0  0  0  0
  8 11  2  0  0  0  0
  9 13  1  0  0  0  0
  9 14  1  0  0  0  0
  9 15  1  0  0  0  0
 10 16  1  0  0  0  0
 10 17  1  0  0  0  0
 10 18  1  0  0  0  0
 19 20  1  0  0  0  0
 20 21  4  0  0  0  0
 20 25  4  0  0  0  0
 21 22  4  0  0  0  0
 21 28  1  0  0  0  0
 22 23  4  0  0  0  0
 22 27  1  0  0  0  0
 23 24  4  0  0  0  0
 23 29  1  0  0  0  0
 24 25  4  0  0  0  0
 24 26  1  0  0  0  0
 25 30  1  0  0  0  0
 26 31  1  0  0  0  0
 26 32  1  0  0  0  0
M  END
> <BCLConfClusterSize>
1

> <ConfClashScore>
0 

> <ConfOneFourInteractionScore>
-0.960318 

> <ConfScore>
0.251919 

> <ConfScorePBest>
0.00549841 

> <ConfTolerance>
0.306269 

> <RosettaParamsInstructions>
M  ROOT 3
M  POLY_N_BB 3
M  POLY_CA_BB 4
M  POLY_C_BB 2
M  POLY_O_BB 5
M  POLY_IGNORE 9 10 11 12 13 14 15 16 17 18 
M  POLY_UPPER 6
M  POLY_LOWER 8
M  POLY_CHG 0
M  POLY_PROPERTIES ALPHA_AA D_AA PROTEIN AROMATIC POLYMER 
M  END

$$$$



 32 32  0  0  0  0  0  0  0  0999 V2000
   -0.8295    0.7257   -1.6065 H   0  0  0  1  0  0  0  0  0  0  0  0
    0.9124    1.7676   -1.0752 C   0  0  0  1  0  0  0  0  0  0  0  0
   -0.3140    1.8487   -3.2477 N   0  0  0  1  0  0  0  0  0  0  0  0
   -0.4150    1.6921   -1.8044 C   0  0  0  1  0  0  0  0  0  0  0  0
    0.9858    1.8550    0.1370 O   0  0  0  1  0  0  0  0  0  0  0  0
    2.0450    1.7376   -1.7833 N   0  0  0  1  0  0  0  0  0  0  0  0
   -0.4610    1.0667   -3.8198 H   0  0  0  1  0  0  0  0  0  0  0  0
   -0.0251    3.0331   -3.8257 C   0  0  0  1  0  0  0  0  0  0  0  0
    3.3563    1.8021   -1.1555 C   0  0  0  1  0  0  0  0  0  0  0  0
    0.0235    3.0944   -5.3400 C   0  0  0  1  0  0  0  0  0  0  0  0
    0.1925    4.0337   -3.1475 O   0  0  0  1  0  0  0  0  0  0  0  0
    1.9907    1.6697   -2.7594 H   0  0  0  1  0  0  0  0  0  0  0  0
    4.1148    1.6659   -1.8978 H   0  0  0  1  0  0  0  0  0  0  0  0
    3.4367    1.0309   -0.4181 H   0  0  0  1  0  0  0  0  0  0  0  0
    3.4815    2.7568   -0.6890 H   0  0  0  1  0  0  0  0  0  0  0  0
    0.7616    2.4093   -5.7016 H   0  0  0  1  0  0  0  0  0  0  0  0
    0.2769    4.0871   -5.6486 H   0  0  0  1  0  0  0  0  0  0  0  0
   -0.9338    2.8299   -5.7383 H   0  0  0  1  0  0  0  0  0  0  0  0
   -6.0340    1.3103   -0.9232 F   0  0  0  1  0  0  0  0  0  0  0  0
   -5.0700    1.8696   -1.6794 C   0  0  0  1  0  0  0  0  0  0  0  0
   -5.3119    2.3014   -2.9742 C   0  0  0  1  0  0  0  0  0  0  0  0
   -4.2916    2.8651   -3.7168 C   0  0  0  1  0  0  0  0  0  0  0  0
   -3.0277    3.0035   -3.1648 C   0  0  0  1  0  0  0  0  0  0  0  0
   -2.7862    2.5730   -1.8738 C   0  0  0  1  0  0  0  0  0  0  0  0
   -3.8097    2.0076   -1.1291 C   0  0  0  1  0  0  0  0  0  0  0  0
   -1.4077    2.7182   -1.2739 C   0  0  0  1  0  0  0  0  0  0  0  0
   -4.5685    3.2664   -4.9723 F   0  0  0  1  0  0  0  0  0  0  0  0
   -6.2612    2.2013   -3.3869 H   0  0  0  1  0  0  0  0  0  0  0  0
   -2.2609    3.4314   -3.7222 H   0  0  0  1  0  0  0  0  0  0  0  0
   -3.6291    1.6873   -0.1563 H   0  0  0  1  0  0  0  0  0  0  0  0
   -1.0393    3.6970   -1.4999 H   0  0  0  1  0  0  0  0  0  0  0  0
   -1.4839    2.6014   -0.2130 H   0  0  0  1  0  0  0  0  0  0  0  0
  1  4  1  0  0  0  0
  2  4  1  0  0  0  0
  2  5  2  0  0  0  0
  2  6  1  0  0  0  0
  3  4  1  0  0  0  0
  3  7  1  0  0  0  0
  3  8  1  0  0  0  0
  4 26  1  0  0  0  0
  6  9  1  0  0  0  0
  6 12  1  0  0  0  0
  8 10  1  0  0  0  0
  8 11  2  0  0  0  0
  9 13  1  0  0  0  0
  9 14  1  0  0  0  0
  9 15  1  0  0  0  0
 10 16  1  0  0  0  0
 10 17  1  0  0  0  0
 10 18  1  0  0  0  0
 19 20  1  0  0  0  0
 20 21  4  0  0  0  0
 20 25  4  0  0  0  0
 21 22  4  0  0  0  0
 21 28  1  0  0  0  0
 22 23  4  0  0  0  0
 22 27  1  0  0  0  0
 23 24  4  0  0  0  0
 23 29  1  0  0  0  0
 24 25  4  0  0  0  0
 24 26  1  0  0  0  0
 25 30  1  0  0  0  0
 26 31  1  0  0  0  0
 26 32  1  0  0  0  0
M  END
> <BCLConfClusterSize>
1

> <ConfClashScore>
0 

> <ConfOneFourInteractionScore>
-0.953455 

> <ConfScore>
0.253339 

> <ConfScorePBest>
0.00546993 

> <ConfTolerance>
0.25459 

> <RosettaParamsInstructions>
M  ROOT 3
M  POLY_N_BB 3
M  POLY_CA_BB 4
M  POLY_C_BB 2
M  POLY_O_BB 5
M  POLY_IGNORE 9 10 11 12 13 14 15 16 17 18 
M  POLY_UPPER 6
M  POLY_LOWER 8
M  POLY_CHG 0
M  POLY_PROPERTIES ALPHA_AA D_AA PROTEIN AROMATIC POLYMER 
M  END

$$$$



 32 32  0  0  0  0  0  0  0  0999 V2000
   -0.1870    3.9155   -0.0720 H   0  0  0  1  0  0  0  0  0  0  0  0
   -2.0887    3.9578    0.8011 C   0  0  0  1  0  0  0  0  0  0  0  0
   -1.3458    5.2109   -1.1719 N   0  0  0  1  0  0  0  0  0  0  0  0
   -1.1962    3.9578   -0.4252 C   0  0  0  1  0  0  0  0  0  0  0  0
   -2.4640    5.0139    1.3084 O   0  0  0  1  0  0  0  0  0  0  0  0
   -2.4575    2.7670    1.3172 N   0  0  0  1  0  0  0  0  0  0  0  0
   -2.1715    5.7283   -1.0670 H   0  0  0  1  0  0  0  0  0  0  0  0
   -0.3915    5.6739   -1.9936 C   0  0  0  1  0  0  0  0  0  0  0  0
   -3.2349    2.7125    2.5463 C   0  0  0  1  0  0  0  0  0  0  0  0
   -0.6562    6.9700   -2.7348 C   0  0  0  1  0  0  0  0  0  0  0  0
    0.6661    5.0676   -2.1428 O   0  0  0  1  0  0  0  0  0  0  0  0
   -2.2014    1.9370    0.8634 H   0  0  0  1  0  0  0  0  0  0  0  0
   -3.7857    3.6226    2.6612 H   0  0  0  1  0  0  0  0  0  0  0  0
   -2.5756    2.5872    3.3797 H   0  0  0  1  0  0  0  0  0  0  0  0
   -3.9149    1.8876    2.5016 H   0  0  0  1  0  0  0  0  0  0  0  0
   -1.7106    7.0993   -2.8628 H   0  0  0  1  0  0  0  0  0  0  0  0
   -0.1824    6.9355   -3.6935 H   0  0  0  1  0  0  0  0  0  0  0  0
   -0.2624    7.7897   -2.1711 H   0  0  0  1  0  0  0  0  0  0  0  0
   -6.0556    1.3105   -0.9392 F   0  0  0  1  0  0  0  0  0  0  0  0
   -5.0686    1.8657   -1.6683 C   0  0  0  1  0  0  0  0  0  0  0  0
   -5.3199    2.2947   -2.9622 C   0  0  0  1  0  0  0  0  0  0  0  0
   -4.3058    2.8595   -3.7124 C   0  0  0  1  0  0  0  0  0  0  0  0
   -3.0387    3.0020   -3.1688 C   0  0  0  1  0  0  0  0  0  0  0  0
   -2.7879    2.5744   -1.8786 C   0  0  0  1  0  0  0  0  0  0  0  0
   -3.8051    2.0078   -1.1264 C   0  0  0  1  0  0  0  0  0  0  0  0
   -1.4059    2.7240   -1.2878 C   0  0  0  1  0  0  0  0  0  0  0  0
   -4.5055    3.2847   -4.9747 F   0  0  0  1  0  0  0  0  0  0  0  0
   -6.2716    2.1914   -3.3686 H   0  0  0  1  0  0  0  0  0  0  0  0
   -2.2766    3.4307   -3.7318 H   0  0  0  1  0  0  0  0  0  0  0  0
   -3.6175    1.6897   -0.1541 H   0  0  0  1  0  0  0  0  0  0  0  0
   -1.2097    1.8623   -0.6846 H   0  0  0  1  0  0  0  0  0  0  0  0
   -0.7043    2.7624   -2.0948 H   0  0  0  1  0  0  0  0  0  0  0  0
  1  4  1  0  0  0  0
  2  4  1  0  0  0  0
  2  5  2  0  0  0  0
  2  6  1  0  0  0  0
  3  4  1  0  0  0  0
  3  7  1  0  0  0  0
  3  8  1  0  0  0  0
  4 26  1  0  0  0  0
  6  9  1  0  0  0  0
  6 12  1  0  0  0  0
  8 10  1  0  0  0  0
  8 11  2  0  0  0  0
  9 13  1  0  0  0  0
  9 14  1  0  0  0  0
  9 15  1  0  0  0  0
 10 16  1  0  0  0  0
 10 17  1  0  0  0  0
 10 18  1  0  0  0  0
 19 20  1  0  0  0  0
 20 21  4  0  0  0  0
 20 25  4  0  0  0  0
 21 22  4  0  0  0  0
 21 28  1  0  0  0  0
 22 23  4  0  0  0  0
 22 27  1  0  0  0  0
 23 24  4  0  0  0  0
 23 29  1  0  0  0  0
 24 25  4  0  0  0  0
 24 26  1  0  0  0  0
 25 30  1  0  0  0  0
 26 31  1  0  0  0  0
 26 32  1  0  0  0  0
M  END
> <BCLConfClusterSize>
1

> <ConfClashScore>
0 

> <ConfOneFourInteractionScore>
-0.927466 

> <ConfScore>
0.253546 

> <ConfScorePBest>
0.00544145 

> <ConfTolerance>
0.295223 

> <RosettaParamsInstructions>
M  ROOT 3
M  POLY_N_BB 3
M  POLY_CA_BB 4
M  POLY_C_BB 2
M  POLY_O_BB 5
M  POLY_IGNORE 9 10 11 12 13 14 15 16 17 18 
M  POLY_UPPER 6
M  POLY_LOWER 8
M  POLY_CHG 0
M  POLY_PROPERTIES ALPHA_AA D_AA PROTEIN AROMATIC POLYMER 
M  END

$$$$



 32 32  0  0  0  0  0  0  0  0999 V2000
   -0.1337    3.9925   -0.2079 H   0  0  0  1  0  0  0  0  0  0  0  0
   -2.0330    4.3293    0.6031 C   0  0  0  1  0  0  0  0  0  0  0  0
   -1.1781    5.1582   -1.5517 N   0  0  0  1  0  0  0  0  0  0  0  0
   -1.1339    4.0452   -0.5844 C   0  0  0  1  0  0  0  0  0  0  0  0
   -2.4970    3.4242    1.2767 O   0  0  0  1  0  0  0  0  0  0  0  0
   -2.2761    5.6256    0.8536 N   0  0  0  1  0  0  0  0  0  0  0  0
   -0.3265    5.5122   -1.8830 H   0  0  0  1  0  0  0  0  0  0  0  0
   -2.3053    5.7143   -2.0048 C   0  0  0  1  0  0  0  0  0  0  0  0
   -3.2249    6.1198    1.8401 C   0  0  0  1  0  0  0  0  0  0  0  0
   -2.1280    6.8601   -2.9819 C   0  0  0  1  0  0  0  0  0  0  0  0
   -3.4224    5.3352   -1.6630 O   0  0  0  1  0  0  0  0  0  0  0  0
   -1.7769    6.2890    0.3329 H   0  0  0  1  0  0  0  0  0  0  0  0
   -3.2371    7.1896    1.8194 H   0  0  0  1  0  0  0  0  0  0  0  0
   -2.9333    5.7855    2.8138 H   0  0  0  1  0  0  0  0  0  0  0  0
   -4.2020    5.7478    1.6125 H   0  0  0  1  0  0  0  0  0  0  0  0
   -1.1608    6.7967   -3.4351 H   0  0  0  1  0  0  0  0  0  0  0  0
   -2.2170    7.7902   -2.4605 H   0  0  0  1  0  0  0  0  0  0  0  0
   -2.8812    6.8020   -3.7397 H   0  0  0  1  0  0  0  0  0  0  0  0
   -6.0561    1.3124   -0.9444 F   0  0  0  1  0  0  0  0  0  0  0  0
   -5.0671    1.8672   -1.6711 C   0  0  0  1  0  0  0  0  0  0  0  0
   -5.3152    2.2971   -2.9653 C   0  0  0  1  0  0  0  0  0  0  0  0
   -4.2991    2.8616   -3.7130 C   0  0  0  1  0  0  0  0  0  0  0  0
   -3.0330    3.0027   -3.1666 C   0  0  0  1  0  0  0  0  0  0  0  0
   -2.7853    2.5741   -1.8761 C   0  0  0  1  0  0  0  0  0  0  0  0
   -3.8046    2.0080   -1.1264 C   0  0  0  1  0  0  0  0  0  0  0  0
   -1.4045    2.7223   -1.2822 C   0  0  0  1  0  0  0  0  0  0  0  0
   -4.5390    3.2745   -4.9723 F   0  0  0  1  0  0  0  0  0  0  0  0
   -6.2661    2.1949   -3.3738 H   0  0  0  1  0  0  0  0  0  0  0  0
   -2.2693    3.4311   -3.7277 H   0  0  0  1  0  0  0  0  0  0  0  0
   -3.6194    1.6891   -0.1540 H   0  0  0  1  0  0  0  0  0  0  0  0
   -1.2666    1.9379   -0.5677 H   0  0  0  1  0  0  0  0  0  0  0  0
   -0.6917    2.6144   -2.0730 H   0  0  0  1  0  0  0  0  0  0  0  0
  1  4  1  0  0  0  0
  2  4  1  0  0  0  0
  2  5  2  0  0  0  0
  2  6  1  0  0  0  0
  3  4  1  0  0  0  0
  3  7  1  0  0  0  0
  3  8  1  0  0  0  0
  4 26  1  0  0  0  0
  6  9  1  0  0  0  0
  6 12  1  0  0  0  0
  8 10  1  0  0  0  0
  8 11  2  0  0  0  0
  9 13  1  0  0  0  0
  9 14  1  0  0  0  0
  9 15  1  0  0  0  0
 10 16  1  0  0  0  0
 10 17  1  0  0  0  0
 10 18  1  0  0  0  0
 19 20  1  0  0  0  0
 20 21  4  0  0  0  0
 20 25  4  0  0  0  0
 21 22  4  0  0  0  0
 21 28  1  0  0  0  0
 22 23  4  0  0  0  0
 22 27  1  0  0  0  0
 23 24  4  0  0  0  0
 23 29  1  0  0  0  0
 24 25  4  0  0  0  0
 24 26  1  0  0  0  0
 25 30  1  0  0  0  0
 26 31  1  0  0  0  0
 26 32  1  0  0  0  0
M  END
> <BCLConfClusterSize>
1

> <ConfClashScore>
0 

> <ConfOneFourInteractionScore>
-0.948009 

> <ConfScore>
0.254459 

> <ConfScorePBest>
0.00541297 

> <ConfTolerance>
0.305177 

> <RosettaParamsInstructions>
M  ROOT 3
M  POLY_N_BB 3
M  POLY_CA_BB 4
M  POLY_C_BB 2
M  POLY_O_BB 5
M  POLY_IGNORE 9 10 11 12 13 14 15 16 17 18 
M  POLY_UPPER 6
M  POLY_LOWER 8
M  POLY_CHG 0
M  POLY_PROPERTIES ALPHA_AA D_AA PROTEIN AROMATIC POLYMER 
M  END

$$$$



 32 32  0  0  0  0  0  0  0  0999 V2000
   -2.0479    2.1209    0.6885 H   0  0  0  1  0  0  0  0  0  0  0  0
   -2.3764    4.2027    0.5073 C   0  0  0  1  0  0  0  0  0  0  0  0
   -0.2076    3.0671    0.8448 N   0  0  0  1  0  0  0  0  0  0  0  0
   -1.5424    2.9565    0.2515 C   0  0  0  1  0  0  0  0  0  0  0  0
   -2.8517    4.4263    1.6198 O   0  0  0  1  0  0  0  0  0  0  0  0
   -2.5759    5.0433   -0.5090 N   0  0  0  1  0  0  0  0  0  0  0  0
    0.4056    2.3213    0.6766 H   0  0  0  1  0  0  0  0  0  0  0  0
    0.2695    4.0703    1.5901 C   0  0  0  1  0  0  0  0  0  0  0  0
   -3.4638    6.1958   -0.4748 C   0  0  0  1  0  0  0  0  0  0  0  0
    1.6763    3.8242    2.1197 C   0  0  0  1  0  0  0  0  0  0  0  0
   -0.3364    5.0962    1.8408 O   0  0  0  1  0  0  0  0  0  0  0  0
   -2.0879    4.8718   -1.3413 H   0  0  0  1  0  0  0  0  0  0  0  0
   -3.0134    7.0095   -1.0040 H   0  0  0  1  0  0  0  0  0  0  0  0
   -3.6358    6.4832    0.5414 H   0  0  0  1  0  0  0  0  0  0  0  0
   -4.3950    5.9422   -0.9368 H   0  0  0  1  0  0  0  0  0  0  0  0
    1.9398    2.7980    1.9704 H   0  0  0  1  0  0  0  0  0  0  0  0
    1.7087    4.0521    3.1647 H   0  0  0  1  0  0  0  0  0  0  0  0
    2.3688    4.4498    1.5962 H   0  0  0  1  0  0  0  0  0  0  0  0
   -6.0702    1.3178   -0.9688 F   0  0  0  1  0  0  0  0  0  0  0  0
   -5.0579    1.8679   -1.6663 C   0  0  0  1  0  0  0  0  0  0  0  0
   -5.3137    2.2954   -2.9599 C   0  0  0  1  0  0  0  0  0  0  0  0
   -4.3026    2.8609   -3.7137 C   0  0  0  1  0  0  0  0  0  0  0  0
   -3.0340    3.0053   -3.1741 C   0  0  0  1  0  0  0  0  0  0  0  0
   -2.7787    2.5791   -1.8843 C   0  0  0  1  0  0  0  0  0  0  0  0
   -3.7930    2.0120   -1.1285 C   0  0  0  1  0  0  0  0  0  0  0  0
   -1.4159    2.7050   -1.2454 C   0  0  0  1  0  0  0  0  0  0  0  0
   -4.5499    3.2715   -4.9723 F   0  0  0  1  0  0  0  0  0  0  0  0
   -6.2666    2.1907   -3.3633 H   0  0  0  1  0  0  0  0  0  0  0  0
   -2.2741    3.4345   -3.7398 H   0  0  0  1  0  0  0  0  0  0  0  0
   -3.6020    1.6949   -0.1566 H   0  0  0  1  0  0  0  0  0  0  0  0
   -0.8690    1.7991   -1.4039 H   0  0  0  1  0  0  0  0  0  0  0  0
   -0.8916    3.5221   -1.6953 H   0  0  0  1  0  0  0  0  0  0  0  0
  1  4  1  0  0  0  0
  2  4  1  0  0  0  0
  2  5  2  0  0  0  0
  2  6  1  0  0  0  0
  3  4  1  0  0  0  0
  3  7  1  0  0  0  0
  3  8  1  0  0  0  0
  4 26  1  0  0  0  0
  6  9  1  0  0  0  0
  6 12  1  0  0  0  0
  8 10  1  0  0  0  0
  8 11  2  0  0  0  0
  9 13  1  0  0  0  0
  9 14  1  0  0  0  0
  9 15  1  0  0  0  0
 10 16  1  0  0  0  0
 10 17  1  0  0  0  0
 10 18  1  0  0  0  0
 19 20  1  0  0  0  0
 20 21  4  0  0  0  0
 20 25  4  0  0  0  0
 21 22  4  0  0  0  0
 21 28  1  0  0  0  0
 22 23  4  0  0  0  0
 22 27  1  0  0  0  0
 23 24  4  0  0  0  0
 23 29  1  0  0  0  0
 24 25  4  0  0  0  0
 24 26  1  0  0  0  0
 25 30  1  0  0  0  0
 26 31  1  0  0  0  0
 26 32  1  0  0  0  0
M  END
> <BCLConfClusterSize>
1

> <ConfClashScore>
0 

> <ConfOneFourInteractionScore>
-0.946552 

> <ConfScore>
0.255555 

> <ConfScorePBest>
0.00538449 

> <ConfTolerance>
0.517514 

> <RosettaParamsInstructions>
M  ROOT 3
M  POLY_N_BB 3
M  POLY_CA_BB 4
M  POLY_C_BB 2
M  POLY_O_BB 5
M  POLY_IGNORE 9 10 11 12 13 14 15 16 17 18 
M  POLY_UPPER 6
M  POLY_LOWER 8
M  POLY_CHG 0
M  POLY_PROPERTIES ALPHA_AA D_AA PROTEIN AROMATIC POLYMER 
M  END

$$$$



 32 32  0  0  0  0  0  0  0  0999 V2000
   -0.3780    3.9312    0.1265 H   0  0  0  1  0  0  0  0  0  0  0  0
   -2.3227    3.6778    0.8854 C   0  0  0  1  0  0  0  0  0  0  0  0
   -1.6429    5.1245   -0.9964 N   0  0  0  1  0  0  0  0  0  0  0  0
   -1.3701    3.8801   -0.2711 C   0  0  0  1  0  0  0  0  0  0  0  0
   -2.5149    2.5574    1.3560 O   0  0  0  1  0  0  0  0  0  0  0  0
   -2.9467    4.7486    1.3785 N   0  0  0  1  0  0  0  0  0  0  0  0
   -0.8994    5.7340   -1.1863 H   0  0  0  1  0  0  0  0  0  0  0  0
   -2.8700    5.4565   -1.4076 C   0  0  0  1  0  0  0  0  0  0  0  0
   -3.9625    4.7149    2.4201 C   0  0  0  1  0  0  0  0  0  0  0  0
   -2.9664    6.7205   -2.2397 C   0  0  0  1  0  0  0  0  0  0  0  0
   -3.8612    4.7972   -1.1406 O   0  0  0  1  0  0  0  0  0  0  0  0
   -2.7027    5.6241    1.0118 H   0  0  0  1  0  0  0  0  0  0  0  0
   -4.6809    5.4880    2.2436 H   0  0  0  1  0  0  0  0  0  0  0  0
   -3.5010    4.8681    3.3732 H   0  0  0  1  0  0  0  0  0  0  0  0
   -4.4526    3.7637    2.4093 H   0  0  0  1  0  0  0  0  0  0  0  0
   -2.0586    7.2792   -2.1469 H   0  0  0  1  0  0  0  0  0  0  0  0
   -3.7869    7.3135   -1.8932 H   0  0  0  1  0  0  0  0  0  0  0  0
   -3.1218    6.4607   -3.2659 H   0  0  0  1  0  0  0  0  0  0  0  0
   -6.0340    1.3103   -0.9232 F   0  0  0  1  0  0  0  0  0  0  0  0
   -5.0700    1.8696   -1.6794 C   0  0  0  1  0  0  0  0  0  0  0  0
   -5.3119    2.3014   -2.9742 C   0  0  0  1  0  0  0  0  0  0  0  0
   -4.2916    2.8651   -3.7168 C   0  0  0  1  0  0  0  0  0  0  0  0
   -3.0277    3.0035   -3.1648 C   0  0  0  1  0  0  0  0  0  0  0  0
   -2.7862    2.5730   -1.8738 C   0  0  0  1  0  0  0  0  0  0  0  0
   -3.8097    2.0076   -1.1291 C   0  0  0  1  0  0  0  0  0  0  0  0
   -1.4077    2.7182   -1.2739 C   0  0  0  1  0  0  0  0  0  0  0  0
   -4.5685    3.2664   -4.9723 F   0  0  0  1  0  0  0  0  0  0  0  0
   -6.2612    2.2013   -3.3869 H   0  0  0  1  0  0  0  0  0  0  0  0
   -2.2609    3.4314   -3.7222 H   0  0  0  1  0  0  0  0  0  0  0  0
   -3.6291    1.6873   -0.1563 H   0  0  0  1  0  0  0  0  0  0  0  0
   -1.1472    1.8111   -0.7697 H   0  0  0  1  0  0  0  0  0  0  0  0
   -0.7027    2.9071   -2.0563 H   0  0  0  1  0  0  0  0  0  0  0  0
  1  4  1  0  0  0  0
  2  4  1  0  0  0  0
  2  5  2  0  0  0  0
  2  6  1  0  0  0  0
  3  4  1  0  0  0  0
  3  7  1  0  0  0  0
  3  8  1  0  0  0  0
  4 26  1  0  0  0  0
  6  9  1  0  0  0  0
  6 12  1  0  0  0  0
  8 10  1  0  0  0  0
  8 11  2  0  0  0  0
  9 13  1  0  0  0  0
  9 14  1  0  0  0  0
  9 15  1  0  0  0  0
 10 16  1  0  0  0  0
 10 17  1  0  0  0  0
 10 18  1  0  0  0  0
 19 20  1  0  0  0  0
 20 21  4  0  0  0  0
 20 25  4  0  0  0  0
 21 22  4  0  0  0  0
 21 28  1  0  0  0  0
 22 23  4  0  0  0  0
 22 27  1  0  0  0  0
 23 24  4  0  0  0  0
 23 29  1  0  0  0  0
 24 25  4  0  0  0  0
 24 26  1  0  0  0  0
 25 30  1  0  0  0  0
 26 31  1  0  0  0  0
 26 32  1  0  0  0  0
M  END
> <BCLConfClusterSize>
1

> <ConfClashScore>
0 

> <ConfOneFourInteractionScore>
-0.948009 

> <ConfScore>
0.255709 

> <ConfScorePBest>
0.00535601 

> <ConfTolerance>
0.375935 

> <RosettaParamsInstructions>
M  ROOT 3
M  POLY_N_BB 3
M  POLY_CA_BB 4
M  POLY_C_BB 2
M  POLY_O_BB 5
M  POLY_IGNORE 9 10 11 12 13 14 15 16 17 18 
M  POLY_UPPER 6
M  POLY_LOWER 8
M  POLY_CHG 0
M  POLY_PROPERTIES ALPHA_AA D_AA PROTEIN AROMATIC POLYMER 
M  END

$$$$



 32 32  0  0  0  0  0  0  0  0999 V2000
   -2.0401    2.9026    0.7073 H   0  0  0  1  0  0  0  0  0  0  0  0
    0.0467    2.7307    0.8199 C   0  0  0  1  0  0  0  0  0  0  0  0
   -1.6049    0.9314    0.3432 N   0  0  0  1  0  0  0  0  0  0  0  0
   -1.2854    2.3464    0.1916 C   0  0  0  1  0  0  0  0  0  0  0  0
    0.5336    2.0722    1.7242 O   0  0  0  1  0  0  0  0  0  0  0  0
    0.6312    3.8197    0.3183 N   0  0  0  1  0  0  0  0  0  0  0  0
   -1.7337    0.4059   -0.4739 H   0  0  0  1  0  0  0  0  0  0  0  0
   -1.7365    0.2914    1.5236 C   0  0  0  1  0  0  0  0  0  0  0  0
    1.9224    4.3417    0.7407 C   0  0  0  1  0  0  0  0  0  0  0  0
   -1.9804   -1.2050    1.4998 C   0  0  0  1  0  0  0  0  0  0  0  0
   -1.6614    0.9016    2.5893 O   0  0  0  1  0  0  0  0  0  0  0  0
    0.1554    4.3048   -0.3879 H   0  0  0  1  0  0  0  0  0  0  0  0
    2.4096    3.6247    1.3679 H   0  0  0  1  0  0  0  0  0  0  0  0
    1.7782    5.2516    1.2848 H   0  0  0  1  0  0  0  0  0  0  0  0
    2.5286    4.5325   -0.1202 H   0  0  0  1  0  0  0  0  0  0  0  0
   -2.6595   -1.4437    0.7082 H   0  0  0  1  0  0  0  0  0  0  0  0
   -2.4004   -1.5126    2.4347 H   0  0  0  1  0  0  0  0  0  0  0  0
   -1.0533   -1.7147    1.3399 H   0  0  0  1  0  0  0  0  0  0  0  0
   -6.0566    1.3143   -0.9498 F   0  0  0  1  0  0  0  0  0  0  0  0
   -5.0656    1.8687   -1.6740 C   0  0  0  1  0  0  0  0  0  0  0  0
   -5.3106    2.2996   -2.9685 C   0  0  0  1  0  0  0  0  0  0  0  0
   -4.2924    2.8637   -3.7136 C   0  0  0  1  0  0  0  0  0  0  0  0
   -3.0273    3.0035   -3.1645 C   0  0  0  1  0  0  0  0  0  0  0  0
   -2.7828    2.5739   -1.8737 C   0  0  0  1  0  0  0  0  0  0  0  0
   -3.8042    2.0081   -1.1265 C   0  0  0  1  0  0  0  0  0  0  0  0
   -1.4031    2.7206   -1.2768 C   0  0  0  1  0  0  0  0  0  0  0  0
   -4.5723    3.2640   -4.9688 F   0  0  0  1  0  0  0  0  0  0  0  0
   -6.2607    2.1984   -3.3791 H   0  0  0  1  0  0  0  0  0  0  0  0
   -2.2621    3.4316   -3.7237 H   0  0  0  1  0  0  0  0  0  0  0  0
   -3.6213    1.6886   -0.1539 H   0  0  0  1  0  0  0  0  0  0  0  0
   -0.7353    2.0950   -1.8314 H   0  0  0  1  0  0  0  0  0  0  0  0
   -1.1050    3.7429   -1.3818 H   0  0  0  1  0  0  0  0  0  0  0  0
  1  4  1  0  0  0  0
  2  4  1  0  0  0  0
  2  5  2  0  0  0  0
  2  6  1  0  0  0  0
  3  4  1  0  0  0  0
  3  7  1  0  0  0  0
  3  8  1  0  0  0  0
  4 26  1  0  0  0  0
  6  9  1  0  0  0  0
  6 12  1  0  0  0  0
  8 10  1  0  0  0  0
  8 11  2  0  0  0  0
  9 13  1  0  0  0  0
  9 14  1  0  0  0  0
  9 15  1  0  0  0  0
 10 16  1  0  0  0  0
 10 17  1  0  0  0  0
 10 18  1  0  0  0  0
 19 20  1  0  0  0  0
 20 21  4  0  0  0  0
 20 25  4  0  0  0  0
 21 22  4  0  0  0  0
 21 28  1  0  0  0  0
 22 23  4  0  0  0  0
 22 27  1  0  0  0  0
 23 24  4  0  0  0  0
 23 29  1  0  0  0  0
 24 25  4  0  0  0  0
 24 26  1  0  0  0  0
 25 30  1  0  0  0  0
 26 31  1  0  0  0  0
 26 32  1  0  0  0  0
M  END
> <BCLConfClusterSize>
1

> <ConfClashScore>
0 

> <ConfOneFourInteractionScore>
-0.947538 

> <ConfScore>
0.256566 

> <ConfScorePBest>
0.00532753 

> <ConfTolerance>
0.69881 

> <RosettaParamsInstructions>
M  ROOT 3
M  POLY_N_BB 3
M  POLY_CA_BB 4
M  POLY_C_BB 2
M  POLY_O_BB 5
M  POLY_IGNORE 9 10 11 12 13 14 15 16 17 18 
M  POLY_UPPER 6
M  POLY_LOWER 8
M  POLY_CHG 0
M  POLY_PROPERTIES ALPHA_AA D_AA PROTEIN AROMATIC POLYMER 
M  END

$$$$



 32 32  0  0  0  0  0  0  0  0999 V2000
   -0.2981    4.0640   -0.1094 H   0  0  0  1  0  0  0  0  0  0  0  0
   -2.1584    3.9097    0.8536 C   0  0  0  1  0  0  0  0  0  0  0  0
   -1.6249    5.1461   -1.2517 N   0  0  0  1  0  0  0  0  0  0  0  0
   -1.3187    3.9774   -0.4189 C   0  0  0  1  0  0  0  0  0  0  0  0
   -2.6263    4.9388    1.3334 O   0  0  0  1  0  0  0  0  0  0  0  0
   -2.4148    2.6927    1.3416 N   0  0  0  1  0  0  0  0  0  0  0  0
   -2.1667    5.0227   -2.0589 H   0  0  0  1  0  0  0  0  0  0  0  0
   -1.1866    6.3846   -0.9447 C   0  0  0  1  0  0  0  0  0  0  0  0
   -3.2159    2.4883    2.5392 C   0  0  0  1  0  0  0  0  0  0  0  0
   -1.5376    7.5191   -1.8875 C   0  0  0  1  0  0  0  0  0  0  0  0
   -0.5215    6.5901    0.0698 O   0  0  0  1  0  0  0  0  0  0  0  0
   -2.0507    1.9104    0.8770 H   0  0  0  1  0  0  0  0  0  0  0  0
   -3.1681    3.3625    3.1544 H   0  0  0  1  0  0  0  0  0  0  0  0
   -2.8362    1.6486    3.0830 H   0  0  0  1  0  0  0  0  0  0  0  0
   -4.2324    2.3035    2.2609 H   0  0  0  1  0  0  0  0  0  0  0  0
   -1.2933    7.2383   -2.8907 H   0  0  0  1  0  0  0  0  0  0  0  0
   -0.9821    8.3925   -1.6165 H   0  0  0  1  0  0  0  0  0  0  0  0
   -2.5850    7.7269   -1.8206 H   0  0  0  1  0  0  0  0  0  0  0  0
   -6.0561    1.3124   -0.9444 F   0  0  0  1  0  0  0  0  0  0  0  0
   -5.0671    1.8672   -1.6711 C   0  0  0  1  0  0  0  0  0  0  0  0
   -5.3152    2.2971   -2.9653 C   0  0  0  1  0  0  0  0  0  0  0  0
   -4.2991    2.8616   -3.7130 C   0  0  0  1  0  0  0  0  0  0  0  0
   -3.0330    3.0027   -3.1666 C   0  0  0  1  0  0  0  0  0  0  0  0
   -2.7853    2.5741   -1.8761 C   0  0  0  1  0  0  0  0  0  0  0  0
   -3.8046    2.0080   -1.1264 C   0  0  0  1  0  0  0  0  0  0  0  0
   -1.4045    2.7223   -1.2822 C   0  0  0  1  0  0  0  0  0  0  0  0
   -4.5390    3.2745   -4.9723 F   0  0  0  1  0  0  0  0  0  0  0  0
   -6.2661    2.1949   -3.3738 H   0  0  0  1  0  0  0  0  0  0  0  0
   -2.2693    3.4311   -3.7277 H   0  0  0  1  0  0  0  0  0  0  0  0
   -3.6194    1.6891   -0.1540 H   0  0  0  1  0  0  0  0  0  0  0  0
   -1.1885    1.8657   -0.6785 H   0  0  0  1  0  0  0  0  0  0  0  0
   -0.6877    2.7913   -2.0737 H   0  0  0  1  0  0  0  0  0  0  0  0
  1  4  1  0  0  0  0
  2  4  1  0  0  0  0
  2  5  2  0  0  0  0
  2  6  1  0  0  0  0
  3  4  1  0  0  0  0
  3  7  1  0  0  0  0
  3  8  1  0  0  0  0
  4 26  1  0  0  0  0
  6  9  1  0  0  0  0
  6 12  1  0  0  0  0
  8 10  1  0  0  0  0
  8 11  2  0  0  0  0
  9 13  1  0  0  0  0
  9 14  1  0  0  0  0
  9 15  1  0  0  0  0
 10 16  1  0  0  0  0
 10 17  1  0  0  0  0
 10 18  1  0  0  0  0
 19 20  1  0  0  0  0
 20 21  4  0  0  0  0
 20 25  4  0  0  0  0
 21 22  4  0  0  0  0
 21 28  1  0  0  0  0
 22 23  4  0  0  0  0
 22 27  1  0  0  0  0
 23 24  4  0  0  0  0
 23 29  1  0  0  0  0
 24 25  4  0  0  0  0
 24 26  1  0  0  0  0
 25 30  1  0  0  0  0
 26 31  1  0  0  0  0
 26 32  1  0  0  0  0
M  END
> <BCLConfClusterSize>
1

> <ConfClashScore>
0 

> <ConfOneFourInteractionScore>
-0.949142 

> <ConfScore>
0.258438 

> <ConfScorePBest>
0.00529905 

> <ConfTolerance>
0.404745 

> <RosettaParamsInstructions>
M  ROOT 3
M  POLY_N_BB 3
M  POLY_CA_BB 4
M  POLY_C_BB 2
M  POLY_O_BB 5
M  POLY_IGNORE 9 10 11 12 13 14 15 16 17 18 
M  POLY_UPPER 6
M  POLY_LOWER 8
M  POLY_CHG 0
M  POLY_PROPERTIES ALPHA_AA D_AA PROTEIN AROMATIC POLYMER 
M  END

$$$$



 32 32  0  0  0  0  0  0  0  0999 V2000
   -1.1877    4.7857   -1.5937 H   0  0  0  1  0  0  0  0  0  0  0  0
    0.3709    4.2788   -0.2929 C   0  0  0  1  0  0  0  0  0  0  0  0
   -2.0105    4.5298    0.2802 N   0  0  0  1  0  0  0  0  0  0  0  0
   -1.0599    4.1158   -0.7692 C   0  0  0  1  0  0  0  0  0  0  0  0
    1.3148    3.9336   -1.0017 O   0  0  0  1  0  0  0  0  0  0  0  0
    0.5737    4.8074    0.9172 N   0  0  0  1  0  0  0  0  0  0  0  0
   -2.4545    5.4015    0.2215 H   0  0  0  1  0  0  0  0  0  0  0  0
   -2.2685    3.7154    1.3149 C   0  0  0  1  0  0  0  0  0  0  0  0
    1.9007    4.9199    1.5039 C   0  0  0  1  0  0  0  0  0  0  0  0
   -3.2984    4.2038    2.3148 C   0  0  0  1  0  0  0  0  0  0  0  0
   -1.7670    2.5988    1.4155 O   0  0  0  1  0  0  0  0  0  0  0  0
   -0.1980    5.1307    1.4275 H   0  0  0  1  0  0  0  0  0  0  0  0
    2.5145    4.1157    1.1557 H   0  0  0  1  0  0  0  0  0  0  0  0
    1.8240    4.8739    2.5702 H   0  0  0  1  0  0  0  0  0  0  0  0
    2.3392    5.8529    1.2173 H   0  0  0  1  0  0  0  0  0  0  0  0
   -2.8050    4.7146    3.1152 H   0  0  0  1  0  0  0  0  0  0  0  0
   -3.8401    3.3679    2.7057 H   0  0  0  1  0  0  0  0  0  0  0  0
   -3.9769    4.8737    1.8292 H   0  0  0  1  0  0  0  0  0  0  0  0
   -6.0561    1.3124   -0.9444 F   0  0  0  1  0  0  0  0  0  0  0  0
   -5.0671    1.8672   -1.6711 C   0  0  0  1  0  0  0  0  0  0  0  0
   -5.3152    2.2971   -2.9653 C   0  0  0  1  0  0  0  0  0  0  0  0
   -4.2991    2.8616   -3.7130 C   0  0  0  1  0  0  0  0  0  0  0  0
   -3.0330    3.0027   -3.1666 C   0  0  0  1  0  0  0  0  0  0  0  0
   -2.7853    2.5741   -1.8761 C   0  0  0  1  0  0  0  0  0  0  0  0
   -3.8046    2.0080   -1.1264 C   0  0  0  1  0  0  0  0  0  0  0  0
   -1.4045    2.7223   -1.2822 C   0  0  0  1  0  0  0  0  0  0  0  0
   -4.5390    3.2745   -4.9723 F   0  0  0  1  0  0  0  0  0  0  0  0
   -6.2661    2.1949   -3.3738 H   0  0  0  1  0  0  0  0  0  0  0  0
   -2.2693    3.4311   -3.7277 H   0  0  0  1  0  0  0  0  0  0  0  0
   -3.6194    1.6891   -0.1540 H   0  0  0  1  0  0  0  0  0  0  0  0
   -1.3226    2.0393   -0.4627 H   0  0  0  1  0  0  0  0  0  0  0  0
   -0.6912    2.4625   -2.0363 H   0  0  0  1  0  0  0  0  0  0  0  0
  1  4  1  0  0  0  0
  2  4  1  0  0  0  0
  2  5  2  0  0  0  0
  2  6  1  0  0  0  0
  3  4  1  0  0  0  0
  3  7  1  0  0  0  0
  3  8  1  0  0  0  0
  4 26  1  0  0  0  0
  6  9  1  0  0  0  0
  6 12  1  0  0  0  0
  8 10  1  0  0  0  0
  8 11  2  0  0  0  0
  9 13  1  0  0  0  0
  9 14  1  0  0  0  0
  9 15  1  0  0  0  0
 10 16  1  0  0  0  0
 10 17  1  0  0  0  0
 10 18  1  0  0  0  0
 19 20  1  0  0  0  0
 20 21  4  0  0  0  0
 20 25  4  0  0  0  0
 21 22  4  0  0  0  0
 21 28  1  0  0  0  0
 22 23  4  0  0  0  0
 22 27  1  0  0  0  0
 23 24  4  0  0  0  0
 23 29  1  0  0  0  0
 24 25  4  0  0  0  0
 24 26  1  0  0  0  0
 25 30  1  0  0  0  0
 26 31  1  0  0  0  0
 26 32  1  0  0  0  0
M  END
> <BCLConfClusterSize>
1

> <ConfClashScore>
0 

> <ConfOneFourInteractionScore>
-0.940043 

> <ConfScore>
0.259253 

> <ConfScorePBest>
0.00527057 

> <ConfTolerance>
0.296498 

> <RosettaParamsInstructions>
M  ROOT 3
M  POLY_N_BB 3
M  POLY_CA_BB 4
M  POLY_C_BB 2
M  POLY_O_BB 5
M  POLY_IGNORE 9 10 11 12 13 14 15 16 17 18 
M  POLY_UPPER 6
M  POLY_LOWER 8
M  POLY_CHG 0
M  POLY_PROPERTIES ALPHA_AA D_AA PROTEIN AROMATIC POLYMER 
M  END

$$$$



 32 32  0  0  0  0  0  0  0  0999 V2000
   -1.8905    4.1038    0.2455 H   0  0  0  1  0  0  0  0  0  0  0  0
   -1.1461    5.1816   -1.3981 C   0  0  0  1  0  0  0  0  0  0  0  0
    0.1565    3.8516    0.2254 N   0  0  0  1  0  0  0  0  0  0  0  0
   -1.1166    3.9738   -0.4819 C   0  0  0  1  0  0  0  0  0  0  0  0
   -0.4196    5.2502   -2.3860 O   0  0  0  1  0  0  0  0  0  0  0  0
   -2.0031    6.1458   -1.0585 N   0  0  0  1  0  0  0  0  0  0  0  0
    0.9907    3.6892   -0.2627 H   0  0  0  1  0  0  0  0  0  0  0  0
    0.1508    3.9686    1.5663 C   0  0  0  1  0  0  0  0  0  0  0  0
   -2.0780    7.4083   -1.7785 C   0  0  0  1  0  0  0  0  0  0  0  0
    1.4490    3.7416    2.3045 C   0  0  0  1  0  0  0  0  0  0  0  0
   -0.8801    4.2519    2.1751 O   0  0  0  1  0  0  0  0  0  0  0  0
   -2.6031    5.9989   -0.2977 H   0  0  0  1  0  0  0  0  0  0  0  0
   -1.9477    7.2306   -2.8255 H   0  0  0  1  0  0  0  0  0  0  0  0
   -1.3077    8.0638   -1.4296 H   0  0  0  1  0  0  0  0  0  0  0  0
   -3.0338    7.8587   -1.6096 H   0  0  0  1  0  0  0  0  0  0  0  0
    2.2642    4.1030    1.7131 H   0  0  0  1  0  0  0  0  0  0  0  0
    1.5773    2.6950    2.4865 H   0  0  0  1  0  0  0  0  0  0  0  0
    1.4252    4.2659    3.2369 H   0  0  0  1  0  0  0  0  0  0  0  0
   -6.0489    1.3153   -0.9470 F   0  0  0  1  0  0  0  0  0  0  0  0
   -5.0608    1.8703   -1.6747 C   0  0  0  1  0  0  0  0  0  0  0  0
   -5.3103    2.2998   -2.9688 C   0  0  0  1  0  0  0  0  0  0  0  0
   -4.2951    2.8645   -3.7176 C   0  0  0  1  0  0  0  0  0  0  0  0
   -3.0286    3.0062   -3.1724 C   0  0  0  1  0  0  0  0  0  0  0  0
   -2.7795    2.5780   -1.8821 C   0  0  0  1  0  0  0  0  0  0  0  0
   -3.7979    2.0117   -1.1312 C   0  0  0  1  0  0  0  0  0  0  0  0
   -1.4192    2.7010   -1.2372 C   0  0  0  1  0  0  0  0  0  0  0  0
   -4.5794    3.2634   -4.9722 F   0  0  0  1  0  0  0  0  0  0  0  0
   -6.2616    2.1971   -3.3764 H   0  0  0  1  0  0  0  0  0  0  0  0
   -2.2656    3.4348   -3.7344 H   0  0  0  1  0  0  0  0  0  0  0  0
   -3.6116    1.6931   -0.1589 H   0  0  0  1  0  0  0  0  0  0  0  0
   -1.3166    1.8882   -0.5489 H   0  0  0  1  0  0  0  0  0  0  0  0
   -0.6877    2.6071   -2.0124 H   0  0  0  1  0  0  0  0  0  0  0  0
  1  4  1  0  0  0  0
  2  4  1  0  0  0  0
  2  5  2  0  0  0  0
  2  6  1  0  0  0  0
  3  4  1  0  0  0  0
  3  7  1  0  0  0  0
  3  8  1  0  0  0  0
  4 26  1  0  0  0  0
  6  9  1  0  0  0  0
  6 12  1  0  0  0  0
  8 10  1  0  0  0  0
  8 11  2  0  0  0  0
  9 13  1  0  0  0  0
  9 14  1  0  0  0  0
  9 15  1  0  0  0  0
 10 16  1  0  0  0  0
 10 17  1  0  0  0  0
 10 18  1  0  0  0  0
 19 20  1  0  0  0  0
 20 21  4  0  0  0  0
 20 25  4  0  0  0  0
 21 22  4  0  0  0  0
 21 28  1  0  0  0  0
 22 23  4  0  0  0  0
 22 27  1  0  0  0  0
 23 24  4  0  0  0  0
 23 29  1  0  0  0  0
 24 25  4  0  0  0  0
 24 26  1  0  0  0  0
 25 30  1  0  0  0  0
 26 31  1  0  0  0  0
 26 32  1  0  0  0  0
M  END
> <BCLConfClusterSize>
1

> <ConfClashScore>
0 

> <ConfOneFourInteractionScore>
-0.979134 

> <ConfScore>
0.259682 

> <ConfScorePBest>
0.00524209 

> <ConfTolerance>
0.37589 

> <RosettaParamsInstructions>
M  ROOT 3
M  POLY_N_BB 3
M  POLY_CA_BB 4
M  POLY_C_BB 2
M  POLY_O_BB 5
M  POLY_IGNORE 9 10 11 12 13 14 15 16 17 18 
M  POLY_UPPER 6
M  POLY_LOWER 8
M  POLY_CHG 0
M  POLY_PROPERTIES ALPHA_AA D_AA PROTEIN AROMATIC POLYMER 
M  END

$$$$



 32 32  0  0  0  0  0  0  0  0999 V2000
   -0.6343    0.9458   -2.1259 H   0  0  0  1  0  0  0  0  0  0  0  0
   -1.6061    0.3822   -0.3333 C   0  0  0  1  0  0  0  0  0  0  0  0
    0.5820    1.4952   -0.5462 N   0  0  0  1  0  0  0  0  0  0  0  0
   -0.7390    1.3407   -1.1370 C   0  0  0  1  0  0  0  0  0  0  0  0
   -2.3272   -0.4468   -0.8636 O   0  0  0  1  0  0  0  0  0  0  0  0
   -1.5804    0.4466    1.0009 N   0  0  0  1  0  0  0  0  0  0  0  0
    0.9545    2.3965   -0.4498 H   0  0  0  1  0  0  0  0  0  0  0  0
    1.3117    0.4408   -0.1267 C   0  0  0  1  0  0  0  0  0  0  0  0
   -2.3842   -0.4322    1.8373 C   0  0  0  1  0  0  0  0  0  0  0  0
    2.7201    0.7013    0.3709 C   0  0  0  1  0  0  0  0  0  0  0  0
    0.8502   -0.6995   -0.1462 O   0  0  0  1  0  0  0  0  0  0  0  0
   -1.0002    1.1087    1.4314 H   0  0  0  1  0  0  0  0  0  0  0  0
   -2.2062   -1.4503    1.5601 H   0  0  0  1  0  0  0  0  0  0  0  0
   -3.4206   -0.2023    1.7031 H   0  0  0  1  0  0  0  0  0  0  0  0
   -2.1168   -0.2903    2.8635 H   0  0  0  1  0  0  0  0  0  0  0  0
    2.6969    1.4539    1.1311 H   0  0  0  1  0  0  0  0  0  0  0  0
    3.3295    1.0352   -0.4428 H   0  0  0  1  0  0  0  0  0  0  0  0
    3.1279   -0.2015    0.7754 H   0  0  0  1  0  0  0  0  0  0  0  0
   -6.0707    1.3197   -0.9742 F   0  0  0  1  0  0  0  0  0  0  0  0
   -5.0564    1.8694   -1.6693 C   0  0  0  1  0  0  0  0  0  0  0  0
   -5.3091    2.2979   -2.9631 C   0  0  0  1  0  0  0  0  0  0  0  0
   -4.2959    2.8630   -3.7144 C   0  0  0  1  0  0  0  0  0  0  0  0
   -3.0283    3.0061   -3.1720 C   0  0  0  1  0  0  0  0  0  0  0  0
   -2.7762    2.5789   -1.8819 C   0  0  0  1  0  0  0  0  0  0  0  0
   -3.7925    2.0122   -1.1286 C   0  0  0  1  0  0  0  0  0  0  0  0
   -1.4146    2.7034   -1.2400 C   0  0  0  1  0  0  0  0  0  0  0  0
   -4.5832    3.2609   -4.9686 F   0  0  0  1  0  0  0  0  0  0  0  0
   -6.2611    2.1942   -3.3686 H   0  0  0  1  0  0  0  0  0  0  0  0
   -2.2669    3.4350   -3.7358 H   0  0  0  1  0  0  0  0  0  0  0  0
   -3.6039    1.6943   -0.1565 H   0  0  0  1  0  0  0  0  0  0  0  0
   -0.8053    3.3531   -1.8328 H   0  0  0  1  0  0  0  0  0  0  0  0
   -1.5258    3.1149   -0.2586 H   0  0  0  1  0  0  0  0  0  0  0  0
  1  4  1  0  0  0  0
  2  4  1  0  0  0  0
  2  5  2  0  0  0  0
  2  6  1  0  0  0  0
  3  4  1  0  0  0  0
  3  7  1  0  0  0  0
  3  8  1  0  0  0  0
  4 26  1  0  0  0  0
  6  9  1  0  0  0  0
  6 12  1  0  0  0  0
  8 10  1  0  0  0  0
  8 11  2  0  0  0  0
  9 13  1  0  0  0  0
  9 14  1  0  0  0  0
  9 15  1  0  0  0  0
 10 16  1  0  0  0  0
 10 17  1  0  0  0  0
 10 18  1  0  0  0  0
 19 20  1  0  0  0  0
 20 21  4  0  0  0  0
 20 25  4  0  0  0  0
 21 22  4  0  0  0  0
 21 28  1  0  0  0  0
 22 23  4  0  0  0  0
 22 27  1  0  0  0  0
 23 24  4  0  0  0  0
 23 29  1  0  0  0  0
 24 25  4  0  0  0  0
 24 26  1  0  0  0  0
 25 30  1  0  0  0  0
 26 31  1  0  0  0  0
 26 32  1  0  0  0  0
M  END
> <BCLConfClusterSize>
1

> <ConfClashScore>
0 

> <ConfOneFourInteractionScore>
-0.960318 

> <ConfScore>
0.260937 

> <ConfScorePBest>
0.00521361 

> <ConfTolerance>
0.410206 

> <RosettaParamsInstructions>
M  ROOT 3
M  POLY_N_BB 3
M  POLY_CA_BB 4
M  POLY_C_BB 2
M  POLY_O_BB 5
M  POLY_IGNORE 9 10 11 12 13 14 15 16 17 18 
M  POLY_UPPER 6
M  POLY_LOWER 8
M  POLY_CHG 0
M  POLY_PROPERTIES ALPHA_AA D_AA PROTEIN AROMATIC POLYMER 
M  END

$$$$



 32 32  0  0  0  0  0  0  0  0999 V2000
   -0.5887    3.8268   -2.8326 H   0  0  0  1  0  0  0  0  0  0  0  0
    0.7162    4.0374   -1.2032 C   0  0  0  1  0  0  0  0  0  0  0  0
   -1.4626    5.1414   -1.5118 N   0  0  0  1  0  0  0  0  0  0  0  0
   -0.6810    3.9409   -1.7727 C   0  0  0  1  0  0  0  0  0  0  0  0
    1.5060    3.1006   -1.3078 O   0  0  0  1  0  0  0  0  0  0  0  0
    1.0665    5.1718   -0.5826 N   0  0  0  1  0  0  0  0  0  0  0  0
   -1.8804    5.2342   -0.6301 H   0  0  0  1  0  0  0  0  0  0  0  0
   -1.6461    6.1225   -2.3958 C   0  0  0  1  0  0  0  0  0  0  0  0
    2.3463    5.3252    0.0929 C   0  0  0  1  0  0  0  0  0  0  0  0
   -2.4811    7.3230   -1.9328 C   0  0  0  1  0  0  0  0  0  0  0  0
   -1.1205    6.1343   -3.5058 O   0  0  0  1  0  0  0  0  0  0  0  0
    0.4390    5.9246   -0.5836 H   0  0  0  1  0  0  0  0  0  0  0  0
    2.9438    4.4529   -0.0716 H   0  0  0  1  0  0  0  0  0  0  0  0
    2.1823    5.4521    1.1426 H   0  0  0  1  0  0  0  0  0  0  0  0
    2.8539    6.1833   -0.2957 H   0  0  0  1  0  0  0  0  0  0  0  0
   -3.4746    6.9993   -1.7020 H   0  0  0  1  0  0  0  0  0  0  0  0
   -2.5168    8.0544   -2.7129 H   0  0  0  1  0  0  0  0  0  0  0  0
   -2.0346    7.7525   -1.0605 H   0  0  0  1  0  0  0  0  0  0  0  0
   -6.0702    1.3178   -0.9688 F   0  0  0  1  0  0  0  0  0  0  0  0
   -5.0579    1.8679   -1.6663 C   0  0  0  1  0  0  0  0  0  0  0  0
   -5.3137    2.2954   -2.9599 C   0  0  0  1  0  0  0  0  0  0  0  0
   -4.3026    2.8609   -3.7137 C   0  0  0  1  0  0  0  0  0  0  0  0
   -3.0340    3.0053   -3.1741 C   0  0  0  1  0  0  0  0  0  0  0  0
   -2.7787    2.5791   -1.8843 C   0  0  0  1  0  0  0  0  0  0  0  0
   -3.7930    2.0120   -1.1285 C   0  0  0  1  0  0  0  0  0  0  0  0
   -1.4159    2.7050   -1.2454 C   0  0  0  1  0  0  0  0  0  0  0  0
   -4.5499    3.2715   -4.9723 F   0  0  0  1  0  0  0  0  0  0  0  0
   -6.2666    2.1907   -3.3633 H   0  0  0  1  0  0  0  0  0  0  0  0
   -2.2741    3.4345   -3.7398 H   0  0  0  1  0  0  0  0  0  0  0  0
   -3.6020    1.6949   -0.1566 H   0  0  0  1  0  0  0  0  0  0  0  0
   -1.5321    2.7918   -0.1852 H   0  0  0  1  0  0  0  0  0  0  0  0
   -0.8404    1.8317   -1.4713 H   0  0  0  1  0  0  0  0  0  0  0  0
  1  4  1  0  0  0  0
  2  4  1  0  0  0  0
  2  5  2  0  0  0  0
  2  6  1  0  0  0  0
  3  4  1  0  0  0  0
  3  7  1  0  0  0  0
  3  8  1  0  0  0  0
  4 26  1  0  0  0  0
  6  9  1  0  0  0  0
  6 12  1  0  0  0  0
  8 10  1  0  0  0  0
  8 11  2  0  0  0  0
  9 13  1  0  0  0  0
  9 14  1  0  0  0  0
  9 15  1  0  0  0  0
 10 16  1  0  0  0  0
 10 17  1  0  0  0  0
 10 18  1  0  0  0  0
 19 20  1  0  0  0  0
 20 21  4  0  0  0  0
 20 25  4  0  0  0  0
 21 22  4  0  0  0  0
 21 28  1  0  0  0  0
 22 23  4  0  0  0  0
 22 27  1  0  0  0  0
 23 24  4  0  0  0  0
 23 29  1  0  0  0  0
 24 25  4  0  0  0  0
 24 26  1  0  0  0  0
 25 30  1  0  0  0  0
 26 31  1  0  0  0  0
 26 32  1  0  0  0  0
M  END
> <BCLConfClusterSize>
1

> <ConfClashScore>
0 

> <ConfOneFourInteractionScore>
-0.934209 

> <ConfScore>
0.263633 

> <ConfScorePBest>
0.00518512 

> <ConfTolerance>
0.48578 

> <RosettaParamsInstructions>
M  ROOT 3
M  POLY_N_BB 3
M  POLY_CA_BB 4
M  POLY_C_BB 2
M  POLY_O_BB 5
M  POLY_IGNORE 9 10 11 12 13 14 15 16 17 18 
M  POLY_UPPER 6
M  POLY_LOWER 8
M  POLY_CHG 0
M  POLY_PROPERTIES ALPHA_AA D_AA PROTEIN AROMATIC POLYMER 
M  END

$$$$



 32 32  0  0  0  0  0  0  0  0999 V2000
   -0.2299    3.9197    0.0005 H   0  0  0  1  0  0  0  0  0  0  0  0
   -2.2299    4.3264    0.5046 C   0  0  0  1  0  0  0  0  0  0  0  0
   -1.0099    5.0997   -1.4941 N   0  0  0  1  0  0  0  0  0  0  0  0
   -1.1563    4.0244   -0.5245 C   0  0  0  1  0  0  0  0  0  0  0  0
   -2.0963    4.1446    1.7000 O   0  0  0  1  0  0  0  0  0  0  0  0
   -3.3734    4.8197    0.0268 N   0  0  0  1  0  0  0  0  0  0  0  0
   -1.3096    4.9502   -2.4151 H   0  0  0  1  0  0  0  0  0  0  0  0
   -0.4812    6.2838   -1.1723 C   0  0  0  1  0  0  0  0  0  0  0  0
   -4.5140    5.2157    0.8393 C   0  0  0  1  0  0  0  0  0  0  0  0
   -0.4705    7.3273   -2.2820 C   0  0  0  1  0  0  0  0  0  0  0  0
   -0.0272    6.5337   -0.0565 O   0  0  0  1  0  0  0  0  0  0  0  0
   -3.4514    4.9232   -0.9446 H   0  0  0  1  0  0  0  0  0  0  0  0
   -4.6130    4.5449    1.6670 H   0  0  0  1  0  0  0  0  0  0  0  0
   -5.4034    5.1827    0.2454 H   0  0  0  1  0  0  0  0  0  0  0  0
   -4.3641    6.2108    1.2030 H   0  0  0  1  0  0  0  0  0  0  0  0
   -1.3648    7.2400   -2.8630 H   0  0  0  1  0  0  0  0  0  0  0  0
    0.3803    7.1696   -2.9113 H   0  0  0  1  0  0  0  0  0  0  0  0
   -0.4197    8.3054   -1.8510 H   0  0  0  1  0  0  0  0  0  0  0  0
   -6.0258    1.3095   -0.9151 F   0  0  0  1  0  0  0  0  0  0  0  0
   -5.0668    1.8696   -1.6772 C   0  0  0  1  0  0  0  0  0  0  0  0
   -5.3164    2.2991   -2.9713 C   0  0  0  1  0  0  0  0  0  0  0  0
   -4.3011    2.8638   -3.7201 C   0  0  0  1  0  0  0  0  0  0  0  0
   -3.0346    3.0055   -3.1749 C   0  0  0  1  0  0  0  0  0  0  0  0
   -2.7855    2.5773   -1.8846 C   0  0  0  1  0  0  0  0  0  0  0  0
   -3.8039    2.0110   -1.1337 C   0  0  0  1  0  0  0  0  0  0  0  0
   -1.4252    2.7002   -1.2396 C   0  0  0  1  0  0  0  0  0  0  0  0
   -4.5424    3.2763   -4.9793 F   0  0  0  1  0  0  0  0  0  0  0  0
   -6.2676    2.1964   -3.3789 H   0  0  0  1  0  0  0  0  0  0  0  0
   -2.2716    3.4340   -3.7369 H   0  0  0  1  0  0  0  0  0  0  0  0
   -3.6176    1.6924   -0.1614 H   0  0  0  1  0  0  0  0  0  0  0  0
   -1.3274    1.9121   -0.5226 H   0  0  0  1  0  0  0  0  0  0  0  0
   -0.6857    2.5817   -2.0038 H   0  0  0  1  0  0  0  0  0  0  0  0
  1  4  1  0  0  0  0
  2  4  1  0  0  0  0
  2  5  2  0  0  0  0
  2  6  1  0  0  0  0
  3  4  1  0  0  0  0
  3  7  1  0  0  0  0
  3  8  1  0  0  0  0
  4 26  1  0  0  0  0
  6  9  1  0  0  0  0
  6 12  1  0  0  0  0
  8 10  1  0  0  0  0
  8 11  2  0  0  0  0
  9 13  1  0  0  0  0
  9 14  1  0  0  0  0
  9 15  1  0  0  0  0
 10 16  1  0  0  0  0
 10 17  1  0  0  0  0
 10 18  1  0  0  0  0
 19 20  1  0  0  0  0
 20 21  4  0  0  0  0
 20 25  4  0  0  0  0
 21 22  4  0  0  0  0
 21 28  1  0  0  0  0
 22 23  4  0  0  0  0
 22 27  1  0  0  0  0
 23 24  4  0  0  0  0
 23 29  1  0  0  0  0
 24 25  4  0  0  0  0
 24 26  1  0  0  0  0
 25 30  1  0  0  0  0
 26 31  1  0  0  0  0
 26 32  1  0  0  0  0
M  END
> <BCLConfClusterSize>
1

> <ConfClashScore>
0 

> <ConfOneFourInteractionScore>
-0.957074 

> <ConfScore>
0.263712 

> <ConfScorePBest>
0.00515664 

> <ConfTolerance>
0.478272 

> <RosettaParamsInstructions>
M  ROOT 3
M  POLY_N_BB 3
M  POLY_CA_BB 4
M  POLY_C_BB 2
M  POLY_O_BB 5
M  POLY_IGNORE 9 10 11 12 13 14 15 16 17 18 
M  POLY_UPPER 6
M  POLY_LOWER 8
M  POLY_CHG 0
M  POLY_PROPERTIES ALPHA_AA D_AA PROTEIN AROMATIC POLYMER 
M  END

$$$$



 32 32  0  0  0  0  0  0  0  0999 V2000
   -0.3761    3.6396    0.3088 H   0  0  0  1  0  0  0  0  0  0  0  0
   -2.1695    2.8958    1.1037 C   0  0  0  1  0  0  0  0  0  0  0  0
   -1.8849    4.9068   -0.2915 N   0  0  0  1  0  0  0  0  0  0  0  0
   -1.3944    3.5622   -0.0104 C   0  0  0  1  0  0  0  0  0  0  0  0
   -3.3250    3.2329    1.3578 O   0  0  0  1  0  0  0  0  0  0  0  0
   -1.5594    1.9273    1.8052 N   0  0  0  1  0  0  0  0  0  0  0  0
   -2.3590    5.0485   -1.1374 H   0  0  0  1  0  0  0  0  0  0  0  0
   -1.7365    5.9597    0.5174 C   0  0  0  1  0  0  0  0  0  0  0  0
   -2.1965    1.2666    2.9346 C   0  0  0  1  0  0  0  0  0  0  0  0
   -2.2820    7.3015    0.0125 C   0  0  0  1  0  0  0  0  0  0  0  0
   -1.2638    5.8774    1.6503 O   0  0  0  1  0  0  0  0  0  0  0  0
   -0.6536    1.6559    1.5479 H   0  0  0  1  0  0  0  0  0  0  0  0
   -3.1689    0.9254    2.6467 H   0  0  0  1  0  0  0  0  0  0  0  0
   -2.2871    1.9572    3.7468 H   0  0  0  1  0  0  0  0  0  0  0  0
   -1.6018    0.4313    3.2406 H   0  0  0  1  0  0  0  0  0  0  0  0
   -3.0755    7.1254   -0.6833 H   0  0  0  1  0  0  0  0  0  0  0  0
   -1.4980    7.8457   -0.4713 H   0  0  0  1  0  0  0  0  0  0  0  0
   -2.6531    7.8695    0.8400 H   0  0  0  1  0  0  0  0  0  0  0  0
   -6.0335    1.3084   -0.9179 F   0  0  0  1  0  0  0  0  0  0  0  0
   -5.0716    1.8680   -1.6765 C   0  0  0  1  0  0  0  0  0  0  0  0
   -5.3166    2.2989   -2.9710 C   0  0  0  1  0  0  0  0  0  0  0  0
   -4.2984    2.8630   -3.7161 C   0  0  0  1  0  0  0  0  0  0  0  0
   -3.0333    3.0028   -3.1670 C   0  0  0  1  0  0  0  0  0  0  0  0
   -2.7888    2.5732   -1.8762 C   0  0  0  1  0  0  0  0  0  0  0  0
   -3.8102    2.0074   -1.1290 C   0  0  0  1  0  0  0  0  0  0  0  0
   -1.4091    2.7199   -1.2793 C   0  0  0  1  0  0  0  0  0  0  0  0
   -4.5352    3.2769   -4.9757 F   0  0  0  1  0  0  0  0  0  0  0  0
   -6.2667    2.1977   -3.3816 H   0  0  0  1  0  0  0  0  0  0  0  0
   -2.2681    3.4309   -3.7262 H   0  0  0  1  0  0  0  0  0  0  0  0
   -3.6273    1.6879   -0.1564 H   0  0  0  1  0  0  0  0  0  0  0  0
   -1.0337    1.7455   -1.0456 H   0  0  0  1  0  0  0  0  0  0  0  0
   -0.7723    3.1838   -2.0034 H   0  0  0  1  0  0  0  0  0  0  0  0
  1  4  1  0  0  0  0
  2  4  1  0  0  0  0
  2  5  2  0  0  0  0
  2  6  1  0  0  0  0
  3  4  1  0  0  0  0
  3  7  1  0  0  0  0
  3  8  1  0  0  0  0
  4 26  1  0  0  0  0
  6  9  1  0  0  0  0
  6 12  1  0  0  0  0
  8 10  1  0  0  0  0
  8 11  2  0  0  0  0
  9 13  1  0  0  0  0
  9 14  1  0  0  0  0
  9 15  1  0  0  0  0
 10 16  1  0  0  0  0
 10 17  1  0  0  0  0
 10 18  1  0  0  0  0
 19 20  1  0  0  0  0
 20 21  4  0  0  0  0
 20 25  4  0  0  0  0
 21 22  4  0  0  0  0
 21 28  1  0  0  0  0
 22 23  4  0  0  0  0
 22 27  1  0  0  0  0
 23 24  4  0  0  0  0
 23 29  1  0  0  0  0
 24 25  4  0  0  0  0
 24 26  1  0  0  0  0
 25 30  1  0  0  0  0
 26 31  1  0  0  0  0
 26 32  1  0  0  0  0
M  END
> <BCLConfClusterSize>
1

> <ConfClashScore>
0 

> <ConfOneFourInteractionScore>
-0.976093 

> <ConfScore>
0.264936 

> <ConfScorePBest>
0.00512816 

> <ConfTolerance>
0.554139 

> <RosettaParamsInstructions>
M  ROOT 3
M  POLY_N_BB 3
M  POLY_CA_BB 4
M  POLY_C_BB 2
M  POLY_O_BB 5
M  POLY_IGNORE 9 10 11 12 13 14 15 16 17 18 
M  POLY_UPPER 6
M  POLY_LOWER 8
M  POLY_CHG 0
M  POLY_PROPERTIES ALPHA_AA D_AA PROTEIN AROMATIC POLYMER 
M  END

$$$$



 32 32  0  0  0  0  0  0  0  0999 V2000
    0.2618    1.5361   -0.6642 H   0  0  0  1  0  0  0  0  0  0  0  0
   -0.1616    1.0307   -2.6893 C   0  0  0  1  0  0  0  0  0  0  0  0
   -1.4376    0.3245   -0.7392 N   0  0  0  1  0  0  0  0  0  0  0  0
   -0.6061    1.4110   -1.2774 C   0  0  0  1  0  0  0  0  0  0  0  0
   -0.1175   -0.1123   -3.1035 O   0  0  0  1  0  0  0  0  0  0  0  0
    0.1913    2.0452   -3.4837 N   0  0  0  1  0  0  0  0  0  0  0  0
   -1.6626   -0.4446   -1.3035 H   0  0  0  1  0  0  0  0  0  0  0  0
   -1.8916    0.3838    0.5299 C   0  0  0  1  0  0  0  0  0  0  0  0
    0.6612    1.8391   -4.8456 C   0  0  0  1  0  0  0  0  0  0  0  0
   -2.7330   -0.7696    1.0407 C   0  0  0  1  0  0  0  0  0  0  0  0
   -1.6321    1.3444    1.2534 O   0  0  0  1  0  0  0  0  0  0  0  0
    0.1317    2.9600   -3.1373 H   0  0  0  1  0  0  0  0  0  0  0  0
    0.1604    0.9953   -5.2723 H   0  0  0  1  0  0  0  0  0  0  0  0
    1.7160    1.6599   -4.8354 H   0  0  0  1  0  0  0  0  0  0  0  0
    0.4526    2.7106   -5.4303 H   0  0  0  1  0  0  0  0  0  0  0  0
   -2.4879   -0.9648    2.0638 H   0  0  0  1  0  0  0  0  0  0  0  0
   -2.5351   -1.6423    0.4540 H   0  0  0  1  0  0  0  0  0  0  0  0
   -3.7696   -0.5157    0.9647 H   0  0  0  1  0  0  0  0  0  0  0  0
   -6.0566    1.3143   -0.9498 F   0  0  0  1  0  0  0  0  0  0  0  0
   -5.0656    1.8687   -1.6740 C   0  0  0  1  0  0  0  0  0  0  0  0
   -5.3106    2.2996   -2.9685 C   0  0  0  1  0  0  0  0  0  0  0  0
   -4.2924    2.8637   -3.7136 C   0  0  0  1  0  0  0  0  0  0  0  0
   -3.0273    3.0035   -3.1645 C   0  0  0  1  0  0  0  0  0  0  0  0
   -2.7828    2.5739   -1.8737 C   0  0  0  1  0  0  0  0  0  0  0  0
   -3.8042    2.0081   -1.1265 C   0  0  0  1  0  0  0  0  0  0  0  0
   -1.4031    2.7206   -1.2768 C   0  0  0  1  0  0  0  0  0  0  0  0
   -4.5723    3.2640   -4.9688 F   0  0  0  1  0  0  0  0  0  0  0  0
   -6.2607    2.1984   -3.3791 H   0  0  0  1  0  0  0  0  0  0  0  0
   -2.2621    3.4316   -3.7237 H   0  0  0  1  0  0  0  0  0  0  0  0
   -3.6213    1.6886   -0.1539 H   0  0  0  1  0  0  0  0  0  0  0  0
   -0.8621    3.4488   -1.8443 H   0  0  0  1  0  0  0  0  0  0  0  0
   -1.5033    3.0578   -0.2663 H   0  0  0  1  0  0  0  0  0  0  0  0
  1  4  1  0  0  0  0
  2  4  1  0  0  0  0
  2  5  2  0  0  0  0
  2  6  1  0  0  0  0
  3  4  1  0  0  0  0
  3  7  1  0  0  0  0
  3  8  1  0  0  0  0
  4 26  1  0  0  0  0
  6  9  1  0  0  0  0
  6 12  1  0  0  0  0
  8 10  1  0  0  0  0
  8 11  2  0  0  0  0
  9 13  1  0  0  0  0
  9 14  1  0  0  0  0
  9 15  1  0  0  0  0
 10 16  1  0  0  0  0
 10 17  1  0  0  0  0
 10 18  1  0  0  0  0
 19 20  1  0  0  0  0
 20 21  4  0  0  0  0
 20 25  4  0  0  0  0
 21 22  4  0  0  0  0
 21 28  1  0  0  0  0
 22 23  4  0  0  0  0
 22 27  1  0  0  0  0
 23 24  4  0  0  0  0
 23 29  1  0  0  0  0
 24 25  4  0  0  0  0
 24 26  1  0  0  0  0
 25 30  1  0  0  0  0
 26 31  1  0  0  0  0
 26 32  1  0  0  0  0
M  END
> <BCLConfClusterSize>
1

> <ConfClashScore>
0 

> <ConfOneFourInteractionScore>
-0.929354 

> <ConfScore>
0.269204 

> <ConfScorePBest>
0.00509968 

> <ConfTolerance>
0.435881 

> <RosettaParamsInstructions>
M  ROOT 3
M  POLY_N_BB 3
M  POLY_CA_BB 4
M  POLY_C_BB 2
M  POLY_O_BB 5
M  POLY_IGNORE 9 10 11 12 13 14 15 16 17 18 
M  POLY_UPPER 6
M  POLY_LOWER 8
M  POLY_CHG 0
M  POLY_PROPERTIES ALPHA_AA D_AA PROTEIN AROMATIC POLYMER 
M  END

$$$$



 32 32  0  0  0  0  0  0  0  0999 V2000
   -0.6054    0.9119   -2.0292 H   0  0  0  1  0  0  0  0  0  0  0  0
    1.0691    2.0952   -1.5635 C   0  0  0  1  0  0  0  0  0  0  0  0
   -0.3670    2.3298   -3.5170 N   0  0  0  1  0  0  0  0  0  0  0  0
   -0.3424    1.9468   -2.0982 C   0  0  0  1  0  0  0  0  0  0  0  0
    1.3639    1.8155   -0.4158 O   0  0  0  1  0  0  0  0  0  0  0  0
    2.0257    2.5480   -2.3754 N   0  0  0  1  0  0  0  0  0  0  0  0
   -0.5721    3.2640   -3.7306 H   0  0  0  1  0  0  0  0  0  0  0  0
   -0.1299    1.4968   -4.5417 C   0  0  0  1  0  0  0  0  0  0  0  0
    3.3788    2.8875   -1.9608 C   0  0  0  1  0  0  0  0  0  0  0  0
   -0.5650    2.0491   -5.8930 C   0  0  0  1  0  0  0  0  0  0  0  0
    0.3835    0.3951   -4.4365 O   0  0  0  1  0  0  0  0  0  0  0  0
    1.8004    2.6606   -3.3225 H   0  0  0  1  0  0  0  0  0  0  0  0
    4.0628    2.6567   -2.7506 H   0  0  0  1  0  0  0  0  0  0  0  0
    3.6368    2.3227   -1.0894 H   0  0  0  1  0  0  0  0  0  0  0  0
    3.4315    3.9326   -1.7376 H   0  0  0  1  0  0  0  0  0  0  0  0
    0.0792    2.8562   -6.1732 H   0  0  0  1  0  0  0  0  0  0  0  0
   -1.5722    2.4040   -5.8255 H   0  0  0  1  0  0  0  0  0  0  0  0
   -0.5077    1.2751   -6.6296 H   0  0  0  1  0  0  0  0  0  0  0  0
   -6.0406    1.3075   -0.9204 F   0  0  0  1  0  0  0  0  0  0  0  0
   -5.0758    1.8666   -1.6758 C   0  0  0  1  0  0  0  0  0  0  0  0
   -5.3166    2.2988   -2.9707 C   0  0  0  1  0  0  0  0  0  0  0  0
   -4.2956    2.8623   -3.7124 C   0  0  0  1  0  0  0  0  0  0  0  0
   -3.0320    3.0002   -3.1595 C   0  0  0  1  0  0  0  0  0  0  0  0
   -2.7917    2.5694   -1.8684 C   0  0  0  1  0  0  0  0  0  0  0  0
   -3.8158    2.0042   -1.1246 C   0  0  0  1  0  0  0  0  0  0  0  0
   -1.3956    2.7381   -1.3170 C   0  0  0  1  0  0  0  0  0  0  0  0
   -4.5284    3.2774   -4.9724 F   0  0  0  1  0  0  0  0  0  0  0  0
   -6.2657    2.1990   -3.3841 H   0  0  0  1  0  0  0  0  0  0  0  0
   -2.2647    3.4280   -3.7162 H   0  0  0  1  0  0  0  0  0  0  0  0
   -3.6361    1.6836   -0.1516 H   0  0  0  1  0  0  0  0  0  0  0  0
   -1.1381    3.7760   -1.3535 H   0  0  0  1  0  0  0  0  0  0  0  0
   -1.3881    2.4037   -0.3006 H   0  0  0  1  0  0  0  0  0  0  0  0
  1  4  1  0  0  0  0
  2  4  1  0  0  0  0
  2  5  2  0  0  0  0
  2  6  1  0  0  0  0
  3  4  1  0  0  0  0
  3  7  1  0  0  0  0
  3  8  1  0  0  0  0
  4 26  1  0  0  0  0
  6  9  1  0  0  0  0
  6 12  1  0  0  0  0
  8 10  1  0  0  0  0
  8 11  2  0  0  0  0
  9 13  1  0  0  0  0
  9 14  1  0  0  0  0
  9 15  1  0  0  0  0
 10 16  1  0  0  0  0
 10 17  1  0  0  0  0
 10 18  1  0  0  0  0
 19 20  1  0  0  0  0
 20 21  4  0  0  0  0
 20 25  4  0  0  0  0
 21 22  4  0  0  0  0
 21 28  1  0  0  0  0
 22 23  4  0  0  0  0
 22 27  1  0  0  0  0
 23 24  4  0  0  0  0
 23 29  1  0  0  0  0
 24 25  4  0  0  0  0
 24 26  1  0  0  0  0
 25 30  1  0  0  0  0
 26 31  1  0  0  0  0
 26 32  1  0  0  0  0
M  END
> <BCLConfClusterSize>
1

> <ConfClashScore>
0 

> <ConfOneFourInteractionScore>
-0.937775 

> <ConfScore>
0.275087 

> <ConfScorePBest>
0.0050712 

> <ConfTolerance>
0.489171 

> <RosettaParamsInstructions>
M  ROOT 3
M  POLY_N_BB 3
M  POLY_CA_BB 4
M  POLY_C_BB 2
M  POLY_O_BB 5
M  POLY_IGNORE 9 10 11 12 13 14 15 16 17 18 
M  POLY_UPPER 6
M  POLY_LOWER 8
M  POLY_CHG 0
M  POLY_PROPERTIES ALPHA_AA D_AA PROTEIN AROMATIC POLYMER 
M  END

$$$$



 32 32  0  0  0  0  0  0  0  0999 V2000
    0.1767    1.5037   -0.6148 H   0  0  0  1  0  0  0  0  0  0  0  0
   -0.9227    0.3616   -1.9951 C   0  0  0  1  0  0  0  0  0  0  0  0
   -1.5429    0.8883    0.3328 N   0  0  0  1  0  0  0  0  0  0  0  0
   -0.8559    1.3647   -0.8584 C   0  0  0  1  0  0  0  0  0  0  0  0
   -0.1651    0.4504   -2.9604 O   0  0  0  1  0  0  0  0  0  0  0  0
   -1.8257   -0.6170   -1.9156 N   0  0  0  1  0  0  0  0  0  0  0  0
   -2.1627    1.4910    0.7942 H   0  0  0  1  0  0  0  0  0  0  0  0
   -1.3566   -0.3514    0.8228 C   0  0  0  1  0  0  0  0  0  0  0  0
   -1.9615   -1.7051   -2.8724 C   0  0  0  1  0  0  0  0  0  0  0  0
   -1.9604   -0.5602    2.1979 C   0  0  0  1  0  0  0  0  0  0  0  0
   -0.7593   -1.2515    0.2385 O   0  0  0  1  0  0  0  0  0  0  0  0
   -2.4444   -0.6020   -1.1557 H   0  0  0  1  0  0  0  0  0  0  0  0
   -0.9952   -2.1063   -3.0965 H   0  0  0  1  0  0  0  0  0  0  0  0
   -2.4111   -1.3360   -3.7705 H   0  0  0  1  0  0  0  0  0  0  0  0
   -2.5780   -2.4729   -2.4538 H   0  0  0  1  0  0  0  0  0  0  0  0
   -3.0278   -0.5553    2.1238 H   0  0  0  1  0  0  0  0  0  0  0  0
   -1.6447    0.2279    2.8492 H   0  0  0  1  0  0  0  0  0  0  0  0
   -1.6347   -1.5005    2.5911 H   0  0  0  1  0  0  0  0  0  0  0  0
   -6.0335    1.3084   -0.9179 F   0  0  0  1  0  0  0  0  0  0  0  0
   -5.0716    1.8680   -1.6765 C   0  0  0  1  0  0  0  0  0  0  0  0
   -5.3166    2.2989   -2.9710 C   0  0  0  1  0  0  0  0  0  0  0  0
   -4.2984    2.8630   -3.7161 C   0  0  0  1  0  0  0  0  0  0  0  0
   -3.0333    3.0028   -3.1670 C   0  0  0  1  0  0  0  0  0  0  0  0
   -2.7888    2.5732   -1.8762 C   0  0  0  1  0  0  0  0  0  0  0  0
   -3.8102    2.0074   -1.1290 C   0  0  0  1  0  0  0  0  0  0  0  0
   -1.4091    2.7199   -1.2793 C   0  0  0  1  0  0  0  0  0  0  0  0
   -4.5352    3.2769   -4.9757 F   0  0  0  1  0  0  0  0  0  0  0  0
   -6.2667    2.1977   -3.3816 H   0  0  0  1  0  0  0  0  0  0  0  0
   -2.2681    3.4309   -3.7262 H   0  0  0  1  0  0  0  0  0  0  0  0
   -3.6273    1.6879   -0.1564 H   0  0  0  1  0  0  0  0  0  0  0  0
   -0.7563    3.1545   -2.0072 H   0  0  0  1  0  0  0  0  0  0  0  0
   -1.4637    3.3581   -0.4222 H   0  0  0  1  0  0  0  0  0  0  0  0
  1  4  1  0  0  0  0
  2  4  1  0  0  0  0
  2  5  2  0  0  0  0
  2  6  1  0  0  0  0
  3  4  1  0  0  0  0
  3  7  1  0  0  0  0
  3  8  1  0  0  0  0
  4 26  1  0  0  0  0
  6  9  1  0  0  0  0
  6 12  1  0  0  0  0
  8 10  1  0  0  0  0
  8 11  2  0  0  0  0
  9 13  1  0  0  0  0
  9 14  1  0  0  0  0
  9 15  1  0  0  0  0
 10 16  1  0  0  0  0
 10 17  1  0  0  0  0
 10 18  1  0  0  0  0
 19 20  1  0  0  0  0
 20 21  4  0  0  0  0
 20 25  4  0  0  0  0
 21 22  4  0  0  0  0
 21 28  1  0  0  0  0
 22 23  4  0  0  0  0
 22 27  1  0  0  0  0
 23 24  4  0  0  0  0
 23 29  1  0  0  0  0
 24 25  4  0  0  0  0
 24 26  1  0  0  0  0
 25 30  1  0  0  0  0
 26 31  1  0  0  0  0
 26 32  1  0  0  0  0
M  END
> <BCLConfClusterSize>
1

> <ConfClashScore>
0 

> <ConfOneFourInteractionScore>
-0.957074 

> <ConfScore>
0.275641 

> <ConfScorePBest>
0.00504272 

> <ConfTolerance>
0.323114 

> <RosettaParamsInstructions>
M  ROOT 3
M  POLY_N_BB 3
M  POLY_CA_BB 4
M  POLY_C_BB 2
M  POLY_O_BB 5
M  POLY_IGNORE 9 10 11 12 13 14 15 16 17 18 
M  POLY_UPPER 6
M  POLY_LOWER 8
M  POLY_CHG 0
M  POLY_PROPERTIES ALPHA_AA D_AA PROTEIN AROMATIC POLYMER 
M  END

$$$$



 32 32  0  0  0  0  0  0  0  0999 V2000
   -0.1162    4.1056   -0.3777 H   0  0  0  1  0  0  0  0  0  0  0  0
   -2.0386    4.6536    0.2415 C   0  0  0  1  0  0  0  0  0  0  0  0
   -1.0234    5.0701   -1.9516 N   0  0  0  1  0  0  0  0  0  0  0  0
   -1.0891    4.1373   -0.8220 C   0  0  0  1  0  0  0  0  0  0  0  0
   -3.1295    4.1196    0.4371 O   0  0  0  1  0  0  0  0  0  0  0  0
   -1.6091    5.7163    0.9405 N   0  0  0  1  0  0  0  0  0  0  0  0
   -1.4025    4.7748   -2.8057 H   0  0  0  1  0  0  0  0  0  0  0  0
   -0.4866    6.2903   -1.9041 C   0  0  0  1  0  0  0  0  0  0  0  0
   -2.4454    6.3906    1.9221 C   0  0  0  1  0  0  0  0  0  0  0  0
   -0.6491    7.1306   -3.1558 C   0  0  0  1  0  0  0  0  0  0  0  0
    0.1011    6.7198   -0.9251 O   0  0  0  1  0  0  0  0  0  0  0  0
   -0.7008    6.0494    0.7842 H   0  0  0  1  0  0  0  0  0  0  0  0
   -2.4568    7.4413    1.7201 H   0  0  0  1  0  0  0  0  0  0  0  0
   -2.0521    6.2204    2.9025 H   0  0  0  1  0  0  0  0  0  0  0  0
   -3.4423    6.0060    1.8654 H   0  0  0  1  0  0  0  0  0  0  0  0
   -0.2013    6.6252   -3.9858 H   0  0  0  1  0  0  0  0  0  0  0  0
   -0.1704    8.0770   -3.0143 H   0  0  0  1  0  0  0  0  0  0  0  0
   -1.6902    7.2824   -3.3504 H   0  0  0  1  0  0  0  0  0  0  0  0
   -6.0480    1.3115   -0.9364 F   0  0  0  1  0  0  0  0  0  0  0  0
   -5.0639    1.8673   -1.6690 C   0  0  0  1  0  0  0  0  0  0  0  0
   -5.3197    2.2948   -2.9625 C   0  0  0  1  0  0  0  0  0  0  0  0
   -4.3086    2.8603   -3.7163 C   0  0  0  1  0  0  0  0  0  0  0  0
   -3.0399    3.0047   -3.1767 C   0  0  0  1  0  0  0  0  0  0  0  0
   -2.7847    2.5785   -1.8870 C   0  0  0  1  0  0  0  0  0  0  0  0
   -3.7989    2.0113   -1.1311 C   0  0  0  1  0  0  0  0  0  0  0  0
   -1.4218    2.7044   -1.2480 C   0  0  0  1  0  0  0  0  0  0  0  0
   -4.5127    3.2841   -4.9783 F   0  0  0  1  0  0  0  0  0  0  0  0
   -6.2725    2.1901   -3.3659 H   0  0  0  1  0  0  0  0  0  0  0  0
   -2.2801    3.4338   -3.7425 H   0  0  0  1  0  0  0  0  0  0  0  0
   -3.6079    1.6943   -0.1592 H   0  0  0  1  0  0  0  0  0  0  0  0
   -1.3922    2.0761   -0.3824 H   0  0  0  1  0  0  0  0  0  0  0  0
   -0.6844    2.3783   -1.9515 H   0  0  0  1  0  0  0  0  0  0  0  0
  1  4  1  0  0  0  0
  2  4  1  0  0  0  0
  2  5  2  0  0  0  0
  2  6  1  0  0  0  0
  3  4  1  0  0  0  0
  3  7  1  0  0  0  0
  3  8  1  0  0  0  0
  4 26  1  0  0  0  0
  6  9  1  0  0  0  0
  6 12  1  0  0  0  0
  8 10  1  0  0  0  0
  8 11  2  0  0  0  0
  9 13  1  0  0  0  0
  9 14  1  0  0  0  0
  9 15  1  0  0  0  0
 10 16  1  0  0  0  0
 10 17  1  0  0  0  0
 10 18  1  0  0  0  0
 19 20  1  0  0  0  0
 20 21  4  0  0  0  0
 20 25  4  0  0  0  0
 21 22  4  0  0  0  0
 21 28  1  0  0  0  0
 22 23  4  0  0  0  0
 22 27  1  0  0  0  0
 23 24  4  0  0  0  0
 23 29  1  0  0  0  0
 24 25  4  0  0  0  0
 24 26  1  0  0  0  0
 25 30  1  0  0  0  0
 26 31  1  0  0  0  0
 26 32  1  0  0  0  0
M  END
> <BCLConfClusterSize>
1

> <ConfClashScore>
0 

> <ConfOneFourInteractionScore>
-0.969421 

> <ConfScore>
0.275772 

> <ConfScorePBest>
0.00501424 

> <ConfTolerance>
0.439472 

> <RosettaParamsInstructions>
M  ROOT 3
M  POLY_N_BB 3
M  POLY_CA_BB 4
M  POLY_C_BB 2
M  POLY_O_BB 5
M  POLY_IGNORE 9 10 11 12 13 14 15 16 17 18 
M  POLY_UPPER 6
M  POLY_LOWER 8
M  POLY_CHG 0
M  POLY_PROPERTIES ALPHA_AA D_AA PROTEIN AROMATIC POLYMER 
M  END

$$$$



 32 32  0  0  0  0  0  0  0  0999 V2000
   -1.2166    4.7816   -1.4544 H   0  0  0  1  0  0  0  0  0  0  0  0
    0.4703    4.1491   -0.3716 C   0  0  0  1  0  0  0  0  0  0  0  0
   -1.8121    4.2947    0.4659 N   0  0  0  1  0  0  0  0  0  0  0  0
   -0.9983    4.0266   -0.7283 C   0  0  0  1  0  0  0  0  0  0  0  0
    1.0262    3.3133    0.3362 O   0  0  0  1  0  0  0  0  0  0  0  0
    1.1060    5.2181   -0.8769 N   0  0  0  1  0  0  0  0  0  0  0  0
   -2.2303    3.5281    0.9107 H   0  0  0  1  0  0  0  0  0  0  0  0
   -2.0244    5.5029    0.9898 C   0  0  0  1  0  0  0  0  0  0  0  0
    2.5224    5.4685   -0.6352 C   0  0  0  1  0  0  0  0  0  0  0  0
   -2.9816    5.5524    2.1648 C   0  0  0  1  0  0  0  0  0  0  0  0
   -1.4879    6.5213    0.5614 O   0  0  0  1  0  0  0  0  0  0  0  0
    0.6008    5.8522   -1.4274 H   0  0  0  1  0  0  0  0  0  0  0  0
    3.0737    4.5615   -0.7707 H   0  0  0  1  0  0  0  0  0  0  0  0
    2.6562    5.8207    0.3663 H   0  0  0  1  0  0  0  0  0  0  0  0
    2.8764    6.2070   -1.3238 H   0  0  0  1  0  0  0  0  0  0  0  0
   -2.8471    4.6817    2.7720 H   0  0  0  1  0  0  0  0  0  0  0  0
   -3.9882    5.5830    1.8034 H   0  0  0  1  0  0  0  0  0  0  0  0
   -2.7848    6.4276    2.7482 H   0  0  0  1  0  0  0  0  0  0  0  0
   -6.0591    1.3040   -0.9432 F   0  0  0  1  0  0  0  0  0  0  0  0
   -5.0718    1.8653   -1.6674 C   0  0  0  1  0  0  0  0  0  0  0  0
   -5.3180    2.2885   -2.9642 C   0  0  0  1  0  0  0  0  0  0  0  0
   -4.3036    2.8596   -3.7092 C   0  0  0  1  0  0  0  0  0  0  0  0
   -3.0414    3.0141   -3.1577 C   0  0  0  1  0  0  0  0  0  0  0  0
   -2.7957    2.5922   -1.8646 C   0  0  0  1  0  0  0  0  0  0  0  0
   -3.8132    2.0194   -1.1175 C   0  0  0  1  0  0  0  0  0  0  0  0
   -1.3828    2.6835   -1.3384 C   0  0  0  1  0  0  0  0  0  0  0  0
   -4.4984    3.2795   -4.9741 F   0  0  0  1  0  0  0  0  0  0  0  0
   -6.2661    2.1762   -3.3766 H   0  0  0  1  0  0  0  0  0  0  0  0
   -2.2791    3.4475   -3.7168 H   0  0  0  1  0  0  0  0  0  0  0  0
   -3.6295    1.7056   -0.1431 H   0  0  0  1  0  0  0  0  0  0  0  0
   -1.2616    1.9324   -0.5860 H   0  0  0  1  0  0  0  0  0  0  0  0
   -0.7147    2.4866   -2.1506 H   0  0  0  1  0  0  0  0  0  0  0  0
  1  4  1  0  0  0  0
  2  4  1  0  0  0  0
  2  5  2  0  0  0  0
  2  6  1  0  0  0  0
  3  4  1  0  0  0  0
  3  7  1  0  0  0  0
  3  8  1  0  0  0  0
  4 26  1  0  0  0  0
  6  9  1  0  0  0  0
  6 12  1  0  0  0  0
  8 10  1  0  0  0  0
  8 11  2  0  0  0  0
  9 13  1  0  0  0  0
  9 14  1  0  0  0  0
  9 15  1  0  0  0  0
 10 16  1  0  0  0  0
 10 17  1  0  0  0  0
 10 18  1  0  0  0  0
 19 20  1  0  0  0  0
 20 21  4  0  0  0  0
 20 25  4  0  0  0  0
 21 22  4  0  0  0  0
 21 28  1  0  0  0  0
 22 23  4  0  0  0  0
 22 27  1  0  0  0  0
 23 24  4  0  0  0  0
 23 29  1  0  0  0  0
 24 25  4  0  0  0  0
 24 26  1  0  0  0  0
 25 30  1  0  0  0  0
 26 31  1  0  0  0  0
 26 32  1  0  0  0  0
M  END
> <BCLConfClusterSize>
1

> <ConfClashScore>
0 

> <ConfOneFourInteractionScore>
-0.971454 

> <ConfScore>
0.276185 

> <ConfScorePBest>
0.00498576 

> <ConfTolerance>
0.345118 

> <RosettaParamsInstructions>
M  ROOT 3
M  POLY_N_BB 3
M  POLY_CA_BB 4
M  POLY_C_BB 2
M  POLY_O_BB 5
M  POLY_IGNORE 9 10 11 12 13 14 15 16 17 18 
M  POLY_UPPER 6
M  POLY_LOWER 8
M  POLY_CHG 0
M  POLY_PROPERTIES ALPHA_AA D_AA PROTEIN AROMATIC POLYMER 
M  END

$$$$



 32 32  0  0  0  0  0  0  0  0999 V2000
   -1.3224    4.7731   -1.6399 H   0  0  0  1  0  0  0  0  0  0  0  0
    0.4007    4.3070   -0.5231 C   0  0  0  1  0  0  0  0  0  0  0  0
   -1.9584    4.5012    0.2949 N   0  0  0  1  0  0  0  0  0  0  0  0
   -1.0880    4.1361   -0.8127 C   0  0  0  1  0  0  0  0  0  0  0  0
    1.2384    3.6253   -1.0905 O   0  0  0  1  0  0  0  0  0  0  0  0
    0.7128    5.2403    0.3805 N   0  0  0  1  0  0  0  0  0  0  0  0
   -2.7340    5.0736    0.1182 H   0  0  0  1  0  0  0  0  0  0  0  0
   -1.7370    4.0830    1.5444 C   0  0  0  1  0  0  0  0  0  0  0  0
    2.0513    5.4862    0.8961 C   0  0  0  1  0  0  0  0  0  0  0  0
   -2.7449    4.5332    2.5973 C   0  0  0  1  0  0  0  0  0  0  0  0
   -0.8228    3.3112    1.8297 O   0  0  0  1  0  0  0  0  0  0  0  0
   -0.0144    5.8017    0.7218 H   0  0  0  1  0  0  0  0  0  0  0  0
    2.4282    4.5941    1.3511 H   0  0  0  1  0  0  0  0  0  0  0  0
    2.0144    6.2695    1.6242 H   0  0  0  1  0  0  0  0  0  0  0  0
    2.6953    5.7758    0.0922 H   0  0  0  1  0  0  0  0  0  0  0  0
   -3.3404    3.6980    2.9017 H   0  0  0  1  0  0  0  0  0  0  0  0
   -3.3779    5.2904    2.1840 H   0  0  0  1  0  0  0  0  0  0  0  0
   -2.2234    4.9268    3.4446 H   0  0  0  1  0  0  0  0  0  0  0  0
   -6.0485    1.3134   -0.9416 F   0  0  0  1  0  0  0  0  0  0  0  0
   -5.0624    1.8688   -1.6718 C   0  0  0  1  0  0  0  0  0  0  0  0
   -5.3150    2.2973   -2.9656 C   0  0  0  1  0  0  0  0  0  0  0  0
   -4.3018    2.8624   -3.7169 C   0  0  0  1  0  0  0  0  0  0  0  0
   -3.0342    3.0054   -3.1745 C   0  0  0  1  0  0  0  0  0  0  0  0
   -2.7821    2.5782   -1.8845 C   0  0  0  1  0  0  0  0  0  0  0  0
   -3.7984    2.0115   -1.1311 C   0  0  0  1  0  0  0  0  0  0  0  0
   -1.4205    2.7027   -1.2425 C   0  0  0  1  0  0  0  0  0  0  0  0
   -4.5461    3.2739   -4.9758 F   0  0  0  1  0  0  0  0  0  0  0  0
   -6.2671    2.1936   -3.3711 H   0  0  0  1  0  0  0  0  0  0  0  0
   -2.2728    3.4343   -3.7384 H   0  0  0  1  0  0  0  0  0  0  0  0
   -3.6098    1.6937   -0.1590 H   0  0  0  1  0  0  0  0  0  0  0  0
   -1.3927    2.0728   -0.3780 H   0  0  0  1  0  0  0  0  0  0  0  0
   -0.6818    2.3777   -1.9451 H   0  0  0  1  0  0  0  0  0  0  0  0
  1  4  1  0  0  0  0
  2  4  1  0  0  0  0
  2  5  2  0  0  0  0
  2  6  1  0  0  0  0
  3  4  1  0  0  0  0
  3  7  1  0  0  0  0
  3  8  1  0  0  0  0
  4 26  1  0  0  0  0
  6  9  1  0  0  0  0
  6 12  1  0  0  0  0
  8 10  1  0  0  0  0
  8 11  2  0  0  0  0
  9 13  1  0  0  0  0
  9 14  1  0  0  0  0
  9 15  1  0  0  0  0
 10 16  1  0  0  0  0
 10 17  1  0  0  0  0
 10 18  1  0  0  0  0
 19 20  1  0  0  0  0
 20 21  4  0  0  0  0
 20 25  4  0  0  0  0
 21 22  4  0  0  0  0
 21 28  1  0  0  0  0
 22 23  4  0  0  0  0
 22 27  1  0  0  0  0
 23 24  4  0  0  0  0
 23 29  1  0  0  0  0
 24 25  4  0  0  0  0
 24 26  1  0  0  0  0
 25 30  1  0  0  0  0
 26 31  1  0  0  0  0
 26 32  1  0  0  0  0
M  END
> <BCLConfClusterSize>
1

> <ConfClashScore>
0 

> <ConfOneFourInteractionScore>
-0.957364 

> <ConfScore>
0.279862 

> <ConfScorePBest>
0.00495728 

> <ConfTolerance>
0.277674 

> <RosettaParamsInstructions>
M  ROOT 3
M  POLY_N_BB 3
M  POLY_CA_BB 4
M  POLY_C_BB 2
M  POLY_O_BB 5
M  POLY_IGNORE 9 10 11 12 13 14 15 16 17 18 
M  POLY_UPPER 6
M  POLY_LOWER 8
M  POLY_CHG 0
M  POLY_PROPERTIES ALPHA_AA D_AA PROTEIN AROMATIC POLYMER 
M  END

$$$$



 32 32  0  0  0  0  0  0  0  0999 V2000
   -0.2134    3.8642    0.0118 H   0  0  0  1  0  0  0  0  0  0  0  0
   -2.1245    3.9194    0.8611 C   0  0  0  1  0  0  0  0  0  0  0  0
   -1.3439    5.1790   -1.1048 N   0  0  0  1  0  0  0  0  0  0  0  0
   -1.2176    3.9153   -0.3541 C   0  0  0  1  0  0  0  0  0  0  0  0
   -2.7634    2.9181    1.1736 O   0  0  0  1  0  0  0  0  0  0  0  0
   -2.2075    5.0519    1.5854 N   0  0  0  1  0  0  0  0  0  0  0  0
   -2.1664    5.7038   -1.0124 H   0  0  0  1  0  0  0  0  0  0  0  0
   -0.3761    5.6327   -1.9064 C   0  0  0  1  0  0  0  0  0  0  0  0
   -3.1967    5.1702    2.6447 C   0  0  0  1  0  0  0  0  0  0  0  0
   -0.7068    6.9223   -2.6544 C   0  0  0  1  0  0  0  0  0  0  0  0
    0.6817    5.0387   -2.1053 O   0  0  0  1  0  0  0  0  0  0  0  0
   -1.6001    5.7977    1.3982 H   0  0  0  1  0  0  0  0  0  0  0  0
   -4.0178    4.5149    2.4414 H   0  0  0  1  0  0  0  0  0  0  0  0
   -3.5493    6.1793    2.6920 H   0  0  0  1  0  0  0  0  0  0  0  0
   -2.7508    4.9034    3.5801 H   0  0  0  1  0  0  0  0  0  0  0  0
   -1.7680    7.0560   -2.6837 H   0  0  0  1  0  0  0  0  0  0  0  0
   -0.3274    6.8624   -3.6530 H   0  0  0  1  0  0  0  0  0  0  0  0
   -0.2568    7.7520   -2.1505 H   0  0  0  1  0  0  0  0  0  0  0  0
   -6.0561    1.3124   -0.9444 F   0  0  0  1  0  0  0  0  0  0  0  0
   -5.0671    1.8672   -1.6711 C   0  0  0  1  0  0  0  0  0  0  0  0
   -5.3152    2.2971   -2.9653 C   0  0  0  1  0  0  0  0  0  0  0  0
   -4.2991    2.8616   -3.7130 C   0  0  0  1  0  0  0  0  0  0  0  0
   -3.0330    3.0027   -3.1666 C   0  0  0  1  0  0  0  0  0  0  0  0
   -2.7853    2.5741   -1.8761 C   0  0  0  1  0  0  0  0  0  0  0  0
   -3.8046    2.0080   -1.1264 C   0  0  0  1  0  0  0  0  0  0  0  0
   -1.4045    2.7223   -1.2822 C   0  0  0  1  0  0  0  0  0  0  0  0
   -4.5390    3.2745   -4.9723 F   0  0  0  1  0  0  0  0  0  0  0  0
   -6.2661    2.1949   -3.3738 H   0  0  0  1  0  0  0  0  0  0  0  0
   -2.2693    3.4311   -3.7277 H   0  0  0  1  0  0  0  0  0  0  0  0
   -3.6194    1.6891   -0.1540 H   0  0  0  1  0  0  0  0  0  0  0  0
   -1.1873    1.8343   -0.7262 H   0  0  0  1  0  0  0  0  0  0  0  0
   -0.7072    2.8186   -2.0881 H   0  0  0  1  0  0  0  0  0  0  0  0
  1  4  1  0  0  0  0
  2  4  1  0  0  0  0
  2  5  2  0  0  0  0
  2  6  1  0  0  0  0
  3  4  1  0  0  0  0
  3  7  1  0  0  0  0
  3  8  1  0  0  0  0
  4 26  1  0  0  0  0
  6  9  1  0  0  0  0
  6 12  1  0  0  0  0
  8 10  1  0  0  0  0
  8 11  2  0  0  0  0
  9 13  1  0  0  0  0
  9 14  1  0  0  0  0
  9 15  1  0  0  0  0
 10 16  1  0  0  0  0
 10 17  1  0  0  0  0
 10 18  1  0  0  0  0
 19 20  1  0  0  0  0
 20 21  4  0  0  0  0
 20 25  4  0  0  0  0
 21 22  4  0  0  0  0
 21 28  1  0  0  0  0
 22 23  4  0  0  0  0
 22 27  1  0  0  0  0
 23 24  4  0  0  0  0
 23 29  1  0  0  0  0
 24 25  4  0  0  0  0
 24 26  1  0  0  0  0
 25 30  1  0  0  0  0
 26 31  1  0  0  0  0
 26 32  1  0  0  0  0
M  END
> <BCLConfClusterSize>
1

> <ConfClashScore>
0 

> <ConfOneFourInteractionScore>
-0.97007 

> <ConfScore>
0.281976 

> <ConfScorePBest>
0.0049288 

> <ConfTolerance>
0.447843 

> <RosettaParamsInstructions>
M  ROOT 3
M  POLY_N_BB 3
M  POLY_CA_BB 4
M  POLY_C_BB 2
M  POLY_O_BB 5
M  POLY_IGNORE 9 10 11 12 13 14 15 16 17 18 
M  POLY_UPPER 6
M  POLY_LOWER 8
M  POLY_CHG 0
M  POLY_PROPERTIES ALPHA_AA D_AA PROTEIN AROMATIC POLYMER 
M  END

$$$$



 32 32  0  0  0  0  0  0  0  0999 V2000
    0.5789    1.9979   -1.3852 H   0  0  0  1  0  0  0  0  0  0  0  0
   -0.3144    1.6777   -3.2715 C   0  0  0  1  0  0  0  0  0  0  0  0
   -0.7167    0.3952   -1.2119 N   0  0  0  1  0  0  0  0  0  0  0  0
   -0.3799    1.7019   -1.7568 C   0  0  0  1  0  0  0  0  0  0  0  0
    0.5047    2.3509   -3.8913 O   0  0  0  1  0  0  0  0  0  0  0  0
   -1.2187    0.8680   -3.8362 N   0  0  0  1  0  0  0  0  0  0  0  0
   -1.2895   -0.2025   -1.7364 H   0  0  0  1  0  0  0  0  0  0  0  0
   -0.2731   -0.0172   -0.0235 C   0  0  0  1  0  0  0  0  0  0  0  0
   -1.3583    0.6438   -5.2707 C   0  0  0  1  0  0  0  0  0  0  0  0
   -0.5542   -1.4781    0.3503 C   0  0  0  1  0  0  0  0  0  0  0  0
    0.4014    0.6883    0.7255 O   0  0  0  1  0  0  0  0  0  0  0  0
   -1.8331    0.3898   -3.2410 H   0  0  0  1  0  0  0  0  0  0  0  0
   -0.9472    1.4754   -5.8039 H   0  0  0  1  0  0  0  0  0  0  0  0
   -2.3946    0.5402   -5.5160 H   0  0  0  1  0  0  0  0  0  0  0  0
   -0.8355   -0.2487   -5.5445 H   0  0  0  1  0  0  0  0  0  0  0  0
   -0.8462   -1.5339    1.3782 H   0  0  0  1  0  0  0  0  0  0  0  0
    0.3301   -2.0613    0.1989 H   0  0  0  1  0  0  0  0  0  0  0  0
   -1.3425   -1.8582   -0.2653 H   0  0  0  1  0  0  0  0  0  0  0  0
   -6.0774    1.3149   -0.9663 F   0  0  0  1  0  0  0  0  0  0  0  0
   -5.0642    1.8648   -1.6628 C   0  0  0  1  0  0  0  0  0  0  0  0
   -5.3186    2.2928   -2.9565 C   0  0  0  1  0  0  0  0  0  0  0  0
   -4.3066    2.8581   -3.7091 C   0  0  0  1  0  0  0  0  0  0  0  0
   -3.0384    3.0019   -3.1683 C   0  0  0  1  0  0  0  0  0  0  0  0
   -2.7845    2.5752   -1.8784 C   0  0  0  1  0  0  0  0  0  0  0  0
   -3.7997    2.0083   -1.1237 C   0  0  0  1  0  0  0  0  0  0  0  0
   -1.4014    2.7264   -1.2907 C   0  0  0  1  0  0  0  0  0  0  0  0
   -4.5093    3.2823   -4.9713 F   0  0  0  1  0  0  0  0  0  0  0  0
   -6.2711    2.1885   -3.3608 H   0  0  0  1  0  0  0  0  0  0  0  0
   -2.2779    3.4309   -3.7333 H   0  0  0  1  0  0  0  0  0  0  0  0
   -3.6098    1.6909   -0.1517 H   0  0  0  1  0  0  0  0  0  0  0  0
   -1.0366    3.6981   -1.5507 H   0  0  0  1  0  0  0  0  0  0  0  0
   -1.4846    2.6490   -0.2267 H   0  0  0  1  0  0  0  0  0  0  0  0
  1  4  1  0  0  0  0
  2  4  1  0  0  0  0
  2  5  2  0  0  0  0
  2  6  1  0  0  0  0
  3  4  1  0  0  0  0
  3  7  1  0  0  0  0
  3  8  1  0  0  0  0
  4 26  1  0  0  0  0
  6  9  1  0  0  0  0
  6 12  1  0  0  0  0
  8 10  1  0  0  0  0
  8 11  2  0  0  0  0
  9 13  1  0  0  0  0
  9 14  1  0  0  0  0
  9 15  1  0  0  0  0
 10 16  1  0  0  0  0
 10 17  1  0  0  0  0
 10 18  1  0  0  0  0
 19 20  1  0  0  0  0
 20 21  4  0  0  0  0
 20 25  4  0  0  0  0
 21 22  4  0  0  0  0
 21 28  1  0  0  0  0
 22 23  4  0  0  0  0
 22 27  1  0  0  0  0
 23 24  4  0  0  0  0
 23 29  1  0  0  0  0
 24 25  4  0  0  0  0
 24 26  1  0  0  0  0
 25 30  1  0  0  0  0
 26 31  1  0  0  0  0
 26 32  1  0  0  0  0
M  END
> <BCLConfClusterSize>
1

> <ConfClashScore>
0 

> <ConfOneFourInteractionScore>
-0.96177 

> <ConfScore>
0.282246 

> <ConfScorePBest>
0.00490032 

> <ConfTolerance>
0.546464 

> <RosettaParamsInstructions>
M  ROOT 3
M  POLY_N_BB 3
M  POLY_CA_BB 4
M  POLY_C_BB 2
M  POLY_O_BB 5
M  POLY_IGNORE 9 10 11 12 13 14 15 16 17 18 
M  POLY_UPPER 6
M  POLY_LOWER 8
M  POLY_CHG 0
M  POLY_PROPERTIES ALPHA_AA D_AA PROTEIN AROMATIC POLYMER 
M  END

$$$$



 32 32  0  0  0  0  0  0  0  0999 V2000
   -0.7561    0.7629   -1.1998 H   0  0  0  1  0  0  0  0  0  0  0  0
    0.9750    1.8786   -0.9916 C   0  0  0  1  0  0  0  0  0  0  0  0
   -0.2980    1.4013   -3.0886 N   0  0  0  1  0  0  0  0  0  0  0  0
   -0.3832    1.6678   -1.6321 C   0  0  0  1  0  0  0  0  0  0  0  0
    1.6587    2.8638   -1.2567 O   0  0  0  1  0  0  0  0  0  0  0  0
    1.3674    0.9269   -0.1300 N   0  0  0  1  0  0  0  0  0  0  0  0
   -0.7781    0.6232   -3.4415 H   0  0  0  1  0  0  0  0  0  0  0  0
    0.3902    2.1529   -3.9484 C   0  0  0  1  0  0  0  0  0  0  0  0
    2.7193    0.8733    0.4062 C   0  0  0  1  0  0  0  0  0  0  0  0
    0.3146    1.7278   -5.4020 C   0  0  0  1  0  0  0  0  0  0  0  0
    1.0489    3.1305   -3.6038 O   0  0  0  1  0  0  0  0  0  0  0  0
    0.7211    0.2446    0.1476 H   0  0  0  1  0  0  0  0  0  0  0  0
    3.4068    1.2544   -0.3197 H   0  0  0  1  0  0  0  0  0  0  0  0
    2.9709   -0.1406    0.6376 H   0  0  0  1  0  0  0  0  0  0  0  0
    2.7740    1.4666    1.2949 H   0  0  0  1  0  0  0  0  0  0  0  0
    0.7823    0.7726   -5.5196 H   0  0  0  1  0  0  0  0  0  0  0  0
    0.8187    2.4489   -6.0109 H   0  0  0  1  0  0  0  0  0  0  0  0
   -0.7106    1.6618   -5.7012 H   0  0  0  1  0  0  0  0  0  0  0  0
   -6.0330    1.3066   -0.9127 F   0  0  0  1  0  0  0  0  0  0  0  0
   -5.0731    1.8665   -1.6737 C   0  0  0  1  0  0  0  0  0  0  0  0
   -5.3213    2.2965   -2.9679 C   0  0  0  1  0  0  0  0  0  0  0  0
   -4.3051    2.8609   -3.7156 C   0  0  0  1  0  0  0  0  0  0  0  0
   -3.0390    3.0020   -3.1692 C   0  0  0  1  0  0  0  0  0  0  0  0
   -2.7914    2.5734   -1.8787 C   0  0  0  1  0  0  0  0  0  0  0  0
   -3.8107    2.0073   -1.1290 C   0  0  0  1  0  0  0  0  0  0  0  0
   -1.4105    2.7216   -1.2848 C   0  0  0  1  0  0  0  0  0  0  0  0
   -4.5017    3.2870   -4.9780 F   0  0  0  1  0  0  0  0  0  0  0  0
   -6.2722    2.1943   -3.3764 H   0  0  0  1  0  0  0  0  0  0  0  0
   -2.2754    3.4305   -3.7303 H   0  0  0  1  0  0  0  0  0  0  0  0
   -3.6254    1.6884   -0.1566 H   0  0  0  1  0  0  0  0  0  0  0  0
   -1.0228    3.6653   -1.6075 H   0  0  0  1  0  0  0  0  0  0  0  0
   -1.5185    2.7249   -0.2203 H   0  0  0  1  0  0  0  0  0  0  0  0
  1  4  1  0  0  0  0
  2  4  1  0  0  0  0
  2  5  2  0  0  0  0
  2  6  1  0  0  0  0
  3  4  1  0  0  0  0
  3  7  1  0  0  0  0
  3  8  1  0  0  0  0
  4 26  1  0  0  0  0
  6  9  1  0  0  0  0
  6 12  1  0  0  0  0
  8 10  1  0  0  0  0
  8 11  2  0  0  0  0
  9 13  1  0  0  0  0
  9 14  1  0  0  0  0
  9 15  1  0  0  0  0
 10 16  1  0  0  0  0
 10 17  1  0  0  0  0
 10 18  1  0  0  0  0
 19 20  1  0  0  0  0
 20 21  4  0  0  0  0
 20 25  4  0  0  0  0
 21 22  4  0  0  0  0
 21 28  1  0  0  0  0
 22 23  4  0  0  0  0
 22 27  1  0  0  0  0
 23 24  4  0  0  0  0
 23 29  1  0  0  0  0
 24 25  4  0  0  0  0
 24 26  1  0  0  0  0
 25 30  1  0  0  0  0
 26 31  1  0  0  0  0
 26 32  1  0  0  0  0
M  END
> <BCLConfClusterSize>
1

> <ConfClashScore>
0 

> <ConfOneFourInteractionScore>
-0.983211 

> <ConfScore>
0.282464 

> <ConfScorePBest>
0.00487184 

> <ConfTolerance>
0.422864 

> <RosettaParamsInstructions>
M  ROOT 3
M  POLY_N_BB 3
M  POLY_CA_BB 4
M  POLY_C_BB 2
M  POLY_O_BB 5
M  POLY_IGNORE 9 10 11 12 13 14 15 16 17 18 
M  POLY_UPPER 6
M  POLY_LOWER 8
M  POLY_CHG 0
M  POLY_PROPERTIES ALPHA_AA D_AA PROTEIN AROMATIC POLYMER 
M  END

$$$$



 32 32  0  0  0  0  0  0  0  0999 V2000
   -0.3958    3.7121    0.3304 H   0  0  0  1  0  0  0  0  0  0  0  0
   -1.8644    2.5530    1.2892 C   0  0  0  1  0  0  0  0  0  0  0  0
   -2.2017    4.6743    0.0787 N   0  0  0  1  0  0  0  0  0  0  0  0
   -1.4104    3.4369    0.1308 C   0  0  0  1  0  0  0  0  0  0  0  0
   -2.2804    3.0406    2.3393 O   0  0  0  1  0  0  0  0  0  0  0  0
   -1.7785    1.2359    1.0826 N   0  0  0  1  0  0  0  0  0  0  0  0
   -1.7985    5.4775   -0.3121 H   0  0  0  1  0  0  0  0  0  0  0  0
   -3.4517    4.7423    0.5455 C   0  0  0  1  0  0  0  0  0  0  0  0
   -2.0843    0.2643    2.1220 C   0  0  0  1  0  0  0  0  0  0  0  0
   -4.0309    6.1519    0.6415 C   0  0  0  1  0  0  0  0  0  0  0  0
   -4.0862    3.7676    0.9468 O   0  0  0  1  0  0  0  0  0  0  0  0
   -1.4997    0.9127    0.2004 H   0  0  0  1  0  0  0  0  0  0  0  0
   -1.2359   -0.3681    2.2807 H   0  0  0  1  0  0  0  0  0  0  0  0
   -2.9205   -0.3305    1.8190 H   0  0  0  1  0  0  0  0  0  0  0  0
   -2.3214    0.7772    3.0307 H   0  0  0  1  0  0  0  0  0  0  0  0
   -3.3542    6.7801    1.1821 H   0  0  0  1  0  0  0  0  0  0  0  0
   -4.9704    6.1172    1.1524 H   0  0  0  1  0  0  0  0  0  0  0  0
   -4.1741    6.5462   -0.3429 H   0  0  0  1  0  0  0  0  0  0  0  0
   -6.0561    1.3124   -0.9444 F   0  0  0  1  0  0  0  0  0  0  0  0
   -5.0671    1.8672   -1.6711 C   0  0  0  1  0  0  0  0  0  0  0  0
   -5.3152    2.2971   -2.9653 C   0  0  0  1  0  0  0  0  0  0  0  0
   -4.2991    2.8616   -3.7130 C   0  0  0  1  0  0  0  0  0  0  0  0
   -3.0330    3.0027   -3.1666 C   0  0  0  1  0  0  0  0  0  0  0  0
   -2.7853    2.5741   -1.8761 C   0  0  0  1  0  0  0  0  0  0  0  0
   -3.8046    2.0080   -1.1264 C   0  0  0  1  0  0  0  0  0  0  0  0
   -1.4045    2.7223   -1.2822 C   0  0  0  1  0  0  0  0  0  0  0  0
   -4.5390    3.2745   -4.9723 F   0  0  0  1  0  0  0  0  0  0  0  0
   -6.2661    2.1949   -3.3738 H   0  0  0  1  0  0  0  0  0  0  0  0
   -2.2693    3.4311   -3.7277 H   0  0  0  1  0  0  0  0  0  0  0  0
   -3.6194    1.6891   -0.1540 H   0  0  0  1  0  0  0  0  0  0  0  0
   -0.9759    1.7484   -1.1696 H   0  0  0  1  0  0  0  0  0  0  0  0
   -0.8051    3.3008   -1.9539 H   0  0  0  1  0  0  0  0  0  0  0  0
  1  4  1  0  0  0  0
  2  4  1  0  0  0  0
  2  5  2  0  0  0  0
  2  6  1  0  0  0  0
  3  4  1  0  0  0  0
  3  7  1  0  0  0  0
  3  8  1  0  0  0  0
  4 26  1  0  0  0  0
  6  9  1  0  0  0  0
  6 12  1  0  0  0  0
  8 10  1  0  0  0  0
  8 11  2  0  0  0  0
  9 13  1  0  0  0  0
  9 14  1  0  0  0  0
  9 15  1  0  0  0  0
 10 16  1  0  0  0  0
 10 17  1  0  0  0  0
 10 18  1  0  0  0  0
 19 20  1  0  0  0  0
 20 21  4  0  0  0  0
 20 25  4  0  0  0  0
 21 22  4  0  0  0  0
 21 28  1  0  0  0  0
 22 23  4  0  0  0  0
 22 27  1  0  0  0  0
 23 24  4  0  0  0  0
 23 29  1  0  0  0  0
 24 25  4  0  0  0  0
 24 26  1  0  0  0  0
 25 30  1  0  0  0  0
 26 31  1  0  0  0  0
 26 32  1  0  0  0  0
M  END
> <BCLConfClusterSize>
1

> <ConfClashScore>
0.000836178 

> <ConfOneFourInteractionScore>
-0.92611 

> <ConfScore>
0.284673 

> <ConfScorePBest>
0.00484336 

> <ConfTolerance>
0.379662 

> <RosettaParamsInstructions>
M  ROOT 3
M  POLY_N_BB 3
M  POLY_CA_BB 4
M  POLY_C_BB 2
M  POLY_O_BB 5
M  POLY_IGNORE 9 10 11 12 13 14 15 16 17 18 
M  POLY_UPPER 6
M  POLY_LOWER 8
M  POLY_CHG 0
M  POLY_PROPERTIES ALPHA_AA D_AA PROTEIN AROMATIC POLYMER 
M  END

$$$$



 32 32  0  0  0  0  0  0  0  0999 V2000
   -2.1874    4.4320   -0.3224 H   0  0  0  1  0  0  0  0  0  0  0  0
   -0.4857    5.0638   -1.3836 C   0  0  0  1  0  0  0  0  0  0  0  0
   -0.5358    3.8042    0.7419 N   0  0  0  1  0  0  0  0  0  0  0  0
   -1.2136    4.0408   -0.5312 C   0  0  0  1  0  0  0  0  0  0  0  0
    0.0564    6.0433   -0.9051 O   0  0  0  1  0  0  0  0  0  0  0  0
   -0.4350    4.8884   -2.7049 N   0  0  0  1  0  0  0  0  0  0  0  0
   -0.1893    2.9166    0.9710 H   0  0  0  1  0  0  0  0  0  0  0  0
   -0.4010    4.8411    1.5916 C   0  0  0  1  0  0  0  0  0  0  0  0
    0.1726    5.8174   -3.6460 C   0  0  0  1  0  0  0  0  0  0  0  0
    0.1242    4.4957    2.9791 C   0  0  0  1  0  0  0  0  0  0  0  0
   -0.6768    5.9903    1.2867 O   0  0  0  1  0  0  0  0  0  0  0  0
   -0.8371    4.0724   -3.0694 H   0  0  0  1  0  0  0  0  0  0  0  0
    1.1722    6.0384   -3.3348 H   0  0  0  1  0  0  0  0  0  0  0  0
   -0.3998    6.7210   -3.6747 H   0  0  0  1  0  0  0  0  0  0  0  0
    0.1921    5.3758   -4.6204 H   0  0  0  1  0  0  0  0  0  0  0  0
    1.1693    4.2742    2.9206 H   0  0  0  1  0  0  0  0  0  0  0  0
   -0.4003    3.6428    3.3565 H   0  0  0  1  0  0  0  0  0  0  0  0
   -0.0278    5.3274    3.6349 H   0  0  0  1  0  0  0  0  0  0  0  0
   -6.0561    1.3124   -0.9444 F   0  0  0  1  0  0  0  0  0  0  0  0
   -5.0671    1.8672   -1.6711 C   0  0  0  1  0  0  0  0  0  0  0  0
   -5.3152    2.2971   -2.9653 C   0  0  0  1  0  0  0  0  0  0  0  0
   -4.2991    2.8616   -3.7130 C   0  0  0  1  0  0  0  0  0  0  0  0
   -3.0330    3.0027   -3.1666 C   0  0  0  1  0  0  0  0  0  0  0  0
   -2.7853    2.5741   -1.8761 C   0  0  0  1  0  0  0  0  0  0  0  0
   -3.8046    2.0080   -1.1264 C   0  0  0  1  0  0  0  0  0  0  0  0
   -1.4045    2.7223   -1.2822 C   0  0  0  1  0  0  0  0  0  0  0  0
   -4.5390    3.2745   -4.9723 F   0  0  0  1  0  0  0  0  0  0  0  0
   -6.2661    2.1949   -3.3738 H   0  0  0  1  0  0  0  0  0  0  0  0
   -2.2693    3.4311   -3.7277 H   0  0  0  1  0  0  0  0  0  0  0  0
   -3.6194    1.6891   -0.1540 H   0  0  0  1  0  0  0  0  0  0  0  0
   -1.2386    1.9148   -0.6001 H   0  0  0  1  0  0  0  0  0  0  0  0
   -0.6863    2.6743   -2.0740 H   0  0  0  1  0  0  0  0  0  0  0  0
  1  4  1  0  0  0  0
  2  4  1  0  0  0  0
  2  5  2  0  0  0  0
  2  6  1  0  0  0  0
  3  4  1  0  0  0  0
  3  7  1  0  0  0  0
  3  8  1  0  0  0  0
  4 26  1  0  0  0  0
  6  9  1  0  0  0  0
  6 12  1  0  0  0  0
  8 10  1  0  0  0  0
  8 11  2  0  0  0  0
  9 13  1  0  0  0  0
  9 14  1  0  0  0  0
  9 15  1  0  0  0  0
 10 16  1  0  0  0  0
 10 17  1  0  0  0  0
 10 18  1  0  0  0  0
 19 20  1  0  0  0  0
 20 21  4  0  0  0  0
 20 25  4  0  0  0  0
 21 22  4  0  0  0  0
 21 28  1  0  0  0  0
 22 23  4  0  0  0  0
 22 27  1  0  0  0  0
 23 24  4  0  0  0  0
 23 29  1  0  0  0  0
 24 25  4  0  0  0  0
 24 26  1  0  0  0  0
 25 30  1  0  0  0  0
 26 31  1  0  0  0  0
 26 32  1  0  0  0  0
M  END
> <BCLConfClusterSize>
1

> <ConfClashScore>
0 

> <ConfOneFourInteractionScore>
-0.941057 

> <ConfScore>
0.290006 

> <ConfScorePBest>
0.00481488 

> <ConfTolerance>
0.240741 

> <RosettaParamsInstructions>
M  ROOT 3
M  POLY_N_BB 3
M  POLY_CA_BB 4
M  POLY_C_BB 2
M  POLY_O_BB 5
M  POLY_IGNORE 9 10 11 12 13 14 15 16 17 18 
M  POLY_UPPER 6
M  POLY_LOWER 8
M  POLY_CHG 0
M  POLY_PROPERTIES ALPHA_AA D_AA PROTEIN AROMATIC POLYMER 
M  END

$$$$



 32 32  0  0  0  0  0  0  0  0999 V2000
   -1.2371    4.7787   -1.6125 H   0  0  0  1  0  0  0  0  0  0  0  0
    0.4792    4.1629   -0.5392 C   0  0  0  1  0  0  0  0  0  0  0  0
   -1.8093    4.4092    0.3405 N   0  0  0  1  0  0  0  0  0  0  0  0
   -1.0122    4.0820   -0.8322 C   0  0  0  1  0  0  0  0  0  0  0  0
    1.3163    4.1909   -1.4229 O   0  0  0  1  0  0  0  0  0  0  0  0
    0.8899    4.2049    0.7315 N   0  0  0  1  0  0  0  0  0  0  0  0
   -2.6032    3.8697    0.5383 H   0  0  0  1  0  0  0  0  0  0  0  0
   -1.4965    5.4195    1.1569 C   0  0  0  1  0  0  0  0  0  0  0  0
    2.2559    4.5499    1.0959 C   0  0  0  1  0  0  0  0  0  0  0  0
   -2.4485    5.6947    2.3213 C   0  0  0  1  0  0  0  0  0  0  0  0
   -0.5365    6.1609    0.9511 O   0  0  0  1  0  0  0  0  0  0  0  0
    0.2490    3.9961    1.4428 H   0  0  0  1  0  0  0  0  0  0  0  0
    2.4959    4.1087    2.0407 H   0  0  0  1  0  0  0  0  0  0  0  0
    2.3484    5.6137    1.1656 H   0  0  0  1  0  0  0  0  0  0  0  0
    2.9279    4.1812    0.3493 H   0  0  0  1  0  0  0  0  0  0  0  0
   -3.1921    4.9264    2.3639 H   0  0  0  1  0  0  0  0  0  0  0  0
   -2.9233    6.6426    2.1770 H   0  0  0  1  0  0  0  0  0  0  0  0
   -1.8963    5.7075    3.2377 H   0  0  0  1  0  0  0  0  0  0  0  0
   -6.0600    1.3077   -0.9539 F   0  0  0  1  0  0  0  0  0  0  0  0
   -5.0688    1.8683   -1.6731 C   0  0  0  1  0  0  0  0  0  0  0  0
   -5.3087    2.2935   -2.9704 C   0  0  0  1  0  0  0  0  0  0  0  0
   -4.2902    2.8639   -3.7104 C   0  0  0  1  0  0  0  0  0  0  0  0
   -3.0301    3.0156   -3.1532 C   0  0  0  1  0  0  0  0  0  0  0  0
   -2.7906    2.5917   -1.8597 C   0  0  0  1  0  0  0  0  0  0  0  0
   -3.8122    2.0196   -1.1177 C   0  0  0  1  0  0  0  0  0  0  0  0
   -1.3798    2.6801   -1.3273 C   0  0  0  1  0  0  0  0  0  0  0  0
   -4.5651    3.2584   -4.9685 F   0  0  0  1  0  0  0  0  0  0  0  0
   -6.2552    2.1833   -3.3870 H   0  0  0  1  0  0  0  0  0  0  0  0
   -2.2647    3.4485   -3.7086 H   0  0  0  1  0  0  0  0  0  0  0  0
   -3.6332    1.7043   -0.1429 H   0  0  0  1  0  0  0  0  0  0  0  0
   -1.2797    1.9940   -0.5124 H   0  0  0  1  0  0  0  0  0  0  0  0
   -0.7029    2.4068   -2.1096 H   0  0  0  1  0  0  0  0  0  0  0  0
  1  4  1  0  0  0  0
  2  4  1  0  0  0  0
  2  5  2  0  0  0  0
  2  6  1  0  0  0  0
  3  4  1  0  0  0  0
  3  7  1  0  0  0  0
  3  8  1  0  0  0  0
  4 26  1  0  0  0  0
  6  9  1  0  0  0  0
  6 12  1  0  0  0  0
  8 10  1  0  0  0  0
  8 11  2  0  0  0  0
  9 13  1  0  0  0  0
  9 14  1  0  0  0  0
  9 15  1  0  0  0  0
 10 16  1  0  0  0  0
 10 17  1  0  0  0  0
 10 18  1  0  0  0  0
 19 20  1  0  0  0  0
 20 21  4  0  0  0  0
 20 25  4  0  0  0  0
 21 22  4  0  0  0  0
 21 28  1  0  0  0  0
 22 23  4  0  0  0  0
 22 27  1  0  0  0  0
 23 24  4  0  0  0  0
 23 29  1  0  0  0  0
 24 25  4  0  0  0  0
 24 26  1  0  0  0  0
 25 30  1  0  0  0  0
 26 31  1  0  0  0  0
 26 32  1  0  0  0  0
M  END
> <BCLConfClusterSize>
1

> <ConfClashScore>
0.00149533 

> <ConfOneFourInteractionScore>
-0.960318 

> <ConfScore>
0.292276 

> <ConfScorePBest>
0.00478639 

> <ConfTolerance>
0.472602 

> <RosettaParamsInstructions>
M  ROOT 3
M  POLY_N_BB 3
M  POLY_CA_BB 4
M  POLY_C_BB 2
M  POLY_O_BB 5
M  POLY_IGNORE 9 10 11 12 13 14 15 16 17 18 
M  POLY_UPPER 6
M  POLY_LOWER 8
M  POLY_CHG 0
M  POLY_PROPERTIES ALPHA_AA D_AA PROTEIN AROMATIC POLYMER 
M  END

$$$$



 32 32  0  0  0  0  0  0  0  0999 V2000
   -1.3956    4.8421   -1.3300 H   0  0  0  1  0  0  0  0  0  0  0  0
    0.3749    4.2167   -0.3647 C   0  0  0  1  0  0  0  0  0  0  0  0
   -1.8968    4.2203    0.5775 N   0  0  0  1  0  0  0  0  0  0  0  0
   -1.1100    4.0773   -0.6384 C   0  0  0  1  0  0  0  0  0  0  0  0
    1.1979    3.4939   -0.9248 O   0  0  0  1  0  0  0  0  0  0  0  0
    0.7186    5.1689    0.5169 N   0  0  0  1  0  0  0  0  0  0  0  0
   -2.1373    3.4156    1.0826 H   0  0  0  1  0  0  0  0  0  0  0  0
   -2.3026    5.4104    1.0291 C   0  0  0  1  0  0  0  0  0  0  0  0
    2.1058    5.4555    0.8503 C   0  0  0  1  0  0  0  0  0  0  0  0
   -3.2540    5.4422    2.2184 C   0  0  0  1  0  0  0  0  0  0  0  0
   -1.9537    6.4848    0.5417 O   0  0  0  1  0  0  0  0  0  0  0  0
    0.0106    5.6891    0.9512 H   0  0  0  1  0  0  0  0  0  0  0  0
    2.7039    4.5874    0.6671 H   0  0  0  1  0  0  0  0  0  0  0  0
    2.1758    5.7249    1.8835 H   0  0  0  1  0  0  0  0  0  0  0  0
    2.4578    6.2650    0.2456 H   0  0  0  1  0  0  0  0  0  0  0  0
   -2.7520    5.0710    3.0874 H   0  0  0  1  0  0  0  0  0  0  0  0
   -4.1058    4.8292    2.0098 H   0  0  0  1  0  0  0  0  0  0  0  0
   -3.5724    6.4486    2.3933 H   0  0  0  1  0  0  0  0  0  0  0  0
   -6.0561    1.3124   -0.9444 F   0  0  0  1  0  0  0  0  0  0  0  0
   -5.0671    1.8672   -1.6711 C   0  0  0  1  0  0  0  0  0  0  0  0
   -5.3152    2.2971   -2.9653 C   0  0  0  1  0  0  0  0  0  0  0  0
   -4.2991    2.8616   -3.7130 C   0  0  0  1  0  0  0  0  0  0  0  0
   -3.0330    3.0027   -3.1666 C   0  0  0  1  0  0  0  0  0  0  0  0
   -2.7853    2.5741   -1.8761 C   0  0  0  1  0  0  0  0  0  0  0  0
   -3.8046    2.0080   -1.1264 C   0  0  0  1  0  0  0  0  0  0  0  0
   -1.4045    2.7223   -1.2822 C   0  0  0  1  0  0  0  0  0  0  0  0
   -4.5390    3.2745   -4.9723 F   0  0  0  1  0  0  0  0  0  0  0  0
   -6.2661    2.1949   -3.3738 H   0  0  0  1  0  0  0  0  0  0  0  0
   -2.2693    3.4311   -3.7277 H   0  0  0  1  0  0  0  0  0  0  0  0
   -3.6194    1.6891   -0.1540 H   0  0  0  1  0  0  0  0  0  0  0  0
   -1.2847    1.9678   -0.5330 H   0  0  0  1  0  0  0  0  0  0  0  0
   -0.6905    2.5661   -2.0638 H   0  0  0  1  0  0  0  0  0  0  0  0
  1  4  1  0  0  0  0
  2  4  1  0  0  0  0
  2  5  2  0  0  0  0
  2  6  1  0  0  0  0
  3  4  1  0  0  0  0
  3  7  1  0  0  0  0
  3  8  1  0  0  0  0
  4 26  1  0  0  0  0
  6  9  1  0  0  0  0
  6 12  1  0  0  0  0
  8 10  1  0  0  0  0
  8 11  2  0  0  0  0
  9 13  1  0  0  0  0
  9 14  1  0  0  0  0
  9 15  1  0  0  0  0
 10 16  1  0  0  0  0
 10 17  1  0  0  0  0
 10 18  1  0  0  0  0
 19 20  1  0  0  0  0
 20 21  4  0  0  0  0
 20 25  4  0  0  0  0
 21 22  4  0  0  0  0
 21 28  1  0  0  0  0
 22 23  4  0  0  0  0
 22 27  1  0  0  0  0
 23 24  4  0  0  0  0
 23 29  1  0  0  0  0
 24 25  4  0  0  0  0
 24 26  1  0  0  0  0
 25 30  1  0  0  0  0
 26 31  1  0  0  0  0
 26 32  1  0  0  0  0
M  END
> <BCLConfClusterSize>
1

> <ConfClashScore>
0 

> <ConfOneFourInteractionScore>
-0.956084 

> <ConfScore>
0.294751 

> <ConfScorePBest>
0.00475791 

> <ConfTolerance>
0.457565 

> <RosettaParamsInstructions>
M  ROOT 3
M  POLY_N_BB 3
M  POLY_CA_BB 4
M  POLY_C_BB 2
M  POLY_O_BB 5
M  POLY_IGNORE 9 10 11 12 13 14 15 16 17 18 
M  POLY_UPPER 6
M  POLY_LOWER 8
M  POLY_CHG 0
M  POLY_PROPERTIES ALPHA_AA D_AA PROTEIN AROMATIC POLYMER 
M  END

$$$$



 32 32  0  0  0  0  0  0  0  0999 V2000
   -1.9786    3.0029    0.7404 H   0  0  0  1  0  0  0  0  0  0  0  0
    0.1175    2.6815    0.7121 C   0  0  0  1  0  0  0  0  0  0  0  0
   -1.6540    0.9867    0.4122 N   0  0  0  1  0  0  0  0  0  0  0  0
   -1.2928    2.3810    0.2038 C   0  0  0  1  0  0  0  0  0  0  0  0
    0.4394    3.8317    1.0070 O   0  0  0  1  0  0  0  0  0  0  0  0
    0.9913    1.6625    0.7301 N   0  0  0  1  0  0  0  0  0  0  0  0
   -1.7297    0.3964   -0.3664 H   0  0  0  1  0  0  0  0  0  0  0  0
   -1.8883    0.4786    1.6398 C   0  0  0  1  0  0  0  0  0  0  0  0
    2.3609    1.8211    1.1957 C   0  0  0  1  0  0  0  0  0  0  0  0
   -2.2404   -0.9879    1.7468 C   0  0  0  1  0  0  0  0  0  0  0  0
   -1.8182    1.1856    2.6443 O   0  0  0  1  0  0  0  0  0  0  0  0
    0.6965    0.7812    0.4189 H   0  0  0  1  0  0  0  0  0  0  0  0
    2.4296    2.6919    1.8137 H   0  0  0  1  0  0  0  0  0  0  0  0
    3.0131    1.9288    0.3544 H   0  0  0  1  0  0  0  0  0  0  0  0
    2.6471    0.9591    1.7614 H   0  0  0  1  0  0  0  0  0  0  0  0
   -3.1994   -1.1582    1.3039 H   0  0  0  1  0  0  0  0  0  0  0  0
   -2.2681   -1.2735    2.7776 H   0  0  0  1  0  0  0  0  0  0  0  0
   -1.5028   -1.5698    1.2347 H   0  0  0  1  0  0  0  0  0  0  0  0
   -6.0566    1.3143   -0.9498 F   0  0  0  1  0  0  0  0  0  0  0  0
   -5.0656    1.8687   -1.6740 C   0  0  0  1  0  0  0  0  0  0  0  0
   -5.3106    2.2996   -2.9685 C   0  0  0  1  0  0  0  0  0  0  0  0
   -4.2924    2.8637   -3.7136 C   0  0  0  1  0  0  0  0  0  0  0  0
   -3.0273    3.0035   -3.1645 C   0  0  0  1  0  0  0  0  0  0  0  0
   -2.7828    2.5739   -1.8737 C   0  0  0  1  0  0  0  0  0  0  0  0
   -3.8042    2.0081   -1.1265 C   0  0  0  1  0  0  0  0  0  0  0  0
   -1.4031    2.7206   -1.2768 C   0  0  0  1  0  0  0  0  0  0  0  0
   -4.5723    3.2640   -4.9688 F   0  0  0  1  0  0  0  0  0  0  0  0
   -6.2607    2.1984   -3.3791 H   0  0  0  1  0  0  0  0  0  0  0  0
   -2.2621    3.4316   -3.7237 H   0  0  0  1  0  0  0  0  0  0  0  0
   -3.6213    1.6886   -0.1539 H   0  0  0  1  0  0  0  0  0  0  0  0
   -0.7406    2.0744   -1.8139 H   0  0  0  1  0  0  0  0  0  0  0  0
   -1.0937    3.7367   -1.4063 H   0  0  0  1  0  0  0  0  0  0  0  0
  1  4  1  0  0  0  0
  2  4  1  0  0  0  0
  2  5  2  0  0  0  0
  2  6  1  0  0  0  0
  3  4  1  0  0  0  0
  3  7  1  0  0  0  0
  3  8  1  0  0  0  0
  4 26  1  0  0  0  0
  6  9  1  0  0  0  0
  6 12  1  0  0  0  0
  8 10  1  0  0  0  0
  8 11  2  0  0  0  0
  9 13  1  0  0  0  0
  9 14  1  0  0  0  0
  9 15  1  0  0  0  0
 10 16  1  0  0  0  0
 10 17  1  0  0  0  0
 10 18  1  0  0  0  0
 19 20  1  0  0  0  0
 20 21  4  0  0  0  0
 20 25  4  0  0  0  0
 21 22  4  0  0  0  0
 21 28  1  0  0  0  0
 22 23  4  0  0  0  0
 22 27  1  0  0  0  0
 23 24  4  0  0  0  0
 23 29  1  0  0  0  0
 24 25  4  0  0  0  0
 24 26  1  0  0  0  0
 25 30  1  0  0  0  0
 26 31  1  0  0  0  0
 26 32  1  0  0  0  0
M  END
> <BCLConfClusterSize>
1

> <ConfClashScore>
0 

> <ConfOneFourInteractionScore>
-0.949001 

> <ConfScore>
0.296926 

> <ConfScorePBest>
0.00472943 

> <ConfTolerance>
0.632532 

> <RosettaParamsInstructions>
M  ROOT 3
M  POLY_N_BB 3
M  POLY_CA_BB 4
M  POLY_C_BB 2
M  POLY_O_BB 5
M  POLY_IGNORE 9 10 11 12 13 14 15 16 17 18 
M  POLY_UPPER 6
M  POLY_LOWER 8
M  POLY_CHG 0
M  POLY_PROPERTIES ALPHA_AA D_AA PROTEIN AROMATIC POLYMER 
M  END

$$$$



 32 32  0  0  0  0  0  0  0  0999 V2000
    0.4187    1.7022   -0.9805 H   0  0  0  1  0  0  0  0  0  0  0  0
    0.1447    1.8538   -3.0547 C   0  0  0  1  0  0  0  0  0  0  0  0
   -1.0101    0.3227   -1.5134 N   0  0  0  1  0  0  0  0  0  0  0  0
   -0.4031    1.6356   -1.6624 C   0  0  0  1  0  0  0  0  0  0  0  0
    1.1525    2.5353   -3.2364 O   0  0  0  1  0  0  0  0  0  0  0  0
   -0.5009    1.2824   -4.0836 N   0  0  0  1  0  0  0  0  0  0  0  0
   -1.9791    0.2336   -1.6297 H   0  0  0  1  0  0  0  0  0  0  0  0
   -0.2927   -0.7665   -1.2234 C   0  0  0  1  0  0  0  0  0  0  0  0
   -0.0761    1.5466   -5.4502 C   0  0  0  1  0  0  0  0  0  0  0  0
   -1.0849   -2.0449   -1.0302 C   0  0  0  1  0  0  0  0  0  0  0  0
    0.9328   -0.7524   -1.1159 O   0  0  0  1  0  0  0  0  0  0  0  0
   -1.2599    0.6861   -3.9142 H   0  0  0  1  0  0  0  0  0  0  0  0
    0.4355    2.4856   -5.4900 H   0  0  0  1  0  0  0  0  0  0  0  0
   -0.9333    1.5804   -6.0897 H   0  0  0  1  0  0  0  0  0  0  0  0
    0.5820    0.7682   -5.7757 H   0  0  0  1  0  0  0  0  0  0  0  0
   -0.9355   -2.4108   -0.0359 H   0  0  0  1  0  0  0  0  0  0  0  0
   -0.7532   -2.7795   -1.7339 H   0  0  0  1  0  0  0  0  0  0  0  0
   -2.1249   -1.8464   -1.1845 H   0  0  0  1  0  0  0  0  0  0  0  0
   -6.0782    1.3188   -0.9770 F   0  0  0  1  0  0  0  0  0  0  0  0
   -5.0612    1.8678   -1.6685 C   0  0  0  1  0  0  0  0  0  0  0  0
   -5.3093    2.2978   -2.9628 C   0  0  0  1  0  0  0  0  0  0  0  0
   -4.2932    2.8622   -3.7104 C   0  0  0  1  0  0  0  0  0  0  0  0
   -3.0271    3.0034   -3.1640 C   0  0  0  1  0  0  0  0  0  0  0  0
   -2.7794    2.5748   -1.8736 C   0  0  0  1  0  0  0  0  0  0  0  0
   -3.7987    2.0086   -1.1238 C   0  0  0  1  0  0  0  0  0  0  0  0
   -1.3985    2.7230   -1.2797 C   0  0  0  1  0  0  0  0  0  0  0  0
   -4.5761    3.2616   -4.9652 F   0  0  0  1  0  0  0  0  0  0  0  0
   -6.2602    2.1955   -3.3713 H   0  0  0  1  0  0  0  0  0  0  0  0
   -2.2634    3.4318   -3.7252 H   0  0  0  1  0  0  0  0  0  0  0  0
   -3.6135    1.6898   -0.1514 H   0  0  0  1  0  0  0  0  0  0  0  0
   -1.0003    3.6628   -1.6006 H   0  0  0  1  0  0  0  0  0  0  0  0
   -1.4956    2.7214   -0.2141 H   0  0  0  1  0  0  0  0  0  0  0  0
  1  4  1  0  0  0  0
  2  4  1  0  0  0  0
  2  5  2  0  0  0  0
  2  6  1  0  0  0  0
  3  4  1  0  0  0  0
  3  7  1  0  0  0  0
  3  8  1  0  0  0  0
  4 26  1  0  0  0  0
  6  9  1  0  0  0  0
  6 12  1  0  0  0  0
  8 10  1  0  0  0  0
  8 11  2  0  0  0  0
  9 13  1  0  0  0  0
  9 14  1  0  0  0  0
  9 15  1  0  0  0  0
 10 16  1  0  0  0  0
 10 17  1  0  0  0  0
 10 18  1  0  0  0  0
 19 20  1  0  0  0  0
 20 21  4  0  0  0  0
 20 25  4  0  0  0  0
 21 22  4  0  0  0  0
 21 28  1  0  0  0  0
 22 23  4  0  0  0  0
 22 27  1  0  0  0  0
 23 24  4  0  0  0  0
 23 29  1  0  0  0  0
 24 25  4  0  0  0  0
 24 26  1  0  0  0  0
 25 30  1  0  0  0  0
 26 31  1  0  0  0  0
 26 32  1  0  0  0  0
M  END
> <BCLConfClusterSize>
1

> <ConfClashScore>
0 

> <ConfOneFourInteractionScore>
-0.950605 

> <ConfScore>
0.297386 

> <ConfScorePBest>
0.00470095 

> <ConfTolerance>
0.545655 

> <RosettaParamsInstructions>
M  ROOT 3
M  POLY_N_BB 3
M  POLY_CA_BB 4
M  POLY_C_BB 2
M  POLY_O_BB 5
M  POLY_IGNORE 9 10 11 12 13 14 15 16 17 18 
M  POLY_UPPER 6
M  POLY_LOWER 8
M  POLY_CHG 0
M  POLY_PROPERTIES ALPHA_AA D_AA PROTEIN AROMATIC POLYMER 
M  END

$$$$



 32 32  0  0  0  0  0  0  0  0999 V2000
   -1.1334    4.7576   -1.6807 H   0  0  0  1  0  0  0  0  0  0  0  0
    0.3183    4.2251   -0.2510 C   0  0  0  1  0  0  0  0  0  0  0  0
   -2.1048    4.4857    0.1185 N   0  0  0  1  0  0  0  0  0  0  0  0
   -1.0753    4.1021   -0.8370 C   0  0  0  1  0  0  0  0  0  0  0  0
    0.4951    4.3064    0.9636 O   0  0  0  1  0  0  0  0  0  0  0  0
    1.3252    4.2382   -1.1387 N   0  0  0  1  0  0  0  0  0  0  0  0
   -2.6373    3.7732    0.5299 H   0  0  0  1  0  0  0  0  0  0  0  0
   -2.3721    5.7577    0.4730 C   0  0  0  1  0  0  0  0  0  0  0  0
    2.7275    4.4383   -0.8051 C   0  0  0  1  0  0  0  0  0  0  0  0
   -3.4581    5.8823    1.5339 C   0  0  0  1  0  0  0  0  0  0  0  0
   -1.8177    6.7366    0.0100 O   0  0  0  1  0  0  0  0  0  0  0  0
    1.0988    4.1029   -2.0826 H   0  0  0  1  0  0  0  0  0  0  0  0
    2.9265    4.0277    0.1628 H   0  0  0  1  0  0  0  0  0  0  0  0
    2.9467    5.4856   -0.7998 H   0  0  0  1  0  0  0  0  0  0  0  0
    3.3404    3.9487   -1.5328 H   0  0  0  1  0  0  0  0  0  0  0  0
   -4.3596    5.4297    1.1770 H   0  0  0  1  0  0  0  0  0  0  0  0
   -3.6366    6.9167    1.7415 H   0  0  0  1  0  0  0  0  0  0  0  0
   -3.1410    5.3881    2.4283 H   0  0  0  1  0  0  0  0  0  0  0  0
   -6.0595    1.3058   -0.9485 F   0  0  0  1  0  0  0  0  0  0  0  0
   -5.0703    1.8668   -1.6702 C   0  0  0  1  0  0  0  0  0  0  0  0
   -5.3133    2.2910   -2.9673 C   0  0  0  1  0  0  0  0  0  0  0  0
   -4.2969    2.8617   -3.7098 C   0  0  0  1  0  0  0  0  0  0  0  0
   -3.0357    3.0148   -3.1554 C   0  0  0  1  0  0  0  0  0  0  0  0
   -2.7931    2.5919   -1.8621 C   0  0  0  1  0  0  0  0  0  0  0  0
   -3.8127    2.0195   -1.1175 C   0  0  0  1  0  0  0  0  0  0  0  0
   -1.3813    2.6818   -1.3328 C   0  0  0  1  0  0  0  0  0  0  0  0
   -4.5319    3.2691   -4.9719 F   0  0  0  1  0  0  0  0  0  0  0  0
   -6.2607    2.1798   -3.3818 H   0  0  0  1  0  0  0  0  0  0  0  0
   -2.2719    3.4480   -3.7127 H   0  0  0  1  0  0  0  0  0  0  0  0
   -3.6313    1.7049   -0.1430 H   0  0  0  1  0  0  0  0  0  0  0  0
   -1.2667    1.9944   -0.5208 H   0  0  0  1  0  0  0  0  0  0  0  0
   -0.6966    2.4281   -2.1149 H   0  0  0  1  0  0  0  0  0  0  0  0
  1  4  1  0  0  0  0
  2  4  1  0  0  0  0
  2  5  2  0  0  0  0
  2  6  1  0  0  0  0
  3  4  1  0  0  0  0
  3  7  1  0  0  0  0
  3  8  1  0  0  0  0
  4 26  1  0  0  0  0
  6  9  1  0  0  0  0
  6 12  1  0  0  0  0
  8 10  1  0  0  0  0
  8 11  2  0  0  0  0
  9 13  1  0  0  0  0
  9 14  1  0  0  0  0
  9 15  1  0  0  0  0
 10 16  1  0  0  0  0
 10 17  1  0  0  0  0
 10 18  1  0  0  0  0
 19 20  1  0  0  0  0
 20 21  4  0  0  0  0
 20 25  4  0  0  0  0
 21 22  4  0  0  0  0
 21 28  1  0  0  0  0
 22 23  4  0  0  0  0
 22 27  1  0  0  0  0
 23 24  4  0  0  0  0
 23 29  1  0  0  0  0
 24 25  4  0  0  0  0
 24 26  1  0  0  0  0
 25 30  1  0  0  0  0
 26 31  1  0  0  0  0
 26 32  1  0  0  0  0
M  END
> <BCLConfClusterSize>
1

> <ConfClashScore>
0 

> <ConfOneFourInteractionScore>
-0.985807 

> <ConfScore>
0.302904 

> <ConfScorePBest>
0.00467247 

> <ConfTolerance>
0.428872 

> <RosettaParamsInstructions>
M  ROOT 3
M  POLY_N_BB 3
M  POLY_CA_BB 4
M  POLY_C_BB 2
M  POLY_O_BB 5
M  POLY_IGNORE 9 10 11 12 13 14 15 16 17 18 
M  POLY_UPPER 6
M  POLY_LOWER 8
M  POLY_CHG 0
M  POLY_PROPERTIES ALPHA_AA D_AA PROTEIN AROMATIC POLYMER 
M  END

$$$$



 32 32  0  0  0  0  0  0  0  0999 V2000
   -0.3710    1.8653   -2.8950 H   0  0  0  1  0  0  0  0  0  0  0  0
   -0.7731    0.3377   -1.5028 C   0  0  0  1  0  0  0  0  0  0  0  0
    0.9845    2.1096   -1.3711 N   0  0  0  1  0  0  0  0  0  0  0  0
   -0.3542    1.7695   -1.8294 C   0  0  0  1  0  0  0  0  0  0  0  0
   -1.5866    0.1066   -0.6096 O   0  0  0  1  0  0  0  0  0  0  0  0
   -0.2274   -0.6583   -2.2185 N   0  0  0  1  0  0  0  0  0  0  0  0
    1.0667    2.8159   -0.6967 H   0  0  0  1  0  0  0  0  0  0  0  0
    2.1146    1.5290   -1.8023 C   0  0  0  1  0  0  0  0  0  0  0  0
   -0.5698   -2.0549   -1.9942 C   0  0  0  1  0  0  0  0  0  0  0  0
    3.4052    2.1397   -1.2917 C   0  0  0  1  0  0  0  0  0  0  0  0
    2.1230    0.5624   -2.5633 O   0  0  0  1  0  0  0  0  0  0  0  0
    0.4242   -0.4373   -2.9164 H   0  0  0  1  0  0  0  0  0  0  0  0
   -1.2922   -2.1236   -1.2078 H   0  0  0  1  0  0  0  0  0  0  0  0
    0.3100   -2.5977   -1.7184 H   0  0  0  1  0  0  0  0  0  0  0  0
   -0.9791   -2.4701   -2.8914 H   0  0  0  1  0  0  0  0  0  0  0  0
    3.5071    3.1329   -1.6766 H   0  0  0  1  0  0  0  0  0  0  0  0
    4.2336    1.5451   -1.6158 H   0  0  0  1  0  0  0  0  0  0  0  0
    3.3855    2.1721   -0.2224 H   0  0  0  1  0  0  0  0  0  0  0  0
   -6.0561    1.3124   -0.9444 F   0  0  0  1  0  0  0  0  0  0  0  0
   -5.0671    1.8672   -1.6711 C   0  0  0  1  0  0  0  0  0  0  0  0
   -5.3152    2.2971   -2.9653 C   0  0  0  1  0  0  0  0  0  0  0  0
   -4.2991    2.8616   -3.7130 C   0  0  0  1  0  0  0  0  0  0  0  0
   -3.0330    3.0027   -3.1666 C   0  0  0  1  0  0  0  0  0  0  0  0
   -2.7853    2.5741   -1.8761 C   0  0  0  1  0  0  0  0  0  0  0  0
   -3.8046    2.0080   -1.1264 C   0  0  0  1  0  0  0  0  0  0  0  0
   -1.4045    2.7223   -1.2822 C   0  0  0  1  0  0  0  0  0  0  0  0
   -4.5390    3.2745   -4.9723 F   0  0  0  1  0  0  0  0  0  0  0  0
   -6.2661    2.1949   -3.3738 H   0  0  0  1  0  0  0  0  0  0  0  0
   -2.2693    3.4311   -3.7277 H   0  0  0  1  0  0  0  0  0  0  0  0
   -3.6194    1.6891   -0.1540 H   0  0  0  1  0  0  0  0  0  0  0  0
   -1.0713    3.7222   -1.4670 H   0  0  0  1  0  0  0  0  0  0  0  0
   -1.4797    2.5601   -0.2273 H   0  0  0  1  0  0  0  0  0  0  0  0
  1  4  1  0  0  0  0
  2  4  1  0  0  0  0
  2  5  2  0  0  0  0
  2  6  1  0  0  0  0
  3  4  1  0  0  0  0
  3  7  1  0  0  0  0
  3  8  1  0  0  0  0
  4 26  1  0  0  0  0
  6  9  1  0  0  0  0
  6 12  1  0  0  0  0
  8 10  1  0  0  0  0
  8 11  2  0  0  0  0
  9 13  1  0  0  0  0
  9 14  1  0  0  0  0
  9 15  1  0  0  0  0
 10 16  1  0  0  0  0
 10 17  1  0  0  0  0
 10 18  1  0  0  0  0
 19 20  1  0  0  0  0
 20 21  4  0  0  0  0
 20 25  4  0  0  0  0
 21 22  4  0  0  0  0
 21 28  1  0  0  0  0
 22 23  4  0  0  0  0
 22 27  1  0  0  0  0
 23 24  4  0  0  0  0
 23 29  1  0  0  0  0
 24 25  4  0  0  0  0
 24 26  1  0  0  0  0
 25 30  1  0  0  0  0
 26 31  1  0  0  0  0
 26 32  1  0  0  0  0
M  END
> <BCLConfClusterSize>
1

> <ConfClashScore>
0 

> <ConfOneFourInteractionScore>
-0.979134 

> <ConfScore>
0.303506 

> <ConfScorePBest>
0.00464399 

> <ConfTolerance>
0.438829 

> <RosettaParamsInstructions>
M  ROOT 3
M  POLY_N_BB 3
M  POLY_CA_BB 4
M  POLY_C_BB 2
M  POLY_O_BB 5
M  POLY_IGNORE 9 10 11 12 13 14 15 16 17 18 
M  POLY_UPPER 6
M  POLY_LOWER 8
M  POLY_CHG 0
M  POLY_PROPERTIES ALPHA_AA D_AA PROTEIN AROMATIC POLYMER 
M  END

$$$$



 32 32  0  0  0  0  0  0  0  0999 V2000
   -1.9205    4.1524    0.1210 H   0  0  0  1  0  0  0  0  0  0  0  0
   -1.0552    5.1346   -1.5358 C   0  0  0  1  0  0  0  0  0  0  0  0
    0.1245    3.8546    0.2016 N   0  0  0  1  0  0  0  0  0  0  0  0
   -1.1113    3.9778   -0.5570 C   0  0  0  1  0  0  0  0  0  0  0  0
   -1.5155    5.0328   -2.6699 O   0  0  0  1  0  0  0  0  0  0  0  0
   -0.4766    6.2562   -1.0802 N   0  0  0  1  0  0  0  0  0  0  0  0
    0.0735    3.7422    1.1738 H   0  0  0  1  0  0  0  0  0  0  0  0
    1.3262    3.8892   -0.3813 C   0  0  0  1  0  0  0  0  0  0  0  0
   -0.2735    7.4545   -1.8806 C   0  0  0  1  0  0  0  0  0  0  0  0
    2.5148    3.7639    0.5518 C   0  0  0  1  0  0  0  0  0  0  0  0
    1.4783    4.0143   -1.5958 O   0  0  0  1  0  0  0  0  0  0  0  0
   -0.1713    6.2692   -0.1490 H   0  0  0  1  0  0  0  0  0  0  0  0
   -0.2446    8.3112   -1.2402 H   0  0  0  1  0  0  0  0  0  0  0  0
   -1.0784    7.5579   -2.5781 H   0  0  0  1  0  0  0  0  0  0  0  0
    0.6517    7.3755   -2.4122 H   0  0  0  1  0  0  0  0  0  0  0  0
    2.2406    3.1755    1.4024 H   0  0  0  1  0  0  0  0  0  0  0  0
    2.8185    4.7377    0.8749 H   0  0  0  1  0  0  0  0  0  0  0  0
    3.3240    3.2900    0.0365 H   0  0  0  1  0  0  0  0  0  0  0  0
   -6.0746    1.3110   -0.9733 F   0  0  0  1  0  0  0  0  0  0  0  0
   -5.0619    1.8673   -1.6654 C   0  0  0  1  0  0  0  0  0  0  0  0
   -5.3120    2.2894   -2.9618 C   0  0  0  1  0  0  0  0  0  0  0  0
   -4.3003    2.8609   -3.7101 C   0  0  0  1  0  0  0  0  0  0  0  0
   -3.0366    3.0169   -3.1621 C   0  0  0  1  0  0  0  0  0  0  0  0
   -2.7869    2.5961   -1.8695 C   0  0  0  1  0  0  0  0  0  0  0  0
   -3.8018    2.0229   -1.1191 C   0  0  0  1  0  0  0  0  0  0  0  0
   -1.3898    2.6678   -1.2999 C   0  0  0  1  0  0  0  0  0  0  0  0
   -4.5421    3.2662   -4.9715 F   0  0  0  1  0  0  0  0  0  0  0  0
   -6.2612    2.1760   -3.3715 H   0  0  0  1  0  0  0  0  0  0  0  0
   -2.2763    3.4506   -3.7237 H   0  0  0  1  0  0  0  0  0  0  0  0
   -3.6151    1.7099   -0.1451 H   0  0  0  1  0  0  0  0  0  0  0  0
   -1.2582    1.8545   -0.6172 H   0  0  0  1  0  0  0  0  0  0  0  0
   -0.6893    2.5765   -2.1035 H   0  0  0  1  0  0  0  0  0  0  0  0
  1  4  1  0  0  0  0
  2  4  1  0  0  0  0
  2  5  2  0  0  0  0
  2  6  1  0  0  0  0
  3  4  1  0  0  0  0
  3  7  1  0  0  0  0
  3  8  1  0  0  0  0
  4 26  1  0  0  0  0
  6  9  1  0  0  0  0
  6 12  1  0  0  0  0
  8 10  1  0  0  0  0
  8 11  2  0  0  0  0
  9 13  1  0  0  0  0
  9 14  1  0  0  0  0
  9 15  1  0  0  0  0
 10 16  1  0  0  0  0
 10 17  1  0  0  0  0
 10 18  1  0  0  0  0
 19 20  1  0  0  0  0
 20 21  4  0  0  0  0
 20 25  4  0  0  0  0
 21 22  4  0  0  0  0
 21 28  1  0  0  0  0
 22 23  4  0  0  0  0
 22 27  1  0  0  0  0
 23 24  4  0  0  0  0
 23 29  1  0  0  0  0
 24 25  4  0  0  0  0
 24 26  1  0  0  0  0
 25 30  1  0  0  0  0
 26 31  1  0  0  0  0
 26 32  1  0  0  0  0
M  END
> <BCLConfClusterSize>
1

> <ConfClashScore>
0 

> <ConfOneFourInteractionScore>
-0.957364 

> <ConfScore>
0.305929 

> <ConfScorePBest>
0.00461551 

> <ConfTolerance>
0.207195 

> <RosettaParamsInstructions>
M  ROOT 3
M  POLY_N_BB 3
M  POLY_CA_BB 4
M  POLY_C_BB 2
M  POLY_O_BB 5
M  POLY_IGNORE 9 10 11 12 13 14 15 16 17 18 
M  POLY_UPPER 6
M  POLY_LOWER 8
M  POLY_CHG 0
M  POLY_PROPERTIES ALPHA_AA D_AA PROTEIN AROMATIC POLYMER 
M  END

$$$$



 32 32  0  0  0  0  0  0  0  0999 V2000
   -1.2695    0.6523   -1.0101 H   0  0  0  1  0  0  0  0  0  0  0  0
    0.4645    1.3800   -0.1531 C   0  0  0  1  0  0  0  0  0  0  0  0
   -0.0424    1.1099   -2.5815 N   0  0  0  1  0  0  0  0  0  0  0  0
   -0.5838    1.4406   -1.2410 C   0  0  0  1  0  0  0  0  0  0  0  0
    1.6393    1.6554   -0.3929 O   0  0  0  1  0  0  0  0  0  0  0  0
    0.0729    1.0156    1.0855 N   0  0  0  1  0  0  0  0  0  0  0  0
   -0.5113    0.4474   -3.1307 H   0  0  0  1  0  0  0  0  0  0  0  0
    1.0731    1.6895   -3.0713 C   0  0  0  1  0  0  0  0  0  0  0  0
    1.0584    0.8434    2.1423 C   0  0  0  1  0  0  0  0  0  0  0  0
    1.6413    1.1558   -4.3668 C   0  0  0  1  0  0  0  0  0  0  0  0
    1.6141    2.6249   -2.4831 O   0  0  0  1  0  0  0  0  0  0  0  0
   -0.8772    0.8665    1.2739 H   0  0  0  1  0  0  0  0  0  0  0  0
    1.9088    1.4611    1.9418 H   0  0  0  1  0  0  0  0  0  0  0  0
    1.3636   -0.1814    2.1816 H   0  0  0  1  0  0  0  0  0  0  0  0
    0.6275    1.1240    3.0807 H   0  0  0  1  0  0  0  0  0  0  0  0
    1.5072    0.0949   -4.4054 H   0  0  0  1  0  0  0  0  0  0  0  0
    2.6850    1.3853   -4.4196 H   0  0  0  1  0  0  0  0  0  0  0  0
    1.1336    1.6094   -5.1923 H   0  0  0  1  0  0  0  0  0  0  0  0
   -6.0489    1.3153   -0.9470 F   0  0  0  1  0  0  0  0  0  0  0  0
   -5.0608    1.8703   -1.6747 C   0  0  0  1  0  0  0  0  0  0  0  0
   -5.3103    2.2998   -2.9688 C   0  0  0  1  0  0  0  0  0  0  0  0
   -4.2951    2.8645   -3.7176 C   0  0  0  1  0  0  0  0  0  0  0  0
   -3.0286    3.0062   -3.1724 C   0  0  0  1  0  0  0  0  0  0  0  0
   -2.7795    2.5780   -1.8821 C   0  0  0  1  0  0  0  0  0  0  0  0
   -3.7979    2.0117   -1.1312 C   0  0  0  1  0  0  0  0  0  0  0  0
   -1.4192    2.7010   -1.2372 C   0  0  0  1  0  0  0  0  0  0  0  0
   -4.5794    3.2634   -4.9722 F   0  0  0  1  0  0  0  0  0  0  0  0
   -6.2616    2.1971   -3.3764 H   0  0  0  1  0  0  0  0  0  0  0  0
   -2.2656    3.4348   -3.7344 H   0  0  0  1  0  0  0  0  0  0  0  0
   -3.6116    1.6931   -0.1589 H   0  0  0  1  0  0  0  0  0  0  0  0
   -0.8741    3.4599   -1.7585 H   0  0  0  1  0  0  0  0  0  0  0  0
   -1.5621    2.9992   -0.2195 H   0  0  0  1  0  0  0  0  0  0  0  0
  1  4  1  0  0  0  0
  2  4  1  0  0  0  0
  2  5  2  0  0  0  0
  2  6  1  0  0  0  0
  3  4  1  0  0  0  0
  3  7  1  0  0  0  0
  3  8  1  0  0  0  0
  4 26  1  0  0  0  0
  6  9  1  0  0  0  0
  6 12  1  0  0  0  0
  8 10  1  0  0  0  0
  8 11  2  0  0  0  0
  9 13  1  0  0  0  0
  9 14  1  0  0  0  0
  9 15  1  0  0  0  0
 10 16  1  0  0  0  0
 10 17  1  0  0  0  0
 10 18  1  0  0  0  0
 19 20  1  0  0  0  0
 20 21  4  0  0  0  0
 20 25  4  0  0  0  0
 21 22  4  0  0  0  0
 21 28  1  0  0  0  0
 22 23  4  0  0  0  0
 22 27  1  0  0  0  0
 23 24  4  0  0  0  0
 23 29  1  0  0  0  0
 24 25  4  0  0  0  0
 24 26  1  0  0  0  0
 25 30  1  0  0  0  0
 26 31  1  0  0  0  0
 26 32  1  0  0  0  0
M  END
> <BCLConfClusterSize>
1

> <ConfClashScore>
0 

> <ConfOneFourInteractionScore>
-0.987258 

> <ConfScore>
0.308978 

> <ConfScorePBest>
0.00458703 

> <ConfTolerance>
0.627982 

> <RosettaParamsInstructions>
M  ROOT 3
M  POLY_N_BB 3
M  POLY_CA_BB 4
M  POLY_C_BB 2
M  POLY_O_BB 5
M  POLY_IGNORE 9 10 11 12 13 14 15 16 17 18 
M  POLY_UPPER 6
M  POLY_LOWER 8
M  POLY_CHG 0
M  POLY_PROPERTIES ALPHA_AA D_AA PROTEIN AROMATIC POLYMER 
M  END

$$$$



 32 32  0  0  0  0  0  0  0  0999 V2000
   -2.0656    4.1657    0.1378 H   0  0  0  1  0  0  0  0  0  0  0  0
   -1.1995    5.1970   -1.4710 C   0  0  0  1  0  0  0  0  0  0  0  0
   -0.0242    3.9786    0.3157 N   0  0  0  1  0  0  0  0  0  0  0  0
   -1.2229    4.0318   -0.5078 C   0  0  0  1  0  0  0  0  0  0  0  0
   -1.3645    6.3519   -1.0803 O   0  0  0  1  0  0  0  0  0  0  0  0
   -0.9854    4.8784   -2.7842 N   0  0  0  1  0  0  0  0  0  0  0  0
   -0.1056    3.7018    1.2522 H   0  0  0  1  0  0  0  0  0  0  0  0
    1.1887    4.2955   -0.1627 C   0  0  0  1  0  0  0  0  0  0  0  0
   -1.0050    5.9551   -3.7630 C   0  0  0  1  0  0  0  0  0  0  0  0
    2.3648    4.2560    0.7935 C   0  0  0  1  0  0  0  0  0  0  0  0
    1.3446    4.6092   -1.3421 O   0  0  0  1  0  0  0  0  0  0  0  0
   -0.8235    3.9514   -3.0579 H   0  0  0  1  0  0  0  0  0  0  0  0
   -0.8161    5.5555   -4.7374 H   0  0  0  1  0  0  0  0  0  0  0  0
   -0.2492    6.6722   -3.5192 H   0  0  0  1  0  0  0  0  0  0  0  0
   -1.9641    6.4293   -3.7521 H   0  0  0  1  0  0  0  0  0  0  0  0
    2.0169    4.0226    1.7781 H   0  0  0  1  0  0  0  0  0  0  0  0
    2.8484    5.2104    0.8033 H   0  0  0  1  0  0  0  0  0  0  0  0
    3.0590    3.5070    0.4740 H   0  0  0  1  0  0  0  0  0  0  0  0
   -6.0485    1.3134   -0.9416 F   0  0  0  1  0  0  0  0  0  0  0  0
   -5.0624    1.8688   -1.6718 C   0  0  0  1  0  0  0  0  0  0  0  0
   -5.3150    2.2973   -2.9656 C   0  0  0  1  0  0  0  0  0  0  0  0
   -4.3018    2.8624   -3.7169 C   0  0  0  1  0  0  0  0  0  0  0  0
   -3.0342    3.0054   -3.1745 C   0  0  0  1  0  0  0  0  0  0  0  0
   -2.7821    2.5782   -1.8845 C   0  0  0  1  0  0  0  0  0  0  0  0
   -3.7984    2.0115   -1.1311 C   0  0  0  1  0  0  0  0  0  0  0  0
   -1.4205    2.7027   -1.2425 C   0  0  0  1  0  0  0  0  0  0  0  0
   -4.5461    3.2739   -4.9758 F   0  0  0  1  0  0  0  0  0  0  0  0
   -6.2671    2.1936   -3.3711 H   0  0  0  1  0  0  0  0  0  0  0  0
   -2.2728    3.4343   -3.7384 H   0  0  0  1  0  0  0  0  0  0  0  0
   -3.6098    1.6937   -0.1590 H   0  0  0  1  0  0  0  0  0  0  0  0
   -1.3008    1.9043   -0.5403 H   0  0  0  1  0  0  0  0  0  0  0  0
   -0.6753    2.6215   -2.0061 H   0  0  0  1  0  0  0  0  0  0  0  0
  1  4  1  0  0  0  0
  2  4  1  0  0  0  0
  2  5  2  0  0  0  0
  2  6  1  0  0  0  0
  3  4  1  0  0  0  0
  3  7  1  0  0  0  0
  3  8  1  0  0  0  0
  4 26  1  0  0  0  0
  6  9  1  0  0  0  0
  6 12  1  0  0  0  0
  8 10  1  0  0  0  0
  8 11  2  0  0  0  0
  9 13  1  0  0  0  0
  9 14  1  0  0  0  0
  9 15  1  0  0  0  0
 10 16  1  0  0  0  0
 10 17  1  0  0  0  0
 10 18  1  0  0  0  0
 19 20  1  0  0  0  0
 20 21  4  0  0  0  0
 20 25  4  0  0  0  0
 21 22  4  0  0  0  0
 21 28  1  0  0  0  0
 22 23  4  0  0  0  0
 22 27  1  0  0  0  0
 23 24  4  0  0  0  0
 23 29  1  0  0  0  0
 24 25  4  0  0  0  0
 24 26  1  0  0  0  0
 25 30  1  0  0  0  0
 26 31  1  0  0  0  0
 26 32  1  0  0  0  0
M  END
> <BCLConfClusterSize>
1

> <ConfClashScore>
0.000634517 

> <ConfOneFourInteractionScore>
-0.927621 

> <ConfScore>
0.310595 

> <ConfScorePBest>
0.00455855 

> <ConfTolerance>
0.361916 

> <RosettaParamsInstructions>
M  ROOT 3
M  POLY_N_BB 3
M  POLY_CA_BB 4
M  POLY_C_BB 2
M  POLY_O_BB 5
M  POLY_IGNORE 9 10 11 12 13 14 15 16 17 18 
M  POLY_UPPER 6
M  POLY_LOWER 8
M  POLY_CHG 0
M  POLY_PROPERTIES ALPHA_AA D_AA PROTEIN AROMATIC POLYMER 
M  END

$$$$



 32 32  0  0  0  0  0  0  0  0999 V2000
   -1.9987    3.0322    0.7156 H   0  0  0  1  0  0  0  0  0  0  0  0
   -1.7838    4.9588   -0.1093 C   0  0  0  1  0  0  0  0  0  0  0  0
    0.0202    3.4627    0.5708 N   0  0  0  1  0  0  0  0  0  0  0  0
   -1.3411    3.5082    0.0185 C   0  0  0  1  0  0  0  0  0  0  0  0
   -2.0118    5.6454    0.8832 O   0  0  0  1  0  0  0  0  0  0  0  0
   -1.9038    5.4212   -1.3570 N   0  0  0  1  0  0  0  0  0  0  0  0
    0.2307    2.7937    1.2553 H   0  0  0  1  0  0  0  0  0  0  0  0
    0.9805    4.3017    0.1722 C   0  0  0  1  0  0  0  0  0  0  0  0
   -2.2506    6.8054   -1.6430 C   0  0  0  1  0  0  0  0  0  0  0  0
    2.3328    4.1306    0.8522 C   0  0  0  1  0  0  0  0  0  0  0  0
    0.8041    5.1563   -0.6803 O   0  0  0  1  0  0  0  0  0  0  0  0
   -1.7531    4.8070   -2.1056 H   0  0  0  1  0  0  0  0  0  0  0  0
   -2.0180    7.4145   -0.7947 H   0  0  0  1  0  0  0  0  0  0  0  0
   -3.2972    6.8741   -1.8549 H   0  0  0  1  0  0  0  0  0  0  0  0
   -1.6917    7.1452   -2.4898 H   0  0  0  1  0  0  0  0  0  0  0  0
    3.0422    3.7518    0.1463 H   0  0  0  1  0  0  0  0  0  0  0  0
    2.2380    3.4427    1.6663 H   0  0  0  1  0  0  0  0  0  0  0  0
    2.6683    5.0771    1.2216 H   0  0  0  1  0  0  0  0  0  0  0  0
   -6.0335    1.3084   -0.9179 F   0  0  0  1  0  0  0  0  0  0  0  0
   -5.0716    1.8680   -1.6765 C   0  0  0  1  0  0  0  0  0  0  0  0
   -5.3166    2.2989   -2.9710 C   0  0  0  1  0  0  0  0  0  0  0  0
   -4.2984    2.8630   -3.7161 C   0  0  0  1  0  0  0  0  0  0  0  0
   -3.0333    3.0028   -3.1670 C   0  0  0  1  0  0  0  0  0  0  0  0
   -2.7888    2.5732   -1.8762 C   0  0  0  1  0  0  0  0  0  0  0  0
   -3.8102    2.0074   -1.1290 C   0  0  0  1  0  0  0  0  0  0  0  0
   -1.4091    2.7199   -1.2793 C   0  0  0  1  0  0  0  0  0  0  0  0
   -4.5352    3.2769   -4.9757 F   0  0  0  1  0  0  0  0  0  0  0  0
   -6.2667    2.1977   -3.3816 H   0  0  0  1  0  0  0  0  0  0  0  0
   -2.2681    3.4309   -3.7262 H   0  0  0  1  0  0  0  0  0  0  0  0
   -3.6273    1.6879   -0.1564 H   0  0  0  1  0  0  0  0  0  0  0  0
   -1.0252    1.7392   -1.0903 H   0  0  0  1  0  0  0  0  0  0  0  0
   -0.7892    3.2136   -1.9982 H   0  0  0  1  0  0  0  0  0  0  0  0
  1  4  1  0  0  0  0
  2  4  1  0  0  0  0
  2  5  2  0  0  0  0
  2  6  1  0  0  0  0
  3  4  1  0  0  0  0
  3  7  1  0  0  0  0
  3  8  1  0  0  0  0
  4 26  1  0  0  0  0
  6  9  1  0  0  0  0
  6 12  1  0  0  0  0
  8 10  1  0  0  0  0
  8 11  2  0  0  0  0
  9 13  1  0  0  0  0
  9 14  1  0  0  0  0
  9 15  1  0  0  0  0
 10 16  1  0  0  0  0
 10 17  1  0  0  0  0
 10 18  1  0  0  0  0
 19 20  1  0  0  0  0
 20 21  4  0  0  0  0
 20 25  4  0  0  0  0
 21 22  4  0  0  0  0
 21 28  1  0  0  0  0
 22 23  4  0  0  0  0
 22 27  1  0  0  0  0
 23 24  4  0  0  0  0
 23 29  1  0  0  0  0
 24 25  4  0  0  0  0
 24 26  1  0  0  0  0
 25 30  1  0  0  0  0
 26 31  1  0  0  0  0
 26 32  1  0  0  0  0
M  END
> <BCLConfClusterSize>
1

> <ConfClashScore>
0 

> <ConfOneFourInteractionScore>
-0.927621 

> <ConfScore>
0.319831 

> <ConfScorePBest>
0.00453007 

> <ConfTolerance>
0.588098 

> <RosettaParamsInstructions>
M  ROOT 3
M  POLY_N_BB 3
M  POLY_CA_BB 4
M  POLY_C_BB 2
M  POLY_O_BB 5
M  POLY_IGNORE 9 10 11 12 13 14 15 16 17 18 
M  POLY_UPPER 6
M  POLY_LOWER 8
M  POLY_CHG 0
M  POLY_PROPERTIES ALPHA_AA D_AA PROTEIN AROMATIC POLYMER 
M  END

$$$$



 32 32  0  0  0  0  0  0  0  0999 V2000
   -1.3486    4.8211   -0.9642 H   0  0  0  1  0  0  0  0  0  0  0  0
   -0.0387    3.9290    0.4425 C   0  0  0  1  0  0  0  0  0  0  0  0
   -2.5051    3.9536    0.5154 N   0  0  0  1  0  0  0  0  0  0  0  0
   -1.3394    3.9410   -0.3557 C   0  0  0  1  0  0  0  0  0  0  0  0
    0.2827    2.8800    0.9992 O   0  0  0  1  0  0  0  0  0  0  0  0
    0.6502    5.0734    0.4698 N   0  0  0  1  0  0  0  0  0  0  0  0
   -2.8427    3.0901    0.8330 H   0  0  0  1  0  0  0  0  0  0  0  0
   -3.1497    5.0536    0.9148 C   0  0  0  1  0  0  0  0  0  0  0  0
    1.9125    5.2040    1.1823 C   0  0  0  1  0  0  0  0  0  0  0  0
   -4.4255    4.8208    1.7005 C   0  0  0  1  0  0  0  0  0  0  0  0
   -2.7497    6.1889    0.6707 O   0  0  0  1  0  0  0  0  0  0  0  0
    0.2932    5.8519   -0.0064 H   0  0  0  1  0  0  0  0  0  0  0  0
    2.4630    6.0310    0.7849 H   0  0  0  1  0  0  0  0  0  0  0  0
    2.4829    4.3065    1.0642 H   0  0  0  1  0  0  0  0  0  0  0  0
    1.7196    5.3706    2.2215 H   0  0  0  1  0  0  0  0  0  0  0  0
   -5.2040    4.5126    1.0342 H   0  0  0  1  0  0  0  0  0  0  0  0
   -4.7134    5.7279    2.1897 H   0  0  0  1  0  0  0  0  0  0  0  0
   -4.2595    4.0577    2.4319 H   0  0  0  1  0  0  0  0  0  0  0  0
   -6.0561    1.3124   -0.9444 F   0  0  0  1  0  0  0  0  0  0  0  0
   -5.0671    1.8672   -1.6711 C   0  0  0  1  0  0  0  0  0  0  0  0
   -5.3152    2.2971   -2.9653 C   0  0  0  1  0  0  0  0  0  0  0  0
   -4.2991    2.8616   -3.7130 C   0  0  0  1  0  0  0  0  0  0  0  0
   -3.0330    3.0027   -3.1666 C   0  0  0  1  0  0  0  0  0  0  0  0
   -2.7853    2.5741   -1.8761 C   0  0  0  1  0  0  0  0  0  0  0  0
   -3.8046    2.0080   -1.1264 C   0  0  0  1  0  0  0  0  0  0  0  0
   -1.4045    2.7223   -1.2822 C   0  0  0  1  0  0  0  0  0  0  0  0
   -4.5390    3.2745   -4.9723 F   0  0  0  1  0  0  0  0  0  0  0  0
   -6.2661    2.1949   -3.3738 H   0  0  0  1  0  0  0  0  0  0  0  0
   -2.2693    3.4311   -3.7277 H   0  0  0  1  0  0  0  0  0  0  0  0
   -3.6194    1.6891   -0.1540 H   0  0  0  1  0  0  0  0  0  0  0  0
   -1.1674    1.8423   -0.7215 H   0  0  0  1  0  0  0  0  0  0  0  0
   -0.6938    2.8443   -2.0728 H   0  0  0  1  0  0  0  0  0  0  0  0
  1  4  1  0  0  0  0
  2  4  1  0  0  0  0
  2  5  2  0  0  0  0
  2  6  1  0  0  0  0
  3  4  1  0  0  0  0
  3  7  1  0  0  0  0
  3  8  1  0  0  0  0
  4 26  1  0  0  0  0
  6  9  1  0  0  0  0
  6 12  1  0  0  0  0
  8 10  1  0  0  0  0
  8 11  2  0  0  0  0
  9 13  1  0  0  0  0
  9 14  1  0  0  0  0
  9 15  1  0  0  0  0
 10 16  1  0  0  0  0
 10 17  1  0  0  0  0
 10 18  1  0  0  0  0
 19 20  1  0  0  0  0
 20 21  4  0  0  0  0
 20 25  4  0  0  0  0
 21 22  4  0  0  0  0
 21 28  1  0  0  0  0
 22 23  4  0  0  0  0
 22 27  1  0  0  0  0
 23 24  4  0  0  0  0
 23 29  1  0  0  0  0
 24 25  4  0  0  0  0
 24 26  1  0  0  0  0
 25 30  1  0  0  0  0
 26 31  1  0  0  0  0
 26 32  1  0  0  0  0
M  END
> <BCLConfClusterSize>
1

> <ConfClashScore>
0 

> <ConfOneFourInteractionScore>
-0.955883 

> <ConfScore>
0.320503 

> <ConfScorePBest>
0.00450159 

> <ConfTolerance>
0.579481 

> <RosettaParamsInstructions>
M  ROOT 3
M  POLY_N_BB 3
M  POLY_CA_BB 4
M  POLY_C_BB 2
M  POLY_O_BB 5
M  POLY_IGNORE 9 10 11 12 13 14 15 16 17 18 
M  POLY_UPPER 6
M  POLY_LOWER 8
M  POLY_CHG 0
M  POLY_PROPERTIES ALPHA_AA D_AA PROTEIN AROMATIC POLYMER 
M  END

$$$$



 32 32  0  0  0  0  0  0  0  0999 V2000
    0.5711    2.0077   -1.4233 H   0  0  0  1  0  0  0  0  0  0  0  0
   -0.0508    2.5240   -3.3706 C   0  0  0  1  0  0  0  0  0  0  0  0
   -0.7225    0.5270   -2.0714 N   0  0  0  1  0  0  0  0  0  0  0  0
   -0.3293    1.9373   -1.9970 C   0  0  0  1  0  0  0  0  0  0  0  0
   -0.2406    3.7145   -3.6056 O   0  0  0  1  0  0  0  0  0  0  0  0
    0.4070    1.6657   -4.2864 N   0  0  0  1  0  0  0  0  0  0  0  0
   -0.4444   -0.0800   -1.3540 H   0  0  0  1  0  0  0  0  0  0  0  0
   -1.4467    0.0404   -3.0832 C   0  0  0  1  0  0  0  0  0  0  0  0
    0.6870    2.0680   -5.6602 C   0  0  0  1  0  0  0  0  0  0  0  0
   -1.6185   -1.4730   -3.1062 C   0  0  0  1  0  0  0  0  0  0  0  0
   -1.9503    0.7532   -3.9499 O   0  0  0  1  0  0  0  0  0  0  0  0
    0.5599    0.7334   -4.0261 H   0  0  0  1  0  0  0  0  0  0  0  0
    0.3863    1.2888   -6.3289 H   0  0  0  1  0  0  0  0  0  0  0  0
    1.7357    2.2486   -5.7719 H   0  0  0  1  0  0  0  0  0  0  0  0
    0.1444    2.9618   -5.8874 H   0  0  0  1  0  0  0  0  0  0  0  0
   -0.6581   -1.9423   -3.0585 H   0  0  0  1  0  0  0  0  0  0  0  0
   -2.1119   -1.7620   -4.0106 H   0  0  0  1  0  0  0  0  0  0  0  0
   -2.2063   -1.7779   -2.2656 H   0  0  0  1  0  0  0  0  0  0  0  0
   -6.0485    1.3134   -0.9416 F   0  0  0  1  0  0  0  0  0  0  0  0
   -5.0624    1.8688   -1.6718 C   0  0  0  1  0  0  0  0  0  0  0  0
   -5.3150    2.2973   -2.9656 C   0  0  0  1  0  0  0  0  0  0  0  0
   -4.3018    2.8624   -3.7169 C   0  0  0  1  0  0  0  0  0  0  0  0
   -3.0342    3.0054   -3.1745 C   0  0  0  1  0  0  0  0  0  0  0  0
   -2.7821    2.5782   -1.8845 C   0  0  0  1  0  0  0  0  0  0  0  0
   -3.7984    2.0115   -1.1311 C   0  0  0  1  0  0  0  0  0  0  0  0
   -1.4205    2.7027   -1.2425 C   0  0  0  1  0  0  0  0  0  0  0  0
   -4.5461    3.2739   -4.9758 F   0  0  0  1  0  0  0  0  0  0  0  0
   -6.2671    2.1936   -3.3711 H   0  0  0  1  0  0  0  0  0  0  0  0
   -2.2728    3.4343   -3.7384 H   0  0  0  1  0  0  0  0  0  0  0  0
   -3.6098    1.6937   -0.1590 H   0  0  0  1  0  0  0  0  0  0  0  0
   -1.1515    3.7379   -1.2124 H   0  0  0  1  0  0  0  0  0  0  0  0
   -1.4779    2.3193   -0.2452 H   0  0  0  1  0  0  0  0  0  0  0  0
  1  4  1  0  0  0  0
  2  4  1  0  0  0  0
  2  5  2  0  0  0  0
  2  6  1  0  0  0  0
  3  4  1  0  0  0  0
  3  7  1  0  0  0  0
  3  8  1  0  0  0  0
  4 26  1  0  0  0  0
  6  9  1  0  0  0  0
  6 12  1  0  0  0  0
  8 10  1  0  0  0  0
  8 11  2  0  0  0  0
  9 13  1  0  0  0  0
  9 14  1  0  0  0  0
  9 15  1  0  0  0  0
 10 16  1  0  0  0  0
 10 17  1  0  0  0  0
 10 18  1  0  0  0  0
 19 20  1  0  0  0  0
 20 21  4  0  0  0  0
 20 25  4  0  0  0  0
 21 22  4  0  0  0  0
 21 28  1  0  0  0  0
 22 23  4  0  0  0  0
 22 27  1  0  0  0  0
 23 24  4  0  0  0  0
 23 29  1  0  0  0  0
 24 25  4  0  0  0  0
 24 26  1  0  0  0  0
 25 30  1  0  0  0  0
 26 31  1  0  0  0  0
 26 32  1  0  0  0  0
M  END
> <BCLConfClusterSize>
1

> <ConfClashScore>
0 

> <ConfOneFourInteractionScore>
-0.947651 

> <ConfScore>
0.325257 

> <ConfScorePBest>
0.00447311 

> <ConfTolerance>
0.418473 

> <RosettaParamsInstructions>
M  ROOT 3
M  POLY_N_BB 3
M  POLY_CA_BB 4
M  POLY_C_BB 2
M  POLY_O_BB 5
M  POLY_IGNORE 9 10 11 12 13 14 15 16 17 18 
M  POLY_UPPER 6
M  POLY_LOWER 8
M  POLY_CHG 0
M  POLY_PROPERTIES ALPHA_AA D_AA PROTEIN AROMATIC POLYMER 
M  END

$$$$



 32 32  0  0  0  0  0  0  0  0999 V2000
   -0.2624    2.3960   -3.0494 H   0  0  0  1  0  0  0  0  0  0  0  0
   -0.5582    0.5286   -2.0795 C   0  0  0  1  0  0  0  0  0  0  0  0
    0.9995    2.2056   -1.4046 N   0  0  0  1  0  0  0  0  0  0  0  0
   -0.2929    2.0211   -2.0476 C   0  0  0  1  0  0  0  0  0  0  0  0
   -1.2254    0.0229   -2.9670 O   0  0  0  1  0  0  0  0  0  0  0  0
   -0.0187   -0.1773   -1.0845 N   0  0  0  1  0  0  0  0  0  0  0  0
    1.0328    2.6355   -0.5245 H   0  0  0  1  0  0  0  0  0  0  0  0
    2.1404    1.8100   -1.9713 C   0  0  0  1  0  0  0  0  0  0  0  0
   -0.3202   -1.5860   -0.8782 C   0  0  0  1  0  0  0  0  0  0  0  0
    3.4059    2.1969   -1.2400 C   0  0  0  1  0  0  0  0  0  0  0  0
    2.1801    1.1705   -3.0216 O   0  0  0  1  0  0  0  0  0  0  0  0
    0.6024    0.2682   -0.4712 H   0  0  0  1  0  0  0  0  0  0  0  0
   -0.1635   -1.8379    0.1499 H   0  0  0  1  0  0  0  0  0  0  0  0
    0.3218   -2.1817   -1.4929 H   0  0  0  1  0  0  0  0  0  0  0  0
   -1.3405   -1.7741   -1.1397 H   0  0  0  1  0  0  0  0  0  0  0  0
    3.4641    3.2628   -1.1663 H   0  0  0  1  0  0  0  0  0  0  0  0
    4.2548    1.8300   -1.7780 H   0  0  0  1  0  0  0  0  0  0  0  0
    3.3942    1.7719   -0.2581 H   0  0  0  1  0  0  0  0  0  0  0  0
   -6.0556    1.3105   -0.9392 F   0  0  0  1  0  0  0  0  0  0  0  0
   -5.0686    1.8657   -1.6683 C   0  0  0  1  0  0  0  0  0  0  0  0
   -5.3199    2.2947   -2.9622 C   0  0  0  1  0  0  0  0  0  0  0  0
   -4.3058    2.8595   -3.7124 C   0  0  0  1  0  0  0  0  0  0  0  0
   -3.0387    3.0020   -3.1688 C   0  0  0  1  0  0  0  0  0  0  0  0
   -2.7879    2.5744   -1.8786 C   0  0  0  1  0  0  0  0  0  0  0  0
   -3.8051    2.0078   -1.1264 C   0  0  0  1  0  0  0  0  0  0  0  0
   -1.4059    2.7240   -1.2878 C   0  0  0  1  0  0  0  0  0  0  0  0
   -4.5055    3.2847   -4.9747 F   0  0  0  1  0  0  0  0  0  0  0  0
   -6.2716    2.1914   -3.3686 H   0  0  0  1  0  0  0  0  0  0  0  0
   -2.2766    3.4307   -3.7318 H   0  0  0  1  0  0  0  0  0  0  0  0
   -3.6175    1.6897   -0.1541 H   0  0  0  1  0  0  0  0  0  0  0  0
   -1.1733    3.7678   -1.2524 H   0  0  0  1  0  0  0  0  0  0  0  0
   -1.4274    2.3290   -0.2936 H   0  0  0  1  0  0  0  0  0  0  0  0
  1  4  1  0  0  0  0
  2  4  1  0  0  0  0
  2  5  2  0  0  0  0
  2  6  1  0  0  0  0
  3  4  1  0  0  0  0
  3  7  1  0  0  0  0
  3  8  1  0  0  0  0
  4 26  1  0  0  0  0
  6  9  1  0  0  0  0
  6 12  1  0  0  0  0
  8 10  1  0  0  0  0
  8 11  2  0  0  0  0
  9 13  1  0  0  0  0
  9 14  1  0  0  0  0
  9 15  1  0  0  0  0
 10 16  1  0  0  0  0
 10 17  1  0  0  0  0
 10 18  1  0  0  0  0
 19 20  1  0  0  0  0
 20 21  4  0  0  0  0
 20 25  4  0  0  0  0
 21 22  4  0  0  0  0
 21 28  1  0  0  0  0
 22 23  4  0  0  0  0
 22 27  1  0  0  0  0
 23 24  4  0  0  0  0
 23 29  1  0  0  0  0
 24 25  4  0  0  0  0
 24 26  1  0  0  0  0
 25 30  1  0  0  0  0
 26 31  1  0  0  0  0
 26 32  1  0  0  0  0
M  END
> <BCLConfClusterSize>
1

> <ConfClashScore>
0 

> <ConfOneFourInteractionScore>
-0.94165 

> <ConfScore>
0.325258 

> <ConfScorePBest>
0.00444463 

> <ConfTolerance>
0.383131 

> <RosettaParamsInstructions>
M  ROOT 3
M  POLY_N_BB 3
M  POLY_CA_BB 4
M  POLY_C_BB 2
M  POLY_O_BB 5
M  POLY_IGNORE 9 10 11 12 13 14 15 16 17 18 
M  POLY_UPPER 6
M  POLY_LOWER 8
M  POLY_CHG 0
M  POLY_PROPERTIES ALPHA_AA D_AA PROTEIN AROMATIC POLYMER 
M  END

$$$$



 32 32  0  0  0  0  0  0  0  0999 V2000
   -0.3159    3.7941    0.1432 H   0  0  0  1  0  0  0  0  0  0  0  0
   -2.1040    3.3216    1.1013 C   0  0  0  1  0  0  0  0  0  0  0  0
   -1.7439    5.0911   -0.5585 N   0  0  0  1  0  0  0  0  0  0  0  0
   -1.3445    3.7330   -0.1450 C   0  0  0  1  0  0  0  0  0  0  0  0
   -2.6863    4.1521    1.7972 O   0  0  0  1  0  0  0  0  0  0  0  0
   -2.0940    2.0093    1.3837 N   0  0  0  1  0  0  0  0  0  0  0  0
   -1.0543    5.7826   -0.6402 H   0  0  0  1  0  0  0  0  0  0  0  0
   -3.0239    5.4142   -0.8277 C   0  0  0  1  0  0  0  0  0  0  0  0
   -2.7639    1.4607    2.5534 C   0  0  0  1  0  0  0  0  0  0  0  0
   -3.2309    6.8863   -1.1262 C   0  0  0  1  0  0  0  0  0  0  0  0
   -3.9600    4.6160   -0.8390 O   0  0  0  1  0  0  0  0  0  0  0  0
   -1.6192    1.3994    0.7812 H   0  0  0  1  0  0  0  0  0  0  0  0
   -2.2288    0.6021    2.9015 H   0  0  0  1  0  0  0  0  0  0  0  0
   -3.7620    1.1769    2.2922 H   0  0  0  1  0  0  0  0  0  0  0  0
   -2.7935    2.1999    3.3265 H   0  0  0  1  0  0  0  0  0  0  0  0
   -2.8488    7.4721   -0.3164 H   0  0  0  1  0  0  0  0  0  0  0  0
   -4.2761    7.0822   -1.2457 H   0  0  0  1  0  0  0  0  0  0  0  0
   -2.7141    7.1435   -2.0271 H   0  0  0  1  0  0  0  0  0  0  0  0
   -6.0778    1.3168   -0.9716 F   0  0  0  1  0  0  0  0  0  0  0  0
   -5.0627    1.8663   -1.6656 C   0  0  0  1  0  0  0  0  0  0  0  0
   -5.3139    2.2953   -2.9596 C   0  0  0  1  0  0  0  0  0  0  0  0
   -4.2999    2.8601   -3.7097 C   0  0  0  1  0  0  0  0  0  0  0  0
   -3.0327    3.0026   -3.1661 C   0  0  0  1  0  0  0  0  0  0  0  0
   -2.7819    2.5750   -1.8759 C   0  0  0  1  0  0  0  0  0  0  0  0
   -3.7992    2.0085   -1.1237 C   0  0  0  1  0  0  0  0  0  0  0  0
   -1.3999    2.7247   -1.2851 C   0  0  0  1  0  0  0  0  0  0  0  0
   -4.5428    3.2721   -4.9688 F   0  0  0  1  0  0  0  0  0  0  0  0
   -6.2657    2.1920   -3.3660 H   0  0  0  1  0  0  0  0  0  0  0  0
   -2.2706    3.4313   -3.7292 H   0  0  0  1  0  0  0  0  0  0  0  0
   -3.6116    1.6903   -0.1515 H   0  0  0  1  0  0  0  0  0  0  0  0
   -1.0835    1.7725   -0.9134 H   0  0  0  1  0  0  0  0  0  0  0  0
   -0.7325    3.0464   -2.0571 H   0  0  0  1  0  0  0  0  0  0  0  0
  1  4  1  0  0  0  0
  2  4  1  0  0  0  0
  2  5  2  0  0  0  0
  2  6  1  0  0  0  0
  3  4  1  0  0  0  0
  3  7  1  0  0  0  0
  3  8  1  0  0  0  0
  4 26  1  0  0  0  0
  6  9  1  0  0  0  0
  6 12  1  0  0  0  0
  8 10  1  0  0  0  0
  8 11  2  0  0  0  0
  9 13  1  0  0  0  0
  9 14  1  0  0  0  0
  9 15  1  0  0  0  0
 10 16  1  0  0  0  0
 10 17  1  0  0  0  0
 10 18  1  0  0  0  0
 19 20  1  0  0  0  0
 20 21  4  0  0  0  0
 20 25  4  0  0  0  0
 21 22  4  0  0  0  0
 21 28  1  0  0  0  0
 22 23  4  0  0  0  0
 22 27  1  0  0  0  0
 23 24  4  0  0  0  0
 23 29  1  0  0  0  0
 24 25  4  0  0  0  0
 24 26  1  0  0  0  0
 25 30  1  0  0  0  0
 26 31  1  0  0  0  0
 26 32  1  0  0  0  0
M  END
> <BCLConfClusterSize>
1

> <ConfClashScore>
0 

> <ConfOneFourInteractionScore>
-0.953061 

> <ConfScore>
0.326827 

> <ConfScorePBest>
0.00441614 

> <ConfTolerance>
0.491884 

> <RosettaParamsInstructions>
M  ROOT 3
M  POLY_N_BB 3
M  POLY_CA_BB 4
M  POLY_C_BB 2
M  POLY_O_BB 5
M  POLY_IGNORE 9 10 11 12 13 14 15 16 17 18 
M  POLY_UPPER 6
M  POLY_LOWER 8
M  POLY_CHG 0
M  POLY_PROPERTIES ALPHA_AA D_AA PROTEIN AROMATIC POLYMER 
M  END

$$$$



 32 32  0  0  0  0  0  0  0  0999 V2000
   -0.8727    0.6430   -1.2699 H   0  0  0  1  0  0  0  0  0  0  0  0
    0.9296    1.7746   -1.2044 C   0  0  0  1  0  0  0  0  0  0  0  0
   -0.4983    1.4679   -3.1442 N   0  0  0  1  0  0  0  0  0  0  0  0
   -0.5047    1.5578   -1.6854 C   0  0  0  1  0  0  0  0  0  0  0  0
    1.2596    2.8088   -0.6274 O   0  0  0  1  0  0  0  0  0  0  0  0
    1.7821    0.7762   -1.4525 N   0  0  0  1  0  0  0  0  0  0  0  0
   -1.0135    0.7551   -3.5764 H   0  0  0  1  0  0  0  0  0  0  0  0
    0.1855    2.3239   -3.9089 C   0  0  0  1  0  0  0  0  0  0  0  0
    3.1421    0.7685   -0.9346 C   0  0  0  1  0  0  0  0  0  0  0  0
    0.1167    2.0733   -5.3984 C   0  0  0  1  0  0  0  0  0  0  0  0
    0.8351    3.2618   -3.4487 O   0  0  0  1  0  0  0  0  0  0  0  0
    1.4812    0.0229   -2.0024 H   0  0  0  1  0  0  0  0  0  0  0  0
    3.1196    0.8758    0.1298 H   0  0  0  1  0  0  0  0  0  0  0  0
    3.6913    1.5806   -1.3632 H   0  0  0  1  0  0  0  0  0  0  0  0
    3.6154   -0.1567   -1.1896 H   0  0  0  1  0  0  0  0  0  0  0  0
   -0.5202    1.2353   -5.5906 H   0  0  0  1  0  0  0  0  0  0  0  0
    1.0985    1.8676   -5.7709 H   0  0  0  1  0  0  0  0  0  0  0  0
   -0.2767    2.9396   -5.8878 H   0  0  0  1  0  0  0  0  0  0  0  0
   -6.0485    1.3134   -0.9416 F   0  0  0  1  0  0  0  0  0  0  0  0
   -5.0624    1.8688   -1.6718 C   0  0  0  1  0  0  0  0  0  0  0  0
   -5.3150    2.2973   -2.9656 C   0  0  0  1  0  0  0  0  0  0  0  0
   -4.3018    2.8624   -3.7169 C   0  0  0  1  0  0  0  0  0  0  0  0
   -3.0342    3.0054   -3.1745 C   0  0  0  1  0  0  0  0  0  0  0  0
   -2.7821    2.5782   -1.8845 C   0  0  0  1  0  0  0  0  0  0  0  0
   -3.7984    2.0115   -1.1311 C   0  0  0  1  0  0  0  0  0  0  0  0
   -1.4205    2.7027   -1.2425 C   0  0  0  1  0  0  0  0  0  0  0  0
   -4.5461    3.2739   -4.9758 F   0  0  0  1  0  0  0  0  0  0  0  0
   -6.2671    2.1936   -3.3711 H   0  0  0  1  0  0  0  0  0  0  0  0
   -2.2728    3.4343   -3.7384 H   0  0  0  1  0  0  0  0  0  0  0  0
   -3.6098    1.6937   -0.1590 H   0  0  0  1  0  0  0  0  0  0  0  0
   -0.9809    3.6348   -1.5301 H   0  0  0  1  0  0  0  0  0  0  0  0
   -1.5302    2.6727   -0.1786 H   0  0  0  1  0  0  0  0  0  0  0  0
  1  4  1  0  0  0  0
  2  4  1  0  0  0  0
  2  5  2  0  0  0  0
  2  6  1  0  0  0  0
  3  4  1  0  0  0  0
  3  7  1  0  0  0  0
  3  8  1  0  0  0  0
  4 26  1  0  0  0  0
  6  9  1  0  0  0  0
  6 12  1  0  0  0  0
  8 10  1  0  0  0  0
  8 11  2  0  0  0  0
  9 13  1  0  0  0  0
  9 14  1  0  0  0  0
  9 15  1  0  0  0  0
 10 16  1  0  0  0  0
 10 17  1  0  0  0  0
 10 18  1  0  0  0  0
 19 20  1  0  0  0  0
 20 21  4  0  0  0  0
 20 25  4  0  0  0  0
 21 22  4  0  0  0  0
 21 28  1  0  0  0  0
 22 23  4  0  0  0  0
 22 27  1  0  0  0  0
 23 24  4  0  0  0  0
 23 29  1  0  0  0  0
 24 25  4  0  0  0  0
 24 26  1  0  0  0  0
 25 30  1  0  0  0  0
 26 31  1  0  0  0  0
 26 32  1  0  0  0  0
M  END
> <BCLConfClusterSize>
1

> <ConfClashScore>
0 

> <ConfOneFourInteractionScore>
-0.976539 

> <ConfScore>
0.327269 

> <ConfScorePBest>
0.00438766 

> <ConfTolerance>
0.391041 

> <RosettaParamsInstructions>
M  ROOT 3
M  POLY_N_BB 3
M  POLY_CA_BB 4
M  POLY_C_BB 2
M  POLY_O_BB 5
M  POLY_IGNORE 9 10 11 12 13 14 15 16 17 18 
M  POLY_UPPER 6
M  POLY_LOWER 8
M  POLY_CHG 0
M  POLY_PROPERTIES ALPHA_AA D_AA PROTEIN AROMATIC POLYMER 
M  END

$$$$



 32 32  0  0  0  0  0  0  0  0999 V2000
   -0.3906    2.6099    0.5720 H   0  0  0  1  0  0  0  0  0  0  0  0
   -1.4823    0.8280    0.4400 C   0  0  0  1  0  0  0  0  0  0  0  0
   -2.3260    3.0921    1.0231 N   0  0  0  1  0  0  0  0  0  0  0  0
   -1.3673    2.3329    0.2341 C   0  0  0  1  0  0  0  0  0  0  0  0
   -0.6860    0.0496   -0.0823 O   0  0  0  1  0  0  0  0  0  0  0  0
   -2.4912    0.4244    1.2138 N   0  0  0  1  0  0  0  0  0  0  0  0
   -3.1849    3.3347    0.6184 H   0  0  0  1  0  0  0  0  0  0  0  0
   -2.0759    3.4698    2.2800 C   0  0  0  1  0  0  0  0  0  0  0  0
   -2.7089   -0.9464    1.6511 C   0  0  0  1  0  0  0  0  0  0  0  0
   -3.0618    4.4527    2.8810 C   0  0  0  1  0  0  0  0  0  0  0  0
   -1.1205    3.0607    2.9189 O   0  0  0  1  0  0  0  0  0  0  0  0
   -3.1341    1.1020    1.5100 H   0  0  0  1  0  0  0  0  0  0  0  0
   -3.6708   -1.0255    2.1130 H   0  0  0  1  0  0  0  0  0  0  0  0
   -1.9517   -1.2203    2.3558 H   0  0  0  1  0  0  0  0  0  0  0  0
   -2.6642   -1.6015    0.8063 H   0  0  0  1  0  0  0  0  0  0  0  0
   -3.1657    5.2966    2.2315 H   0  0  0  1  0  0  0  0  0  0  0  0
   -2.7031    4.7790    3.8348 H   0  0  0  1  0  0  0  0  0  0  0  0
   -4.0122    3.9759    3.0008 H   0  0  0  1  0  0  0  0  0  0  0  0
   -6.0258    1.3095   -0.9151 F   0  0  0  1  0  0  0  0  0  0  0  0
   -5.0668    1.8696   -1.6772 C   0  0  0  1  0  0  0  0  0  0  0  0
   -5.3164    2.2991   -2.9713 C   0  0  0  1  0  0  0  0  0  0  0  0
   -4.3011    2.8638   -3.7201 C   0  0  0  1  0  0  0  0  0  0  0  0
   -3.0346    3.0055   -3.1749 C   0  0  0  1  0  0  0  0  0  0  0  0
   -2.7855    2.5773   -1.8846 C   0  0  0  1  0  0  0  0  0  0  0  0
   -3.8039    2.0110   -1.1337 C   0  0  0  1  0  0  0  0  0  0  0  0
   -1.4252    2.7002   -1.2396 C   0  0  0  1  0  0  0  0  0  0  0  0
   -4.5424    3.2763   -4.9793 F   0  0  0  1  0  0  0  0  0  0  0  0
   -6.2676    2.1964   -3.3789 H   0  0  0  1  0  0  0  0  0  0  0  0
   -2.2716    3.4340   -3.7369 H   0  0  0  1  0  0  0  0  0  0  0  0
   -3.6176    1.6924   -0.1614 H   0  0  0  1  0  0  0  0  0  0  0  0
   -0.7509    2.0580   -1.7666 H   0  0  0  1  0  0  0  0  0  0  0  0
   -1.1031    3.7157   -1.3396 H   0  0  0  1  0  0  0  0  0  0  0  0
  1  4  1  0  0  0  0
  2  4  1  0  0  0  0
  2  5  2  0  0  0  0
  2  6  1  0  0  0  0
  3  4  1  0  0  0  0
  3  7  1  0  0  0  0
  3  8  1  0  0  0  0
  4 26  1  0  0  0  0
  6  9  1  0  0  0  0
  6 12  1  0  0  0  0
  8 10  1  0  0  0  0
  8 11  2  0  0  0  0
  9 13  1  0  0  0  0
  9 14  1  0  0  0  0
  9 15  1  0  0  0  0
 10 16  1  0  0  0  0
 10 17  1  0  0  0  0
 10 18  1  0  0  0  0
 19 20  1  0  0  0  0
 20 21  4  0  0  0  0
 20 25  4  0  0  0  0
 21 22  4  0  0  0  0
 21 28  1  0  0  0  0
 22 23  4  0  0  0  0
 22 27  1  0  0  0  0
 23 24  4  0  0  0  0
 23 29  1  0  0  0  0
 24 25  4  0  0  0  0
 24 26  1  0  0  0  0
 25 30  1  0  0  0  0
 26 31  1  0  0  0  0
 26 32  1  0  0  0  0
M  END
> <BCLConfClusterSize>
1

> <ConfClashScore>
0 

> <ConfOneFourInteractionScore>
-0.924495 

> <ConfScore>
0.327648 

> <ConfScorePBest>
0.00435918 

> <ConfTolerance>
0.552235 

> <RosettaParamsInstructions>
M  ROOT 3
M  POLY_N_BB 3
M  POLY_CA_BB 4
M  POLY_C_BB 2
M  POLY_O_BB 5
M  POLY_IGNORE 9 10 11 12 13 14 15 16 17 18 
M  POLY_UPPER 6
M  POLY_LOWER 8
M  POLY_CHG 0
M  POLY_PROPERTIES ALPHA_AA D_AA PROTEIN AROMATIC POLYMER 
M  END

$$$$



 32 32  0  0  0  0  0  0  0  0999 V2000
   -2.3106    3.4654    0.4574 H   0  0  0  1  0  0  0  0  0  0  0  0
   -0.8360    4.8322   -0.2252 C   0  0  0  1  0  0  0  0  0  0  0  0
   -0.4262    2.7293    0.9413 N   0  0  0  1  0  0  0  0  0  0  0  0
   -1.3289    3.4219    0.0340 C   0  0  0  1  0  0  0  0  0  0  0  0
   -0.2392    5.4692    0.6414 O   0  0  0  1  0  0  0  0  0  0  0  0
   -1.0947    5.3261   -1.4502 N   0  0  0  1  0  0  0  0  0  0  0  0
   -0.0026    1.8973    0.6434 H   0  0  0  1  0  0  0  0  0  0  0  0
   -0.1461    3.2028    2.2051 C   0  0  0  1  0  0  0  0  0  0  0  0
   -0.6200    6.6338   -1.8773 C   0  0  0  1  0  0  0  0  0  0  0  0
    0.7675    2.3512    3.0374 C   0  0  0  1  0  0  0  0  0  0  0  0
   -0.6307    4.2522    2.5845 O   0  0  0  1  0  0  0  0  0  0  0  0
   -1.6211    4.7864   -2.0763 H   0  0  0  1  0  0  0  0  0  0  0  0
    0.3182    6.8441   -1.4076 H   0  0  0  1  0  0  0  0  0  0  0  0
   -1.3336    7.3807   -1.5983 H   0  0  0  1  0  0  0  0  0  0  0  0
   -0.4954    6.6381   -2.9400 H   0  0  0  1  0  0  0  0  0  0  0  0
    0.7148    1.3368    2.7012 H   0  0  0  1  0  0  0  0  0  0  0  0
    0.4668    2.4029    4.0630 H   0  0  0  1  0  0  0  0  0  0  0  0
    1.7720    2.7069    2.9413 H   0  0  0  1  0  0  0  0  0  0  0  0
   -6.0530    1.3068   -0.9461 F   0  0  0  1  0  0  0  0  0  0  0  0
   -5.0663    1.8681   -1.6709 C   0  0  0  1  0  0  0  0  0  0  0  0
   -5.3133    2.2912   -2.9676 C   0  0  0  1  0  0  0  0  0  0  0  0
   -4.2995    2.8624   -3.7133 C   0  0  0  1  0  0  0  0  0  0  0  0
   -3.0369    3.0170   -3.1625 C   0  0  0  1  0  0  0  0  0  0  0  0
   -2.7903    2.5952   -1.8696 C   0  0  0  1  0  0  0  0  0  0  0  0
   -3.8073    2.0224   -1.1218 C   0  0  0  1  0  0  0  0  0  0  0  0
   -1.3944    2.6655   -1.2970 C   0  0  0  1  0  0  0  0  0  0  0  0
   -4.5383    3.2687   -4.9750 F   0  0  0  1  0  0  0  0  0  0  0  0
   -6.2617    2.1788   -3.3794 H   0  0  0  1  0  0  0  0  0  0  0  0
   -2.2750    3.4504   -3.7222 H   0  0  0  1  0  0  0  0  0  0  0  0
   -3.6229    1.7086   -0.1476 H   0  0  0  1  0  0  0  0  0  0  0  0
   -1.0402    1.6681   -1.1397 H   0  0  0  1  0  0  0  0  0  0  0  0
   -0.7615    3.1622   -2.0025 H   0  0  0  1  0  0  0  0  0  0  0  0
  1  4  1  0  0  0  0
  2  4  1  0  0  0  0
  2  5  2  0  0  0  0
  2  6  1  0  0  0  0
  3  4  1  0  0  0  0
  3  7  1  0  0  0  0
  3  8  1  0  0  0  0
  4 26  1  0  0  0  0
  6  9  1  0  0  0  0
  6 12  1  0  0  0  0
  8 10  1  0  0  0  0
  8 11  2  0  0  0  0
  9 13  1  0  0  0  0
  9 14  1  0  0  0  0
  9 15  1  0  0  0  0
 10 16  1  0  0  0  0
 10 17  1  0  0  0  0
 10 18  1  0  0  0  0
 19 20  1  0  0  0  0
 20 21  4  0  0  0  0
 20 25  4  0  0  0  0
 21 22  4  0  0  0  0
 21 28  1  0  0  0  0
 22 23  4  0  0  0  0
 22 27  1  0  0  0  0
 23 24  4  0  0  0  0
 23 29  1  0  0  0  0
 24 25  4  0  0  0  0
 24 26  1  0  0  0  0
 25 30  1  0  0  0  0
 26 31  1  0  0  0  0
 26 32  1  0  0  0  0
M  END
> <BCLConfClusterSize>
1

> <ConfClashScore>
0 

> <ConfOneFourInteractionScore>
-0.947371 

> <ConfScore>
0.33163 

> <ConfScorePBest>
0.0043307 

> <ConfTolerance>
0.603094 

> <RosettaParamsInstructions>
M  ROOT 3
M  POLY_N_BB 3
M  POLY_CA_BB 4
M  POLY_C_BB 2
M  POLY_O_BB 5
M  POLY_IGNORE 9 10 11 12 13 14 15 16 17 18 
M  POLY_UPPER 6
M  POLY_LOWER 8
M  POLY_CHG 0
M  POLY_PROPERTIES ALPHA_AA D_AA PROTEIN AROMATIC POLYMER 
M  END

$$$$



 32 32  0  0  0  0  0  0  0  0999 V2000
   -0.5312    2.4226   -3.2021 H   0  0  0  1  0  0  0  0  0  0  0  0
   -0.5910    0.5388   -2.2763 C   0  0  0  1  0  0  0  0  0  0  0  0
    1.0110    2.3551   -1.8428 N   0  0  0  1  0  0  0  0  0  0  0  0
   -0.3745    2.0481   -2.2121 C   0  0  0  1  0  0  0  0  0  0  0  0
   -0.3344   -0.1845   -1.3147 O   0  0  0  1  0  0  0  0  0  0  0  0
   -1.0705    0.0699   -3.4318 N   0  0  0  1  0  0  0  0  0  0  0  0
    1.1768    2.9643   -1.0933 H   0  0  0  1  0  0  0  0  0  0  0  0
    2.0552    1.8333   -2.4927 C   0  0  0  1  0  0  0  0  0  0  0  0
   -1.2241   -1.3542   -3.6890 C   0  0  0  1  0  0  0  0  0  0  0  0
    3.4283    2.2524   -1.9835 C   0  0  0  1  0  0  0  0  0  0  0  0
    1.9350    1.0623   -3.4433 O   0  0  0  1  0  0  0  0  0  0  0  0
   -1.3278    0.7072   -4.1305 H   0  0  0  1  0  0  0  0  0  0  0  0
   -2.1447   -1.5265   -4.2063 H   0  0  0  1  0  0  0  0  0  0  0  0
   -1.2323   -1.8853   -2.7602 H   0  0  0  1  0  0  0  0  0  0  0  0
   -0.4080   -1.6979   -4.2898 H   0  0  0  1  0  0  0  0  0  0  0  0
    3.3248    3.0886   -1.3240 H   0  0  0  1  0  0  0  0  0  0  0  0
    4.0473    2.5266   -2.8122 H   0  0  0  1  0  0  0  0  0  0  0  0
    3.8775    1.4365   -1.4568 H   0  0  0  1  0  0  0  0  0  0  0  0
   -6.0405    1.3075   -0.9204 F   0  0  0  1  0  0  0  0  0  0  0  0
   -5.0758    1.8666   -1.6758 C   0  0  0  1  0  0  0  0  0  0  0  0
   -5.3166    2.2988   -2.9707 C   0  0  0  1  0  0  0  0  0  0  0  0
   -4.2956    2.8623   -3.7124 C   0  0  0  1  0  0  0  0  0  0  0  0
   -3.0320    3.0002   -3.1595 C   0  0  0  1  0  0  0  0  0  0  0  0
   -2.7917    2.5694   -1.8684 C   0  0  0  1  0  0  0  0  0  0  0  0
   -3.8158    2.0042   -1.1246 C   0  0  0  1  0  0  0  0  0  0  0  0
   -1.3956    2.7381   -1.3170 C   0  0  0  1  0  0  0  0  0  0  0  0
   -4.5284    3.2774   -4.9724 F   0  0  0  1  0  0  0  0  0  0  0  0
   -6.2657    2.1990   -3.3841 H   0  0  0  1  0  0  0  0  0  0  0  0
   -2.2647    3.4280   -3.7162 H   0  0  0  1  0  0  0  0  0  0  0  0
   -3.6361    1.6836   -0.1516 H   0  0  0  1  0  0  0  0  0  0  0  0
   -1.1644    3.7813   -1.2605 H   0  0  0  1  0  0  0  0  0  0  0  0
   -1.3508    2.3087   -0.3380 H   0  0  0  1  0  0  0  0  0  0  0  0
  1  4  1  0  0  0  0
  2  4  1  0  0  0  0
  2  5  2  0  0  0  0
  2  6  1  0  0  0  0
  3  4  1  0  0  0  0
  3  7  1  0  0  0  0
  3  8  1  0  0  0  0
  4 26  1  0  0  0  0
  6  9  1  0  0  0  0
  6 12  1  0  0  0  0
  8 10  1  0  0  0  0
  8 11  2  0  0  0  0
  9 13  1  0  0  0  0
  9 14  1  0  0  0  0
  9 15  1  0  0  0  0
 10 16  1  0  0  0  0
 10 17  1  0  0  0  0
 10 18  1  0  0  0  0
 19 20  1  0  0  0  0
 20 21  4  0  0  0  0
 20 25  4  0  0  0  0
 21 22  4  0  0  0  0
 21 28  1  0  0  0  0
 22 23  4  0  0  0  0
 22 27  1  0  0  0  0
 23 24  4  0  0  0  0
 23 29  1  0  0  0  0
 24 25  4  0  0  0  0
 24 26  1  0  0  0  0
 25 30  1  0  0  0  0
 26 31  1  0  0  0  0
 26 32  1  0  0  0  0
M  END
> <BCLConfClusterSize>
1

> <ConfClashScore>
0 

> <ConfOneFourInteractionScore>
-0.978127 

> <ConfScore>
0.331945 

> <ConfScorePBest>
0.00430222 

> <ConfTolerance>
0.543261 

> <RosettaParamsInstructions>
M  ROOT 3
M  POLY_N_BB 3
M  POLY_CA_BB 4
M  POLY_C_BB 2
M  POLY_O_BB 5
M  POLY_IGNORE 9 10 11 12 13 14 15 16 17 18 
M  POLY_UPPER 6
M  POLY_LOWER 8
M  POLY_CHG 0
M  POLY_PROPERTIES ALPHA_AA D_AA PROTEIN AROMATIC POLYMER 
M  END

$$$$



 32 32  0  0  0  0  0  0  0  0999 V2000
   -1.6859    4.7596   -0.8201 H   0  0  0  1  0  0  0  0  0  0  0  0
    0.1352    4.1942    0.0665 C   0  0  0  1  0  0  0  0  0  0  0  0
   -2.1354    3.6219    0.8498 N   0  0  0  1  0  0  0  0  0  0  0  0
   -1.2961    3.8976   -0.3201 C   0  0  0  1  0  0  0  0  0  0  0  0
    1.0498    4.0410   -0.7387 O   0  0  0  1  0  0  0  0  0  0  0  0
    0.3737    4.6269    1.3078 N   0  0  0  1  0  0  0  0  0  0  0  0
   -3.0331    4.0128    0.8906 H   0  0  0  1  0  0  0  0  0  0  0  0
   -1.7189    2.8562    1.8624 C   0  0  0  1  0  0  0  0  0  0  0  0
    1.7036    5.0147    1.7538 C   0  0  0  1  0  0  0  0  0  0  0  0
   -2.7535    2.5470    2.9207 C   0  0  0  1  0  0  0  0  0  0  0  0
   -0.5710    2.4213    1.9454 O   0  0  0  1  0  0  0  0  0  0  0  0
   -0.3729    4.6852    1.9400 H   0  0  0  1  0  0  0  0  0  0  0  0
    1.9756    4.4357    2.6115 H   0  0  0  1  0  0  0  0  0  0  0  0
    1.7047    6.0535    2.0101 H   0  0  0  1  0  0  0  0  0  0  0  0
    2.4082    4.8400    0.9677 H   0  0  0  1  0  0  0  0  0  0  0  0
   -3.4289    3.3718    3.0117 H   0  0  0  1  0  0  0  0  0  0  0  0
   -2.2655    2.3809    3.8584 H   0  0  0  1  0  0  0  0  0  0  0  0
   -3.2981    1.6694    2.6411 H   0  0  0  1  0  0  0  0  0  0  0  0
   -6.0335    1.3084   -0.9179 F   0  0  0  1  0  0  0  0  0  0  0  0
   -5.0716    1.8680   -1.6765 C   0  0  0  1  0  0  0  0  0  0  0  0
   -5.3166    2.2989   -2.9710 C   0  0  0  1  0  0  0  0  0  0  0  0
   -4.2984    2.8630   -3.7161 C   0  0  0  1  0  0  0  0  0  0  0  0
   -3.0333    3.0028   -3.1670 C   0  0  0  1  0  0  0  0  0  0  0  0
   -2.7888    2.5732   -1.8762 C   0  0  0  1  0  0  0  0  0  0  0  0
   -3.8102    2.0074   -1.1290 C   0  0  0  1  0  0  0  0  0  0  0  0
   -1.4091    2.7199   -1.2793 C   0  0  0  1  0  0  0  0  0  0  0  0
   -4.5352    3.2769   -4.9757 F   0  0  0  1  0  0  0  0  0  0  0  0
   -6.2667    2.1977   -3.3816 H   0  0  0  1  0  0  0  0  0  0  0  0
   -2.2681    3.4309   -3.7262 H   0  0  0  1  0  0  0  0  0  0  0  0
   -3.6273    1.6879   -0.1564 H   0  0  0  1  0  0  0  0  0  0  0  0
   -1.1713    1.8228   -0.7467 H   0  0  0  1  0  0  0  0  0  0  0  0
   -0.7070    2.8598   -2.0746 H   0  0  0  1  0  0  0  0  0  0  0  0
  1  4  1  0  0  0  0
  2  4  1  0  0  0  0
  2  5  2  0  0  0  0
  2  6  1  0  0  0  0
  3  4  1  0  0  0  0
  3  7  1  0  0  0  0
  3  8  1  0  0  0  0
  4 26  1  0  0  0  0
  6  9  1  0  0  0  0
  6 12  1  0  0  0  0
  8 10  1  0  0  0  0
  8 11  2  0  0  0  0
  9 13  1  0  0  0  0
  9 14  1  0  0  0  0
  9 15  1  0  0  0  0
 10 16  1  0  0  0  0
 10 17  1  0  0  0  0
 10 18  1  0  0  0  0
 19 20  1  0  0  0  0
 20 21  4  0  0  0  0
 20 25  4  0  0  0  0
 21 22  4  0  0  0  0
 21 28  1  0  0  0  0
 22 23  4  0  0  0  0
 22 27  1  0  0  0  0
 23 24  4  0  0  0  0
 23 29  1  0  0  0  0
 24 25  4  0  0  0  0
 24 26  1  0  0  0  0
 25 30  1  0  0  0  0
 26 31  1  0  0  0  0
 26 32  1  0  0  0  0
M  END
> <BCLConfClusterSize>
1

> <ConfClashScore>
0 

> <ConfOneFourInteractionScore>
-0.953847 

> <ConfScore>
0.33207 

> <ConfScorePBest>
0.00427374 

> <ConfTolerance>
0.3494 

> <RosettaParamsInstructions>
M  ROOT 3
M  POLY_N_BB 3
M  POLY_CA_BB 4
M  POLY_C_BB 2
M  POLY_O_BB 5
M  POLY_IGNORE 9 10 11 12 13 14 15 16 17 18 
M  POLY_UPPER 6
M  POLY_LOWER 8
M  POLY_CHG 0
M  POLY_PROPERTIES ALPHA_AA D_AA PROTEIN AROMATIC POLYMER 
M  END

$$$$



 32 32  0  0  0  0  0  0  0  0999 V2000
   -0.4706    1.4974   -2.7287 H   0  0  0  1  0  0  0  0  0  0  0  0
   -0.9472    0.2525   -1.1034 C   0  0  0  1  0  0  0  0  0  0  0  0
    0.9063    1.8840   -1.2387 N   0  0  0  1  0  0  0  0  0  0  0  0
   -0.4621    1.5762   -1.6617 C   0  0  0  1  0  0  0  0  0  0  0  0
   -2.1418    0.0559   -0.8967 O   0  0  0  1  0  0  0  0  0  0  0  0
   -0.0331   -0.6954   -0.8426 N   0  0  0  1  0  0  0  0  0  0  0  0
    1.4676    2.3524   -1.8913 H   0  0  0  1  0  0  0  0  0  0  0  0
    1.4760    1.5986   -0.0644 C   0  0  0  1  0  0  0  0  0  0  0  0
   -0.3866   -1.9704   -0.2364 C   0  0  0  1  0  0  0  0  0  0  0  0
    2.8446    2.2082    0.1692 C   0  0  0  1  0  0  0  0  0  0  0  0
    0.9398    0.8886    0.7853 O   0  0  0  1  0  0  0  0  0  0  0  0
    0.9048   -0.5228   -1.0682 H   0  0  0  1  0  0  0  0  0  0  0  0
   -0.6079   -1.8239    0.8001 H   0  0  0  1  0  0  0  0  0  0  0  0
    0.4337   -2.6506   -0.3331 H   0  0  0  1  0  0  0  0  0  0  0  0
   -1.2454   -2.3741   -0.7307 H   0  0  0  1  0  0  0  0  0  0  0  0
    2.9390    3.1053   -0.4063 H   0  0  0  1  0  0  0  0  0  0  0  0
    3.6004    1.5121   -0.1291 H   0  0  0  1  0  0  0  0  0  0  0  0
    2.9600    2.4373    1.2080 H   0  0  0  1  0  0  0  0  0  0  0  0
   -6.0561    1.3124   -0.9444 F   0  0  0  1  0  0  0  0  0  0  0  0
   -5.0671    1.8672   -1.6711 C   0  0  0  1  0  0  0  0  0  0  0  0
   -5.3152    2.2971   -2.9653 C   0  0  0  1  0  0  0  0  0  0  0  0
   -4.2991    2.8616   -3.7130 C   0  0  0  1  0  0  0  0  0  0  0  0
   -3.0330    3.0027   -3.1666 C   0  0  0  1  0  0  0  0  0  0  0  0
   -2.7853    2.5741   -1.8761 C   0  0  0  1  0  0  0  0  0  0  0  0
   -3.8046    2.0080   -1.1264 C   0  0  0  1  0  0  0  0  0  0  0  0
   -1.4045    2.7223   -1.2822 C   0  0  0  1  0  0  0  0  0  0  0  0
   -4.5390    3.2745   -4.9723 F   0  0  0  1  0  0  0  0  0  0  0  0
   -6.2661    2.1949   -3.3738 H   0  0  0  1  0  0  0  0  0  0  0  0
   -2.2693    3.4311   -3.7277 H   0  0  0  1  0  0  0  0  0  0  0  0
   -3.6194    1.6891   -0.1540 H   0  0  0  1  0  0  0  0  0  0  0  0
   -0.9808    3.6411   -1.6304 H   0  0  0  1  0  0  0  0  0  0  0  0
   -1.4935    2.7514   -0.2163 H   0  0  0  1  0  0  0  0  0  0  0  0
  1  4  1  0  0  0  0
  2  4  1  0  0  0  0
  2  5  2  0  0  0  0
  2  6  1  0  0  0  0
  3  4  1  0  0  0  0
  3  7  1  0  0  0  0
  3  8  1  0  0  0  0
  4 26  1  0  0  0  0
  6  9  1  0  0  0  0
  6 12  1  0  0  0  0
  8 10  1  0  0  0  0
  8 11  2  0  0  0  0
  9 13  1  0  0  0  0
  9 14  1  0  0  0  0
  9 15  1  0  0  0  0
 10 16  1  0  0  0  0
 10 17  1  0  0  0  0
 10 18  1  0  0  0  0
 19 20  1  0  0  0  0
 20 21  4  0  0  0  0
 20 25  4  0  0  0  0
 21 22  4  0  0  0  0
 21 28  1  0  0  0  0
 22 23  4  0  0  0  0
 22 27  1  0  0  0  0
 23 24  4  0  0  0  0
 23 29  1  0  0  0  0
 24 25  4  0  0  0  0
 24 26  1  0  0  0  0
 25 30  1  0  0  0  0
 26 31  1  0  0  0  0
 26 32  1  0  0  0  0
M  END
> <BCLConfClusterSize>
1

> <ConfClashScore>
0 

> <ConfOneFourInteractionScore>
-0.957364 

> <ConfScore>
0.335375 

> <ConfScorePBest>
0.00424526 

> <ConfTolerance>
0.392068 

> <RosettaParamsInstructions>
M  ROOT 3
M  POLY_N_BB 3
M  POLY_CA_BB 4
M  POLY_C_BB 2
M  POLY_O_BB 5
M  POLY_IGNORE 9 10 11 12 13 14 15 16 17 18 
M  POLY_UPPER 6
M  POLY_LOWER 8
M  POLY_CHG 0
M  POLY_PROPERTIES ALPHA_AA D_AA PROTEIN AROMATIC POLYMER 
M  END

$$$$



 32 32  0  0  0  0  0  0  0  0999 V2000
   -1.3579    4.8361   -1.5048 H   0  0  0  1  0  0  0  0  0  0  0  0
    0.3527    4.2275   -0.4063 C   0  0  0  1  0  0  0  0  0  0  0  0
   -1.9927    4.3708    0.4075 N   0  0  0  1  0  0  0  0  0  0  0  0
   -1.1342    4.1271   -0.7353 C   0  0  0  1  0  0  0  0  0  0  0  0
    1.2032    3.8888   -1.2250 O   0  0  0  1  0  0  0  0  0  0  0  0
    0.6992    4.6933    0.7946 N   0  0  0  1  0  0  0  0  0  0  0  0
   -1.8868    3.8128    1.2061 H   0  0  0  1  0  0  0  0  0  0  0  0
   -2.9231    5.3296    0.4095 C   0  0  0  1  0  0  0  0  0  0  0  0
    2.0702    4.9138    1.2410 C   0  0  0  1  0  0  0  0  0  0  0  0
   -3.7279    5.4638    1.6876 C   0  0  0  1  0  0  0  0  0  0  0  0
   -3.1281    6.0662   -0.5543 O   0  0  0  1  0  0  0  0  0  0  0  0
   -0.0216    4.9031    1.4245 H   0  0  0  1  0  0  0  0  0  0  0  0
    2.4416    4.0249    1.7065 H   0  0  0  1  0  0  0  0  0  0  0  0
    2.0907    5.7198    1.9445 H   0  0  0  1  0  0  0  0  0  0  0  0
    2.6840    5.1586    0.3994 H   0  0  0  1  0  0  0  0  0  0  0  0
   -3.2099    6.1045    2.3703 H   0  0  0  1  0  0  0  0  0  0  0  0
   -3.8554    4.4986    2.1315 H   0  0  0  1  0  0  0  0  0  0  0  0
   -4.6864    5.8829    1.4629 H   0  0  0  1  0  0  0  0  0  0  0  0
   -6.0561    1.3124   -0.9444 F   0  0  0  1  0  0  0  0  0  0  0  0
   -5.0671    1.8672   -1.6711 C   0  0  0  1  0  0  0  0  0  0  0  0
   -5.3152    2.2971   -2.9653 C   0  0  0  1  0  0  0  0  0  0  0  0
   -4.2991    2.8616   -3.7130 C   0  0  0  1  0  0  0  0  0  0  0  0
   -3.0330    3.0027   -3.1666 C   0  0  0  1  0  0  0  0  0  0  0  0
   -2.7853    2.5741   -1.8761 C   0  0  0  1  0  0  0  0  0  0  0  0
   -3.8046    2.0080   -1.1264 C   0  0  0  1  0  0  0  0  0  0  0  0
   -1.4045    2.7223   -1.2822 C   0  0  0  1  0  0  0  0  0  0  0  0
   -4.5390    3.2745   -4.9723 F   0  0  0  1  0  0  0  0  0  0  0  0
   -6.2661    2.1949   -3.3738 H   0  0  0  1  0  0  0  0  0  0  0  0
   -2.2693    3.4311   -3.7277 H   0  0  0  1  0  0  0  0  0  0  0  0
   -3.6194    1.6891   -0.1540 H   0  0  0  1  0  0  0  0  0  0  0  0
   -1.3006    2.0195   -0.4821 H   0  0  0  1  0  0  0  0  0  0  0  0
   -0.6822    2.5079   -2.0420 H   0  0  0  1  0  0  0  0  0  0  0  0
  1  4  1  0  0  0  0
  2  4  1  0  0  0  0
  2  5  2  0  0  0  0
  2  6  1  0  0  0  0
  3  4  1  0  0  0  0
  3  7  1  0  0  0  0
  3  8  1  0  0  0  0
  4 26  1  0  0  0  0
  6  9  1  0  0  0  0
  6 12  1  0  0  0  0
  8 10  1  0  0  0  0
  8 11  2  0  0  0  0
  9 13  1  0  0  0  0
  9 14  1  0  0  0  0
  9 15  1  0  0  0  0
 10 16  1  0  0  0  0
 10 17  1  0  0  0  0
 10 18  1  0  0  0  0
 19 20  1  0  0  0  0
 20 21  4  0  0  0  0
 20 25  4  0  0  0  0
 21 22  4  0  0  0  0
 21 28  1  0  0  0  0
 22 23  4  0  0  0  0
 22 27  1  0  0  0  0
 23 24  4  0  0  0  0
 23 29  1  0  0  0  0
 24 25  4  0  0  0  0
 24 26  1  0  0  0  0
 25 30  1  0  0  0  0
 26 31  1  0  0  0  0
 26 32  1  0  0  0  0
M  END
> <BCLConfClusterSize>
1

> <ConfClashScore>
0 

> <ConfOneFourInteractionScore>
-0.960318 

> <ConfScore>
0.335516 

> <ConfScorePBest>
0.00421678 

> <ConfTolerance>
0.564334 

> <RosettaParamsInstructions>
M  ROOT 3
M  POLY_N_BB 3
M  POLY_CA_BB 4
M  POLY_C_BB 2
M  POLY_O_BB 5
M  POLY_IGNORE 9 10 11 12 13 14 15 16 17 18 
M  POLY_UPPER 6
M  POLY_LOWER 8
M  POLY_CHG 0
M  POLY_PROPERTIES ALPHA_AA D_AA PROTEIN AROMATIC POLYMER 
M  END

$$$$



 32 32  0  0  0  0  0  0  0  0999 V2000
   -0.1843    4.0634   -0.2332 H   0  0  0  1  0  0  0  0  0  0  0  0
   -2.1032    4.3428    0.5542 C   0  0  0  1  0  0  0  0  0  0  0  0
   -1.2391    5.1206   -1.6488 N   0  0  0  1  0  0  0  0  0  0  0  0
   -1.1819    4.0757   -0.6201 C   0  0  0  1  0  0  0  0  0  0  0  0
   -3.1530    4.9643    0.4122 O   0  0  0  1  0  0  0  0  0  0  0  0
   -1.6966    3.8613    1.7322 N   0  0  0  1  0  0  0  0  0  0  0  0
   -0.3887    5.4559   -2.0019 H   0  0  0  1  0  0  0  0  0  0  0  0
   -2.3634    5.6492   -2.1403 C   0  0  0  1  0  0  0  0  0  0  0  0
   -2.5062    3.9678    2.9369 C   0  0  0  1  0  0  0  0  0  0  0  0
   -2.1818    6.8169   -3.0903 C   0  0  0  1  0  0  0  0  0  0  0  0
   -3.4827    5.2290   -1.8522 O   0  0  0  1  0  0  0  0  0  0  0  0
   -0.8227    3.4212    1.7871 H   0  0  0  1  0  0  0  0  0  0  0  0
   -3.2109    4.7650    2.8243 H   0  0  0  1  0  0  0  0  0  0  0  0
   -1.8726    4.1678    3.7756 H   0  0  0  1  0  0  0  0  0  0  0  0
   -3.0303    3.0487    3.0964 H   0  0  0  1  0  0  0  0  0  0  0  0
   -1.5915    6.5078   -3.9275 H   0  0  0  1  0  0  0  0  0  0  0  0
   -1.6865    7.6171   -2.5810 H   0  0  0  1  0  0  0  0  0  0  0  0
   -3.1392    7.1500   -3.4329 H   0  0  0  1  0  0  0  0  0  0  0  0
   -6.0561    1.3124   -0.9444 F   0  0  0  1  0  0  0  0  0  0  0  0
   -5.0671    1.8672   -1.6711 C   0  0  0  1  0  0  0  0  0  0  0  0
   -5.3152    2.2971   -2.9653 C   0  0  0  1  0  0  0  0  0  0  0  0
   -4.2991    2.8616   -3.7130 C   0  0  0  1  0  0  0  0  0  0  0  0
   -3.0330    3.0027   -3.1666 C   0  0  0  1  0  0  0  0  0  0  0  0
   -2.7853    2.5741   -1.8761 C   0  0  0  1  0  0  0  0  0  0  0  0
   -3.8046    2.0080   -1.1264 C   0  0  0  1  0  0  0  0  0  0  0  0
   -1.4045    2.7223   -1.2822 C   0  0  0  1  0  0  0  0  0  0  0  0
   -4.5390    3.2745   -4.9723 F   0  0  0  1  0  0  0  0  0  0  0  0
   -6.2661    2.1949   -3.3738 H   0  0  0  1  0  0  0  0  0  0  0  0
   -2.2693    3.4311   -3.7277 H   0  0  0  1  0  0  0  0  0  0  0  0
   -3.6194    1.6891   -0.1540 H   0  0  0  1  0  0  0  0  0  0  0  0
   -1.2657    1.9568   -0.5476 H   0  0  0  1  0  0  0  0  0  0  0  0
   -0.6831    2.6026   -2.0634 H   0  0  0  1  0  0  0  0  0  0  0  0
  1  4  1  0  0  0  0
  2  4  1  0  0  0  0
  2  5  2  0  0  0  0
  2  6  1  0  0  0  0
  3  4  1  0  0  0  0
  3  7  1  0  0  0  0
  3  8  1  0  0  0  0
  4 26  1  0  0  0  0
  6  9  1  0  0  0  0
  6 12  1  0  0  0  0
  8 10  1  0  0  0  0
  8 11  2  0  0  0  0
  9 13  1  0  0  0  0
  9 14  1  0  0  0  0
  9 15  1  0  0  0  0
 10 16  1  0  0  0  0
 10 17  1  0  0  0  0
 10 18  1  0  0  0  0
 19 20  1  0  0  0  0
 20 21  4  0  0  0  0
 20 25  4  0  0  0  0
 21 22  4  0  0  0  0
 21 28  1  0  0  0  0
 22 23  4  0  0  0  0
 22 27  1  0  0  0  0
 23 24  4  0  0  0  0
 23 29  1  0  0  0  0
 24 25  4  0  0  0  0
 24 26  1  0  0  0  0
 25 30  1  0  0  0  0
 26 31  1  0  0  0  0
 26 32  1  0  0  0  0
M  END
> <BCLConfClusterSize>
1

> <ConfClashScore>
0 

> <ConfOneFourInteractionScore>
-0.977545 

> <ConfScore>
0.335954 

> <ConfScorePBest>
0.0041883 

> <ConfTolerance>
0.668547 

> <RosettaParamsInstructions>
M  ROOT 3
M  POLY_N_BB 3
M  POLY_CA_BB 4
M  POLY_C_BB 2
M  POLY_O_BB 5
M  POLY_IGNORE 9 10 11 12 13 14 15 16 17 18 
M  POLY_UPPER 6
M  POLY_LOWER 8
M  POLY_CHG 0
M  POLY_PROPERTIES ALPHA_AA D_AA PROTEIN AROMATIC POLYMER 
M  END

$$$$



 32 32  0  0  0  0  0  0  0  0999 V2000
   -1.2739    0.7356   -0.6482 H   0  0  0  1  0  0  0  0  0  0  0  0
    0.5502    1.6886   -0.1587 C   0  0  0  1  0  0  0  0  0  0  0  0
   -0.2122    1.0099   -2.4015 N   0  0  0  1  0  0  0  0  0  0  0  0
   -0.6355    1.4729   -1.0883 C   0  0  0  1  0  0  0  0  0  0  0  0
    1.1381    0.7196    0.3199 O   0  0  0  1  0  0  0  0  0  0  0  0
    0.9492    2.9482    0.0242 N   0  0  0  1  0  0  0  0  0  0  0  0
   -0.4732    1.5269   -3.1921 H   0  0  0  1  0  0  0  0  0  0  0  0
    0.5198   -0.0954   -2.5668 C   0  0  0  1  0  0  0  0  0  0  0  0
    2.0013    3.3015    0.9656 C   0  0  0  1  0  0  0  0  0  0  0  0
    0.8951   -0.5012   -3.9788 C   0  0  0  1  0  0  0  0  0  0  0  0
    0.9089   -0.8058   -1.6407 O   0  0  0  1  0  0  0  0  0  0  0  0
    0.5189    3.6605   -0.4933 H   0  0  0  1  0  0  0  0  0  0  0  0
    1.6505    3.1531    1.9655 H   0  0  0  1  0  0  0  0  0  0  0  0
    2.2701    4.3283    0.8309 H   0  0  0  1  0  0  0  0  0  0  0  0
    2.8569    2.6826    0.7926 H   0  0  0  1  0  0  0  0  0  0  0  0
    0.1463   -0.1557   -4.6606 H   0  0  0  1  0  0  0  0  0  0  0  0
    0.9651   -1.5673   -4.0366 H   0  0  0  1  0  0  0  0  0  0  0  0
    1.8387   -0.0668   -4.2356 H   0  0  0  1  0  0  0  0  0  0  0  0
   -6.0523    1.3190   -0.9402 F   0  0  0  1  0  0  0  0  0  0  0  0
   -5.0635    1.8677   -1.6717 C   0  0  0  1  0  0  0  0  0  0  0  0
   -5.3165    2.3033   -2.9631 C   0  0  0  1  0  0  0  0  0  0  0  0
   -4.3007    2.8615   -3.7159 C   0  0  0  1  0  0  0  0  0  0  0  0
   -3.0299    2.9906   -3.1774 C   0  0  0  1  0  0  0  0  0  0  0  0
   -2.7773    2.5562   -1.8898 C   0  0  0  1  0  0  0  0  0  0  0  0
   -3.7964    1.9964   -1.1350 C   0  0  0  1  0  0  0  0  0  0  0  0
   -1.4321    2.7627   -1.2347 C   0  0  0  1  0  0  0  0  0  0  0  0
   -4.5454    3.2800   -4.9724 F   0  0  0  1  0  0  0  0  0  0  0  0
   -6.2709    2.2101   -3.3657 H   0  0  0  1  0  0  0  0  0  0  0  0
   -2.2664    3.4143   -3.7423 H   0  0  0  1  0  0  0  0  0  0  0  0
   -3.6074    1.6732   -0.1647 H   0  0  0  1  0  0  0  0  0  0  0  0
   -0.8650    3.4476   -1.8299 H   0  0  0  1  0  0  0  0  0  0  0  0
   -1.5876    3.1793   -0.2615 H   0  0  0  1  0  0  0  0  0  0  0  0
  1  4  1  0  0  0  0
  2  4  1  0  0  0  0
  2  5  2  0  0  0  0
  2  6  1  0  0  0  0
  3  4  1  0  0  0  0
  3  7  1  0  0  0  0
  3  8  1  0  0  0  0
  4 26  1  0  0  0  0
  6  9  1  0  0  0  0
  6 12  1  0  0  0  0
  8 10  1  0  0  0  0
  8 11  2  0  0  0  0
  9 13  1  0  0  0  0
  9 14  1  0  0  0  0
  9 15  1  0  0  0  0
 10 16  1  0  0  0  0
 10 17  1  0  0  0  0
 10 18  1  0  0  0  0
 19 20  1  0  0  0  0
 20 21  4  0  0  0  0
 20 25  4  0  0  0  0
 21 22  4  0  0  0  0
 21 28  1  0  0  0  0
 22 23  4  0  0  0  0
 22 27  1  0  0  0  0
 23 24  4  0  0  0  0
 23 29  1  0  0  0  0
 24 25  4  0  0  0  0
 24 26  1  0  0  0  0
 25 30  1  0  0  0  0
 26 31  1  0  0  0  0
 26 32  1  0  0  0  0
M  END
> <BCLConfClusterSize>
1

> <ConfClashScore>
0 

> <ConfOneFourInteractionScore>
-0.948666 

> <ConfScore>
0.336782 

> <ConfScorePBest>
0.00415982 

> <ConfTolerance>
0.592258 

> <RosettaParamsInstructions>
M  ROOT 3
M  POLY_N_BB 3
M  POLY_CA_BB 4
M  POLY_C_BB 2
M  POLY_O_BB 5
M  POLY_IGNORE 9 10 11 12 13 14 15 16 17 18 
M  POLY_UPPER 6
M  POLY_LOWER 8
M  POLY_CHG 0
M  POLY_PROPERTIES ALPHA_AA D_AA PROTEIN AROMATIC POLYMER 
M  END

$$$$



 32 32  0  0  0  0  0  0  0  0999 V2000
   -0.9075    0.7591   -1.8628 H   0  0  0  1  0  0  0  0  0  0  0  0
    0.7571    1.5843   -0.8572 C   0  0  0  1  0  0  0  0  0  0  0  0
   -0.0467    2.0832   -3.1991 N   0  0  0  1  0  0  0  0  0  0  0  0
   -0.4113    1.7066   -1.8312 C   0  0  0  1  0  0  0  0  0  0  0  0
    1.6223    2.4394   -0.7649 O   0  0  0  1  0  0  0  0  0  0  0  0
    0.8402    0.5041   -0.0753 N   0  0  0  1  0  0  0  0  0  0  0  0
   -0.1518    3.0173   -3.4764 H   0  0  0  1  0  0  0  0  0  0  0  0
    0.4286    1.1890   -4.0905 C   0  0  0  1  0  0  0  0  0  0  0  0
    1.9875    0.2530    0.7841 C   0  0  0  1  0  0  0  0  0  0  0  0
    0.5716    1.6289   -5.5346 C   0  0  0  1  0  0  0  0  0  0  0  0
    0.7376    0.0495   -3.7445 O   0  0  0  1  0  0  0  0  0  0  0  0
    0.1030   -0.1415   -0.0807 H   0  0  0  1  0  0  0  0  0  0  0  0
    1.7663   -0.5567    1.4476 H   0  0  0  1  0  0  0  0  0  0  0  0
    2.2048    1.1320    1.3544 H   0  0  0  1  0  0  0  0  0  0  0  0
    2.8350   -0.0007    0.1822 H   0  0  0  1  0  0  0  0  0  0  0  0
   -0.2568    2.2511   -5.8021 H   0  0  0  1  0  0  0  0  0  0  0  0
    0.5903    0.7677   -6.1693 H   0  0  0  1  0  0  0  0  0  0  0  0
    1.4823    2.1784   -5.6512 H   0  0  0  1  0  0  0  0  0  0  0  0
   -6.0556    1.3105   -0.9392 F   0  0  0  1  0  0  0  0  0  0  0  0
   -5.0686    1.8657   -1.6683 C   0  0  0  1  0  0  0  0  0  0  0  0
   -5.3199    2.2947   -2.9622 C   0  0  0  1  0  0  0  0  0  0  0  0
   -4.3058    2.8595   -3.7124 C   0  0  0  1  0  0  0  0  0  0  0  0
   -3.0387    3.0020   -3.1688 C   0  0  0  1  0  0  0  0  0  0  0  0
   -2.7879    2.5744   -1.8786 C   0  0  0  1  0  0  0  0  0  0  0  0
   -3.8051    2.0078   -1.1264 C   0  0  0  1  0  0  0  0  0  0  0  0
   -1.4059    2.7240   -1.2878 C   0  0  0  1  0  0  0  0  0  0  0  0
   -4.5055    3.2847   -4.9747 F   0  0  0  1  0  0  0  0  0  0  0  0
   -6.2716    2.1914   -3.3686 H   0  0  0  1  0  0  0  0  0  0  0  0
   -2.2766    3.4307   -3.7318 H   0  0  0  1  0  0  0  0  0  0  0  0
   -3.6175    1.6897   -0.1541 H   0  0  0  1  0  0  0  0  0  0  0  0
   -1.0446    3.7062   -1.5109 H   0  0  0  1  0  0  0  0  0  0  0  0
   -1.4738    2.6009   -0.2271 H   0  0  0  1  0  0  0  0  0  0  0  0
  1  4  1  0  0  0  0
  2  4  1  0  0  0  0
  2  5  2  0  0  0  0
  2  6  1  0  0  0  0
  3  4  1  0  0  0  0
  3  7  1  0  0  0  0
  3  8  1  0  0  0  0
  4 26  1  0  0  0  0
  6  9  1  0  0  0  0
  6 12  1  0  0  0  0
  8 10  1  0  0  0  0
  8 11  2  0  0  0  0
  9 13  1  0  0  0  0
  9 14  1  0  0  0  0
  9 15  1  0  0  0  0
 10 16  1  0  0  0  0
 10 17  1  0  0  0  0
 10 18  1  0  0  0  0
 19 20  1  0  0  0  0
 20 21  4  0  0  0  0
 20 25  4  0  0  0  0
 21 22  4  0  0  0  0
 21 28  1  0  0  0  0
 22 23  4  0  0  0  0
 22 27  1  0  0  0  0
 23 24  4  0  0  0  0
 23 29  1  0  0  0  0
 24 25  4  0  0  0  0
 24 26  1  0  0  0  0
 25 30  1  0  0  0  0
 26 31  1  0  0  0  0
 26 32  1  0  0  0  0
M  END
> <BCLConfClusterSize>
1

> <ConfClashScore>
0 

> <ConfOneFourInteractionScore>
-0.974251 

> <ConfScore>
0.340036 

> <ConfScorePBest>
0.00413134 

> <ConfTolerance>
0.555706 

> <RosettaParamsInstructions>
M  ROOT 3
M  POLY_N_BB 3
M  POLY_CA_BB 4
M  POLY_C_BB 2
M  POLY_O_BB 5
M  POLY_IGNORE 9 10 11 12 13 14 15 16 17 18 
M  POLY_UPPER 6
M  POLY_LOWER 8
M  POLY_CHG 0
M  POLY_PROPERTIES ALPHA_AA D_AA PROTEIN AROMATIC POLYMER 
M  END

$$$$



 32 32  0  0  0  0  0  0  0  0999 V2000
   -0.1988    3.3979    0.2904 H   0  0  0  1  0  0  0  0  0  0  0  0
   -1.7909    2.2463    1.1181 C   0  0  0  1  0  0  0  0  0  0  0  0
   -1.9823    4.4724    0.2584 N   0  0  0  1  0  0  0  0  0  0  0  0
   -1.2377    3.2329    0.0942 C   0  0  0  1  0  0  0  0  0  0  0  0
   -2.2923    2.6083    2.1669 O   0  0  0  1  0  0  0  0  0  0  0  0
   -1.7254    0.9371    0.8596 N   0  0  0  1  0  0  0  0  0  0  0  0
   -2.8585    4.4433    0.6965 H   0  0  0  1  0  0  0  0  0  0  0  0
   -1.5130    5.6486   -0.1673 C   0  0  0  1  0  0  0  0  0  0  0  0
   -2.3034   -0.0628    1.7503 C   0  0  0  1  0  0  0  0  0  0  0  0
   -2.4699    6.8273   -0.0424 C   0  0  0  1  0  0  0  0  0  0  0  0
   -0.3834    5.7901   -0.6332 O   0  0  0  1  0  0  0  0  0  0  0  0
   -1.2732    0.6383    0.0431 H   0  0  0  1  0  0  0  0  0  0  0  0
   -3.3495    0.1278    1.8703 H   0  0  0  1  0  0  0  0  0  0  0  0
   -1.8203   -0.0127    2.7037 H   0  0  0  1  0  0  0  0  0  0  0  0
   -2.1646   -1.0371    1.3303 H   0  0  0  1  0  0  0  0  0  0  0  0
   -3.1893    6.6237    0.7231 H   0  0  0  1  0  0  0  0  0  0  0  0
   -2.9738    6.9777   -0.9742 H   0  0  0  1  0  0  0  0  0  0  0  0
   -1.9186    7.7085    0.2118 H   0  0  0  1  0  0  0  0  0  0  0  0
   -6.0530    1.3068   -0.9461 F   0  0  0  1  0  0  0  0  0  0  0  0
   -5.0663    1.8681   -1.6709 C   0  0  0  1  0  0  0  0  0  0  0  0
   -5.3133    2.2912   -2.9676 C   0  0  0  1  0  0  0  0  0  0  0  0
   -4.2995    2.8624   -3.7133 C   0  0  0  1  0  0  0  0  0  0  0  0
   -3.0369    3.0170   -3.1625 C   0  0  0  1  0  0  0  0  0  0  0  0
   -2.7903    2.5952   -1.8696 C   0  0  0  1  0  0  0  0  0  0  0  0
   -3.8073    2.0224   -1.1218 C   0  0  0  1  0  0  0  0  0  0  0  0
   -1.3944    2.6655   -1.2970 C   0  0  0  1  0  0  0  0  0  0  0  0
   -4.5383    3.2687   -4.9750 F   0  0  0  1  0  0  0  0  0  0  0  0
   -6.2617    2.1788   -3.3794 H   0  0  0  1  0  0  0  0  0  0  0  0
   -2.2750    3.4504   -3.7222 H   0  0  0  1  0  0  0  0  0  0  0  0
   -3.6229    1.7086   -0.1476 H   0  0  0  1  0  0  0  0  0  0  0  0
   -1.0038    1.6694   -1.2824 H   0  0  0  1  0  0  0  0  0  0  0  0
   -0.8076    3.2695   -1.9571 H   0  0  0  1  0  0  0  0  0  0  0  0
  1  4  1  0  0  0  0
  2  4  1  0  0  0  0
  2  5  2  0  0  0  0
  2  6  1  0  0  0  0
  3  4  1  0  0  0  0
  3  7  1  0  0  0  0
  3  8  1  0  0  0  0
  4 26  1  0  0  0  0
  6  9  1  0  0  0  0
  6 12  1  0  0  0  0
  8 10  1  0  0  0  0
  8 11  2  0  0  0  0
  9 13  1  0  0  0  0
  9 14  1  0  0  0  0
  9 15  1  0  0  0  0
 10 16  1  0  0  0  0
 10 17  1  0  0  0  0
 10 18  1  0  0  0  0
 19 20  1  0  0  0  0
 20 21  4  0  0  0  0
 20 25  4  0  0  0  0
 21 22  4  0  0  0  0
 21 28  1  0  0  0  0
 22 23  4  0  0  0  0
 22 27  1  0  0  0  0
 23 24  4  0  0  0  0
 23 29  1  0  0  0  0
 24 25  4  0  0  0  0
 24 26  1  0  0  0  0
 25 30  1  0  0  0  0
 26 31  1  0  0  0  0
 26 32  1  0  0  0  0
M  END
> <BCLConfClusterSize>
1

> <ConfClashScore>
0 

> <ConfOneFourInteractionScore>
-0.929354 

> <ConfScore>
0.341668 

> <ConfScorePBest>
0.00410286 

> <ConfTolerance>
0.574107 

> <RosettaParamsInstructions>
M  ROOT 3
M  POLY_N_BB 3
M  POLY_CA_BB 4
M  POLY_C_BB 2
M  POLY_O_BB 5
M  POLY_IGNORE 9 10 11 12 13 14 15 16 17 18 
M  POLY_UPPER 6
M  POLY_LOWER 8
M  POLY_CHG 0
M  POLY_PROPERTIES ALPHA_AA D_AA PROTEIN AROMATIC POLYMER 
M  END

$$$$



 32 32  0  0  0  0  0  0  0  0999 V2000
   -2.0023    3.8612    0.3769 H   0  0  0  1  0  0  0  0  0  0  0  0
   -1.5410    5.2696   -1.1009 C   0  0  0  1  0  0  0  0  0  0  0  0
    0.0537    3.9736    0.2565 N   0  0  0  1  0  0  0  0  0  0  0  0
   -1.2689    3.9533   -0.3968 C   0  0  0  1  0  0  0  0  0  0  0  0
   -2.2125    5.3163   -2.1191 O   0  0  0  1  0  0  0  0  0  0  0  0
   -1.0025    6.3513   -0.5358 N   0  0  0  1  0  0  0  0  0  0  0  0
    0.8503    4.1277   -0.2930 H   0  0  0  1  0  0  0  0  0  0  0  0
    0.2031    3.7893    1.5714 C   0  0  0  1  0  0  0  0  0  0  0  0
   -1.1073    7.7048   -1.0601 C   0  0  0  1  0  0  0  0  0  0  0  0
    1.6318    3.7962    2.0793 C   0  0  0  1  0  0  0  0  0  0  0  0
   -0.7475    3.6227    2.3380 O   0  0  0  1  0  0  0  0  0  0  0  0
   -0.4984    6.2250    0.2950 H   0  0  0  1  0  0  0  0  0  0  0  0
   -2.1376    7.9881   -1.1142 H   0  0  0  1  0  0  0  0  0  0  0  0
   -0.6754    7.7425   -2.0384 H   0  0  0  1  0  0  0  0  0  0  0  0
   -0.5857    8.3790   -0.4132 H   0  0  0  1  0  0  0  0  0  0  0  0
    2.2166    4.4724    1.4914 H   0  0  0  1  0  0  0  0  0  0  0  0
    2.0420    2.8110    2.0028 H   0  0  0  1  0  0  0  0  0  0  0  0
    1.6449    4.1102    3.1021 H   0  0  0  1  0  0  0  0  0  0  0  0
   -6.0335    1.3084   -0.9179 F   0  0  0  1  0  0  0  0  0  0  0  0
   -5.0716    1.8680   -1.6765 C   0  0  0  1  0  0  0  0  0  0  0  0
   -5.3166    2.2989   -2.9710 C   0  0  0  1  0  0  0  0  0  0  0  0
   -4.2984    2.8630   -3.7161 C   0  0  0  1  0  0  0  0  0  0  0  0
   -3.0333    3.0028   -3.1670 C   0  0  0  1  0  0  0  0  0  0  0  0
   -2.7888    2.5732   -1.8762 C   0  0  0  1  0  0  0  0  0  0  0  0
   -3.8102    2.0074   -1.1290 C   0  0  0  1  0  0  0  0  0  0  0  0
   -1.4091    2.7199   -1.2793 C   0  0  0  1  0  0  0  0  0  0  0  0
   -4.5352    3.2769   -4.9757 F   0  0  0  1  0  0  0  0  0  0  0  0
   -6.2667    2.1977   -3.3816 H   0  0  0  1  0  0  0  0  0  0  0  0
   -2.2681    3.4309   -3.7262 H   0  0  0  1  0  0  0  0  0  0  0  0
   -3.6273    1.6879   -0.1564 H   0  0  0  1  0  0  0  0  0  0  0  0
   -1.1997    1.8527   -0.6884 H   0  0  0  1  0  0  0  0  0  0  0  0
   -0.6987    2.7890   -2.0765 H   0  0  0  1  0  0  0  0  0  0  0  0
  1  4  1  0  0  0  0
  2  4  1  0  0  0  0
  2  5  2  0  0  0  0
  2  6  1  0  0  0  0
  3  4  1  0  0  0  0
  3  7  1  0  0  0  0
  3  8  1  0  0  0  0
  4 26  1  0  0  0  0
  6  9  1  0  0  0  0
  6 12  1  0  0  0  0
  8 10  1  0  0  0  0
  8 11  2  0  0  0  0
  9 13  1  0  0  0  0
  9 14  1  0  0  0  0
  9 15  1  0  0  0  0
 10 16  1  0  0  0  0
 10 17  1  0  0  0  0
 10 18  1  0  0  0  0
 19 20  1  0  0  0  0
 20 21  4  0  0  0  0
 20 25  4  0  0  0  0
 21 22  4  0  0  0  0
 21 28  1  0  0  0  0
 22 23  4  0  0  0  0
 22 27  1  0  0  0  0
 23 24  4  0  0  0  0
 23 29  1  0  0  0  0
 24 25  4  0  0  0  0
 24 26  1  0  0  0  0
 25 30  1  0  0  0  0
 26 31  1  0  0  0  0
 26 32  1  0  0  0  0
M  END
> <BCLConfClusterSize>
1

> <ConfClashScore>
0 

> <ConfOneFourInteractionScore>
-0.964655 

> <ConfScore>
0.342309 

> <ConfScorePBest>
0.00407438 

> <ConfTolerance>
0.494024 

> <RosettaParamsInstructions>
M  ROOT 3
M  POLY_N_BB 3
M  POLY_CA_BB 4
M  POLY_C_BB 2
M  POLY_O_BB 5
M  POLY_IGNORE 9 10 11 12 13 14 15 16 17 18 
M  POLY_UPPER 6
M  POLY_LOWER 8
M  POLY_CHG 0
M  POLY_PROPERTIES ALPHA_AA D_AA PROTEIN AROMATIC POLYMER 
M  END

$$$$



 32 32  0  0  0  0  0  0  0  0999 V2000
    0.0048    4.1437   -0.7015 H   0  0  0  1  0  0  0  0  0  0  0  0
   -1.5727    4.4050    0.6312 C   0  0  0  1  0  0  0  0  0  0  0  0
   -1.4527    5.1456   -1.7333 N   0  0  0  1  0  0  0  0  0  0  0  0
   -1.0628    4.1105   -0.7661 C   0  0  0  1  0  0  0  0  0  0  0  0
   -1.0230    3.9192    1.6189 O   0  0  0  1  0  0  0  0  0  0  0  0
   -2.6449    5.2141    0.7577 N   0  0  0  1  0  0  0  0  0  0  0  0
   -2.3157    5.5963   -1.6216 H   0  0  0  1  0  0  0  0  0  0  0  0
   -0.6638    5.4972   -2.7699 C   0  0  0  1  0  0  0  0  0  0  0  0
   -3.1494    5.5574    2.0789 C   0  0  0  1  0  0  0  0  0  0  0  0
   -1.1423    6.6073   -3.6853 C   0  0  0  1  0  0  0  0  0  0  0  0
    0.4124    4.9352   -2.9686 O   0  0  0  1  0  0  0  0  0  0  0  0
   -3.0849    5.5714   -0.0417 H   0  0  0  1  0  0  0  0  0  0  0  0
   -3.8891    4.8434    2.3754 H   0  0  0  1  0  0  0  0  0  0  0  0
   -3.5872    6.5334    2.0507 H   0  0  0  1  0  0  0  0  0  0  0  0
   -2.3429    5.5479    2.7820 H   0  0  0  1  0  0  0  0  0  0  0  0
   -1.6964    7.3249   -3.1171 H   0  0  0  1  0  0  0  0  0  0  0  0
   -1.7698    6.1950   -4.4477 H   0  0  0  1  0  0  0  0  0  0  0  0
   -0.2983    7.0853   -4.1371 H   0  0  0  1  0  0  0  0  0  0  0  0
   -6.0561    1.3124   -0.9444 F   0  0  0  1  0  0  0  0  0  0  0  0
   -5.0671    1.8672   -1.6711 C   0  0  0  1  0  0  0  0  0  0  0  0
   -5.3152    2.2971   -2.9653 C   0  0  0  1  0  0  0  0  0  0  0  0
   -4.2991    2.8616   -3.7130 C   0  0  0  1  0  0  0  0  0  0  0  0
   -3.0330    3.0027   -3.1666 C   0  0  0  1  0  0  0  0  0  0  0  0
   -2.7853    2.5741   -1.8761 C   0  0  0  1  0  0  0  0  0  0  0  0
   -3.8046    2.0080   -1.1264 C   0  0  0  1  0  0  0  0  0  0  0  0
   -1.4045    2.7223   -1.2822 C   0  0  0  1  0  0  0  0  0  0  0  0
   -4.5390    3.2745   -4.9723 F   0  0  0  1  0  0  0  0  0  0  0  0
   -6.2661    2.1949   -3.3738 H   0  0  0  1  0  0  0  0  0  0  0  0
   -2.2693    3.4311   -3.7277 H   0  0  0  1  0  0  0  0  0  0  0  0
   -3.6194    1.6891   -0.1540 H   0  0  0  1  0  0  0  0  0  0  0  0
   -1.3213    2.0366   -0.4651 H   0  0  0  1  0  0  0  0  0  0  0  0
   -0.6911    2.4662   -2.0375 H   0  0  0  1  0  0  0  0  0  0  0  0
  1  4  1  0  0  0  0
  2  4  1  0  0  0  0
  2  5  2  0  0  0  0
  2  6  1  0  0  0  0
  3  4  1  0  0  0  0
  3  7  1  0  0  0  0
  3  8  1  0  0  0  0
  4 26  1  0  0  0  0
  6  9  1  0  0  0  0
  6 12  1  0  0  0  0
  8 10  1  0  0  0  0
  8 11  2  0  0  0  0
  9 13  1  0  0  0  0
  9 14  1  0  0  0  0
  9 15  1  0  0  0  0
 10 16  1  0  0  0  0
 10 17  1  0  0  0  0
 10 18  1  0  0  0  0
 19 20  1  0  0  0  0
 20 21  4  0  0  0  0
 20 25  4  0  0  0  0
 21 22  4  0  0  0  0
 21 28  1  0  0  0  0
 22 23  4  0  0  0  0
 22 27  1  0  0  0  0
 23 24  4  0  0  0  0
 23 29  1  0  0  0  0
 24 25  4  0  0  0  0
 24 26  1  0  0  0  0
 25 30  1  0  0  0  0
 26 31  1  0  0  0  0
 26 32  1  0  0  0  0
M  END
> <BCLConfClusterSize>
1

> <ConfClashScore>
0 

> <ConfOneFourInteractionScore>
-0.936632 

> <ConfScore>
0.343857 

> <ConfScorePBest>
0.00404589 

> <ConfTolerance>
0.731989 

> <RosettaParamsInstructions>
M  ROOT 3
M  POLY_N_BB 3
M  POLY_CA_BB 4
M  POLY_C_BB 2
M  POLY_O_BB 5
M  POLY_IGNORE 9 10 11 12 13 14 15 16 17 18 
M  POLY_UPPER 6
M  POLY_LOWER 8
M  POLY_CHG 0
M  POLY_PROPERTIES ALPHA_AA D_AA PROTEIN AROMATIC POLYMER 
M  END

$$$$



 32 32  0  0  0  0  0  0  0  0999 V2000
   -1.1814    0.6831   -0.8926 H   0  0  0  1  0  0  0  0  0  0  0  0
    0.7449    1.5298   -0.7541 C   0  0  0  1  0  0  0  0  0  0  0  0
   -0.5626    1.0787   -2.8253 N   0  0  0  1  0  0  0  0  0  0  0  0
   -0.6182    1.4308   -1.4110 C   0  0  0  1  0  0  0  0  0  0  0  0
    1.6644    0.7830   -1.0785 O   0  0  0  1  0  0  0  0  0  0  0  0
    0.8693    2.4713    0.1856 N   0  0  0  1  0  0  0  0  0  0  0  0
   -0.1626    1.7138   -3.4554 H   0  0  0  1  0  0  0  0  0  0  0  0
   -1.0404   -0.0850   -3.2940 C   0  0  0  1  0  0  0  0  0  0  0  0
    2.0956    2.5701    0.9631 C   0  0  0  1  0  0  0  0  0  0  0  0
   -1.1341   -0.2637   -4.7968 C   0  0  0  1  0  0  0  0  0  0  0  0
   -1.3918   -0.9802   -2.5301 O   0  0  0  1  0  0  0  0  0  0  0  0
    0.1333    3.0967    0.3516 H   0  0  0  1  0  0  0  0  0  0  0  0
    2.8894    2.0764    0.4424 H   0  0  0  1  0  0  0  0  0  0  0  0
    1.9516    2.1058    1.9163 H   0  0  0  1  0  0  0  0  0  0  0  0
    2.3473    3.6007    1.1022 H   0  0  0  1  0  0  0  0  0  0  0  0
   -0.3191   -0.8682   -5.1362 H   0  0  0  1  0  0  0  0  0  0  0  0
   -1.0903    0.6936   -5.2729 H   0  0  0  1  0  0  0  0  0  0  0  0
   -2.0591   -0.7425   -5.0418 H   0  0  0  1  0  0  0  0  0  0  0  0
   -6.0400    1.3056   -0.9152 F   0  0  0  1  0  0  0  0  0  0  0  0
   -5.0774    1.8651   -1.6730 C   0  0  0  1  0  0  0  0  0  0  0  0
   -5.3213    2.2963   -2.9676 C   0  0  0  1  0  0  0  0  0  0  0  0
   -4.3024    2.8603   -3.7119 C   0  0  0  1  0  0  0  0  0  0  0  0
   -3.0377    2.9995   -3.1617 C   0  0  0  1  0  0  0  0  0  0  0  0
   -2.7942    2.5696   -1.8709 C   0  0  0  1  0  0  0  0  0  0  0  0
   -3.8163    2.0040   -1.1245 C   0  0  0  1  0  0  0  0  0  0  0  0
   -1.3971    2.7398   -1.3226 C   0  0  0  1  0  0  0  0  0  0  0  0
   -4.4949    3.2875   -4.9745 F   0  0  0  1  0  0  0  0  0  0  0  0
   -6.2712    2.1955   -3.3789 H   0  0  0  1  0  0  0  0  0  0  0  0
   -2.2720    3.4275   -3.7203 H   0  0  0  1  0  0  0  0  0  0  0  0
   -3.6342    1.6842   -0.1518 H   0  0  0  1  0  0  0  0  0  0  0  0
   -0.8869    3.4905   -1.8892 H   0  0  0  1  0  0  0  0  0  0  0  0
   -1.4568    3.0441   -0.2985 H   0  0  0  1  0  0  0  0  0  0  0  0
  1  4  1  0  0  0  0
  2  4  1  0  0  0  0
  2  5  2  0  0  0  0
  2  6  1  0  0  0  0
  3  4  1  0  0  0  0
  3  7  1  0  0  0  0
  3  8  1  0  0  0  0
  4 26  1  0  0  0  0
  6  9  1  0  0  0  0
  6 12  1  0  0  0  0
  8 10  1  0  0  0  0
  8 11  2  0  0  0  0
  9 13  1  0  0  0  0
  9 14  1  0  0  0  0
  9 15  1  0  0  0  0
 10 16  1  0  0  0  0
 10 17  1  0  0  0  0
 10 18  1  0  0  0  0
 19 20  1  0  0  0  0
 20 21  4  0  0  0  0
 20 25  4  0  0  0  0
 21 22  4  0  0  0  0
 21 28  1  0  0  0  0
 22 23  4  0  0  0  0
 22 27  1  0  0  0  0
 23 24  4  0  0  0  0
 23 29  1  0  0  0  0
 24 25  4  0  0  0  0
 24 26  1  0  0  0  0
 25 30  1  0  0  0  0
 26 31  1  0  0  0  0
 26 32  1  0  0  0  0
M  END
> <BCLConfClusterSize>
1

> <ConfClashScore>
0 

> <ConfOneFourInteractionScore>
-0.958855 

> <ConfScore>
0.34413 

> <ConfScorePBest>
0.00401741 

> <ConfTolerance>
0.623213 

> <RosettaParamsInstructions>
M  ROOT 3
M  POLY_N_BB 3
M  POLY_CA_BB 4
M  POLY_C_BB 2
M  POLY_O_BB 5
M  POLY_IGNORE 9 10 11 12 13 14 15 16 17 18 
M  POLY_UPPER 6
M  POLY_LOWER 8
M  POLY_CHG 0
M  POLY_PROPERTIES ALPHA_AA D_AA PROTEIN AROMATIC POLYMER 
M  END

$$$$



 32 32  0  0  0  0  0  0  0  0999 V2000
   -1.4656    1.0219   -0.0041 H   0  0  0  1  0  0  0  0  0  0  0  0
    0.5587    1.6026   -0.1197 C   0  0  0  1  0  0  0  0  0  0  0  0
   -0.7034    0.4162   -1.8293 N   0  0  0  1  0  0  0  0  0  0  0  0
   -0.8030    1.3990   -0.7549 C   0  0  0  1  0  0  0  0  0  0  0  0
    0.6996    2.5522    0.6464 O   0  0  0  1  0  0  0  0  0  0  0  0
    1.5368    0.7370   -0.4266 N   0  0  0  1  0  0  0  0  0  0  0  0
   -1.0210   -0.4965   -1.6663 H   0  0  0  1  0  0  0  0  0  0  0  0
   -0.1840    0.7237   -3.0516 C   0  0  0  1  0  0  0  0  0  0  0  0
    2.9043    0.9997   -0.0038 C   0  0  0  1  0  0  0  0  0  0  0  0
   -0.0867   -0.3806   -3.9925 C   0  0  0  1  0  0  0  0  0  0  0  0
    0.1784    1.8390   -3.3522 O   0  0  0  1  0  0  0  0  0  0  0  0
    1.3298   -0.0739   -0.9365 H   0  0  0  1  0  0  0  0  0  0  0  0
    2.9937    0.8210    1.0474 H   0  0  0  1  0  0  0  0  0  0  0  0
    3.1529    2.0188   -0.2145 H   0  0  0  1  0  0  0  0  0  0  0  0
    3.5717    0.3524   -0.5334 H   0  0  0  1  0  0  0  0  0  0  0  0
   -1.0317   -0.5245   -4.4733 H   0  0  0  1  0  0  0  0  0  0  0  0
    0.1860   -1.2726   -3.4683 H   0  0  0  1  0  0  0  0  0  0  0  0
    0.6572   -0.1573   -4.7285 H   0  0  0  1  0  0  0  0  0  0  0  0
   -6.0582    1.3121   -0.9453 F   0  0  0  1  0  0  0  0  0  0  0  0
   -5.0692    1.8670   -1.6720 C   0  0  0  1  0  0  0  0  0  0  0  0
   -5.3173    2.2969   -2.9662 C   0  0  0  1  0  0  0  0  0  0  0  0
   -4.3012    2.8614   -3.7139 C   0  0  0  1  0  0  0  0  0  0  0  0
   -3.0351    3.0025   -3.1675 C   0  0  0  1  0  0  0  0  0  0  0  0
   -2.7875    2.5739   -1.8770 C   0  0  0  1  0  0  0  0  0  0  0  0
   -3.8068    2.0077   -1.1273 C   0  0  0  1  0  0  0  0  0  0  0  0
   -1.3810    2.7248   -1.2722 C   0  0  0  1  0  0  0  0  0  0  0  0
   -4.5411    3.2743   -4.9732 F   0  0  0  1  0  0  0  0  0  0  0  0
   -6.2683    2.1947   -3.3748 H   0  0  0  1  0  0  0  0  0  0  0  0
   -2.2715    3.4309   -3.7286 H   0  0  0  1  0  0  0  0  0  0  0  0
   -3.6215    1.6889   -0.1549 H   0  0  0  1  0  0  0  0  0  0  0  0
   -0.7262    3.1112   -2.0250 H   0  0  0  1  0  0  0  0  0  0  0  0
   -1.4335    3.4149   -0.4561 H   0  0  0  1  0  0  0  0  0  0  0  0
  1  4  1  0  0  0  0
  2  4  1  0  0  0  0
  2  5  2  0  0  0  0
  2  6  1  0  0  0  0
  3  4  1  0  0  0  0
  3  7  1  0  0  0  0
  3  8  1  0  0  0  0
  4 26  1  0  0  0  0
  6  9  1  0  0  0  0
  6 12  1  0  0  0  0
  8 10  1  0  0  0  0
  8 11  2  0  0  0  0
  9 13  1  0  0  0  0
  9 14  1  0  0  0  0
  9 15  1  0  0  0  0
 10 16  1  0  0  0  0
 10 17  1  0  0  0  0
 10 18  1  0  0  0  0
 19 20  1  0  0  0  0
 20 21  4  0  0  0  0
 20 25  4  0  0  0  0
 21 22  4  0  0  0  0
 21 28  1  0  0  0  0
 22 23  4  0  0  0  0
 22 27  1  0  0  0  0
 23 24  4  0  0  0  0
 23 29  1  0  0  0  0
 24 25  4  0  0  0  0
 24 26  1  0  0  0  0
 25 30  1  0  0  0  0
 26 31  1  0  0  0  0
 26 32  1  0  0  0  0
M  END
> <BCLConfClusterSize>
1

> <ConfClashScore>
0 

> <ConfOneFourInteractionScore>
-0.938662 

> <ConfScore>
0.346755 

> <ConfScorePBest>
0.00398893 

> <ConfTolerance>
0.36673 

> <RosettaParamsInstructions>
M  ROOT 3
M  POLY_N_BB 3
M  POLY_CA_BB 4
M  POLY_C_BB 2
M  POLY_O_BB 5
M  POLY_IGNORE 9 10 11 12 13 14 15 16 17 18 
M  POLY_UPPER 6
M  POLY_LOWER 8
M  POLY_CHG 0
M  POLY_PROPERTIES ALPHA_AA D_AA PROTEIN AROMATIC POLYMER 
M  END

$$$$



 32 32  0  0  0  0  0  0  0  0999 V2000
   -0.3933    3.6312    0.3303 H   0  0  0  1  0  0  0  0  0  0  0  0
   -1.9476    2.4811    1.1649 C   0  0  0  1  0  0  0  0  0  0  0  0
   -2.1486    4.6600    0.0196 N   0  0  0  1  0  0  0  0  0  0  0  0
   -1.4102    3.4077    0.0835 C   0  0  0  1  0  0  0  0  0  0  0  0
   -1.8896    1.2683    1.0456 O   0  0  0  1  0  0  0  0  0  0  0  0
   -2.4773    3.0824    2.2338 N   0  0  0  1  0  0  0  0  0  0  0  0
   -3.0754    4.6793    0.3374 H   0  0  0  1  0  0  0  0  0  0  0  0
   -1.5865    5.8269   -0.4754 C   0  0  0  1  0  0  0  0  0  0  0  0
   -3.1980    2.3468    3.2621 C   0  0  0  1  0  0  0  0  0  0  0  0
   -2.4631    7.0305   -0.6797 C   0  0  0  1  0  0  0  0  0  0  0  0
   -0.3933    5.8375   -0.7296 O   0  0  0  1  0  0  0  0  0  0  0  0
   -2.3772    4.0526    2.3288 H   0  0  0  1  0  0  0  0  0  0  0  0
   -4.0420    2.9194    3.5857 H   0  0  0  1  0  0  0  0  0  0  0  0
   -2.5487    2.1678    4.0936 H   0  0  0  1  0  0  0  0  0  0  0  0
   -3.5332    1.4123    2.8631 H   0  0  0  1  0  0  0  0  0  0  0  0
   -2.8526    7.3529    0.2633 H   0  0  0  1  0  0  0  0  0  0  0  0
   -3.2726    6.7754   -1.3313 H   0  0  0  1  0  0  0  0  0  0  0  0
   -1.8882    7.8201   -1.1166 H   0  0  0  1  0  0  0  0  0  0  0  0
   -6.0556    1.3105   -0.9392 F   0  0  0  1  0  0  0  0  0  0  0  0
   -5.0686    1.8657   -1.6683 C   0  0  0  1  0  0  0  0  0  0  0  0
   -5.3199    2.2947   -2.9622 C   0  0  0  1  0  0  0  0  0  0  0  0
   -4.3058    2.8595   -3.7124 C   0  0  0  1  0  0  0  0  0  0  0  0
   -3.0387    3.0020   -3.1688 C   0  0  0  1  0  0  0  0  0  0  0  0
   -2.7879    2.5744   -1.8786 C   0  0  0  1  0  0  0  0  0  0  0  0
   -3.8051    2.0078   -1.1264 C   0  0  0  1  0  0  0  0  0  0  0  0
   -1.4059    2.7240   -1.2878 C   0  0  0  1  0  0  0  0  0  0  0  0
   -4.5055    3.2847   -4.9747 F   0  0  0  1  0  0  0  0  0  0  0  0
   -6.2716    2.1914   -3.3686 H   0  0  0  1  0  0  0  0  0  0  0  0
   -2.2766    3.4307   -3.7318 H   0  0  0  1  0  0  0  0  0  0  0  0
   -3.6175    1.6897   -0.1541 H   0  0  0  1  0  0  0  0  0  0  0  0
   -0.9735    1.7510   -1.1819 H   0  0  0  1  0  0  0  0  0  0  0  0
   -0.8105    3.3084   -1.9578 H   0  0  0  1  0  0  0  0  0  0  0  0
  1  4  1  0  0  0  0
  2  4  1  0  0  0  0
  2  5  2  0  0  0  0
  2  6  1  0  0  0  0
  3  4  1  0  0  0  0
  3  7  1  0  0  0  0
  3  8  1  0  0  0  0
  4 26  1  0  0  0  0
  6  9  1  0  0  0  0
  6 12  1  0  0  0  0
  8 10  1  0  0  0  0
  8 11  2  0  0  0  0
  9 13  1  0  0  0  0
  9 14  1  0  0  0  0
  9 15  1  0  0  0  0
 10 16  1  0  0  0  0
 10 17  1  0  0  0  0
 10 18  1  0  0  0  0
 19 20  1  0  0  0  0
 20 21  4  0  0  0  0
 20 25  4  0  0  0  0
 21 22  4  0  0  0  0
 21 28  1  0  0  0  0
 22 23  4  0  0  0  0
 22 27  1  0  0  0  0
 23 24  4  0  0  0  0
 23 29  1  0  0  0  0
 24 25  4  0  0  0  0
 24 26  1  0  0  0  0
 25 30  1  0  0  0  0
 26 31  1  0  0  0  0
 26 32  1  0  0  0  0
M  END
> <BCLConfClusterSize>
1

> <ConfClashScore>
0 

> <ConfOneFourInteractionScore>
-0.932227 

> <ConfScore>
0.353315 

> <ConfScorePBest>
0.00396045 

> <ConfTolerance>
0.719306 

> <RosettaParamsInstructions>
M  ROOT 3
M  POLY_N_BB 3
M  POLY_CA_BB 4
M  POLY_C_BB 2
M  POLY_O_BB 5
M  POLY_IGNORE 9 10 11 12 13 14 15 16 17 18 
M  POLY_UPPER 6
M  POLY_LOWER 8
M  POLY_CHG 0
M  POLY_PROPERTIES ALPHA_AA D_AA PROTEIN AROMATIC POLYMER 
M  END

$$$$



 32 32  0  0  0  0  0  0  0  0999 V2000
   -0.2515    3.8482    0.0777 H   0  0  0  1  0  0  0  0  0  0  0  0
   -2.2017    3.8233    0.8616 C   0  0  0  1  0  0  0  0  0  0  0  0
   -1.3827    5.1402   -1.0557 N   0  0  0  1  0  0  0  0  0  0  0  0
   -1.2458    3.8951   -0.3148 C   0  0  0  1  0  0  0  0  0  0  0  0
   -3.3593    4.1968    0.7608 O   0  0  0  1  0  0  0  0  0  0  0  0
   -1.6932    3.3311    1.9923 N   0  0  0  1  0  0  0  0  0  0  0  0
   -2.1311    5.7365   -0.8443 H   0  0  0  1  0  0  0  0  0  0  0  0
   -0.5235    5.4985   -2.0140 C   0  0  0  1  0  0  0  0  0  0  0  0
   -2.4508    3.2948    3.2343 C   0  0  0  1  0  0  0  0  0  0  0  0
   -0.7834    6.8445   -2.6621 C   0  0  0  1  0  0  0  0  0  0  0  0
    0.4162    4.8003   -2.3592 O   0  0  0  1  0  0  0  0  0  0  0  0
   -0.7776    2.9818    1.9864 H   0  0  0  1  0  0  0  0  0  0  0  0
   -3.1222    4.1272    3.2676 H   0  0  0  1  0  0  0  0  0  0  0  0
   -1.7773    3.3466    4.0642 H   0  0  0  1  0  0  0  0  0  0  0  0
   -3.0098    2.3838    3.2843 H   0  0  0  1  0  0  0  0  0  0  0  0
   -0.4440    7.6248   -2.0133 H   0  0  0  1  0  0  0  0  0  0  0  0
   -1.8326    6.9587   -2.8382 H   0  0  0  1  0  0  0  0  0  0  0  0
   -0.2570    6.9000   -3.5920 H   0  0  0  1  0  0  0  0  0  0  0  0
   -6.0480    1.3115   -0.9364 F   0  0  0  1  0  0  0  0  0  0  0  0
   -5.0639    1.8673   -1.6690 C   0  0  0  1  0  0  0  0  0  0  0  0
   -5.3197    2.2948   -2.9625 C   0  0  0  1  0  0  0  0  0  0  0  0
   -4.3086    2.8603   -3.7163 C   0  0  0  1  0  0  0  0  0  0  0  0
   -3.0399    3.0047   -3.1767 C   0  0  0  1  0  0  0  0  0  0  0  0
   -2.7847    2.5785   -1.8870 C   0  0  0  1  0  0  0  0  0  0  0  0
   -3.7989    2.0113   -1.1311 C   0  0  0  1  0  0  0  0  0  0  0  0
   -1.4218    2.7044   -1.2480 C   0  0  0  1  0  0  0  0  0  0  0  0
   -4.5127    3.2841   -4.9783 F   0  0  0  1  0  0  0  0  0  0  0  0
   -6.2725    2.1901   -3.3659 H   0  0  0  1  0  0  0  0  0  0  0  0
   -2.2801    3.4338   -3.7425 H   0  0  0  1  0  0  0  0  0  0  0  0
   -3.6079    1.6943   -0.1592 H   0  0  0  1  0  0  0  0  0  0  0  0
   -1.2378    1.8135   -0.6847 H   0  0  0  1  0  0  0  0  0  0  0  0
   -0.6969    2.7883   -2.0305 H   0  0  0  1  0  0  0  0  0  0  0  0
  1  4  1  0  0  0  0
  2  4  1  0  0  0  0
  2  5  2  0  0  0  0
  2  6  1  0  0  0  0
  3  4  1  0  0  0  0
  3  7  1  0  0  0  0
  3  8  1  0  0  0  0
  4 26  1  0  0  0  0
  6  9  1  0  0  0  0
  6 12  1  0  0  0  0
  8 10  1  0  0  0  0
  8 11  2  0  0  0  0
  9 13  1  0  0  0  0
  9 14  1  0  0  0  0
  9 15  1  0  0  0  0
 10 16  1  0  0  0  0
 10 17  1  0  0  0  0
 10 18  1  0  0  0  0
 19 20  1  0  0  0  0
 20 21  4  0  0  0  0
 20 25  4  0  0  0  0
 21 22  4  0  0  0  0
 21 28  1  0  0  0  0
 22 23  4  0  0  0  0
 22 27  1  0  0  0  0
 23 24  4  0  0  0  0
 23 29  1  0  0  0  0
 24 25  4  0  0  0  0
 24 26  1  0  0  0  0
 25 30  1  0  0  0  0
 26 31  1  0  0  0  0
 26 32  1  0  0  0  0
M  END
> <BCLConfClusterSize>
1

> <ConfClashScore>
0 

> <ConfOneFourInteractionScore>
-0.978122 

> <ConfScore>
0.35795 

> <ConfScorePBest>
0.00393197 

> <ConfTolerance>
0.663911 

> <RosettaParamsInstructions>
M  ROOT 3
M  POLY_N_BB 3
M  POLY_CA_BB 4
M  POLY_C_BB 2
M  POLY_O_BB 5
M  POLY_IGNORE 9 10 11 12 13 14 15 16 17 18 
M  POLY_UPPER 6
M  POLY_LOWER 8
M  POLY_CHG 0
M  POLY_PROPERTIES ALPHA_AA D_AA PROTEIN AROMATIC POLYMER 
M  END

$$$$



 32 32  0  0  0  0  0  0  0  0999 V2000
   -0.3458    1.7157   -2.7994 H   0  0  0  1  0  0  0  0  0  0  0  0
   -0.9834    0.2362   -1.4638 C   0  0  0  1  0  0  0  0  0  0  0  0
    0.9035    1.7740   -1.1665 N   0  0  0  1  0  0  0  0  0  0  0  0
   -0.4389    1.6247   -1.7374 C   0  0  0  1  0  0  0  0  0  0  0  0
   -0.4229   -0.5251   -0.6797 O   0  0  0  1  0  0  0  0  0  0  0  0
   -2.1018   -0.0933   -2.1292 N   0  0  0  1  0  0  0  0  0  0  0  0
    1.6169    2.1455   -1.7264 H   0  0  0  1  0  0  0  0  0  0  0  0
    1.1907    1.4176    0.1027 C   0  0  0  1  0  0  0  0  0  0  0  0
   -2.8156   -1.3371   -1.8819 C   0  0  0  1  0  0  0  0  0  0  0  0
    2.6232    1.5437    0.5695 C   0  0  0  1  0  0  0  0  0  0  0  0
    0.3130    1.0012    0.8612 O   0  0  0  1  0  0  0  0  0  0  0  0
   -2.4496    0.5253   -2.8050 H   0  0  0  1  0  0  0  0  0  0  0  0
   -3.0677   -1.4040   -0.8441 H   0  0  0  1  0  0  0  0  0  0  0  0
   -2.1935   -2.1648   -2.1516 H   0  0  0  1  0  0  0  0  0  0  0  0
   -3.7106   -1.3570   -2.4680 H   0  0  0  1  0  0  0  0  0  0  0  0
    2.9053    2.5758    0.5818 H   0  0  0  1  0  0  0  0  0  0  0  0
    3.2642    1.0069   -0.0982 H   0  0  0  1  0  0  0  0  0  0  0  0
    2.7138    1.1377    1.5553 H   0  0  0  1  0  0  0  0  0  0  0  0
   -6.0556    1.3105   -0.9392 F   0  0  0  1  0  0  0  0  0  0  0  0
   -5.0686    1.8657   -1.6683 C   0  0  0  1  0  0  0  0  0  0  0  0
   -5.3199    2.2947   -2.9622 C   0  0  0  1  0  0  0  0  0  0  0  0
   -4.3058    2.8595   -3.7124 C   0  0  0  1  0  0  0  0  0  0  0  0
   -3.0387    3.0020   -3.1688 C   0  0  0  1  0  0  0  0  0  0  0  0
   -2.7879    2.5744   -1.8786 C   0  0  0  1  0  0  0  0  0  0  0  0
   -3.8051    2.0078   -1.1264 C   0  0  0  1  0  0  0  0  0  0  0  0
   -1.4059    2.7240   -1.2878 C   0  0  0  1  0  0  0  0  0  0  0  0
   -4.5055    3.2847   -4.9747 F   0  0  0  1  0  0  0  0  0  0  0  0
   -6.2716    2.1914   -3.3686 H   0  0  0  1  0  0  0  0  0  0  0  0
   -2.2766    3.4307   -3.7318 H   0  0  0  1  0  0  0  0  0  0  0  0
   -3.6175    1.6897   -0.1541 H   0  0  0  1  0  0  0  0  0  0  0  0
   -1.0080    3.6710   -1.5876 H   0  0  0  1  0  0  0  0  0  0  0  0
   -1.4861    2.6918   -0.2213 H   0  0  0  1  0  0  0  0  0  0  0  0
  1  4  1  0  0  0  0
  2  4  1  0  0  0  0
  2  5  2  0  0  0  0
  2  6  1  0  0  0  0
  3  4  1  0  0  0  0
  3  7  1  0  0  0  0
  3  8  1  0  0  0  0
  4 26  1  0  0  0  0
  6  9  1  0  0  0  0
  6 12  1  0  0  0  0
  8 10  1  0  0  0  0
  8 11  2  0  0  0  0
  9 13  1  0  0  0  0
  9 14  1  0  0  0  0
  9 15  1  0  0  0  0
 10 16  1  0  0  0  0
 10 17  1  0  0  0  0
 10 18  1  0  0  0  0
 19 20  1  0  0  0  0
 20 21  4  0  0  0  0
 20 25  4  0  0  0  0
 21 22  4  0  0  0  0
 21 28  1  0  0  0  0
 22 23  4  0  0  0  0
 22 27  1  0  0  0  0
 23 24  4  0  0  0  0
 23 29  1  0  0  0  0
 24 25  4  0  0  0  0
 24 26  1  0  0  0  0
 25 30  1  0  0  0  0
 26 31  1  0  0  0  0
 26 32  1  0  0  0  0
M  END
> <BCLConfClusterSize>
1

> <ConfClashScore>
0.000302682 

> <ConfOneFourInteractionScore>
-0.962775 

> <ConfScore>
0.358208 

> <ConfScorePBest>
0.00390349 

> <ConfTolerance>
0.549638 

> <RosettaParamsInstructions>
M  ROOT 3
M  POLY_N_BB 3
M  POLY_CA_BB 4
M  POLY_C_BB 2
M  POLY_O_BB 5
M  POLY_IGNORE 9 10 11 12 13 14 15 16 17 18 
M  POLY_UPPER 6
M  POLY_LOWER 8
M  POLY_CHG 0
M  POLY_PROPERTIES ALPHA_AA D_AA PROTEIN AROMATIC POLYMER 
M  END

$$$$



 32 32  0  0  0  0  0  0  0  0999 V2000
   -0.3452    3.4876   -2.8766 H   0  0  0  1  0  0  0  0  0  0  0  0
   -0.4619    1.3950   -3.1194 C   0  0  0  1  0  0  0  0  0  0  0  0
    0.9920    2.6893   -1.5262 N   0  0  0  1  0  0  0  0  0  0  0  0
   -0.2722    2.6274   -2.2445 C   0  0  0  1  0  0  0  0  0  0  0  0
   -1.2229    1.4128   -4.0832 O   0  0  0  1  0  0  0  0  0  0  0  0
    0.3092    0.3349   -2.8302 N   0  0  0  1  0  0  0  0  0  0  0  0
    0.9817    2.8914   -0.5673 H   0  0  0  1  0  0  0  0  0  0  0  0
    2.1776    2.4781   -2.1344 C   0  0  0  1  0  0  0  0  0  0  0  0
    0.2783   -0.9360   -3.5385 C   0  0  0  1  0  0  0  0  0  0  0  0
    3.4299    2.4927   -1.2796 C   0  0  0  1  0  0  0  0  0  0  0  0
    2.2434    2.2792   -3.3468 O   0  0  0  1  0  0  0  0  0  0  0  0
    0.9406    0.4235   -2.0859 H   0  0  0  1  0  0  0  0  0  0  0  0
   -0.7363   -1.2029   -3.7491 H   0  0  0  1  0  0  0  0  0  0  0  0
    0.7274   -1.6937   -2.9311 H   0  0  0  1  0  0  0  0  0  0  0  0
    0.8209   -0.8458   -4.4563 H   0  0  0  1  0  0  0  0  0  0  0  0
    3.4867    1.5863   -0.7138 H   0  0  0  1  0  0  0  0  0  0  0  0
    3.3960    3.3282   -0.6120 H   0  0  0  1  0  0  0  0  0  0  0  0
    4.2907    2.5739   -1.9100 H   0  0  0  1  0  0  0  0  0  0  0  0
   -6.0707    1.3197   -0.9742 F   0  0  0  1  0  0  0  0  0  0  0  0
   -5.0564    1.8694   -1.6693 C   0  0  0  1  0  0  0  0  0  0  0  0
   -5.3091    2.2979   -2.9631 C   0  0  0  1  0  0  0  0  0  0  0  0
   -4.2959    2.8630   -3.7144 C   0  0  0  1  0  0  0  0  0  0  0  0
   -3.0283    3.0061   -3.1720 C   0  0  0  1  0  0  0  0  0  0  0  0
   -2.7762    2.5789   -1.8819 C   0  0  0  1  0  0  0  0  0  0  0  0
   -3.7925    2.0122   -1.1286 C   0  0  0  1  0  0  0  0  0  0  0  0
   -1.4146    2.7034   -1.2400 C   0  0  0  1  0  0  0  0  0  0  0  0
   -4.5832    3.2609   -4.9686 F   0  0  0  1  0  0  0  0  0  0  0  0
   -6.2611    2.1942   -3.3686 H   0  0  0  1  0  0  0  0  0  0  0  0
   -2.2669    3.4350   -3.7358 H   0  0  0  1  0  0  0  0  0  0  0  0
   -3.6039    1.6943   -0.1565 H   0  0  0  1  0  0  0  0  0  0  0  0
   -1.3613    3.6447   -0.7342 H   0  0  0  1  0  0  0  0  0  0  0  0
   -1.2984    1.9101   -0.5314 H   0  0  0  1  0  0  0  0  0  0  0  0
  1  4  1  0  0  0  0
  2  4  1  0  0  0  0
  2  5  2  0  0  0  0
  2  6  1  0  0  0  0
  3  4  1  0  0  0  0
  3  7  1  0  0  0  0
  3  8  1  0  0  0  0
  4 26  1  0  0  0  0
  6  9  1  0  0  0  0
  6 12  1  0  0  0  0
  8 10  1  0  0  0  0
  8 11  2  0  0  0  0
  9 13  1  0  0  0  0
  9 14  1  0  0  0  0
  9 15  1  0  0  0  0
 10 16  1  0  0  0  0
 10 17  1  0  0  0  0
 10 18  1  0  0  0  0
 19 20  1  0  0  0  0
 20 21  4  0  0  0  0
 20 25  4  0  0  0  0
 21 22  4  0  0  0  0
 21 28  1  0  0  0  0
 22 23  4  0  0  0  0
 22 27  1  0  0  0  0
 23 24  4  0  0  0  0
 23 29  1  0  0  0  0
 24 25  4  0  0  0  0
 24 26  1  0  0  0  0
 25 30  1  0  0  0  0
 26 31  1  0  0  0  0
 26 32  1  0  0  0  0
M  END
> <BCLConfClusterSize>
1

> <ConfClashScore>
0 

> <ConfOneFourInteractionScore>
-0.952877 

> <ConfScore>
0.359582 

> <ConfScorePBest>
0.00387501 

> <ConfTolerance>
0.617396 

> <RosettaParamsInstructions>
M  ROOT 3
M  POLY_N_BB 3
M  POLY_CA_BB 4
M  POLY_C_BB 2
M  POLY_O_BB 5
M  POLY_IGNORE 9 10 11 12 13 14 15 16 17 18 
M  POLY_UPPER 6
M  POLY_LOWER 8
M  POLY_CHG 0
M  POLY_PROPERTIES ALPHA_AA D_AA PROTEIN AROMATIC POLYMER 
M  END

$$$$



 32 32  0  0  0  0  0  0  0  0999 V2000
   -1.1606    0.6512   -1.5635 H   0  0  0  1  0  0  0  0  0  0  0  0
   -0.9594    0.9848    0.5024 C   0  0  0  1  0  0  0  0  0  0  0  0
    0.7097    1.4606   -1.2064 N   0  0  0  1  0  0  0  0  0  0  0  0
   -0.7341    1.4062   -0.9367 C   0  0  0  1  0  0  0  0  0  0  0  0
   -0.3133    0.0629    0.9985 O   0  0  0  1  0  0  0  0  0  0  0  0
   -1.8879    1.6503    1.2202 N   0  0  0  1  0  0  0  0  0  0  0  0
    1.1016    2.3041   -1.5152 H   0  0  0  1  0  0  0  0  0  0  0  0
    1.5141    0.3898   -1.0436 C   0  0  0  1  0  0  0  0  0  0  0  0
   -2.1327    1.2921    2.6081 C   0  0  0  1  0  0  0  0  0  0  0  0
    2.9967    0.5651   -1.3091 C   0  0  0  1  0  0  0  0  0  0  0  0
    1.0606   -0.6979   -0.6903 O   0  0  0  1  0  0  0  0  0  0  0  0
   -2.3985    2.3767    0.8053 H   0  0  0  1  0  0  0  0  0  0  0  0
   -2.3603    2.1739    3.1697 H   0  0  0  1  0  0  0  0  0  0  0  0
   -1.2598    0.8258    3.0150 H   0  0  0  1  0  0  0  0  0  0  0  0
   -2.9579    0.6131    2.6607 H   0  0  0  1  0  0  0  0  0  0  0  0
    3.1367    1.2697   -2.1021 H   0  0  0  1  0  0  0  0  0  0  0  0
    3.4223   -0.3758   -1.5891 H   0  0  0  1  0  0  0  0  0  0  0  0
    3.4772    0.9251   -0.4234 H   0  0  0  1  0  0  0  0  0  0  0  0
   -6.0411    1.3093   -0.9257 F   0  0  0  1  0  0  0  0  0  0  0  0
   -5.0743    1.8681   -1.6787 C   0  0  0  1  0  0  0  0  0  0  0  0
   -5.3119    2.3013   -2.9738 C   0  0  0  1  0  0  0  0  0  0  0  0
   -4.2889    2.8644   -3.7131 C   0  0  0  1  0  0  0  0  0  0  0  0
   -3.0264    3.0010   -3.1573 C   0  0  0  1  0  0  0  0  0  0  0  0
   -2.7892    2.5692   -1.8660 C   0  0  0  1  0  0  0  0  0  0  0  0
   -3.8154    2.0044   -1.1247 C   0  0  0  1  0  0  0  0  0  0  0  0
   -1.3941    2.7364   -1.3115 C   0  0  0  1  0  0  0  0  0  0  0  0
   -4.5617    3.2670   -4.9690 F   0  0  0  1  0  0  0  0  0  0  0  0
   -6.2602    2.2025   -3.3893 H   0  0  0  1  0  0  0  0  0  0  0  0
   -2.2576    3.4284   -3.7121 H   0  0  0  1  0  0  0  0  0  0  0  0
   -3.6380    1.6831   -0.1516 H   0  0  0  1  0  0  0  0  0  0  0  0
   -0.7898    3.2202   -2.0502 H   0  0  0  1  0  0  0  0  0  0  0  0
   -1.4468    3.3491   -0.4359 H   0  0  0  1  0  0  0  0  0  0  0  0
  1  4  1  0  0  0  0
  2  4  1  0  0  0  0
  2  5  2  0  0  0  0
  2  6  1  0  0  0  0
  3  4  1  0  0  0  0
  3  7  1  0  0  0  0
  3  8  1  0  0  0  0
  4 26  1  0  0  0  0
  6  9  1  0  0  0  0
  6 12  1  0  0  0  0
  8 10  1  0  0  0  0
  8 11  2  0  0  0  0
  9 13  1  0  0  0  0
  9 14  1  0  0  0  0
  9 15  1  0  0  0  0
 10 16  1  0  0  0  0
 10 17  1  0  0  0  0
 10 18  1  0  0  0  0
 19 20  1  0  0  0  0
 20 21  4  0  0  0  0
 20 25  4  0  0  0  0
 21 22  4  0  0  0  0
 21 28  1  0  0  0  0
 22 23  4  0  0  0  0
 22 27  1  0  0  0  0
 23 24  4  0  0  0  0
 23 29  1  0  0  0  0
 24 25  4  0  0  0  0
 24 26  1  0  0  0  0
 25 30  1  0  0  0  0
 26 31  1  0  0  0  0
 26 32  1  0  0  0  0
M  END
> <BCLConfClusterSize>
1

> <ConfClashScore>
0 

> <ConfOneFourInteractionScore>
-0.941057 

> <ConfScore>
0.362327 

> <ConfScorePBest>
0.00384653 

> <ConfTolerance>
0.278865 

> <RosettaParamsInstructions>
M  ROOT 3
M  POLY_N_BB 3
M  POLY_CA_BB 4
M  POLY_C_BB 2
M  POLY_O_BB 5
M  POLY_IGNORE 9 10 11 12 13 14 15 16 17 18 
M  POLY_UPPER 6
M  POLY_LOWER 8
M  POLY_CHG 0
M  POLY_PROPERTIES ALPHA_AA D_AA PROTEIN AROMATIC POLYMER 
M  END

$$$$



 32 32  0  0  0  0  0  0  0  0999 V2000
   -0.2580    3.8840   -0.0203 H   0  0  0  1  0  0  0  0  0  0  0  0
   -2.2680    4.4989    0.0894 C   0  0  0  1  0  0  0  0  0  0  0  0
   -0.6175    4.9509   -1.7467 N   0  0  0  1  0  0  0  0  0  0  0  0
   -1.0640    4.0348   -0.7078 C   0  0  0  1  0  0  0  0  0  0  0  0
   -2.9127    3.7080    0.7767 O   0  0  0  1  0  0  0  0  0  0  0  0
   -2.6076    5.7959    0.0221 N   0  0  0  1  0  0  0  0  0  0  0  0
   -0.6793    4.6699   -2.6835 H   0  0  0  1  0  0  0  0  0  0  0  0
   -0.1264    6.1617   -1.4677 C   0  0  0  1  0  0  0  0  0  0  0  0
   -3.7240    6.3006    0.8074 C   0  0  0  1  0  0  0  0  0  0  0  0
    0.4594    6.9761   -2.6047 C   0  0  0  1  0  0  0  0  0  0  0  0
   -0.1205    6.6571   -0.3416 O   0  0  0  1  0  0  0  0  0  0  0  0
   -2.1026    6.4042   -0.5571 H   0  0  0  1  0  0  0  0  0  0  0  0
   -4.3934    6.8405    0.1707 H   0  0  0  1  0  0  0  0  0  0  0  0
   -3.3560    6.9524    1.5721 H   0  0  0  1  0  0  0  0  0  0  0  0
   -4.2434    5.4802    1.2568 H   0  0  0  1  0  0  0  0  0  0  0  0
    0.9342    7.8501   -2.2103 H   0  0  0  1  0  0  0  0  0  0  0  0
   -0.3227    7.2669   -3.2746 H   0  0  0  1  0  0  0  0  0  0  0  0
    1.1799    6.3860   -3.1315 H   0  0  0  1  0  0  0  0  0  0  0  0
   -6.0807    1.3082   -0.9705 F   0  0  0  1  0  0  0  0  0  0  0  0
   -5.0675    1.8645   -1.6619 C   0  0  0  1  0  0  0  0  0  0  0  0
   -5.3167    2.2867   -2.9585 C   0  0  0  1  0  0  0  0  0  0  0  0
   -4.3044    2.8581   -3.7060 C   0  0  0  1  0  0  0  0  0  0  0  0
   -3.0411    3.0139   -3.1572 C   0  0  0  1  0  0  0  0  0  0  0  0
   -2.7923    2.5931   -1.8644 C   0  0  0  1  0  0  0  0  0  0  0  0
   -3.8078    2.0199   -1.1148 C   0  0  0  1  0  0  0  0  0  0  0  0
   -1.3784    2.6859   -1.3413 C   0  0  0  1  0  0  0  0  0  0  0  0
   -4.5022    3.2770   -4.9706 F   0  0  0  1  0  0  0  0  0  0  0  0
   -6.2656    2.1734   -3.3688 H   0  0  0  1  0  0  0  0  0  0  0  0
   -2.2804    3.4476   -3.7183 H   0  0  0  1  0  0  0  0  0  0  0  0
   -3.6217    1.7069   -0.1406 H   0  0  0  1  0  0  0  0  0  0  0  0
   -1.2369    1.9225   -0.6049 H   0  0  0  1  0  0  0  0  0  0  0  0
   -0.7028    2.5263   -2.1555 H   0  0  0  1  0  0  0  0  0  0  0  0
  1  4  1  0  0  0  0
  2  4  1  0  0  0  0
  2  5  2  0  0  0  0
  2  6  1  0  0  0  0
  3  4  1  0  0  0  0
  3  7  1  0  0  0  0
  3  8  1  0  0  0  0
  4 26  1  0  0  0  0
  6  9  1  0  0  0  0
  6 12  1  0  0  0  0
  8 10  1  0  0  0  0
  8 11  2  0  0  0  0
  9 13  1  0  0  0  0
  9 14  1  0  0  0  0
  9 15  1  0  0  0  0
 10 16  1  0  0  0  0
 10 17  1  0  0  0  0
 10 18  1  0  0  0  0
 19 20  1  0  0  0  0
 20 21  4  0  0  0  0
 20 25  4  0  0  0  0
 21 22  4  0  0  0  0
 21 28  1  0  0  0  0
 22 23  4  0  0  0  0
 22 27  1  0  0  0  0
 23 24  4  0  0  0  0
 23 29  1  0  0  0  0
 24 25  4  0  0  0  0
 24 26  1  0  0  0  0
 25 30  1  0  0  0  0
 26 31  1  0  0  0  0
 26 32  1  0  0  0  0
M  END
> <BCLConfClusterSize>
1

> <ConfClashScore>
0.00251823 

> <ConfOneFourInteractionScore>
-0.942345 

> <ConfScore>
0.36289 

> <ConfScorePBest>
0.00381805 

> <ConfTolerance>
0.48696 

> <RosettaParamsInstructions>
M  ROOT 3
M  POLY_N_BB 3
M  POLY_CA_BB 4
M  POLY_C_BB 2
M  POLY_O_BB 5
M  POLY_IGNORE 9 10 11 12 13 14 15 16 17 18 
M  POLY_UPPER 6
M  POLY_LOWER 8
M  POLY_CHG 0
M  POLY_PROPERTIES ALPHA_AA D_AA PROTEIN AROMATIC POLYMER 
M  END

$$$$



 32 32  0  0  0  0  0  0  0  0999 V2000
   -0.1913    1.2736   -2.1475 H   0  0  0  1  0  0  0  0  0  0  0  0
   -1.6082    0.1992   -1.0418 C   0  0  0  1  0  0  0  0  0  0  0  0
    0.3956    1.3998   -0.1927 N   0  0  0  1  0  0  0  0  0  0  0  0
   -0.6616    1.3831   -1.1927 C   0  0  0  1  0  0  0  0  0  0  0  0
   -2.4091   -0.1010   -1.9232 O   0  0  0  1  0  0  0  0  0  0  0  0
   -1.4724   -0.4553    0.1223 N   0  0  0  1  0  0  0  0  0  0  0  0
    0.5231    2.2076    0.3473 H   0  0  0  1  0  0  0  0  0  0  0  0
    1.1985    0.3523    0.0148 C   0  0  0  1  0  0  0  0  0  0  0  0
   -2.1155   -1.7197    0.4472 C   0  0  0  1  0  0  0  0  0  0  0  0
    2.3251    0.5728    0.9986 C   0  0  0  1  0  0  0  0  0  0  0  0
    1.0463   -0.7304   -0.5494 O   0  0  0  1  0  0  0  0  0  0  0  0
   -0.8968   -0.0512    0.8048 H   0  0  0  1  0  0  0  0  0  0  0  0
   -2.2043   -2.3132   -0.4386 H   0  0  0  1  0  0  0  0  0  0  0  0
   -3.0891   -1.5314    0.8492 H   0  0  0  1  0  0  0  0  0  0  0  0
   -1.5260   -2.2441    1.1699 H   0  0  0  1  0  0  0  0  0  0  0  0
    1.9260    0.9319    1.9241 H   0  0  0  1  0  0  0  0  0  0  0  0
    3.0088    1.2939    0.6017 H   0  0  0  1  0  0  0  0  0  0  0  0
    2.8380   -0.3512    1.1661 H   0  0  0  1  0  0  0  0  0  0  0  0
   -6.0485    1.3134   -0.9416 F   0  0  0  1  0  0  0  0  0  0  0  0
   -5.0624    1.8688   -1.6718 C   0  0  0  1  0  0  0  0  0  0  0  0
   -5.3150    2.2973   -2.9656 C   0  0  0  1  0  0  0  0  0  0  0  0
   -4.3018    2.8624   -3.7169 C   0  0  0  1  0  0  0  0  0  0  0  0
   -3.0342    3.0054   -3.1745 C   0  0  0  1  0  0  0  0  0  0  0  0
   -2.7821    2.5782   -1.8845 C   0  0  0  1  0  0  0  0  0  0  0  0
   -3.7984    2.0115   -1.1311 C   0  0  0  1  0  0  0  0  0  0  0  0
   -1.4205    2.7027   -1.2425 C   0  0  0  1  0  0  0  0  0  0  0  0
   -4.5461    3.2739   -4.9758 F   0  0  0  1  0  0  0  0  0  0  0  0
   -6.2671    2.1936   -3.3711 H   0  0  0  1  0  0  0  0  0  0  0  0
   -2.2728    3.4343   -3.7384 H   0  0  0  1  0  0  0  0  0  0  0  0
   -3.6098    1.6937   -0.1590 H   0  0  0  1  0  0  0  0  0  0  0  0
   -0.8425    3.4070   -1.8036 H   0  0  0  1  0  0  0  0  0  0  0  0
   -1.5471    3.0608   -0.2422 H   0  0  0  1  0  0  0  0  0  0  0  0
  1  4  1  0  0  0  0
  2  4  1  0  0  0  0
  2  5  2  0  0  0  0
  2  6  1  0  0  0  0
  3  4  1  0  0  0  0
  3  7  1  0  0  0  0
  3  8  1  0  0  0  0
  4 26  1  0  0  0  0
  6  9  1  0  0  0  0
  6 12  1  0  0  0  0
  8 10  1  0  0  0  0
  8 11  2  0  0  0  0
  9 13  1  0  0  0  0
  9 14  1  0  0  0  0
  9 15  1  0  0  0  0
 10 16  1  0  0  0  0
 10 17  1  0  0  0  0
 10 18  1  0  0  0  0
 19 20  1  0  0  0  0
 20 21  4  0  0  0  0
 20 25  4  0  0  0  0
 21 22  4  0  0  0  0
 21 28  1  0  0  0  0
 22 23  4  0  0  0  0
 22 27  1  0  0  0  0
 23 24  4  0  0  0  0
 23 29  1  0  0  0  0
 24 25  4  0  0  0  0
 24 26  1  0  0  0  0
 25 30  1  0  0  0  0
 26 31  1  0  0  0  0
 26 32  1  0  0  0  0
M  END
> <BCLConfClusterSize>
1

> <ConfClashScore>
0 

> <ConfOneFourInteractionScore>
-0.942345 

> <ConfScore>
0.363474 

> <ConfScorePBest>
0.00378957 

> <ConfTolerance>
0.443814 

> <RosettaParamsInstructions>
M  ROOT 3
M  POLY_N_BB 3
M  POLY_CA_BB 4
M  POLY_C_BB 2
M  POLY_O_BB 5
M  POLY_IGNORE 9 10 11 12 13 14 15 16 17 18 
M  POLY_UPPER 6
M  POLY_LOWER 8
M  POLY_CHG 0
M  POLY_PROPERTIES ALPHA_AA D_AA PROTEIN AROMATIC POLYMER 
M  END

$$$$



 32 32  0  0  0  0  0  0  0  0999 V2000
   -0.6019    1.1306   -2.3160 H   0  0  0  1  0  0  0  0  0  0  0  0
   -1.1978    0.4496   -0.4085 C   0  0  0  1  0  0  0  0  0  0  0  0
    0.7893    1.8033   -0.9384 N   0  0  0  1  0  0  0  0  0  0  0  0
   -0.5880    1.5029   -1.3129 C   0  0  0  1  0  0  0  0  0  0  0  0
   -0.8176    0.3192    0.7520 O   0  0  0  1  0  0  0  0  0  0  0  0
   -2.1602   -0.3311   -0.9123 N   0  0  0  1  0  0  0  0  0  0  0  0
    0.9905    2.1308   -0.0370 H   0  0  0  1  0  0  0  0  0  0  0  0
    1.7771    1.6328   -1.8217 C   0  0  0  1  0  0  0  0  0  0  0  0
   -2.7760   -1.4909   -0.2849 C   0  0  0  1  0  0  0  0  0  0  0  0
    3.1880    1.8560   -1.2888 C   0  0  0  1  0  0  0  0  0  0  0  0
    1.5801    1.3161   -2.9941 O   0  0  0  1  0  0  0  0  0  0  0  0
   -2.4878   -0.0953   -1.8053 H   0  0  0  1  0  0  0  0  0  0  0  0
   -2.7017   -1.4030    0.7789 H   0  0  0  1  0  0  0  0  0  0  0  0
   -2.2723   -2.3789   -0.6052 H   0  0  0  1  0  0  0  0  0  0  0  0
   -3.8068   -1.5434   -0.5670 H   0  0  0  1  0  0  0  0  0  0  0  0
    3.1407    2.1237   -0.2539 H   0  0  0  1  0  0  0  0  0  0  0  0
    3.6566    2.6444   -1.8398 H   0  0  0  1  0  0  0  0  0  0  0  0
    3.7569    0.9564   -1.3986 H   0  0  0  1  0  0  0  0  0  0  0  0
   -6.0589    1.3180   -0.9427 F   0  0  0  1  0  0  0  0  0  0  0  0
   -5.0676    1.8663   -1.6711 C   0  0  0  1  0  0  0  0  0  0  0  0
   -5.3167    2.3031   -2.9629 C   0  0  0  1  0  0  0  0  0  0  0  0
   -4.2982    2.8609   -3.7124 C   0  0  0  1  0  0  0  0  0  0  0  0
   -3.0288    2.9884   -3.1703 C   0  0  0  1  0  0  0  0  0  0  0  0
   -2.7802    2.5530   -1.8823 C   0  0  0  1  0  0  0  0  0  0  0  0
   -3.8019    1.9935   -1.1307 C   0  0  0  1  0  0  0  0  0  0  0  0
   -1.4181    2.7792   -1.2701 C   0  0  0  1  0  0  0  0  0  0  0  0
   -4.5390    3.2805   -4.9693 F   0  0  0  1  0  0  0  0  0  0  0  0
   -6.2700    2.2110   -3.3681 H   0  0  0  1  0  0  0  0  0  0  0  0
   -2.2634    3.4118   -3.7328 H   0  0  0  1  0  0  0  0  0  0  0  0
   -3.6159    1.6695   -0.1601 H   0  0  0  1  0  0  0  0  0  0  0  0
   -0.9107    3.5462   -1.8169 H   0  0  0  1  0  0  0  0  0  0  0  0
   -1.5376    3.0859   -0.2520 H   0  0  0  1  0  0  0  0  0  0  0  0
  1  4  1  0  0  0  0
  2  4  1  0  0  0  0
  2  5  2  0  0  0  0
  2  6  1  0  0  0  0
  3  4  1  0  0  0  0
  3  7  1  0  0  0  0
  3  8  1  0  0  0  0
  4 26  1  0  0  0  0
  6  9  1  0  0  0  0
  6 12  1  0  0  0  0
  8 10  1  0  0  0  0
  8 11  2  0  0  0  0
  9 13  1  0  0  0  0
  9 14  1  0  0  0  0
  9 15  1  0  0  0  0
 10 16  1  0  0  0  0
 10 17  1  0  0  0  0
 10 18  1  0  0  0  0
 19 20  1  0  0  0  0
 20 21  4  0  0  0  0
 20 25  4  0  0  0  0
 21 22  4  0  0  0  0
 21 28  1  0  0  0  0
 22 23  4  0  0  0  0
 22 27  1  0  0  0  0
 23 24  4  0  0  0  0
 23 29  1  0  0  0  0
 24 25  4  0  0  0  0
 24 26  1  0  0  0  0
 25 30  1  0  0  0  0
 26 31  1  0  0  0  0
 26 32  1  0  0  0  0
M  END
> <BCLConfClusterSize>
1

> <ConfClashScore>
0 

> <ConfOneFourInteractionScore>
-0.982002 

> <ConfScore>
0.363873 

> <ConfScorePBest>
0.00376109 

> <ConfTolerance>
0.651781 

> <RosettaParamsInstructions>
M  ROOT 3
M  POLY_N_BB 3
M  POLY_CA_BB 4
M  POLY_C_BB 2
M  POLY_O_BB 5
M  POLY_IGNORE 9 10 11 12 13 14 15 16 17 18 
M  POLY_UPPER 6
M  POLY_LOWER 8
M  POLY_CHG 0
M  POLY_PROPERTIES ALPHA_AA D_AA PROTEIN AROMATIC POLYMER 
M  END

$$$$



 32 32  0  0  0  0  0  0  0  0999 V2000
   -1.9953    4.0272    0.2779 H   0  0  0  1  0  0  0  0  0  0  0  0
   -1.3947    5.2539   -1.3264 C   0  0  0  1  0  0  0  0  0  0  0  0
    0.0723    3.9682    0.1950 N   0  0  0  1  0  0  0  0  0  0  0  0
   -1.2324    4.0100   -0.4722 C   0  0  0  1  0  0  0  0  0  0  0  0
   -2.5137    5.7009   -1.5642 O   0  0  0  1  0  0  0  0  0  0  0  0
   -0.2893    5.7682   -1.8675 N   0  0  0  1  0  0  0  0  0  0  0  0
    0.6828    4.7273    0.0880 H   0  0  0  1  0  0  0  0  0  0  0  0
    0.4667    2.9076    0.9611 C   0  0  0  1  0  0  0  0  0  0  0  0
   -0.3573    7.0037   -2.6335 C   0  0  0  1  0  0  0  0  0  0  0  0
    1.8808    3.0296    1.4783 C   0  0  0  1  0  0  0  0  0  0  0  0
   -0.2708    1.9667    1.1897 O   0  0  0  1  0  0  0  0  0  0  0  0
    0.5705    5.3131   -1.7489 H   0  0  0  1  0  0  0  0  0  0  0  0
   -1.2932    7.0528   -3.1498 H   0  0  0  1  0  0  0  0  0  0  0  0
    0.4430    7.0275   -3.3433 H   0  0  0  1  0  0  0  0  0  0  0  0
   -0.2717    7.8392   -1.9705 H   0  0  0  1  0  0  0  0  0  0  0  0
    2.5670    2.7171    0.7191 H   0  0  0  1  0  0  0  0  0  0  0  0
    1.9989    2.4098    2.3424 H   0  0  0  1  0  0  0  0  0  0  0  0
    2.0781    4.0482    1.7397 H   0  0  0  1  0  0  0  0  0  0  0  0
   -6.0566    1.3143   -0.9498 F   0  0  0  1  0  0  0  0  0  0  0  0
   -5.0656    1.8687   -1.6740 C   0  0  0  1  0  0  0  0  0  0  0  0
   -5.3106    2.2996   -2.9685 C   0  0  0  1  0  0  0  0  0  0  0  0
   -4.2924    2.8637   -3.7136 C   0  0  0  1  0  0  0  0  0  0  0  0
   -3.0273    3.0035   -3.1645 C   0  0  0  1  0  0  0  0  0  0  0  0
   -2.7828    2.5739   -1.8737 C   0  0  0  1  0  0  0  0  0  0  0  0
   -3.8042    2.0081   -1.1265 C   0  0  0  1  0  0  0  0  0  0  0  0
   -1.4031    2.7206   -1.2768 C   0  0  0  1  0  0  0  0  0  0  0  0
   -4.5723    3.2640   -4.9688 F   0  0  0  1  0  0  0  0  0  0  0  0
   -6.2607    2.1984   -3.3791 H   0  0  0  1  0  0  0  0  0  0  0  0
   -2.2621    3.4316   -3.7237 H   0  0  0  1  0  0  0  0  0  0  0  0
   -3.6213    1.6886   -0.1539 H   0  0  0  1  0  0  0  0  0  0  0  0
   -1.2220    1.8885   -0.6290 H   0  0  0  1  0  0  0  0  0  0  0  0
   -0.6862    2.7175   -2.0712 H   0  0  0  1  0  0  0  0  0  0  0  0
  1  4  1  0  0  0  0
  2  4  1  0  0  0  0
  2  5  2  0  0  0  0
  2  6  1  0  0  0  0
  3  4  1  0  0  0  0
  3  7  1  0  0  0  0
  3  8  1  0  0  0  0
  4 26  1  0  0  0  0
  6  9  1  0  0  0  0
  6 12  1  0  0  0  0
  8 10  1  0  0  0  0
  8 11  2  0  0  0  0
  9 13  1  0  0  0  0
  9 14  1  0  0  0  0
  9 15  1  0  0  0  0
 10 16  1  0  0  0  0
 10 17  1  0  0  0  0
 10 18  1  0  0  0  0
 19 20  1  0  0  0  0
 20 21  4  0  0  0  0
 20 25  4  0  0  0  0
 21 22  4  0  0  0  0
 21 28  1  0  0  0  0
 22 23  4  0  0  0  0
 22 27  1  0  0  0  0
 23 24  4  0  0  0  0
 23 29  1  0  0  0  0
 24 25  4  0  0  0  0
 24 26  1  0  0  0  0
 25 30  1  0  0  0  0
 26 31  1  0  0  0  0
 26 32  1  0  0  0  0
M  END
> <BCLConfClusterSize>
1

> <ConfClashScore>
0 

> <ConfOneFourInteractionScore>
-0.962347 

> <ConfScore>
0.366973 

> <ConfScorePBest>
0.00373261 

> <ConfTolerance>
0.507225 

> <RosettaParamsInstructions>
M  ROOT 3
M  POLY_N_BB 3
M  POLY_CA_BB 4
M  POLY_C_BB 2
M  POLY_O_BB 5
M  POLY_IGNORE 9 10 11 12 13 14 15 16 17 18 
M  POLY_UPPER 6
M  POLY_LOWER 8
M  POLY_CHG 0
M  POLY_PROPERTIES ALPHA_AA D_AA PROTEIN AROMATIC POLYMER 
M  END

$$$$



 32 32  0  0  0  0  0  0  0  0999 V2000
   -2.1085    4.2457    0.0322 H   0  0  0  1  0  0  0  0  0  0  0  0
   -1.2041    5.1581   -1.6488 C   0  0  0  1  0  0  0  0  0  0  0  0
   -0.0565    4.0686    0.2436 N   0  0  0  1  0  0  0  0  0  0  0  0
   -1.2548    4.0679   -0.5879 C   0  0  0  1  0  0  0  0  0  0  0  0
   -1.4969    6.3209   -1.3731 O   0  0  0  1  0  0  0  0  0  0  0  0
   -0.8292    4.8111   -2.8975 N   0  0  0  1  0  0  0  0  0  0  0  0
    0.4310    3.2235    0.3365 H   0  0  0  1  0  0  0  0  0  0  0  0
    0.4258    5.1328    0.8872 C   0  0  0  1  0  0  0  0  0  0  0  0
   -0.7390    5.8209   -3.9399 C   0  0  0  1  0  0  0  0  0  0  0  0
    1.5432    4.8553    1.8739 C   0  0  0  1  0  0  0  0  0  0  0  0
    0.0036    6.2739    0.7051 O   0  0  0  1  0  0  0  0  0  0  0  0
   -0.6171    3.8765   -3.1024 H   0  0  0  1  0  0  0  0  0  0  0  0
   -1.1759    6.7336   -3.5918 H   0  0  0  1  0  0  0  0  0  0  0  0
   -1.2637    5.4835   -4.8093 H   0  0  0  1  0  0  0  0  0  0  0  0
    0.2887    5.9888   -4.1856 H   0  0  0  1  0  0  0  0  0  0  0  0
    1.5173    5.5840    2.6570 H   0  0  0  1  0  0  0  0  0  0  0  0
    2.4853    4.9077    1.3693 H   0  0  0  1  0  0  0  0  0  0  0  0
    1.4155    3.8785    2.2915 H   0  0  0  1  0  0  0  0  0  0  0  0
   -6.0485    1.3134   -0.9416 F   0  0  0  1  0  0  0  0  0  0  0  0
   -5.0624    1.8688   -1.6718 C   0  0  0  1  0  0  0  0  0  0  0  0
   -5.3150    2.2973   -2.9656 C   0  0  0  1  0  0  0  0  0  0  0  0
   -4.3018    2.8624   -3.7169 C   0  0  0  1  0  0  0  0  0  0  0  0
   -3.0342    3.0054   -3.1745 C   0  0  0  1  0  0  0  0  0  0  0  0
   -2.7821    2.5782   -1.8845 C   0  0  0  1  0  0  0  0  0  0  0  0
   -3.7984    2.0115   -1.1311 C   0  0  0  1  0  0  0  0  0  0  0  0
   -1.4205    2.7027   -1.2425 C   0  0  0  1  0  0  0  0  0  0  0  0
   -4.5461    3.2739   -4.9758 F   0  0  0  1  0  0  0  0  0  0  0  0
   -6.2671    2.1936   -3.3711 H   0  0  0  1  0  0  0  0  0  0  0  0
   -2.2728    3.4343   -3.7384 H   0  0  0  1  0  0  0  0  0  0  0  0
   -3.6098    1.6937   -0.1590 H   0  0  0  1  0  0  0  0  0  0  0  0
   -1.3126    1.9414   -0.4984 H   0  0  0  1  0  0  0  0  0  0  0  0
   -0.6668    2.5791   -1.9919 H   0  0  0  1  0  0  0  0  0  0  0  0
  1  4  1  0  0  0  0
  2  4  1  0  0  0  0
  2  5  2  0  0  0  0
  2  6  1  0  0  0  0
  3  4  1  0  0  0  0
  3  7  1  0  0  0  0
  3  8  1  0  0  0  0
  4 26  1  0  0  0  0
  6  9  1  0  0  0  0
  6 12  1  0  0  0  0
  8 10  1  0  0  0  0
  8 11  2  0  0  0  0
  9 13  1  0  0  0  0
  9 14  1  0  0  0  0
  9 15  1  0  0  0  0
 10 16  1  0  0  0  0
 10 17  1  0  0  0  0
 10 18  1  0  0  0  0
 19 20  1  0  0  0  0
 20 21  4  0  0  0  0
 20 25  4  0  0  0  0
 21 22  4  0  0  0  0
 21 28  1  0  0  0  0
 22 23  4  0  0  0  0
 22 27  1  0  0  0  0
 23 24  4  0  0  0  0
 23 29  1  0  0  0  0
 24 25  4  0  0  0  0
 24 26  1  0  0  0  0
 25 30  1  0  0  0  0
 26 31  1  0  0  0  0
 26 32  1  0  0  0  0
M  END
> <BCLConfClusterSize>
1

> <ConfClashScore>
0 

> <ConfOneFourInteractionScore>
-0.952541 

> <ConfScore>
0.371771 

> <ConfScorePBest>
0.00370413 

> <ConfTolerance>
0.417378 

> <RosettaParamsInstructions>
M  ROOT 3
M  POLY_N_BB 3
M  POLY_CA_BB 4
M  POLY_C_BB 2
M  POLY_O_BB 5
M  POLY_IGNORE 9 10 11 12 13 14 15 16 17 18 
M  POLY_UPPER 6
M  POLY_LOWER 8
M  POLY_CHG 0
M  POLY_PROPERTIES ALPHA_AA D_AA PROTEIN AROMATIC POLYMER 
M  END

$$$$



 32 32  0  0  0  0  0  0  0  0999 V2000
    0.4201    1.6853   -1.0614 H   0  0  0  1  0  0  0  0  0  0  0  0
   -0.4667    1.0030   -2.8542 C   0  0  0  1  0  0  0  0  0  0  0  0
   -1.1133    0.3788   -0.5881 N   0  0  0  1  0  0  0  0  0  0  0  0
   -0.5669    1.4571   -1.4059 C   0  0  0  1  0  0  0  0  0  0  0  0
   -0.3648   -0.1599   -3.1966 O   0  0  0  1  0  0  0  0  0  0  0  0
   -0.4963    1.9704   -3.7720 N   0  0  0  1  0  0  0  0  0  0  0  0
   -2.0125    0.0436   -0.7869 H   0  0  0  1  0  0  0  0  0  0  0  0
   -0.4273   -0.1696    0.4262 C   0  0  0  1  0  0  0  0  0  0  0  0
   -0.3018    1.7700   -5.2003 C   0  0  0  1  0  0  0  0  0  0  0  0
   -1.0900   -1.3951    1.0581 C   0  0  0  1  0  0  0  0  0  0  0  0
    0.6861    0.2007    0.7961 O   0  0  0  1  0  0  0  0  0  0  0  0
   -0.6614    2.8850   -3.4612 H   0  0  0  1  0  0  0  0  0  0  0  0
    0.6163    2.2285   -5.5035 H   0  0  0  1  0  0  0  0  0  0  0  0
   -1.1152    2.2126   -5.7363 H   0  0  0  1  0  0  0  0  0  0  0  0
   -0.2633    0.7217   -5.4111 H   0  0  0  1  0  0  0  0  0  0  0  0
   -0.6832   -2.2846    0.6244 H   0  0  0  1  0  0  0  0  0  0  0  0
   -2.1445   -1.3617    0.8797 H   0  0  0  1  0  0  0  0  0  0  0  0
   -0.9059   -1.3961    2.1121 H   0  0  0  1  0  0  0  0  0  0  0  0
   -6.0335    1.3084   -0.9179 F   0  0  0  1  0  0  0  0  0  0  0  0
   -5.0716    1.8680   -1.6765 C   0  0  0  1  0  0  0  0  0  0  0  0
   -5.3166    2.2989   -2.9710 C   0  0  0  1  0  0  0  0  0  0  0  0
   -4.2984    2.8630   -3.7161 C   0  0  0  1  0  0  0  0  0  0  0  0
   -3.0333    3.0028   -3.1670 C   0  0  0  1  0  0  0  0  0  0  0  0
   -2.7888    2.5732   -1.8762 C   0  0  0  1  0  0  0  0  0  0  0  0
   -3.8102    2.0074   -1.1290 C   0  0  0  1  0  0  0  0  0  0  0  0
   -1.4091    2.7199   -1.2793 C   0  0  0  1  0  0  0  0  0  0  0  0
   -4.5352    3.2769   -4.9757 F   0  0  0  1  0  0  0  0  0  0  0  0
   -6.2667    2.1977   -3.3816 H   0  0  0  1  0  0  0  0  0  0  0  0
   -2.2681    3.4309   -3.7262 H   0  0  0  1  0  0  0  0  0  0  0  0
   -3.6273    1.6879   -0.1564 H   0  0  0  1  0  0  0  0  0  0  0  0
   -0.9037    3.5181   -1.7817 H   0  0  0  1  0  0  0  0  0  0  0  0
   -1.5107    2.9588   -0.2413 H   0  0  0  1  0  0  0  0  0  0  0  0
  1  4  1  0  0  0  0
  2  4  1  0  0  0  0
  2  5  2  0  0  0  0
  2  6  1  0  0  0  0
  3  4  1  0  0  0  0
  3  7  1  0  0  0  0
  3  8  1  0  0  0  0
  4 26  1  0  0  0  0
  6  9  1  0  0  0  0
  6 12  1  0  0  0  0
  8 10  1  0  0  0  0
  8 11  2  0  0  0  0
  9 13  1  0  0  0  0
  9 14  1  0  0  0  0
  9 15  1  0  0  0  0
 10 16  1  0  0  0  0
 10 17  1  0  0  0  0
 10 18  1  0  0  0  0
 19 20  1  0  0  0  0
 20 21  4  0  0  0  0
 20 25  4  0  0  0  0
 21 22  4  0  0  0  0
 21 28  1  0  0  0  0
 22 23  4  0  0  0  0
 22 27  1  0  0  0  0
 23 24  4  0  0  0  0
 23 29  1  0  0  0  0
 24 25  4  0  0  0  0
 24 26  1  0  0  0  0
 25 30  1  0  0  0  0
 26 31  1  0  0  0  0
 26 32  1  0  0  0  0
M  END
> <BCLConfClusterSize>
1

> <ConfClashScore>
0 

> <ConfOneFourInteractionScore>
-0.933935 

> <ConfScore>
0.372092 

> <ConfScorePBest>
0.00367564 

> <ConfTolerance>
0.859829 

> <RosettaParamsInstructions>
M  ROOT 3
M  POLY_N_BB 3
M  POLY_CA_BB 4
M  POLY_C_BB 2
M  POLY_O_BB 5
M  POLY_IGNORE 9 10 11 12 13 14 15 16 17 18 
M  POLY_UPPER 6
M  POLY_LOWER 8
M  POLY_CHG 0
M  POLY_PROPERTIES ALPHA_AA D_AA PROTEIN AROMATIC POLYMER 
M  END

$$$$



 32 32  0  0  0  0  0  0  0  0999 V2000
   -0.5846    1.3561   -2.6774 H   0  0  0  1  0  0  0  0  0  0  0  0
   -1.0321    0.2207   -0.9749 C   0  0  0  1  0  0  0  0  0  0  0  0
    0.8705    1.7589   -1.2716 N   0  0  0  1  0  0  0  0  0  0  0  0
   -0.5409    1.5063   -1.6189 C   0  0  0  1  0  0  0  0  0  0  0  0
   -1.8862   -0.4750   -1.5207 O   0  0  0  1  0  0  0  0  0  0  0  0
   -0.5296   -0.0335    0.2367 N   0  0  0  1  0  0  0  0  0  0  0  0
    1.0781    1.9567   -0.3345 H   0  0  0  1  0  0  0  0  0  0  0  0
    1.8970    1.7381   -2.1469 C   0  0  0  1  0  0  0  0  0  0  0  0
   -0.9898   -1.1519    1.0521 C   0  0  0  1  0  0  0  0  0  0  0  0
    3.2681    2.1289   -1.6438 C   0  0  0  1  0  0  0  0  0  0  0  0
    1.7250    1.4113   -3.3202 O   0  0  0  1  0  0  0  0  0  0  0  0
    0.1727    0.5518    0.5898 H   0  0  0  1  0  0  0  0  0  0  0  0
   -1.5112   -1.8533    0.4347 H   0  0  0  1  0  0  0  0  0  0  0  0
   -1.6477   -0.7902    1.8145 H   0  0  0  1  0  0  0  0  0  0  0  0
   -0.1481   -1.6327    1.5052 H   0  0  0  1  0  0  0  0  0  0  0  0
    3.2225    3.1026   -1.2025 H   0  0  0  1  0  0  0  0  0  0  0  0
    3.9580    2.1402   -2.4616 H   0  0  0  1  0  0  0  0  0  0  0  0
    3.5943    1.4205   -0.9112 H   0  0  0  1  0  0  0  0  0  0  0  0
   -6.0406    1.3075   -0.9204 F   0  0  0  1  0  0  0  0  0  0  0  0
   -5.0758    1.8666   -1.6758 C   0  0  0  1  0  0  0  0  0  0  0  0
   -5.3166    2.2988   -2.9707 C   0  0  0  1  0  0  0  0  0  0  0  0
   -4.2956    2.8623   -3.7124 C   0  0  0  1  0  0  0  0  0  0  0  0
   -3.0320    3.0002   -3.1595 C   0  0  0  1  0  0  0  0  0  0  0  0
   -2.7917    2.5694   -1.8684 C   0  0  0  1  0  0  0  0  0  0  0  0
   -3.8158    2.0042   -1.1246 C   0  0  0  1  0  0  0  0  0  0  0  0
   -1.3956    2.7381   -1.3170 C   0  0  0  1  0  0  0  0  0  0  0  0
   -4.5284    3.2774   -4.9724 F   0  0  0  1  0  0  0  0  0  0  0  0
   -6.2657    2.1990   -3.3841 H   0  0  0  1  0  0  0  0  0  0  0  0
   -2.2647    3.4280   -3.7162 H   0  0  0  1  0  0  0  0  0  0  0  0
   -3.6361    1.6836   -0.1516 H   0  0  0  1  0  0  0  0  0  0  0  0
   -0.9429    3.5977   -1.7653 H   0  0  0  1  0  0  0  0  0  0  0  0
   -1.4511    2.8754   -0.2573 H   0  0  0  1  0  0  0  0  0  0  0  0
  1  4  1  0  0  0  0
  2  4  1  0  0  0  0
  2  5  2  0  0  0  0
  2  6  1  0  0  0  0
  3  4  1  0  0  0  0
  3  7  1  0  0  0  0
  3  8  1  0  0  0  0
  4 26  1  0  0  0  0
  6  9  1  0  0  0  0
  6 12  1  0  0  0  0
  8 10  1  0  0  0  0
  8 11  2  0  0  0  0
  9 13  1  0  0  0  0
  9 14  1  0  0  0  0
  9 15  1  0  0  0  0
 10 16  1  0  0  0  0
 10 17  1  0  0  0  0
 10 18  1  0  0  0  0
 19 20  1  0  0  0  0
 20 21  4  0  0  0  0
 20 25  4  0  0  0  0
 21 22  4  0  0  0  0
 21 28  1  0  0  0  0
 22 23  4  0  0  0  0
 22 27  1  0  0  0  0
 23 24  4  0  0  0  0
 23 29  1  0  0  0  0
 24 25  4  0  0  0  0
 24 26  1  0  0  0  0
 25 30  1  0  0  0  0
 26 31  1  0  0  0  0
 26 32  1  0  0  0  0
M  END
> <BCLConfClusterSize>
1

> <ConfClashScore>
0 

> <ConfOneFourInteractionScore>
-0.960318 

> <ConfScore>
0.373863 

> <ConfScorePBest>
0.00364716 

> <ConfTolerance>
0.654696 

> <RosettaParamsInstructions>
M  ROOT 3
M  POLY_N_BB 3
M  POLY_CA_BB 4
M  POLY_C_BB 2
M  POLY_O_BB 5
M  POLY_IGNORE 9 10 11 12 13 14 15 16 17 18 
M  POLY_UPPER 6
M  POLY_LOWER 8
M  POLY_CHG 0
M  POLY_PROPERTIES ALPHA_AA D_AA PROTEIN AROMATIC POLYMER 
M  END

$$$$



 32 32  0  0  0  0  0  0  0  0999 V2000
   -0.7754    0.9318   -2.1966 H   0  0  0  1  0  0  0  0  0  0  0  0
    0.8887    1.7002   -1.1536 C   0  0  0  1  0  0  0  0  0  0  0  0
   -0.0413    2.5089   -3.3010 N   0  0  0  1  0  0  0  0  0  0  0  0
   -0.3561    1.8991   -2.0139 C   0  0  0  1  0  0  0  0  0  0  0  0
    0.9105    0.8971   -0.2387 O   0  0  0  1  0  0  0  0  0  0  0  0
    1.9130    2.4780   -1.5051 N   0  0  0  1  0  0  0  0  0  0  0  0
   -0.5853    3.2619   -3.6133 H   0  0  0  1  0  0  0  0  0  0  0  0
    0.9627    2.0765   -4.0691 C   0  0  0  1  0  0  0  0  0  0  0  0
    3.2330    2.4164   -0.8954 C   0  0  0  1  0  0  0  0  0  0  0  0
    1.1825    2.7531   -5.4081 C   0  0  0  1  0  0  0  0  0  0  0  0
    1.7217    1.1605   -3.7552 O   0  0  0  1  0  0  0  0  0  0  0  0
    1.7677    3.1329   -2.2195 H   0  0  0  1  0  0  0  0  0  0  0  0
    3.1342    2.4055    0.1700 H   0  0  0  1  0  0  0  0  0  0  0  0
    3.8027    3.2723   -1.1917 H   0  0  0  1  0  0  0  0  0  0  0  0
    3.7325    1.5262   -1.2161 H   0  0  0  1  0  0  0  0  0  0  0  0
    2.2251    2.7397   -5.6483 H   0  0  0  1  0  0  0  0  0  0  0  0
    0.8418    3.7661   -5.3558 H   0  0  0  1  0  0  0  0  0  0  0  0
    0.6356    2.2310   -6.1653 H   0  0  0  1  0  0  0  0  0  0  0  0
   -6.0330    1.3066   -0.9127 F   0  0  0  1  0  0  0  0  0  0  0  0
   -5.0731    1.8665   -1.6737 C   0  0  0  1  0  0  0  0  0  0  0  0
   -5.3213    2.2965   -2.9679 C   0  0  0  1  0  0  0  0  0  0  0  0
   -4.3051    2.8609   -3.7156 C   0  0  0  1  0  0  0  0  0  0  0  0
   -3.0390    3.0020   -3.1692 C   0  0  0  1  0  0  0  0  0  0  0  0
   -2.7914    2.5734   -1.8787 C   0  0  0  1  0  0  0  0  0  0  0  0
   -3.8107    2.0073   -1.1290 C   0  0  0  1  0  0  0  0  0  0  0  0
   -1.4105    2.7216   -1.2848 C   0  0  0  1  0  0  0  0  0  0  0  0
   -4.5017    3.2870   -4.9780 F   0  0  0  1  0  0  0  0  0  0  0  0
   -6.2722    2.1943   -3.3764 H   0  0  0  1  0  0  0  0  0  0  0  0
   -2.2754    3.4305   -3.7303 H   0  0  0  1  0  0  0  0  0  0  0  0
   -3.6254    1.6884   -0.1566 H   0  0  0  1  0  0  0  0  0  0  0  0
   -1.1292    3.7530   -1.3301 H   0  0  0  1  0  0  0  0  0  0  0  0
   -1.4433    2.4048   -0.2634 H   0  0  0  1  0  0  0  0  0  0  0  0
  1  4  1  0  0  0  0
  2  4  1  0  0  0  0
  2  5  2  0  0  0  0
  2  6  1  0  0  0  0
  3  4  1  0  0  0  0
  3  7  1  0  0  0  0
  3  8  1  0  0  0  0
  4 26  1  0  0  0  0
  6  9  1  0  0  0  0
  6 12  1  0  0  0  0
  8 10  1  0  0  0  0
  8 11  2  0  0  0  0
  9 13  1  0  0  0  0
  9 14  1  0  0  0  0
  9 15  1  0  0  0  0
 10 16  1  0  0  0  0
 10 17  1  0  0  0  0
 10 18  1  0  0  0  0
 19 20  1  0  0  0  0
 20 21  4  0  0  0  0
 20 25  4  0  0  0  0
 21 22  4  0  0  0  0
 21 28  1  0  0  0  0
 22 23  4  0  0  0  0
 22 27  1  0  0  0  0
 23 24  4  0  0  0  0
 23 29  1  0  0  0  0
 24 25  4  0  0  0  0
 24 26  1  0  0  0  0
 25 30  1  0  0  0  0
 26 31  1  0  0  0  0
 26 32  1  0  0  0  0
M  END
> <BCLConfClusterSize>
1

> <ConfClashScore>
0 

> <ConfOneFourInteractionScore>
-0.956443 

> <ConfScore>
0.386725 

> <ConfScorePBest>
0.00361868 

> <ConfTolerance>
0.672836 

> <RosettaParamsInstructions>
M  ROOT 3
M  POLY_N_BB 3
M  POLY_CA_BB 4
M  POLY_C_BB 2
M  POLY_O_BB 5
M  POLY_IGNORE 9 10 11 12 13 14 15 16 17 18 
M  POLY_UPPER 6
M  POLY_LOWER 8
M  POLY_CHG 0
M  POLY_PROPERTIES ALPHA_AA D_AA PROTEIN AROMATIC POLYMER 
M  END

$$$$



 32 32  0  0  0  0  0  0  0  0999 V2000
   -1.8688    3.9169    0.4663 H   0  0  0  1  0  0  0  0  0  0  0  0
   -1.9911    5.2715   -1.1300 C   0  0  0  1  0  0  0  0  0  0  0  0
    0.0547    4.3719   -0.1014 N   0  0  0  1  0  0  0  0  0  0  0  0
   -1.3386    4.0754   -0.4495 C   0  0  0  1  0  0  0  0  0  0  0  0
   -3.0052    5.1425   -1.8107 O   0  0  0  1  0  0  0  0  0  0  0  0
   -1.3902    6.4488   -0.9356 N   0  0  0  1  0  0  0  0  0  0  0  0
    0.3496    4.1585    0.8085 H   0  0  0  1  0  0  0  0  0  0  0  0
    0.9611    4.9163   -0.9394 C   0  0  0  1  0  0  0  0  0  0  0  0
   -1.8821    7.6808   -1.5342 C   0  0  0  1  0  0  0  0  0  0  0  0
    2.3882    5.0628   -0.4483 C   0  0  0  1  0  0  0  0  0  0  0  0
    0.6418    5.2839   -2.0692 O   0  0  0  1  0  0  0  0  0  0  0  0
   -0.5905    6.4841   -0.3703 H   0  0  0  1  0  0  0  0  0  0  0  0
   -2.9416    7.6147   -1.6680 H   0  0  0  1  0  0  0  0  0  0  0  0
   -1.4114    7.8283   -2.4838 H   0  0  0  1  0  0  0  0  0  0  0  0
   -1.6547    8.5051   -0.8910 H   0  0  0  1  0  0  0  0  0  0  0  0
    2.8225    5.9449   -0.8705 H   0  0  0  1  0  0  0  0  0  0  0  0
    2.9574    4.2073   -0.7467 H   0  0  0  1  0  0  0  0  0  0  0  0
    2.3917    5.1396    0.6190 H   0  0  0  1  0  0  0  0  0  0  0  0
   -6.0741    1.3236   -0.9672 F   0  0  0  1  0  0  0  0  0  0  0  0
   -5.0591    1.8667   -1.6663 C   0  0  0  1  0  0  0  0  0  0  0  0
   -5.3152    2.3014   -2.9574 C   0  0  0  1  0  0  0  0  0  0  0  0
   -4.3014    2.8600   -3.7126 C   0  0  0  1  0  0  0  0  0  0  0  0
   -3.0296    2.9905   -3.1770 C   0  0  0  1  0  0  0  0  0  0  0  0
   -2.7740    2.5571   -1.8897 C   0  0  0  1  0  0  0  0  0  0  0  0
   -3.7909    1.9968   -1.1323 C   0  0  0  1  0  0  0  0  0  0  0  0
   -1.4275    2.7651   -1.2375 C   0  0  0  1  0  0  0  0  0  0  0  0
   -4.5492    3.2776   -4.9689 F   0  0  0  1  0  0  0  0  0  0  0  0
   -6.2704    2.2072   -3.3578 H   0  0  0  1  0  0  0  0  0  0  0  0
   -2.2677    3.4145   -3.7438 H   0  0  0  1  0  0  0  0  0  0  0  0
   -3.5996    1.6744   -0.1623 H   0  0  0  1  0  0  0  0  0  0  0  0
   -1.2444    1.9515   -0.5673 H   0  0  0  1  0  0  0  0  0  0  0  0
   -0.6774    2.7751   -2.0006 H   0  0  0  1  0  0  0  0  0  0  0  0
  1  4  1  0  0  0  0
  2  4  1  0  0  0  0
  2  5  2  0  0  0  0
  2  6  1  0  0  0  0
  3  4  1  0  0  0  0
  3  7  1  0  0  0  0
  3  8  1  0  0  0  0
  4 26  1  0  0  0  0
  6  9  1  0  0  0  0
  6 12  1  0  0  0  0
  8 10  1  0  0  0  0
  8 11  2  0  0  0  0
  9 13  1  0  0  0  0
  9 14  1  0  0  0  0
  9 15  1  0  0  0  0
 10 16  1  0  0  0  0
 10 17  1  0  0  0  0
 10 18  1  0  0  0  0
 19 20  1  0  0  0  0
 20 21  4  0  0  0  0
 20 25  4  0  0  0  0
 21 22  4  0  0  0  0
 21 28  1  0  0  0  0
 22 23  4  0  0  0  0
 22 27  1  0  0  0  0
 23 24  4  0  0  0  0
 23 29  1  0  0  0  0
 24 25  4  0  0  0  0
 24 26  1  0  0  0  0
 25 30  1  0  0  0  0
 26 31  1  0  0  0  0
 26 32  1  0  0  0  0
M  END
> <BCLConfClusterSize>
1

> <ConfClashScore>
0.000649543 

> <ConfOneFourInteractionScore>
-0.946798 

> <ConfScore>
0.387759 

> <ConfScorePBest>
0.0035902 

> <ConfTolerance>
0.375249 

> <RosettaParamsInstructions>
M  ROOT 3
M  POLY_N_BB 3
M  POLY_CA_BB 4
M  POLY_C_BB 2
M  POLY_O_BB 5
M  POLY_IGNORE 9 10 11 12 13 14 15 16 17 18 
M  POLY_UPPER 6
M  POLY_LOWER 8
M  POLY_CHG 0
M  POLY_PROPERTIES ALPHA_AA D_AA PROTEIN AROMATIC POLYMER 
M  END

$$$$



 32 32  0  0  0  0  0  0  0  0999 V2000
   -0.4812    4.1089   -0.0016 H   0  0  0  1  0  0  0  0  0  0  0  0
   -2.4376    4.8239   -0.2832 C   0  0  0  1  0  0  0  0  0  0  0  0
   -0.5944    4.9982   -1.8658 N   0  0  0  1  0  0  0  0  0  0  0  0
   -1.1803    4.1601   -0.8101 C   0  0  0  1  0  0  0  0  0  0  0  0
   -2.7954    4.6875    0.8752 O   0  0  0  1  0  0  0  0  0  0  0  0
   -3.0890    5.5528   -1.2033 N   0  0  0  1  0  0  0  0  0  0  0  0
   -1.0830    5.7938   -2.1637 H   0  0  0  1  0  0  0  0  0  0  0  0
    0.5791    4.7137   -2.4325 C   0  0  0  1  0  0  0  0  0  0  0  0
   -4.2639    6.3244   -0.8263 C   0  0  0  1  0  0  0  0  0  0  0  0
    1.0207    5.6514   -3.5392 C   0  0  0  1  0  0  0  0  0  0  0  0
    1.2726    3.7561   -2.0924 O   0  0  0  1  0  0  0  0  0  0  0  0
   -2.7727    5.5653   -2.1307 H   0  0  0  1  0  0  0  0  0  0  0  0
   -3.9944    7.0453   -0.0830 H   0  0  0  1  0  0  0  0  0  0  0  0
   -5.0103    5.6672   -0.4314 H   0  0  0  1  0  0  0  0  0  0  0  0
   -4.6509    6.8280   -1.6874 H   0  0  0  1  0  0  0  0  0  0  0  0
    0.5539    6.6051   -3.4069 H   0  0  0  1  0  0  0  0  0  0  0  0
    0.7360    5.2437   -4.4866 H   0  0  0  1  0  0  0  0  0  0  0  0
    2.0839    5.7673   -3.5051 H   0  0  0  1  0  0  0  0  0  0  0  0
   -6.0630    1.3115   -0.9470 F   0  0  0  1  0  0  0  0  0  0  0  0
   -5.0713    1.8658   -1.6703 C   0  0  0  1  0  0  0  0  0  0  0  0
   -5.3153    2.2970   -2.9650 C   0  0  0  1  0  0  0  0  0  0  0  0
   -4.2963    2.8609   -3.7092 C   0  0  0  1  0  0  0  0  0  0  0  0
   -3.0317    3.0002   -3.1591 C   0  0  0  1  0  0  0  0  0  0  0  0
   -2.7882    2.5703   -1.8683 C   0  0  0  1  0  0  0  0  0  0  0  0
   -3.8103    2.0047   -1.1219 C   0  0  0  1  0  0  0  0  0  0  0  0
   -1.3911    2.7405   -1.3200 C   0  0  0  1  0  0  0  0  0  0  0  0
   -4.5322    3.2751   -4.9689 F   0  0  0  1  0  0  0  0  0  0  0  0
   -6.2651    2.1961   -3.3763 H   0  0  0  1  0  0  0  0  0  0  0  0
   -2.2659    3.4282   -3.7177 H   0  0  0  1  0  0  0  0  0  0  0  0
   -3.6282    1.6849   -0.1492 H   0  0  0  1  0  0  0  0  0  0  0  0
   -1.2445    2.0526   -0.5136 H   0  0  0  1  0  0  0  0  0  0  0  0
   -0.6827    2.5375   -2.0958 H   0  0  0  1  0  0  0  0  0  0  0  0
  1  4  1  0  0  0  0
  2  4  1  0  0  0  0
  2  5  2  0  0  0  0
  2  6  1  0  0  0  0
  3  4  1  0  0  0  0
  3  7  1  0  0  0  0
  3  8  1  0  0  0  0
  4 26  1  0  0  0  0
  6  9  1  0  0  0  0
  6 12  1  0  0  0  0
  8 10  1  0  0  0  0
  8 11  2  0  0  0  0
  9 13  1  0  0  0  0
  9 14  1  0  0  0  0
  9 15  1  0  0  0  0
 10 16  1  0  0  0  0
 10 17  1  0  0  0  0
 10 18  1  0  0  0  0
 19 20  1  0  0  0  0
 20 21  4  0  0  0  0
 20 25  4  0  0  0  0
 21 22  4  0  0  0  0
 21 28  1  0  0  0  0
 22 23  4  0  0  0  0
 22 27  1  0  0  0  0
 23 24  4  0  0  0  0
 23 29  1  0  0  0  0
 24 25  4  0  0  0  0
 24 26  1  0  0  0  0
 25 30  1  0  0  0  0
 26 31  1  0  0  0  0
 26 32  1  0  0  0  0
M  END
> <BCLConfClusterSize>
1

> <ConfClashScore>
0 

> <ConfOneFourInteractionScore>
-0.951423 

> <ConfScore>
0.403442 

> <ConfScorePBest>
0.00356172 

> <ConfTolerance>
0.727745 

> <RosettaParamsInstructions>
M  ROOT 3
M  POLY_N_BB 3
M  POLY_CA_BB 4
M  POLY_C_BB 2
M  POLY_O_BB 5
M  POLY_IGNORE 9 10 11 12 13 14 15 16 17 18 
M  POLY_UPPER 6
M  POLY_LOWER 8
M  POLY_CHG 0
M  POLY_PROPERTIES ALPHA_AA D_AA PROTEIN AROMATIC POLYMER 
M  END

$$$$



 32 32  0  0  0  0  0  0  0  0999 V2000
   -0.5317    4.1788   -2.5285 H   0  0  0  1  0  0  0  0  0  0  0  0
    0.5531    4.1878   -0.7287 C   0  0  0  1  0  0  0  0  0  0  0  0
   -1.6846    5.1436   -1.1232 N   0  0  0  1  0  0  0  0  0  0  0  0
   -0.7560    4.0836   -1.4867 C   0  0  0  1  0  0  0  0  0  0  0  0
    1.1839    3.1918   -0.4147 O   0  0  0  1  0  0  0  0  0  0  0  0
    0.9589    5.4330   -0.4342 N   0  0  0  1  0  0  0  0  0  0  0  0
   -2.3048    5.4824   -1.8021 H   0  0  0  1  0  0  0  0  0  0  0  0
   -1.7208    5.6709    0.1039 C   0  0  0  1  0  0  0  0  0  0  0  0
    2.0426    5.7619    0.4798 C   0  0  0  1  0  0  0  0  0  0  0  0
   -2.6933    6.8177    0.2995 C   0  0  0  1  0  0  0  0  0  0  0  0
   -1.0178    5.2652    1.0284 O   0  0  0  1  0  0  0  0  0  0  0  0
    0.4901    6.1767   -0.8673 H   0  0  0  1  0  0  0  0  0  0  0  0
    1.7919    6.6462    1.0276 H   0  0  0  1  0  0  0  0  0  0  0  0
    2.9403    5.9304   -0.0776 H   0  0  0  1  0  0  0  0  0  0  0  0
    2.1924    4.9508    1.1615 H   0  0  0  1  0  0  0  0  0  0  0  0
   -3.6960    6.4462    0.2616 H   0  0  0  1  0  0  0  0  0  0  0  0
   -2.5517    7.5413   -0.4759 H   0  0  0  1  0  0  0  0  0  0  0  0
   -2.5184    7.2749    1.2510 H   0  0  0  1  0  0  0  0  0  0  0  0
   -6.0556    1.3105   -0.9392 F   0  0  0  1  0  0  0  0  0  0  0  0
   -5.0686    1.8657   -1.6683 C   0  0  0  1  0  0  0  0  0  0  0  0
   -5.3199    2.2947   -2.9622 C   0  0  0  1  0  0  0  0  0  0  0  0
   -4.3058    2.8595   -3.7124 C   0  0  0  1  0  0  0  0  0  0  0  0
   -3.0387    3.0020   -3.1688 C   0  0  0  1  0  0  0  0  0  0  0  0
   -2.7879    2.5744   -1.8786 C   0  0  0  1  0  0  0  0  0  0  0  0
   -3.8051    2.0078   -1.1264 C   0  0  0  1  0  0  0  0  0  0  0  0
   -1.4059    2.7240   -1.2878 C   0  0  0  1  0  0  0  0  0  0  0  0
   -4.5055    3.2847   -4.9747 F   0  0  0  1  0  0  0  0  0  0  0  0
   -6.2716    2.1914   -3.3686 H   0  0  0  1  0  0  0  0  0  0  0  0
   -2.2766    3.4307   -3.7318 H   0  0  0  1  0  0  0  0  0  0  0  0
   -3.6175    1.6897   -0.1541 H   0  0  0  1  0  0  0  0  0  0  0  0
   -1.4752    2.5421   -0.2357 H   0  0  0  1  0  0  0  0  0  0  0  0
   -0.7734    1.9870   -1.7368 H   0  0  0  1  0  0  0  0  0  0  0  0
  1  4  1  0  0  0  0
  2  4  1  0  0  0  0
  2  5  2  0  0  0  0
  2  6  1  0  0  0  0
  3  4  1  0  0  0  0
  3  7  1  0  0  0  0
  3  8  1  0  0  0  0
  4 26  1  0  0  0  0
  6  9  1  0  0  0  0
  6 12  1  0  0  0  0
  8 10  1  0  0  0  0
  8 11  2  0  0  0  0
  9 13  1  0  0  0  0
  9 14  1  0  0  0  0
  9 15  1  0  0  0  0
 10 16  1  0  0  0  0
 10 17  1  0  0  0  0
 10 18  1  0  0  0  0
 19 20  1  0  0  0  0
 20 21  4  0  0  0  0
 20 25  4  0  0  0  0
 21 22  4  0  0  0  0
 21 28  1  0  0  0  0
 22 23  4  0  0  0  0
 22 27  1  0  0  0  0
 23 24  4  0  0  0  0
 23 29  1  0  0  0  0
 24 25  4  0  0  0  0
 24 26  1  0  0  0  0
 25 30  1  0  0  0  0
 26 31  1  0  0  0  0
 26 32  1  0  0  0  0
M  END
> <BCLConfClusterSize>
1

> <ConfClashScore>
0 

> <ConfOneFourInteractionScore>
-0.938696 

> <ConfScore>
0.40378 

> <ConfScorePBest>
0.00353324 

> <ConfTolerance>
0.524799 

> <RosettaParamsInstructions>
M  ROOT 3
M  POLY_N_BB 3
M  POLY_CA_BB 4
M  POLY_C_BB 2
M  POLY_O_BB 5
M  POLY_IGNORE 9 10 11 12 13 14 15 16 17 18 
M  POLY_UPPER 6
M  POLY_LOWER 8
M  POLY_CHG 0
M  POLY_PROPERTIES ALPHA_AA D_AA PROTEIN AROMATIC POLYMER 
M  END

$$$$



 32 32  0  0  0  0  0  0  0  0999 V2000
   -0.8431    0.7570   -1.4844 H   0  0  0  1  0  0  0  0  0  0  0  0
   -1.5416    0.9936    0.4966 C   0  0  0  1  0  0  0  0  0  0  0  0
    0.6137    1.7162   -0.3767 N   0  0  0  1  0  0  0  0  0  0  0  0
   -0.7844    1.5044   -0.7209 C   0  0  0  1  0  0  0  0  0  0  0  0
   -1.4908    1.5837    1.5725 O   0  0  0  1  0  0  0  0  0  0  0  0
   -2.2507   -0.1211    0.3123 N   0  0  0  1  0  0  0  0  0  0  0  0
    1.0310    2.5743   -0.6000 H   0  0  0  1  0  0  0  0  0  0  0  0
    1.3480    0.7814    0.2332 C   0  0  0  1  0  0  0  0  0  0  0  0
   -3.1289   -0.6624    1.3388 C   0  0  0  1  0  0  0  0  0  0  0  0
    2.6846    1.2457    0.7785 C   0  0  0  1  0  0  0  0  0  0  0  0
    0.9799   -0.3863    0.3542 O   0  0  0  1  0  0  0  0  0  0  0  0
   -2.1779   -0.5918   -0.5441 H   0  0  0  1  0  0  0  0  0  0  0  0
   -2.7986   -1.6432    1.6105 H   0  0  0  1  0  0  0  0  0  0  0  0
   -4.1287   -0.7148    0.9611 H   0  0  0  1  0  0  0  0  0  0  0  0
   -3.1051   -0.0271    2.1994 H   0  0  0  1  0  0  0  0  0  0  0  0
    2.9094    0.7097    1.6768 H   0  0  0  1  0  0  0  0  0  0  0  0
    2.6384    2.2934    0.9906 H   0  0  0  1  0  0  0  0  0  0  0  0
    3.4489    1.0615    0.0527 H   0  0  0  1  0  0  0  0  0  0  0  0
   -6.0811    1.3247   -0.9752 F   0  0  0  1  0  0  0  0  0  0  0  0
   -5.0617    1.8669   -1.6686 C   0  0  0  1  0  0  0  0  0  0  0  0
   -5.3107    2.3036   -2.9604 C   0  0  0  1  0  0  0  0  0  0  0  0
   -4.2922    2.8614   -3.7099 C   0  0  0  1  0  0  0  0  0  0  0  0
   -3.0229    2.9890   -3.1678 C   0  0  0  1  0  0  0  0  0  0  0  0
   -2.7743    2.5536   -1.8798 C   0  0  0  1  0  0  0  0  0  0  0  0
   -3.7959    1.9941   -1.1282 C   0  0  0  1  0  0  0  0  0  0  0  0
   -1.4122    2.7799   -1.2675 C   0  0  0  1  0  0  0  0  0  0  0  0
   -4.5762    3.2678   -4.9622 F   0  0  0  1  0  0  0  0  0  0  0  0
   -6.2641    2.2115   -3.3656 H   0  0  0  1  0  0  0  0  0  0  0  0
   -2.2574    3.4124   -3.7303 H   0  0  0  1  0  0  0  0  0  0  0  0
   -3.6100    1.6702   -0.1576 H   0  0  0  1  0  0  0  0  0  0  0  0
   -0.7646    3.1840   -2.0173 H   0  0  0  1  0  0  0  0  0  0  0  0
   -1.5115    3.4813   -0.4656 H   0  0  0  1  0  0  0  0  0  0  0  0
  1  4  1  0  0  0  0
  2  4  1  0  0  0  0
  2  5  2  0  0  0  0
  2  6  1  0  0  0  0
  3  4  1  0  0  0  0
  3  7  1  0  0  0  0
  3  8  1  0  0  0  0
  4 26  1  0  0  0  0
  6  9  1  0  0  0  0
  6 12  1  0  0  0  0
  8 10  1  0  0  0  0
  8 11  2  0  0  0  0
  9 13  1  0  0  0  0
  9 14  1  0  0  0  0
  9 15  1  0  0  0  0
 10 16  1  0  0  0  0
 10 17  1  0  0  0  0
 10 18  1  0  0  0  0
 19 20  1  0  0  0  0
 20 21  4  0  0  0  0
 20 25  4  0  0  0  0
 21 22  4  0  0  0  0
 21 28  1  0  0  0  0
 22 23  4  0  0  0  0
 22 27  1  0  0  0  0
 23 24  4  0  0  0  0
 23 29  1  0  0  0  0
 24 25  4  0  0  0  0
 24 26  1  0  0  0  0
 25 30  1  0  0  0  0
 26 31  1  0  0  0  0
 26 32  1  0  0  0  0
M  END
> <BCLConfClusterSize>
1

> <ConfClashScore>
0 

> <ConfOneFourInteractionScore>
-0.978127 

> <ConfScore>
0.406127 

> <ConfScorePBest>
0.00350476 

> <ConfTolerance>
0.800602 

> <RosettaParamsInstructions>
M  ROOT 3
M  POLY_N_BB 3
M  POLY_CA_BB 4
M  POLY_C_BB 2
M  POLY_O_BB 5
M  POLY_IGNORE 9 10 11 12 13 14 15 16 17 18 
M  POLY_UPPER 6
M  POLY_LOWER 8
M  POLY_CHG 0
M  POLY_PROPERTIES ALPHA_AA D_AA PROTEIN AROMATIC POLYMER 
M  END

$$$$



 32 32  0  0  0  0  0  0  0  0999 V2000
   -0.1926    4.3158   -0.5373 H   0  0  0  1  0  0  0  0  0  0  0  0
   -1.9244    4.3900    0.6346 C   0  0  0  1  0  0  0  0  0  0  0  0
   -1.6495    5.1544   -1.7124 N   0  0  0  1  0  0  0  0  0  0  0  0
   -1.2414    4.1836   -0.7033 C   0  0  0  1  0  0  0  0  0  0  0  0
   -2.5101    3.4684    1.2014 O   0  0  0  1  0  0  0  0  0  0  0  0
   -1.8449    5.6230    1.1428 N   0  0  0  1  0  0  0  0  0  0  0  0
   -1.0783    5.2540   -2.5024 H   0  0  0  1  0  0  0  0  0  0  0  0
   -2.7435    5.9181   -1.6407 C   0  0  0  1  0  0  0  0  0  0  0  0
   -2.4101    5.9677    2.4388 C   0  0  0  1  0  0  0  0  0  0  0  0
   -2.9850    6.8986   -2.7887 C   0  0  0  1  0  0  0  0  0  0  0  0
   -3.4913    5.9092   -0.6639 O   0  0  0  1  0  0  0  0  0  0  0  0
   -1.3901    6.3196    0.6248 H   0  0  0  1  0  0  0  0  0  0  0  0
   -2.2765    5.1498    3.1157 H   0  0  0  1  0  0  0  0  0  0  0  0
   -3.4545    6.1726    2.3291 H   0  0  0  1  0  0  0  0  0  0  0  0
   -1.9148    6.8341    2.8246 H   0  0  0  1  0  0  0  0  0  0  0  0
   -4.0226    7.1573   -2.8251 H   0  0  0  1  0  0  0  0  0  0  0  0
   -2.6988    6.4424   -3.7133 H   0  0  0  1  0  0  0  0  0  0  0  0
   -2.4027    7.7823   -2.6311 H   0  0  0  1  0  0  0  0  0  0  0  0
   -6.0807    1.3227   -0.9698 F   0  0  0  1  0  0  0  0  0  0  0  0
   -5.0632    1.8653   -1.6657 C   0  0  0  1  0  0  0  0  0  0  0  0
   -5.3154    2.3012   -2.9572 C   0  0  0  1  0  0  0  0  0  0  0  0
   -4.2990    2.8594   -3.7092 C   0  0  0  1  0  0  0  0  0  0  0  0
   -3.0285    2.9883   -3.1699 C   0  0  0  1  0  0  0  0  0  0  0  0
   -2.7769    2.5538   -1.8822 C   0  0  0  1  0  0  0  0  0  0  0  0
   -3.7964    1.9939   -1.1281 C   0  0  0  1  0  0  0  0  0  0  0  0
   -1.4136    2.7816   -1.2729 C   0  0  0  1  0  0  0  0  0  0  0  0
   -4.5429    3.2781   -4.9658 F   0  0  0  1  0  0  0  0  0  0  0  0
   -6.2695    2.2081   -3.3603 H   0  0  0  1  0  0  0  0  0  0  0  0
   -2.2647    3.4120   -3.7343 H   0  0  0  1  0  0  0  0  0  0  0  0
   -3.6081    1.6707   -0.1577 H   0  0  0  1  0  0  0  0  0  0  0  0
   -1.2706    2.0733   -0.4837 H   0  0  0  1  0  0  0  0  0  0  0  0
   -0.6726    2.6279   -2.0293 H   0  0  0  1  0  0  0  0  0  0  0  0
  1  4  1  0  0  0  0
  2  4  1  0  0  0  0
  2  5  2  0  0  0  0
  2  6  1  0  0  0  0
  3  4  1  0  0  0  0
  3  7  1  0  0  0  0
  3  8  1  0  0  0  0
  4 26  1  0  0  0  0
  6  9  1  0  0  0  0
  6 12  1  0  0  0  0
  8 10  1  0  0  0  0
  8 11  2  0  0  0  0
  9 13  1  0  0  0  0
  9 14  1  0  0  0  0
  9 15  1  0  0  0  0
 10 16  1  0  0  0  0
 10 17  1  0  0  0  0
 10 18  1  0  0  0  0
 19 20  1  0  0  0  0
 20 21  4  0  0  0  0
 20 25  4  0  0  0  0
 21 22  4  0  0  0  0
 21 28  1  0  0  0  0
 22 23  4  0  0  0  0
 22 27  1  0  0  0  0
 23 24  4  0  0  0  0
 23 29  1  0  0  0  0
 24 25  4  0  0  0  0
 24 26  1  0  0  0  0
 25 30  1  0  0  0  0
 26 31  1  0  0  0  0
 26 32  1  0  0  0  0
M  END
> <BCLConfClusterSize>
1

> <ConfClashScore>
0.000951053 

> <ConfOneFourInteractionScore>
-0.970872 

> <ConfScore>
0.410913 

> <ConfScorePBest>
0.00347628 

> <ConfTolerance>
0.482179 

> <RosettaParamsInstructions>
M  ROOT 3
M  POLY_N_BB 3
M  POLY_CA_BB 4
M  POLY_C_BB 2
M  POLY_O_BB 5
M  POLY_IGNORE 9 10 11 12 13 14 15 16 17 18 
M  POLY_UPPER 6
M  POLY_LOWER 8
M  POLY_CHG 0
M  POLY_PROPERTIES ALPHA_AA D_AA PROTEIN AROMATIC POLYMER 
M  END

$$$$



 32 32  0  0  0  0  0  0  0  0999 V2000
   -2.2436    4.4752   -0.3200 H   0  0  0  1  0  0  0  0  0  0  0  0
   -0.1571    4.6378   -0.1192 C   0  0  0  1  0  0  0  0  0  0  0  0
   -1.6640    3.1482    1.1423 N   0  0  0  1  0  0  0  0  0  0  0  0
   -1.4278    3.8085   -0.1329 C   0  0  0  1  0  0  0  0  0  0  0  0
    0.3736    4.9659    0.9292 O   0  0  0  1  0  0  0  0  0  0  0  0
    0.3284    4.9758   -1.3172 N   0  0  0  1  0  0  0  0  0  0  0  0
   -1.5916    2.1720    1.1899 H   0  0  0  1  0  0  0  0  0  0  0  0
   -1.9759    3.8265    2.2503 C   0  0  0  1  0  0  0  0  0  0  0  0
    1.5798    5.7023   -1.4721 C   0  0  0  1  0  0  0  0  0  0  0  0
   -2.0321    3.0115    3.5277 C   0  0  0  1  0  0  0  0  0  0  0  0
   -2.2062    5.0351    2.2533 O   0  0  0  1  0  0  0  0  0  0  0  0
   -0.1758    4.7257   -2.1195 H   0  0  0  1  0  0  0  0  0  0  0  0
    1.4437    6.5037   -2.1679 H   0  0  0  1  0  0  0  0  0  0  0  0
    2.3349    5.0378   -1.8370 H   0  0  0  1  0  0  0  0  0  0  0  0
    1.8808    6.0996   -0.5253 H   0  0  0  1  0  0  0  0  0  0  0  0
   -3.0335    3.0067    3.9046 H   0  0  0  1  0  0  0  0  0  0  0  0
   -1.3792    3.4451    4.2561 H   0  0  0  1  0  0  0  0  0  0  0  0
   -1.7232    2.0075    3.3238 H   0  0  0  1  0  0  0  0  0  0  0  0
   -6.0811    1.3247   -0.9752 F   0  0  0  1  0  0  0  0  0  0  0  0
   -5.0617    1.8669   -1.6686 C   0  0  0  1  0  0  0  0  0  0  0  0
   -5.3107    2.3036   -2.9604 C   0  0  0  1  0  0  0  0  0  0  0  0
   -4.2922    2.8614   -3.7099 C   0  0  0  1  0  0  0  0  0  0  0  0
   -3.0229    2.9890   -3.1678 C   0  0  0  1  0  0  0  0  0  0  0  0
   -2.7743    2.5536   -1.8798 C   0  0  0  1  0  0  0  0  0  0  0  0
   -3.7959    1.9941   -1.1282 C   0  0  0  1  0  0  0  0  0  0  0  0
   -1.4122    2.7799   -1.2675 C   0  0  0  1  0  0  0  0  0  0  0  0
   -4.5762    3.2678   -4.9622 F   0  0  0  1  0  0  0  0  0  0  0  0
   -6.2641    2.2115   -3.3656 H   0  0  0  1  0  0  0  0  0  0  0  0
   -2.2574    3.4124   -3.7303 H   0  0  0  1  0  0  0  0  0  0  0  0
   -3.6100    1.6702   -0.1576 H   0  0  0  1  0  0  0  0  0  0  0  0
   -1.0547    1.8494   -0.8786 H   0  0  0  1  0  0  0  0  0  0  0  0
   -0.7484    3.1262   -2.0320 H   0  0  0  1  0  0  0  0  0  0  0  0
  1  4  1  0  0  0  0
  2  4  1  0  0  0  0
  2  5  2  0  0  0  0
  2  6  1  0  0  0  0
  3  4  1  0  0  0  0
  3  7  1  0  0  0  0
  3  8  1  0  0  0  0
  4 26  1  0  0  0  0
  6  9  1  0  0  0  0
  6 12  1  0  0  0  0
  8 10  1  0  0  0  0
  8 11  2  0  0  0  0
  9 13  1  0  0  0  0
  9 14  1  0  0  0  0
  9 15  1  0  0  0  0
 10 16  1  0  0  0  0
 10 17  1  0  0  0  0
 10 18  1  0  0  0  0
 19 20  1  0  0  0  0
 20 21  4  0  0  0  0
 20 25  4  0  0  0  0
 21 22  4  0  0  0  0
 21 28  1  0  0  0  0
 22 23  4  0  0  0  0
 22 27  1  0  0  0  0
 23 24  4  0  0  0  0
 23 29  1  0  0  0  0
 24 25  4  0  0  0  0
 24 26  1  0  0  0  0
 25 30  1  0  0  0  0
 26 31  1  0  0  0  0
 26 32  1  0  0  0  0
M  END
> <BCLConfClusterSize>
1

> <ConfClashScore>
0 

> <ConfOneFourInteractionScore>
-0.947371 

> <ConfScore>
0.411724 

> <ConfScorePBest>
0.0034478 

> <ConfTolerance>
0.830139 

> <RosettaParamsInstructions>
M  ROOT 3
M  POLY_N_BB 3
M  POLY_CA_BB 4
M  POLY_C_BB 2
M  POLY_O_BB 5
M  POLY_IGNORE 9 10 11 12 13 14 15 16 17 18 
M  POLY_UPPER 6
M  POLY_LOWER 8
M  POLY_CHG 0
M  POLY_PROPERTIES ALPHA_AA D_AA PROTEIN AROMATIC POLYMER 
M  END

$$$$



 32 32  0  0  0  0  0  0  0  0999 V2000
   -1.5838    0.9133   -0.1012 H   0  0  0  1  0  0  0  0  0  0  0  0
    0.4413    1.5590    0.0299 C   0  0  0  1  0  0  0  0  0  0  0  0
   -0.5977    0.4818   -1.8909 N   0  0  0  1  0  0  0  0  0  0  0  0
   -0.8608    1.3668   -0.7466 C   0  0  0  1  0  0  0  0  0  0  0  0
    1.3393    2.2784   -0.3996 O   0  0  0  1  0  0  0  0  0  0  0  0
    0.5295    0.8962    1.1940 N   0  0  0  1  0  0  0  0  0  0  0  0
   -0.8309    0.7722   -2.7974 H   0  0  0  1  0  0  0  0  0  0  0  0
   -0.0238   -0.7554   -1.6914 C   0  0  0  1  0  0  0  0  0  0  0  0
    1.6697    0.9743    2.0948 C   0  0  0  1  0  0  0  0  0  0  0  0
    0.1271   -1.6135   -2.9135 C   0  0  0  1  0  0  0  0  0  0  0  0
    0.3269   -1.0944   -0.5718 O   0  0  0  1  0  0  0  0  0  0  0  0
   -0.2220    0.3232    1.4537 H   0  0  0  1  0  0  0  0  0  0  0  0
    2.1800    0.0339    2.1076 H   0  0  0  1  0  0  0  0  0  0  0  0
    1.3289    1.2083    3.0817 H   0  0  0  1  0  0  0  0  0  0  0  0
    2.3387    1.7382    1.7575 H   0  0  0  1  0  0  0  0  0  0  0  0
   -0.7738   -2.1679   -3.0742 H   0  0  0  1  0  0  0  0  0  0  0  0
    0.9429   -2.2917   -2.7743 H   0  0  0  1  0  0  0  0  0  0  0  0
    0.3199   -0.9926   -3.7634 H   0  0  0  1  0  0  0  0  0  0  0  0
   -6.0702    1.3178   -0.9688 F   0  0  0  1  0  0  0  0  0  0  0  0
   -5.0579    1.8679   -1.6663 C   0  0  0  1  0  0  0  0  0  0  0  0
   -5.3137    2.2954   -2.9599 C   0  0  0  1  0  0  0  0  0  0  0  0
   -4.3026    2.8609   -3.7137 C   0  0  0  1  0  0  0  0  0  0  0  0
   -3.0340    3.0053   -3.1741 C   0  0  0  1  0  0  0  0  0  0  0  0
   -2.7787    2.5791   -1.8843 C   0  0  0  1  0  0  0  0  0  0  0  0
   -3.7930    2.0120   -1.1285 C   0  0  0  1  0  0  0  0  0  0  0  0
   -1.4159    2.7050   -1.2454 C   0  0  0  1  0  0  0  0  0  0  0  0
   -4.5499    3.2715   -4.9723 F   0  0  0  1  0  0  0  0  0  0  0  0
   -6.2666    2.1907   -3.3633 H   0  0  0  1  0  0  0  0  0  0  0  0
   -2.2741    3.4345   -3.7398 H   0  0  0  1  0  0  0  0  0  0  0  0
   -3.6020    1.6949   -0.1566 H   0  0  0  1  0  0  0  0  0  0  0  0
   -0.7369    3.1074   -1.9679 H   0  0  0  1  0  0  0  0  0  0  0  0
   -1.4902    3.3741   -0.4137 H   0  0  0  1  0  0  0  0  0  0  0  0
  1  4  1  0  0  0  0
  2  4  1  0  0  0  0
  2  5  2  0  0  0  0
  2  6  1  0  0  0  0
  3  4  1  0  0  0  0
  3  7  1  0  0  0  0
  3  8  1  0  0  0  0
  4 26  1  0  0  0  0
  6  9  1  0  0  0  0
  6 12  1  0  0  0  0
  8 10  1  0  0  0  0
  8 11  2  0  0  0  0
  9 13  1  0  0  0  0
  9 14  1  0  0  0  0
  9 15  1  0  0  0  0
 10 16  1  0  0  0  0
 10 17  1  0  0  0  0
 10 18  1  0  0  0  0
 19 20  1  0  0  0  0
 20 21  4  0  0  0  0
 20 25  4  0  0  0  0
 21 22  4  0  0  0  0
 21 28  1  0  0  0  0
 22 23  4  0  0  0  0
 22 27  1  0  0  0  0
 23 24  4  0  0  0  0
 23 29  1  0  0  0  0
 24 25  4  0  0  0  0
 24 26  1  0  0  0  0
 25 30  1  0  0  0  0
 26 31  1  0  0  0  0
 26 32  1  0  0  0  0
M  END
> <BCLConfClusterSize>
1

> <ConfClashScore>
0 

> <ConfOneFourInteractionScore>
-0.971454 

> <ConfScore>
0.412199 

> <ConfScorePBest>
0.00341932 

> <ConfTolerance>
0.745375 

> <RosettaParamsInstructions>
M  ROOT 3
M  POLY_N_BB 3
M  POLY_CA_BB 4
M  POLY_C_BB 2
M  POLY_O_BB 5
M  POLY_IGNORE 9 10 11 12 13 14 15 16 17 18 
M  POLY_UPPER 6
M  POLY_LOWER 8
M  POLY_CHG 0
M  POLY_PROPERTIES ALPHA_AA D_AA PROTEIN AROMATIC POLYMER 
M  END

$$$$



 32 32  0  0  0  0  0  0  0  0999 V2000
   -0.8165    1.0207   -2.3846 H   0  0  0  1  0  0  0  0  0  0  0  0
   -0.2373    0.6405   -0.4001 C   0  0  0  1  0  0  0  0  0  0  0  0
    0.9090    2.0976   -1.9865 N   0  0  0  1  0  0  0  0  0  0  0  0
   -0.4115    1.5868   -1.5720 C   0  0  0  1  0  0  0  0  0  0  0  0
    0.7795   -0.0366   -0.2734 O   0  0  0  1  0  0  0  0  0  0  0  0
   -1.2570    0.5984    0.4720 N   0  0  0  1  0  0  0  0  0  0  0  0
    1.1519    2.1116   -2.9358 H   0  0  0  1  0  0  0  0  0  0  0  0
    1.7817    2.5450   -1.0627 C   0  0  0  1  0  0  0  0  0  0  0  0
   -1.2019   -0.0726    1.7622 C   0  0  0  1  0  0  0  0  0  0  0  0
    3.1872    2.8180   -1.5620 C   0  0  0  1  0  0  0  0  0  0  0  0
    1.4785    2.7250    0.1058 O   0  0  0  1  0  0  0  0  0  0  0  0
   -2.0916    1.0481    0.2240 H   0  0  0  1  0  0  0  0  0  0  0  0
   -0.9198    0.6299    2.5184 H   0  0  0  1  0  0  0  0  0  0  0  0
   -0.4811   -0.8624    1.7227 H   0  0  0  1  0  0  0  0  0  0  0  0
   -2.1643   -0.4786    1.9942 H   0  0  0  1  0  0  0  0  0  0  0  0
    3.4220    3.8522   -1.4202 H   0  0  0  1  0  0  0  0  0  0  0  0
    3.2486    2.5780   -2.6029 H   0  0  0  1  0  0  0  0  0  0  0  0
    3.8828    2.2164   -1.0151 H   0  0  0  1  0  0  0  0  0  0  0  0
   -6.0661    1.3131   -0.9535 F   0  0  0  1  0  0  0  0  0  0  0  0
   -5.0724    1.8670   -1.6743 C   0  0  0  1  0  0  0  0  0  0  0  0
   -5.3131    2.2992   -2.9692 C   0  0  0  1  0  0  0  0  0  0  0  0
   -4.2921    2.8627   -3.7109 C   0  0  0  1  0  0  0  0  0  0  0  0
   -3.0285    3.0006   -3.1579 C   0  0  0  1  0  0  0  0  0  0  0  0
   -2.7882    2.5698   -1.8668 C   0  0  0  1  0  0  0  0  0  0  0  0
   -3.8124    2.0046   -1.1230 C   0  0  0  1  0  0  0  0  0  0  0  0
   -1.3620    2.7421   -1.3034 C   0  0  0  1  0  0  0  0  0  0  0  0
   -4.5678    3.2643   -4.9665 F   0  0  0  1  0  0  0  0  0  0  0  0
   -6.2621    2.1994   -3.3827 H   0  0  0  1  0  0  0  0  0  0  0  0
   -2.2612    3.4283   -3.7145 H   0  0  0  1  0  0  0  0  0  0  0  0
   -3.6328    1.6840   -0.1501 H   0  0  0  1  0  0  0  0  0  0  0  0
   -0.9401    3.6244   -1.7374 H   0  0  0  1  0  0  0  0  0  0  0  0
   -1.4386    2.8669   -0.2435 H   0  0  0  1  0  0  0  0  0  0  0  0
  1  4  1  0  0  0  0
  2  4  1  0  0  0  0
  2  5  2  0  0  0  0
  2  6  1  0  0  0  0
  3  4  1  0  0  0  0
  3  7  1  0  0  0  0
  3  8  1  0  0  0  0
  4 26  1  0  0  0  0
  6  9  1  0  0  0  0
  6 12  1  0  0  0  0
  8 10  1  0  0  0  0
  8 11  2  0  0  0  0
  9 13  1  0  0  0  0
  9 14  1  0  0  0  0
  9 15  1  0  0  0  0
 10 16  1  0  0  0  0
 10 17  1  0  0  0  0
 10 18  1  0  0  0  0
 19 20  1  0  0  0  0
 20 21  4  0  0  0  0
 20 25  4  0  0  0  0
 21 22  4  0  0  0  0
 21 28  1  0  0  0  0
 22 23  4  0  0  0  0
 22 27  1  0  0  0  0
 23 24  4  0  0  0  0
 23 29  1  0  0  0  0
 24 25  4  0  0  0  0
 24 26  1  0  0  0  0
 25 30  1  0  0  0  0
 26 31  1  0  0  0  0
 26 32  1  0  0  0  0
M  END
> <BCLConfClusterSize>
1

> <ConfClashScore>
0 

> <ConfOneFourInteractionScore>
-0.926255 

> <ConfScore>
0.415935 

> <ConfScorePBest>
0.00339084 

> <ConfTolerance>
0.403223 

> <RosettaParamsInstructions>
M  ROOT 3
M  POLY_N_BB 3
M  POLY_CA_BB 4
M  POLY_C_BB 2
M  POLY_O_BB 5
M  POLY_IGNORE 9 10 11 12 13 14 15 16 17 18 
M  POLY_UPPER 6
M  POLY_LOWER 8
M  POLY_CHG 0
M  POLY_PROPERTIES ALPHA_AA D_AA PROTEIN AROMATIC POLYMER 
M  END

$$$$



 32 32  0  0  0  0  0  0  0  0999 V2000
   -1.0704    4.3358   -2.6317 H   0  0  0  1  0  0  0  0  0  0  0  0
    0.2299    2.7363   -3.1410 C   0  0  0  1  0  0  0  0  0  0  0  0
    0.4837    4.2579   -1.2512 N   0  0  0  1  0  0  0  0  0  0  0  0
   -0.4822    3.6026   -2.1204 C   0  0  0  1  0  0  0  0  0  0  0  0
    1.3809    2.9914   -3.4916 O   0  0  0  1  0  0  0  0  0  0  0  0
   -0.4329    1.6850   -3.6487 N   0  0  0  1  0  0  0  0  0  0  0  0
    0.5801    3.9421   -0.3285 H   0  0  0  1  0  0  0  0  0  0  0  0
    1.2435    5.2749   -1.6674 C   0  0  0  1  0  0  0  0  0  0  0  0
    0.1406    0.8260   -4.6739 C   0  0  0  1  0  0  0  0  0  0  0  0
    2.1820    5.8629   -0.6317 C   0  0  0  1  0  0  0  0  0  0  0  0
    1.1984    5.7195   -2.8137 O   0  0  0  1  0  0  0  0  0  0  0  0
   -1.3342    1.4893   -3.3175 H   0  0  0  1  0  0  0  0  0  0  0  0
    0.8200    0.1343   -4.2213 H   0  0  0  1  0  0  0  0  0  0  0  0
    0.6652    1.4252   -5.3885 H   0  0  0  1  0  0  0  0  0  0  0  0
   -0.6420    0.2869   -5.1658 H   0  0  0  1  0  0  0  0  0  0  0  0
    2.3865    5.1309    0.1215 H   0  0  0  1  0  0  0  0  0  0  0  0
    1.7248    6.7192   -0.1817 H   0  0  0  1  0  0  0  0  0  0  0  0
    3.0971    6.1534   -1.1041 H   0  0  0  1  0  0  0  0  0  0  0  0
   -6.0335    1.3084   -0.9179 F   0  0  0  1  0  0  0  0  0  0  0  0
   -5.0716    1.8680   -1.6765 C   0  0  0  1  0  0  0  0  0  0  0  0
   -5.3166    2.2989   -2.9710 C   0  0  0  1  0  0  0  0  0  0  0  0
   -4.2984    2.8630   -3.7161 C   0  0  0  1  0  0  0  0  0  0  0  0
   -3.0333    3.0028   -3.1670 C   0  0  0  1  0  0  0  0  0  0  0  0
   -2.7888    2.5732   -1.8762 C   0  0  0  1  0  0  0  0  0  0  0  0
   -3.8102    2.0074   -1.1290 C   0  0  0  1  0  0  0  0  0  0  0  0
   -1.4091    2.7199   -1.2793 C   0  0  0  1  0  0  0  0  0  0  0  0
   -4.5352    3.2769   -4.9757 F   0  0  0  1  0  0  0  0  0  0  0  0
   -6.2667    2.1977   -3.3816 H   0  0  0  1  0  0  0  0  0  0  0  0
   -2.2681    3.4309   -3.7262 H   0  0  0  1  0  0  0  0  0  0  0  0
   -3.6273    1.6879   -0.1564 H   0  0  0  1  0  0  0  0  0  0  0  0
   -1.5034    3.1551   -0.3064 H   0  0  0  1  0  0  0  0  0  0  0  0
   -0.9695    1.7480   -1.1947 H   0  0  0  1  0  0  0  0  0  0  0  0
  1  4  1  0  0  0  0
  2  4  1  0  0  0  0
  2  5  2  0  0  0  0
  2  6  1  0  0  0  0
  3  4  1  0  0  0  0
  3  7  1  0  0  0  0
  3  8  1  0  0  0  0
  4 26  1  0  0  0  0
  6  9  1  0  0  0  0
  6 12  1  0  0  0  0
  8 10  1  0  0  0  0
  8 11  2  0  0  0  0
  9 13  1  0  0  0  0
  9 14  1  0  0  0  0
  9 15  1  0  0  0  0
 10 16  1  0  0  0  0
 10 17  1  0  0  0  0
 10 18  1  0  0  0  0
 19 20  1  0  0  0  0
 20 21  4  0  0  0  0
 20 25  4  0  0  0  0
 21 22  4  0  0  0  0
 21 28  1  0  0  0  0
 22 23  4  0  0  0  0
 22 27  1  0  0  0  0
 23 24  4  0  0  0  0
 23 29  1  0  0  0  0
 24 25  4  0  0  0  0
 24 26  1  0  0  0  0
 25 30  1  0  0  0  0
 26 31  1  0  0  0  0
 26 32  1  0  0  0  0
M  END
> <BCLConfClusterSize>
1

> <ConfClashScore>
0 

> <ConfOneFourInteractionScore>
-0.939929 

> <ConfScore>
0.419956 

> <ConfScorePBest>
0.00336236 

> <ConfTolerance>
0.688866 

> <RosettaParamsInstructions>
M  ROOT 3
M  POLY_N_BB 3
M  POLY_CA_BB 4
M  POLY_C_BB 2
M  POLY_O_BB 5
M  POLY_IGNORE 9 10 11 12 13 14 15 16 17 18 
M  POLY_UPPER 6
M  POLY_LOWER 8
M  POLY_CHG 0
M  POLY_PROPERTIES ALPHA_AA D_AA PROTEIN AROMATIC POLYMER 
M  END

$$$$



 32 32  0  0  0  0  0  0  0  0999 V2000
   -0.2489    1.8019   -2.7687 H   0  0  0  1  0  0  0  0  0  0  0  0
   -0.7420    0.2995   -1.3731 C   0  0  0  1  0  0  0  0  0  0  0  0
    0.8983    2.1578   -1.0797 N   0  0  0  1  0  0  0  0  0  0  0  0
   -0.3539    1.7269   -1.7065 C   0  0  0  1  0  0  0  0  0  0  0  0
   -1.8369   -0.1549   -1.6943 O   0  0  0  1  0  0  0  0  0  0  0  0
    0.1818   -0.4171   -0.7135 N   0  0  0  1  0  0  0  0  0  0  0  0
    1.6983    2.1951   -1.6445 H   0  0  0  1  0  0  0  0  0  0  0  0
    1.0322    2.5052    0.2093 C   0  0  0  1  0  0  0  0  0  0  0  0
    0.0264   -1.7463   -0.1416 C   0  0  0  1  0  0  0  0  0  0  0  0
    2.3898    3.0721    0.6043 C   0  0  0  1  0  0  0  0  0  0  0  0
    0.1279    2.3813    1.0338 O   0  0  0  1  0  0  0  0  0  0  0  0
    1.0607    0.0025   -0.6046 H   0  0  0  1  0  0  0  0  0  0  0  0
   -0.5988   -2.3378   -0.7773 H   0  0  0  1  0  0  0  0  0  0  0  0
   -0.4224   -1.6676    0.8265 H   0  0  0  1  0  0  0  0  0  0  0  0
    0.9863   -2.2109   -0.0536 H   0  0  0  1  0  0  0  0  0  0  0  0
    3.1399    2.6994   -0.0616 H   0  0  0  1  0  0  0  0  0  0  0  0
    2.6226    2.7748    1.6055 H   0  0  0  1  0  0  0  0  0  0  0  0
    2.3607    4.1401    0.5464 H   0  0  0  1  0  0  0  0  0  0  0  0
   -6.0335    1.3084   -0.9179 F   0  0  0  1  0  0  0  0  0  0  0  0
   -5.0716    1.8680   -1.6765 C   0  0  0  1  0  0  0  0  0  0  0  0
   -5.3166    2.2989   -2.9710 C   0  0  0  1  0  0  0  0  0  0  0  0
   -4.2984    2.8630   -3.7161 C   0  0  0  1  0  0  0  0  0  0  0  0
   -3.0333    3.0028   -3.1670 C   0  0  0  1  0  0  0  0  0  0  0  0
   -2.7888    2.5732   -1.8762 C   0  0  0  1  0  0  0  0  0  0  0  0
   -3.8102    2.0074   -1.1290 C   0  0  0  1  0  0  0  0  0  0  0  0
   -1.4091    2.7199   -1.2793 C   0  0  0  1  0  0  0  0  0  0  0  0
   -4.5352    3.2769   -4.9757 F   0  0  0  1  0  0  0  0  0  0  0  0
   -6.2667    2.1977   -3.3816 H   0  0  0  1  0  0  0  0  0  0  0  0
   -2.2681    3.4309   -3.7262 H   0  0  0  1  0  0  0  0  0  0  0  0
   -3.6273    1.6879   -0.1564 H   0  0  0  1  0  0  0  0  0  0  0  0
   -1.0521    3.6959   -1.5341 H   0  0  0  1  0  0  0  0  0  0  0  0
   -1.5100    2.6426   -0.2169 H   0  0  0  1  0  0  0  0  0  0  0  0
  1  4  1  0  0  0  0
  2  4  1  0  0  0  0
  2  5  2  0  0  0  0
  2  6  1  0  0  0  0
  3  4  1  0  0  0  0
  3  7  1  0  0  0  0
  3  8  1  0  0  0  0
  4 26  1  0  0  0  0
  6  9  1  0  0  0  0
  6 12  1  0  0  0  0
  8 10  1  0  0  0  0
  8 11  2  0  0  0  0
  9 13  1  0  0  0  0
  9 14  1  0  0  0  0
  9 15  1  0  0  0  0
 10 16  1  0  0  0  0
 10 17  1  0  0  0  0
 10 18  1  0  0  0  0
 19 20  1  0  0  0  0
 20 21  4  0  0  0  0
 20 25  4  0  0  0  0
 21 22  4  0  0  0  0
 21 28  1  0  0  0  0
 22 23  4  0  0  0  0
 22 27  1  0  0  0  0
 23 24  4  0  0  0  0
 23 29  1  0  0  0  0
 24 25  4  0  0  0  0
 24 26  1  0  0  0  0
 25 30  1  0  0  0  0
 26 31  1  0  0  0  0
 26 32  1  0  0  0  0
M  END
> <BCLConfClusterSize>
1

> <ConfClashScore>
0 

> <ConfOneFourInteractionScore>
-0.958711 

> <ConfScore>
0.420021 

> <ConfScorePBest>
0.00333388 

> <ConfTolerance>
0.559596 

> <RosettaParamsInstructions>
M  ROOT 3
M  POLY_N_BB 3
M  POLY_CA_BB 4
M  POLY_C_BB 2
M  POLY_O_BB 5
M  POLY_IGNORE 9 10 11 12 13 14 15 16 17 18 
M  POLY_UPPER 6
M  POLY_LOWER 8
M  POLY_CHG 0
M  POLY_PROPERTIES ALPHA_AA D_AA PROTEIN AROMATIC POLYMER 
M  END

$$$$



 32 32  0  0  0  0  0  0  0  0999 V2000
   -0.5813    3.8581   -2.8820 H   0  0  0  1  0  0  0  0  0  0  0  0
   -0.2407    1.8230   -3.2801 C   0  0  0  1  0  0  0  0  0  0  0  0
    0.9564    3.2438   -1.6600 N   0  0  0  1  0  0  0  0  0  0  0  0
   -0.3182    2.9898   -2.3148 C   0  0  0  1  0  0  0  0  0  0  0  0
    0.1691    0.7311   -2.9219 O   0  0  0  1  0  0  0  0  0  0  0  0
   -0.6484    2.0753   -4.5340 N   0  0  0  1  0  0  0  0  0  0  0  0
    0.9631    3.4497   -0.7019 H   0  0  0  1  0  0  0  0  0  0  0  0
    2.1176    3.2059   -2.3196 C   0  0  0  1  0  0  0  0  0  0  0  0
   -0.6259    1.0614   -5.5776 C   0  0  0  1  0  0  0  0  0  0  0  0
    3.3410    3.6170   -1.5236 C   0  0  0  1  0  0  0  0  0  0  0  0
    2.2074    2.8651   -3.4876 O   0  0  0  1  0  0  0  0  0  0  0  0
   -0.9725    2.9736   -4.7542 H   0  0  0  1  0  0  0  0  0  0  0  0
    0.3810    0.7379   -5.7398 H   0  0  0  1  0  0  0  0  0  0  0  0
   -1.0181    1.4738   -6.4838 H   0  0  0  1  0  0  0  0  0  0  0  0
   -1.2243    0.2269   -5.2768 H   0  0  0  1  0  0  0  0  0  0  0  0
    3.4118    3.0157   -0.6414 H   0  0  0  1  0  0  0  0  0  0  0  0
    3.2566    4.6472   -1.2470 H   0  0  0  1  0  0  0  0  0  0  0  0
    4.2179    3.4783   -2.1208 H   0  0  0  1  0  0  0  0  0  0  0  0
   -6.0589    1.3180   -0.9427 F   0  0  0  1  0  0  0  0  0  0  0  0
   -5.0676    1.8663   -1.6711 C   0  0  0  1  0  0  0  0  0  0  0  0
   -5.3167    2.3031   -2.9629 C   0  0  0  1  0  0  0  0  0  0  0  0
   -4.2982    2.8609   -3.7124 C   0  0  0  1  0  0  0  0  0  0  0  0
   -3.0288    2.9884   -3.1703 C   0  0  0  1  0  0  0  0  0  0  0  0
   -2.7802    2.5530   -1.8823 C   0  0  0  1  0  0  0  0  0  0  0  0
   -3.8019    1.9935   -1.1307 C   0  0  0  1  0  0  0  0  0  0  0  0
   -1.4181    2.7792   -1.2701 C   0  0  0  1  0  0  0  0  0  0  0  0
   -4.5390    3.2805   -4.9693 F   0  0  0  1  0  0  0  0  0  0  0  0
   -6.2700    2.2110   -3.3681 H   0  0  0  1  0  0  0  0  0  0  0  0
   -2.2634    3.4118   -3.7328 H   0  0  0  1  0  0  0  0  0  0  0  0
   -3.6159    1.6695   -0.1601 H   0  0  0  1  0  0  0  0  0  0  0  0
   -1.4652    3.6467   -0.6456 H   0  0  0  1  0  0  0  0  0  0  0  0
   -1.1653    1.9253   -0.6768 H   0  0  0  1  0  0  0  0  0  0  0  0
  1  4  1  0  0  0  0
  2  4  1  0  0  0  0
  2  5  2  0  0  0  0
  2  6  1  0  0  0  0
  3  4  1  0  0  0  0
  3  7  1  0  0  0  0
  3  8  1  0  0  0  0
  4 26  1  0  0  0  0
  6  9  1  0  0  0  0
  6 12  1  0  0  0  0
  8 10  1  0  0  0  0
  8 11  2  0  0  0  0
  9 13  1  0  0  0  0
  9 14  1  0  0  0  0
  9 15  1  0  0  0  0
 10 16  1  0  0  0  0
 10 17  1  0  0  0  0
 10 18  1  0  0  0  0
 19 20  1  0  0  0  0
 20 21  4  0  0  0  0
 20 25  4  0  0  0  0
 21 22  4  0  0  0  0
 21 28  1  0  0  0  0
 22 23  4  0  0  0  0
 22 27  1  0  0  0  0
 23 24  4  0  0  0  0
 23 29  1  0  0  0  0
 24 25  4  0  0  0  0
 24 26  1  0  0  0  0
 25 30  1  0  0  0  0
 26 31  1  0  0  0  0
 26 32  1  0  0  0  0
M  END
> <BCLConfClusterSize>
1

> <ConfClashScore>
0 

> <ConfOneFourInteractionScore>
-0.978366 

> <ConfScore>
0.421808 

> <ConfScorePBest>
0.0033054 

> <ConfTolerance>
0.821357 

> <RosettaParamsInstructions>
M  ROOT 3
M  POLY_N_BB 3
M  POLY_CA_BB 4
M  POLY_C_BB 2
M  POLY_O_BB 5
M  POLY_IGNORE 9 10 11 12 13 14 15 16 17 18 
M  POLY_UPPER 6
M  POLY_LOWER 8
M  POLY_CHG 0
M  POLY_PROPERTIES ALPHA_AA D_AA PROTEIN AROMATIC POLYMER 
M  END

$$$$



 32 32  0  0  0  0  0  0  0  0999 V2000
   -1.3757    4.8321   -1.2611 H   0  0  0  1  0  0  0  0  0  0  0  0
    0.2518    4.1510   -0.0968 C   0  0  0  1  0  0  0  0  0  0  0  0
   -2.1950    4.1528    0.5030 N   0  0  0  1  0  0  0  0  0  0  0  0
   -1.2032    4.0468   -0.5550 C   0  0  0  1  0  0  0  0  0  0  0  0
    1.1220    4.5365   -0.8760 O   0  0  0  1  0  0  0  0  0  0  0  0
    0.5331    3.7238    1.1351 N   0  0  0  1  0  0  0  0  0  0  0  0
   -2.7189    4.9751    0.6016 H   0  0  0  1  0  0  0  0  0  0  0  0
   -2.3953    3.1228    1.3481 C   0  0  0  1  0  0  0  0  0  0  0  0
    1.8992    3.5941    1.6199 C   0  0  0  1  0  0  0  0  0  0  0  0
   -3.5077    3.3639    2.3499 C   0  0  0  1  0  0  0  0  0  0  0  0
   -1.7550    2.0723    1.3359 O   0  0  0  1  0  0  0  0  0  0  0  0
   -0.2057    3.4891    1.7346 H   0  0  0  1  0  0  0  0  0  0  0  0
    2.4919    4.3985    1.2371 H   0  0  0  1  0  0  0  0  0  0  0  0
    2.3076    2.6619    1.2896 H   0  0  0  1  0  0  0  0  0  0  0  0
    1.9024    3.6266    2.6894 H   0  0  0  1  0  0  0  0  0  0  0  0
   -4.3305    2.7151    2.1331 H   0  0  0  1  0  0  0  0  0  0  0  0
   -3.8303    4.3821    2.2861 H   0  0  0  1  0  0  0  0  0  0  0  0
   -3.1473    3.1647    3.3375 H   0  0  0  1  0  0  0  0  0  0  0  0
   -6.0778    1.3168   -0.9716 F   0  0  0  1  0  0  0  0  0  0  0  0
   -5.0627    1.8663   -1.6656 C   0  0  0  1  0  0  0  0  0  0  0  0
   -5.3139    2.2953   -2.9596 C   0  0  0  1  0  0  0  0  0  0  0  0
   -4.2999    2.8601   -3.7097 C   0  0  0  1  0  0  0  0  0  0  0  0
   -3.0327    3.0026   -3.1661 C   0  0  0  1  0  0  0  0  0  0  0  0
   -2.7819    2.5750   -1.8759 C   0  0  0  1  0  0  0  0  0  0  0  0
   -3.7992    2.0085   -1.1237 C   0  0  0  1  0  0  0  0  0  0  0  0
   -1.3999    2.7247   -1.2851 C   0  0  0  1  0  0  0  0  0  0  0  0
   -4.5428    3.2721   -4.9688 F   0  0  0  1  0  0  0  0  0  0  0  0
   -6.2657    2.1920   -3.3660 H   0  0  0  1  0  0  0  0  0  0  0  0
   -2.2706    3.4313   -3.7292 H   0  0  0  1  0  0  0  0  0  0  0  0
   -3.6116    1.6903   -0.1515 H   0  0  0  1  0  0  0  0  0  0  0  0
   -1.2373    1.9256   -0.5923 H   0  0  0  1  0  0  0  0  0  0  0  0
   -0.6826    2.6627   -2.0766 H   0  0  0  1  0  0  0  0  0  0  0  0
  1  4  1  0  0  0  0
  2  4  1  0  0  0  0
  2  5  2  0  0  0  0
  2  6  1  0  0  0  0
  3  4  1  0  0  0  0
  3  7  1  0  0  0  0
  3  8  1  0  0  0  0
  4 26  1  0  0  0  0
  6  9  1  0  0  0  0
  6 12  1  0  0  0  0
  8 10  1  0  0  0  0
  8 11  2  0  0  0  0
  9 13  1  0  0  0  0
  9 14  1  0  0  0  0
  9 15  1  0  0  0  0
 10 16  1  0  0  0  0
 10 17  1  0  0  0  0
 10 18  1  0  0  0  0
 19 20  1  0  0  0  0
 20 21  4  0  0  0  0
 20 25  4  0  0  0  0
 21 22  4  0  0  0  0
 21 28  1  0  0  0  0
 22 23  4  0  0  0  0
 22 27  1  0  0  0  0
 23 24  4  0  0  0  0
 23 29  1  0  0  0  0
 24 25  4  0  0  0  0
 24 26  1  0  0  0  0
 25 30  1  0  0  0  0
 26 31  1  0  0  0  0
 26 32  1  0  0  0  0
M  END
> <BCLConfClusterSize>
1

> <ConfClashScore>
0.000517388 

> <ConfOneFourInteractionScore>
-0.958711 

> <ConfScore>
0.424035 

> <ConfScorePBest>
0.00327691 

> <ConfTolerance>
0.568463 

> <RosettaParamsInstructions>
M  ROOT 3
M  POLY_N_BB 3
M  POLY_CA_BB 4
M  POLY_C_BB 2
M  POLY_O_BB 5
M  POLY_IGNORE 9 10 11 12 13 14 15 16 17 18 
M  POLY_UPPER 6
M  POLY_LOWER 8
M  POLY_CHG 0
M  POLY_PROPERTIES ALPHA_AA D_AA PROTEIN AROMATIC POLYMER 
M  END

$$$$



 32 32  0  0  0  0  0  0  0  0999 V2000
   -1.6144    3.9789    0.3432 H   0  0  0  1  0  0  0  0  0  0  0  0
   -1.6958    5.2582   -1.3309 C   0  0  0  1  0  0  0  0  0  0  0  0
    0.3109    4.1296   -0.3882 N   0  0  0  1  0  0  0  0  0  0  0  0
   -1.1261    4.0545   -0.6058 C   0  0  0  1  0  0  0  0  0  0  0  0
   -1.4794    5.4441   -2.5276 O   0  0  0  1  0  0  0  0  0  0  0  0
   -2.4397    6.0902   -0.5848 N   0  0  0  1  0  0  0  0  0  0  0  0
    0.6721    3.8610    0.4823 H   0  0  0  1  0  0  0  0  0  0  0  0
    1.1549    4.5521   -1.3339 C   0  0  0  1  0  0  0  0  0  0  0  0
   -3.1282    7.2391   -1.1537 C   0  0  0  1  0  0  0  0  0  0  0  0
    2.6473    4.4379   -1.0121 C   0  0  0  1  0  0  0  0  0  0  0  0
    0.8407    5.0152   -2.4180 O   0  0  0  1  0  0  0  0  0  0  0  0
   -2.5219    5.9178    0.3764 H   0  0  0  1  0  0  0  0  0  0  0  0
   -2.9578    7.2708   -2.2096 H   0  0  0  1  0  0  0  0  0  0  0  0
   -2.7551    8.1362   -0.7054 H   0  0  0  1  0  0  0  0  0  0  0  0
   -4.1780    7.1552   -0.9645 H   0  0  0  1  0  0  0  0  0  0  0  0
    2.8750    3.4324   -0.7257 H   0  0  0  1  0  0  0  0  0  0  0  0
    2.8904    5.1011   -0.2084 H   0  0  0  1  0  0  0  0  0  0  0  0
    3.2196    4.7003   -1.8773 H   0  0  0  1  0  0  0  0  0  0  0  0
   -6.0697    1.3106   -0.9495 F   0  0  0  1  0  0  0  0  0  0  0  0
   -5.0754    1.8644   -1.6696 C   0  0  0  1  0  0  0  0  0  0  0  0
   -5.3151    2.2968   -2.9646 C   0  0  0  1  0  0  0  0  0  0  0  0
   -4.2935    2.8602   -3.7055 C   0  0  0  1  0  0  0  0  0  0  0  0
   -3.0303    2.9977   -3.1516 C   0  0  0  1  0  0  0  0  0  0  0  0
   -2.7909    2.5666   -1.8605 C   0  0  0  1  0  0  0  0  0  0  0  0
   -3.8157    2.0015   -1.1175 C   0  0  0  1  0  0  0  0  0  0  0  0
   -1.3795    2.7582   -1.3578 C   0  0  0  1  0  0  0  0  0  0  0  0
   -4.5253    3.2756   -4.9655 F   0  0  0  1  0  0  0  0  0  0  0  0
   -6.2639    2.1973   -3.3787 H   0  0  0  1  0  0  0  0  0  0  0  0
   -2.2625    3.4253   -3.7077 H   0  0  0  1  0  0  0  0  0  0  0  0
   -3.6368    1.6807   -0.1445 H   0  0  0  1  0  0  0  0  0  0  0  0
   -1.1498    1.9453   -0.7010 H   0  0  0  1  0  0  0  0  0  0  0  0
   -0.7222    2.7322   -2.2017 H   0  0  0  1  0  0  0  0  0  0  0  0
  1  4  1  0  0  0  0
  2  4  1  0  0  0  0
  2  5  2  0  0  0  0
  2  6  1  0  0  0  0
  3  4  1  0  0  0  0
  3  7  1  0  0  0  0
  3  8  1  0  0  0  0
  4 26  1  0  0  0  0
  6  9  1  0  0  0  0
  6 12  1  0  0  0  0
  8 10  1  0  0  0  0
  8 11  2  0  0  0  0
  9 13  1  0  0  0  0
  9 14  1  0  0  0  0
  9 15  1  0  0  0  0
 10 16  1  0  0  0  0
 10 17  1  0  0  0  0
 10 18  1  0  0  0  0
 19 20  1  0  0  0  0
 20 21  4  0  0  0  0
 20 25  4  0  0  0  0
 21 22  4  0  0  0  0
 21 28  1  0  0  0  0
 22 23  4  0  0  0  0
 22 27  1  0  0  0  0
 23 24  4  0  0  0  0
 23 29  1  0  0  0  0
 24 25  4  0  0  0  0
 24 26  1  0  0  0  0
 25 30  1  0  0  0  0
 26 31  1  0  0  0  0
 26 32  1  0  0  0  0
M  END
> <BCLConfClusterSize>
1

> <ConfClashScore>
0 

> <ConfOneFourInteractionScore>
-0.976539 

> <ConfScore>
0.425966 

> <ConfScorePBest>
0.00324843 

> <ConfTolerance>
0.718663 

> <RosettaParamsInstructions>
M  ROOT 3
M  POLY_N_BB 3
M  POLY_CA_BB 4
M  POLY_C_BB 2
M  POLY_O_BB 5
M  POLY_IGNORE 9 10 11 12 13 14 15 16 17 18 
M  POLY_UPPER 6
M  POLY_LOWER 8
M  POLY_CHG 0
M  POLY_PROPERTIES ALPHA_AA D_AA PROTEIN AROMATIC POLYMER 
M  END

$$$$



 32 32  0  0  0  0  0  0  0  0999 V2000
   -0.2727    1.7035   -2.7464 H   0  0  0  1  0  0  0  0  0  0  0  0
   -1.0718    0.2327   -1.4745 C   0  0  0  1  0  0  0  0  0  0  0  0
    0.8221    1.7390   -1.0053 N   0  0  0  1  0  0  0  0  0  0  0  0
   -0.4496    1.5988   -1.6964 C   0  0  0  1  0  0  0  0  0  0  0  0
   -0.7793   -0.7364   -2.1555 O   0  0  0  1  0  0  0  0  0  0  0  0
   -1.9729    0.0802   -0.4999 N   0  0  0  1  0  0  0  0  0  0  0  0
    0.8581    1.6691   -0.0284 H   0  0  0  1  0  0  0  0  0  0  0  0
    1.9464    1.9639   -1.7022 C   0  0  0  1  0  0  0  0  0  0  0  0
   -2.6946   -1.1671   -0.2967 C   0  0  0  1  0  0  0  0  0  0  0  0
    3.2140    2.1006   -0.8814 C   0  0  0  1  0  0  0  0  0  0  0  0
    1.9670    2.0561   -2.9267 O   0  0  0  1  0  0  0  0  0  0  0  0
   -2.1542    0.8344    0.0989 H   0  0  0  1  0  0  0  0  0  0  0  0
   -2.0052   -1.9853   -0.3123 H   0  0  0  1  0  0  0  0  0  0  0  0
   -3.4152   -1.2933   -1.0776 H   0  0  0  1  0  0  0  0  0  0  0  0
   -3.1941   -1.1399    0.6492 H   0  0  0  1  0  0  0  0  0  0  0  0
    3.3552    1.2184   -0.2926 H   0  0  0  1  0  0  0  0  0  0  0  0
    3.1309    2.9502   -0.2362 H   0  0  0  1  0  0  0  0  0  0  0  0
    4.0504    2.2298   -1.5361 H   0  0  0  1  0  0  0  0  0  0  0  0
   -6.0561    1.3124   -0.9444 F   0  0  0  1  0  0  0  0  0  0  0  0
   -5.0671    1.8672   -1.6711 C   0  0  0  1  0  0  0  0  0  0  0  0
   -5.3152    2.2971   -2.9653 C   0  0  0  1  0  0  0  0  0  0  0  0
   -4.2991    2.8616   -3.7130 C   0  0  0  1  0  0  0  0  0  0  0  0
   -3.0330    3.0027   -3.1666 C   0  0  0  1  0  0  0  0  0  0  0  0
   -2.7853    2.5741   -1.8761 C   0  0  0  1  0  0  0  0  0  0  0  0
   -3.8046    2.0080   -1.1264 C   0  0  0  1  0  0  0  0  0  0  0  0
   -1.4045    2.7223   -1.2822 C   0  0  0  1  0  0  0  0  0  0  0  0
   -4.5390    3.2745   -4.9723 F   0  0  0  1  0  0  0  0  0  0  0  0
   -6.2661    2.1949   -3.3738 H   0  0  0  1  0  0  0  0  0  0  0  0
   -2.2693    3.4311   -3.7277 H   0  0  0  1  0  0  0  0  0  0  0  0
   -3.6194    1.6891   -0.1540 H   0  0  0  1  0  0  0  0  0  0  0  0
   -0.9930    3.6555   -1.6057 H   0  0  0  1  0  0  0  0  0  0  0  0
   -1.4904    2.7204   -0.2157 H   0  0  0  1  0  0  0  0  0  0  0  0
  1  4  1  0  0  0  0
  2  4  1  0  0  0  0
  2  5  2  0  0  0  0
  2  6  1  0  0  0  0
  3  4  1  0  0  0  0
  3  7  1  0  0  0  0
  3  8  1  0  0  0  0
  4 26  1  0  0  0  0
  6  9  1  0  0  0  0
  6 12  1  0  0  0  0
  8 10  1  0  0  0  0
  8 11  2  0  0  0  0
  9 13  1  0  0  0  0
  9 14  1  0  0  0  0
  9 15  1  0  0  0  0
 10 16  1  0  0  0  0
 10 17  1  0  0  0  0
 10 18  1  0  0  0  0
 19 20  1  0  0  0  0
 20 21  4  0  0  0  0
 20 25  4  0  0  0  0
 21 22  4  0  0  0  0
 21 28  1  0  0  0  0
 22 23  4  0  0  0  0
 22 27  1  0  0  0  0
 23 24  4  0  0  0  0
 23 29  1  0  0  0  0
 24 25  4  0  0  0  0
 24 26  1  0  0  0  0
 25 30  1  0  0  0  0
 26 31  1  0  0  0  0
 26 32  1  0  0  0  0
M  END
> <BCLConfClusterSize>
1

> <ConfClashScore>
0 

> <ConfOneFourInteractionScore>
-0.952541 

> <ConfScore>
0.426174 

> <ConfScorePBest>
0.00321995 

> <ConfTolerance>
0.867178 

> <RosettaParamsInstructions>
M  ROOT 3
M  POLY_N_BB 3
M  POLY_CA_BB 4
M  POLY_C_BB 2
M  POLY_O_BB 5
M  POLY_IGNORE 9 10 11 12 13 14 15 16 17 18 
M  POLY_UPPER 6
M  POLY_LOWER 8
M  POLY_CHG 0
M  POLY_PROPERTIES ALPHA_AA D_AA PROTEIN AROMATIC POLYMER 
M  END

$$$$



 32 32  0  0  0  0  0  0  0  0999 V2000
    0.3017    1.6705   -0.6233 H   0  0  0  1  0  0  0  0  0  0  0  0
   -0.5150    0.4997   -2.1709 C   0  0  0  1  0  0  0  0  0  0  0  0
   -1.3728    0.6978    0.1042 N   0  0  0  1  0  0  0  0  0  0  0  0
   -0.6788    1.4203   -0.9712 C   0  0  0  1  0  0  0  0  0  0  0  0
   -0.5757    0.9290   -3.3113 O   0  0  0  1  0  0  0  0  0  0  0  0
   -0.3027   -0.7952   -1.8877 N   0  0  0  1  0  0  0  0  0  0  0  0
   -1.1423    0.9297    1.0281 H   0  0  0  1  0  0  0  0  0  0  0  0
   -2.2927   -0.2499   -0.0825 C   0  0  0  1  0  0  0  0  0  0  0  0
   -0.0413   -1.7846   -2.9225 C   0  0  0  1  0  0  0  0  0  0  0  0
   -2.8653   -0.8696    1.1774 C   0  0  0  1  0  0  0  0  0  0  0  0
   -2.6647   -0.6107   -1.1960 O   0  0  0  1  0  0  0  0  0  0  0  0
   -0.3246   -1.0844   -0.9516 H   0  0  0  1  0  0  0  0  0  0  0  0
    0.8796   -1.5516   -3.4149 H   0  0  0  1  0  0  0  0  0  0  0  0
   -0.8392   -1.7742   -3.6353 H   0  0  0  1  0  0  0  0  0  0  0  0
    0.0279   -2.7554   -2.4780 H   0  0  0  1  0  0  0  0  0  0  0  0
   -2.7833   -1.9349    1.1206 H   0  0  0  1  0  0  0  0  0  0  0  0
   -3.8953   -0.5960    1.2729 H   0  0  0  1  0  0  0  0  0  0  0  0
   -2.3213   -0.5151    2.0279 H   0  0  0  1  0  0  0  0  0  0  0  0
   -6.0782    1.3188   -0.9770 F   0  0  0  1  0  0  0  0  0  0  0  0
   -5.0612    1.8678   -1.6685 C   0  0  0  1  0  0  0  0  0  0  0  0
   -5.3093    2.2978   -2.9628 C   0  0  0  1  0  0  0  0  0  0  0  0
   -4.2932    2.8622   -3.7104 C   0  0  0  1  0  0  0  0  0  0  0  0
   -3.0271    3.0034   -3.1640 C   0  0  0  1  0  0  0  0  0  0  0  0
   -2.7794    2.5748   -1.8736 C   0  0  0  1  0  0  0  0  0  0  0  0
   -3.7987    2.0086   -1.1238 C   0  0  0  1  0  0  0  0  0  0  0  0
   -1.3985    2.7230   -1.2797 C   0  0  0  1  0  0  0  0  0  0  0  0
   -4.5761    3.2616   -4.9652 F   0  0  0  1  0  0  0  0  0  0  0  0
   -6.2602    2.1955   -3.3713 H   0  0  0  1  0  0  0  0  0  0  0  0
   -2.2634    3.4318   -3.7252 H   0  0  0  1  0  0  0  0  0  0  0  0
   -3.6135    1.6898   -0.1514 H   0  0  0  1  0  0  0  0  0  0  0  0
   -0.7988    3.2754   -1.9725 H   0  0  0  1  0  0  0  0  0  0  0  0
   -1.4892    3.2742   -0.3671 H   0  0  0  1  0  0  0  0  0  0  0  0
  1  4  1  0  0  0  0
  2  4  1  0  0  0  0
  2  5  2  0  0  0  0
  2  6  1  0  0  0  0
  3  4  1  0  0  0  0
  3  7  1  0  0  0  0
  3  8  1  0  0  0  0
  4 26  1  0  0  0  0
  6  9  1  0  0  0  0
  6 12  1  0  0  0  0
  8 10  1  0  0  0  0
  8 11  2  0  0  0  0
  9 13  1  0  0  0  0
  9 14  1  0  0  0  0
  9 15  1  0  0  0  0
 10 16  1  0  0  0  0
 10 17  1  0  0  0  0
 10 18  1  0  0  0  0
 19 20  1  0  0  0  0
 20 21  4  0  0  0  0
 20 25  4  0  0  0  0
 21 22  4  0  0  0  0
 21 28  1  0  0  0  0
 22 23  4  0  0  0  0
 22 27  1  0  0  0  0
 23 24  4  0  0  0  0
 23 29  1  0  0  0  0
 24 25  4  0  0  0  0
 24 26  1  0  0  0  0
 25 30  1  0  0  0  0
 26 31  1  0  0  0  0
 26 32  1  0  0  0  0
M  END
> <BCLConfClusterSize>
1

> <ConfClashScore>
0 

> <ConfOneFourInteractionScore>
-0.947651 

> <ConfScore>
0.426562 

> <ConfScorePBest>
0.00319147 

> <ConfTolerance>
0.619351 

> <RosettaParamsInstructions>
M  ROOT 3
M  POLY_N_BB 3
M  POLY_CA_BB 4
M  POLY_C_BB 2
M  POLY_O_BB 5
M  POLY_IGNORE 9 10 11 12 13 14 15 16 17 18 
M  POLY_UPPER 6
M  POLY_LOWER 8
M  POLY_CHG 0
M  POLY_PROPERTIES ALPHA_AA D_AA PROTEIN AROMATIC POLYMER 
M  END

$$$$



 32 32  0  0  0  0  0  0  0  0999 V2000
   -0.3711    1.1349   -0.3621 H   0  0  0  1  0  0  0  0  0  0  0  0
    0.7392    1.6556   -2.0792 C   0  0  0  1  0  0  0  0  0  0  0  0
   -1.4392    0.4383   -1.9958 N   0  0  0  1  0  0  0  0  0  0  0  0
   -0.5826    1.4449   -1.3642 C   0  0  0  1  0  0  0  0  0  0  0  0
    1.3028    0.7234   -2.6510 O   0  0  0  1  0  0  0  0  0  0  0  0
    1.2728    2.8866   -2.0686 N   0  0  0  1  0  0  0  0  0  0  0  0
   -2.1995    0.1204   -1.4655 H   0  0  0  1  0  0  0  0  0  0  0  0
   -1.3009   -0.0985   -3.2192 C   0  0  0  1  0  0  0  0  0  0  0  0
    2.5371    3.1907   -2.7194 C   0  0  0  1  0  0  0  0  0  0  0  0
   -2.3527   -1.1613   -3.5778 C   0  0  0  1  0  0  0  0  0  0  0  0
   -0.4718    0.2580   -4.0421 O   0  0  0  1  0  0  0  0  0  0  0  0
    0.7939    3.6057   -1.6061 H   0  0  0  1  0  0  0  0  0  0  0  0
    2.7340    2.4603   -3.4761 H   0  0  0  1  0  0  0  0  0  0  0  0
    3.3241    3.1742   -1.9947 H   0  0  0  1  0  0  0  0  0  0  0  0
    2.4834    4.1614   -3.1664 H   0  0  0  1  0  0  0  0  0  0  0  0
   -2.4636   -1.8438   -2.7612 H   0  0  0  1  0  0  0  0  0  0  0  0
   -2.0363   -1.6963   -4.4488 H   0  0  0  1  0  0  0  0  0  0  0  0
   -3.2900   -0.6836   -3.7729 H   0  0  0  1  0  0  0  0  0  0  0  0
   -6.0556    1.3105   -0.9392 F   0  0  0  1  0  0  0  0  0  0  0  0
   -5.0686    1.8657   -1.6683 C   0  0  0  1  0  0  0  0  0  0  0  0
   -5.3199    2.2947   -2.9622 C   0  0  0  1  0  0  0  0  0  0  0  0
   -4.3058    2.8595   -3.7124 C   0  0  0  1  0  0  0  0  0  0  0  0
   -3.0387    3.0020   -3.1688 C   0  0  0  1  0  0  0  0  0  0  0  0
   -2.7879    2.5744   -1.8786 C   0  0  0  1  0  0  0  0  0  0  0  0
   -3.8051    2.0078   -1.1264 C   0  0  0  1  0  0  0  0  0  0  0  0
   -1.4059    2.7240   -1.2878 C   0  0  0  1  0  0  0  0  0  0  0  0
   -4.5055    3.2847   -4.9747 F   0  0  0  1  0  0  0  0  0  0  0  0
   -6.2716    2.1914   -3.3686 H   0  0  0  1  0  0  0  0  0  0  0  0
   -2.2766    3.4307   -3.7318 H   0  0  0  1  0  0  0  0  0  0  0  0
   -3.6175    1.6897   -0.1541 H   0  0  0  1  0  0  0  0  0  0  0  0
   -0.8889    3.4941   -1.8213 H   0  0  0  1  0  0  0  0  0  0  0  0
   -1.5035    3.0053   -0.2601 H   0  0  0  1  0  0  0  0  0  0  0  0
  1  4  1  0  0  0  0
  2  4  1  0  0  0  0
  2  5  2  0  0  0  0
  2  6  1  0  0  0  0
  3  4  1  0  0  0  0
  3  7  1  0  0  0  0
  3  8  1  0  0  0  0
  4 26  1  0  0  0  0
  6  9  1  0  0  0  0
  6 12  1  0  0  0  0
  8 10  1  0  0  0  0
  8 11  2  0  0  0  0
  9 13  1  0  0  0  0
  9 14  1  0  0  0  0
  9 15  1  0  0  0  0
 10 16  1  0  0  0  0
 10 17  1  0  0  0  0
 10 18  1  0  0  0  0
 19 20  1  0  0  0  0
 20 21  4  0  0  0  0
 20 25  4  0  0  0  0
 21 22  4  0  0  0  0
 21 28  1  0  0  0  0
 22 23  4  0  0  0  0
 22 27  1  0  0  0  0
 23 24  4  0  0  0  0
 23 29  1  0  0  0  0
 24 25  4  0  0  0  0
 24 26  1  0  0  0  0
 25 30  1  0  0  0  0
 26 31  1  0  0  0  0
 26 32  1  0  0  0  0
M  END
> <BCLConfClusterSize>
1

> <ConfClashScore>
0 

> <ConfOneFourInteractionScore>
-0.937056 

> <ConfScore>
0.436999 

> <ConfScorePBest>
0.00316299 

> <ConfTolerance>
0.627693 

> <RosettaParamsInstructions>
M  ROOT 3
M  POLY_N_BB 3
M  POLY_CA_BB 4
M  POLY_C_BB 2
M  POLY_O_BB 5
M  POLY_IGNORE 9 10 11 12 13 14 15 16 17 18 
M  POLY_UPPER 6
M  POLY_LOWER 8
M  POLY_CHG 0
M  POLY_PROPERTIES ALPHA_AA D_AA PROTEIN AROMATIC POLYMER 
M  END

$$$$



 32 32  0  0  0  0  0  0  0  0999 V2000
   -1.9264    4.4085   -0.1202 H   0  0  0  1  0  0  0  0  0  0  0  0
    0.0028    3.8336    0.4834 C   0  0  0  1  0  0  0  0  0  0  0  0
   -2.1274    2.7373    1.0637 N   0  0  0  1  0  0  0  0  0  0  0  0
   -1.4072    3.4877    0.0458 C   0  0  0  1  0  0  0  0  0  0  0  0
    0.2135    4.7003    1.3278 O   0  0  0  1  0  0  0  0  0  0  0  0
    0.9849    3.1360   -0.1089 N   0  0  0  1  0  0  0  0  0  0  0  0
   -3.0913    2.8823    1.1648 H   0  0  0  1  0  0  0  0  0  0  0  0
   -1.5201    1.8575    1.8651 C   0  0  0  1  0  0  0  0  0  0  0  0
    2.3608    3.4585    0.2387 C   0  0  0  1  0  0  0  0  0  0  0  0
   -2.4139    1.1443    2.8543 C   0  0  0  1  0  0  0  0  0  0  0  0
   -0.3143    1.6295    1.8159 O   0  0  0  1  0  0  0  0  0  0  0  0
    0.7811    2.4296   -0.7569 H   0  0  0  1  0  0  0  0  0  0  0  0
    2.6530    4.3596   -0.2587 H   0  0  0  1  0  0  0  0  0  0  0  0
    3.0024    2.6586   -0.0668 H   0  0  0  1  0  0  0  0  0  0  0  0
    2.4385    3.5943    1.2972 H   0  0  0  1  0  0  0  0  0  0  0  0
   -2.4316    0.0982    2.6300 H   0  0  0  1  0  0  0  0  0  0  0  0
   -3.4058    1.5398    2.7880 H   0  0  0  1  0  0  0  0  0  0  0  0
   -2.0366    1.2900    3.8449 H   0  0  0  1  0  0  0  0  0  0  0  0
   -6.0335    1.3084   -0.9179 F   0  0  0  1  0  0  0  0  0  0  0  0
   -5.0716    1.8680   -1.6765 C   0  0  0  1  0  0  0  0  0  0  0  0
   -5.3166    2.2989   -2.9710 C   0  0  0  1  0  0  0  0  0  0  0  0
   -4.2984    2.8630   -3.7161 C   0  0  0  1  0  0  0  0  0  0  0  0
   -3.0333    3.0028   -3.1670 C   0  0  0  1  0  0  0  0  0  0  0  0
   -2.7888    2.5732   -1.8762 C   0  0  0  1  0  0  0  0  0  0  0  0
   -3.8102    2.0074   -1.1290 C   0  0  0  1  0  0  0  0  0  0  0  0
   -1.4091    2.7199   -1.2793 C   0  0  0  1  0  0  0  0  0  0  0  0
   -4.5352    3.2769   -4.9757 F   0  0  0  1  0  0  0  0  0  0  0  0
   -6.2667    2.1977   -3.3816 H   0  0  0  1  0  0  0  0  0  0  0  0
   -2.2681    3.4309   -3.7262 H   0  0  0  1  0  0  0  0  0  0  0  0
   -3.6273    1.6879   -0.1564 H   0  0  0  1  0  0  0  0  0  0  0  0
   -1.0067    1.7434   -1.1076 H   0  0  0  1  0  0  0  0  0  0  0  0
   -0.7899    3.2437   -1.9773 H   0  0  0  1  0  0  0  0  0  0  0  0
  1  4  1  0  0  0  0
  2  4  1  0  0  0  0
  2  5  2  0  0  0  0
  2  6  1  0  0  0  0
  3  4  1  0  0  0  0
  3  7  1  0  0  0  0
  3  8  1  0  0  0  0
  4 26  1  0  0  0  0
  6  9  1  0  0  0  0
  6 12  1  0  0  0  0
  8 10  1  0  0  0  0
  8 11  2  0  0  0  0
  9 13  1  0  0  0  0
  9 14  1  0  0  0  0
  9 15  1  0  0  0  0
 10 16  1  0  0  0  0
 10 17  1  0  0  0  0
 10 18  1  0  0  0  0
 19 20  1  0  0  0  0
 20 21  4  0  0  0  0
 20 25  4  0  0  0  0
 21 22  4  0  0  0  0
 21 28  1  0  0  0  0
 22 23  4  0  0  0  0
 22 27  1  0  0  0  0
 23 24  4  0  0  0  0
 23 29  1  0  0  0  0
 24 25  4  0  0  0  0
 24 26  1  0  0  0  0
 25 30  1  0  0  0  0
 26 31  1  0  0  0  0
 26 32  1  0  0  0  0
M  END
> <BCLConfClusterSize>
1

> <ConfClashScore>
0 

> <ConfOneFourInteractionScore>
-0.923745 

> <ConfScore>
0.437069 

> <ConfScorePBest>
0.00313451 

> <ConfTolerance>
0.808008 

> <RosettaParamsInstructions>
M  ROOT 3
M  POLY_N_BB 3
M  POLY_CA_BB 4
M  POLY_C_BB 2
M  POLY_O_BB 5
M  POLY_IGNORE 9 10 11 12 13 14 15 16 17 18 
M  POLY_UPPER 6
M  POLY_LOWER 8
M  POLY_CHG 0
M  POLY_PROPERTIES ALPHA_AA D_AA PROTEIN AROMATIC POLYMER 
M  END

$$$$



 32 32  0  0  0  0  0  0  0  0999 V2000
   -0.6592    4.6361   -1.4084 H   0  0  0  1  0  0  0  0  0  0  0  0
   -0.2448    4.0884    0.5578 C   0  0  0  1  0  0  0  0  0  0  0  0
   -2.4285    4.7912   -0.3890 N   0  0  0  1  0  0  0  0  0  0  0  0
   -1.1675    4.0824   -0.6469 C   0  0  0  1  0  0  0  0  0  0  0  0
    0.9484    3.8189    0.4482 O   0  0  0  1  0  0  0  0  0  0  0  0
   -0.8142    4.4020    1.7220 N   0  0  0  1  0  0  0  0  0  0  0  0
   -3.2731    4.3030   -0.4823 H   0  0  0  1  0  0  0  0  0  0  0  0
   -2.4640    6.0907   -0.0282 C   0  0  0  1  0  0  0  0  0  0  0  0
   -0.0651    4.4404    2.9677 C   0  0  0  1  0  0  0  0  0  0  0  0
   -3.8170    6.7699    0.0581 C   0  0  0  1  0  0  0  0  0  0  0  0
   -1.4306    6.7088    0.2239 O   0  0  0  1  0  0  0  0  0  0  0  0
   -1.7709    4.6140    1.7386 H   0  0  0  1  0  0  0  0  0  0  0  0
    0.9212    4.0597    2.8032 H   0  0  0  1  0  0  0  0  0  0  0  0
   -0.5615    3.8394    3.7007 H   0  0  0  1  0  0  0  0  0  0  0  0
   -0.0040    5.4503    3.3158 H   0  0  0  1  0  0  0  0  0  0  0  0
   -4.4046    6.3001    0.8190 H   0  0  0  1  0  0  0  0  0  0  0  0
   -4.3190    6.6851   -0.8831 H   0  0  0  1  0  0  0  0  0  0  0  0
   -3.6822    7.8036    0.2991 H   0  0  0  1  0  0  0  0  0  0  0  0
   -6.0258    1.3095   -0.9151 F   0  0  0  1  0  0  0  0  0  0  0  0
   -5.0668    1.8696   -1.6772 C   0  0  0  1  0  0  0  0  0  0  0  0
   -5.3164    2.2991   -2.9713 C   0  0  0  1  0  0  0  0  0  0  0  0
   -4.3011    2.8638   -3.7201 C   0  0  0  1  0  0  0  0  0  0  0  0
   -3.0346    3.0055   -3.1749 C   0  0  0  1  0  0  0  0  0  0  0  0
   -2.7855    2.5773   -1.8846 C   0  0  0  1  0  0  0  0  0  0  0  0
   -3.8039    2.0110   -1.1337 C   0  0  0  1  0  0  0  0  0  0  0  0
   -1.4252    2.7002   -1.2396 C   0  0  0  1  0  0  0  0  0  0  0  0
   -4.5424    3.2763   -4.9793 F   0  0  0  1  0  0  0  0  0  0  0  0
   -6.2676    2.1964   -3.3789 H   0  0  0  1  0  0  0  0  0  0  0  0
   -2.2716    3.4340   -3.7369 H   0  0  0  1  0  0  0  0  0  0  0  0
   -3.6176    1.6924   -0.1614 H   0  0  0  1  0  0  0  0  0  0  0  0
   -1.3529    1.9748   -0.4564 H   0  0  0  1  0  0  0  0  0  0  0  0
   -0.6783    2.5024   -1.9798 H   0  0  0  1  0  0  0  0  0  0  0  0
  1  4  1  0  0  0  0
  2  4  1  0  0  0  0
  2  5  2  0  0  0  0
  2  6  1  0  0  0  0
  3  4  1  0  0  0  0
  3  7  1  0  0  0  0
  3  8  1  0  0  0  0
  4 26  1  0  0  0  0
  6  9  1  0  0  0  0
  6 12  1  0  0  0  0
  8 10  1  0  0  0  0
  8 11  2  0  0  0  0
  9 13  1  0  0  0  0
  9 14  1  0  0  0  0
  9 15  1  0  0  0  0
 10 16  1  0  0  0  0
 10 17  1  0  0  0  0
 10 18  1  0  0  0  0
 19 20  1  0  0  0  0
 20 21  4  0  0  0  0
 20 25  4  0  0  0  0
 21 22  4  0  0  0  0
 21 28  1  0  0  0  0
 22 23  4  0  0  0  0
 22 27  1  0  0  0  0
 23 24  4  0  0  0  0
 23 29  1  0  0  0  0
 24 25  4  0  0  0  0
 24 26  1  0  0  0  0
 25 30  1  0  0  0  0
 26 31  1  0  0  0  0
 26 32  1  0  0  0  0
M  END
> <BCLConfClusterSize>
1

> <ConfClashScore>
0 

> <ConfOneFourInteractionScore>
-0.928132 

> <ConfScore>
0.441265 

> <ConfScorePBest>
0.00310603 

> <ConfTolerance>
0.828112 

> <RosettaParamsInstructions>
M  ROOT 3
M  POLY_N_BB 3
M  POLY_CA_BB 4
M  POLY_C_BB 2
M  POLY_O_BB 5
M  POLY_IGNORE 9 10 11 12 13 14 15 16 17 18 
M  POLY_UPPER 6
M  POLY_LOWER 8
M  POLY_CHG 0
M  POLY_PROPERTIES ALPHA_AA D_AA PROTEIN AROMATIC POLYMER 
M  END

$$$$



 32 32  0  0  0  0  0  0  0  0999 V2000
   -0.4635    1.2216   -2.3153 H   0  0  0  1  0  0  0  0  0  0  0  0
    1.0246    2.3045   -1.2804 C   0  0  0  1  0  0  0  0  0  0  0  0
   -0.1774    3.0140   -3.3057 N   0  0  0  1  0  0  0  0  0  0  0  0
   -0.2670    2.2452   -2.0733 C   0  0  0  1  0  0  0  0  0  0  0  0
    1.0452    2.0141   -0.0873 O   0  0  0  1  0  0  0  0  0  0  0  0
    2.1417    2.6831   -1.9213 N   0  0  0  1  0  0  0  0  0  0  0  0
   -0.4118    2.5794   -4.1523 H   0  0  0  1  0  0  0  0  0  0  0  0
    0.2132    4.2915   -3.3232 C   0  0  0  1  0  0  0  0  0  0  0  0
    3.4466    2.6731   -1.2797 C   0  0  0  1  0  0  0  0  0  0  0  0
    0.1736    4.9740   -4.6767 C   0  0  0  1  0  0  0  0  0  0  0  0
    0.5839    4.8913   -2.3176 O   0  0  0  1  0  0  0  0  0  0  0  0
    2.0755    2.9764   -2.8541 H   0  0  0  1  0  0  0  0  0  0  0  0
    3.4596    1.9318   -0.5082 H   0  0  0  1  0  0  0  0  0  0  0  0
    3.6414    3.6349   -0.8532 H   0  0  0  1  0  0  0  0  0  0  0  0
    4.1990    2.4452   -2.0057 H   0  0  0  1  0  0  0  0  0  0  0  0
   -0.6653    4.6131   -5.2342 H   0  0  0  1  0  0  0  0  0  0  0  0
    1.0756    4.7592   -5.2107 H   0  0  0  1  0  0  0  0  0  0  0  0
    0.0826    6.0313   -4.5401 H   0  0  0  1  0  0  0  0  0  0  0  0
   -6.0745    1.3256   -0.9726 F   0  0  0  1  0  0  0  0  0  0  0  0
   -5.0575    1.8682   -1.6692 C   0  0  0  1  0  0  0  0  0  0  0  0
   -5.3106    2.3039   -2.9606 C   0  0  0  1  0  0  0  0  0  0  0  0
   -4.2947    2.8621   -3.7134 C   0  0  0  1  0  0  0  0  0  0  0  0
   -3.0239    2.9912   -3.1749 C   0  0  0  1  0  0  0  0  0  0  0  0
   -2.7714    2.5569   -1.8873 C   0  0  0  1  0  0  0  0  0  0  0  0
   -3.7904    1.9970   -1.1325 C   0  0  0  1  0  0  0  0  0  0  0  0
   -1.4262    2.7635   -1.2321 C   0  0  0  1  0  0  0  0  0  0  0  0
   -4.5825    3.2673   -4.9651 F   0  0  0  1  0  0  0  0  0  0  0  0
   -6.2650    2.2106   -3.3632 H   0  0  0  1  0  0  0  0  0  0  0  0
   -2.2605    3.4149   -3.7398 H   0  0  0  1  0  0  0  0  0  0  0  0
   -3.6015    1.6739   -0.1622 H   0  0  0  1  0  0  0  0  0  0  0  0
   -1.2852    3.8112   -1.0667 H   0  0  0  1  0  0  0  0  0  0  0  0
   -1.4221    2.2500   -0.2934 H   0  0  0  1  0  0  0  0  0  0  0  0
  1  4  1  0  0  0  0
  2  4  1  0  0  0  0
  2  5  2  0  0  0  0
  2  6  1  0  0  0  0
  3  4  1  0  0  0  0
  3  7  1  0  0  0  0
  3  8  1  0  0  0  0
  4 26  1  0  0  0  0
  6  9  1  0  0  0  0
  6 12  1  0  0  0  0
  8 10  1  0  0  0  0
  8 11  2  0  0  0  0
  9 13  1  0  0  0  0
  9 14  1  0  0  0  0
  9 15  1  0  0  0  0
 10 16  1  0  0  0  0
 10 17  1  0  0  0  0
 10 18  1  0  0  0  0
 19 20  1  0  0  0  0
 20 21  4  0  0  0  0
 20 25  4  0  0  0  0
 21 22  4  0  0  0  0
 21 28  1  0  0  0  0
 22 23  4  0  0  0  0
 22 27  1  0  0  0  0
 23 24  4  0  0  0  0
 23 29  1  0  0  0  0
 24 25  4  0  0  0  0
 24 26  1  0  0  0  0
 25 30  1  0  0  0  0
 26 31  1  0  0  0  0
 26 32  1  0  0  0  0
M  END
> <BCLConfClusterSize>
1

> <ConfClashScore>
0 

> <ConfOneFourInteractionScore>
-0.953847 

> <ConfScore>
0.443682 

> <ConfScorePBest>
0.00307755 

> <ConfTolerance>
0.600732 

> <RosettaParamsInstructions>
M  ROOT 3
M  POLY_N_BB 3
M  POLY_CA_BB 4
M  POLY_C_BB 2
M  POLY_O_BB 5
M  POLY_IGNORE 9 10 11 12 13 14 15 16 17 18 
M  POLY_UPPER 6
M  POLY_LOWER 8
M  POLY_CHG 0
M  POLY_PROPERTIES ALPHA_AA D_AA PROTEIN AROMATIC POLYMER 
M  END

$$$$



 32 32  0  0  0  0  0  0  0  0999 V2000
   -1.7336    2.8485    0.7616 H   0  0  0  1  0  0  0  0  0  0  0  0
    0.2840    2.2736    0.4926 C   0  0  0  1  0  0  0  0  0  0  0  0
   -1.6766    0.8539    0.2266 N   0  0  0  1  0  0  0  0  0  0  0  0
   -1.1853    2.2162    0.0949 C   0  0  0  1  0  0  0  0  0  0  0  0
    1.0430    3.1221    0.0318 O   0  0  0  1  0  0  0  0  0  0  0  0
    0.6420    1.3257    1.3722 N   0  0  0  1  0  0  0  0  0  0  0  0
   -2.3965    0.6528    0.8603 H   0  0  0  1  0  0  0  0  0  0  0  0
   -1.1285   -0.1612   -0.5427 C   0  0  0  1  0  0  0  0  0  0  0  0
    1.9717    1.1806    1.9456 C   0  0  0  1  0  0  0  0  0  0  0  0
   -1.6974   -1.5481   -0.4345 C   0  0  0  1  0  0  0  0  0  0  0  0
   -0.2002    0.1063   -1.2838 O   0  0  0  1  0  0  0  0  0  0  0  0
   -0.0435    0.6825    1.6493 H   0  0  0  1  0  0  0  0  0  0  0  0
    2.4050    2.1479    2.0921 H   0  0  0  1  0  0  0  0  0  0  0  0
    2.5868    0.6117    1.2800 H   0  0  0  1  0  0  0  0  0  0  0  0
    1.9011    0.6755    2.8862 H   0  0  0  1  0  0  0  0  0  0  0  0
   -2.7501   -1.5181   -0.6235 H   0  0  0  1  0  0  0  0  0  0  0  0
   -1.5228   -1.9291    0.5500 H   0  0  0  1  0  0  0  0  0  0  0  0
   -1.2242   -2.1844   -1.1528 H   0  0  0  1  0  0  0  0  0  0  0  0
   -6.0405    1.3075   -0.9204 F   0  0  0  1  0  0  0  0  0  0  0  0
   -5.0758    1.8666   -1.6758 C   0  0  0  1  0  0  0  0  0  0  0  0
   -5.3166    2.2988   -2.9707 C   0  0  0  1  0  0  0  0  0  0  0  0
   -4.2956    2.8623   -3.7124 C   0  0  0  1  0  0  0  0  0  0  0  0
   -3.0320    3.0002   -3.1595 C   0  0  0  1  0  0  0  0  0  0  0  0
   -2.7917    2.5694   -1.8684 C   0  0  0  1  0  0  0  0  0  0  0  0
   -3.8158    2.0042   -1.1246 C   0  0  0  1  0  0  0  0  0  0  0  0
   -1.3956    2.7381   -1.3170 C   0  0  0  1  0  0  0  0  0  0  0  0
   -4.5284    3.2774   -4.9724 F   0  0  0  1  0  0  0  0  0  0  0  0
   -6.2657    2.1990   -3.3841 H   0  0  0  1  0  0  0  0  0  0  0  0
   -2.2647    3.4280   -3.7162 H   0  0  0  1  0  0  0  0  0  0  0  0
   -3.6361    1.6836   -0.1516 H   0  0  0  1  0  0  0  0  0  0  0  0
   -0.7201    2.2193   -1.9647 H   0  0  0  1  0  0  0  0  0  0  0  0
   -1.1631    3.7825   -1.3209 H   0  0  0  1  0  0  0  0  0  0  0  0
  1  4  1  0  0  0  0
  2  4  1  0  0  0  0
  2  5  2  0  0  0  0
  2  6  1  0  0  0  0
  3  4  1  0  0  0  0
  3  7  1  0  0  0  0
  3  8  1  0  0  0  0
  4 26  1  0  0  0  0
  6  9  1  0  0  0  0
  6 12  1  0  0  0  0
  8 10  1  0  0  0  0
  8 11  2  0  0  0  0
  9 13  1  0  0  0  0
  9 14  1  0  0  0  0
  9 15  1  0  0  0  0
 10 16  1  0  0  0  0
 10 17  1  0  0  0  0
 10 18  1  0  0  0  0
 19 20  1  0  0  0  0
 20 21  4  0  0  0  0
 20 25  4  0  0  0  0
 21 22  4  0  0  0  0
 21 28  1  0  0  0  0
 22 23  4  0  0  0  0
 22 27  1  0  0  0  0
 23 24  4  0  0  0  0
 23 29  1  0  0  0  0
 24 25  4  0  0  0  0
 24 26  1  0  0  0  0
 25 30  1  0  0  0  0
 26 31  1  0  0  0  0
 26 32  1  0  0  0  0
M  END
> <BCLConfClusterSize>
1

> <ConfClashScore>
0 

> <ConfOneFourInteractionScore>
-0.931255 

> <ConfScore>
0.456188 

> <ConfScorePBest>
0.00304907 

> <ConfTolerance>
0.810088 

> <RosettaParamsInstructions>
M  ROOT 3
M  POLY_N_BB 3
M  POLY_CA_BB 4
M  POLY_C_BB 2
M  POLY_O_BB 5
M  POLY_IGNORE 9 10 11 12 13 14 15 16 17 18 
M  POLY_UPPER 6
M  POLY_LOWER 8
M  POLY_CHG 0
M  POLY_PROPERTIES ALPHA_AA D_AA PROTEIN AROMATIC POLYMER 
M  END

$$$$



 32 32  0  0  0  0  0  0  0  0999 V2000
   -0.1906    2.9072   -3.0043 H   0  0  0  1  0  0  0  0  0  0  0  0
   -0.3484    0.8346   -2.5527 C   0  0  0  1  0  0  0  0  0  0  0  0
    1.0154    2.4552   -1.3693 N   0  0  0  1  0  0  0  0  0  0  0  0
   -0.2238    2.2948   -2.1274 C   0  0  0  1  0  0  0  0  0  0  0  0
   -1.4553    0.3427   -2.7677 O   0  0  0  1  0  0  0  0  0  0  0  0
    0.7808    0.1094   -2.5881 N   0  0  0  1  0  0  0  0  0  0  0  0
    1.6733    3.1153   -1.6725 H   0  0  0  1  0  0  0  0  0  0  0  0
    1.2822    1.7343   -0.2792 C   0  0  0  1  0  0  0  0  0  0  0  0
    0.7907   -1.2957   -2.9670 C   0  0  0  1  0  0  0  0  0  0  0  0
    2.5898    2.0021    0.4593 C   0  0  0  1  0  0  0  0  0  0  0  0
    0.5360    0.8646    0.1679 O   0  0  0  1  0  0  0  0  0  0  0  0
    1.6278    0.5412   -2.3506 H   0  0  0  1  0  0  0  0  0  0  0  0
   -0.0002   -1.4836   -3.6628 H   0  0  0  1  0  0  0  0  0  0  0  0
    0.6501   -1.9008   -2.0958 H   0  0  0  1  0  0  0  0  0  0  0  0
    1.7294   -1.5358   -3.4210 H   0  0  0  1  0  0  0  0  0  0  0  0
    3.3758    2.1556   -0.2503 H   0  0  0  1  0  0  0  0  0  0  0  0
    2.8278    1.1627    1.0787 H   0  0  0  1  0  0  0  0  0  0  0  0
    2.4831    2.8759    1.0676 H   0  0  0  1  0  0  0  0  0  0  0  0
   -6.0782    1.3188   -0.9770 F   0  0  0  1  0  0  0  0  0  0  0  0
   -5.0612    1.8678   -1.6685 C   0  0  0  1  0  0  0  0  0  0  0  0
   -5.3093    2.2978   -2.9628 C   0  0  0  1  0  0  0  0  0  0  0  0
   -4.2932    2.8622   -3.7104 C   0  0  0  1  0  0  0  0  0  0  0  0
   -3.0271    3.0034   -3.1640 C   0  0  0  1  0  0  0  0  0  0  0  0
   -2.7794    2.5748   -1.8736 C   0  0  0  1  0  0  0  0  0  0  0  0
   -3.7987    2.0086   -1.1238 C   0  0  0  1  0  0  0  0  0  0  0  0
   -1.3985    2.7230   -1.2797 C   0  0  0  1  0  0  0  0  0  0  0  0
   -4.5761    3.2616   -4.9652 F   0  0  0  1  0  0  0  0  0  0  0  0
   -6.2602    2.1955   -3.3713 H   0  0  0  1  0  0  0  0  0  0  0  0
   -2.2634    3.4318   -3.7252 H   0  0  0  1  0  0  0  0  0  0  0  0
   -3.6135    1.6898   -0.1514 H   0  0  0  1  0  0  0  0  0  0  0  0
   -1.2616    3.7572   -1.0418 H   0  0  0  1  0  0  0  0  0  0  0  0
   -1.3728    2.1433   -0.3807 H   0  0  0  1  0  0  0  0  0  0  0  0
  1  4  1  0  0  0  0
  2  4  1  0  0  0  0
  2  5  2  0  0  0  0
  2  6  1  0  0  0  0
  3  4  1  0  0  0  0
  3  7  1  0  0  0  0
  3  8  1  0  0  0  0
  4 26  1  0  0  0  0
  6  9  1  0  0  0  0
  6 12  1  0  0  0  0
  8 10  1  0  0  0  0
  8 11  2  0  0  0  0
  9 13  1  0  0  0  0
  9 14  1  0  0  0  0
  9 15  1  0  0  0  0
 10 16  1  0  0  0  0
 10 17  1  0  0  0  0
 10 18  1  0  0  0  0
 19 20  1  0  0  0  0
 20 21  4  0  0  0  0
 20 25  4  0  0  0  0
 21 22  4  0  0  0  0
 21 28  1  0  0  0  0
 22 23  4  0  0  0  0
 22 27  1  0  0  0  0
 23 24  4  0  0  0  0
 23 29  1  0  0  0  0
 24 25  4  0  0  0  0
 24 26  1  0  0  0  0
 25 30  1  0  0  0  0
 26 31  1  0  0  0  0
 26 32  1  0  0  0  0
M  END
> <BCLConfClusterSize>
1

> <ConfClashScore>
0 

> <ConfOneFourInteractionScore>
-0.957364 

> <ConfScore>
0.45923 

> <ConfScorePBest>
0.00302059 

> <ConfTolerance>
0.802223 

> <RosettaParamsInstructions>
M  ROOT 3
M  POLY_N_BB 3
M  POLY_CA_BB 4
M  POLY_C_BB 2
M  POLY_O_BB 5
M  POLY_IGNORE 9 10 11 12 13 14 15 16 17 18 
M  POLY_UPPER 6
M  POLY_LOWER 8
M  POLY_CHG 0
M  POLY_PROPERTIES ALPHA_AA D_AA PROTEIN AROMATIC POLYMER 
M  END

$$$$



 32 32  0  0  0  0  0  0  0  0999 V2000
   -0.9754    4.3830   -2.4574 H   0  0  0  1  0  0  0  0  0  0  0  0
    0.6572    4.2264   -1.1729 C   0  0  0  1  0  0  0  0  0  0  0  0
   -1.5592    5.1301   -0.6367 N   0  0  0  1  0  0  0  0  0  0  0  0
   -0.8338    4.1204   -1.4298 C   0  0  0  1  0  0  0  0  0  0  0  0
    1.1251    5.1418   -0.4976 O   0  0  0  1  0  0  0  0  0  0  0  0
    1.4141    3.2658   -1.7265 N   0  0  0  1  0  0  0  0  0  0  0  0
   -2.3131    5.6023   -1.0479 H   0  0  0  1  0  0  0  0  0  0  0  0
   -1.2216    5.4260    0.6336 C   0  0  0  1  0  0  0  0  0  0  0  0
    2.8624    3.3073   -1.5904 C   0  0  0  1  0  0  0  0  0  0  0  0
   -2.0592    6.5462    1.2462 C   0  0  0  1  0  0  0  0  0  0  0  0
   -0.3289    4.8668    1.2693 O   0  0  0  1  0  0  0  0  0  0  0  0
    0.9905    2.5350   -2.2234 H   0  0  0  1  0  0  0  0  0  0  0  0
    3.2051    2.3987   -1.1410 H   0  0  0  1  0  0  0  0  0  0  0  0
    3.1388    4.1365   -0.9731 H   0  0  0  1  0  0  0  0  0  0  0  0
    3.3083    3.4173   -2.5568 H   0  0  0  1  0  0  0  0  0  0  0  0
   -1.5313    6.9765    2.0715 H   0  0  0  1  0  0  0  0  0  0  0  0
   -2.9915    6.1479    1.5882 H   0  0  0  1  0  0  0  0  0  0  0  0
   -2.2416    7.2992    0.5082 H   0  0  0  1  0  0  0  0  0  0  0  0
   -6.0340    1.3103   -0.9232 F   0  0  0  1  0  0  0  0  0  0  0  0
   -5.0700    1.8696   -1.6794 C   0  0  0  1  0  0  0  0  0  0  0  0
   -5.3119    2.3014   -2.9742 C   0  0  0  1  0  0  0  0  0  0  0  0
   -4.2916    2.8651   -3.7168 C   0  0  0  1  0  0  0  0  0  0  0  0
   -3.0277    3.0035   -3.1648 C   0  0  0  1  0  0  0  0  0  0  0  0
   -2.7862    2.5730   -1.8738 C   0  0  0  1  0  0  0  0  0  0  0  0
   -3.8097    2.0076   -1.1291 C   0  0  0  1  0  0  0  0  0  0  0  0
   -1.4077    2.7182   -1.2739 C   0  0  0  1  0  0  0  0  0  0  0  0
   -4.5685    3.2664   -4.9723 F   0  0  0  1  0  0  0  0  0  0  0  0
   -6.2612    2.2013   -3.3869 H   0  0  0  1  0  0  0  0  0  0  0  0
   -2.2609    3.4314   -3.7222 H   0  0  0  1  0  0  0  0  0  0  0  0
   -3.6291    1.6873   -0.1563 H   0  0  0  1  0  0  0  0  0  0  0  0
   -1.4643    2.4875   -0.2306 H   0  0  0  1  0  0  0  0  0  0  0  0
   -0.7510    2.0257   -1.7577 H   0  0  0  1  0  0  0  0  0  0  0  0
  1  4  1  0  0  0  0
  2  4  1  0  0  0  0
  2  5  2  0  0  0  0
  2  6  1  0  0  0  0
  3  4  1  0  0  0  0
  3  7  1  0  0  0  0
  3  8  1  0  0  0  0
  4 26  1  0  0  0  0
  6  9  1  0  0  0  0
  6 12  1  0  0  0  0
  8 10  1  0  0  0  0
  8 11  2  0  0  0  0
  9 13  1  0  0  0  0
  9 14  1  0  0  0  0
  9 15  1  0  0  0  0
 10 16  1  0  0  0  0
 10 17  1  0  0  0  0
 10 18  1  0  0  0  0
 19 20  1  0  0  0  0
 20 21  4  0  0  0  0
 20 25  4  0  0  0  0
 21 22  4  0  0  0  0
 21 28  1  0  0  0  0
 22 23  4  0  0  0  0
 22 27  1  0  0  0  0
 23 24  4  0  0  0  0
 23 29  1  0  0  0  0
 24 25  4  0  0  0  0
 24 26  1  0  0  0  0
 25 30  1  0  0  0  0
 26 31  1  0  0  0  0
 26 32  1  0  0  0  0
M  END
> <BCLConfClusterSize>
1

> <ConfClashScore>
0 

> <ConfOneFourInteractionScore>
-0.960887 

> <ConfScore>
0.46385 

> <ConfScorePBest>
0.00299211 

> <ConfTolerance>
0.901533 

> <RosettaParamsInstructions>
M  ROOT 3
M  POLY_N_BB 3
M  POLY_CA_BB 4
M  POLY_C_BB 2
M  POLY_O_BB 5
M  POLY_IGNORE 9 10 11 12 13 14 15 16 17 18 
M  POLY_UPPER 6
M  POLY_LOWER 8
M  POLY_CHG 0
M  POLY_PROPERTIES ALPHA_AA D_AA PROTEIN AROMATIC POLYMER 
M  END

$$$$



 32 32  0  0  0  0  0  0  0  0999 V2000
   -0.6551    4.0295    0.1919 H   0  0  0  1  0  0  0  0  0  0  0  0
   -1.3098    2.2717    1.1626 C   0  0  0  1  0  0  0  0  0  0  0  0
   -2.7145    4.1283    0.2033 N   0  0  0  1  0  0  0  0  0  0  0  0
   -1.4834    3.3577    0.1048 C   0  0  0  1  0  0  0  0  0  0  0  0
   -0.1990    1.8049    1.4112 O   0  0  0  1  0  0  0  0  0  0  0  0
   -2.4035    1.8424    1.8119 N   0  0  0  1  0  0  0  0  0  0  0  0
   -3.4015    3.8073    0.8240 H   0  0  0  1  0  0  0  0  0  0  0  0
   -2.9867    5.2755   -0.5107 C   0  0  0  1  0  0  0  0  0  0  0  0
   -2.4143    0.7996    2.8269 C   0  0  0  1  0  0  0  0  0  0  0  0
   -4.3772    5.8222   -0.3690 C   0  0  0  1  0  0  0  0  0  0  0  0
   -2.1238    5.7827   -1.2022 O   0  0  0  1  0  0  0  0  0  0  0  0
   -3.2592    2.2630    1.5853 H   0  0  0  1  0  0  0  0  0  0  0  0
   -1.4228    0.4197    2.9592 H   0  0  0  1  0  0  0  0  0  0  0  0
   -3.0615    0.0063    2.5160 H   0  0  0  1  0  0  0  0  0  0  0  0
   -2.7665    1.2062    3.7519 H   0  0  0  1  0  0  0  0  0  0  0  0
   -5.0873    5.0377   -0.5280 H   0  0  0  1  0  0  0  0  0  0  0  0
   -4.5319    6.5950   -1.0927 H   0  0  0  1  0  0  0  0  0  0  0  0
   -4.5039    6.2236    0.6147 H   0  0  0  1  0  0  0  0  0  0  0  0
   -6.0335    1.3084   -0.9179 F   0  0  0  1  0  0  0  0  0  0  0  0
   -5.0716    1.8680   -1.6765 C   0  0  0  1  0  0  0  0  0  0  0  0
   -5.3166    2.2989   -2.9710 C   0  0  0  1  0  0  0  0  0  0  0  0
   -4.2984    2.8630   -3.7161 C   0  0  0  1  0  0  0  0  0  0  0  0
   -3.0333    3.0028   -3.1670 C   0  0  0  1  0  0  0  0  0  0  0  0
   -2.7888    2.5732   -1.8762 C   0  0  0  1  0  0  0  0  0  0  0  0
   -3.8102    2.0074   -1.1290 C   0  0  0  1  0  0  0  0  0  0  0  0
   -1.4091    2.7199   -1.2793 C   0  0  0  1  0  0  0  0  0  0  0  0
   -4.5352    3.2769   -4.9757 F   0  0  0  1  0  0  0  0  0  0  0  0
   -6.2667    2.1977   -3.3816 H   0  0  0  1  0  0  0  0  0  0  0  0
   -2.2681    3.4309   -3.7262 H   0  0  0  1  0  0  0  0  0  0  0  0
   -3.6273    1.6879   -0.1564 H   0  0  0  1  0  0  0  0  0  0  0  0
   -0.9581    1.7531   -1.1963 H   0  0  0  1  0  0  0  0  0  0  0  0
   -0.8140    3.3378   -1.9188 H   0  0  0  1  0  0  0  0  0  0  0  0
  1  4  1  0  0  0  0
  2  4  1  0  0  0  0
  2  5  2  0  0  0  0
  2  6  1  0  0  0  0
  3  4  1  0  0  0  0
  3  7  1  0  0  0  0
  3  8  1  0  0  0  0
  4 26  1  0  0  0  0
  6  9  1  0  0  0  0
  6 12  1  0  0  0  0
  8 10  1  0  0  0  0
  8 11  2  0  0  0  0
  9 13  1  0  0  0  0
  9 14  1  0  0  0  0
  9 15  1  0  0  0  0
 10 16  1  0  0  0  0
 10 17  1  0  0  0  0
 10 18  1  0  0  0  0
 19 20  1  0  0  0  0
 20 21  4  0  0  0  0
 20 25  4  0  0  0  0
 21 22  4  0  0  0  0
 21 28  1  0  0  0  0
 22 23  4  0  0  0  0
 22 27  1  0  0  0  0
 23 24  4  0  0  0  0
 23 29  1  0  0  0  0
 24 25  4  0  0  0  0
 24 26  1  0  0  0  0
 25 30  1  0  0  0  0
 26 31  1  0  0  0  0
 26 32  1  0  0  0  0
M  END
> <BCLConfClusterSize>
1

> <ConfClashScore>
0 

> <ConfOneFourInteractionScore>
-0.937716 

> <ConfScore>
0.465344 

> <ConfScorePBest>
0.00296363 

> <ConfTolerance>
0.867135 

> <RosettaParamsInstructions>
M  ROOT 3
M  POLY_N_BB 3
M  POLY_CA_BB 4
M  POLY_C_BB 2
M  POLY_O_BB 5
M  POLY_IGNORE 9 10 11 12 13 14 15 16 17 18 
M  POLY_UPPER 6
M  POLY_LOWER 8
M  POLY_CHG 0
M  POLY_PROPERTIES ALPHA_AA D_AA PROTEIN AROMATIC POLYMER 
M  END

$$$$



 32 32  0  0  0  0  0  0  0  0999 V2000
   -1.7707    4.7891   -1.3268 H   0  0  0  1  0  0  0  0  0  0  0  0
   -0.0761    4.5189   -2.5301 C   0  0  0  1  0  0  0  0  0  0  0  0
   -0.2047    4.4346   -0.0403 N   0  0  0  1  0  0  0  0  0  0  0  0
   -0.9018    4.1652   -1.3030 C   0  0  0  1  0  0  0  0  0  0  0  0
    0.5624    5.5701   -2.5111 O   0  0  0  1  0  0  0  0  0  0  0  0
   -0.0867    3.6719   -3.5633 N   0  0  0  1  0  0  0  0  0  0  0  0
   -0.7537    4.5751    0.7593 H   0  0  0  1  0  0  0  0  0  0  0  0
    1.1199    4.5026    0.1014 C   0  0  0  1  0  0  0  0  0  0  0  0
    0.7378    3.8765   -4.7449 C   0  0  0  1  0  0  0  0  0  0  0  0
    1.6156    4.9036    1.4771 C   0  0  0  1  0  0  0  0  0  0  0  0
    1.9063    4.2587   -0.8158 O   0  0  0  1  0  0  0  0  0  0  0  0
   -0.6700    2.8853   -3.5240 H   0  0  0  1  0  0  0  0  0  0  0  0
    0.8211    2.9572   -5.2859 H   0  0  0  1  0  0  0  0  0  0  0  0
    1.7119    4.2045   -4.4473 H   0  0  0  1  0  0  0  0  0  0  0  0
    0.2867    4.6185   -5.3701 H   0  0  0  1  0  0  0  0  0  0  0  0
    2.1761    5.8120    1.4040 H   0  0  0  1  0  0  0  0  0  0  0  0
    2.2410    4.1295    1.8702 H   0  0  0  1  0  0  0  0  0  0  0  0
    0.7794    5.0521    2.1279 H   0  0  0  1  0  0  0  0  0  0  0  0
   -6.0774    1.3149   -0.9663 F   0  0  0  1  0  0  0  0  0  0  0  0
   -5.0642    1.8648   -1.6628 C   0  0  0  1  0  0  0  0  0  0  0  0
   -5.3186    2.2928   -2.9565 C   0  0  0  1  0  0  0  0  0  0  0  0
   -4.3066    2.8581   -3.7091 C   0  0  0  1  0  0  0  0  0  0  0  0
   -3.0384    3.0019   -3.1683 C   0  0  0  1  0  0  0  0  0  0  0  0
   -2.7845    2.5752   -1.8784 C   0  0  0  1  0  0  0  0  0  0  0  0
   -3.7997    2.0083   -1.1237 C   0  0  0  1  0  0  0  0  0  0  0  0
   -1.4014    2.7264   -1.2907 C   0  0  0  1  0  0  0  0  0  0  0  0
   -4.5093    3.2823   -4.9713 F   0  0  0  1  0  0  0  0  0  0  0  0
   -6.2711    2.1885   -3.3608 H   0  0  0  1  0  0  0  0  0  0  0  0
   -2.2779    3.4309   -3.7333 H   0  0  0  1  0  0  0  0  0  0  0  0
   -3.6098    1.6909   -0.1517 H   0  0  0  1  0  0  0  0  0  0  0  0
   -1.4222    2.3818   -0.2779 H   0  0  0  1  0  0  0  0  0  0  0  0
   -0.7224    2.1252   -1.8586 H   0  0  0  1  0  0  0  0  0  0  0  0
  1  4  1  0  0  0  0
  2  4  1  0  0  0  0
  2  5  2  0  0  0  0
  2  6  1  0  0  0  0
  3  4  1  0  0  0  0
  3  7  1  0  0  0  0
  3  8  1  0  0  0  0
  4 26  1  0  0  0  0
  6  9  1  0  0  0  0
  6 12  1  0  0  0  0
  8 10  1  0  0  0  0
  8 11  2  0  0  0  0
  9 13  1  0  0  0  0
  9 14  1  0  0  0  0
  9 15  1  0  0  0  0
 10 16  1  0  0  0  0
 10 17  1  0  0  0  0
 10 18  1  0  0  0  0
 19 20  1  0  0  0  0
 20 21  4  0  0  0  0
 20 25  4  0  0  0  0
 21 22  4  0  0  0  0
 21 28  1  0  0  0  0
 22 23  4  0  0  0  0
 22 27  1  0  0  0  0
 23 24  4  0  0  0  0
 23 29  1  0  0  0  0
 24 25  4  0  0  0  0
 24 26  1  0  0  0  0
 25 30  1  0  0  0  0
 26 31  1  0  0  0  0
 26 32  1  0  0  0  0
M  END
> <BCLConfClusterSize>
1

> <ConfClashScore>
0 

> <ConfOneFourInteractionScore>
-0.919941 

> <ConfScore>
0.467228 

> <ConfScorePBest>
0.00293515 

> <ConfTolerance>
0.424395 

> <RosettaParamsInstructions>
M  ROOT 3
M  POLY_N_BB 3
M  POLY_CA_BB 4
M  POLY_C_BB 2
M  POLY_O_BB 5
M  POLY_IGNORE 9 10 11 12 13 14 15 16 17 18 
M  POLY_UPPER 6
M  POLY_LOWER 8
M  POLY_CHG 0
M  POLY_PROPERTIES ALPHA_AA D_AA PROTEIN AROMATIC POLYMER 
M  END

$$$$



 32 32  0  0  0  0  0  0  0  0999 V2000
   -1.0905    0.6371   -1.1966 H   0  0  0  1  0  0  0  0  0  0  0  0
    0.7240    1.5434   -0.6427 C   0  0  0  1  0  0  0  0  0  0  0  0
   -0.2072    1.3405   -2.9172 N   0  0  0  1  0  0  0  0  0  0  0  0
   -0.5239    1.4909   -1.5048 C   0  0  0  1  0  0  0  0  0  0  0  0
    1.6144    2.3613   -0.8707 O   0  0  0  1  0  0  0  0  0  0  0  0
    0.8262    0.6723    0.3735 N   0  0  0  1  0  0  0  0  0  0  0  0
    0.5799    1.8002   -3.2770 H   0  0  0  1  0  0  0  0  0  0  0  0
   -0.9523    0.5975   -3.7405 C   0  0  0  1  0  0  0  0  0  0  0  0
    1.8835    0.7604    1.3697 C   0  0  0  1  0  0  0  0  0  0  0  0
   -0.4676    0.5191   -5.1824 C   0  0  0  1  0  0  0  0  0  0  0  0
   -1.9596    0.0120   -3.3785 O   0  0  0  1  0  0  0  0  0  0  0  0
    0.1659   -0.0481    0.4471 H   0  0  0  1  0  0  0  0  0  0  0  0
    2.0682    1.7879    1.6045 H   0  0  0  1  0  0  0  0  0  0  0  0
    2.7767    0.3174    0.9815 H   0  0  0  1  0  0  0  0  0  0  0  0
    1.5828    0.2409    2.2554 H   0  0  0  1  0  0  0  0  0  0  0  0
    0.2524    1.2906   -5.3596 H   0  0  0  1  0  0  0  0  0  0  0  0
   -1.2978    0.6474   -5.8451 H   0  0  0  1  0  0  0  0  0  0  0  0
   -0.0167   -0.4357   -5.3555 H   0  0  0  1  0  0  0  0  0  0  0  0
   -6.0556    1.3105   -0.9392 F   0  0  0  1  0  0  0  0  0  0  0  0
   -5.0686    1.8657   -1.6683 C   0  0  0  1  0  0  0  0  0  0  0  0
   -5.3199    2.2947   -2.9622 C   0  0  0  1  0  0  0  0  0  0  0  0
   -4.3058    2.8595   -3.7124 C   0  0  0  1  0  0  0  0  0  0  0  0
   -3.0387    3.0020   -3.1688 C   0  0  0  1  0  0  0  0  0  0  0  0
   -2.7879    2.5744   -1.8786 C   0  0  0  1  0  0  0  0  0  0  0  0
   -3.8051    2.0078   -1.1264 C   0  0  0  1  0  0  0  0  0  0  0  0
   -1.4059    2.7240   -1.2878 C   0  0  0  1  0  0  0  0  0  0  0  0
   -4.5055    3.2847   -4.9747 F   0  0  0  1  0  0  0  0  0  0  0  0
   -6.2716    2.1914   -3.3686 H   0  0  0  1  0  0  0  0  0  0  0  0
   -2.2766    3.4307   -3.7318 H   0  0  0  1  0  0  0  0  0  0  0  0
   -3.6175    1.6897   -0.1541 H   0  0  0  1  0  0  0  0  0  0  0  0
   -0.9302    3.5673   -1.7433 H   0  0  0  1  0  0  0  0  0  0  0  0
   -1.5018    2.8933   -0.2356 H   0  0  0  1  0  0  0  0  0  0  0  0
  1  4  1  0  0  0  0
  2  4  1  0  0  0  0
  2  5  2  0  0  0  0
  2  6  1  0  0  0  0
  3  4  1  0  0  0  0
  3  7  1  0  0  0  0
  3  8  1  0  0  0  0
  4 26  1  0  0  0  0
  6  9  1  0  0  0  0
  6 12  1  0  0  0  0
  8 10  1  0  0  0  0
  8 11  2  0  0  0  0
  9 13  1  0  0  0  0
  9 14  1  0  0  0  0
  9 15  1  0  0  0  0
 10 16  1  0  0  0  0
 10 17  1  0  0  0  0
 10 18  1  0  0  0  0
 19 20  1  0  0  0  0
 20 21  4  0  0  0  0
 20 25  4  0  0  0  0
 21 22  4  0  0  0  0
 21 28  1  0  0  0  0
 22 23  4  0  0  0  0
 22 27  1  0  0  0  0
 23 24  4  0  0  0  0
 23 29  1  0  0  0  0
 24 25  4  0  0  0  0
 24 26  1  0  0  0  0
 25 30  1  0  0  0  0
 26 31  1  0  0  0  0
 26 32  1  0  0  0  0
M  END
> <BCLConfClusterSize>
1

> <ConfClashScore>
0 

> <ConfOneFourInteractionScore>
-0.982823 

> <ConfScore>
0.46817 

> <ConfScorePBest>
0.00290666 

> <ConfTolerance>
1.00244 

> <RosettaParamsInstructions>
M  ROOT 3
M  POLY_N_BB 3
M  POLY_CA_BB 4
M  POLY_C_BB 2
M  POLY_O_BB 5
M  POLY_IGNORE 9 10 11 12 13 14 15 16 17 18 
M  POLY_UPPER 6
M  POLY_LOWER 8
M  POLY_CHG 0
M  POLY_PROPERTIES ALPHA_AA D_AA PROTEIN AROMATIC POLYMER 
M  END

$$$$



 32 32  0  0  0  0  0  0  0  0999 V2000
   -1.3424    4.6869   -2.1926 H   0  0  0  1  0  0  0  0  0  0  0  0
    0.5459    4.4729   -1.3208 C   0  0  0  1  0  0  0  0  0  0  0  0
   -1.5748    4.9556   -0.1699 N   0  0  0  1  0  0  0  0  0  0  0  0
   -0.9613    4.2348   -1.3008 C   0  0  0  1  0  0  0  0  0  0  0  0
    1.3219    3.6117   -1.7264 O   0  0  0  1  0  0  0  0  0  0  0  0
    0.9513    5.6647   -0.8732 N   0  0  0  1  0  0  0  0  0  0  0  0
   -2.4665    5.3452   -0.2852 H   0  0  0  1  0  0  0  0  0  0  0  0
   -0.9371    5.1003    1.0445 C   0  0  0  1  0  0  0  0  0  0  0  0
    2.3573    6.0351   -0.8123 C   0  0  0  1  0  0  0  0  0  0  0  0
   -1.7297    5.9149    2.1438 C   0  0  0  1  0  0  0  0  0  0  0  0
    0.1988    4.6234    1.2805 O   0  0  0  1  0  0  0  0  0  0  0  0
    0.2783    6.3120   -0.5755 H   0  0  0  1  0  0  0  0  0  0  0  0
    2.4576    6.9752   -0.3111 H   0  0  0  1  0  0  0  0  0  0  0  0
    2.7476    6.1171   -1.8052 H   0  0  0  1  0  0  0  0  0  0  0  0
    2.9004    5.2854   -0.2758 H   0  0  0  1  0  0  0  0  0  0  0  0
   -1.4278    6.9410    2.1149 H   0  0  0  1  0  0  0  0  0  0  0  0
   -1.5179    5.5082    3.1106 H   0  0  0  1  0  0  0  0  0  0  0  0
   -2.7798    5.8468    1.9499 H   0  0  0  1  0  0  0  0  0  0  0  0
   -6.0908    1.3133   -0.9715 F   0  0  0  1  0  0  0  0  0  0  0  0
   -5.0725    1.8620   -1.6613 C   0  0  0  1  0  0  0  0  0  0  0  0
   -5.3185    2.2925   -2.9557 C   0  0  0  1  0  0  0  0  0  0  0  0
   -4.3010    2.8567   -3.7017 C   0  0  0  1  0  0  0  0  0  0  0  0
   -3.0356    2.9969   -3.1534 C   0  0  0  1  0  0  0  0  0  0  0  0
   -2.7901    2.5677   -1.8628 C   0  0  0  1  0  0  0  0  0  0  0  0
   -3.8108    2.0018   -1.1147 C   0  0  0  1  0  0  0  0  0  0  0  0
   -1.3768    2.7622   -1.3664 C   0  0  0  1  0  0  0  0  0  0  0  0
   -4.4956    3.2833   -4.9643 F   0  0  0  1  0  0  0  0  0  0  0  0
   -6.2689    2.1910   -3.3656 H   0  0  0  1  0  0  0  0  0  0  0  0
   -2.2709    3.4251   -3.7133 H   0  0  0  1  0  0  0  0  0  0  0  0
   -3.6271    1.6825   -0.1421 H   0  0  0  1  0  0  0  0  0  0  0  0
   -1.2997    2.3425   -0.3852 H   0  0  0  1  0  0  0  0  0  0  0  0
   -0.7100    2.2493   -2.0276 H   0  0  0  1  0  0  0  0  0  0  0  0
  1  4  1  0  0  0  0
  2  4  1  0  0  0  0
  2  5  2  0  0  0  0
  2  6  1  0  0  0  0
  3  4  1  0  0  0  0
  3  7  1  0  0  0  0
  3  8  1  0  0  0  0
  4 26  1  0  0  0  0
  6  9  1  0  0  0  0
  6 12  1  0  0  0  0
  8 10  1  0  0  0  0
  8 11  2  0  0  0  0
  9 13  1  0  0  0  0
  9 14  1  0  0  0  0
  9 15  1  0  0  0  0
 10 16  1  0  0  0  0
 10 17  1  0  0  0  0
 10 18  1  0  0  0  0
 19 20  1  0  0  0  0
 20 21  4  0  0  0  0
 20 25  4  0  0  0  0
 21 22  4  0  0  0  0
 21 28  1  0  0  0  0
 22 23  4  0  0  0  0
 22 27  1  0  0  0  0
 23 24  4  0  0  0  0
 23 29  1  0  0  0  0
 24 25  4  0  0  0  0
 24 26  1  0  0  0  0
 25 30  1  0  0  0  0
 26 31  1  0  0  0  0
 26 32  1  0  0  0  0
M  END
> <BCLConfClusterSize>
1

> <ConfClashScore>
0 

> <ConfOneFourInteractionScore>
-0.953489 

> <ConfScore>
0.476921 

> <ConfScorePBest>
0.00287818 

> <ConfTolerance>
1.00133 

> <RosettaParamsInstructions>
M  ROOT 3
M  POLY_N_BB 3
M  POLY_CA_BB 4
M  POLY_C_BB 2
M  POLY_O_BB 5
M  POLY_IGNORE 9 10 11 12 13 14 15 16 17 18 
M  POLY_UPPER 6
M  POLY_LOWER 8
M  POLY_CHG 0
M  POLY_PROPERTIES ALPHA_AA D_AA PROTEIN AROMATIC POLYMER 
M  END

$$$$



 32 32  0  0  0  0  0  0  0  0999 V2000
   -1.8933    3.7564    0.5185 H   0  0  0  1  0  0  0  0  0  0  0  0
   -1.6536    5.1910   -0.9978 C   0  0  0  1  0  0  0  0  0  0  0  0
    0.1260    3.9540    0.1767 N   0  0  0  1  0  0  0  0  0  0  0  0
   -1.2416    3.8997   -0.3179 C   0  0  0  1  0  0  0  0  0  0  0  0
   -1.1106    5.5677   -2.0350 O   0  0  0  1  0  0  0  0  0  0  0  0
   -2.6323    5.8769   -0.3977 N   0  0  0  1  0  0  0  0  0  0  0  0
    0.6882    4.7178   -0.0700 H   0  0  0  1  0  0  0  0  0  0  0  0
    0.6417    2.9987    0.9555 C   0  0  0  1  0  0  0  0  0  0  0  0
   -3.1251    7.1439   -0.9171 C   0  0  0  1  0  0  0  0  0  0  0  0
    2.0398    3.2931    1.4837 C   0  0  0  1  0  0  0  0  0  0  0  0
    0.0398    1.9881    1.3089 O   0  0  0  1  0  0  0  0  0  0  0  0
   -3.0315    5.5137    0.4203 H   0  0  0  1  0  0  0  0  0  0  0  0
   -2.9222    7.2030   -1.9660 H   0  0  0  1  0  0  0  0  0  0  0  0
   -2.6349    7.9505   -0.4132 H   0  0  0  1  0  0  0  0  0  0  0  0
   -4.1806    7.2096   -0.7541 H   0  0  0  1  0  0  0  0  0  0  0  0
    1.9693    3.8987    2.3630 H   0  0  0  1  0  0  0  0  0  0  0  0
    2.6008    3.8140    0.7362 H   0  0  0  1  0  0  0  0  0  0  0  0
    2.5314    2.3733    1.7229 H   0  0  0  1  0  0  0  0  0  0  0  0
   -6.0485    1.3134   -0.9416 F   0  0  0  1  0  0  0  0  0  0  0  0
   -5.0624    1.8688   -1.6718 C   0  0  0  1  0  0  0  0  0  0  0  0
   -5.3150    2.2973   -2.9656 C   0  0  0  1  0  0  0  0  0  0  0  0
   -4.3018    2.8624   -3.7169 C   0  0  0  1  0  0  0  0  0  0  0  0
   -3.0342    3.0054   -3.1745 C   0  0  0  1  0  0  0  0  0  0  0  0
   -2.7821    2.5782   -1.8845 C   0  0  0  1  0  0  0  0  0  0  0  0
   -3.7984    2.0115   -1.1311 C   0  0  0  1  0  0  0  0  0  0  0  0
   -1.4205    2.7027   -1.2425 C   0  0  0  1  0  0  0  0  0  0  0  0
   -4.5461    3.2739   -4.9758 F   0  0  0  1  0  0  0  0  0  0  0  0
   -6.2671    2.1936   -3.3711 H   0  0  0  1  0  0  0  0  0  0  0  0
   -2.2728    3.4343   -3.7384 H   0  0  0  1  0  0  0  0  0  0  0  0
   -3.6098    1.6937   -0.1590 H   0  0  0  1  0  0  0  0  0  0  0  0
   -1.2423    1.8153   -0.6719 H   0  0  0  1  0  0  0  0  0  0  0  0
   -0.6929    2.7772   -2.0235 H   0  0  0  1  0  0  0  0  0  0  0  0
  1  4  1  0  0  0  0
  2  4  1  0  0  0  0
  2  5  2  0  0  0  0
  2  6  1  0  0  0  0
  3  4  1  0  0  0  0
  3  7  1  0  0  0  0
  3  8  1  0  0  0  0
  4 26  1  0  0  0  0
  6  9  1  0  0  0  0
  6 12  1  0  0  0  0
  8 10  1  0  0  0  0
  8 11  2  0  0  0  0
  9 13  1  0  0  0  0
  9 14  1  0  0  0  0
  9 15  1  0  0  0  0
 10 16  1  0  0  0  0
 10 17  1  0  0  0  0
 10 18  1  0  0  0  0
 19 20  1  0  0  0  0
 20 21  4  0  0  0  0
 20 25  4  0  0  0  0
 21 22  4  0  0  0  0
 21 28  1  0  0  0  0
 22 23  4  0  0  0  0
 22 27  1  0  0  0  0
 23 24  4  0  0  0  0
 23 29  1  0  0  0  0
 24 25  4  0  0  0  0
 24 26  1  0  0  0  0
 25 30  1  0  0  0  0
 26 31  1  0  0  0  0
 26 32  1  0  0  0  0
M  END
> <BCLConfClusterSize>
1

> <ConfClashScore>
0 

> <ConfOneFourInteractionScore>
-0.979783 

> <ConfScore>
0.486998 

> <ConfScorePBest>
0.0028497 

> <ConfTolerance>
0.7734 

> <RosettaParamsInstructions>
M  ROOT 3
M  POLY_N_BB 3
M  POLY_CA_BB 4
M  POLY_C_BB 2
M  POLY_O_BB 5
M  POLY_IGNORE 9 10 11 12 13 14 15 16 17 18 
M  POLY_UPPER 6
M  POLY_LOWER 8
M  POLY_CHG 0
M  POLY_PROPERTIES ALPHA_AA D_AA PROTEIN AROMATIC POLYMER 
M  END

$$$$



 32 32  0  0  0  0  0  0  0  0999 V2000
   -0.2134    4.2836   -0.5180 H   0  0  0  1  0  0  0  0  0  0  0  0
   -1.5113    3.7490    1.0040 C   0  0  0  1  0  0  0  0  0  0  0  0
   -2.0608    5.0853   -0.9646 N   0  0  0  1  0  0  0  0  0  0  0  0
   -1.2362    3.9781   -0.4447 C   0  0  0  1  0  0  0  0  0  0  0  0
   -1.3749    4.6874    1.8618 O   0  0  0  1  0  0  0  0  0  0  0  0
   -1.9204    2.4598    1.3470 N   0  0  0  1  0  0  0  0  0  0  0  0
   -2.6018    4.9354   -1.7679 H   0  0  0  1  0  0  0  0  0  0  0  0
   -2.0958    6.2854   -0.3785 C   0  0  0  1  0  0  0  0  0  0  0  0
   -2.0777    2.0276    2.7557 C   0  0  0  1  0  0  0  0  0  0  0  0
   -3.1057    7.2653   -0.9433 C   0  0  0  1  0  0  0  0  0  0  0  0
   -1.3632    6.5939    0.5606 O   0  0  0  1  0  0  0  0  0  0  0  0
   -2.1104    1.8178    0.6313 H   0  0  0  1  0  0  0  0  0  0  0  0
   -1.1898    2.2653    3.3035 H   0  0  0  1  0  0  0  0  0  0  0  0
   -2.2444    0.9712    2.7880 H   0  0  0  1  0  0  0  0  0  0  0  0
   -2.9126    2.5344    3.1929 H   0  0  0  1  0  0  0  0  0  0  0  0
   -2.5943    8.1209   -1.3322 H   0  0  0  1  0  0  0  0  0  0  0  0
   -3.7762    7.5726   -0.1682 H   0  0  0  1  0  0  0  0  0  0  0  0
   -3.6593    6.7938   -1.7283 H   0  0  0  1  0  0  0  0  0  0  0  0
   -6.0846    1.3160   -0.9742 F   0  0  0  1  0  0  0  0  0  0  0  0
   -5.0669    1.8649   -1.6649 C   0  0  0  1  0  0  0  0  0  0  0  0
   -5.3140    2.2951   -2.9592 C   0  0  0  1  0  0  0  0  0  0  0  0
   -4.2971    2.8594   -3.7060 C   0  0  0  1  0  0  0  0  0  0  0  0
   -3.0314    3.0001   -3.1586 C   0  0  0  1  0  0  0  0  0  0  0  0
   -2.7848    2.5712   -1.8681 C   0  0  0  1  0  0  0  0  0  0  0  0
   -3.8048    2.0052   -1.1192 C   0  0  0  1  0  0  0  0  0  0  0  0
   -1.3867    2.7428   -1.3229 C   0  0  0  1  0  0  0  0  0  0  0  0
   -4.5360    3.2727   -4.9654 F   0  0  0  1  0  0  0  0  0  0  0  0
   -6.2646    2.1932   -3.3685 H   0  0  0  1  0  0  0  0  0  0  0  0
   -2.2672    3.4284   -3.7191 H   0  0  0  1  0  0  0  0  0  0  0  0
   -3.6204    1.6861   -0.1467 H   0  0  0  1  0  0  0  0  0  0  0  0
   -1.1395    1.8793   -0.7414 H   0  0  0  1  0  0  0  0  0  0  0  0
   -0.7080    2.8254   -2.1460 H   0  0  0  1  0  0  0  0  0  0  0  0
  1  4  1  0  0  0  0
  2  4  1  0  0  0  0
  2  5  2  0  0  0  0
  2  6  1  0  0  0  0
  3  4  1  0  0  0  0
  3  7  1  0  0  0  0
  3  8  1  0  0  0  0
  4 26  1  0  0  0  0
  6  9  1  0  0  0  0
  6 12  1  0  0  0  0
  8 10  1  0  0  0  0
  8 11  2  0  0  0  0
  9 13  1  0  0  0  0
  9 14  1  0  0  0  0
  9 15  1  0  0  0  0
 10 16  1  0  0  0  0
 10 17  1  0  0  0  0
 10 18  1  0  0  0  0
 19 20  1  0  0  0  0
 20 21  4  0  0  0  0
 20 25  4  0  0  0  0
 21 22  4  0  0  0  0
 21 28  1  0  0  0  0
 22 23  4  0  0  0  0
 22 27  1  0  0  0  0
 23 24  4  0  0  0  0
 23 29  1  0  0  0  0
 24 25  4  0  0  0  0
 24 26  1  0  0  0  0
 25 30  1  0  0  0  0
 26 31  1  0  0  0  0
 26 32  1  0  0  0  0
M  END
> <BCLConfClusterSize>
1

> <ConfClashScore>
0.000550121 

> <ConfOneFourInteractionScore>
-0.92929 

> <ConfScore>
0.495004 

> <ConfScorePBest>
0.00282122 

> <ConfTolerance>
0.445733 

> <RosettaParamsInstructions>
M  ROOT 3
M  POLY_N_BB 3
M  POLY_CA_BB 4
M  POLY_C_BB 2
M  POLY_O_BB 5
M  POLY_IGNORE 9 10 11 12 13 14 15 16 17 18 
M  POLY_UPPER 6
M  POLY_LOWER 8
M  POLY_CHG 0
M  POLY_PROPERTIES ALPHA_AA D_AA PROTEIN AROMATIC POLYMER 
M  END

$$$$



 32 32  0  0  0  0  0  0  0  0999 V2000
    0.0807    1.4430   -0.5006 H   0  0  0  1  0  0  0  0  0  0  0  0
    0.2544    1.3735   -2.5905 C   0  0  0  1  0  0  0  0  0  0  0  0
   -1.4663    0.2710   -1.2046 N   0  0  0  1  0  0  0  0  0  0  0  0
   -0.5876    1.4356   -1.3362 C   0  0  0  1  0  0  0  0  0  0  0  0
    1.0794    0.4754   -2.7529 O   0  0  0  1  0  0  0  0  0  0  0  0
    0.0753    2.3215   -3.5148 N   0  0  0  1  0  0  0  0  0  0  0  0
   -1.9415    0.1796   -0.3524 H   0  0  0  1  0  0  0  0  0  0  0  0
   -1.6939   -0.6819   -2.1155 C   0  0  0  1  0  0  0  0  0  0  0  0
    0.9267    2.4323   -4.6899 C   0  0  0  1  0  0  0  0  0  0  0  0
   -2.7235   -1.7270   -1.7324 C   0  0  0  1  0  0  0  0  0  0  0  0
   -1.1156   -0.7238   -3.1982 O   0  0  0  1  0  0  0  0  0  0  0  0
   -0.6547    2.9647   -3.3973 H   0  0  0  1  0  0  0  0  0  0  0  0
    0.5387    1.8132   -5.4716 H   0  0  0  1  0  0  0  0  0  0  0  0
    1.9182    2.1150   -4.4428 H   0  0  0  1  0  0  0  0  0  0  0  0
    0.9490    3.4501   -5.0191 H   0  0  0  1  0  0  0  0  0  0  0  0
   -2.7845   -2.4675   -2.5024 H   0  0  0  1  0  0  0  0  0  0  0  0
   -3.6782   -1.2592   -1.6114 H   0  0  0  1  0  0  0  0  0  0  0  0
   -2.4345   -2.1918   -0.8130 H   0  0  0  1  0  0  0  0  0  0  0  0
   -6.0566    1.3143   -0.9498 F   0  0  0  1  0  0  0  0  0  0  0  0
   -5.0656    1.8687   -1.6740 C   0  0  0  1  0  0  0  0  0  0  0  0
   -5.3106    2.2996   -2.9685 C   0  0  0  1  0  0  0  0  0  0  0  0
   -4.2924    2.8637   -3.7136 C   0  0  0  1  0  0  0  0  0  0  0  0
   -3.0273    3.0035   -3.1645 C   0  0  0  1  0  0  0  0  0  0  0  0
   -2.7828    2.5739   -1.8737 C   0  0  0  1  0  0  0  0  0  0  0  0
   -3.8042    2.0081   -1.1265 C   0  0  0  1  0  0  0  0  0  0  0  0
   -1.4031    2.7206   -1.2768 C   0  0  0  1  0  0  0  0  0  0  0  0
   -4.5723    3.2640   -4.9688 F   0  0  0  1  0  0  0  0  0  0  0  0
   -6.2607    2.1984   -3.3791 H   0  0  0  1  0  0  0  0  0  0  0  0
   -2.2621    3.4316   -3.7237 H   0  0  0  1  0  0  0  0  0  0  0  0
   -3.6213    1.6886   -0.1539 H   0  0  0  1  0  0  0  0  0  0  0  0
   -0.8784    3.4822   -1.8150 H   0  0  0  1  0  0  0  0  0  0  0  0
   -1.5045    3.0126   -0.2524 H   0  0  0  1  0  0  0  0  0  0  0  0
  1  4  1  0  0  0  0
  2  4  1  0  0  0  0
  2  5  2  0  0  0  0
  2  6  1  0  0  0  0
  3  4  1  0  0  0  0
  3  7  1  0  0  0  0
  3  8  1  0  0  0  0
  4 26  1  0  0  0  0
  6  9  1  0  0  0  0
  6 12  1  0  0  0  0
  8 10  1  0  0  0  0
  8 11  2  0  0  0  0
  9 13  1  0  0  0  0
  9 14  1  0  0  0  0
  9 15  1  0  0  0  0
 10 16  1  0  0  0  0
 10 17  1  0  0  0  0
 10 18  1  0  0  0  0
 19 20  1  0  0  0  0
 20 21  4  0  0  0  0
 20 25  4  0  0  0  0
 21 22  4  0  0  0  0
 21 28  1  0  0  0  0
 22 23  4  0  0  0  0
 22 27  1  0  0  0  0
 23 24  4  0  0  0  0
 23 29  1  0  0  0  0
 24 25  4  0  0  0  0
 24 26  1  0  0  0  0
 25 30  1  0  0  0  0
 26 31  1  0  0  0  0
 26 32  1  0  0  0  0
M  END
> <BCLConfClusterSize>
1

> <ConfClashScore>
0.000883274 

> <ConfOneFourInteractionScore>
-0.90437 

> <ConfScore>
0.495584 

> <ConfScorePBest>
0.00279274 

> <ConfTolerance>
0.473799 

> <RosettaParamsInstructions>
M  ROOT 3
M  POLY_N_BB 3
M  POLY_CA_BB 4
M  POLY_C_BB 2
M  POLY_O_BB 5
M  POLY_IGNORE 9 10 11 12 13 14 15 16 17 18 
M  POLY_UPPER 6
M  POLY_LOWER 8
M  POLY_CHG 0
M  POLY_PROPERTIES ALPHA_AA D_AA PROTEIN AROMATIC POLYMER 
M  END

$$$$



 32 32  0  0  0  0  0  0  0  0999 V2000
    0.5046    1.8675   -1.6331 H   0  0  0  1  0  0  0  0  0  0  0  0
    0.2303    3.1951   -3.2400 C   0  0  0  1  0  0  0  0  0  0  0  0
   -0.8165    1.0118   -2.9760 N   0  0  0  1  0  0  0  0  0  0  0  0
   -0.3117    2.1845   -2.2479 C   0  0  0  1  0  0  0  0  0  0  0  0
    1.1843    2.9191   -3.9626 O   0  0  0  1  0  0  0  0  0  0  0  0
   -0.3661    4.4036   -3.3043 N   0  0  0  1  0  0  0  0  0  0  0  0
   -1.7514    0.7451   -2.8530 H   0  0  0  1  0  0  0  0  0  0  0  0
   -0.0414    0.2933   -3.8037 C   0  0  0  1  0  0  0  0  0  0  0  0
    0.1369    5.4190   -4.2174 C   0  0  0  1  0  0  0  0  0  0  0  0
   -0.6724   -0.9624   -4.3730 C   0  0  0  1  0  0  0  0  0  0  0  0
    1.1077    0.6166   -4.0930 O   0  0  0  1  0  0  0  0  0  0  0  0
   -1.1396    4.5980   -2.7349 H   0  0  0  1  0  0  0  0  0  0  0  0
   -0.6803    6.0004   -4.5903 H   0  0  0  1  0  0  0  0  0  0  0  0
    0.6399    4.9457   -5.0347 H   0  0  0  1  0  0  0  0  0  0  0  0
    0.8210    6.0575   -3.6985 H   0  0  0  1  0  0  0  0  0  0  0  0
   -0.3178   -1.1199   -5.3702 H   0  0  0  1  0  0  0  0  0  0  0  0
   -1.7366   -0.8519   -4.3865 H   0  0  0  1  0  0  0  0  0  0  0  0
   -0.4082   -1.8016   -3.7641 H   0  0  0  1  0  0  0  0  0  0  0  0
   -6.0405    1.3075   -0.9204 F   0  0  0  1  0  0  0  0  0  0  0  0
   -5.0758    1.8666   -1.6758 C   0  0  0  1  0  0  0  0  0  0  0  0
   -5.3166    2.2988   -2.9707 C   0  0  0  1  0  0  0  0  0  0  0  0
   -4.2956    2.8623   -3.7124 C   0  0  0  1  0  0  0  0  0  0  0  0
   -3.0320    3.0002   -3.1595 C   0  0  0  1  0  0  0  0  0  0  0  0
   -2.7917    2.5694   -1.8684 C   0  0  0  1  0  0  0  0  0  0  0  0
   -3.8158    2.0042   -1.1246 C   0  0  0  1  0  0  0  0  0  0  0  0
   -1.3956    2.7381   -1.3170 C   0  0  0  1  0  0  0  0  0  0  0  0
   -4.5284    3.2774   -4.9724 F   0  0  0  1  0  0  0  0  0  0  0  0
   -6.2657    2.1990   -3.3841 H   0  0  0  1  0  0  0  0  0  0  0  0
   -2.2647    3.4280   -3.7162 H   0  0  0  1  0  0  0  0  0  0  0  0
   -3.6361    1.6836   -0.1516 H   0  0  0  1  0  0  0  0  0  0  0  0
   -1.2134    3.7814   -1.1646 H   0  0  0  1  0  0  0  0  0  0  0  0
   -1.3350    2.2243   -0.3804 H   0  0  0  1  0  0  0  0  0  0  0  0
  1  4  1  0  0  0  0
  2  4  1  0  0  0  0
  2  5  2  0  0  0  0
  2  6  1  0  0  0  0
  3  4  1  0  0  0  0
  3  7  1  0  0  0  0
  3  8  1  0  0  0  0
  4 26  1  0  0  0  0
  6  9  1  0  0  0  0
  6 12  1  0  0  0  0
  8 10  1  0  0  0  0
  8 11  2  0  0  0  0
  9 13  1  0  0  0  0
  9 14  1  0  0  0  0
  9 15  1  0  0  0  0
 10 16  1  0  0  0  0
 10 17  1  0  0  0  0
 10 18  1  0  0  0  0
 19 20  1  0  0  0  0
 20 21  4  0  0  0  0
 20 25  4  0  0  0  0
 21 22  4  0  0  0  0
 21 28  1  0  0  0  0
 22 23  4  0  0  0  0
 22 27  1  0  0  0  0
 23 24  4  0  0  0  0
 23 29  1  0  0  0  0
 24 25  4  0  0  0  0
 24 26  1  0  0  0  0
 25 30  1  0  0  0  0
 26 31  1  0  0  0  0
 26 32  1  0  0  0  0
M  END
> <BCLConfClusterSize>
1

> <ConfClashScore>
0 

> <ConfOneFourInteractionScore>
-0.92929 

> <ConfScore>
0.496758 

> <ConfScorePBest>
0.00276426 

> <ConfTolerance>
0.654879 

> <RosettaParamsInstructions>
M  ROOT 3
M  POLY_N_BB 3
M  POLY_CA_BB 4
M  POLY_C_BB 2
M  POLY_O_BB 5
M  POLY_IGNORE 9 10 11 12 13 14 15 16 17 18 
M  POLY_UPPER 6
M  POLY_LOWER 8
M  POLY_CHG 0
M  POLY_PROPERTIES ALPHA_AA D_AA PROTEIN AROMATIC POLYMER 
M  END

$$$$



 32 32  0  0  0  0  0  0  0  0999 V2000
    0.2936    1.7156   -0.5316 H   0  0  0  1  0  0  0  0  0  0  0  0
   -0.5865    0.4670   -2.0131 C   0  0  0  1  0  0  0  0  0  0  0  0
   -1.4245    0.8174    0.2444 N   0  0  0  1  0  0  0  0  0  0  0  0
   -0.6925    1.4586   -0.8578 C   0  0  0  1  0  0  0  0  0  0  0  0
   -1.5823   -0.0186   -2.5240 O   0  0  0  1  0  0  0  0  0  0  0  0
    0.6510    0.1763   -2.4152 N   0  0  0  1  0  0  0  0  0  0  0  0
   -2.1249    1.3247    0.7053 H   0  0  0  1  0  0  0  0  0  0  0  0
   -1.1679   -0.4329    0.6395 C   0  0  0  1  0  0  0  0  0  0  0  0
    0.9151   -0.7021   -3.5450 C   0  0  0  1  0  0  0  0  0  0  0  0
   -1.9369   -0.9102    1.8560 C   0  0  0  1  0  0  0  0  0  0  0  0
   -0.3641   -1.1636    0.0665 O   0  0  0  1  0  0  0  0  0  0  0  0
    1.4092    0.5678   -1.9332 H   0  0  0  1  0  0  0  0  0  0  0  0
    0.9427   -0.1262   -4.4464 H   0  0  0  1  0  0  0  0  0  0  0  0
    0.1397   -1.4361   -3.6147 H   0  0  0  1  0  0  0  0  0  0  0  0
    1.8571   -1.1898   -3.4047 H   0  0  0  1  0  0  0  0  0  0  0  0
   -2.8010   -1.4568    1.5405 H   0  0  0  1  0  0  0  0  0  0  0  0
   -2.2422   -0.0661    2.4384 H   0  0  0  1  0  0  0  0  0  0  0  0
   -1.3102   -1.5444    2.4475 H   0  0  0  1  0  0  0  0  0  0  0  0
   -6.0335    1.3084   -0.9179 F   0  0  0  1  0  0  0  0  0  0  0  0
   -5.0716    1.8680   -1.6765 C   0  0  0  1  0  0  0  0  0  0  0  0
   -5.3166    2.2989   -2.9710 C   0  0  0  1  0  0  0  0  0  0  0  0
   -4.2984    2.8630   -3.7161 C   0  0  0  1  0  0  0  0  0  0  0  0
   -3.0333    3.0028   -3.1670 C   0  0  0  1  0  0  0  0  0  0  0  0
   -2.7888    2.5732   -1.8762 C   0  0  0  1  0  0  0  0  0  0  0  0
   -3.8102    2.0074   -1.1290 C   0  0  0  1  0  0  0  0  0  0  0  0
   -1.4091    2.7199   -1.2793 C   0  0  0  1  0  0  0  0  0  0  0  0
   -4.5352    3.2769   -4.9757 F   0  0  0  1  0  0  0  0  0  0  0  0
   -6.2667    2.1977   -3.3816 H   0  0  0  1  0  0  0  0  0  0  0  0
   -2.2681    3.4309   -3.7262 H   0  0  0  1  0  0  0  0  0  0  0  0
   -3.6273    1.6879   -0.1564 H   0  0  0  1  0  0  0  0  0  0  0  0
   -0.7956    3.2086   -2.0072 H   0  0  0  1  0  0  0  0  0  0  0  0
   -1.4994    3.3415   -0.4131 H   0  0  0  1  0  0  0  0  0  0  0  0
  1  4  1  0  0  0  0
  2  4  1  0  0  0  0
  2  5  2  0  0  0  0
  2  6  1  0  0  0  0
  3  4  1  0  0  0  0
  3  7  1  0  0  0  0
  3  8  1  0  0  0  0
  4 26  1  0  0  0  0
  6  9  1  0  0  0  0
  6 12  1  0  0  0  0
  8 10  1  0  0  0  0
  8 11  2  0  0  0  0
  9 13  1  0  0  0  0
  9 14  1  0  0  0  0
  9 15  1  0  0  0  0
 10 16  1  0  0  0  0
 10 17  1  0  0  0  0
 10 18  1  0  0  0  0
 19 20  1  0  0  0  0
 20 21  4  0  0  0  0
 20 25  4  0  0  0  0
 21 22  4  0  0  0  0
 21 28  1  0  0  0  0
 22 23  4  0  0  0  0
 22 27  1  0  0  0  0
 23 24  4  0  0  0  0
 23 29  1  0  0  0  0
 24 25  4  0  0  0  0
 24 26  1  0  0  0  0
 25 30  1  0  0  0  0
 26 31  1  0  0  0  0
 26 32  1  0  0  0  0
M  END
> <BCLConfClusterSize>
1

> <ConfClashScore>
0 

> <ConfOneFourInteractionScore>
-0.982563 

> <ConfScore>
0.497801 

> <ConfScorePBest>
0.00273578 

> <ConfTolerance>
0.736152 

> <RosettaParamsInstructions>
M  ROOT 3
M  POLY_N_BB 3
M  POLY_CA_BB 4
M  POLY_C_BB 2
M  POLY_O_BB 5
M  POLY_IGNORE 9 10 11 12 13 14 15 16 17 18 
M  POLY_UPPER 6
M  POLY_LOWER 8
M  POLY_CHG 0
M  POLY_PROPERTIES ALPHA_AA D_AA PROTEIN AROMATIC POLYMER 
M  END

$$$$



 32 32  0  0  0  0  0  0  0  0999 V2000
    0.3495    1.5644   -1.3157 H   0  0  0  1  0  0  0  0  0  0  0  0
   -1.1606    0.3048   -2.0644 C   0  0  0  1  0  0  0  0  0  0  0  0
   -0.8094    0.9150    0.2700 N   0  0  0  1  0  0  0  0  0  0  0  0
   -0.6873    1.3924   -1.1147 C   0  0  0  1  0  0  0  0  0  0  0  0
   -0.7630    0.2534   -3.2166 O   0  0  0  1  0  0  0  0  0  0  0  0
   -2.0318   -0.5785   -1.5516 N   0  0  0  1  0  0  0  0  0  0  0  0
   -1.3800    1.4117    0.8929 H   0  0  0  1  0  0  0  0  0  0  0  0
   -0.1696   -0.1726    0.7089 C   0  0  0  1  0  0  0  0  0  0  0  0
   -2.6098   -1.6515   -2.3469 C   0  0  0  1  0  0  0  0  0  0  0  0
   -0.4024   -0.6108    2.1418 C   0  0  0  1  0  0  0  0  0  0  0  0
    0.5990   -0.8418    0.0196 O   0  0  0  1  0  0  0  0  0  0  0  0
   -2.2875   -0.4980   -0.6090 H   0  0  0  1  0  0  0  0  0  0  0  0
   -3.6773   -1.5875   -2.3111 H   0  0  0  1  0  0  0  0  0  0  0  0
   -2.2960   -2.5957   -1.9532 H   0  0  0  1  0  0  0  0  0  0  0  0
   -2.2811   -1.5603   -3.3611 H   0  0  0  1  0  0  0  0  0  0  0  0
    0.5296   -0.6237    2.6673 H   0  0  0  1  0  0  0  0  0  0  0  0
   -0.8296   -1.5918    2.1495 H   0  0  0  1  0  0  0  0  0  0  0  0
   -1.0716    0.0739    2.6196 H   0  0  0  1  0  0  0  0  0  0  0  0
   -6.0335    1.3084   -0.9179 F   0  0  0  1  0  0  0  0  0  0  0  0
   -5.0716    1.8680   -1.6765 C   0  0  0  1  0  0  0  0  0  0  0  0
   -5.3166    2.2989   -2.9710 C   0  0  0  1  0  0  0  0  0  0  0  0
   -4.2984    2.8630   -3.7161 C   0  0  0  1  0  0  0  0  0  0  0  0
   -3.0333    3.0028   -3.1670 C   0  0  0  1  0  0  0  0  0  0  0  0
   -2.7888    2.5732   -1.8762 C   0  0  0  1  0  0  0  0  0  0  0  0
   -3.8102    2.0074   -1.1290 C   0  0  0  1  0  0  0  0  0  0  0  0
   -1.4091    2.7199   -1.2793 C   0  0  0  1  0  0  0  0  0  0  0  0
   -4.5352    3.2769   -4.9757 F   0  0  0  1  0  0  0  0  0  0  0  0
   -6.2667    2.1977   -3.3816 H   0  0  0  1  0  0  0  0  0  0  0  0
   -2.2681    3.4309   -3.7262 H   0  0  0  1  0  0  0  0  0  0  0  0
   -3.6273    1.6879   -0.1564 H   0  0  0  1  0  0  0  0  0  0  0  0
   -0.8257    3.3476   -1.9201 H   0  0  0  1  0  0  0  0  0  0  0  0
   -1.5013    3.1790   -0.3172 H   0  0  0  1  0  0  0  0  0  0  0  0
  1  4  1  0  0  0  0
  2  4  1  0  0  0  0
  2  5  2  0  0  0  0
  2  6  1  0  0  0  0
  3  4  1  0  0  0  0
  3  7  1  0  0  0  0
  3  8  1  0  0  0  0
  4 26  1  0  0  0  0
  6  9  1  0  0  0  0
  6 12  1  0  0  0  0
  8 10  1  0  0  0  0
  8 11  2  0  0  0  0
  9 13  1  0  0  0  0
  9 14  1  0  0  0  0
  9 15  1  0  0  0  0
 10 16  1  0  0  0  0
 10 17  1  0  0  0  0
 10 18  1  0  0  0  0
 19 20  1  0  0  0  0
 20 21  4  0  0  0  0
 20 25  4  0  0  0  0
 21 22  4  0  0  0  0
 21 28  1  0  0  0  0
 22 23  4  0  0  0  0
 22 27  1  0  0  0  0
 23 24  4  0  0  0  0
 23 29  1  0  0  0  0
 24 25  4  0  0  0  0
 24 26  1  0  0  0  0
 25 30  1  0  0  0  0
 26 31  1  0  0  0  0
 26 32  1  0  0  0  0
M  END
> <BCLConfClusterSize>
1

> <ConfClashScore>
0 

> <ConfOneFourInteractionScore>
-0.942345 

> <ConfScore>
0.49923 

> <ConfScorePBest>
0.0027073 

> <ConfTolerance>
0.735907 

> <RosettaParamsInstructions>
M  ROOT 3
M  POLY_N_BB 3
M  POLY_CA_BB 4
M  POLY_C_BB 2
M  POLY_O_BB 5
M  POLY_IGNORE 9 10 11 12 13 14 15 16 17 18 
M  POLY_UPPER 6
M  POLY_LOWER 8
M  POLY_CHG 0
M  POLY_PROPERTIES ALPHA_AA D_AA PROTEIN AROMATIC POLYMER 
M  END

$$$$



 32 32  0  0  0  0  0  0  0  0999 V2000
   -2.0401    4.5249   -0.4001 H   0  0  0  1  0  0  0  0  0  0  0  0
   -0.6787    5.0661   -1.9060 C   0  0  0  1  0  0  0  0  0  0  0  0
   -0.1473    4.1704    0.3239 N   0  0  0  1  0  0  0  0  0  0  0  0
   -1.1165    4.1369   -0.7761 C   0  0  0  1  0  0  0  0  0  0  0  0
   -0.9969    4.8391   -3.0723 O   0  0  0  1  0  0  0  0  0  0  0  0
    0.1278    6.0729   -1.5345 N   0  0  0  1  0  0  0  0  0  0  0  0
   -0.4914    4.3382    1.2260 H   0  0  0  1  0  0  0  0  0  0  0  0
    1.1674    3.9897    0.1890 C   0  0  0  1  0  0  0  0  0  0  0  0
    0.5824    7.0905   -2.4703 C   0  0  0  1  0  0  0  0  0  0  0  0
    2.0026    4.0032    1.4755 C   0  0  0  1  0  0  0  0  0  0  0  0
    1.7016    3.7434   -0.8799 O   0  0  0  1  0  0  0  0  0  0  0  0
    0.4206    6.1244   -0.6007 H   0  0  0  1  0  0  0  0  0  0  0  0
    0.6853    8.0250   -1.9595 H   0  0  0  1  0  0  0  0  0  0  0  0
   -0.1319    7.1928   -3.2603 H   0  0  0  1  0  0  0  0  0  0  0  0
    1.5282    6.8018   -2.8791 H   0  0  0  1  0  0  0  0  0  0  0  0
    1.7380    4.8567    2.0642 H   0  0  0  1  0  0  0  0  0  0  0  0
    3.0419    4.0511    1.2254 H   0  0  0  1  0  0  0  0  0  0  0  0
    1.8106    3.1113    2.0346 H   0  0  0  1  0  0  0  0  0  0  0  0
   -6.0340    1.3103   -0.9232 F   0  0  0  1  0  0  0  0  0  0  0  0
   -5.0700    1.8696   -1.6794 C   0  0  0  1  0  0  0  0  0  0  0  0
   -5.3119    2.3014   -2.9742 C   0  0  0  1  0  0  0  0  0  0  0  0
   -4.2916    2.8651   -3.7168 C   0  0  0  1  0  0  0  0  0  0  0  0
   -3.0277    3.0035   -3.1648 C   0  0  0  1  0  0  0  0  0  0  0  0
   -2.7862    2.5730   -1.8738 C   0  0  0  1  0  0  0  0  0  0  0  0
   -3.8097    2.0076   -1.1291 C   0  0  0  1  0  0  0  0  0  0  0  0
   -1.4077    2.7182   -1.2739 C   0  0  0  1  0  0  0  0  0  0  0  0
   -4.5685    3.2664   -4.9723 F   0  0  0  1  0  0  0  0  0  0  0  0
   -6.2612    2.2013   -3.3869 H   0  0  0  1  0  0  0  0  0  0  0  0
   -2.2609    3.4314   -3.7222 H   0  0  0  1  0  0  0  0  0  0  0  0
   -3.6291    1.6873   -0.1563 H   0  0  0  1  0  0  0  0  0  0  0  0
   -1.3229    2.0433   -0.4479 H   0  0  0  1  0  0  0  0  0  0  0  0
   -0.6834    2.4634   -2.0191 H   0  0  0  1  0  0  0  0  0  0  0  0
  1  4  1  0  0  0  0
  2  4  1  0  0  0  0
  2  5  2  0  0  0  0
  2  6  1  0  0  0  0
  3  4  1  0  0  0  0
  3  7  1  0  0  0  0
  3  8  1  0  0  0  0
  4 26  1  0  0  0  0
  6  9  1  0  0  0  0
  6 12  1  0  0  0  0
  8 10  1  0  0  0  0
  8 11  2  0  0  0  0
  9 13  1  0  0  0  0
  9 14  1  0  0  0  0
  9 15  1  0  0  0  0
 10 16  1  0  0  0  0
 10 17  1  0  0  0  0
 10 18  1  0  0  0  0
 19 20  1  0  0  0  0
 20 21  4  0  0  0  0
 20 25  4  0  0  0  0
 21 22  4  0  0  0  0
 21 28  1  0  0  0  0
 22 23  4  0  0  0  0
 22 27  1  0  0  0  0
 23 24  4  0  0  0  0
 23 29  1  0  0  0  0
 24 25  4  0  0  0  0
 24 26  1  0  0  0  0
 25 30  1  0  0  0  0
 26 31  1  0  0  0  0
 26 32  1  0  0  0  0
M  END
> <BCLConfClusterSize>
1

> <ConfClashScore>
0 

> <ConfOneFourInteractionScore>
-0.949684 

> <ConfScore>
0.511436 

> <ConfScorePBest>
0.00267882 

> <ConfTolerance>
0.479188 

> <RosettaParamsInstructions>
M  ROOT 3
M  POLY_N_BB 3
M  POLY_CA_BB 4
M  POLY_C_BB 2
M  POLY_O_BB 5
M  POLY_IGNORE 9 10 11 12 13 14 15 16 17 18 
M  POLY_UPPER 6
M  POLY_LOWER 8
M  POLY_CHG 0
M  POLY_PROPERTIES ALPHA_AA D_AA PROTEIN AROMATIC POLYMER 
M  END

$$$$



 32 32  0  0  0  0  0  0  0  0999 V2000
    0.6232    3.0208   -1.7948 H   0  0  0  1  0  0  0  0  0  0  0  0
   -0.4736    4.6657   -2.5484 C   0  0  0  1  0  0  0  0  0  0  0  0
   -0.4012    2.3843   -3.4741 N   0  0  0  1  0  0  0  0  0  0  0  0
   -0.3281    3.1787   -2.2583 C   0  0  0  1  0  0  0  0  0  0  0  0
   -1.3776    5.1449   -3.2065 O   0  0  0  1  0  0  0  0  0  0  0  0
    0.4769    5.4628   -2.0262 N   0  0  0  1  0  0  0  0  0  0  0  0
   -0.9457    1.5694   -3.4746 H   0  0  0  1  0  0  0  0  0  0  0  0
    0.2725    2.7396   -4.6327 C   0  0  0  1  0  0  0  0  0  0  0  0
    0.3326    6.9014   -2.1922 C   0  0  0  1  0  0  0  0  0  0  0  0
    0.2089    1.8257   -5.8241 C   0  0  0  1  0  0  0  0  0  0  0  0
    0.8962    3.7852   -4.6461 O   0  0  0  1  0  0  0  0  0  0  0  0
    1.2443    5.0852   -1.5478 H   0  0  0  1  0  0  0  0  0  0  0  0
    0.8762    7.4062   -1.4212 H   0  0  0  1  0  0  0  0  0  0  0  0
   -0.7025    7.1653   -2.1299 H   0  0  0  1  0  0  0  0  0  0  0  0
    0.7179    7.1903   -3.1477 H   0  0  0  1  0  0  0  0  0  0  0  0
   -0.3969    0.9753   -5.5900 H   0  0  0  1  0  0  0  0  0  0  0  0
    1.1965    1.5009   -6.0773 H   0  0  0  1  0  0  0  0  0  0  0  0
   -0.2181    2.3502   -6.6532 H   0  0  0  1  0  0  0  0  0  0  0  0
   -6.0556    1.3105   -0.9392 F   0  0  0  1  0  0  0  0  0  0  0  0
   -5.0686    1.8657   -1.6683 C   0  0  0  1  0  0  0  0  0  0  0  0
   -5.3199    2.2947   -2.9622 C   0  0  0  1  0  0  0  0  0  0  0  0
   -4.3058    2.8595   -3.7124 C   0  0  0  1  0  0  0  0  0  0  0  0
   -3.0387    3.0020   -3.1688 C   0  0  0  1  0  0  0  0  0  0  0  0
   -2.7879    2.5744   -1.8786 C   0  0  0  1  0  0  0  0  0  0  0  0
   -3.8051    2.0078   -1.1264 C   0  0  0  1  0  0  0  0  0  0  0  0
   -1.4059    2.7240   -1.2878 C   0  0  0  1  0  0  0  0  0  0  0  0
   -4.5055    3.2847   -4.9747 F   0  0  0  1  0  0  0  0  0  0  0  0
   -6.2716    2.1914   -3.3686 H   0  0  0  1  0  0  0  0  0  0  0  0
   -2.2766    3.4307   -3.7318 H   0  0  0  1  0  0  0  0  0  0  0  0
   -3.6175    1.6897   -0.1541 H   0  0  0  1  0  0  0  0  0  0  0  0
   -1.4613    3.4418   -0.4962 H   0  0  0  1  0  0  0  0  0  0  0  0
   -1.1126    1.7751   -0.8897 H   0  0  0  1  0  0  0  0  0  0  0  0
  1  4  1  0  0  0  0
  2  4  1  0  0  0  0
  2  5  2  0  0  0  0
  2  6  1  0  0  0  0
  3  4  1  0  0  0  0
  3  7  1  0  0  0  0
  3  8  1  0  0  0  0
  4 26  1  0  0  0  0
  6  9  1  0  0  0  0
  6 12  1  0  0  0  0
  8 10  1  0  0  0  0
  8 11  2  0  0  0  0
  9 13  1  0  0  0  0
  9 14  1  0  0  0  0
  9 15  1  0  0  0  0
 10 16  1  0  0  0  0
 10 17  1  0  0  0  0
 10 18  1  0  0  0  0
 19 20  1  0  0  0  0
 20 21  4  0  0  0  0
 20 25  4  0  0  0  0
 21 22  4  0  0  0  0
 21 28  1  0  0  0  0
 22 23  4  0  0  0  0
 22 27  1  0  0  0  0
 23 24  4  0  0  0  0
 23 29  1  0  0  0  0
 24 25  4  0  0  0  0
 24 26  1  0  0  0  0
 25 30  1  0  0  0  0
 26 31  1  0  0  0  0
 26 32  1  0  0  0  0
M  END
> <BCLConfClusterSize>
1

> <ConfClashScore>
0.000126576 

> <ConfOneFourInteractionScore>
-0.968652 

> <ConfScore>
0.520377 

> <ConfScorePBest>
0.00265034 

> <ConfTolerance>
0.807299 

> <RosettaParamsInstructions>
M  ROOT 3
M  POLY_N_BB 3
M  POLY_CA_BB 4
M  POLY_C_BB 2
M  POLY_O_BB 5
M  POLY_IGNORE 9 10 11 12 13 14 15 16 17 18 
M  POLY_UPPER 6
M  POLY_LOWER 8
M  POLY_CHG 0
M  POLY_PROPERTIES ALPHA_AA D_AA PROTEIN AROMATIC POLYMER 
M  END

$$$$



 32 32  0  0  0  0  0  0  0  0999 V2000
   -1.6641    0.8974   -0.3471 H   0  0  0  1  0  0  0  0  0  0  0  0
   -1.5287    2.2467    1.2169 C   0  0  0  1  0  0  0  0  0  0  0  0
    0.3307    1.3143   -0.1683 N   0  0  0  1  0  0  0  0  0  0  0  0
   -1.0798    1.7722   -0.1516 C   0  0  0  1  0  0  0  0  0  0  0  0
   -2.7124    2.4813    1.4452 O   0  0  0  1  0  0  0  0  0  0  0  0
   -0.5948    2.4020    2.1686 N   0  0  0  1  0  0  0  0  0  0  0  0
    1.0066    1.8799   -0.5968 H   0  0  0  1  0  0  0  0  0  0  0  0
    0.7120    0.1574    0.3806 C   0  0  0  1  0  0  0  0  0  0  0  0
   -0.9741    2.8618    3.4963 C   0  0  0  1  0  0  0  0  0  0  0  0
    2.1372   -0.2714    0.0903 C   0  0  0  1  0  0  0  0  0  0  0  0
   -0.0316   -0.5297    1.0797 O   0  0  0  1  0  0  0  0  0  0  0  0
    0.3442    2.2053    1.9690 H   0  0  0  1  0  0  0  0  0  0  0  0
   -0.1045    3.2036    4.0178 H   0  0  0  1  0  0  0  0  0  0  0  0
   -1.4208    2.0549    4.0388 H   0  0  0  1  0  0  0  0  0  0  0  0
   -1.6757    3.6649    3.4085 H   0  0  0  1  0  0  0  0  0  0  0  0
    2.8164    0.4515    0.4916 H   0  0  0  1  0  0  0  0  0  0  0  0
    2.2788   -0.3447   -0.9677 H   0  0  0  1  0  0  0  0  0  0  0  0
    2.3220   -1.2235    0.5423 H   0  0  0  1  0  0  0  0  0  0  0  0
   -6.0561    1.3124   -0.9444 F   0  0  0  1  0  0  0  0  0  0  0  0
   -5.0671    1.8672   -1.6711 C   0  0  0  1  0  0  0  0  0  0  0  0
   -5.3152    2.2971   -2.9653 C   0  0  0  1  0  0  0  0  0  0  0  0
   -4.2991    2.8616   -3.7130 C   0  0  0  1  0  0  0  0  0  0  0  0
   -3.0330    3.0027   -3.1666 C   0  0  0  1  0  0  0  0  0  0  0  0
   -2.7853    2.5741   -1.8761 C   0  0  0  1  0  0  0  0  0  0  0  0
   -3.8046    2.0080   -1.1264 C   0  0  0  1  0  0  0  0  0  0  0  0
   -1.4045    2.7223   -1.2822 C   0  0  0  1  0  0  0  0  0  0  0  0
   -4.5390    3.2745   -4.9723 F   0  0  0  1  0  0  0  0  0  0  0  0
   -6.2661    2.1949   -3.3738 H   0  0  0  1  0  0  0  0  0  0  0  0
   -2.2693    3.4311   -3.7277 H   0  0  0  1  0  0  0  0  0  0  0  0
   -3.6194    1.6891   -0.1540 H   0  0  0  1  0  0  0  0  0  0  0  0
   -0.6905    2.5625   -2.0630 H   0  0  0  1  0  0  0  0  0  0  0  0
   -1.3102    3.7215   -0.9111 H   0  0  0  1  0  0  0  0  0  0  0  0
  1  4  1  0  0  0  0
  2  4  1  0  0  0  0
  2  5  2  0  0  0  0
  2  6  1  0  0  0  0
  3  4  1  0  0  0  0
  3  7  1  0  0  0  0
  3  8  1  0  0  0  0
  4 26  1  0  0  0  0
  6  9  1  0  0  0  0
  6 12  1  0  0  0  0
  8 10  1  0  0  0  0
  8 11  2  0  0  0  0
  9 13  1  0  0  0  0
  9 14  1  0  0  0  0
  9 15  1  0  0  0  0
 10 16  1  0  0  0  0
 10 17  1  0  0  0  0
 10 18  1  0  0  0  0
 19 20  1  0  0  0  0
 20 21  4  0  0  0  0
 20 25  4  0  0  0  0
 21 22  4  0  0  0  0
 21 28  1  0  0  0  0
 22 23  4  0  0  0  0
 22 27  1  0  0  0  0
 23 24  4  0  0  0  0
 23 29  1  0  0  0  0
 24 25  4  0  0  0  0
 24 26  1  0  0  0  0
 25 30  1  0  0  0  0
 26 31  1  0  0  0  0
 26 32  1  0  0  0  0
M  END
> <BCLConfClusterSize>
1

> <ConfClashScore>
0 

> <ConfOneFourInteractionScore>
-0.941392 

> <ConfScore>
0.522854 

> <ConfScorePBest>
0.00262186 

> <ConfTolerance>
0.955662 

> <RosettaParamsInstructions>
M  ROOT 3
M  POLY_N_BB 3
M  POLY_CA_BB 4
M  POLY_C_BB 2
M  POLY_O_BB 5
M  POLY_IGNORE 9 10 11 12 13 14 15 16 17 18 
M  POLY_UPPER 6
M  POLY_LOWER 8
M  POLY_CHG 0
M  POLY_PROPERTIES ALPHA_AA D_AA PROTEIN AROMATIC POLYMER 
M  END

$$$$



 32 32  0  0  0  0  0  0  0  0999 V2000
   -1.8756    4.2838    0.0568 H   0  0  0  1  0  0  0  0  0  0  0  0
    0.0838    3.6283    0.4920 C   0  0  0  1  0  0  0  0  0  0  0  0
   -2.0156    2.4764    1.0524 N   0  0  0  1  0  0  0  0  0  0  0  0
   -1.3532    3.3508    0.0959 C   0  0  0  1  0  0  0  0  0  0  0  0
    0.9480    2.7600    0.4051 O   0  0  0  1  0  0  0  0  0  0  0  0
    0.3358    4.8637    0.9342 N   0  0  0  1  0  0  0  0  0  0  0  0
   -2.9190    2.7052    1.3556 H   0  0  0  1  0  0  0  0  0  0  0  0
   -1.4291    1.3618    1.5362 C   0  0  0  1  0  0  0  0  0  0  0  0
    1.6606    5.2749    1.3848 C   0  0  0  1  0  0  0  0  0  0  0  0
   -2.1579    0.5833    2.6080 C   0  0  0  1  0  0  0  0  0  0  0  0
   -0.3340    0.9880    1.1193 O   0  0  0  1  0  0  0  0  0  0  0  0
   -0.3950    5.5162    0.9565 H   0  0  0  1  0  0  0  0  0  0  0  0
    1.5645    5.9327    2.2232 H   0  0  0  1  0  0  0  0  0  0  0  0
    2.1660    5.7823    0.5898 H   0  0  0  1  0  0  0  0  0  0  0  0
    2.2233    4.4113    1.6721 H   0  0  0  1  0  0  0  0  0  0  0  0
   -1.6028   -0.2994    2.8480 H   0  0  0  1  0  0  0  0  0  0  0  0
   -3.1283    0.3080    2.2510 H   0  0  0  1  0  0  0  0  0  0  0  0
   -2.2583    1.1902    3.4834 H   0  0  0  1  0  0  0  0  0  0  0  0
   -6.0556    1.3105   -0.9392 F   0  0  0  1  0  0  0  0  0  0  0  0
   -5.0686    1.8657   -1.6683 C   0  0  0  1  0  0  0  0  0  0  0  0
   -5.3199    2.2947   -2.9622 C   0  0  0  1  0  0  0  0  0  0  0  0
   -4.3058    2.8595   -3.7124 C   0  0  0  1  0  0  0  0  0  0  0  0
   -3.0387    3.0020   -3.1688 C   0  0  0  1  0  0  0  0  0  0  0  0
   -2.7879    2.5744   -1.8786 C   0  0  0  1  0  0  0  0  0  0  0  0
   -3.8051    2.0078   -1.1264 C   0  0  0  1  0  0  0  0  0  0  0  0
   -1.4059    2.7240   -1.2878 C   0  0  0  1  0  0  0  0  0  0  0  0
   -4.5055    3.2847   -4.9747 F   0  0  0  1  0  0  0  0  0  0  0  0
   -6.2716    2.1914   -3.3686 H   0  0  0  1  0  0  0  0  0  0  0  0
   -2.2766    3.4307   -3.7318 H   0  0  0  1  0  0  0  0  0  0  0  0
   -3.6175    1.6897   -0.1541 H   0  0  0  1  0  0  0  0  0  0  0  0
   -0.9661    1.7505   -1.2262 H   0  0  0  1  0  0  0  0  0  0  0  0
   -0.8285    3.3356   -1.9493 H   0  0  0  1  0  0  0  0  0  0  0  0
  1  4  1  0  0  0  0
  2  4  1  0  0  0  0
  2  5  2  0  0  0  0
  2  6  1  0  0  0  0
  3  4  1  0  0  0  0
  3  7  1  0  0  0  0
  3  8  1  0  0  0  0
  4 26  1  0  0  0  0
  6  9  1  0  0  0  0
  6 12  1  0  0  0  0
  8 10  1  0  0  0  0
  8 11  2  0  0  0  0
  9 13  1  0  0  0  0
  9 14  1  0  0  0  0
  9 15  1  0  0  0  0
 10 16  1  0  0  0  0
 10 17  1  0  0  0  0
 10 18  1  0  0  0  0
 19 20  1  0  0  0  0
 20 21  4  0  0  0  0
 20 25  4  0  0  0  0
 21 22  4  0  0  0  0
 21 28  1  0  0  0  0
 22 23  4  0  0  0  0
 22 27  1  0  0  0  0
 23 24  4  0  0  0  0
 23 29  1  0  0  0  0
 24 25  4  0  0  0  0
 24 26  1  0  0  0  0
 25 30  1  0  0  0  0
 26 31  1  0  0  0  0
 26 32  1  0  0  0  0
M  END
> <BCLConfClusterSize>
1

> <ConfClashScore>
0.000178583 

> <ConfOneFourInteractionScore>
-0.972663 

> <ConfScore>
0.523093 

> <ConfScorePBest>
0.00259338 

> <ConfTolerance>
1.06719 

> <RosettaParamsInstructions>
M  ROOT 3
M  POLY_N_BB 3
M  POLY_CA_BB 4
M  POLY_C_BB 2
M  POLY_O_BB 5
M  POLY_IGNORE 9 10 11 12 13 14 15 16 17 18 
M  POLY_UPPER 6
M  POLY_LOWER 8
M  POLY_CHG 0
M  POLY_PROPERTIES ALPHA_AA D_AA PROTEIN AROMATIC POLYMER 
M  END

$$$$



 32 32  0  0  0  0  0  0  0  0999 V2000
   -0.2005    2.2624    0.3286 H   0  0  0  1  0  0  0  0  0  0  0  0
   -1.5769    0.6870    0.0284 C   0  0  0  1  0  0  0  0  0  0  0  0
   -2.0542    2.9070    0.9796 N   0  0  0  1  0  0  0  0  0  0  0  0
   -1.2263    2.1654    0.0403 C   0  0  0  1  0  0  0  0  0  0  0  0
   -1.2567   -0.0376   -0.9130 O   0  0  0  1  0  0  0  0  0  0  0  0
   -2.2489    0.2383    1.1004 N   0  0  0  1  0  0  0  0  0  0  0  0
   -2.9279    2.5412    1.2312 H   0  0  0  1  0  0  0  0  0  0  0  0
   -1.6647    4.0693    1.5111 C   0  0  0  1  0  0  0  0  0  0  0  0
   -2.6259   -1.1643    1.1921 C   0  0  0  1  0  0  0  0  0  0  0  0
   -2.5599    4.6289    2.5994 C   0  0  0  1  0  0  0  0  0  0  0  0
   -0.6477    4.6621    1.1532 O   0  0  0  1  0  0  0  0  0  0  0  0
   -2.4862    0.8567    1.8228 H   0  0  0  1  0  0  0  0  0  0  0  0
   -3.6919   -1.2507    1.1571 H   0  0  0  1  0  0  0  0  0  0  0  0
   -2.2655   -1.5707    2.1140 H   0  0  0  1  0  0  0  0  0  0  0  0
   -2.1976   -1.7028    0.3727 H   0  0  0  1  0  0  0  0  0  0  0  0
   -1.9570    5.0533    3.3748 H   0  0  0  1  0  0  0  0  0  0  0  0
   -3.1614    3.8427    3.0056 H   0  0  0  1  0  0  0  0  0  0  0  0
   -3.1932    5.3858    2.1858 H   0  0  0  1  0  0  0  0  0  0  0  0
   -6.0473    1.3066   -0.9228 F   0  0  0  1  0  0  0  0  0  0  0  0
   -5.0798    1.8652   -1.6750 C   0  0  0  1  0  0  0  0  0  0  0  0
   -5.3165    2.2987   -2.9703 C   0  0  0  1  0  0  0  0  0  0  0  0
   -4.2928    2.8617   -3.7087 C   0  0  0  1  0  0  0  0  0  0  0  0
   -3.0306    2.9978   -3.1520 C   0  0  0  1  0  0  0  0  0  0  0  0
   -2.7944    2.5657   -1.8606 C   0  0  0  1  0  0  0  0  0  0  0  0
   -3.8213    2.0010   -1.1201 C   0  0  0  1  0  0  0  0  0  0  0  0
   -1.3839    2.7558   -1.3548 C   0  0  0  1  0  0  0  0  0  0  0  0
   -4.5216    3.2780   -4.9689 F   0  0  0  1  0  0  0  0  0  0  0  0
   -6.2645    2.2002   -3.3864 H   0  0  0  1  0  0  0  0  0  0  0  0
   -2.2613    3.4251   -3.7062 H   0  0  0  1  0  0  0  0  0  0  0  0
   -3.6447    1.6795   -0.1470 H   0  0  0  1  0  0  0  0  0  0  0  0
   -0.7036    2.2679   -2.0211 H   0  0  0  1  0  0  0  0  0  0  0  0
   -1.1616    3.8019   -1.3202 H   0  0  0  1  0  0  0  0  0  0  0  0
  1  4  1  0  0  0  0
  2  4  1  0  0  0  0
  2  5  2  0  0  0  0
  2  6  1  0  0  0  0
  3  4  1  0  0  0  0
  3  7  1  0  0  0  0
  3  8  1  0  0  0  0
  4 26  1  0  0  0  0
  6  9  1  0  0  0  0
  6 12  1  0  0  0  0
  8 10  1  0  0  0  0
  8 11  2  0  0  0  0
  9 13  1  0  0  0  0
  9 14  1  0  0  0  0
  9 15  1  0  0  0  0
 10 16  1  0  0  0  0
 10 17  1  0  0  0  0
 10 18  1  0  0  0  0
 19 20  1  0  0  0  0
 20 21  4  0  0  0  0
 20 25  4  0  0  0  0
 21 22  4  0  0  0  0
 21 28  1  0  0  0  0
 22 23  4  0  0  0  0
 22 27  1  0  0  0  0
 23 24  4  0  0  0  0
 23 29  1  0  0  0  0
 24 25  4  0  0  0  0
 24 26  1  0  0  0  0
 25 30  1  0  0  0  0
 26 31  1  0  0  0  0
 26 32  1  0  0  0  0
M  END
> <BCLConfClusterSize>
1

> <ConfClashScore>
0 

> <ConfOneFourInteractionScore>
-0.950281 

> <ConfScore>
0.524526 

> <ConfScorePBest>
0.0025649 

> <ConfTolerance>
0.958862 

> <RosettaParamsInstructions>
M  ROOT 3
M  POLY_N_BB 3
M  POLY_CA_BB 4
M  POLY_C_BB 2
M  POLY_O_BB 5
M  POLY_IGNORE 9 10 11 12 13 14 15 16 17 18 
M  POLY_UPPER 6
M  POLY_LOWER 8
M  POLY_CHG 0
M  POLY_PROPERTIES ALPHA_AA D_AA PROTEIN AROMATIC POLYMER 
M  END

$$$$



 32 32  0  0  0  0  0  0  0  0999 V2000
   -1.9078    4.3140    0.0063 H   0  0  0  1  0  0  0  0  0  0  0  0
   -1.2559    5.1892   -1.7853 C   0  0  0  1  0  0  0  0  0  0  0  0
    0.1356    4.1058   -0.0189 N   0  0  0  1  0  0  0  0  0  0  0  0
   -1.1420    4.1207   -0.7155 C   0  0  0  1  0  0  0  0  0  0  0  0
   -1.9125    6.2010   -1.6022 O   0  0  0  1  0  0  0  0  0  0  0  0
   -0.5935    4.9443   -2.9270 N   0  0  0  1  0  0  0  0  0  0  0  0
    0.1647    4.3793    0.9217 H   0  0  0  1  0  0  0  0  0  0  0  0
    1.2704    3.7323   -0.6171 C   0  0  0  1  0  0  0  0  0  0  0  0
   -0.6595    5.8406   -4.0717 C   0  0  0  1  0  0  0  0  0  0  0  0
    2.5265    3.8436    0.2248 C   0  0  0  1  0  0  0  0  0  0  0  0
    1.3126    3.3252   -1.7664 O   0  0  0  1  0  0  0  0  0  0  0  0
   -0.0465    4.1337   -2.9919 H   0  0  0  1  0  0  0  0  0  0  0  0
   -0.5285    5.2790   -4.9730 H   0  0  0  1  0  0  0  0  0  0  0  0
    0.1142    6.5755   -3.9939 H   0  0  0  1  0  0  0  0  0  0  0  0
   -1.6129    6.3261   -4.0896 H   0  0  0  1  0  0  0  0  0  0  0  0
    2.7149    2.9090    0.7105 H   0  0  0  1  0  0  0  0  0  0  0  0
    2.3950    4.6081    0.9618 H   0  0  0  1  0  0  0  0  0  0  0  0
    3.3560    4.0923   -0.4037 H   0  0  0  1  0  0  0  0  0  0  0  0
   -6.0561    1.3124   -0.9444 F   0  0  0  1  0  0  0  0  0  0  0  0
   -5.0671    1.8672   -1.6711 C   0  0  0  1  0  0  0  0  0  0  0  0
   -5.3152    2.2971   -2.9653 C   0  0  0  1  0  0  0  0  0  0  0  0
   -4.2991    2.8616   -3.7130 C   0  0  0  1  0  0  0  0  0  0  0  0
   -3.0330    3.0027   -3.1666 C   0  0  0  1  0  0  0  0  0  0  0  0
   -2.7853    2.5741   -1.8761 C   0  0  0  1  0  0  0  0  0  0  0  0
   -3.8046    2.0080   -1.1264 C   0  0  0  1  0  0  0  0  0  0  0  0
   -1.4045    2.7223   -1.2822 C   0  0  0  1  0  0  0  0  0  0  0  0
   -4.5390    3.2745   -4.9723 F   0  0  0  1  0  0  0  0  0  0  0  0
   -6.2661    2.1949   -3.3738 H   0  0  0  1  0  0  0  0  0  0  0  0
   -2.2693    3.4311   -3.7277 H   0  0  0  1  0  0  0  0  0  0  0  0
   -3.6194    1.6891   -0.1540 H   0  0  0  1  0  0  0  0  0  0  0  0
   -1.2950    2.0087   -0.4925 H   0  0  0  1  0  0  0  0  0  0  0  0
   -0.6821    2.5233   -2.0461 H   0  0  0  1  0  0  0  0  0  0  0  0
  1  4  1  0  0  0  0
  2  4  1  0  0  0  0
  2  5  2  0  0  0  0
  2  6  1  0  0  0  0
  3  4  1  0  0  0  0
  3  7  1  0  0  0  0
  3  8  1  0  0  0  0
  4 26  1  0  0  0  0
  6  9  1  0  0  0  0
  6 12  1  0  0  0  0
  8 10  1  0  0  0  0
  8 11  2  0  0  0  0
  9 13  1  0  0  0  0
  9 14  1  0  0  0  0
  9 15  1  0  0  0  0
 10 16  1  0  0  0  0
 10 17  1  0  0  0  0
 10 18  1  0  0  0  0
 19 20  1  0  0  0  0
 20 21  4  0  0  0  0
 20 25  4  0  0  0  0
 21 22  4  0  0  0  0
 21 28  1  0  0  0  0
 22 23  4  0  0  0  0
 22 27  1  0  0  0  0
 23 24  4  0  0  0  0
 23 29  1  0  0  0  0
 24 25  4  0  0  0  0
 24 26  1  0  0  0  0
 25 30  1  0  0  0  0
 26 31  1  0  0  0  0
 26 32  1  0  0  0  0
M  END
> <BCLConfClusterSize>
1

> <ConfClashScore>
0 

> <ConfOneFourInteractionScore>
-0.927228 

> <ConfScore>
0.532807 

> <ConfScorePBest>
0.00253641 

> <ConfTolerance>
0.902308 

> <RosettaParamsInstructions>
M  ROOT 3
M  POLY_N_BB 3
M  POLY_CA_BB 4
M  POLY_C_BB 2
M  POLY_O_BB 5
M  POLY_IGNORE 9 10 11 12 13 14 15 16 17 18 
M  POLY_UPPER 6
M  POLY_LOWER 8
M  POLY_CHG 0
M  POLY_PROPERTIES ALPHA_AA D_AA PROTEIN AROMATIC POLYMER 
M  END

$$$$



 32 32  0  0  0  0  0  0  0  0999 V2000
   -1.6526    4.8119   -1.2990 H   0  0  0  1  0  0  0  0  0  0  0  0
   -0.2540    4.3554   -2.8042 C   0  0  0  1  0  0  0  0  0  0  0  0
    0.1320    4.3895   -0.3658 N   0  0  0  1  0  0  0  0  0  0  0  0
   -0.8383    4.1280   -1.4183 C   0  0  0  1  0  0  0  0  0  0  0  0
   -0.9009    4.9021   -3.6822 O   0  0  0  1  0  0  0  0  0  0  0  0
    1.0022    3.9183   -2.9863 N   0  0  0  1  0  0  0  0  0  0  0  0
    1.0652    4.5570   -0.6138 H   0  0  0  1  0  0  0  0  0  0  0  0
   -0.2051    4.4091    0.9269 C   0  0  0  1  0  0  0  0  0  0  0  0
    1.6650    3.9749   -4.2806 C   0  0  0  1  0  0  0  0  0  0  0  0
    0.9285    4.6713    1.8993 C   0  0  0  1  0  0  0  0  0  0  0  0
   -1.3561    4.2282    1.3219 O   0  0  0  1  0  0  0  0  0  0  0  0
    1.4898    3.5483   -2.2210 H   0  0  0  1  0  0  0  0  0  0  0  0
    2.4568    3.2557   -4.3082 H   0  0  0  1  0  0  0  0  0  0  0  0
    2.0679    4.9545   -4.4322 H   0  0  0  1  0  0  0  0  0  0  0  0
    0.9577    3.7561   -5.0531 H   0  0  0  1  0  0  0  0  0  0  0  0
    1.4928    3.7732    2.0406 H   0  0  0  1  0  0  0  0  0  0  0  0
    0.5261    4.9907    2.8380 H   0  0  0  1  0  0  0  0  0  0  0  0
    1.5663    5.4349    1.5057 H   0  0  0  1  0  0  0  0  0  0  0  0
   -6.0566    1.3143   -0.9498 F   0  0  0  1  0  0  0  0  0  0  0  0
   -5.0656    1.8687   -1.6740 C   0  0  0  1  0  0  0  0  0  0  0  0
   -5.3106    2.2996   -2.9685 C   0  0  0  1  0  0  0  0  0  0  0  0
   -4.2924    2.8637   -3.7136 C   0  0  0  1  0  0  0  0  0  0  0  0
   -3.0273    3.0035   -3.1645 C   0  0  0  1  0  0  0  0  0  0  0  0
   -2.7828    2.5739   -1.8737 C   0  0  0  1  0  0  0  0  0  0  0  0
   -3.8042    2.0081   -1.1265 C   0  0  0  1  0  0  0  0  0  0  0  0
   -1.4031    2.7206   -1.2768 C   0  0  0  1  0  0  0  0  0  0  0  0
   -4.5723    3.2640   -4.9688 F   0  0  0  1  0  0  0  0  0  0  0  0
   -6.2607    2.1984   -3.3791 H   0  0  0  1  0  0  0  0  0  0  0  0
   -2.2621    3.4316   -3.7237 H   0  0  0  1  0  0  0  0  0  0  0  0
   -3.6213    1.6886   -0.1539 H   0  0  0  1  0  0  0  0  0  0  0  0
   -1.4546    2.4774   -0.2361 H   0  0  0  1  0  0  0  0  0  0  0  0
   -0.7438    2.0379   -1.7709 H   0  0  0  1  0  0  0  0  0  0  0  0
  1  4  1  0  0  0  0
  2  4  1  0  0  0  0
  2  5  2  0  0  0  0
  2  6  1  0  0  0  0
  3  4  1  0  0  0  0
  3  7  1  0  0  0  0
  3  8  1  0  0  0  0
  4 26  1  0  0  0  0
  6  9  1  0  0  0  0
  6 12  1  0  0  0  0
  8 10  1  0  0  0  0
  8 11  2  0  0  0  0
  9 13  1  0  0  0  0
  9 14  1  0  0  0  0
  9 15  1  0  0  0  0
 10 16  1  0  0  0  0
 10 17  1  0  0  0  0
 10 18  1  0  0  0  0
 19 20  1  0  0  0  0
 20 21  4  0  0  0  0
 20 25  4  0  0  0  0
 21 22  4  0  0  0  0
 21 28  1  0  0  0  0
 22 23  4  0  0  0  0
 22 27  1  0  0  0  0
 23 24  4  0  0  0  0
 23 29  1  0  0  0  0
 24 25  4  0  0  0  0
 24 26  1  0  0  0  0
 25 30  1  0  0  0  0
 26 31  1  0  0  0  0
 26 32  1  0  0  0  0
M  END
> <BCLConfClusterSize>
1

> <ConfClashScore>
0 

> <ConfOneFourInteractionScore>
-0.94293 

> <ConfScore>
0.535058 

> <ConfScorePBest>
0.00250793 

> <ConfTolerance>
0.926806 

> <RosettaParamsInstructions>
M  ROOT 3
M  POLY_N_BB 3
M  POLY_CA_BB 4
M  POLY_C_BB 2
M  POLY_O_BB 5
M  POLY_IGNORE 9 10 11 12 13 14 15 16 17 18 
M  POLY_UPPER 6
M  POLY_LOWER 8
M  POLY_CHG 0
M  POLY_PROPERTIES ALPHA_AA D_AA PROTEIN AROMATIC POLYMER 
M  END

$$$$



 32 32  0  0  0  0  0  0  0  0999 V2000
   -1.2862    4.8839   -1.1401 H   0  0  0  1  0  0  0  0  0  0  0  0
   -0.0709    4.1108    0.3962 C   0  0  0  1  0  0  0  0  0  0  0  0
   -2.5375    4.2297    0.3574 N   0  0  0  1  0  0  0  0  0  0  0  0
   -1.3364    4.0691   -0.4484 C   0  0  0  1  0  0  0  0  0  0  0  0
    0.9460    4.6703   -0.0110 O   0  0  0  1  0  0  0  0  0  0  0  0
   -0.1596    3.5892    1.6230 N   0  0  0  1  0  0  0  0  0  0  0  0
   -2.5046    3.9932    1.3079 H   0  0  0  1  0  0  0  0  0  0  0  0
   -3.6949    4.6931   -0.1585 C   0  0  0  1  0  0  0  0  0  0  0  0
    1.0254    3.6169    2.4672 C   0  0  0  1  0  0  0  0  0  0  0  0
   -4.9067    4.7411    0.7443 C   0  0  0  1  0  0  0  0  0  0  0  0
   -3.7647    5.0658   -1.3280 O   0  0  0  1  0  0  0  0  0  0  0  0
   -0.9989    3.1991    1.9452 H   0  0  0  1  0  0  0  0  0  0  0  0
    1.9002    3.5239    1.8581 H   0  0  0  1  0  0  0  0  0  0  0  0
    0.9870    2.8043    3.1622 H   0  0  0  1  0  0  0  0  0  0  0  0
    1.0604    4.5430    3.0021 H   0  0  0  1  0  0  0  0  0  0  0  0
   -5.2353    5.7542    0.8474 H   0  0  0  1  0  0  0  0  0  0  0  0
   -4.6500    4.3500    1.7066 H   0  0  0  1  0  0  0  0  0  0  0  0
   -5.6924    4.1532    0.3179 H   0  0  0  1  0  0  0  0  0  0  0  0
   -6.0589    1.3180   -0.9427 F   0  0  0  1  0  0  0  0  0  0  0  0
   -5.0676    1.8663   -1.6711 C   0  0  0  1  0  0  0  0  0  0  0  0
   -5.3167    2.3031   -2.9629 C   0  0  0  1  0  0  0  0  0  0  0  0
   -4.2982    2.8609   -3.7124 C   0  0  0  1  0  0  0  0  0  0  0  0
   -3.0288    2.9884   -3.1703 C   0  0  0  1  0  0  0  0  0  0  0  0
   -2.7802    2.5530   -1.8823 C   0  0  0  1  0  0  0  0  0  0  0  0
   -3.8019    1.9935   -1.1307 C   0  0  0  1  0  0  0  0  0  0  0  0
   -1.4181    2.7792   -1.2701 C   0  0  0  1  0  0  0  0  0  0  0  0
   -4.5390    3.2805   -4.9693 F   0  0  0  1  0  0  0  0  0  0  0  0
   -6.2700    2.2110   -3.3681 H   0  0  0  1  0  0  0  0  0  0  0  0
   -2.2634    3.4118   -3.7328 H   0  0  0  1  0  0  0  0  0  0  0  0
   -3.6159    1.6695   -0.1601 H   0  0  0  1  0  0  0  0  0  0  0  0
   -1.1910    1.9525   -0.6298 H   0  0  0  1  0  0  0  0  0  0  0  0
   -0.6951    2.8304   -2.0572 H   0  0  0  1  0  0  0  0  0  0  0  0
  1  4  1  0  0  0  0
  2  4  1  0  0  0  0
  2  5  2  0  0  0  0
  2  6  1  0  0  0  0
  3  4  1  0  0  0  0
  3  7  1  0  0  0  0
  3  8  1  0  0  0  0
  4 26  1  0  0  0  0
  6  9  1  0  0  0  0
  6 12  1  0  0  0  0
  8 10  1  0  0  0  0
  8 11  2  0  0  0  0
  9 13  1  0  0  0  0
  9 14  1  0  0  0  0
  9 15  1  0  0  0  0
 10 16  1  0  0  0  0
 10 17  1  0  0  0  0
 10 18  1  0  0  0  0
 19 20  1  0  0  0  0
 20 21  4  0  0  0  0
 20 25  4  0  0  0  0
 21 22  4  0  0  0  0
 21 28  1  0  0  0  0
 22 23  4  0  0  0  0
 22 27  1  0  0  0  0
 23 24  4  0  0  0  0
 23 29  1  0  0  0  0
 24 25  4  0  0  0  0
 24 26  1  0  0  0  0
 25 30  1  0  0  0  0
 26 31  1  0  0  0  0
 26 32  1  0  0  0  0
M  END
> <BCLConfClusterSize>
1

> <ConfClashScore>
0 

> <ConfOneFourInteractionScore>
-0.932828 

> <ConfScore>
0.535956 

> <ConfScorePBest>
0.00247945 

> <ConfTolerance>
1.16073 

> <RosettaParamsInstructions>
M  ROOT 3
M  POLY_N_BB 3
M  POLY_CA_BB 4
M  POLY_C_BB 2
M  POLY_O_BB 5
M  POLY_IGNORE 9 10 11 12 13 14 15 16 17 18 
M  POLY_UPPER 6
M  POLY_LOWER 8
M  POLY_CHG 0
M  POLY_PROPERTIES ALPHA_AA D_AA PROTEIN AROMATIC POLYMER 
M  END

$$$$



 32 32  0  0  0  0  0  0  0  0999 V2000
   -0.3032    4.0355   -0.0731 H   0  0  0  1  0  0  0  0  0  0  0  0
   -1.5404    2.9945    1.2662 C   0  0  0  1  0  0  0  0  0  0  0  0
   -2.2026    4.8182   -0.2622 N   0  0  0  1  0  0  0  0  0  0  0  0
   -1.3053    3.6605   -0.0865 C   0  0  0  1  0  0  0  0  0  0  0  0
   -2.5861    2.3660    1.4248 O   0  0  0  1  0  0  0  0  0  0  0  0
   -0.6010    3.1277    2.2068 N   0  0  0  1  0  0  0  0  0  0  0  0
   -2.7272    4.8635   -1.0887 H   0  0  0  1  0  0  0  0  0  0  0  0
   -2.3538    5.8096    0.6206 C   0  0  0  1  0  0  0  0  0  0  0  0
   -0.7801    2.5082    3.5114 C   0  0  0  1  0  0  0  0  0  0  0  0
   -3.2697    6.9447    0.1684 C   0  0  0  1  0  0  0  0  0  0  0  0
   -1.7592    5.8676    1.6843 O   0  0  0  1  0  0  0  0  0  0  0  0
    0.2105    3.6436    2.0178 H   0  0  0  1  0  0  0  0  0  0  0  0
   -1.6562    2.9069    3.9788 H   0  0  0  1  0  0  0  0  0  0  0  0
    0.0740    2.7118    4.1229 H   0  0  0  1  0  0  0  0  0  0  0  0
   -0.8899    1.4506    3.3917 H   0  0  0  1  0  0  0  0  0  0  0  0
   -4.0364    6.5534   -0.4671 H   0  0  0  1  0  0  0  0  0  0  0  0
   -2.6975    7.6715   -0.3693 H   0  0  0  1  0  0  0  0  0  0  0  0
   -3.7168    7.4045    1.0249 H   0  0  0  1  0  0  0  0  0  0  0  0
   -6.0561    1.3124   -0.9444 F   0  0  0  1  0  0  0  0  0  0  0  0
   -5.0671    1.8672   -1.6711 C   0  0  0  1  0  0  0  0  0  0  0  0
   -5.3152    2.2971   -2.9653 C   0  0  0  1  0  0  0  0  0  0  0  0
   -4.2991    2.8616   -3.7130 C   0  0  0  1  0  0  0  0  0  0  0  0
   -3.0330    3.0027   -3.1666 C   0  0  0  1  0  0  0  0  0  0  0  0
   -2.7853    2.5741   -1.8761 C   0  0  0  1  0  0  0  0  0  0  0  0
   -3.8046    2.0080   -1.1264 C   0  0  0  1  0  0  0  0  0  0  0  0
   -1.4045    2.7223   -1.2822 C   0  0  0  1  0  0  0  0  0  0  0  0
   -4.5390    3.2745   -4.9723 F   0  0  0  1  0  0  0  0  0  0  0  0
   -6.2661    2.1949   -3.3738 H   0  0  0  1  0  0  0  0  0  0  0  0
   -2.2693    3.4311   -3.7277 H   0  0  0  1  0  0  0  0  0  0  0  0
   -3.6194    1.6891   -0.1540 H   0  0  0  1  0  0  0  0  0  0  0  0
   -1.0737    1.7537   -0.9702 H   0  0  0  1  0  0  0  0  0  0  0  0
   -0.7542    3.0925   -2.0471 H   0  0  0  1  0  0  0  0  0  0  0  0
  1  4  1  0  0  0  0
  2  4  1  0  0  0  0
  2  5  2  0  0  0  0
  2  6  1  0  0  0  0
  3  4  1  0  0  0  0
  3  7  1  0  0  0  0
  3  8  1  0  0  0  0
  4 26  1  0  0  0  0
  6  9  1  0  0  0  0
  6 12  1  0  0  0  0
  8 10  1  0  0  0  0
  8 11  2  0  0  0  0
  9 13  1  0  0  0  0
  9 14  1  0  0  0  0
  9 15  1  0  0  0  0
 10 16  1  0  0  0  0
 10 17  1  0  0  0  0
 10 18  1  0  0  0  0
 19 20  1  0  0  0  0
 20 21  4  0  0  0  0
 20 25  4  0  0  0  0
 21 22  4  0  0  0  0
 21 28  1  0  0  0  0
 22 23  4  0  0  0  0
 22 27  1  0  0  0  0
 23 24  4  0  0  0  0
 23 29  1  0  0  0  0
 24 25  4  0  0  0  0
 24 26  1  0  0  0  0
 25 30  1  0  0  0  0
 26 31  1  0  0  0  0
 26 32  1  0  0  0  0
M  END
> <BCLConfClusterSize>
1

> <ConfClashScore>
0 

> <ConfOneFourInteractionScore>
-0.959688 

> <ConfScore>
0.538154 

> <ConfScorePBest>
0.00245097 

> <ConfTolerance>
0.869355 

> <RosettaParamsInstructions>
M  ROOT 3
M  POLY_N_BB 3
M  POLY_CA_BB 4
M  POLY_C_BB 2
M  POLY_O_BB 5
M  POLY_IGNORE 9 10 11 12 13 14 15 16 17 18 
M  POLY_UPPER 6
M  POLY_LOWER 8
M  POLY_CHG 0
M  POLY_PROPERTIES ALPHA_AA D_AA PROTEIN AROMATIC POLYMER 
M  END

$$$$



 32 32  0  0  0  0  0  0  0  0999 V2000
   -0.0756    4.0676   -0.3902 H   0  0  0  1  0  0  0  0  0  0  0  0
   -1.8532    4.2647    0.6968 C   0  0  0  1  0  0  0  0  0  0  0  0
   -1.3695    5.1264   -1.5897 N   0  0  0  1  0  0  0  0  0  0  0  0
   -1.1216    4.0578   -0.6152 C   0  0  0  1  0  0  0  0  0  0  0  0
   -1.6664    3.5259    1.6627 O   0  0  0  1  0  0  0  0  0  0  0  0
   -2.6935    5.3033    0.6850 N   0  0  0  1  0  0  0  0  0  0  0  0
   -1.8880    4.9388   -2.3999 H   0  0  0  1  0  0  0  0  0  0  0  0
   -0.8859    6.3651   -1.3730 C   0  0  0  1  0  0  0  0  0  0  0  0
   -3.5944    5.5869    1.7923 C   0  0  0  1  0  0  0  0  0  0  0  0
    0.0496    6.5091   -0.1884 C   0  0  0  1  0  0  0  0  0  0  0  0
   -1.1711    7.3217   -2.0745 O   0  0  0  1  0  0  0  0  0  0  0  0
   -2.7037    5.8946   -0.0963 H   0  0  0  1  0  0  0  0  0  0  0  0
   -3.1394    5.2796    2.7106 H   0  0  0  1  0  0  0  0  0  0  0  0
   -4.5107    5.0524    1.6521 H   0  0  0  1  0  0  0  0  0  0  0  0
   -3.7954    6.6372    1.8281 H   0  0  0  1  0  0  0  0  0  0  0  0
    0.8948    5.8665   -0.3205 H   0  0  0  1  0  0  0  0  0  0  0  0
   -0.4671    6.2386    0.7087 H   0  0  0  1  0  0  0  0  0  0  0  0
    0.3811    7.5240   -0.1173 H   0  0  0  1  0  0  0  0  0  0  0  0
   -6.0340    1.3103   -0.9232 F   0  0  0  1  0  0  0  0  0  0  0  0
   -5.0700    1.8696   -1.6794 C   0  0  0  1  0  0  0  0  0  0  0  0
   -5.3119    2.3014   -2.9742 C   0  0  0  1  0  0  0  0  0  0  0  0
   -4.2916    2.8651   -3.7168 C   0  0  0  1  0  0  0  0  0  0  0  0
   -3.0277    3.0035   -3.1648 C   0  0  0  1  0  0  0  0  0  0  0  0
   -2.7862    2.5730   -1.8738 C   0  0  0  1  0  0  0  0  0  0  0  0
   -3.8097    2.0076   -1.1291 C   0  0  0  1  0  0  0  0  0  0  0  0
   -1.4077    2.7182   -1.2739 C   0  0  0  1  0  0  0  0  0  0  0  0
   -4.5685    3.2664   -4.9723 F   0  0  0  1  0  0  0  0  0  0  0  0
   -6.2612    2.2013   -3.3869 H   0  0  0  1  0  0  0  0  0  0  0  0
   -2.2609    3.4314   -3.7222 H   0  0  0  1  0  0  0  0  0  0  0  0
   -3.6291    1.6873   -0.1563 H   0  0  0  1  0  0  0  0  0  0  0  0
   -1.2875    1.9544   -0.5343 H   0  0  0  1  0  0  0  0  0  0  0  0
   -0.6909    2.5748   -2.0552 H   0  0  0  1  0  0  0  0  0  0  0  0
  1  4  1  0  0  0  0
  2  4  1  0  0  0  0
  2  5  2  0  0  0  0
  2  6  1  0  0  0  0
  3  4  1  0  0  0  0
  3  7  1  0  0  0  0
  3  8  1  0  0  0  0
  4 26  1  0  0  0  0
  6  9  1  0  0  0  0
  6 12  1  0  0  0  0
  8 10  1  0  0  0  0
  8 11  2  0  0  0  0
  9 13  1  0  0  0  0
  9 14  1  0  0  0  0
  9 15  1  0  0  0  0
 10 16  1  0  0  0  0
 10 17  1  0  0  0  0
 10 18  1  0  0  0  0
 19 20  1  0  0  0  0
 20 21  4  0  0  0  0
 20 25  4  0  0  0  0
 21 22  4  0  0  0  0
 21 28  1  0  0  0  0
 22 23  4  0  0  0  0
 22 27  1  0  0  0  0
 23 24  4  0  0  0  0
 23 29  1  0  0  0  0
 24 25  4  0  0  0  0
 24 26  1  0  0  0  0
 25 30  1  0  0  0  0
 26 31  1  0  0  0  0
 26 32  1  0  0  0  0
M  END
> <BCLConfClusterSize>
1

> <ConfClashScore>
0.000474635 

> <ConfOneFourInteractionScore>
-0.931937 

> <ConfScore>
0.585915 

> <ConfScorePBest>
0.00242249 

> <ConfTolerance>
0.950803 

> <RosettaParamsInstructions>
M  ROOT 3
M  POLY_N_BB 3
M  POLY_CA_BB 4
M  POLY_C_BB 2
M  POLY_O_BB 5
M  POLY_IGNORE 9 10 11 12 13 14 15 16 17 18 
M  POLY_UPPER 6
M  POLY_LOWER 8
M  POLY_CHG 0
M  POLY_PROPERTIES ALPHA_AA D_AA PROTEIN AROMATIC POLYMER 
M  END

$$$$



 32 32  0  0  0  0  0  0  0  0999 V2000
    0.2528    1.5775   -0.6540 H   0  0  0  1  0  0  0  0  0  0  0  0
   -1.0245    0.2560   -1.6874 C   0  0  0  1  0  0  0  0  0  0  0  0
   -1.3737    1.2058    0.5717 N   0  0  0  1  0  0  0  0  0  0  0  0
   -0.8029    1.4379   -0.7585 C   0  0  0  1  0  0  0  0  0  0  0  0
   -2.1574   -0.1535   -1.9265 O   0  0  0  1  0  0  0  0  0  0  0  0
    0.0483   -0.3226   -2.2345 N   0  0  0  1  0  0  0  0  0  0  0  0
   -2.3155    0.9445    0.6432 H   0  0  0  1  0  0  0  0  0  0  0  0
   -0.6485    1.3393    1.6993 C   0  0  0  1  0  0  0  0  0  0  0  0
   -0.0534   -1.4940   -3.0977 C   0  0  0  1  0  0  0  0  0  0  0  0
   -1.4696    1.1956    2.9769 C   0  0  0  1  0  0  0  0  0  0  0  0
    0.5618    1.5566    1.7317 O   0  0  0  1  0  0  0  0  0  0  0  0
    0.9343    0.0531   -2.0495 H   0  0  0  1  0  0  0  0  0  0  0  0
    0.0105   -1.1898   -4.1215 H   0  0  0  1  0  0  0  0  0  0  0  0
   -0.9908   -1.9812   -2.9284 H   0  0  0  1  0  0  0  0  0  0  0  0
    0.7457   -2.1703   -2.8763 H   0  0  0  1  0  0  0  0  0  0  0  0
   -1.4943    0.1673    3.2718 H   0  0  0  1  0  0  0  0  0  0  0  0
   -2.4671    1.5398    2.8000 H   0  0  0  1  0  0  0  0  0  0  0  0
   -1.0231    1.7789    3.7549 H   0  0  0  1  0  0  0  0  0  0  0  0
   -6.0635    1.3134   -0.9524 F   0  0  0  1  0  0  0  0  0  0  0  0
   -5.0698    1.8673   -1.6733 C   0  0  0  1  0  0  0  0  0  0  0  0
   -5.3106    2.2995   -2.9682 C   0  0  0  1  0  0  0  0  0  0  0  0
   -4.2896    2.8630   -3.7099 C   0  0  0  1  0  0  0  0  0  0  0  0
   -3.0260    3.0009   -3.1570 C   0  0  0  1  0  0  0  0  0  0  0  0
   -2.7857    2.5701   -1.8659 C   0  0  0  1  0  0  0  0  0  0  0  0
   -3.8098    2.0049   -1.1220 C   0  0  0  1  0  0  0  0  0  0  0  0
   -1.3896    2.7388   -1.3145 C   0  0  0  1  0  0  0  0  0  0  0  0
   -4.5655    3.2646   -4.9655 F   0  0  0  1  0  0  0  0  0  0  0  0
   -6.2597    2.1996   -3.3816 H   0  0  0  1  0  0  0  0  0  0  0  0
   -2.2587    3.4287   -3.7137 H   0  0  0  1  0  0  0  0  0  0  0  0
   -3.6301    1.6843   -0.1491 H   0  0  0  1  0  0  0  0  0  0  0  0
   -0.7537    3.0910   -2.0996 H   0  0  0  1  0  0  0  0  0  0  0  0
   -1.4196    3.4627   -0.5271 H   0  0  0  1  0  0  0  0  0  0  0  0
  1  4  1  0  0  0  0
  2  4  1  0  0  0  0
  2  5  2  0  0  0  0
  2  6  1  0  0  0  0
  3  4  1  0  0  0  0
  3  7  1  0  0  0  0
  3  8  1  0  0  0  0
  4 26  1  0  0  0  0
  6  9  1  0  0  0  0
  6 12  1  0  0  0  0
  8 10  1  0  0  0  0
  8 11  2  0  0  0  0
  9 13  1  0  0  0  0
  9 14  1  0  0  0  0
  9 15  1  0  0  0  0
 10 16  1  0  0  0  0
 10 17  1  0  0  0  0
 10 18  1  0  0  0  0
 19 20  1  0  0  0  0
 20 21  4  0  0  0  0
 20 25  4  0  0  0  0
 21 22  4  0  0  0  0
 21 28  1  0  0  0  0
 22 23  4  0  0  0  0
 22 27  1  0  0  0  0
 23 24  4  0  0  0  0
 23 29  1  0  0  0  0
 24 25  4  0  0  0  0
 24 26  1  0  0  0  0
 25 30  1  0  0  0  0
 26 31  1  0  0  0  0
 26 32  1  0  0  0  0
M  END
> <BCLConfClusterSize>
1

> <ConfClashScore>
0 

> <ConfOneFourInteractionScore>
-0.979578 

> <ConfScore>
0.600349 

> <ConfScorePBest>
0.00239401 

> <ConfTolerance>
1.07746 

> <RosettaParamsInstructions>
M  ROOT 3
M  POLY_N_BB 3
M  POLY_CA_BB 4
M  POLY_C_BB 2
M  POLY_O_BB 5
M  POLY_IGNORE 9 10 11 12 13 14 15 16 17 18 
M  POLY_UPPER 6
M  POLY_LOWER 8
M  POLY_CHG 0
M  POLY_PROPERTIES ALPHA_AA D_AA PROTEIN AROMATIC POLYMER 
M  END

$$$$



 32 32  0  0  0  0  0  0  0  0999 V2000
   -2.3365    2.4845    0.6559 H   0  0  0  1  0  0  0  0  0  0  0  0
   -0.3703    3.1840    0.9934 C   0  0  0  1  0  0  0  0  0  0  0  0
   -1.0196    0.9133    0.3985 N   0  0  0  1  0  0  0  0  0  0  0  0
   -1.3667    2.3172    0.2360 C   0  0  0  1  0  0  0  0  0  0  0  0
   -0.1202    4.2993    0.5439 O   0  0  0  1  0  0  0  0  0  0  0  0
    0.1777    2.6899    2.1015 N   0  0  0  1  0  0  0  0  0  0  0  0
   -0.1022    0.6276    0.2055 H   0  0  0  1  0  0  0  0  0  0  0  0
   -1.9080    0.0005    0.8016 C   0  0  0  1  0  0  0  0  0  0  0  0
    1.2501    3.3727    2.8097 C   0  0  0  1  0  0  0  0  0  0  0  0
   -1.4199   -1.4351    0.8094 C   0  0  0  1  0  0  0  0  0  0  0  0
   -3.0531    0.2875    1.1480 O   0  0  0  1  0  0  0  0  0  0  0  0
   -0.1526    1.8366    2.4525 H   0  0  0  1  0  0  0  0  0  0  0  0
    1.9361    3.7900    2.1024 H   0  0  0  1  0  0  0  0  0  0  0  0
    1.7647    2.6744    3.4361 H   0  0  0  1  0  0  0  0  0  0  0  0
    0.8379    4.1558    3.4111 H   0  0  0  1  0  0  0  0  0  0  0  0
   -2.2181   -2.0820    1.1083 H   0  0  0  1  0  0  0  0  0  0  0  0
   -0.6064   -1.5313    1.4978 H   0  0  0  1  0  0  0  0  0  0  0  0
   -1.0909   -1.7051   -0.1723 H   0  0  0  1  0  0  0  0  0  0  0  0
   -6.0263    1.3113   -0.9205 F   0  0  0  1  0  0  0  0  0  0  0  0
   -5.0653    1.8711   -1.6801 C   0  0  0  1  0  0  0  0  0  0  0  0
   -5.3117    2.3016   -2.9745 C   0  0  0  1  0  0  0  0  0  0  0  0
   -4.2944    2.8659   -3.7207 C   0  0  0  1  0  0  0  0  0  0  0  0
   -3.0289    3.0062   -3.1728 C   0  0  0  1  0  0  0  0  0  0  0  0
   -2.7830    2.5771   -1.8822 C   0  0  0  1  0  0  0  0  0  0  0  0
   -3.8034    2.0111   -1.1338 C   0  0  0  1  0  0  0  0  0  0  0  0
   -1.4240    2.6985   -1.2343 C   0  0  0  1  0  0  0  0  0  0  0  0
   -4.5756    3.2658   -4.9757 F   0  0  0  1  0  0  0  0  0  0  0  0
   -6.2622    2.2000   -3.3842 H   0  0  0  1  0  0  0  0  0  0  0  0
   -2.2644    3.4345   -3.7329 H   0  0  0  1  0  0  0  0  0  0  0  0
   -3.6195    1.6919   -0.1613 H   0  0  0  1  0  0  0  0  0  0  0  0
   -0.7466    2.0638   -1.7665 H   0  0  0  1  0  0  0  0  0  0  0  0
   -1.1052    3.7160   -1.3240 H   0  0  0  1  0  0  0  0  0  0  0  0
  1  4  1  0  0  0  0
  2  4  1  0  0  0  0
  2  5  2  0  0  0  0
  2  6  1  0  0  0  0
  3  4  1  0  0  0  0
  3  7  1  0  0  0  0
  3  8  1  0  0  0  0
  4 26  1  0  0  0  0
  6  9  1  0  0  0  0
  6 12  1  0  0  0  0
  8 10  1  0  0  0  0
  8 11  2  0  0  0  0
  9 13  1  0  0  0  0
  9 14  1  0  0  0  0
  9 15  1  0  0  0  0
 10 16  1  0  0  0  0
 10 17  1  0  0  0  0
 10 18  1  0  0  0  0
 19 20  1  0  0  0  0
 20 21  4  0  0  0  0
 20 25  4  0  0  0  0
 21 22  4  0  0  0  0
 21 28  1  0  0  0  0
 22 23  4  0  0  0  0
 22 27  1  0  0  0  0
 23 24  4  0  0  0  0
 23 29  1  0  0  0  0
 24 25  4  0  0  0  0
 24 26  1  0  0  0  0
 25 30  1  0  0  0  0
 26 31  1  0  0  0  0
 26 32  1  0  0  0  0
M  END
> <BCLConfClusterSize>
1

> <ConfClashScore>
0 

> <ConfOneFourInteractionScore>
-0.941682 

> <ConfScore>
0.621646 

> <ConfScorePBest>
0.00236553 

> <ConfTolerance>
1.3547 

> <RosettaParamsInstructions>
M  ROOT 3
M  POLY_N_BB 3
M  POLY_CA_BB 4
M  POLY_C_BB 2
M  POLY_O_BB 5
M  POLY_IGNORE 9 10 11 12 13 14 15 16 17 18 
M  POLY_UPPER 6
M  POLY_LOWER 8
M  POLY_CHG 0
M  POLY_PROPERTIES ALPHA_AA D_AA PROTEIN AROMATIC POLYMER 
M  END

$$$$



 32 32  0  0  0  0  0  0  0  0999 V2000
   -0.3601    1.6667   -2.7860 H   0  0  0  1  0  0  0  0  0  0  0  0
   -0.9014    0.2149   -1.3651 C   0  0  0  1  0  0  0  0  0  0  0  0
    0.8936    1.8470   -1.1500 N   0  0  0  1  0  0  0  0  0  0  0  0
   -0.4410    1.6153   -1.7203 C   0  0  0  1  0  0  0  0  0  0  0  0
   -1.0701   -0.1241   -0.1945 O   0  0  0  1  0  0  0  0  0  0  0  0
   -1.1073   -0.6120   -2.4024 N   0  0  0  1  0  0  0  0  0  0  0  0
    0.9816    1.8134   -0.1745 H   0  0  0  1  0  0  0  0  0  0  0  0
    1.9936    2.0997   -1.8598 C   0  0  0  1  0  0  0  0  0  0  0  0
   -1.6699   -1.9437   -2.2353 C   0  0  0  1  0  0  0  0  0  0  0  0
    1.8138    2.1225   -3.3790 C   0  0  0  1  0  0  0  0  0  0  0  0
    3.1516    2.3149   -1.3156 O   0  0  0  1  0  0  0  0  0  0  0  0
   -0.8705   -0.3083   -3.3036 H   0  0  0  1  0  0  0  0  0  0  0  0
   -1.3206   -2.3662   -1.3163 H   0  0  0  1  0  0  0  0  0  0  0  0
   -1.3648   -2.5645   -3.0516 H   0  0  0  1  0  0  0  0  0  0  0  0
   -2.7377   -1.8795   -2.2149 H   0  0  0  1  0  0  0  0  0  0  0  0
    1.0779    1.3993   -3.6625 H   0  0  0  1  0  0  0  0  0  0  0  0
    2.7446    1.8880   -3.8517 H   0  0  0  1  0  0  0  0  0  0  0  0
    1.4930    3.0963   -3.6853 H   0  0  0  1  0  0  0  0  0  0  0  0
   -6.0561    1.3124   -0.9444 F   0  0  0  1  0  0  0  0  0  0  0  0
   -5.0671    1.8672   -1.6711 C   0  0  0  1  0  0  0  0  0  0  0  0
   -5.3152    2.2971   -2.9653 C   0  0  0  1  0  0  0  0  0  0  0  0
   -4.2991    2.8616   -3.7130 C   0  0  0  1  0  0  0  0  0  0  0  0
   -3.0330    3.0027   -3.1666 C   0  0  0  1  0  0  0  0  0  0  0  0
   -2.7853    2.5741   -1.8761 C   0  0  0  1  0  0  0  0  0  0  0  0
   -3.8046    2.0080   -1.1264 C   0  0  0  1  0  0  0  0  0  0  0  0
   -1.4045    2.7223   -1.2822 C   0  0  0  1  0  0  0  0  0  0  0  0
   -4.5390    3.2745   -4.9723 F   0  0  0  1  0  0  0  0  0  0  0  0
   -6.2661    2.1949   -3.3738 H   0  0  0  1  0  0  0  0  0  0  0  0
   -2.2693    3.4311   -3.7277 H   0  0  0  1  0  0  0  0  0  0  0  0
   -3.6194    1.6891   -0.1540 H   0  0  0  1  0  0  0  0  0  0  0  0
   -1.0015    3.6652   -1.5882 H   0  0  0  1  0  0  0  0  0  0  0  0
   -1.4881    2.6987   -0.2158 H   0  0  0  1  0  0  0  0  0  0  0  0
  1  4  1  0  0  0  0
  2  4  1  0  0  0  0
  2  5  2  0  0  0  0
  2  6  1  0  0  0  0
  3  4  1  0  0  0  0
  3  7  1  0  0  0  0
  3  8  1  0  0  0  0
  4 26  1  0  0  0  0
  6  9  1  0  0  0  0
  6 12  1  0  0  0  0
  8 10  1  0  0  0  0
  8 11  2  0  0  0  0
  9 13  1  0  0  0  0
  9 14  1  0  0  0  0
  9 15  1  0  0  0  0
 10 16  1  0  0  0  0
 10 17  1  0  0  0  0
 10 18  1  0  0  0  0
 19 20  1  0  0  0  0
 20 21  4  0  0  0  0
 20 25  4  0  0  0  0
 21 22  4  0  0  0  0
 21 28  1  0  0  0  0
 22 23  4  0  0  0  0
 22 27  1  0  0  0  0
 23 24  4  0  0  0  0
 23 29  1  0  0  0  0
 24 25  4  0  0  0  0
 24 26  1  0  0  0  0
 25 30  1  0  0  0  0
 26 31  1  0  0  0  0
 26 32  1  0  0  0  0
M  END
> <BCLConfClusterSize>
1

> <ConfClashScore>
0 

> <ConfOneFourInteractionScore>
-0.990503 

> <ConfScore>
0.629563 

> <ConfScorePBest>
0.00233705 

> <ConfTolerance>
1.31611 

> <RosettaParamsInstructions>
M  ROOT 3
M  POLY_N_BB 3
M  POLY_CA_BB 4
M  POLY_C_BB 2
M  POLY_O_BB 5
M  POLY_IGNORE 9 10 11 12 13 14 15 16 17 18 
M  POLY_UPPER 6
M  POLY_LOWER 8
M  POLY_CHG 0
M  POLY_PROPERTIES ALPHA_AA D_AA PROTEIN AROMATIC POLYMER 
M  END

$$$$



 32 32  0  0  0  0  0  0  0  0999 V2000
   -0.3452    4.3850   -0.5295 H   0  0  0  1  0  0  0  0  0  0  0  0
   -1.2241    3.3457    1.0757 C   0  0  0  1  0  0  0  0  0  0  0  0
   -2.3537    4.8427   -0.5918 N   0  0  0  1  0  0  0  0  0  0  0  0
   -1.2776    3.8970   -0.3359 C   0  0  0  1  0  0  0  0  0  0  0  0
   -1.8334    3.8866    1.9947 O   0  0  0  1  0  0  0  0  0  0  0  0
   -0.4805    2.2509    1.2423 N   0  0  0  1  0  0  0  0  0  0  0  0
   -2.9739    5.0331    0.1428 H   0  0  0  1  0  0  0  0  0  0  0  0
   -2.5611    5.4744   -1.7591 C   0  0  0  1  0  0  0  0  0  0  0  0
   -0.3574    1.5834    2.5296 C   0  0  0  1  0  0  0  0  0  0  0  0
   -3.7118    6.4616   -1.7785 C   0  0  0  1  0  0  0  0  0  0  0  0
   -1.8718    5.2774   -2.7590 O   0  0  0  1  0  0  0  0  0  0  0  0
   -0.0005    1.8833    0.4711 H   0  0  0  1  0  0  0  0  0  0  0  0
   -1.3274    1.4672    2.9660 H   0  0  0  1  0  0  0  0  0  0  0  0
    0.2573    2.1715    3.1787 H   0  0  0  1  0  0  0  0  0  0  0  0
    0.0886    0.6207    2.3907 H   0  0  0  1  0  0  0  0  0  0  0  0
   -3.4642    7.2863   -2.4138 H   0  0  0  1  0  0  0  0  0  0  0  0
   -3.8924    6.8180   -0.7859 H   0  0  0  1  0  0  0  0  0  0  0  0
   -4.5907    5.9772   -2.1496 H   0  0  0  1  0  0  0  0  0  0  0  0
   -6.0405    1.3075   -0.9204 F   0  0  0  1  0  0  0  0  0  0  0  0
   -5.0758    1.8666   -1.6758 C   0  0  0  1  0  0  0  0  0  0  0  0
   -5.3166    2.2988   -2.9707 C   0  0  0  1  0  0  0  0  0  0  0  0
   -4.2956    2.8623   -3.7124 C   0  0  0  1  0  0  0  0  0  0  0  0
   -3.0320    3.0002   -3.1595 C   0  0  0  1  0  0  0  0  0  0  0  0
   -2.7917    2.5694   -1.8684 C   0  0  0  1  0  0  0  0  0  0  0  0
   -3.8158    2.0042   -1.1246 C   0  0  0  1  0  0  0  0  0  0  0  0
   -1.3956    2.7381   -1.3170 C   0  0  0  1  0  0  0  0  0  0  0  0
   -4.5284    3.2774   -4.9724 F   0  0  0  1  0  0  0  0  0  0  0  0
   -6.2657    2.1990   -3.3841 H   0  0  0  1  0  0  0  0  0  0  0  0
   -2.2647    3.4280   -3.7162 H   0  0  0  1  0  0  0  0  0  0  0  0
   -3.6361    1.6836   -0.1516 H   0  0  0  1  0  0  0  0  0  0  0  0
   -1.1170    1.8359   -0.8136 H   0  0  0  1  0  0  0  0  0  0  0  0
   -0.7260    2.9131   -2.1330 H   0  0  0  1  0  0  0  0  0  0  0  0
  1  4  1  0  0  0  0
  2  4  1  0  0  0  0
  2  5  2  0  0  0  0
  2  6  1  0  0  0  0
  3  4  1  0  0  0  0
  3  7  1  0  0  0  0
  3  8  1  0  0  0  0
  4 26  1  0  0  0  0
  6  9  1  0  0  0  0
  6 12  1  0  0  0  0
  8 10  1  0  0  0  0
  8 11  2  0  0  0  0
  9 13  1  0  0  0  0
  9 14  1  0  0  0  0
  9 15  1  0  0  0  0
 10 16  1  0  0  0  0
 10 17  1  0  0  0  0
 10 18  1  0  0  0  0
 19 20  1  0  0  0  0
 20 21  4  0  0  0  0
 20 25  4  0  0  0  0
 21 22  4  0  0  0  0
 21 28  1  0  0  0  0
 22 23  4  0  0  0  0
 22 27  1  0  0  0  0
 23 24  4  0  0  0  0
 23 29  1  0  0  0  0
 24 25  4  0  0  0  0
 24 26  1  0  0  0  0
 25 30  1  0  0  0  0
 26 31  1  0  0  0  0
 26 32  1  0  0  0  0
M  END
> <BCLConfClusterSize>
1

> <ConfClashScore>
0 

> <ConfOneFourInteractionScore>
-0.913928 

> <ConfScore>
0.637755 

> <ConfScorePBest>
0.00230857 

> <ConfTolerance>
1.33973 

> <RosettaParamsInstructions>
M  ROOT 3
M  POLY_N_BB 3
M  POLY_CA_BB 4
M  POLY_C_BB 2
M  POLY_O_BB 5
M  POLY_IGNORE 9 10 11 12 13 14 15 16 17 18 
M  POLY_UPPER 6
M  POLY_LOWER 8
M  POLY_CHG 0
M  POLY_PROPERTIES ALPHA_AA D_AA PROTEIN AROMATIC POLYMER 
M  END

$$$$



 32 32  0  0  0  0  0  0  0  0999 V2000
   -0.8126    4.1546   -2.7102 H   0  0  0  1  0  0  0  0  0  0  0  0
   -0.1111    2.2950   -3.3931 C   0  0  0  1  0  0  0  0  0  0  0  0
    0.8369    3.6682   -1.5717 N   0  0  0  1  0  0  0  0  0  0  0  0
   -0.3856    3.2773   -2.2710 C   0  0  0  1  0  0  0  0  0  0  0  0
    0.3778    1.1997   -3.1703 O   0  0  0  1  0  0  0  0  0  0  0  0
   -0.4395    2.7117   -4.6263 N   0  0  0  1  0  0  0  0  0  0  0  0
    1.6932    3.3000   -1.8742 H   0  0  0  1  0  0  0  0  0  0  0  0
    0.8275    4.5102   -0.5344 C   0  0  0  1  0  0  0  0  0  0  0  0
   -0.2109    1.8483   -5.7737 C   0  0  0  1  0  0  0  0  0  0  0  0
    2.1804    4.8155    0.0784 C   0  0  0  1  0  0  0  0  0  0  0  0
   -0.2030    5.0152   -0.0908 O   0  0  0  1  0  0  0  0  0  0  0  0
   -0.8342    3.5997   -4.7534 H   0  0  0  1  0  0  0  0  0  0  0  0
    0.0434    2.4450   -6.6247 H   0  0  0  1  0  0  0  0  0  0  0  0
   -1.0997    1.2902   -5.9825 H   0  0  0  1  0  0  0  0  0  0  0  0
    0.5917    1.1743   -5.5583 H   0  0  0  1  0  0  0  0  0  0  0  0
    2.0438    5.3075    1.0187 H   0  0  0  1  0  0  0  0  0  0  0  0
    2.7343    5.4520   -0.5796 H   0  0  0  1  0  0  0  0  0  0  0  0
    2.7179    3.9026    0.2286 H   0  0  0  1  0  0  0  0  0  0  0  0
   -6.0561    1.3124   -0.9444 F   0  0  0  1  0  0  0  0  0  0  0  0
   -5.0671    1.8672   -1.6711 C   0  0  0  1  0  0  0  0  0  0  0  0
   -5.3152    2.2971   -2.9653 C   0  0  0  1  0  0  0  0  0  0  0  0
   -4.2991    2.8616   -3.7130 C   0  0  0  1  0  0  0  0  0  0  0  0
   -3.0330    3.0027   -3.1666 C   0  0  0  1  0  0  0  0  0  0  0  0
   -2.7853    2.5741   -1.8761 C   0  0  0  1  0  0  0  0  0  0  0  0
   -3.8046    2.0080   -1.1264 C   0  0  0  1  0  0  0  0  0  0  0  0
   -1.4045    2.7223   -1.2822 C   0  0  0  1  0  0  0  0  0  0  0  0
   -4.5390    3.2745   -4.9723 F   0  0  0  1  0  0  0  0  0  0  0  0
   -6.2661    2.1949   -3.3738 H   0  0  0  1  0  0  0  0  0  0  0  0
   -2.2693    3.4311   -3.7277 H   0  0  0  1  0  0  0  0  0  0  0  0
   -3.6194    1.6891   -0.1540 H   0  0  0  1  0  0  0  0  0  0  0  0
   -1.4632    3.3862   -0.4451 H   0  0  0  1  0  0  0  0  0  0  0  0
   -1.0704    1.7607   -0.9527 H   0  0  0  1  0  0  0  0  0  0  0  0
  1  4  1  0  0  0  0
  2  4  1  0  0  0  0
  2  5  2  0  0  0  0
  2  6  1  0  0  0  0
  3  4  1  0  0  0  0
  3  7  1  0  0  0  0
  3  8  1  0  0  0  0
  4 26  1  0  0  0  0
  6  9  1  0  0  0  0
  6 12  1  0  0  0  0
  8 10  1  0  0  0  0
  8 11  2  0  0  0  0
  9 13  1  0  0  0  0
  9 14  1  0  0  0  0
  9 15  1  0  0  0  0
 10 16  1  0  0  0  0
 10 17  1  0  0  0  0
 10 18  1  0  0  0  0
 19 20  1  0  0  0  0
 20 21  4  0  0  0  0
 20 25  4  0  0  0  0
 21 22  4  0  0  0  0
 21 28  1  0  0  0  0
 22 23  4  0  0  0  0
 22 27  1  0  0  0  0
 23 24  4  0  0  0  0
 23 29  1  0  0  0  0
 24 25  4  0  0  0  0
 24 26  1  0  0  0  0
 25 30  1  0  0  0  0
 26 31  1  0  0  0  0
 26 32  1  0  0  0  0
M  END
> <BCLConfClusterSize>
1

> <ConfClashScore>
0 

> <ConfOneFourInteractionScore>
-0.972715 

> <ConfScore>
0.650539 

> <ConfScorePBest>
0.00228009 

> <ConfTolerance>
1.34813 

> <RosettaParamsInstructions>
M  ROOT 3
M  POLY_N_BB 3
M  POLY_CA_BB 4
M  POLY_C_BB 2
M  POLY_O_BB 5
M  POLY_IGNORE 9 10 11 12 13 14 15 16 17 18 
M  POLY_UPPER 6
M  POLY_LOWER 8
M  POLY_CHG 0
M  POLY_PROPERTIES ALPHA_AA D_AA PROTEIN AROMATIC POLYMER 
M  END

$$$$



 32 32  0  0  0  0  0  0  0  0999 V2000
   -1.5904    4.7846   -0.8681 H   0  0  0  1  0  0  0  0  0  0  0  0
    0.1363    4.0985    0.1350 C   0  0  0  1  0  0  0  0  0  0  0  0
   -2.2002    3.7575    0.8191 N   0  0  0  1  0  0  0  0  0  0  0  0
   -1.3011    3.9171   -0.3125 C   0  0  0  1  0  0  0  0  0  0  0  0
    1.0707    4.0567   -0.6643 O   0  0  0  1  0  0  0  0  0  0  0  0
    0.2688    4.3025    1.4552 N   0  0  0  1  0  0  0  0  0  0  0  0
   -2.4805    2.8609    1.0983 H   0  0  0  1  0  0  0  0  0  0  0  0
   -2.6618    4.8712    1.5041 C   0  0  0  1  0  0  0  0  0  0  0  0
    1.5621    4.2666    2.1215 C   0  0  0  1  0  0  0  0  0  0  0  0
   -2.2963    6.2402    1.0030 C   0  0  0  1  0  0  0  0  0  0  0  0
   -3.3525    4.7016    2.4953 O   0  0  0  1  0  0  0  0  0  0  0  0
   -0.5334    4.4819    1.9888 H   0  0  0  1  0  0  0  0  0  0  0  0
    1.4287    4.4352    3.1696 H   0  0  0  1  0  0  0  0  0  0  0  0
    2.1935    5.0291    1.7154 H   0  0  0  1  0  0  0  0  0  0  0  0
    2.0149    3.3092    1.9693 H   0  0  0  1  0  0  0  0  0  0  0  0
   -1.7830    6.7771    1.7732 H   0  0  0  1  0  0  0  0  0  0  0  0
   -3.1856    6.7696    0.7315 H   0  0  0  1  0  0  0  0  0  0  0  0
   -1.6599    6.1486    0.1477 H   0  0  0  1  0  0  0  0  0  0  0  0
   -6.0489    1.3153   -0.9470 F   0  0  0  1  0  0  0  0  0  0  0  0
   -5.0608    1.8703   -1.6747 C   0  0  0  1  0  0  0  0  0  0  0  0
   -5.3103    2.2998   -2.9688 C   0  0  0  1  0  0  0  0  0  0  0  0
   -4.2951    2.8645   -3.7176 C   0  0  0  1  0  0  0  0  0  0  0  0
   -3.0286    3.0062   -3.1724 C   0  0  0  1  0  0  0  0  0  0  0  0
   -2.7795    2.5780   -1.8821 C   0  0  0  1  0  0  0  0  0  0  0  0
   -3.7979    2.0117   -1.1312 C   0  0  0  1  0  0  0  0  0  0  0  0
   -1.4192    2.7010   -1.2372 C   0  0  0  1  0  0  0  0  0  0  0  0
   -4.5794    3.2634   -4.9722 F   0  0  0  1  0  0  0  0  0  0  0  0
   -6.2616    2.1971   -3.3764 H   0  0  0  1  0  0  0  0  0  0  0  0
   -2.2656    3.4348   -3.7344 H   0  0  0  1  0  0  0  0  0  0  0  0
   -3.6116    1.6931   -0.1589 H   0  0  0  1  0  0  0  0  0  0  0  0
   -1.2334    1.8173   -0.6631 H   0  0  0  1  0  0  0  0  0  0  0  0
   -0.6830    2.7870   -2.0088 H   0  0  0  1  0  0  0  0  0  0  0  0
  1  4  1  0  0  0  0
  2  4  1  0  0  0  0
  2  5  2  0  0  0  0
  2  6  1  0  0  0  0
  3  4  1  0  0  0  0
  3  7  1  0  0  0  0
  3  8  1  0  0  0  0
  4 26  1  0  0  0  0
  6  9  1  0  0  0  0
  6 12  1  0  0  0  0
  8 10  1  0  0  0  0
  8 11  2  0  0  0  0
  9 13  1  0  0  0  0
  9 14  1  0  0  0  0
  9 15  1  0  0  0  0
 10 16  1  0  0  0  0
 10 17  1  0  0  0  0
 10 18  1  0  0  0  0
 19 20  1  0  0  0  0
 20 21  4  0  0  0  0
 20 25  4  0  0  0  0
 21 22  4  0  0  0  0
 21 28  1  0  0  0  0
 22 23  4  0  0  0  0
 22 27  1  0  0  0  0
 23 24  4  0  0  0  0
 23 29  1  0  0  0  0
 24 25  4  0  0  0  0
 24 26  1  0  0  0  0
 25 30  1  0  0  0  0
 26 31  1  0  0  0  0
 26 32  1  0  0  0  0
M  END
> <BCLConfClusterSize>
1

> <ConfClashScore>
0.00164523 

> <ConfOneFourInteractionScore>
-0.94165 

> <ConfScore>
0.734568 

> <ConfScorePBest>
0.00225161 

> <ConfTolerance>
1.47292 

> <RosettaParamsInstructions>
M  ROOT 3
M  POLY_N_BB 3
M  POLY_CA_BB 4
M  POLY_C_BB 2
M  POLY_O_BB 5
M  POLY_IGNORE 9 10 11 12 13 14 15 16 17 18 
M  POLY_UPPER 6
M  POLY_LOWER 8
M  POLY_CHG 0
M  POLY_PROPERTIES ALPHA_AA D_AA PROTEIN AROMATIC POLYMER 
M  END

$$$$



 32 32  0  0  0  0  0  0  0  0999 V2000
    0.3154    1.6300   -0.7560 H   0  0  0  1  0  0  0  0  0  0  0  0
   -0.8395    0.3788   -1.9956 C   0  0  0  1  0  0  0  0  0  0  0  0
   -1.2531    0.9257    0.3800 N   0  0  0  1  0  0  0  0  0  0  0  0
   -0.7247    1.4164   -0.8879 C   0  0  0  1  0  0  0  0  0  0  0  0
   -0.8799   -0.8259   -1.7490 O   0  0  0  1  0  0  0  0  0  0  0  0
   -0.8899    0.9083   -3.2274 N   0  0  0  1  0  0  0  0  0  0  0  0
   -0.8563    1.2505    1.2151 H   0  0  0  1  0  0  0  0  0  0  0  0
   -2.2973    0.0158    0.4447 C   0  0  0  1  0  0  0  0  0  0  0  0
   -0.9043    0.0858   -4.4264 C   0  0  0  1  0  0  0  0  0  0  0  0
   -2.6622   -0.5839    1.7736 C   0  0  0  1  0  0  0  0  0  0  0  0
   -2.8865   -0.2683   -0.5822 O   0  0  0  1  0  0  0  0  0  0  0  0
   -0.9179    1.8833   -3.3223 H   0  0  0  1  0  0  0  0  0  0  0  0
   -0.0896   -0.6071   -4.3941 H   0  0  0  1  0  0  0  0  0  0  0  0
   -0.8062    0.7114   -5.2889 H   0  0  0  1  0  0  0  0  0  0  0  0
   -1.8278   -0.4521   -4.4785 H   0  0  0  1  0  0  0  0  0  0  0  0
   -3.3481    0.0620    2.2807 H   0  0  0  1  0  0  0  0  0  0  0  0
   -1.7790   -0.7016    2.3661 H   0  0  0  1  0  0  0  0  0  0  0  0
   -3.1193   -1.5391    1.6201 H   0  0  0  1  0  0  0  0  0  0  0  0
   -6.0340    1.3103   -0.9232 F   0  0  0  1  0  0  0  0  0  0  0  0
   -5.0700    1.8696   -1.6794 C   0  0  0  1  0  0  0  0  0  0  0  0
   -5.3119    2.3014   -2.9742 C   0  0  0  1  0  0  0  0  0  0  0  0
   -4.2916    2.8651   -3.7168 C   0  0  0  1  0  0  0  0  0  0  0  0
   -3.0277    3.0035   -3.1648 C   0  0  0  1  0  0  0  0  0  0  0  0
   -2.7862    2.5730   -1.8738 C   0  0  0  1  0  0  0  0  0  0  0  0
   -3.8097    2.0076   -1.1291 C   0  0  0  1  0  0  0  0  0  0  0  0
   -1.4077    2.7182   -1.2739 C   0  0  0  1  0  0  0  0  0  0  0  0
   -4.5685    3.2664   -4.9723 F   0  0  0  1  0  0  0  0  0  0  0  0
   -6.2612    2.2013   -3.3869 H   0  0  0  1  0  0  0  0  0  0  0  0
   -2.2609    3.4314   -3.7222 H   0  0  0  1  0  0  0  0  0  0  0  0
   -3.6291    1.6873   -0.1563 H   0  0  0  1  0  0  0  0  0  0  0  0
   -0.7874    3.2170   -1.9889 H   0  0  0  1  0  0  0  0  0  0  0  0
   -1.4927    3.3201   -0.3933 H   0  0  0  1  0  0  0  0  0  0  0  0
  1  4  1  0  0  0  0
  2  4  1  0  0  0  0
  2  5  2  0  0  0  0
  2  6  1  0  0  0  0
  3  4  1  0  0  0  0
  3  7  1  0  0  0  0
  3  8  1  0  0  0  0
  4 26  1  0  0  0  0
  6  9  1  0  0  0  0
  6 12  1  0  0  0  0
  8 10  1  0  0  0  0
  8 11  2  0  0  0  0
  9 13  1  0  0  0  0
  9 14  1  0  0  0  0
  9 15  1  0  0  0  0
 10 16  1  0  0  0  0
 10 17  1  0  0  0  0
 10 18  1  0  0  0  0
 19 20  1  0  0  0  0
 20 21  4  0  0  0  0
 20 25  4  0  0  0  0
 21 22  4  0  0  0  0
 21 28  1  0  0  0  0
 22 23  4  0  0  0  0
 22 27  1  0  0  0  0
 23 24  4  0  0  0  0
 23 29  1  0  0  0  0
 24 25  4  0  0  0  0
 24 26  1  0  0  0  0
 25 30  1  0  0  0  0
 26 31  1  0  0  0  0
 26 32  1  0  0  0  0
M  END
> <BCLConfClusterSize>
1

> <ConfClashScore>
0.00337983 

> <ConfOneFourInteractionScore>
-0.930691 

> <ConfScore>
0.742606 

> <ConfScorePBest>
0.00222313 

> <ConfTolerance>
0.860256 

> <RosettaParamsInstructions>
M  ROOT 3
M  POLY_N_BB 3
M  POLY_CA_BB 4
M  POLY_C_BB 2
M  POLY_O_BB 5
M  POLY_IGNORE 9 10 11 12 13 14 15 16 17 18 
M  POLY_UPPER 6
M  POLY_LOWER 8
M  POLY_CHG 0
M  POLY_PROPERTIES ALPHA_AA D_AA PROTEIN AROMATIC POLYMER 
M  END

$$$$



 32 32  0  0  0  0  0  0  0  0999 V2000
    0.2632    1.5849   -1.9081 H   0  0  0  1  0  0  0  0  0  0  0  0
   -1.3327    0.2324   -1.8498 C   0  0  0  1  0  0  0  0  0  0  0  0
   -0.1085    1.1582    0.0755 N   0  0  0  1  0  0  0  0  0  0  0  0
   -0.5964    1.4341   -1.2891 C   0  0  0  1  0  0  0  0  0  0  0  0
   -1.8406    0.2607   -2.9676 O   0  0  0  1  0  0  0  0  0  0  0  0
   -1.3867   -0.8370   -1.0543 N   0  0  0  1  0  0  0  0  0  0  0  0
    0.8576    1.1518    0.2401 H   0  0  0  1  0  0  0  0  0  0  0  0
   -0.9378    0.9168    1.0948 C   0  0  0  1  0  0  0  0  0  0  0  0
   -2.2110   -1.9791   -1.4204 C   0  0  0  1  0  0  0  0  0  0  0  0
   -0.3345    0.5702    2.4421 C   0  0  0  1  0  0  0  0  0  0  0  0
   -2.1642    0.9588    1.0065 O   0  0  0  1  0  0  0  0  0  0  0  0
   -0.8701   -0.8537   -0.2217 H   0  0  0  1  0  0  0  0  0  0  0  0
   -2.9075   -2.1835   -0.6343 H   0  0  0  1  0  0  0  0  0  0  0  0
   -1.5868   -2.8344   -1.5748 H   0  0  0  1  0  0  0  0  0  0  0  0
   -2.7448   -1.7592   -2.3213 H   0  0  0  1  0  0  0  0  0  0  0  0
    0.0173   -0.4402    2.4265 H   0  0  0  1  0  0  0  0  0  0  0  0
   -1.0784    0.6769    3.2038 H   0  0  0  1  0  0  0  0  0  0  0  0
    0.4832    1.2292    2.6466 H   0  0  0  1  0  0  0  0  0  0  0  0
   -6.0630    1.3115   -0.9470 F   0  0  0  1  0  0  0  0  0  0  0  0
   -5.0713    1.8658   -1.6703 C   0  0  0  1  0  0  0  0  0  0  0  0
   -5.3153    2.2970   -2.9650 C   0  0  0  1  0  0  0  0  0  0  0  0
   -4.2963    2.8609   -3.7092 C   0  0  0  1  0  0  0  0  0  0  0  0
   -3.0317    3.0002   -3.1591 C   0  0  0  1  0  0  0  0  0  0  0  0
   -2.7882    2.5703   -1.8683 C   0  0  0  1  0  0  0  0  0  0  0  0
   -3.8103    2.0047   -1.1219 C   0  0  0  1  0  0  0  0  0  0  0  0
   -1.3911    2.7405   -1.3200 C   0  0  0  1  0  0  0  0  0  0  0  0
   -4.5322    3.2751   -4.9689 F   0  0  0  1  0  0  0  0  0  0  0  0
   -6.2651    2.1961   -3.3763 H   0  0  0  1  0  0  0  0  0  0  0  0
   -2.2659    3.4282   -3.7177 H   0  0  0  1  0  0  0  0  0  0  0  0
   -3.6282    1.6849   -0.1492 H   0  0  0  1  0  0  0  0  0  0  0  0
   -0.8675    3.4431   -1.9340 H   0  0  0  1  0  0  0  0  0  0  0  0
   -1.4608    3.1204   -0.3222 H   0  0  0  1  0  0  0  0  0  0  0  0
  1  4  1  0  0  0  0
  2  4  1  0  0  0  0
  2  5  2  0  0  0  0
  2  6  1  0  0  0  0
  3  4  1  0  0  0  0
  3  7  1  0  0  0  0
  3  8  1  0  0  0  0
  4 26  1  0  0  0  0
  6  9  1  0  0  0  0
  6 12  1  0  0  0  0
  8 10  1  0  0  0  0
  8 11  2  0  0  0  0
  9 13  1  0  0  0  0
  9 14  1  0  0  0  0
  9 15  1  0  0  0  0
 10 16  1  0  0  0  0
 10 17  1  0  0  0  0
 10 18  1  0  0  0  0
 19 20  1  0  0  0  0
 20 21  4  0  0  0  0
 20 25  4  0  0  0  0
 21 22  4  0  0  0  0
 21 28  1  0  0  0  0
 22 23  4  0  0  0  0
 22 27  1  0  0  0  0
 23 24  4  0  0  0  0
 23 29  1  0  0  0  0
 24 25  4  0  0  0  0
 24 26  1  0  0  0  0
 25 30  1  0  0  0  0
 26 31  1  0  0  0  0
 26 32  1  0  0  0  0
M  END
> <BCLConfClusterSize>
1

> <ConfClashScore>
0.00195704 

> <ConfOneFourInteractionScore>
-0.93975 

> <ConfScore>
0.871229 

> <ConfScorePBest>
0.00219465 

> <ConfTolerance>
1.28522 

> <RosettaParamsInstructions>
M  ROOT 3
M  POLY_N_BB 3
M  POLY_CA_BB 4
M  POLY_C_BB 2
M  POLY_O_BB 5
M  POLY_IGNORE 9 10 11 12 13 14 15 16 17 18 
M  POLY_UPPER 6
M  POLY_LOWER 8
M  POLY_CHG 0
M  POLY_PROPERTIES ALPHA_AA D_AA PROTEIN AROMATIC POLYMER 
M  END

$$$$



 32 32  0  0  0  0  0  0  0  0999 V2000
   -0.1035    4.3018   -0.7795 H   0  0  0  1  0  0  0  0  0  0  0  0
   -1.5129    4.1651    0.7679 C   0  0  0  1  0  0  0  0  0  0  0  0
   -1.8362    5.1897   -1.4426 N   0  0  0  1  0  0  0  0  0  0  0  0
   -1.1551    4.1163   -0.7117 C   0  0  0  1  0  0  0  0  0  0  0  0
   -0.9519    3.4085    1.5594 O   0  0  0  1  0  0  0  0  0  0  0  0
   -2.3786    5.1094    1.1471 N   0  0  0  1  0  0  0  0  0  0  0  0
   -1.2796    5.8145   -1.9527 H   0  0  0  1  0  0  0  0  0  0  0  0
   -3.1640    5.3809   -1.4656 C   0  0  0  1  0  0  0  0  0  0  0  0
   -2.8652    5.2964    2.5059 C   0  0  0  1  0  0  0  0  0  0  0  0
   -3.7020    6.5348   -2.2812 C   0  0  0  1  0  0  0  0  0  0  0  0
   -3.9236    4.6405   -0.8423 O   0  0  0  1  0  0  0  0  0  0  0  0
   -2.7110    5.7223    0.4585 H   0  0  0  1  0  0  0  0  0  0  0  0
   -2.5281    6.2408    2.8792 H   0  0  0  1  0  0  0  0  0  0  0  0
   -2.4902    4.5122    3.1298 H   0  0  0  1  0  0  0  0  0  0  0  0
   -3.9349    5.2736    2.5077 H   0  0  0  1  0  0  0  0  0  0  0  0
   -4.7633    6.5945   -2.1588 H   0  0  0  1  0  0  0  0  0  0  0  0
   -3.4705    6.3795   -3.3143 H   0  0  0  1  0  0  0  0  0  0  0  0
   -3.2529    7.4469   -1.9477 H   0  0  0  1  0  0  0  0  0  0  0  0
   -6.0405    1.3075   -0.9204 F   0  0  0  1  0  0  0  0  0  0  0  0
   -5.0758    1.8666   -1.6758 C   0  0  0  1  0  0  0  0  0  0  0  0
   -5.3166    2.2988   -2.9707 C   0  0  0  1  0  0  0  0  0  0  0  0
   -4.2956    2.8623   -3.7124 C   0  0  0  1  0  0  0  0  0  0  0  0
   -3.0320    3.0002   -3.1595 C   0  0  0  1  0  0  0  0  0  0  0  0
   -2.7917    2.5694   -1.8684 C   0  0  0  1  0  0  0  0  0  0  0  0
   -3.8158    2.0042   -1.1246 C   0  0  0  1  0  0  0  0  0  0  0  0
   -1.3956    2.7381   -1.3170 C   0  0  0  1  0  0  0  0  0  0  0  0
   -4.5284    3.2774   -4.9724 F   0  0  0  1  0  0  0  0  0  0  0  0
   -6.2657    2.1990   -3.3841 H   0  0  0  1  0  0  0  0  0  0  0  0
   -2.2647    3.4280   -3.7162 H   0  0  0  1  0  0  0  0  0  0  0  0
   -3.6361    1.6836   -0.1516 H   0  0  0  1  0  0  0  0  0  0  0  0
   -1.2378    2.0005   -0.5581 H   0  0  0  1  0  0  0  0  0  0  0  0
   -0.6951    2.5883   -2.1119 H   0  0  0  1  0  0  0  0  0  0  0  0
  1  4  1  0  0  0  0
  2  4  1  0  0  0  0
  2  5  2  0  0  0  0
  2  6  1  0  0  0  0
  3  4  1  0  0  0  0
  3  7  1  0  0  0  0
  3  8  1  0  0  0  0
  4 26  1  0  0  0  0
  6  9  1  0  0  0  0
  6 12  1  0  0  0  0
  8 10  1  0  0  0  0
  8 11  2  0  0  0  0
  9 13  1  0  0  0  0
  9 14  1  0  0  0  0
  9 15  1  0  0  0  0
 10 16  1  0  0  0  0
 10 17  1  0  0  0  0
 10 18  1  0  0  0  0
 19 20  1  0  0  0  0
 20 21  4  0  0  0  0
 20 25  4  0  0  0  0
 21 22  4  0  0  0  0
 21 28  1  0  0  0  0
 22 23  4  0  0  0  0
 22 27  1  0  0  0  0
 23 24  4  0  0  0  0
 23 29  1  0  0  0  0
 24 25  4  0  0  0  0
 24 26  1  0  0  0  0
 25 30  1  0  0  0  0
 26 31  1  0  0  0  0
 26 32  1  0  0  0  0
M  END
> <BCLConfClusterSize>
1

> <ConfClashScore>
0.0082695 

> <ConfOneFourInteractionScore>
-0.925537 

> <ConfScore>
1.462 

> <ConfScorePBest>
0.00216617 

> <ConfTolerance>
2.22298 

> <RosettaParamsInstructions>
M  ROOT 3
M  POLY_N_BB 3
M  POLY_CA_BB 4
M  POLY_C_BB 2
M  POLY_O_BB 5
M  POLY_IGNORE 9 10 11 12 13 14 15 16 17 18 
M  POLY_UPPER 6
M  POLY_LOWER 8
M  POLY_CHG 0
M  POLY_PROPERTIES ALPHA_AA D_AA PROTEIN AROMATIC POLYMER 
M  END

$$$$
