


 32 32  0  0  0  0  0  0  0  0999 V2000
   -0.1469    4.0519   -0.1937 H   0  0  0  1  0  0  0  0  0  0  0  0
   -2.1554    4.3527    0.4287 C   0  0  0  1  0  0  0  0  0  0  0  0
   -1.1622    5.1131   -1.6656 N   0  0  0  1  0  0  0  0  0  0  0  0
   -1.1172    4.0796   -0.6438 C   0  0  0  1  0  0  0  0  0  0  0  0
   -2.5018    5.4986    0.7034 O   0  0  0  1  0  0  0  0  0  0  0  0
   -2.6553    3.2752    1.0405 N   0  0  0  1  0  0  0  0  0  0  0  0
   -1.5398    4.8945   -2.5432 H   0  0  0  1  0  0  0  0  0  0  0  0
   -0.7069    6.3505   -1.4497 C   0  0  0  1  0  0  0  0  0  0  0  0
   -3.6520    3.3731    2.0964 C   0  0  0  1  0  0  0  0  0  0  0  0
   -0.7358    7.2812   -2.6465 C   0  0  0  1  0  0  0  0  0  0  0  0
   -0.2905    6.7255   -0.3660 O   0  0  0  1  0  0  0  0  0  0  0  0
   -2.3398    2.3881    0.7686 H   0  0  0  1  0  0  0  0  0  0  0  0
   -3.6181    4.3508    2.5299 H   0  0  0  1  0  0  0  0  0  0  0  0
   -3.4460    2.6418    2.8498 H   0  0  0  1  0  0  0  0  0  0  0  0
   -4.6245    3.1989    1.6857 H   0  0  0  1  0  0  0  0  0  0  0  0
    0.0357    7.0033   -3.3338 H   0  0  0  1  0  0  0  0  0  0  0  0
   -0.5762    8.2874   -2.3194 H   0  0  0  1  0  0  0  0  0  0  0  0
   -1.6873    7.2097   -3.1307 H   0  0  0  1  0  0  0  0  0  0  0  0
   -6.5450    2.1585   -3.4937 F   0  0  0  1  0  0  0  0  0  0  0  0
   -5.3149    2.2962   -2.9627 C   0  0  0  1  0  0  0  0  0  0  0  0
   -4.2965    2.8647   -3.7117 C   0  0  0  1  0  0  0  0  0  0  0  0
   -3.0329    3.0011   -3.1686 C   0  0  0  1  0  0  0  0  0  0  0  0
   -2.7853    2.5743   -1.8732 C   0  0  0  1  0  0  0  0  0  0  0  0
   -3.8009    2.0075   -1.1265 C   0  0  0  1  0  0  0  0  0  0  0  0
   -5.0683    1.8706   -1.6711 C   0  0  0  1  0  0  0  0  0  0  0  0
   -1.4060    2.7284   -1.2772 C   0  0  0  1  0  0  0  0  0  0  0  0
   -4.4831    3.1886   -4.6822 H   0  0  0  1  0  0  0  0  0  0  0  0
   -2.2677    3.4239   -3.7319 H   0  0  0  1  0  0  0  0  0  0  0  0
   -3.6142    1.6836   -0.1560 H   0  0  0  1  0  0  0  0  0  0  0  0
   -5.8335    1.4478   -1.1078 H   0  0  0  1  0  0  0  0  0  0  0  0
   -1.2864    1.9783   -0.5236 H   0  0  0  1  0  0  0  0  0  0  0  0
   -0.6901    2.5693   -2.0563 H   0  0  0  1  0  0  0  0  0  0  0  0
  1  4  1  0  0  0  0
  2  4  1  0  0  0  0
  2  5  2  0  0  0  0
  2  6  1  0  0  0  0
  3  4  1  0  0  0  0
  3  7  1  0  0  0  0
  3  8  1  0  0  0  0
  4 26  1  0  0  0  0
  6  9  1  0  0  0  0
  6 12  1  0  0  0  0
  8 10  1  0  0  0  0
  8 11  2  0  0  0  0
  9 13  1  0  0  0  0
  9 14  1  0  0  0  0
  9 15  1  0  0  0  0
 10 16  1  0  0  0  0
 10 17  1  0  0  0  0
 10 18  1  0  0  0  0
 19 20  1  0  0  0  0
 20 21  4  0  0  0  0
 20 25  4  0  0  0  0
 21 22  4  0  0  0  0
 21 27  1  0  0  0  0
 22 23  4  0  0  0  0
 22 28  1  0  0  0  0
 23 24  4  0  0  0  0
 23 26  1  0  0  0  0
 24 25  4  0  0  0  0
 24 29  1  0  0  0  0
 25 30  1  0  0  0  0
 26 31  1  0  0  0  0
 26 32  1  0  0  0  0
M  END
> <BCLConfClusterSize>
1

> <ConfClashScore>
0 

> <ConfOneFourInteractionScore>
-0.955611 

> <ConfScore>
-0.142432 

> <ConfScorePBest>
0.00783383 

> <ConfTolerance>
0.230217 

> <RosettaParamsInstructions>
M  ROOT 3
M  POLY_N_BB 3
M  POLY_CA_BB 4
M  POLY_C_BB 2
M  POLY_O_BB 5
M  POLY_IGNORE 9 10 11 12 13 14 15 16 17 18 
M  POLY_UPPER 6
M  POLY_LOWER 8
M  POLY_CHG 0
M  POLY_PROPERTIES ALPHA_AA D_AA PROTEIN AROMATIC POLYMER 
M  END

$$$$



 32 32  0  0  0  0  0  0  0  0999 V2000
    0.3724    1.6503   -0.9017 H   0  0  0  1  0  0  0  0  0  0  0  0
   -0.2103    1.0972   -2.8445 C   0  0  0  1  0  0  0  0  0  0  0  0
   -1.2127    0.3280   -0.7623 N   0  0  0  1  0  0  0  0  0  0  0  0
   -0.5491    1.4664   -1.4134 C   0  0  0  1  0  0  0  0  0  0  0  0
   -0.0779   -0.0751   -3.1860 O   0  0  0  1  0  0  0  0  0  0  0  0
   -0.0684    2.1266   -3.6944 N   0  0  0  1  0  0  0  0  0  0  0  0
   -2.0930    0.4642   -0.3537 H   0  0  0  1  0  0  0  0  0  0  0  0
   -0.6553   -0.8913   -0.7080 C   0  0  0  1  0  0  0  0  0  0  0  0
    0.3210    1.9396   -5.0828 C   0  0  0  1  0  0  0  0  0  0  0  0
   -1.4556   -1.9475    0.0199 C   0  0  0  1  0  0  0  0  0  0  0  0
    0.4381   -1.1523   -1.2131 O   0  0  0  1  0  0  0  0  0  0  0  0
   -0.2330    3.0358   -3.3676 H   0  0  0  1  0  0  0  0  0  0  0  0
    1.2294    1.3758   -5.1262 H   0  0  0  1  0  0  0  0  0  0  0  0
    0.4717    2.8941   -5.5424 H   0  0  0  1  0  0  0  0  0  0  0  0
   -0.4514    1.4114   -5.6016 H   0  0  0  1  0  0  0  0  0  0  0  0
   -1.5391   -1.6833    1.0534 H   0  0  0  1  0  0  0  0  0  0  0  0
   -0.9613   -2.8925   -0.0675 H   0  0  0  1  0  0  0  0  0  0  0  0
   -2.4327   -2.0143   -0.4110 H   0  0  0  1  0  0  0  0  0  0  0  0
   -6.5450    2.1585   -3.4937 F   0  0  0  1  0  0  0  0  0  0  0  0
   -5.3149    2.2962   -2.9627 C   0  0  0  1  0  0  0  0  0  0  0  0
   -4.2965    2.8647   -3.7117 C   0  0  0  1  0  0  0  0  0  0  0  0
   -3.0329    3.0011   -3.1686 C   0  0  0  1  0  0  0  0  0  0  0  0
   -2.7853    2.5743   -1.8732 C   0  0  0  1  0  0  0  0  0  0  0  0
   -3.8009    2.0075   -1.1265 C   0  0  0  1  0  0  0  0  0  0  0  0
   -5.0683    1.8706   -1.6711 C   0  0  0  1  0  0  0  0  0  0  0  0
   -1.4060    2.7284   -1.2772 C   0  0  0  1  0  0  0  0  0  0  0  0
   -4.4831    3.1886   -4.6822 H   0  0  0  1  0  0  0  0  0  0  0  0
   -2.2677    3.4239   -3.7319 H   0  0  0  1  0  0  0  0  0  0  0  0
   -3.6142    1.6836   -0.1560 H   0  0  0  1  0  0  0  0  0  0  0  0
   -5.8335    1.4478   -1.1078 H   0  0  0  1  0  0  0  0  0  0  0  0
   -0.9078    3.5337   -1.7753 H   0  0  0  1  0  0  0  0  0  0  0  0
   -1.5082    2.9601   -0.2376 H   0  0  0  1  0  0  0  0  0  0  0  0
  1  4  1  0  0  0  0
  2  4  1  0  0  0  0
  2  5  2  0  0  0  0
  2  6  1  0  0  0  0
  3  4  1  0  0  0  0
  3  7  1  0  0  0  0
  3  8  1  0  0  0  0
  4 26  1  0  0  0  0
  6  9  1  0  0  0  0
  6 12  1  0  0  0  0
  8 10  1  0  0  0  0
  8 11  2  0  0  0  0
  9 13  1  0  0  0  0
  9 14  1  0  0  0  0
  9 15  1  0  0  0  0
 10 16  1  0  0  0  0
 10 17  1  0  0  0  0
 10 18  1  0  0  0  0
 19 20  1  0  0  0  0
 20 21  4  0  0  0  0
 20 25  4  0  0  0  0
 21 22  4  0  0  0  0
 21 27  1  0  0  0  0
 22 23  4  0  0  0  0
 22 28  1  0  0  0  0
 23 24  4  0  0  0  0
 23 26  1  0  0  0  0
 24 25  4  0  0  0  0
 24 29  1  0  0  0  0
 25 30  1  0  0  0  0
 26 31  1  0  0  0  0
 26 32  1  0  0  0  0
M  END
> <BCLConfClusterSize>
1

> <ConfClashScore>
0 

> <ConfOneFourInteractionScore>
-0.949142 

> <ConfScore>
-0.123573 

> <ConfScorePBest>
0.00780535 

> <ConfTolerance>
0.189339 

> <RosettaParamsInstructions>
M  ROOT 3
M  POLY_N_BB 3
M  POLY_CA_BB 4
M  POLY_C_BB 2
M  POLY_O_BB 5
M  POLY_IGNORE 9 10 11 12 13 14 15 16 17 18 
M  POLY_UPPER 6
M  POLY_LOWER 8
M  POLY_CHG 0
M  POLY_PROPERTIES ALPHA_AA D_AA PROTEIN AROMATIC POLYMER 
M  END

$$$$



 32 32  0  0  0  0  0  0  0  0999 V2000
    0.4420    1.6835   -1.1323 H   0  0  0  1  0  0  0  0  0  0  0  0
   -0.0190    1.9798   -3.1834 C   0  0  0  1  0  0  0  0  0  0  0  0
   -1.0607    0.3538   -1.6884 N   0  0  0  1  0  0  0  0  0  0  0  0
   -0.4265    1.6654   -1.7571 C   0  0  0  1  0  0  0  0  0  0  0  0
    0.0520    1.0977   -4.0351 O   0  0  0  1  0  0  0  0  0  0  0  0
    0.2532    3.2687   -3.4416 N   0  0  0  1  0  0  0  0  0  0  0  0
   -1.9810    0.3124   -1.3543 H   0  0  0  1  0  0  0  0  0  0  0  0
   -0.4765   -0.8053   -2.0497 C   0  0  0  1  0  0  0  0  0  0  0  0
    0.6273    3.7335   -4.7689 C   0  0  0  1  0  0  0  0  0  0  0  0
   -1.3461   -2.0317   -1.8043 C   0  0  0  1  0  0  0  0  0  0  0  0
    0.6413   -0.8995   -2.5306 O   0  0  0  1  0  0  0  0  0  0  0  0
    0.1980    3.9193   -2.7108 H   0  0  0  1  0  0  0  0  0  0  0  0
    0.0826    3.1826   -5.5070 H   0  0  0  1  0  0  0  0  0  0  0  0
    1.6767    3.5851   -4.9159 H   0  0  0  1  0  0  0  0  0  0  0  0
    0.3977    4.7746   -4.8599 H   0  0  0  1  0  0  0  0  0  0  0  0
   -0.7882   -2.9162   -2.0306 H   0  0  0  1  0  0  0  0  0  0  0  0
   -2.2118   -1.9861   -2.4316 H   0  0  0  1  0  0  0  0  0  0  0  0
   -1.6492   -2.0542   -0.7784 H   0  0  0  1  0  0  0  0  0  0  0  0
   -6.5450    2.1585   -3.4937 F   0  0  0  1  0  0  0  0  0  0  0  0
   -5.3149    2.2962   -2.9627 C   0  0  0  1  0  0  0  0  0  0  0  0
   -4.2965    2.8647   -3.7117 C   0  0  0  1  0  0  0  0  0  0  0  0
   -3.0329    3.0011   -3.1686 C   0  0  0  1  0  0  0  0  0  0  0  0
   -2.7853    2.5743   -1.8732 C   0  0  0  1  0  0  0  0  0  0  0  0
   -3.8009    2.0075   -1.1265 C   0  0  0  1  0  0  0  0  0  0  0  0
   -5.0683    1.8706   -1.6711 C   0  0  0  1  0  0  0  0  0  0  0  0
   -1.4060    2.7284   -1.2772 C   0  0  0  1  0  0  0  0  0  0  0  0
   -4.4831    3.1886   -4.6822 H   0  0  0  1  0  0  0  0  0  0  0  0
   -2.2677    3.4239   -3.7319 H   0  0  0  1  0  0  0  0  0  0  0  0
   -3.6142    1.6836   -0.1560 H   0  0  0  1  0  0  0  0  0  0  0  0
   -5.8335    1.4478   -1.1078 H   0  0  0  1  0  0  0  0  0  0  0  0
   -1.0238    3.6906   -1.5474 H   0  0  0  1  0  0  0  0  0  0  0  0
   -1.4858    2.6620   -0.2122 H   0  0  0  1  0  0  0  0  0  0  0  0
  1  4  1  0  0  0  0
  2  4  1  0  0  0  0
  2  5  2  0  0  0  0
  2  6  1  0  0  0  0
  3  4  1  0  0  0  0
  3  7  1  0  0  0  0
  3  8  1  0  0  0  0
  4 26  1  0  0  0  0
  6  9  1  0  0  0  0
  6 12  1  0  0  0  0
  8 10  1  0  0  0  0
  8 11  2  0  0  0  0
  9 13  1  0  0  0  0
  9 14  1  0  0  0  0
  9 15  1  0  0  0  0
 10 16  1  0  0  0  0
 10 17  1  0  0  0  0
 10 18  1  0  0  0  0
 19 20  1  0  0  0  0
 20 21  4  0  0  0  0
 20 25  4  0  0  0  0
 21 22  4  0  0  0  0
 21 27  1  0  0  0  0
 22 23  4  0  0  0  0
 22 28  1  0  0  0  0
 23 24  4  0  0  0  0
 23 26  1  0  0  0  0
 24 25  4  0  0  0  0
 24 29  1  0  0  0  0
 25 30  1  0  0  0  0
 26 31  1  0  0  0  0
 26 32  1  0  0  0  0
M  END
> <BCLConfClusterSize>
1

> <ConfClashScore>
0 

> <ConfOneFourInteractionScore>
-0.95103 

> <ConfScore>
-0.106185 

> <ConfScorePBest>
0.00777687 

> <ConfTolerance>
0.210046 

> <RosettaParamsInstructions>
M  ROOT 3
M  POLY_N_BB 3
M  POLY_CA_BB 4
M  POLY_C_BB 2
M  POLY_O_BB 5
M  POLY_IGNORE 9 10 11 12 13 14 15 16 17 18 
M  POLY_UPPER 6
M  POLY_LOWER 8
M  POLY_CHG 0
M  POLY_PROPERTIES ALPHA_AA D_AA PROTEIN AROMATIC POLYMER 
M  END

$$$$



 32 32  0  0  0  0  0  0  0  0999 V2000
   -0.2211    4.0703   -0.2255 H   0  0  0  1  0  0  0  0  0  0  0  0
   -1.8771    3.8149    0.9841 C   0  0  0  1  0  0  0  0  0  0  0  0
   -1.6912    5.2101   -1.0765 N   0  0  0  1  0  0  0  0  0  0  0  0
   -1.2722    3.9619   -0.3938 C   0  0  0  1  0  0  0  0  0  0  0  0
   -2.0074    4.7880    1.7219 O   0  0  0  1  0  0  0  0  0  0  0  0
   -2.2645    2.5969    1.3732 N   0  0  0  1  0  0  0  0  0  0  0  0
   -2.0977    5.1491   -1.9661 H   0  0  0  1  0  0  0  0  0  0  0  0
   -1.5335    6.4149   -0.5209 C   0  0  0  1  0  0  0  0  0  0  0  0
   -2.8078    2.3405    2.6988 C   0  0  0  1  0  0  0  0  0  0  0  0
   -1.9706    7.5936   -1.3688 C   0  0  0  1  0  0  0  0  0  0  0  0
   -1.0655    6.5772    0.6052 O   0  0  0  1  0  0  0  0  0  0  0  0
   -2.1799    1.8502    0.7442 H   0  0  0  1  0  0  0  0  0  0  0  0
   -3.4444    3.1509    2.9867 H   0  0  0  1  0  0  0  0  0  0  0  0
   -2.0058    2.2503    3.4013 H   0  0  0  1  0  0  0  0  0  0  0  0
   -3.3725    1.4318    2.6829 H   0  0  0  1  0  0  0  0  0  0  0  0
   -1.8359    7.3584   -2.4039 H   0  0  0  1  0  0  0  0  0  0  0  0
   -1.3812    8.4508   -1.1184 H   0  0  0  1  0  0  0  0  0  0  0  0
   -3.0032    7.8033   -1.1824 H   0  0  0  1  0  0  0  0  0  0  0  0
   -6.5450    2.1585   -3.4937 F   0  0  0  1  0  0  0  0  0  0  0  0
   -5.3149    2.2962   -2.9627 C   0  0  0  1  0  0  0  0  0  0  0  0
   -4.2965    2.8647   -3.7117 C   0  0  0  1  0  0  0  0  0  0  0  0
   -3.0329    3.0011   -3.1686 C   0  0  0  1  0  0  0  0  0  0  0  0
   -2.7853    2.5743   -1.8732 C   0  0  0  1  0  0  0  0  0  0  0  0
   -3.8009    2.0075   -1.1265 C   0  0  0  1  0  0  0  0  0  0  0  0
   -5.0683    1.8706   -1.6711 C   0  0  0  1  0  0  0  0  0  0  0  0
   -1.4060    2.7284   -1.2772 C   0  0  0  1  0  0  0  0  0  0  0  0
   -4.4831    3.1886   -4.6822 H   0  0  0  1  0  0  0  0  0  0  0  0
   -2.2677    3.4239   -3.7319 H   0  0  0  1  0  0  0  0  0  0  0  0
   -3.6142    1.6836   -0.1560 H   0  0  0  1  0  0  0  0  0  0  0  0
   -5.8335    1.4478   -1.1078 H   0  0  0  1  0  0  0  0  0  0  0  0
   -1.1912    1.8620   -0.6871 H   0  0  0  1  0  0  0  0  0  0  0  0
   -0.6966    2.8022   -2.0748 H   0  0  0  1  0  0  0  0  0  0  0  0
  1  4  1  0  0  0  0
  2  4  1  0  0  0  0
  2  5  2  0  0  0  0
  2  6  1  0  0  0  0
  3  4  1  0  0  0  0
  3  7  1  0  0  0  0
  3  8  1  0  0  0  0
  4 26  1  0  0  0  0
  6  9  1  0  0  0  0
  6 12  1  0  0  0  0
  8 10  1  0  0  0  0
  8 11  2  0  0  0  0
  9 13  1  0  0  0  0
  9 14  1  0  0  0  0
  9 15  1  0  0  0  0
 10 16  1  0  0  0  0
 10 17  1  0  0  0  0
 10 18  1  0  0  0  0
 19 20  1  0  0  0  0
 20 21  4  0  0  0  0
 20 25  4  0  0  0  0
 21 22  4  0  0  0  0
 21 27  1  0  0  0  0
 22 23  4  0  0  0  0
 22 28  1  0  0  0  0
 23 24  4  0  0  0  0
 23 26  1  0  0  0  0
 24 25  4  0  0  0  0
 24 29  1  0  0  0  0
 25 30  1  0  0  0  0
 26 31  1  0  0  0  0
 26 32  1  0  0  0  0
M  END
> <BCLConfClusterSize>
1

> <ConfClashScore>
0 

> <ConfOneFourInteractionScore>
-0.942828 

> <ConfScore>
-0.104831 

> <ConfScorePBest>
0.00774839 

> <ConfTolerance>
0.233704 

> <RosettaParamsInstructions>
M  ROOT 3
M  POLY_N_BB 3
M  POLY_CA_BB 4
M  POLY_C_BB 2
M  POLY_O_BB 5
M  POLY_IGNORE 9 10 11 12 13 14 15 16 17 18 
M  POLY_UPPER 6
M  POLY_LOWER 8
M  POLY_CHG 0
M  POLY_PROPERTIES ALPHA_AA D_AA PROTEIN AROMATIC POLYMER 
M  END

$$$$



 32 32  0  0  0  0  0  0  0  0999 V2000
   -0.3943    3.6803    0.3138 H   0  0  0  1  0  0  0  0  0  0  0  0
   -2.0101    2.6211    1.1521 C   0  0  0  1  0  0  0  0  0  0  0  0
   -2.1391    4.7262   -0.0503 N   0  0  0  1  0  0  0  0  0  0  0  0
   -1.4105    3.4694    0.0535 C   0  0  0  1  0  0  0  0  0  0  0  0
   -2.6668    3.1334    2.0576 O   0  0  0  1  0  0  0  0  0  0  0  0
   -1.8044    1.2952    1.1092 N   0  0  0  1  0  0  0  0  0  0  0  0
   -2.5648    4.9572   -0.9023 H   0  0  0  1  0  0  0  0  0  0  0  0
   -2.2474    5.5752    0.9756 C   0  0  0  1  0  0  0  0  0  0  0  0
   -2.3226    0.4414    2.1660 C   0  0  0  1  0  0  0  0  0  0  0  0
   -2.8590    6.9245    0.6523 C   0  0  0  1  0  0  0  0  0  0  0  0
   -1.8831    5.3000    2.1070 O   0  0  0  1  0  0  0  0  0  0  0  0
   -1.3040    0.9019    0.3640 H   0  0  0  1  0  0  0  0  0  0  0  0
   -3.1429    0.9294    2.6495 H   0  0  0  1  0  0  0  0  0  0  0  0
   -1.5498    0.2506    2.8811 H   0  0  0  1  0  0  0  0  0  0  0  0
   -2.6562   -0.4841    1.7452 H   0  0  0  1  0  0  0  0  0  0  0  0
   -3.5080    6.8292   -0.1930 H   0  0  0  1  0  0  0  0  0  0  0  0
   -2.0810    7.6237    0.4272 H   0  0  0  1  0  0  0  0  0  0  0  0
   -3.4196    7.2728    1.4946 H   0  0  0  1  0  0  0  0  0  0  0  0
   -6.5450    2.1585   -3.4937 F   0  0  0  1  0  0  0  0  0  0  0  0
   -5.3149    2.2962   -2.9627 C   0  0  0  1  0  0  0  0  0  0  0  0
   -4.2965    2.8647   -3.7117 C   0  0  0  1  0  0  0  0  0  0  0  0
   -3.0329    3.0011   -3.1686 C   0  0  0  1  0  0  0  0  0  0  0  0
   -2.7853    2.5743   -1.8732 C   0  0  0  1  0  0  0  0  0  0  0  0
   -3.8009    2.0075   -1.1265 C   0  0  0  1  0  0  0  0  0  0  0  0
   -5.0683    1.8706   -1.6711 C   0  0  0  1  0  0  0  0  0  0  0  0
   -1.4060    2.7284   -1.2772 C   0  0  0  1  0  0  0  0  0  0  0  0
   -4.4831    3.1886   -4.6822 H   0  0  0  1  0  0  0  0  0  0  0  0
   -2.2677    3.4239   -3.7319 H   0  0  0  1  0  0  0  0  0  0  0  0
   -3.6142    1.6836   -0.1560 H   0  0  0  1  0  0  0  0  0  0  0  0
   -5.8335    1.4478   -1.1078 H   0  0  0  1  0  0  0  0  0  0  0  0
   -0.9907    1.7544   -1.1232 H   0  0  0  1  0  0  0  0  0  0  0  0
   -0.7954    3.2720   -1.9676 H   0  0  0  1  0  0  0  0  0  0  0  0
  1  4  1  0  0  0  0
  2  4  1  0  0  0  0
  2  5  2  0  0  0  0
  2  6  1  0  0  0  0
  3  4  1  0  0  0  0
  3  7  1  0  0  0  0
  3  8  1  0  0  0  0
  4 26  1  0  0  0  0
  6  9  1  0  0  0  0
  6 12  1  0  0  0  0
  8 10  1  0  0  0  0
  8 11  2  0  0  0  0
  9 13  1  0  0  0  0
  9 14  1  0  0  0  0
  9 15  1  0  0  0  0
 10 16  1  0  0  0  0
 10 17  1  0  0  0  0
 10 18  1  0  0  0  0
 19 20  1  0  0  0  0
 20 21  4  0  0  0  0
 20 25  4  0  0  0  0
 21 22  4  0  0  0  0
 21 27  1  0  0  0  0
 22 23  4  0  0  0  0
 22 28  1  0  0  0  0
 23 24  4  0  0  0  0
 23 26  1  0  0  0  0
 24 25  4  0  0  0  0
 24 29  1  0  0  0  0
 25 30  1  0  0  0  0
 26 31  1  0  0  0  0
 26 32  1  0  0  0  0
M  END
> <BCLConfClusterSize>
1

> <ConfClashScore>
0 

> <ConfOneFourInteractionScore>
-0.95103 

> <ConfScore>
-0.0863426 

> <ConfScorePBest>
0.00771991 

> <ConfTolerance>
0.216166 

> <RosettaParamsInstructions>
M  ROOT 3
M  POLY_N_BB 3
M  POLY_CA_BB 4
M  POLY_C_BB 2
M  POLY_O_BB 5
M  POLY_IGNORE 9 10 11 12 13 14 15 16 17 18 
M  POLY_UPPER 6
M  POLY_LOWER 8
M  POLY_CHG 0
M  POLY_PROPERTIES ALPHA_AA D_AA PROTEIN AROMATIC POLYMER 
M  END

$$$$



 32 32  0  0  0  0  0  0  0  0999 V2000
    0.3317    1.6496   -0.8133 H   0  0  0  1  0  0  0  0  0  0  0  0
   -0.3055    0.9357   -2.6795 C   0  0  0  1  0  0  0  0  0  0  0  0
   -1.2438    0.3749   -0.4821 N   0  0  0  1  0  0  0  0  0  0  0  0
   -0.6100    1.4299   -1.2715 C   0  0  0  1  0  0  0  0  0  0  0  0
   -0.0240   -0.2250   -2.9160 O   0  0  0  1  0  0  0  0  0  0  0  0
   -0.3474    1.8027   -3.6952 N   0  0  0  1  0  0  0  0  0  0  0  0
   -1.2285    0.4677    0.4934 H   0  0  0  1  0  0  0  0  0  0  0  0
   -1.8423   -0.7060   -0.9905 C   0  0  0  1  0  0  0  0  0  0  0  0
    0.1788    1.4817   -5.0135 C   0  0  0  1  0  0  0  0  0  0  0  0
   -2.2686   -1.7925    0.0049 C   0  0  0  1  0  0  0  0  0  0  0  0
   -2.1256   -0.8212   -2.1821 O   0  0  0  1  0  0  0  0  0  0  0  0
   -0.7464    2.6855   -3.5473 H   0  0  0  1  0  0  0  0  0  0  0  0
    0.1112    2.3432   -5.6445 H   0  0  0  1  0  0  0  0  0  0  0  0
   -0.3905    0.6822   -5.4395 H   0  0  0  1  0  0  0  0  0  0  0  0
    1.2028    1.1838   -4.9256 H   0  0  0  1  0  0  0  0  0  0  0  0
   -2.4925   -1.3432    0.9499 H   0  0  0  1  0  0  0  0  0  0  0  0
   -1.4729   -2.4977    0.1252 H   0  0  0  1  0  0  0  0  0  0  0  0
   -3.1377   -2.2945   -0.3660 H   0  0  0  1  0  0  0  0  0  0  0  0
   -6.5450    2.1585   -3.4937 F   0  0  0  1  0  0  0  0  0  0  0  0
   -5.3149    2.2962   -2.9627 C   0  0  0  1  0  0  0  0  0  0  0  0
   -4.2965    2.8647   -3.7117 C   0  0  0  1  0  0  0  0  0  0  0  0
   -3.0329    3.0011   -3.1686 C   0  0  0  1  0  0  0  0  0  0  0  0
   -2.7853    2.5743   -1.8732 C   0  0  0  1  0  0  0  0  0  0  0  0
   -3.8009    2.0075   -1.1265 C   0  0  0  1  0  0  0  0  0  0  0  0
   -5.0683    1.8706   -1.6711 C   0  0  0  1  0  0  0  0  0  0  0  0
   -1.4060    2.7284   -1.2772 C   0  0  0  1  0  0  0  0  0  0  0  0
   -4.4831    3.1886   -4.6822 H   0  0  0  1  0  0  0  0  0  0  0  0
   -2.2677    3.4239   -3.7319 H   0  0  0  1  0  0  0  0  0  0  0  0
   -3.6142    1.6836   -0.1560 H   0  0  0  1  0  0  0  0  0  0  0  0
   -5.8335    1.4478   -1.1078 H   0  0  0  1  0  0  0  0  0  0  0  0
   -0.8675    3.4555   -1.8483 H   0  0  0  1  0  0  0  0  0  0  0  0
   -1.5072    3.0703   -0.2683 H   0  0  0  1  0  0  0  0  0  0  0  0
  1  4  1  0  0  0  0
  2  4  1  0  0  0  0
  2  5  2  0  0  0  0
  2  6  1  0  0  0  0
  3  4  1  0  0  0  0
  3  7  1  0  0  0  0
  3  8  1  0  0  0  0
  4 26  1  0  0  0  0
  6  9  1  0  0  0  0
  6 12  1  0  0  0  0
  8 10  1  0  0  0  0
  8 11  2  0  0  0  0
  9 13  1  0  0  0  0
  9 14  1  0  0  0  0
  9 15  1  0  0  0  0
 10 16  1  0  0  0  0
 10 17  1  0  0  0  0
 10 18  1  0  0  0  0
 19 20  1  0  0  0  0
 20 21  4  0  0  0  0
 20 25  4  0  0  0  0
 21 22  4  0  0  0  0
 21 27  1  0  0  0  0
 22 23  4  0  0  0  0
 22 28  1  0  0  0  0
 23 24  4  0  0  0  0
 23 26  1  0  0  0  0
 24 25  4  0  0  0  0
 24 29  1  0  0  0  0
 25 30  1  0  0  0  0
 26 31  1  0  0  0  0
 26 32  1  0  0  0  0
M  END
> <BCLConfClusterSize>
1

> <ConfClashScore>
0 

> <ConfOneFourInteractionScore>
-0.924221 

> <ConfScore>
-0.0833268 

> <ConfScorePBest>
0.00769143 

> <ConfTolerance>
0.177081 

> <RosettaParamsInstructions>
M  ROOT 3
M  POLY_N_BB 3
M  POLY_CA_BB 4
M  POLY_C_BB 2
M  POLY_O_BB 5
M  POLY_IGNORE 9 10 11 12 13 14 15 16 17 18 
M  POLY_UPPER 6
M  POLY_LOWER 8
M  POLY_CHG 0
M  POLY_PROPERTIES ALPHA_AA D_AA PROTEIN AROMATIC POLYMER 
M  END

$$$$



 32 32  0  0  0  0  0  0  0  0999 V2000
   -1.2425    4.7653   -1.5826 H   0  0  0  1  0  0  0  0  0  0  0  0
    0.2852    4.3057   -0.2279 C   0  0  0  1  0  0  0  0  0  0  0  0
   -2.1535    4.4955    0.2426 N   0  0  0  1  0  0  0  0  0  0  0  0
   -1.1301    4.1173   -0.7386 C   0  0  0  1  0  0  0  0  0  0  0  0
    0.5439    5.1331    0.6421 O   0  0  0  1  0  0  0  0  0  0  0  0
    1.2165    3.5166   -0.7864 N   0  0  0  1  0  0  0  0  0  0  0  0
   -2.9096    5.0558   -0.0308 H   0  0  0  1  0  0  0  0  0  0  0  0
   -2.0537    4.0643    1.5479 C   0  0  0  1  0  0  0  0  0  0  0  0
    2.6176    3.5719   -0.3966 C   0  0  0  1  0  0  0  0  0  0  0  0
   -3.1648    4.4854    2.4649 C   0  0  0  1  0  0  0  0  0  0  0  0
   -1.1060    3.3850    1.8952 O   0  0  0  1  0  0  0  0  0  0  0  0
    0.9435    2.8811   -1.4807 H   0  0  0  1  0  0  0  0  0  0  0  0
    2.8277    4.5227    0.0468 H   0  0  0  1  0  0  0  0  0  0  0  0
    3.2336    3.4378   -1.2611 H   0  0  0  1  0  0  0  0  0  0  0  0
    2.8215    2.7957    0.3112 H   0  0  0  1  0  0  0  0  0  0  0  0
   -4.0187    4.7677    1.8852 H   0  0  0  1  0  0  0  0  0  0  0  0
   -2.8435    5.3181    3.0551 H   0  0  0  1  0  0  0  0  0  0  0  0
   -3.4242    3.6706    3.1081 H   0  0  0  1  0  0  0  0  0  0  0  0
   -6.5568    2.1423   -3.4599 F   0  0  0  1  0  0  0  0  0  0  0  0
   -5.3125    2.2993   -2.9691 C   0  0  0  1  0  0  0  0  0  0  0  0
   -4.2950    2.8680   -3.7192 C   0  0  0  1  0  0  0  0  0  0  0  0
   -3.0309    3.0049   -3.1774 C   0  0  0  1  0  0  0  0  0  0  0  0
   -2.7819    2.5786   -1.8821 C   0  0  0  1  0  0  0  0  0  0  0  0
   -3.7966    2.0116   -1.1343 C   0  0  0  1  0  0  0  0  0  0  0  0
   -5.0645    1.8742   -1.6775 C   0  0  0  1  0  0  0  0  0  0  0  0
   -1.4232    2.7075   -1.2350 C   0  0  0  1  0  0  0  0  0  0  0  0
   -4.4827    3.1915   -4.6896 H   0  0  0  1  0  0  0  0  0  0  0  0
   -2.2665    3.4279   -3.7415 H   0  0  0  1  0  0  0  0  0  0  0  0
   -3.6088    1.6881   -0.1639 H   0  0  0  1  0  0  0  0  0  0  0  0
   -5.8289    1.4512   -1.1134 H   0  0  0  1  0  0  0  0  0  0  0  0
   -1.3774    2.0369   -0.4025 H   0  0  0  1  0  0  0  0  0  0  0  0
   -0.6771    2.4372   -1.9528 H   0  0  0  1  0  0  0  0  0  0  0  0
  1  4  1  0  0  0  0
  2  4  1  0  0  0  0
  2  5  2  0  0  0  0
  2  6  1  0  0  0  0
  3  4  1  0  0  0  0
  3  7  1  0  0  0  0
  3  8  1  0  0  0  0
  4 26  1  0  0  0  0
  6  9  1  0  0  0  0
  6 12  1  0  0  0  0
  8 10  1  0  0  0  0
  8 11  2  0  0  0  0
  9 13  1  0  0  0  0
  9 14  1  0  0  0  0
  9 15  1  0  0  0  0
 10 16  1  0  0  0  0
 10 17  1  0  0  0  0
 10 18  1  0  0  0  0
 19 20  1  0  0  0  0
 20 21  4  0  0  0  0
 20 25  4  0  0  0  0
 21 22  4  0  0  0  0
 21 27  1  0  0  0  0
 22 23  4  0  0  0  0
 22 28  1  0  0  0  0
 23 24  4  0  0  0  0
 23 26  1  0  0  0  0
 24 25  4  0  0  0  0
 24 29  1  0  0  0  0
 25 30  1  0  0  0  0
 26 31  1  0  0  0  0
 26 32  1  0  0  0  0
M  END
> <BCLConfClusterSize>
1

> <ConfClashScore>
0 

> <ConfOneFourInteractionScore>
-0.933935 

> <ConfScore>
-0.0658944 

> <ConfScorePBest>
0.00766295 

> <ConfTolerance>
0.174523 

> <RosettaParamsInstructions>
M  ROOT 3
M  POLY_N_BB 3
M  POLY_CA_BB 4
M  POLY_C_BB 2
M  POLY_O_BB 5
M  POLY_IGNORE 9 10 11 12 13 14 15 16 17 18 
M  POLY_UPPER 6
M  POLY_LOWER 8
M  POLY_CHG 0
M  POLY_PROPERTIES ALPHA_AA D_AA PROTEIN AROMATIC POLYMER 
M  END

$$$$



 32 32  0  0  0  0  0  0  0  0999 V2000
   -1.2307    0.5827   -1.2734 H   0  0  0  1  0  0  0  0  0  0  0  0
    0.7012    1.2725   -0.8514 C   0  0  0  1  0  0  0  0  0  0  0  0
   -0.4172    1.2497   -3.0474 N   0  0  0  1  0  0  0  0  0  0  0  0
   -0.6185    1.3997   -1.5937 C   0  0  0  1  0  0  0  0  0  0  0  0
    1.5747    0.5398   -1.2857 O   0  0  0  1  0  0  0  0  0  0  0  0
    0.8688    2.0586    0.2238 N   0  0  0  1  0  0  0  0  0  0  0  0
   -0.9762    0.6124   -3.5390 H   0  0  0  1  0  0  0  0  0  0  0  0
    0.5099    1.9593   -3.7236 C   0  0  0  1  0  0  0  0  0  0  0  0
    2.0702    1.9390    1.0363 C   0  0  0  1  0  0  0  0  0  0  0  0
    0.5711    1.7993   -5.2258 C   0  0  0  1  0  0  0  0  0  0  0  0
    1.2838    2.7151   -3.1376 O   0  0  0  1  0  0  0  0  0  0  0  0
    0.1806    2.7143    0.4621 H   0  0  0  1  0  0  0  0  0  0  0  0
    2.7395    1.2378    0.5832 H   0  0  0  1  0  0  0  0  0  0  0  0
    1.8058    1.5979    2.0154 H   0  0  0  1  0  0  0  0  0  0  0  0
    2.5486    2.8934    1.1077 H   0  0  0  1  0  0  0  0  0  0  0  0
    0.1671    0.8472   -5.5003 H   0  0  0  1  0  0  0  0  0  0  0  0
    1.5890    1.8613   -5.5497 H   0  0  0  1  0  0  0  0  0  0  0  0
    0.0004    2.5759   -5.6906 H   0  0  0  1  0  0  0  0  0  0  0  0
   -6.5400    2.1402   -3.4999 F   0  0  0  1  0  0  0  0  0  0  0  0
   -5.3132    2.2907   -2.9648 C   0  0  0  1  0  0  0  0  0  0  0  0
   -4.2970    2.8657   -3.7120 C   0  0  0  1  0  0  0  0  0  0  0  0
   -3.0367    3.0151   -3.1647 C   0  0  0  1  0  0  0  0  0  0  0  0
   -2.7902    2.5950   -1.8669 C   0  0  0  1  0  0  0  0  0  0  0  0
   -3.8035    2.0217   -1.1220 C   0  0  0  1  0  0  0  0  0  0  0  0
   -5.0676    1.8717   -1.6708 C   0  0  0  1  0  0  0  0  0  0  0  0
   -1.3954    2.6708   -1.2922 C   0  0  0  1  0  0  0  0  0  0  0  0
   -4.4829    3.1845   -4.6843 H   0  0  0  1  0  0  0  0  0  0  0  0
   -2.2733    3.4429   -3.7266 H   0  0  0  1  0  0  0  0  0  0  0  0
   -3.6175    1.7028   -0.1497 H   0  0  0  1  0  0  0  0  0  0  0  0
   -5.8311    1.4440   -1.1089 H   0  0  0  1  0  0  0  0  0  0  0  0
   -0.8833    3.5056   -1.7232 H   0  0  0  1  0  0  0  0  0  0  0  0
   -1.4594    2.7997   -0.2319 H   0  0  0  1  0  0  0  0  0  0  0  0
  1  4  1  0  0  0  0
  2  4  1  0  0  0  0
  2  5  2  0  0  0  0
  2  6  1  0  0  0  0
  3  4  1  0  0  0  0
  3  7  1  0  0  0  0
  3  8  1  0  0  0  0
  4 26  1  0  0  0  0
  6  9  1  0  0  0  0
  6 12  1  0  0  0  0
  8 10  1  0  0  0  0
  8 11  2  0  0  0  0
  9 13  1  0  0  0  0
  9 14  1  0  0  0  0
  9 15  1  0  0  0  0
 10 16  1  0  0  0  0
 10 17  1  0  0  0  0
 10 18  1  0  0  0  0
 19 20  1  0  0  0  0
 20 21  4  0  0  0  0
 20 25  4  0  0  0  0
 21 22  4  0  0  0  0
 21 27  1  0  0  0  0
 22 23  4  0  0  0  0
 22 28  1  0  0  0  0
 23 24  4  0  0  0  0
 23 26  1  0  0  0  0
 24 25  4  0  0  0  0
 24 29  1  0  0  0  0
 25 30  1  0  0  0  0
 26 31  1  0  0  0  0
 26 32  1  0  0  0  0
M  END
> <BCLConfClusterSize>
1

> <ConfClashScore>
0 

> <ConfOneFourInteractionScore>
-0.933935 

> <ConfScore>
-0.0318148 

> <ConfScorePBest>
0.00763447 

> <ConfTolerance>
0.249285 

> <RosettaParamsInstructions>
M  ROOT 3
M  POLY_N_BB 3
M  POLY_CA_BB 4
M  POLY_C_BB 2
M  POLY_O_BB 5
M  POLY_IGNORE 9 10 11 12 13 14 15 16 17 18 
M  POLY_UPPER 6
M  POLY_LOWER 8
M  POLY_CHG 0
M  POLY_PROPERTIES ALPHA_AA D_AA PROTEIN AROMATIC POLYMER 
M  END

$$$$



 32 32  0  0  0  0  0  0  0  0999 V2000
   -1.5251    4.7667   -1.0636 H   0  0  0  1  0  0  0  0  0  0  0  0
    0.3405    4.1976   -0.2885 C   0  0  0  1  0  0  0  0  0  0  0  0
   -1.9115    3.8422    0.7299 N   0  0  0  1  0  0  0  0  0  0  0  0
   -1.1403    3.9425   -0.5001 C   0  0  0  1  0  0  0  0  0  0  0  0
    0.7553    4.6639    0.7717 O   0  0  0  1  0  0  0  0  0  0  0  0
    1.1819    3.8994   -1.2912 N   0  0  0  1  0  0  0  0  0  0  0  0
   -2.8114    4.2294    0.7568 H   0  0  0  1  0  0  0  0  0  0  0  0
   -1.4314    3.2356    1.8330 C   0  0  0  1  0  0  0  0  0  0  0  0
    2.6287    4.0326   -1.2313 C   0  0  0  1  0  0  0  0  0  0  0  0
   -2.4474    3.1262    2.9627 C   0  0  0  1  0  0  0  0  0  0  0  0
   -0.2869    2.7999    1.9504 O   0  0  0  1  0  0  0  0  0  0  0  0
    0.7917    3.5670   -2.1264 H   0  0  0  1  0  0  0  0  0  0  0  0
    3.0737    3.4468   -2.0083 H   0  0  0  1  0  0  0  0  0  0  0  0
    2.9792    3.6888   -0.2806 H   0  0  0  1  0  0  0  0  0  0  0  0
    2.8977    5.0600   -1.3609 H   0  0  0  1  0  0  0  0  0  0  0  0
   -3.3408    3.6488    2.6915 H   0  0  0  1  0  0  0  0  0  0  0  0
   -2.0385    3.5572    3.8527 H   0  0  0  1  0  0  0  0  0  0  0  0
   -2.6764    2.0957    3.1375 H   0  0  0  1  0  0  0  0  0  0  0  0
   -6.5386    2.1416   -3.5033 F   0  0  0  1  0  0  0  0  0  0  0  0
   -5.3132    2.2905   -2.9646 C   0  0  0  1  0  0  0  0  0  0  0  0
   -4.2943    2.8651   -3.7085 C   0  0  0  1  0  0  0  0  0  0  0  0
   -3.0355    3.0130   -3.1575 C   0  0  0  1  0  0  0  0  0  0  0  0
   -2.7930    2.5917   -1.8593 C   0  0  0  1  0  0  0  0  0  0  0  0
   -3.8090    2.0188   -1.1177 C   0  0  0  1  0  0  0  0  0  0  0  0
   -5.0717    1.8704   -1.6702 C   0  0  0  1  0  0  0  0  0  0  0  0
   -1.3824    2.6870   -1.3277 C   0  0  0  1  0  0  0  0  0  0  0  0
   -4.4772    3.1848   -4.6811 H   0  0  0  1  0  0  0  0  0  0  0  0
   -2.2700    3.4404   -3.7169 H   0  0  0  1  0  0  0  0  0  0  0  0
   -3.6261    1.6990   -0.1452 H   0  0  0  1  0  0  0  0  0  0  0  0
   -5.8372    1.4430   -1.1108 H   0  0  0  1  0  0  0  0  0  0  0  0
   -1.1915    1.8321   -0.7133 H   0  0  0  1  0  0  0  0  0  0  0  0
   -0.7056    2.6896   -2.1565 H   0  0  0  1  0  0  0  0  0  0  0  0
  1  4  1  0  0  0  0
  2  4  1  0  0  0  0
  2  5  2  0  0  0  0
  2  6  1  0  0  0  0
  3  4  1  0  0  0  0
  3  7  1  0  0  0  0
  3  8  1  0  0  0  0
  4 26  1  0  0  0  0
  6  9  1  0  0  0  0
  6 12  1  0  0  0  0
  8 10  1  0  0  0  0
  8 11  2  0  0  0  0
  9 13  1  0  0  0  0
  9 14  1  0  0  0  0
  9 15  1  0  0  0  0
 10 16  1  0  0  0  0
 10 17  1  0  0  0  0
 10 18  1  0  0  0  0
 19 20  1  0  0  0  0
 20 21  4  0  0  0  0
 20 25  4  0  0  0  0
 21 22  4  0  0  0  0
 21 27  1  0  0  0  0
 22 23  4  0  0  0  0
 22 28  1  0  0  0  0
 23 24  4  0  0  0  0
 23 26  1  0  0  0  0
 24 25  4  0  0  0  0
 24 29  1  0  0  0  0
 25 30  1  0  0  0  0
 26 31  1  0  0  0  0
 26 32  1  0  0  0  0
M  END
> <BCLConfClusterSize>
1

> <ConfClashScore>
0 

> <ConfOneFourInteractionScore>
-0.930059 

> <ConfScore>
0.0172648 

> <ConfScorePBest>
0.00760599 

> <ConfTolerance>
0.229964 

> <RosettaParamsInstructions>
M  ROOT 3
M  POLY_N_BB 3
M  POLY_CA_BB 4
M  POLY_C_BB 2
M  POLY_O_BB 5
M  POLY_IGNORE 9 10 11 12 13 14 15 16 17 18 
M  POLY_UPPER 6
M  POLY_LOWER 8
M  POLY_CHG 0
M  POLY_PROPERTIES ALPHA_AA D_AA PROTEIN AROMATIC POLYMER 
M  END

$$$$



 32 32  0  0  0  0  0  0  0  0999 V2000
   -0.2009    3.9874   -0.0626 H   0  0  0  1  0  0  0  0  0  0  0  0
   -2.0463    3.6249    0.9429 C   0  0  0  1  0  0  0  0  0  0  0  0
   -1.6948    5.1211   -0.9643 N   0  0  0  1  0  0  0  0  0  0  0  0
   -1.2349    3.8983   -0.3230 C   0  0  0  1  0  0  0  0  0  0  0  0
   -1.5212    3.1767    1.9612 O   0  0  0  1  0  0  0  0  0  0  0  0
   -3.3506    3.9189    0.8217 N   0  0  0  1  0  0  0  0  0  0  0  0
   -2.5475    5.5121   -0.6806 H   0  0  0  1  0  0  0  0  0  0  0  0
   -0.9686    5.7520   -1.9629 C   0  0  0  1  0  0  0  0  0  0  0  0
   -4.2339    3.8111    1.9733 C   0  0  0  1  0  0  0  0  0  0  0  0
   -1.5753    6.9282   -2.6751 C   0  0  0  1  0  0  0  0  0  0  0  0
    0.1438    5.3291   -2.2311 O   0  0  0  1  0  0  0  0  0  0  0  0
   -3.7086    4.2066   -0.0439 H   0  0  0  1  0  0  0  0  0  0  0  0
   -3.7145    4.1296    2.8529 H   0  0  0  1  0  0  0  0  0  0  0  0
   -4.5436    2.7937    2.0910 H   0  0  0  1  0  0  0  0  0  0  0  0
   -5.0930    4.4309    1.8226 H   0  0  0  1  0  0  0  0  0  0  0  0
   -2.4597    6.6165   -3.1904 H   0  0  0  1  0  0  0  0  0  0  0  0
   -0.8717    7.3199   -3.3797 H   0  0  0  1  0  0  0  0  0  0  0  0
   -1.8264    7.6857   -1.9623 H   0  0  0  1  0  0  0  0  0  0  0  0
   -6.5332    2.1730   -3.5231 F   0  0  0  1  0  0  0  0  0  0  0  0
   -5.3173    2.2932   -2.9566 C   0  0  0  1  0  0  0  0  0  0  0  0
   -4.3009    2.8621   -3.7082 C   0  0  0  1  0  0  0  0  0  0  0  0
   -3.0363    2.9999   -3.1680 C   0  0  0  1  0  0  0  0  0  0  0  0
   -2.7855    2.5741   -1.8729 C   0  0  0  1  0  0  0  0  0  0  0  0
   -3.7989    2.0069   -1.1236 C   0  0  0  1  0  0  0  0  0  0  0  0
   -5.0674    1.8686   -1.6653 C   0  0  0  1  0  0  0  0  0  0  0  0
   -1.4050    2.7298   -1.2800 C   0  0  0  1  0  0  0  0  0  0  0  0
   -4.4900    3.1852   -4.6785 H   0  0  0  1  0  0  0  0  0  0  0  0
   -2.2727    3.4230   -3.7333 H   0  0  0  1  0  0  0  0  0  0  0  0
   -3.6098    1.6838   -0.1533 H   0  0  0  1  0  0  0  0  0  0  0  0
   -5.8310    1.4455   -1.1000 H   0  0  0  1  0  0  0  0  0  0  0  0
   -1.1708    1.8311   -0.7485 H   0  0  0  1  0  0  0  0  0  0  0  0
   -0.7125    2.8592   -2.0854 H   0  0  0  1  0  0  0  0  0  0  0  0
  1  4  1  0  0  0  0
  2  4  1  0  0  0  0
  2  5  2  0  0  0  0
  2  6  1  0  0  0  0
  3  4  1  0  0  0  0
  3  7  1  0  0  0  0
  3  8  1  0  0  0  0
  4 26  1  0  0  0  0
  6  9  1  0  0  0  0
  6 12  1  0  0  0  0
  8 10  1  0  0  0  0
  8 11  2  0  0  0  0
  9 13  1  0  0  0  0
  9 14  1  0  0  0  0
  9 15  1  0  0  0  0
 10 16  1  0  0  0  0
 10 17  1  0  0  0  0
 10 18  1  0  0  0  0
 19 20  1  0  0  0  0
 20 21  4  0  0  0  0
 20 25  4  0  0  0  0
 21 22  4  0  0  0  0
 21 27  1  0  0  0  0
 22 23  4  0  0  0  0
 22 28  1  0  0  0  0
 23 24  4  0  0  0  0
 23 26  1  0  0  0  0
 24 25  4  0  0  0  0
 24 29  1  0  0  0  0
 25 30  1  0  0  0  0
 26 31  1  0  0  0  0
 26 32  1  0  0  0  0
M  END
> <BCLConfClusterSize>
1

> <ConfClashScore>
0 

> <ConfOneFourInteractionScore>
-0.9553 

> <ConfScore>
0.0396001 

> <ConfScorePBest>
0.00757751 

> <ConfTolerance>
0.203774 

> <RosettaParamsInstructions>
M  ROOT 3
M  POLY_N_BB 3
M  POLY_CA_BB 4
M  POLY_C_BB 2
M  POLY_O_BB 5
M  POLY_IGNORE 9 10 11 12 13 14 15 16 17 18 
M  POLY_UPPER 6
M  POLY_LOWER 8
M  POLY_CHG 0
M  POLY_PROPERTIES ALPHA_AA D_AA PROTEIN AROMATIC POLYMER 
M  END

$$$$



 32 32  0  0  0  0  0  0  0  0999 V2000
   -1.0445    4.7838   -1.5256 H   0  0  0  1  0  0  0  0  0  0  0  0
    0.1646    4.1087    0.0855 C   0  0  0  1  0  0  0  0  0  0  0  0
   -2.2258    4.5727    0.1646 N   0  0  0  1  0  0  0  0  0  0  0  0
   -1.1467    4.1156   -0.6962 C   0  0  0  1  0  0  0  0  0  0  0  0
    0.2982    4.7039    1.1392 O   0  0  0  1  0  0  0  0  0  0  0  0
    1.2061    3.4268   -0.3996 N   0  0  0  1  0  0  0  0  0  0  0  0
   -2.9269    5.1412   -0.2171 H   0  0  0  1  0  0  0  0  0  0  0  0
   -2.2947    4.2447    1.4580 C   0  0  0  1  0  0  0  0  0  0  0  0
    2.5307    3.5011    0.1987 C   0  0  0  1  0  0  0  0  0  0  0  0
   -3.4573    4.8407    2.2276 C   0  0  0  1  0  0  0  0  0  0  0  0
   -1.4835    3.5138    2.0021 O   0  0  0  1  0  0  0  0  0  0  0  0
    1.0735    2.8568   -1.1856 H   0  0  0  1  0  0  0  0  0  0  0  0
    3.1394    4.1774   -0.3644 H   0  0  0  1  0  0  0  0  0  0  0  0
    2.9789    2.5296    0.1938 H   0  0  0  1  0  0  0  0  0  0  0  0
    2.4474    3.8511    1.2064 H   0  0  0  1  0  0  0  0  0  0  0  0
   -3.2126    4.8826    3.2684 H   0  0  0  1  0  0  0  0  0  0  0  0
   -4.3258    4.2312    2.0900 H   0  0  0  1  0  0  0  0  0  0  0  0
   -3.6538    5.8290    1.8677 H   0  0  0  1  0  0  0  0  0  0  0  0
   -6.5463    2.1567   -3.4899 F   0  0  0  1  0  0  0  0  0  0  0  0
   -5.3147    2.2963   -2.9629 C   0  0  0  1  0  0  0  0  0  0  0  0
   -4.2994    2.8654   -3.7156 C   0  0  0  1  0  0  0  0  0  0  0  0
   -3.0342    3.0038   -3.1767 C   0  0  0  1  0  0  0  0  0  0  0  0
   -2.7820    2.5785   -1.8817 C   0  0  0  1  0  0  0  0  0  0  0  0
   -3.7945    2.0111   -1.1313 C   0  0  0  1  0  0  0  0  0  0  0  0
   -5.0635    1.8722   -1.6717 C   0  0  0  1  0  0  0  0  0  0  0  0
   -1.4219    2.7089   -1.2377 C   0  0  0  1  0  0  0  0  0  0  0  0
   -4.4895    3.1882   -4.6858 H   0  0  0  1  0  0  0  0  0  0  0  0
   -2.2714    3.4270   -3.7428 H   0  0  0  1  0  0  0  0  0  0  0  0
   -3.6043    1.6883   -0.1611 H   0  0  0  1  0  0  0  0  0  0  0  0
   -5.8264    1.4489   -1.1056 H   0  0  0  1  0  0  0  0  0  0  0  0
   -1.3611    2.0138   -0.4265 H   0  0  0  1  0  0  0  0  0  0  0  0
   -0.6756    2.4727   -1.9672 H   0  0  0  1  0  0  0  0  0  0  0  0
  1  4  1  0  0  0  0
  2  4  1  0  0  0  0
  2  5  2  0  0  0  0
  2  6  1  0  0  0  0
  3  4  1  0  0  0  0
  3  7  1  0  0  0  0
  3  8  1  0  0  0  0
  4 26  1  0  0  0  0
  6  9  1  0  0  0  0
  6 12  1  0  0  0  0
  8 10  1  0  0  0  0
  8 11  2  0  0  0  0
  9 13  1  0  0  0  0
  9 14  1  0  0  0  0
  9 15  1  0  0  0  0
 10 16  1  0  0  0  0
 10 17  1  0  0  0  0
 10 18  1  0  0  0  0
 19 20  1  0  0  0  0
 20 21  4  0  0  0  0
 20 25  4  0  0  0  0
 21 22  4  0  0  0  0
 21 27  1  0  0  0  0
 22 23  4  0  0  0  0
 22 28  1  0  0  0  0
 23 24  4  0  0  0  0
 23 26  1  0  0  0  0
 24 25  4  0  0  0  0
 24 29  1  0  0  0  0
 25 30  1  0  0  0  0
 26 31  1  0  0  0  0
 26 32  1  0  0  0  0
M  END
> <BCLConfClusterSize>
1

> <ConfClashScore>
0 

> <ConfOneFourInteractionScore>
-0.935823 

> <ConfScore>
0.0495373 

> <ConfScorePBest>
0.00754903 

> <ConfTolerance>
0.24869 

> <RosettaParamsInstructions>
M  ROOT 3
M  POLY_N_BB 3
M  POLY_CA_BB 4
M  POLY_C_BB 2
M  POLY_O_BB 5
M  POLY_IGNORE 9 10 11 12 13 14 15 16 17 18 
M  POLY_UPPER 6
M  POLY_LOWER 8
M  POLY_CHG 0
M  POLY_PROPERTIES ALPHA_AA D_AA PROTEIN AROMATIC POLYMER 
M  END

$$$$



 32 32  0  0  0  0  0  0  0  0999 V2000
    0.3119    1.5913   -0.7599 H   0  0  0  1  0  0  0  0  0  0  0  0
   -0.1868    1.1151   -2.7638 C   0  0  0  1  0  0  0  0  0  0  0  0
   -1.3436    0.3514   -0.7223 N   0  0  0  1  0  0  0  0  0  0  0  0
   -0.5832    1.4358   -1.3253 C   0  0  0  1  0  0  0  0  0  0  0  0
    0.9490    1.3745   -3.1590 O   0  0  0  1  0  0  0  0  0  0  0  0
   -1.0973    0.4739   -3.5135 N   0  0  0  1  0  0  0  0  0  0  0  0
   -1.6364   -0.3929   -1.2887 H   0  0  0  1  0  0  0  0  0  0  0  0
   -1.6596    0.3350    0.5892 C   0  0  0  1  0  0  0  0  0  0  0  0
   -0.8208    0.0486   -4.8775 C   0  0  0  1  0  0  0  0  0  0  0  0
   -2.5977   -0.7439    1.0810 C   0  0  0  1  0  0  0  0  0  0  0  0
   -1.1993    1.1723    1.3643 O   0  0  0  1  0  0  0  0  0  0  0  0
   -1.9788    0.2857   -3.1288 H   0  0  0  1  0  0  0  0  0  0  0  0
    0.0733   -0.5389   -4.8941 H   0  0  0  1  0  0  0  0  0  0  0  0
   -0.6934    0.9093   -5.5003 H   0  0  0  1  0  0  0  0  0  0  0  0
   -1.6391   -0.5372   -5.2409 H   0  0  0  1  0  0  0  0  0  0  0  0
   -2.2008   -1.7048    0.8279 H   0  0  0  1  0  0  0  0  0  0  0  0
   -3.5553   -0.6210    0.6196 H   0  0  0  1  0  0  0  0  0  0  0  0
   -2.7009   -0.6695    2.1434 H   0  0  0  1  0  0  0  0  0  0  0  0
   -6.5450    2.1585   -3.4937 F   0  0  0  1  0  0  0  0  0  0  0  0
   -5.3149    2.2962   -2.9627 C   0  0  0  1  0  0  0  0  0  0  0  0
   -4.2965    2.8647   -3.7117 C   0  0  0  1  0  0  0  0  0  0  0  0
   -3.0329    3.0011   -3.1686 C   0  0  0  1  0  0  0  0  0  0  0  0
   -2.7853    2.5743   -1.8732 C   0  0  0  1  0  0  0  0  0  0  0  0
   -3.8009    2.0075   -1.1265 C   0  0  0  1  0  0  0  0  0  0  0  0
   -5.0683    1.8706   -1.6711 C   0  0  0  1  0  0  0  0  0  0  0  0
   -1.4060    2.7284   -1.2772 C   0  0  0  1  0  0  0  0  0  0  0  0
   -4.4831    3.1886   -4.6822 H   0  0  0  1  0  0  0  0  0  0  0  0
   -2.2677    3.4239   -3.7319 H   0  0  0  1  0  0  0  0  0  0  0  0
   -3.6142    1.6836   -0.1560 H   0  0  0  1  0  0  0  0  0  0  0  0
   -5.8335    1.4478   -1.1078 H   0  0  0  1  0  0  0  0  0  0  0  0
   -0.8823    3.4860   -1.8219 H   0  0  0  1  0  0  0  0  0  0  0  0
   -1.5082    3.0292   -0.2554 H   0  0  0  1  0  0  0  0  0  0  0  0
  1  4  1  0  0  0  0
  2  4  1  0  0  0  0
  2  5  2  0  0  0  0
  2  6  1  0  0  0  0
  3  4  1  0  0  0  0
  3  7  1  0  0  0  0
  3  8  1  0  0  0  0
  4 26  1  0  0  0  0
  6  9  1  0  0  0  0
  6 12  1  0  0  0  0
  8 10  1  0  0  0  0
  8 11  2  0  0  0  0
  9 13  1  0  0  0  0
  9 14  1  0  0  0  0
  9 15  1  0  0  0  0
 10 16  1  0  0  0  0
 10 17  1  0  0  0  0
 10 18  1  0  0  0  0
 19 20  1  0  0  0  0
 20 21  4  0  0  0  0
 20 25  4  0  0  0  0
 21 22  4  0  0  0  0
 21 27  1  0  0  0  0
 22 23  4  0  0  0  0
 22 28  1  0  0  0  0
 23 24  4  0  0  0  0
 23 26  1  0  0  0  0
 24 25  4  0  0  0  0
 24 29  1  0  0  0  0
 25 30  1  0  0  0  0
 26 31  1  0  0  0  0
 26 32  1  0  0  0  0
M  END
> <BCLConfClusterSize>
1

> <ConfClashScore>
0 

> <ConfOneFourInteractionScore>
-0.952634 

> <ConfScore>
0.049862 

> <ConfScorePBest>
0.00752055 

> <ConfTolerance>
0.256532 

> <RosettaParamsInstructions>
M  ROOT 3
M  POLY_N_BB 3
M  POLY_CA_BB 4
M  POLY_C_BB 2
M  POLY_O_BB 5
M  POLY_IGNORE 9 10 11 12 13 14 15 16 17 18 
M  POLY_UPPER 6
M  POLY_LOWER 8
M  POLY_CHG 0
M  POLY_PROPERTIES ALPHA_AA D_AA PROTEIN AROMATIC POLYMER 
M  END

$$$$



 32 32  0  0  0  0  0  0  0  0999 V2000
    0.4375    1.7477   -1.0835 H   0  0  0  1  0  0  0  0  0  0  0  0
   -0.2003    1.3864   -3.0482 C   0  0  0  1  0  0  0  0  0  0  0  0
   -1.0025    0.2897   -1.0079 N   0  0  0  1  0  0  0  0  0  0  0  0
   -0.4967    1.5403   -1.5623 C   0  0  0  1  0  0  0  0  0  0  0  0
    0.6504    2.0851   -3.5977 O   0  0  0  1  0  0  0  0  0  0  0  0
   -0.8976    0.4627   -3.7417 N   0  0  0  1  0  0  0  0  0  0  0  0
   -1.2799   -0.4220   -1.6220 H   0  0  0  1  0  0  0  0  0  0  0  0
   -1.1014    0.0796    0.3136 C   0  0  0  1  0  0  0  0  0  0  0  0
   -0.5318    0.1505   -5.1153 C   0  0  0  1  0  0  0  0  0  0  0  0
   -1.5622   -1.3044    0.7279 C   0  0  0  1  0  0  0  0  0  0  0  0
   -0.8394    0.9424    1.1505 O   0  0  0  1  0  0  0  0  0  0  0  0
   -1.6519    0.0011   -3.3196 H   0  0  0  1  0  0  0  0  0  0  0  0
   -0.5934    1.0368   -5.7116 H   0  0  0  1  0  0  0  0  0  0  0  0
   -1.2020   -0.5876   -5.5036 H   0  0  0  1  0  0  0  0  0  0  0  0
    0.4690   -0.2271   -5.1405 H   0  0  0  1  0  0  0  0  0  0  0  0
   -2.5843   -1.4409    0.4423 H   0  0  0  1  0  0  0  0  0  0  0  0
   -1.4718   -1.4073    1.7891 H   0  0  0  1  0  0  0  0  0  0  0  0
   -0.9556   -2.0415    0.2446 H   0  0  0  1  0  0  0  0  0  0  0  0
   -6.5450    2.1585   -3.4937 F   0  0  0  1  0  0  0  0  0  0  0  0
   -5.3149    2.2962   -2.9627 C   0  0  0  1  0  0  0  0  0  0  0  0
   -4.2965    2.8647   -3.7117 C   0  0  0  1  0  0  0  0  0  0  0  0
   -3.0329    3.0011   -3.1686 C   0  0  0  1  0  0  0  0  0  0  0  0
   -2.7853    2.5743   -1.8732 C   0  0  0  1  0  0  0  0  0  0  0  0
   -3.8009    2.0075   -1.1265 C   0  0  0  1  0  0  0  0  0  0  0  0
   -5.0683    1.8706   -1.6711 C   0  0  0  1  0  0  0  0  0  0  0  0
   -1.4060    2.7284   -1.2772 C   0  0  0  1  0  0  0  0  0  0  0  0
   -4.4831    3.1886   -4.6822 H   0  0  0  1  0  0  0  0  0  0  0  0
   -2.2677    3.4239   -3.7319 H   0  0  0  1  0  0  0  0  0  0  0  0
   -3.6142    1.6836   -0.1560 H   0  0  0  1  0  0  0  0  0  0  0  0
   -5.8335    1.4478   -1.1078 H   0  0  0  1  0  0  0  0  0  0  0  0
   -0.9548    3.6084   -1.6857 H   0  0  0  1  0  0  0  0  0  0  0  0
   -1.5032    2.8362   -0.2171 H   0  0  0  1  0  0  0  0  0  0  0  0
  1  4  1  0  0  0  0
  2  4  1  0  0  0  0
  2  5  2  0  0  0  0
  2  6  1  0  0  0  0
  3  4  1  0  0  0  0
  3  7  1  0  0  0  0
  3  8  1  0  0  0  0
  4 26  1  0  0  0  0
  6  9  1  0  0  0  0
  6 12  1  0  0  0  0
  8 10  1  0  0  0  0
  8 11  2  0  0  0  0
  9 13  1  0  0  0  0
  9 14  1  0  0  0  0
  9 15  1  0  0  0  0
 10 16  1  0  0  0  0
 10 17  1  0  0  0  0
 10 18  1  0  0  0  0
 19 20  1  0  0  0  0
 20 21  4  0  0  0  0
 20 25  4  0  0  0  0
 21 22  4  0  0  0  0
 21 27  1  0  0  0  0
 22 23  4  0  0  0  0
 22 28  1  0  0  0  0
 23 24  4  0  0  0  0
 23 26  1  0  0  0  0
 24 25  4  0  0  0  0
 24 29  1  0  0  0  0
 25 30  1  0  0  0  0
 26 31  1  0  0  0  0
 26 32  1  0  0  0  0
M  END
> <BCLConfClusterSize>
1

> <ConfClashScore>
0 

> <ConfOneFourInteractionScore>
-0.952634 

> <ConfScore>
0.059371 

> <ConfScorePBest>
0.00749207 

> <ConfTolerance>
0.275517 

> <RosettaParamsInstructions>
M  ROOT 3
M  POLY_N_BB 3
M  POLY_CA_BB 4
M  POLY_C_BB 2
M  POLY_O_BB 5
M  POLY_IGNORE 9 10 11 12 13 14 15 16 17 18 
M  POLY_UPPER 6
M  POLY_LOWER 8
M  POLY_CHG 0
M  POLY_PROPERTIES ALPHA_AA D_AA PROTEIN AROMATIC POLYMER 
M  END

$$$$



 32 32  0  0  0  0  0  0  0  0999 V2000
   -1.1067    0.6223   -1.0331 H   0  0  0  1  0  0  0  0  0  0  0  0
    0.7864    1.5224   -0.8176 C   0  0  0  1  0  0  0  0  0  0  0  0
   -0.4863    1.2164   -2.9168 N   0  0  0  1  0  0  0  0  0  0  0  0
   -0.5808    1.4444   -1.4718 C   0  0  0  1  0  0  0  0  0  0  0  0
    1.7217    0.8710   -1.2751 O   0  0  0  1  0  0  0  0  0  0  0  0
    0.9214    2.3867    0.2006 N   0  0  0  1  0  0  0  0  0  0  0  0
   -0.9505    1.8300   -3.5238 H   0  0  0  1  0  0  0  0  0  0  0  0
    0.2141    0.1963   -3.4375 C   0  0  0  1  0  0  0  0  0  0  0  0
    2.1637    2.6515    0.9086 C   0  0  0  1  0  0  0  0  0  0  0  0
    0.1823    0.1459   -4.9527 C   0  0  0  1  0  0  0  0  0  0  0  0
    0.8331   -0.6349   -2.7786 O   0  0  0  1  0  0  0  0  0  0  0  0
    0.1226    2.8760    0.4886 H   0  0  0  1  0  0  0  0  0  0  0  0
    2.6847    1.7314    1.0722 H   0  0  0  1  0  0  0  0  0  0  0  0
    1.9463    3.1105    1.8504 H   0  0  0  1  0  0  0  0  0  0  0  0
    2.7741    3.3077    0.3240 H   0  0  0  1  0  0  0  0  0  0  0  0
   -0.8214   -0.0217   -5.2835 H   0  0  0  1  0  0  0  0  0  0  0  0
    0.8085   -0.6509   -5.2960 H   0  0  0  1  0  0  0  0  0  0  0  0
    0.5373    1.0748   -5.3477 H   0  0  0  1  0  0  0  0  0  0  0  0
   -6.5467    2.1567   -3.4900 F   0  0  0  1  0  0  0  0  0  0  0  0
   -5.3151    2.2963   -2.9631 C   0  0  0  1  0  0  0  0  0  0  0  0
   -4.2997    2.8654   -3.7158 C   0  0  0  1  0  0  0  0  0  0  0  0
   -3.0346    3.0037   -3.1769 C   0  0  0  1  0  0  0  0  0  0  0  0
   -2.7823    2.5784   -1.8819 C   0  0  0  1  0  0  0  0  0  0  0  0
   -3.7948    2.0110   -1.1314 C   0  0  0  1  0  0  0  0  0  0  0  0
   -5.0638    1.8722   -1.6718 C   0  0  0  1  0  0  0  0  0  0  0  0
   -1.4183    2.7093   -1.2360 C   0  0  0  1  0  0  0  0  0  0  0  0
   -4.4899    3.1881   -4.6860 H   0  0  0  1  0  0  0  0  0  0  0  0
   -2.2717    3.4270   -3.7430 H   0  0  0  1  0  0  0  0  0  0  0  0
   -3.6047    1.6882   -0.1613 H   0  0  0  1  0  0  0  0  0  0  0  0
   -5.8267    1.4489   -1.1057 H   0  0  0  1  0  0  0  0  0  0  0  0
   -0.9095    3.5506   -1.6581 H   0  0  0  1  0  0  0  0  0  0  0  0
   -1.5412    2.8575   -0.1835 H   0  0  0  1  0  0  0  0  0  0  0  0
  1  4  1  0  0  0  0
  2  4  1  0  0  0  0
  2  5  2  0  0  0  0
  2  6  1  0  0  0  0
  3  4  1  0  0  0  0
  3  7  1  0  0  0  0
  3  8  1  0  0  0  0
  4 26  1  0  0  0  0
  6  9  1  0  0  0  0
  6 12  1  0  0  0  0
  8 10  1  0  0  0  0
  8 11  2  0  0  0  0
  9 13  1  0  0  0  0
  9 14  1  0  0  0  0
  9 15  1  0  0  0  0
 10 16  1  0  0  0  0
 10 17  1  0  0  0  0
 10 18  1  0  0  0  0
 19 20  1  0  0  0  0
 20 21  4  0  0  0  0
 20 25  4  0  0  0  0
 21 22  4  0  0  0  0
 21 27  1  0  0  0  0
 22 23  4  0  0  0  0
 22 28  1  0  0  0  0
 23 24  4  0  0  0  0
 23 26  1  0  0  0  0
 24 25  4  0  0  0  0
 24 29  1  0  0  0  0
 25 30  1  0  0  0  0
 26 31  1  0  0  0  0
 26 32  1  0  0  0  0
M  END
> <BCLConfClusterSize>
1

> <ConfClashScore>
0 

> <ConfOneFourInteractionScore>
-0.958855 

> <ConfScore>
0.0596787 

> <ConfScorePBest>
0.00746359 

> <ConfTolerance>
0.262015 

> <RosettaParamsInstructions>
M  ROOT 3
M  POLY_N_BB 3
M  POLY_CA_BB 4
M  POLY_C_BB 2
M  POLY_O_BB 5
M  POLY_IGNORE 9 10 11 12 13 14 15 16 17 18 
M  POLY_UPPER 6
M  POLY_LOWER 8
M  POLY_CHG 0
M  POLY_PROPERTIES ALPHA_AA D_AA PROTEIN AROMATIC POLYMER 
M  END

$$$$



 32 32  0  0  0  0  0  0  0  0999 V2000
   -1.1789    0.6472   -1.0064 H   0  0  0  1  0  0  0  0  0  0  0  0
    0.6523    1.5263   -0.4674 C   0  0  0  1  0  0  0  0  0  0  0  0
   -0.2139    1.1694   -2.7481 N   0  0  0  1  0  0  0  0  0  0  0  0
   -0.5682    1.4498   -1.3640 C   0  0  0  1  0  0  0  0  0  0  0  0
    0.5485    1.7668    0.7241 O   0  0  0  1  0  0  0  0  0  0  0  0
    1.8329    1.3140   -1.0701 N   0  0  0  1  0  0  0  0  0  0  0  0
   -0.0378    1.9084   -3.3671 H   0  0  0  1  0  0  0  0  0  0  0  0
   -0.1281   -0.0987   -3.1779 C   0  0  0  1  0  0  0  0  0  0  0  0
    3.0653    1.3529   -0.2972 C   0  0  0  1  0  0  0  0  0  0  0  0
    0.0299   -0.2775   -4.6753 C   0  0  0  1  0  0  0  0  0  0  0  0
   -0.1727   -1.0656   -2.4218 O   0  0  0  1  0  0  0  0  0  0  0  0
    1.8648    1.1324   -2.0326 H   0  0  0  1  0  0  0  0  0  0  0  0
    3.0347    0.5997    0.4621 H   0  0  0  1  0  0  0  0  0  0  0  0
    3.1696    2.3151    0.1592 H   0  0  0  1  0  0  0  0  0  0  0  0
    3.8979    1.1727   -0.9447 H   0  0  0  1  0  0  0  0  0  0  0  0
   -0.8148    0.1466   -5.1767 H   0  0  0  1  0  0  0  0  0  0  0  0
    0.0940   -1.3206   -4.9049 H   0  0  0  1  0  0  0  0  0  0  0  0
    0.9221    0.2153   -5.0009 H   0  0  0  1  0  0  0  0  0  0  0  0
   -6.5332    2.1730   -3.5231 F   0  0  0  1  0  0  0  0  0  0  0  0
   -5.3173    2.2932   -2.9566 C   0  0  0  1  0  0  0  0  0  0  0  0
   -4.3009    2.8621   -3.7082 C   0  0  0  1  0  0  0  0  0  0  0  0
   -3.0363    2.9999   -3.1680 C   0  0  0  1  0  0  0  0  0  0  0  0
   -2.7855    2.5741   -1.8729 C   0  0  0  1  0  0  0  0  0  0  0  0
   -3.7989    2.0069   -1.1236 C   0  0  0  1  0  0  0  0  0  0  0  0
   -5.0674    1.8686   -1.6653 C   0  0  0  1  0  0  0  0  0  0  0  0
   -1.4050    2.7298   -1.2800 C   0  0  0  1  0  0  0  0  0  0  0  0
   -4.4900    3.1852   -4.6785 H   0  0  0  1  0  0  0  0  0  0  0  0
   -2.2727    3.4230   -3.7333 H   0  0  0  1  0  0  0  0  0  0  0  0
   -3.6098    1.6838   -0.1533 H   0  0  0  1  0  0  0  0  0  0  0  0
   -5.8310    1.4455   -1.1000 H   0  0  0  1  0  0  0  0  0  0  0  0
   -0.8930    3.5067   -1.8084 H   0  0  0  1  0  0  0  0  0  0  0  0
   -1.5054    3.0041   -0.2506 H   0  0  0  1  0  0  0  0  0  0  0  0
  1  4  1  0  0  0  0
  2  4  1  0  0  0  0
  2  5  2  0  0  0  0
  2  6  1  0  0  0  0
  3  4  1  0  0  0  0
  3  7  1  0  0  0  0
  3  8  1  0  0  0  0
  4 26  1  0  0  0  0
  6  9  1  0  0  0  0
  6 12  1  0  0  0  0
  8 10  1  0  0  0  0
  8 11  2  0  0  0  0
  9 13  1  0  0  0  0
  9 14  1  0  0  0  0
  9 15  1  0  0  0  0
 10 16  1  0  0  0  0
 10 17  1  0  0  0  0
 10 18  1  0  0  0  0
 19 20  1  0  0  0  0
 20 21  4  0  0  0  0
 20 25  4  0  0  0  0
 21 22  4  0  0  0  0
 21 27  1  0  0  0  0
 22 23  4  0  0  0  0
 22 28  1  0  0  0  0
 23 24  4  0  0  0  0
 23 26  1  0  0  0  0
 24 25  4  0  0  0  0
 24 29  1  0  0  0  0
 25 30  1  0  0  0  0
 26 31  1  0  0  0  0
 26 32  1  0  0  0  0
M  END
> <BCLConfClusterSize>
1

> <ConfClashScore>
0 

> <ConfOneFourInteractionScore>
-0.960318 

> <ConfScore>
0.0612928 

> <ConfScorePBest>
0.0074351 

> <ConfTolerance>
0.235651 

> <RosettaParamsInstructions>
M  ROOT 3
M  POLY_N_BB 3
M  POLY_CA_BB 4
M  POLY_C_BB 2
M  POLY_O_BB 5
M  POLY_IGNORE 9 10 11 12 13 14 15 16 17 18 
M  POLY_UPPER 6
M  POLY_LOWER 8
M  POLY_CHG 0
M  POLY_PROPERTIES ALPHA_AA D_AA PROTEIN AROMATIC POLYMER 
M  END

$$$$



 32 32  0  0  0  0  0  0  0  0999 V2000
    0.4223    1.7014   -1.0445 H   0  0  0  1  0  0  0  0  0  0  0  0
   -0.1364    1.4791   -3.0696 C   0  0  0  1  0  0  0  0  0  0  0  0
   -1.1512    0.3643   -1.0850 N   0  0  0  1  0  0  0  0  0  0  0  0
   -0.4860    1.5558   -1.5909 C   0  0  0  1  0  0  0  0  0  0  0  0
    0.1420    0.4069   -3.6050 O   0  0  0  1  0  0  0  0  0  0  0  0
   -0.1536    2.6453   -3.7342 N   0  0  0  1  0  0  0  0  0  0  0  0
   -0.9047    0.0250   -0.1993 H   0  0  0  1  0  0  0  0  0  0  0  0
   -2.0903   -0.2857   -1.7891 C   0  0  0  1  0  0  0  0  0  0  0  0
    0.2244    2.6915   -5.1375 C   0  0  0  1  0  0  0  0  0  0  0  0
   -2.6718   -1.5206   -1.1287 C   0  0  0  1  0  0  0  0  0  0  0  0
   -2.4675    0.0810   -2.8990 O   0  0  0  1  0  0  0  0  0  0  0  0
   -0.4216    3.4672   -3.2726 H   0  0  0  1  0  0  0  0  0  0  0  0
    0.0508    3.6749   -5.5220 H   0  0  0  1  0  0  0  0  0  0  0  0
   -0.3613    1.9852   -5.6879 H   0  0  0  1  0  0  0  0  0  0  0  0
    1.2619    2.4486   -5.2354 H   0  0  0  1  0  0  0  0  0  0  0  0
   -3.0340   -1.2674   -0.1542 H   0  0  0  1  0  0  0  0  0  0  0  0
   -1.9129   -2.2700   -1.0434 H   0  0  0  1  0  0  0  0  0  0  0  0
   -3.4790   -1.8957   -1.7226 H   0  0  0  1  0  0  0  0  0  0  0  0
   -6.5450    2.1585   -3.4937 F   0  0  0  1  0  0  0  0  0  0  0  0
   -5.3149    2.2962   -2.9627 C   0  0  0  1  0  0  0  0  0  0  0  0
   -4.2965    2.8647   -3.7117 C   0  0  0  1  0  0  0  0  0  0  0  0
   -3.0329    3.0011   -3.1686 C   0  0  0  1  0  0  0  0  0  0  0  0
   -2.7853    2.5743   -1.8732 C   0  0  0  1  0  0  0  0  0  0  0  0
   -3.8009    2.0075   -1.1265 C   0  0  0  1  0  0  0  0  0  0  0  0
   -5.0683    1.8706   -1.6711 C   0  0  0  1  0  0  0  0  0  0  0  0
   -1.4060    2.7284   -1.2772 C   0  0  0  1  0  0  0  0  0  0  0  0
   -4.4831    3.1886   -4.6822 H   0  0  0  1  0  0  0  0  0  0  0  0
   -2.2677    3.4239   -3.7319 H   0  0  0  1  0  0  0  0  0  0  0  0
   -3.6142    1.6836   -0.1560 H   0  0  0  1  0  0  0  0  0  0  0  0
   -5.8335    1.4478   -1.1078 H   0  0  0  1  0  0  0  0  0  0  0  0
   -0.9643    3.6216   -1.6671 H   0  0  0  1  0  0  0  0  0  0  0  0
   -1.5015    2.8116   -0.2147 H   0  0  0  1  0  0  0  0  0  0  0  0
  1  4  1  0  0  0  0
  2  4  1  0  0  0  0
  2  5  2  0  0  0  0
  2  6  1  0  0  0  0
  3  4  1  0  0  0  0
  3  7  1  0  0  0  0
  3  8  1  0  0  0  0
  4 26  1  0  0  0  0
  6  9  1  0  0  0  0
  6 12  1  0  0  0  0
  8 10  1  0  0  0  0
  8 11  2  0  0  0  0
  9 13  1  0  0  0  0
  9 14  1  0  0  0  0
  9 15  1  0  0  0  0
 10 16  1  0  0  0  0
 10 17  1  0  0  0  0
 10 18  1  0  0  0  0
 19 20  1  0  0  0  0
 20 21  4  0  0  0  0
 20 25  4  0  0  0  0
 21 22  4  0  0  0  0
 21 27  1  0  0  0  0
 22 23  4  0  0  0  0
 22 28  1  0  0  0  0
 23 24  4  0  0  0  0
 23 26  1  0  0  0  0
 24 25  4  0  0  0  0
 24 29  1  0  0  0  0
 25 30  1  0  0  0  0
 26 31  1  0  0  0  0
 26 32  1  0  0  0  0
M  END
> <BCLConfClusterSize>
1

> <ConfClashScore>
0 

> <ConfOneFourInteractionScore>
-0.924221 

> <ConfScore>
0.0684686 

> <ConfScorePBest>
0.00740662 

> <ConfTolerance>
0.230171 

> <RosettaParamsInstructions>
M  ROOT 3
M  POLY_N_BB 3
M  POLY_CA_BB 4
M  POLY_C_BB 2
M  POLY_O_BB 5
M  POLY_IGNORE 9 10 11 12 13 14 15 16 17 18 
M  POLY_UPPER 6
M  POLY_LOWER 8
M  POLY_CHG 0
M  POLY_PROPERTIES ALPHA_AA D_AA PROTEIN AROMATIC POLYMER 
M  END

$$$$



 32 32  0  0  0  0  0  0  0  0999 V2000
    0.0239    4.0983   -0.6342 H   0  0  0  1  0  0  0  0  0  0  0  0
   -1.7812    5.1086   -0.4493 C   0  0  0  1  0  0  0  0  0  0  0  0
   -0.5183    4.6543   -2.5290 N   0  0  0  1  0  0  0  0  0  0  0  0
   -0.8843    4.1522   -1.1975 C   0  0  0  1  0  0  0  0  0  0  0  0
   -1.5390    6.3114   -0.5397 O   0  0  0  1  0  0  0  0  0  0  0  0
   -2.7786    4.5579    0.2593 N   0  0  0  1  0  0  0  0  0  0  0  0
    0.2985    4.3179   -2.9533 H   0  0  0  1  0  0  0  0  0  0  0  0
   -1.2578    5.5504   -3.1790 C   0  0  0  1  0  0  0  0  0  0  0  0
   -3.6654    5.3996    1.0487 C   0  0  0  1  0  0  0  0  0  0  0  0
   -0.6865    6.1717   -4.4387 C   0  0  0  1  0  0  0  0  0  0  0  0
   -2.3773    5.9052   -2.8196 O   0  0  0  1  0  0  0  0  0  0  0  0
   -2.9103    3.5869    0.2453 H   0  0  0  1  0  0  0  0  0  0  0  0
   -3.1168    6.2334    1.4343 H   0  0  0  1  0  0  0  0  0  0  0  0
   -4.0670    4.8308    1.8611 H   0  0  0  1  0  0  0  0  0  0  0  0
   -4.4642    5.7535    0.4311 H   0  0  0  1  0  0  0  0  0  0  0  0
   -0.5519    5.4135   -5.1816 H   0  0  0  1  0  0  0  0  0  0  0  0
    0.2572    6.6244   -4.2164 H   0  0  0  1  0  0  0  0  0  0  0  0
   -1.3616    6.9157   -4.8069 H   0  0  0  1  0  0  0  0  0  0  0  0
   -6.5556    2.1442   -3.4638 F   0  0  0  1  0  0  0  0  0  0  0  0
   -5.3127    2.2992   -2.9689 C   0  0  0  1  0  0  0  0  0  0  0  0
   -4.2921    2.8673   -3.7153 C   0  0  0  1  0  0  0  0  0  0  0  0
   -3.0296    3.0022   -3.1693 C   0  0  0  1  0  0  0  0  0  0  0  0
   -2.7852    2.5745   -1.8736 C   0  0  0  1  0  0  0  0  0  0  0  0
   -3.8029    2.0080   -1.1295 C   0  0  0  1  0  0  0  0  0  0  0  0
   -5.0693    1.8726   -1.6769 C   0  0  0  1  0  0  0  0  0  0  0  0
   -1.4071    2.7271   -1.2744 C   0  0  0  1  0  0  0  0  0  0  0  0
   -4.4763    3.1919   -4.6860 H   0  0  0  1  0  0  0  0  0  0  0  0
   -2.2628    3.4248   -3.7307 H   0  0  0  1  0  0  0  0  0  0  0  0
   -3.6187    1.6834   -0.1588 H   0  0  0  1  0  0  0  0  0  0  0  0
   -5.8360    1.4501   -1.1156 H   0  0  0  1  0  0  0  0  0  0  0  0
   -1.4336    2.3311   -0.2807 H   0  0  0  1  0  0  0  0  0  0  0  0
   -0.7240    2.1565   -1.8682 H   0  0  0  1  0  0  0  0  0  0  0  0
  1  4  1  0  0  0  0
  2  4  1  0  0  0  0
  2  5  2  0  0  0  0
  2  6  1  0  0  0  0
  3  4  1  0  0  0  0
  3  7  1  0  0  0  0
  3  8  1  0  0  0  0
  4 26  1  0  0  0  0
  6  9  1  0  0  0  0
  6 12  1  0  0  0  0
  8 10  1  0  0  0  0
  8 11  2  0  0  0  0
  9 13  1  0  0  0  0
  9 14  1  0  0  0  0
  9 15  1  0  0  0  0
 10 16  1  0  0  0  0
 10 17  1  0  0  0  0
 10 18  1  0  0  0  0
 19 20  1  0  0  0  0
 20 21  4  0  0  0  0
 20 25  4  0  0  0  0
 21 22  4  0  0  0  0
 21 27  1  0  0  0  0
 22 23  4  0  0  0  0
 22 28  1  0  0  0  0
 23 24  4  0  0  0  0
 23 26  1  0  0  0  0
 24 25  4  0  0  0  0
 24 29  1  0  0  0  0
 25 30  1  0  0  0  0
 26 31  1  0  0  0  0
 26 32  1  0  0  0  0
M  END
> <BCLConfClusterSize>
1

> <ConfClashScore>
0 

> <ConfOneFourInteractionScore>
-0.924377 

> <ConfScore>
0.0753453 

> <ConfScorePBest>
0.00737814 

> <ConfTolerance>
0.382791 

> <RosettaParamsInstructions>
M  ROOT 3
M  POLY_N_BB 3
M  POLY_CA_BB 4
M  POLY_C_BB 2
M  POLY_O_BB 5
M  POLY_IGNORE 9 10 11 12 13 14 15 16 17 18 
M  POLY_UPPER 6
M  POLY_LOWER 8
M  POLY_CHG 0
M  POLY_PROPERTIES ALPHA_AA D_AA PROTEIN AROMATIC POLYMER 
M  END

$$$$



 32 32  0  0  0  0  0  0  0  0999 V2000
   -0.3345    4.0514   -0.0417 H   0  0  0  1  0  0  0  0  0  0  0  0
   -2.3432    4.2551    0.5085 C   0  0  0  1  0  0  0  0  0  0  0  0
   -1.2528    5.2164   -1.4664 N   0  0  0  1  0  0  0  0  0  0  0  0
   -1.2749    4.0705   -0.5516 C   0  0  0  1  0  0  0  0  0  0  0  0
   -2.1267    3.9794    1.6879 O   0  0  0  1  0  0  0  0  0  0  0  0
   -3.5201    4.7324    0.0737 N   0  0  0  1  0  0  0  0  0  0  0  0
   -2.0427    5.7939   -1.5202 H   0  0  0  1  0  0  0  0  0  0  0  0
   -0.1842    5.5029   -2.2353 C   0  0  0  1  0  0  0  0  0  0  0  0
   -4.5830    5.1287    0.9853 C   0  0  0  1  0  0  0  0  0  0  0  0
   -0.3939    6.6932   -3.1510 C   0  0  0  1  0  0  0  0  0  0  0  0
    0.8761    4.8790   -2.2212 O   0  0  0  1  0  0  0  0  0  0  0  0
   -3.6687    4.8169   -0.8913 H   0  0  0  1  0  0  0  0  0  0  0  0
   -4.2945    6.0184    1.5050 H   0  0  0  1  0  0  0  0  0  0  0  0
   -4.7576    4.3441    1.6917 H   0  0  0  1  0  0  0  0  0  0  0  0
   -5.4782    5.3148    0.4297 H   0  0  0  1  0  0  0  0  0  0  0  0
   -0.1073    7.5899   -2.6424 H   0  0  0  1  0  0  0  0  0  0  0  0
   -1.4261    6.7538   -3.4261 H   0  0  0  1  0  0  0  0  0  0  0  0
    0.2039    6.5758   -4.0307 H   0  0  0  1  0  0  0  0  0  0  0  0
   -6.5450    2.1585   -3.4937 F   0  0  0  1  0  0  0  0  0  0  0  0
   -5.3149    2.2962   -2.9627 C   0  0  0  1  0  0  0  0  0  0  0  0
   -4.2965    2.8647   -3.7117 C   0  0  0  1  0  0  0  0  0  0  0  0
   -3.0329    3.0011   -3.1686 C   0  0  0  1  0  0  0  0  0  0  0  0
   -2.7853    2.5743   -1.8732 C   0  0  0  1  0  0  0  0  0  0  0  0
   -3.8009    2.0075   -1.1265 C   0  0  0  1  0  0  0  0  0  0  0  0
   -5.0683    1.8706   -1.6711 C   0  0  0  1  0  0  0  0  0  0  0  0
   -1.4060    2.7284   -1.2772 C   0  0  0  1  0  0  0  0  0  0  0  0
   -4.4831    3.1886   -4.6822 H   0  0  0  1  0  0  0  0  0  0  0  0
   -2.2677    3.4239   -3.7319 H   0  0  0  1  0  0  0  0  0  0  0  0
   -3.6142    1.6836   -0.1560 H   0  0  0  1  0  0  0  0  0  0  0  0
   -5.8335    1.4478   -1.1078 H   0  0  0  1  0  0  0  0  0  0  0  0
   -1.2342    1.9347   -0.5804 H   0  0  0  1  0  0  0  0  0  0  0  0
   -0.6781    2.6803   -2.0600 H   0  0  0  1  0  0  0  0  0  0  0  0
  1  4  1  0  0  0  0
  2  4  1  0  0  0  0
  2  5  2  0  0  0  0
  2  6  1  0  0  0  0
  3  4  1  0  0  0  0
  3  7  1  0  0  0  0
  3  8  1  0  0  0  0
  4 26  1  0  0  0  0
  6  9  1  0  0  0  0
  6 12  1  0  0  0  0
  8 10  1  0  0  0  0
  8 11  2  0  0  0  0
  9 13  1  0  0  0  0
  9 14  1  0  0  0  0
  9 15  1  0  0  0  0
 10 16  1  0  0  0  0
 10 17  1  0  0  0  0
 10 18  1  0  0  0  0
 19 20  1  0  0  0  0
 20 21  4  0  0  0  0
 20 25  4  0  0  0  0
 21 22  4  0  0  0  0
 21 27  1  0  0  0  0
 22 23  4  0  0  0  0
 22 28  1  0  0  0  0
 23 24  4  0  0  0  0
 23 26  1  0  0  0  0
 24 25  4  0  0  0  0
 24 29  1  0  0  0  0
 25 30  1  0  0  0  0
 26 31  1  0  0  0  0
 26 32  1  0  0  0  0
M  END
> <BCLConfClusterSize>
1

> <ConfClashScore>
0 

> <ConfOneFourInteractionScore>
-0.96177 

> <ConfScore>
0.0843004 

> <ConfScorePBest>
0.00734966 

> <ConfTolerance>
0.348385 

> <RosettaParamsInstructions>
M  ROOT 3
M  POLY_N_BB 3
M  POLY_CA_BB 4
M  POLY_C_BB 2
M  POLY_O_BB 5
M  POLY_IGNORE 9 10 11 12 13 14 15 16 17 18 
M  POLY_UPPER 6
M  POLY_LOWER 8
M  POLY_CHG 0
M  POLY_PROPERTIES ALPHA_AA D_AA PROTEIN AROMATIC POLYMER 
M  END

$$$$



 32 32  0  0  0  0  0  0  0  0999 V2000
   -1.9555    4.1280    0.2254 H   0  0  0  1  0  0  0  0  0  0  0  0
   -1.3910    5.3291   -1.3784 C   0  0  0  1  0  0  0  0  0  0  0  0
    0.0912    4.0848    0.1736 N   0  0  0  1  0  0  0  0  0  0  0  0
   -1.1988    4.0872   -0.5300 C   0  0  0  1  0  0  0  0  0  0  0  0
   -1.6367    6.4204   -0.8662 O   0  0  0  1  0  0  0  0  0  0  0  0
   -1.2755    5.1533   -2.7042 N   0  0  0  1  0  0  0  0  0  0  0  0
    0.6983    3.3343    0.0043 H   0  0  0  1  0  0  0  0  0  0  0  0
    0.4981    5.0271    1.0255 C   0  0  0  1  0  0  0  0  0  0  0  0
   -1.5471    6.1728   -3.7066 C   0  0  0  1  0  0  0  0  0  0  0  0
    1.9087    4.8841    1.5632 C   0  0  0  1  0  0  0  0  0  0  0  0
   -0.1915    6.0069    1.3046 O   0  0  0  1  0  0  0  0  0  0  0  0
   -0.9866    4.2721   -3.0210 H   0  0  0  1  0  0  0  0  0  0  0  0
   -2.2523    5.7958   -4.4175 H   0  0  0  1  0  0  0  0  0  0  0  0
   -0.6379    6.4301   -4.2086 H   0  0  0  1  0  0  0  0  0  0  0  0
   -1.9506    7.0420   -3.2307 H   0  0  0  1  0  0  0  0  0  0  0  0
    2.5138    4.3696    0.8461 H   0  0  0  1  0  0  0  0  0  0  0  0
    1.8872    4.3270    2.4765 H   0  0  0  1  0  0  0  0  0  0  0  0
    2.3205    5.8545    1.7462 H   0  0  0  1  0  0  0  0  0  0  0  0
   -6.5494    2.1770   -3.4874 F   0  0  0  1  0  0  0  0  0  0  0  0
   -5.3162    2.3018   -2.9604 C   0  0  0  1  0  0  0  0  0  0  0  0
   -4.2954    2.8638   -3.7112 C   0  0  0  1  0  0  0  0  0  0  0  0
   -3.0287    2.9870   -3.1723 C   0  0  0  1  0  0  0  0  0  0  0  0
   -2.7803    2.5535   -1.8793 C   0  0  0  1  0  0  0  0  0  0  0  0
   -3.7982    1.9932   -1.1308 C   0  0  0  1  0  0  0  0  0  0  0  0
   -5.0687    1.8695   -1.6712 C   0  0  0  1  0  0  0  0  0  0  0  0
   -1.4202    2.7860   -1.2648 C   0  0  0  1  0  0  0  0  0  0  0  0
   -4.4827    3.1927   -4.6799 H   0  0  0  1  0  0  0  0  0  0  0  0
   -2.2619    3.4049   -3.7369 H   0  0  0  1  0  0  0  0  0  0  0  0
   -3.6109    1.6643   -0.1621 H   0  0  0  1  0  0  0  0  0  0  0  0
   -5.8356    1.4516   -1.1066 H   0  0  0  1  0  0  0  0  0  0  0  0
   -1.2427    1.9918   -0.5701 H   0  0  0  1  0  0  0  0  0  0  0  0
   -0.6996    2.7376   -2.0544 H   0  0  0  1  0  0  0  0  0  0  0  0
  1  4  1  0  0  0  0
  2  4  1  0  0  0  0
  2  5  2  0  0  0  0
  2  6  1  0  0  0  0
  3  4  1  0  0  0  0
  3  7  1  0  0  0  0
  3  8  1  0  0  0  0
  4 26  1  0  0  0  0
  6  9  1  0  0  0  0
  6 12  1  0  0  0  0
  8 10  1  0  0  0  0
  8 11  2  0  0  0  0
  9 13  1  0  0  0  0
  9 14  1  0  0  0  0
  9 15  1  0  0  0  0
 10 16  1  0  0  0  0
 10 17  1  0  0  0  0
 10 18  1  0  0  0  0
 19 20  1  0  0  0  0
 20 21  4  0  0  0  0
 20 25  4  0  0  0  0
 21 22  4  0  0  0  0
 21 27  1  0  0  0  0
 22 23  4  0  0  0  0
 22 28  1  0  0  0  0
 23 24  4  0  0  0  0
 23 26  1  0  0  0  0
 24 25  4  0  0  0  0
 24 29  1  0  0  0  0
 25 30  1  0  0  0  0
 26 31  1  0  0  0  0
 26 32  1  0  0  0  0
M  END
> <BCLConfClusterSize>
1

> <ConfClashScore>
0 

> <ConfOneFourInteractionScore>
-0.952541 

> <ConfScore>
0.0869777 

> <ConfScorePBest>
0.00732118 

> <ConfTolerance>
0.311185 

> <RosettaParamsInstructions>
M  ROOT 3
M  POLY_N_BB 3
M  POLY_CA_BB 4
M  POLY_C_BB 2
M  POLY_O_BB 5
M  POLY_IGNORE 9 10 11 12 13 14 15 16 17 18 
M  POLY_UPPER 6
M  POLY_LOWER 8
M  POLY_CHG 0
M  POLY_PROPERTIES ALPHA_AA D_AA PROTEIN AROMATIC POLYMER 
M  END

$$$$



 32 32  0  0  0  0  0  0  0  0999 V2000
   -1.4119    4.7814   -0.8077 H   0  0  0  1  0  0  0  0  0  0  0  0
    0.1538    3.9146    0.2932 C   0  0  0  1  0  0  0  0  0  0  0  0
   -2.2608    3.7624    0.7653 N   0  0  0  1  0  0  0  0  0  0  0  0
   -1.2505    3.8664   -0.2769 C   0  0  0  1  0  0  0  0  0  0  0  0
    1.1360    4.0325   -0.4382 O   0  0  0  1  0  0  0  0  0  0  0  0
    0.2443    3.8207    1.6293 N   0  0  0  1  0  0  0  0  0  0  0  0
   -2.7229    2.9076    0.8924 H   0  0  0  1  0  0  0  0  0  0  0  0
   -2.5803    4.7917    1.5549 C   0  0  0  1  0  0  0  0  0  0  0  0
    1.4843    3.6425    2.3698 C   0  0  0  1  0  0  0  0  0  0  0  0
   -3.7142    4.5460    2.5311 C   0  0  0  1  0  0  0  0  0  0  0  0
   -2.0027    5.8769    1.5074 O   0  0  0  1  0  0  0  0  0  0  0  0
   -0.5873    3.8765    2.1448 H   0  0  0  1  0  0  0  0  0  0  0  0
    1.2664    3.5438    3.4128 H   0  0  0  1  0  0  0  0  0  0  0  0
    2.1163    4.4922    2.2165 H   0  0  0  1  0  0  0  0  0  0  0  0
    1.9819    2.7603    2.0247 H   0  0  0  1  0  0  0  0  0  0  0  0
   -4.6274    4.4089    1.9906 H   0  0  0  1  0  0  0  0  0  0  0  0
   -3.8101    5.3873    3.1852 H   0  0  0  1  0  0  0  0  0  0  0  0
   -3.5054    3.6683    3.1064 H   0  0  0  1  0  0  0  0  0  0  0  0
   -6.5450    2.1585   -3.4937 F   0  0  0  1  0  0  0  0  0  0  0  0
   -5.3149    2.2962   -2.9627 C   0  0  0  1  0  0  0  0  0  0  0  0
   -4.2965    2.8647   -3.7117 C   0  0  0  1  0  0  0  0  0  0  0  0
   -3.0329    3.0011   -3.1686 C   0  0  0  1  0  0  0  0  0  0  0  0
   -2.7853    2.5743   -1.8732 C   0  0  0  1  0  0  0  0  0  0  0  0
   -3.8009    2.0075   -1.1265 C   0  0  0  1  0  0  0  0  0  0  0  0
   -5.0683    1.8706   -1.6711 C   0  0  0  1  0  0  0  0  0  0  0  0
   -1.4060    2.7284   -1.2772 C   0  0  0  1  0  0  0  0  0  0  0  0
   -4.4831    3.1886   -4.6822 H   0  0  0  1  0  0  0  0  0  0  0  0
   -2.2677    3.4239   -3.7319 H   0  0  0  1  0  0  0  0  0  0  0  0
   -3.6142    1.6836   -0.1560 H   0  0  0  1  0  0  0  0  0  0  0  0
   -5.8335    1.4478   -1.1078 H   0  0  0  1  0  0  0  0  0  0  0  0
   -1.1578    1.8147   -0.7788 H   0  0  0  1  0  0  0  0  0  0  0  0
   -0.7171    2.8968   -2.0784 H   0  0  0  1  0  0  0  0  0  0  0  0
  1  4  1  0  0  0  0
  2  4  1  0  0  0  0
  2  5  2  0  0  0  0
  2  6  1  0  0  0  0
  3  4  1  0  0  0  0
  3  7  1  0  0  0  0
  3  8  1  0  0  0  0
  4 26  1  0  0  0  0
  6  9  1  0  0  0  0
  6 12  1  0  0  0  0
  8 10  1  0  0  0  0
  8 11  2  0  0  0  0
  9 13  1  0  0  0  0
  9 14  1  0  0  0  0
  9 15  1  0  0  0  0
 10 16  1  0  0  0  0
 10 17  1  0  0  0  0
 10 18  1  0  0  0  0
 19 20  1  0  0  0  0
 20 21  4  0  0  0  0
 20 25  4  0  0  0  0
 21 22  4  0  0  0  0
 21 27  1  0  0  0  0
 22 23  4  0  0  0  0
 22 28  1  0  0  0  0
 23 24  4  0  0  0  0
 23 26  1  0  0  0  0
 24 25  4  0  0  0  0
 24 29  1  0  0  0  0
 25 30  1  0  0  0  0
 26 31  1  0  0  0  0
 26 32  1  0  0  0  0
M  END
> <BCLConfClusterSize>
1

> <ConfClashScore>
0 

> <ConfOneFourInteractionScore>
-0.94165 

> <ConfScore>
0.0882011 

> <ConfScorePBest>
0.0072927 

> <ConfTolerance>
0.214147 

> <RosettaParamsInstructions>
M  ROOT 3
M  POLY_N_BB 3
M  POLY_CA_BB 4
M  POLY_C_BB 2
M  POLY_O_BB 5
M  POLY_IGNORE 9 10 11 12 13 14 15 16 17 18 
M  POLY_UPPER 6
M  POLY_LOWER 8
M  POLY_CHG 0
M  POLY_PROPERTIES ALPHA_AA D_AA PROTEIN AROMATIC POLYMER 
M  END

$$$$



 32 32  0  0  0  0  0  0  0  0999 V2000
   -0.3565    3.9437    0.1050 H   0  0  0  1  0  0  0  0  0  0  0  0
   -2.0667    3.2451    1.1244 C   0  0  0  1  0  0  0  0  0  0  0  0
   -2.0087    5.0066   -0.5632 N   0  0  0  1  0  0  0  0  0  0  0  0
   -1.3826    3.7522   -0.1302 C   0  0  0  1  0  0  0  0  0  0  0  0
   -2.7469    3.9918    1.8269 O   0  0  0  1  0  0  0  0  0  0  0  0
   -1.8790    1.9469    1.4065 N   0  0  0  1  0  0  0  0  0  0  0  0
   -1.4118    5.6767   -0.9570 H   0  0  0  1  0  0  0  0  0  0  0  0
   -3.3018    5.3395   -0.4815 C   0  0  0  1  0  0  0  0  0  0  0  0
   -2.5296    1.2942    2.5328 C   0  0  0  1  0  0  0  0  0  0  0  0
   -3.6565    6.7295   -0.9726 C   0  0  0  1  0  0  0  0  0  0  0  0
   -4.1624    4.5798   -0.0390 O   0  0  0  1  0  0  0  0  0  0  0  0
   -1.2831    1.4199    0.8342 H   0  0  0  1  0  0  0  0  0  0  0  0
   -2.7069    2.0109    3.3073 H   0  0  0  1  0  0  0  0  0  0  0  0
   -1.8987    0.5148    2.9061 H   0  0  0  1  0  0  0  0  0  0  0  0
   -3.4616    0.8769    2.2132 H   0  0  0  1  0  0  0  0  0  0  0  0
   -3.3743    6.8281   -2.0001 H   0  0  0  1  0  0  0  0  0  0  0  0
   -3.1344    7.4581   -0.3882 H   0  0  0  1  0  0  0  0  0  0  0  0
   -4.7109    6.8833   -0.8763 H   0  0  0  1  0  0  0  0  0  0  0  0
   -6.5347    2.1712   -3.5193 F   0  0  0  1  0  0  0  0  0  0  0  0
   -5.3171    2.2933   -2.9568 C   0  0  0  1  0  0  0  0  0  0  0  0
   -4.3039    2.8628   -3.7121 C   0  0  0  1  0  0  0  0  0  0  0  0
   -3.0377    3.0026   -3.1761 C   0  0  0  1  0  0  0  0  0  0  0  0
   -2.7822    2.5783   -1.8814 C   0  0  0  1  0  0  0  0  0  0  0  0
   -3.7926    2.0105   -1.1284 C   0  0  0  1  0  0  0  0  0  0  0  0
   -5.0626    1.8702   -1.6659 C   0  0  0  1  0  0  0  0  0  0  0  0
   -1.4208    2.7103   -1.2405 C   0  0  0  1  0  0  0  0  0  0  0  0
   -4.4964    3.1848   -4.6821 H   0  0  0  1  0  0  0  0  0  0  0  0
   -2.2764    3.4261   -3.7441 H   0  0  0  1  0  0  0  0  0  0  0  0
   -3.6000    1.6885   -0.1584 H   0  0  0  1  0  0  0  0  0  0  0  0
   -5.8239    1.4466   -1.0978 H   0  0  0  1  0  0  0  0  0  0  0  0
   -1.1454    1.7623   -0.8276 H   0  0  0  1  0  0  0  0  0  0  0  0
   -0.7151    2.9900   -1.9945 H   0  0  0  1  0  0  0  0  0  0  0  0
  1  4  1  0  0  0  0
  2  4  1  0  0  0  0
  2  5  2  0  0  0  0
  2  6  1  0  0  0  0
  3  4  1  0  0  0  0
  3  7  1  0  0  0  0
  3  8  1  0  0  0  0
  4 26  1  0  0  0  0
  6  9  1  0  0  0  0
  6 12  1  0  0  0  0
  8 10  1  0  0  0  0
  8 11  2  0  0  0  0
  9 13  1  0  0  0  0
  9 14  1  0  0  0  0
  9 15  1  0  0  0  0
 10 16  1  0  0  0  0
 10 17  1  0  0  0  0
 10 18  1  0  0  0  0
 19 20  1  0  0  0  0
 20 21  4  0  0  0  0
 20 25  4  0  0  0  0
 21 22  4  0  0  0  0
 21 27  1  0  0  0  0
 22 23  4  0  0  0  0
 22 28  1  0  0  0  0
 23 24  4  0  0  0  0
 23 26  1  0  0  0  0
 24 25  4  0  0  0  0
 24 29  1  0  0  0  0
 25 30  1  0  0  0  0
 26 31  1  0  0  0  0
 26 32  1  0  0  0  0
M  END
> <BCLConfClusterSize>
1

> <ConfClashScore>
0 

> <ConfOneFourInteractionScore>
-0.92611 

> <ConfScore>
0.102761 

> <ConfScorePBest>
0.00726422 

> <ConfTolerance>
0.276934 

> <RosettaParamsInstructions>
M  ROOT 3
M  POLY_N_BB 3
M  POLY_CA_BB 4
M  POLY_C_BB 2
M  POLY_O_BB 5
M  POLY_IGNORE 9 10 11 12 13 14 15 16 17 18 
M  POLY_UPPER 6
M  POLY_LOWER 8
M  POLY_CHG 0
M  POLY_PROPERTIES ALPHA_AA D_AA PROTEIN AROMATIC POLYMER 
M  END

$$$$



 32 32  0  0  0  0  0  0  0  0999 V2000
    0.6214    2.3106   -1.4910 H   0  0  0  1  0  0  0  0  0  0  0  0
    0.0276    3.3739   -3.1922 C   0  0  0  1  0  0  0  0  0  0  0  0
   -0.3767    1.0012   -2.7230 N   0  0  0  1  0  0  0  0  0  0  0  0
   -0.2414    2.3325   -2.1234 C   0  0  0  1  0  0  0  0  0  0  0  0
    0.7634    3.1238   -4.1459 O   0  0  0  1  0  0  0  0  0  0  0  0
   -0.5603    4.5742   -3.0660 N   0  0  0  1  0  0  0  0  0  0  0  0
   -1.1901    0.4837   -2.5471 H   0  0  0  1  0  0  0  0  0  0  0  0
    0.5703    0.4692   -3.5009 C   0  0  0  1  0  0  0  0  0  0  0  0
   -0.3689    5.6397   -4.0386 C   0  0  0  1  0  0  0  0  0  0  0  0
    0.2548   -0.8945   -4.0839 C   0  0  0  1  0  0  0  0  0  0  0  0
    1.6364    1.0347   -3.7403 O   0  0  0  1  0  0  0  0  0  0  0  0
   -1.1385    4.7386   -2.2920 H   0  0  0  1  0  0  0  0  0  0  0  0
   -0.4969    5.2488   -5.0264 H   0  0  0  1  0  0  0  0  0  0  0  0
    0.6182    6.0402   -3.9389 H   0  0  0  1  0  0  0  0  0  0  0  0
   -1.0875    6.4134   -3.8657 H   0  0  0  1  0  0  0  0  0  0  0  0
   -0.0077   -1.5681   -3.2950 H   0  0  0  1  0  0  0  0  0  0  0  0
    1.1136   -1.2685   -4.6009 H   0  0  0  1  0  0  0  0  0  0  0  0
   -0.5643   -0.8092   -4.7670 H   0  0  0  1  0  0  0  0  0  0  0  0
   -6.5463    2.1567   -3.4899 F   0  0  0  1  0  0  0  0  0  0  0  0
   -5.3147    2.2963   -2.9629 C   0  0  0  1  0  0  0  0  0  0  0  0
   -4.2994    2.8654   -3.7156 C   0  0  0  1  0  0  0  0  0  0  0  0
   -3.0342    3.0038   -3.1767 C   0  0  0  1  0  0  0  0  0  0  0  0
   -2.7820    2.5785   -1.8817 C   0  0  0  1  0  0  0  0  0  0  0  0
   -3.7945    2.0111   -1.1313 C   0  0  0  1  0  0  0  0  0  0  0  0
   -5.0635    1.8722   -1.6717 C   0  0  0  1  0  0  0  0  0  0  0  0
   -1.4219    2.7089   -1.2377 C   0  0  0  1  0  0  0  0  0  0  0  0
   -4.4895    3.1882   -4.6858 H   0  0  0  1  0  0  0  0  0  0  0  0
   -2.2714    3.4270   -3.7428 H   0  0  0  1  0  0  0  0  0  0  0  0
   -3.6043    1.6883   -0.1611 H   0  0  0  1  0  0  0  0  0  0  0  0
   -5.8264    1.4489   -1.1056 H   0  0  0  1  0  0  0  0  0  0  0  0
   -1.2962    3.7276   -0.9354 H   0  0  0  1  0  0  0  0  0  0  0  0
   -1.4029    2.0755   -0.3755 H   0  0  0  1  0  0  0  0  0  0  0  0
  1  4  1  0  0  0  0
  2  4  1  0  0  0  0
  2  5  2  0  0  0  0
  2  6  1  0  0  0  0
  3  4  1  0  0  0  0
  3  7  1  0  0  0  0
  3  8  1  0  0  0  0
  4 26  1  0  0  0  0
  6  9  1  0  0  0  0
  6 12  1  0  0  0  0
  8 10  1  0  0  0  0
  8 11  2  0  0  0  0
  9 13  1  0  0  0  0
  9 14  1  0  0  0  0
  9 15  1  0  0  0  0
 10 16  1  0  0  0  0
 10 17  1  0  0  0  0
 10 18  1  0  0  0  0
 19 20  1  0  0  0  0
 20 21  4  0  0  0  0
 20 25  4  0  0  0  0
 21 22  4  0  0  0  0
 21 27  1  0  0  0  0
 22 23  4  0  0  0  0
 22 28  1  0  0  0  0
 23 24  4  0  0  0  0
 23 26  1  0  0  0  0
 24 25  4  0  0  0  0
 24 29  1  0  0  0  0
 25 30  1  0  0  0  0
 26 31  1  0  0  0  0
 26 32  1  0  0  0  0
M  END
> <BCLConfClusterSize>
1

> <ConfClashScore>
2.41938e-05 

> <ConfOneFourInteractionScore>
-0.942828 

> <ConfScore>
0.106769 

> <ConfScorePBest>
0.00723574 

> <ConfTolerance>
0.371482 

> <RosettaParamsInstructions>
M  ROOT 3
M  POLY_N_BB 3
M  POLY_CA_BB 4
M  POLY_C_BB 2
M  POLY_O_BB 5
M  POLY_IGNORE 9 10 11 12 13 14 15 16 17 18 
M  POLY_UPPER 6
M  POLY_LOWER 8
M  POLY_CHG 0
M  POLY_PROPERTIES ALPHA_AA D_AA PROTEIN AROMATIC POLYMER 
M  END

$$$$



 32 32  0  0  0  0  0  0  0  0999 V2000
    0.1474    1.8011   -0.2504 H   0  0  0  1  0  0  0  0  0  0  0  0
   -0.8108    0.3306   -1.3892 C   0  0  0  1  0  0  0  0  0  0  0  0
   -1.5658    1.2608    0.7504 N   0  0  0  1  0  0  0  0  0  0  0  0
   -0.8641    1.5591   -0.5021 C   0  0  0  1  0  0  0  0  0  0  0  0
   -0.8996   -0.8050   -0.9242 O   0  0  0  1  0  0  0  0  0  0  0  0
   -0.6611    0.6127   -2.6931 N   0  0  0  1  0  0  0  0  0  0  0  0
   -2.3471    1.8086    0.9736 H   0  0  0  1  0  0  0  0  0  0  0  0
   -1.2209    0.2998    1.6088 C   0  0  0  1  0  0  0  0  0  0  0  0
   -0.5430   -0.4267   -3.7048 C   0  0  0  1  0  0  0  0  0  0  0  0
   -2.0234    0.2456    2.8942 C   0  0  0  1  0  0  0  0  0  0  0  0
   -0.3126   -0.5004    1.3890 O   0  0  0  1  0  0  0  0  0  0  0  0
   -0.6302    1.5512   -2.9735 H   0  0  0  1  0  0  0  0  0  0  0  0
   -0.5854   -1.3877   -3.2362 H   0  0  0  1  0  0  0  0  0  0  0  0
    0.3903   -0.3209   -4.2173 H   0  0  0  1  0  0  0  0  0  0  0  0
   -1.3472   -0.3358   -4.4048 H   0  0  0  1  0  0  0  0  0  0  0  0
   -3.0211    0.5838    2.7070 H   0  0  0  1  0  0  0  0  0  0  0  0
   -1.5650    0.8760    3.6274 H   0  0  0  1  0  0  0  0  0  0  0  0
   -2.0502   -0.7612    3.2554 H   0  0  0  1  0  0  0  0  0  0  0  0
   -6.5507    2.1756   -3.4839 F   0  0  0  1  0  0  0  0  0  0  0  0
   -5.3161    2.3020   -2.9606 C   0  0  0  1  0  0  0  0  0  0  0  0
   -4.2980    2.8644   -3.7147 C   0  0  0  1  0  0  0  0  0  0  0  0
   -3.0299    2.9891   -3.1795 C   0  0  0  1  0  0  0  0  0  0  0  0
   -2.7773    2.5569   -1.8868 C   0  0  0  1  0  0  0  0  0  0  0  0
   -3.7926    1.9961   -1.1351 C   0  0  0  1  0  0  0  0  0  0  0  0
   -5.0645    1.8709   -1.6717 C   0  0  0  1  0  0  0  0  0  0  0  0
   -1.4341    2.7697   -1.2297 C   0  0  0  1  0  0  0  0  0  0  0  0
   -4.4884    3.1924   -4.6830 H   0  0  0  1  0  0  0  0  0  0  0  0
   -2.2650    3.4074   -3.7466 H   0  0  0  1  0  0  0  0  0  0  0  0
   -3.6022    1.6681   -0.1667 H   0  0  0  1  0  0  0  0  0  0  0  0
   -5.8294    1.4526   -1.1046 H   0  0  0  1  0  0  0  0  0  0  0  0
   -0.7370    3.0570   -1.9889 H   0  0  0  1  0  0  0  0  0  0  0  0
   -1.5361    3.5637   -0.5196 H   0  0  0  1  0  0  0  0  0  0  0  0
  1  4  1  0  0  0  0
  2  4  1  0  0  0  0
  2  5  2  0  0  0  0
  2  6  1  0  0  0  0
  3  4  1  0  0  0  0
  3  7  1  0  0  0  0
  3  8  1  0  0  0  0
  4 26  1  0  0  0  0
  6  9  1  0  0  0  0
  6 12  1  0  0  0  0
  8 10  1  0  0  0  0
  8 11  2  0  0  0  0
  9 13  1  0  0  0  0
  9 14  1  0  0  0  0
  9 15  1  0  0  0  0
 10 16  1  0  0  0  0
 10 17  1  0  0  0  0
 10 18  1  0  0  0  0
 19 20  1  0  0  0  0
 20 21  4  0  0  0  0
 20 25  4  0  0  0  0
 21 22  4  0  0  0  0
 21 27  1  0  0  0  0
 22 23  4  0  0  0  0
 22 28  1  0  0  0  0
 23 24  4  0  0  0  0
 23 26  1  0  0  0  0
 24 25  4  0  0  0  0
 24 29  1  0  0  0  0
 25 30  1  0  0  0  0
 26 31  1  0  0  0  0
 26 32  1  0  0  0  0
M  END
> <BCLConfClusterSize>
1

> <ConfClashScore>
0 

> <ConfOneFourInteractionScore>
-0.955611 

> <ConfScore>
0.107079 

> <ConfScorePBest>
0.00720726 

> <ConfTolerance>
0.30596 

> <RosettaParamsInstructions>
M  ROOT 3
M  POLY_N_BB 3
M  POLY_CA_BB 4
M  POLY_C_BB 2
M  POLY_O_BB 5
M  POLY_IGNORE 9 10 11 12 13 14 15 16 17 18 
M  POLY_UPPER 6
M  POLY_LOWER 8
M  POLY_CHG 0
M  POLY_PROPERTIES ALPHA_AA D_AA PROTEIN AROMATIC POLYMER 
M  END

$$$$



 32 32  0  0  0  0  0  0  0  0999 V2000
   -0.4520    3.7548    0.3327 H   0  0  0  1  0  0  0  0  0  0  0  0
   -2.5459    3.8557    0.6591 C   0  0  0  1  0  0  0  0  0  0  0  0
   -1.2722    5.1522   -0.9646 N   0  0  0  1  0  0  0  0  0  0  0  0
   -1.3331    3.8753   -0.2623 C   0  0  0  1  0  0  0  0  0  0  0  0
   -2.5962    3.1194    1.6435 O   0  0  0  1  0  0  0  0  0  0  0  0
   -3.5185    4.7025    0.2885 N   0  0  0  1  0  0  0  0  0  0  0  0
   -1.2609    5.1304   -1.9443 H   0  0  0  1  0  0  0  0  0  0  0  0
   -1.2305    6.3545   -0.3704 C   0  0  0  1  0  0  0  0  0  0  0  0
   -4.7650    4.8268    1.0292 C   0  0  0  1  0  0  0  0  0  0  0  0
   -1.1049    7.5451   -1.3009 C   0  0  0  1  0  0  0  0  0  0  0  0
   -1.2892    6.5011    0.8497 O   0  0  0  1  0  0  0  0  0  0  0  0
   -3.3847    5.2566   -0.5087 H   0  0  0  1  0  0  0  0  0  0  0  0
   -4.5894    4.6123    2.0626 H   0  0  0  1  0  0  0  0  0  0  0  0
   -5.4821    4.1354    0.6385 H   0  0  0  1  0  0  0  0  0  0  0  0
   -5.1401    5.8241    0.9309 H   0  0  0  1  0  0  0  0  0  0  0  0
   -0.1531    7.5182   -1.7889 H   0  0  0  1  0  0  0  0  0  0  0  0
   -1.1902    8.4497   -0.7357 H   0  0  0  1  0  0  0  0  0  0  0  0
   -1.8829    7.5077   -2.0346 H   0  0  0  1  0  0  0  0  0  0  0  0
   -6.5463    2.1567   -3.4899 F   0  0  0  1  0  0  0  0  0  0  0  0
   -5.3147    2.2963   -2.9629 C   0  0  0  1  0  0  0  0  0  0  0  0
   -4.2994    2.8654   -3.7156 C   0  0  0  1  0  0  0  0  0  0  0  0
   -3.0342    3.0038   -3.1767 C   0  0  0  1  0  0  0  0  0  0  0  0
   -2.7820    2.5785   -1.8817 C   0  0  0  1  0  0  0  0  0  0  0  0
   -3.7945    2.0111   -1.1313 C   0  0  0  1  0  0  0  0  0  0  0  0
   -5.0635    1.8722   -1.6717 C   0  0  0  1  0  0  0  0  0  0  0  0
   -1.4219    2.7089   -1.2377 C   0  0  0  1  0  0  0  0  0  0  0  0
   -4.4895    3.1882   -4.6858 H   0  0  0  1  0  0  0  0  0  0  0  0
   -2.2714    3.4270   -3.7428 H   0  0  0  1  0  0  0  0  0  0  0  0
   -3.6043    1.6883   -0.1611 H   0  0  0  1  0  0  0  0  0  0  0  0
   -5.8264    1.4489   -1.1056 H   0  0  0  1  0  0  0  0  0  0  0  0
   -1.2080    1.8045   -0.7075 H   0  0  0  1  0  0  0  0  0  0  0  0
   -0.6929    2.8525   -2.0076 H   0  0  0  1  0  0  0  0  0  0  0  0
  1  4  1  0  0  0  0
  2  4  1  0  0  0  0
  2  5  2  0  0  0  0
  2  6  1  0  0  0  0
  3  4  1  0  0  0  0
  3  7  1  0  0  0  0
  3  8  1  0  0  0  0
  4 26  1  0  0  0  0
  6  9  1  0  0  0  0
  6 12  1  0  0  0  0
  8 10  1  0  0  0  0
  8 11  2  0  0  0  0
  9 13  1  0  0  0  0
  9 14  1  0  0  0  0
  9 15  1  0  0  0  0
 10 16  1  0  0  0  0
 10 17  1  0  0  0  0
 10 18  1  0  0  0  0
 19 20  1  0  0  0  0
 20 21  4  0  0  0  0
 20 25  4  0  0  0  0
 21 22  4  0  0  0  0
 21 27  1  0  0  0  0
 22 23  4  0  0  0  0
 22 28  1  0  0  0  0
 23 24  4  0  0  0  0
 23 26  1  0  0  0  0
 24 25  4  0  0  0  0
 24 29  1  0  0  0  0
 25 30  1  0  0  0  0
 26 31  1  0  0  0  0
 26 32  1  0  0  0  0
M  END
> <BCLConfClusterSize>
1

> <ConfClashScore>
0 

> <ConfOneFourInteractionScore>
-0.957074 

> <ConfScore>
0.109993 

> <ConfScorePBest>
0.00717878 

> <ConfTolerance>
0.221429 

> <RosettaParamsInstructions>
M  ROOT 3
M  POLY_N_BB 3
M  POLY_CA_BB 4
M  POLY_C_BB 2
M  POLY_O_BB 5
M  POLY_IGNORE 9 10 11 12 13 14 15 16 17 18 
M  POLY_UPPER 6
M  POLY_LOWER 8
M  POLY_CHG 0
M  POLY_PROPERTIES ALPHA_AA D_AA PROTEIN AROMATIC POLYMER 
M  END

$$$$



 32 32  0  0  0  0  0  0  0  0999 V2000
   -0.2877    4.1544   -0.1464 H   0  0  0  1  0  0  0  0  0  0  0  0
   -2.2854    4.1170    0.5950 C   0  0  0  1  0  0  0  0  0  0  0  0
   -1.5251    5.1576   -1.4891 N   0  0  0  1  0  0  0  0  0  0  0  0
   -1.2758    4.0710   -0.5486 C   0  0  0  1  0  0  0  0  0  0  0  0
   -2.0134    3.7394    1.7200 O   0  0  0  1  0  0  0  0  0  0  0  0
   -3.5113    4.5870    0.3589 N   0  0  0  1  0  0  0  0  0  0  0  0
   -1.8078    4.9161   -2.3958 H   0  0  0  1  0  0  0  0  0  0  0  0
   -1.3971    6.4573   -1.2075 C   0  0  0  1  0  0  0  0  0  0  0  0
   -4.5301    4.8046    1.3750 C   0  0  0  1  0  0  0  0  0  0  0  0
   -1.4632    7.3982   -2.3948 C   0  0  0  1  0  0  0  0  0  0  0  0
   -1.2352    6.8824   -0.0644 O   0  0  0  1  0  0  0  0  0  0  0  0
   -3.7433    4.8019   -0.5687 H   0  0  0  1  0  0  0  0  0  0  0  0
   -4.1595    5.4856    2.1123 H   0  0  0  1  0  0  0  0  0  0  0  0
   -4.7736    3.8726    1.8409 H   0  0  0  1  0  0  0  0  0  0  0  0
   -5.4064    5.2155    0.9188 H   0  0  0  1  0  0  0  0  0  0  0  0
   -0.6295    7.2174   -3.0407 H   0  0  0  1  0  0  0  0  0  0  0  0
   -1.4337    8.4105   -2.0495 H   0  0  0  1  0  0  0  0  0  0  0  0
   -2.3732    7.2305   -2.9321 H   0  0  0  1  0  0  0  0  0  0  0  0
   -6.5556    2.1442   -3.4638 F   0  0  0  1  0  0  0  0  0  0  0  0
   -5.3127    2.2992   -2.9689 C   0  0  0  1  0  0  0  0  0  0  0  0
   -4.2921    2.8673   -3.7153 C   0  0  0  1  0  0  0  0  0  0  0  0
   -3.0296    3.0022   -3.1693 C   0  0  0  1  0  0  0  0  0  0  0  0
   -2.7852    2.5745   -1.8736 C   0  0  0  1  0  0  0  0  0  0  0  0
   -3.8029    2.0080   -1.1295 C   0  0  0  1  0  0  0  0  0  0  0  0
   -5.0693    1.8726   -1.6769 C   0  0  0  1  0  0  0  0  0  0  0  0
   -1.4071    2.7271   -1.2744 C   0  0  0  1  0  0  0  0  0  0  0  0
   -4.4763    3.1919   -4.6860 H   0  0  0  1  0  0  0  0  0  0  0  0
   -2.2628    3.4248   -3.7307 H   0  0  0  1  0  0  0  0  0  0  0  0
   -3.6187    1.6834   -0.1588 H   0  0  0  1  0  0  0  0  0  0  0  0
   -5.8360    1.4501   -1.1156 H   0  0  0  1  0  0  0  0  0  0  0  0
   -1.2381    1.9336   -0.5768 H   0  0  0  1  0  0  0  0  0  0  0  0
   -0.6775    2.6774   -2.0555 H   0  0  0  1  0  0  0  0  0  0  0  0
  1  4  1  0  0  0  0
  2  4  1  0  0  0  0
  2  5  2  0  0  0  0
  2  6  1  0  0  0  0
  3  4  1  0  0  0  0
  3  7  1  0  0  0  0
  3  8  1  0  0  0  0
  4 26  1  0  0  0  0
  6  9  1  0  0  0  0
  6 12  1  0  0  0  0
  8 10  1  0  0  0  0
  8 11  2  0  0  0  0
  9 13  1  0  0  0  0
  9 14  1  0  0  0  0
  9 15  1  0  0  0  0
 10 16  1  0  0  0  0
 10 17  1  0  0  0  0
 10 18  1  0  0  0  0
 19 20  1  0  0  0  0
 20 21  4  0  0  0  0
 20 25  4  0  0  0  0
 21 22  4  0  0  0  0
 21 27  1  0  0  0  0
 22 23  4  0  0  0  0
 22 28  1  0  0  0  0
 23 24  4  0  0  0  0
 23 26  1  0  0  0  0
 24 25  4  0  0  0  0
 24 29  1  0  0  0  0
 25 30  1  0  0  0  0
 26 31  1  0  0  0  0
 26 32  1  0  0  0  0
M  END
> <BCLConfClusterSize>
1

> <ConfClashScore>
0 

> <ConfOneFourInteractionScore>
-0.950605 

> <ConfScore>
0.123799 

> <ConfScorePBest>
0.0071503 

> <ConfTolerance>
0.215217 

> <RosettaParamsInstructions>
M  ROOT 3
M  POLY_N_BB 3
M  POLY_CA_BB 4
M  POLY_C_BB 2
M  POLY_O_BB 5
M  POLY_IGNORE 9 10 11 12 13 14 15 16 17 18 
M  POLY_UPPER 6
M  POLY_LOWER 8
M  POLY_CHG 0
M  POLY_PROPERTIES ALPHA_AA D_AA PROTEIN AROMATIC POLYMER 
M  END

$$$$



 32 32  0  0  0  0  0  0  0  0999 V2000
    0.4564    1.7981   -1.1776 H   0  0  0  1  0  0  0  0  0  0  0  0
    0.0363    1.8969   -3.2148 C   0  0  0  1  0  0  0  0  0  0  0  0
   -0.9188    0.3268   -1.5471 N   0  0  0  1  0  0  0  0  0  0  0  0
   -0.4194    1.6885   -1.7825 C   0  0  0  1  0  0  0  0  0  0  0  0
    1.0922    2.4775   -3.4629 O   0  0  0  1  0  0  0  0  0  0  0  0
   -0.7424    1.4316   -4.1957 N   0  0  0  1  0  0  0  0  0  0  0  0
   -1.7922    0.2109   -1.1179 H   0  0  0  1  0  0  0  0  0  0  0  0
   -0.2237   -0.7590   -1.8979 C   0  0  0  1  0  0  0  0  0  0  0  0
   -0.4468    1.6673   -5.6010 C   0  0  0  1  0  0  0  0  0  0  0  0
   -0.8749   -2.0902   -1.5770 C   0  0  0  1  0  0  0  0  0  0  0  0
    0.8666   -0.7024   -2.4424 O   0  0  0  1  0  0  0  0  0  0  0  0
   -1.5404    0.9137   -3.9607 H   0  0  0  1  0  0  0  0  0  0  0  0
   -0.5100    2.7151   -5.8085 H   0  0  0  1  0  0  0  0  0  0  0  0
   -1.1540    1.1406   -6.2072 H   0  0  0  1  0  0  0  0  0  0  0  0
    0.5410    1.3194   -5.8207 H   0  0  0  1  0  0  0  0  0  0  0  0
   -1.0443   -2.1600   -0.5229 H   0  0  0  1  0  0  0  0  0  0  0  0
   -0.2310   -2.8861   -1.8880 H   0  0  0  1  0  0  0  0  0  0  0  0
   -1.8090   -2.1638   -2.0938 H   0  0  0  1  0  0  0  0  0  0  0  0
   -6.5450    2.1585   -3.4937 F   0  0  0  1  0  0  0  0  0  0  0  0
   -5.3149    2.2962   -2.9627 C   0  0  0  1  0  0  0  0  0  0  0  0
   -4.2965    2.8647   -3.7117 C   0  0  0  1  0  0  0  0  0  0  0  0
   -3.0329    3.0011   -3.1686 C   0  0  0  1  0  0  0  0  0  0  0  0
   -2.7853    2.5743   -1.8732 C   0  0  0  1  0  0  0  0  0  0  0  0
   -3.8009    2.0075   -1.1265 C   0  0  0  1  0  0  0  0  0  0  0  0
   -5.0683    1.8706   -1.6711 C   0  0  0  1  0  0  0  0  0  0  0  0
   -1.4060    2.7284   -1.2772 C   0  0  0  1  0  0  0  0  0  0  0  0
   -4.4831    3.1886   -4.6822 H   0  0  0  1  0  0  0  0  0  0  0  0
   -2.2677    3.4239   -3.7319 H   0  0  0  1  0  0  0  0  0  0  0  0
   -3.6142    1.6836   -0.1560 H   0  0  0  1  0  0  0  0  0  0  0  0
   -5.8335    1.4478   -1.1078 H   0  0  0  1  0  0  0  0  0  0  0  0
   -1.0339    3.7002   -1.5264 H   0  0  0  1  0  0  0  0  0  0  0  0
   -1.4824    2.6370   -0.2138 H   0  0  0  1  0  0  0  0  0  0  0  0
  1  4  1  0  0  0  0
  2  4  1  0  0  0  0
  2  5  2  0  0  0  0
  2  6  1  0  0  0  0
  3  4  1  0  0  0  0
  3  7  1  0  0  0  0
  3  8  1  0  0  0  0
  4 26  1  0  0  0  0
  6  9  1  0  0  0  0
  6 12  1  0  0  0  0
  8 10  1  0  0  0  0
  8 11  2  0  0  0  0
  9 13  1  0  0  0  0
  9 14  1  0  0  0  0
  9 15  1  0  0  0  0
 10 16  1  0  0  0  0
 10 17  1  0  0  0  0
 10 18  1  0  0  0  0
 19 20  1  0  0  0  0
 20 21  4  0  0  0  0
 20 25  4  0  0  0  0
 21 22  4  0  0  0  0
 21 27  1  0  0  0  0
 22 23  4  0  0  0  0
 22 28  1  0  0  0  0
 23 24  4  0  0  0  0
 23 26  1  0  0  0  0
 24 25  4  0  0  0  0
 24 29  1  0  0  0  0
 25 30  1  0  0  0  0
 26 31  1  0  0  0  0
 26 32  1  0  0  0  0
M  END
> <BCLConfClusterSize>
1

> <ConfClashScore>
0 

> <ConfOneFourInteractionScore>
-0.950605 

> <ConfScore>
0.126012 

> <ConfScorePBest>
0.00712182 

> <ConfTolerance>
0.239647 

> <RosettaParamsInstructions>
M  ROOT 3
M  POLY_N_BB 3
M  POLY_CA_BB 4
M  POLY_C_BB 2
M  POLY_O_BB 5
M  POLY_IGNORE 9 10 11 12 13 14 15 16 17 18 
M  POLY_UPPER 6
M  POLY_LOWER 8
M  POLY_CHG 0
M  POLY_PROPERTIES ALPHA_AA D_AA PROTEIN AROMATIC POLYMER 
M  END

$$$$



 32 32  0  0  0  0  0  0  0  0999 V2000
   -1.6999    4.6345   -0.3906 H   0  0  0  1  0  0  0  0  0  0  0  0
    0.0349    3.7914    0.4706 C   0  0  0  1  0  0  0  0  0  0  0  0
   -2.2991    3.1796    0.9517 N   0  0  0  1  0  0  0  0  0  0  0  0
   -1.3793    3.6668   -0.0654 C   0  0  0  1  0  0  0  0  0  0  0  0
    0.2482    3.9732    1.6580 O   0  0  0  1  0  0  0  0  0  0  0  0
    1.0152    3.6887   -0.4408 N   0  0  0  1  0  0  0  0  0  0  0  0
   -3.1660    3.6243    1.0575 H   0  0  0  1  0  0  0  0  0  0  0  0
   -1.9999    2.1371    1.7541 C   0  0  0  1  0  0  0  0  0  0  0  0
    2.4220    3.8003   -0.0854 C   0  0  0  1  0  0  0  0  0  0  0  0
   -3.0066    1.7443    2.8177 C   0  0  0  1  0  0  0  0  0  0  0  0
   -0.9421    1.5216    1.6285 O   0  0  0  1  0  0  0  0  0  0  0  0
    0.7751    3.5333   -1.3782 H   0  0  0  1  0  0  0  0  0  0  0  0
    2.6435    3.1229    0.7127 H   0  0  0  1  0  0  0  0  0  0  0  0
    2.6320    4.8015    0.2283 H   0  0  0  1  0  0  0  0  0  0  0  0
    3.0247    3.5585   -0.9358 H   0  0  0  1  0  0  0  0  0  0  0  0
   -3.9566    1.5618    2.3604 H   0  0  0  1  0  0  0  0  0  0  0  0
   -3.1004    2.5373    3.5299 H   0  0  0  1  0  0  0  0  0  0  0  0
   -2.6733    0.8566    3.3135 H   0  0  0  1  0  0  0  0  0  0  0  0
   -6.5556    2.1442   -3.4638 F   0  0  0  1  0  0  0  0  0  0  0  0
   -5.3127    2.2992   -2.9689 C   0  0  0  1  0  0  0  0  0  0  0  0
   -4.2921    2.8673   -3.7153 C   0  0  0  1  0  0  0  0  0  0  0  0
   -3.0296    3.0022   -3.1693 C   0  0  0  1  0  0  0  0  0  0  0  0
   -2.7852    2.5745   -1.8736 C   0  0  0  1  0  0  0  0  0  0  0  0
   -3.8029    2.0080   -1.1295 C   0  0  0  1  0  0  0  0  0  0  0  0
   -5.0693    1.8726   -1.6769 C   0  0  0  1  0  0  0  0  0  0  0  0
   -1.4071    2.7271   -1.2744 C   0  0  0  1  0  0  0  0  0  0  0  0
   -4.4763    3.1919   -4.6860 H   0  0  0  1  0  0  0  0  0  0  0  0
   -2.2628    3.4248   -3.7307 H   0  0  0  1  0  0  0  0  0  0  0  0
   -3.6187    1.6834   -0.1588 H   0  0  0  1  0  0  0  0  0  0  0  0
   -5.8360    1.4501   -1.1156 H   0  0  0  1  0  0  0  0  0  0  0  0
   -1.0619    1.7629   -0.9643 H   0  0  0  1  0  0  0  0  0  0  0  0
   -0.7510    3.1172   -2.0242 H   0  0  0  1  0  0  0  0  0  0  0  0
  1  4  1  0  0  0  0
  2  4  1  0  0  0  0
  2  5  2  0  0  0  0
  2  6  1  0  0  0  0
  3  4  1  0  0  0  0
  3  7  1  0  0  0  0
  3  8  1  0  0  0  0
  4 26  1  0  0  0  0
  6  9  1  0  0  0  0
  6 12  1  0  0  0  0
  8 10  1  0  0  0  0
  8 11  2  0  0  0  0
  9 13  1  0  0  0  0
  9 14  1  0  0  0  0
  9 15  1  0  0  0  0
 10 16  1  0  0  0  0
 10 17  1  0  0  0  0
 10 18  1  0  0  0  0
 19 20  1  0  0  0  0
 20 21  4  0  0  0  0
 20 25  4  0  0  0  0
 21 22  4  0  0  0  0
 21 27  1  0  0  0  0
 22 23  4  0  0  0  0
 22 28  1  0  0  0  0
 23 24  4  0  0  0  0
 23 26  1  0  0  0  0
 24 25  4  0  0  0  0
 24 29  1  0  0  0  0
 25 30  1  0  0  0  0
 26 31  1  0  0  0  0
 26 32  1  0  0  0  0
M  END
> <BCLConfClusterSize>
1

> <ConfClashScore>
0 

> <ConfOneFourInteractionScore>
-0.930059 

> <ConfScore>
0.126599 

> <ConfScorePBest>
0.00709334 

> <ConfTolerance>
0.260934 

> <RosettaParamsInstructions>
M  ROOT 3
M  POLY_N_BB 3
M  POLY_CA_BB 4
M  POLY_C_BB 2
M  POLY_O_BB 5
M  POLY_IGNORE 9 10 11 12 13 14 15 16 17 18 
M  POLY_UPPER 6
M  POLY_LOWER 8
M  POLY_CHG 0
M  POLY_PROPERTIES ALPHA_AA D_AA PROTEIN AROMATIC POLYMER 
M  END

$$$$



 32 32  0  0  0  0  0  0  0  0999 V2000
   -0.8911    4.7683   -1.5535 H   0  0  0  1  0  0  0  0  0  0  0  0
    0.1620    4.0190    0.1323 C   0  0  0  1  0  0  0  0  0  0  0  0
   -2.2067    4.6007    0.0493 N   0  0  0  1  0  0  0  0  0  0  0  0
   -1.0818    4.1093   -0.7324 C   0  0  0  1  0  0  0  0  0  0  0  0
    1.2524    3.7123   -0.3477 O   0  0  0  1  0  0  0  0  0  0  0  0
   -0.0113    4.2920    1.4287 N   0  0  0  1  0  0  0  0  0  0  0  0
   -2.6937    3.9733    0.6234 H   0  0  0  1  0  0  0  0  0  0  0  0
   -2.6002    5.8828    0.0113 C   0  0  0  1  0  0  0  0  0  0  0  0
    1.1355    4.3511    2.3226 C   0  0  0  1  0  0  0  0  0  0  0  0
   -3.7387    6.1993    0.9615 C   0  0  0  1  0  0  0  0  0  0  0  0
   -2.1105    6.7385   -0.7074 O   0  0  0  1  0  0  0  0  0  0  0  0
   -0.9126    4.4527    1.7783 H   0  0  0  1  0  0  0  0  0  0  0  0
    0.8343    4.0669    3.3093 H   0  0  0  1  0  0  0  0  0  0  0  0
    1.5218    5.3488    2.3413 H   0  0  0  1  0  0  0  0  0  0  0  0
    1.8936    3.6810    1.9746 H   0  0  0  1  0  0  0  0  0  0  0  0
   -4.6729    6.0139    0.4738 H   0  0  0  1  0  0  0  0  0  0  0  0
   -3.6858    7.2279    1.2511 H   0  0  0  1  0  0  0  0  0  0  0  0
   -3.6609    5.5792    1.8300 H   0  0  0  1  0  0  0  0  0  0  0  0
   -6.5556    2.1442   -3.4638 F   0  0  0  1  0  0  0  0  0  0  0  0
   -5.3127    2.2992   -2.9689 C   0  0  0  1  0  0  0  0  0  0  0  0
   -4.2921    2.8673   -3.7153 C   0  0  0  1  0  0  0  0  0  0  0  0
   -3.0296    3.0022   -3.1693 C   0  0  0  1  0  0  0  0  0  0  0  0
   -2.7852    2.5745   -1.8736 C   0  0  0  1  0  0  0  0  0  0  0  0
   -3.8029    2.0080   -1.1295 C   0  0  0  1  0  0  0  0  0  0  0  0
   -5.0693    1.8726   -1.6769 C   0  0  0  1  0  0  0  0  0  0  0  0
   -1.4071    2.7271   -1.2744 C   0  0  0  1  0  0  0  0  0  0  0  0
   -4.4763    3.1919   -4.6860 H   0  0  0  1  0  0  0  0  0  0  0  0
   -2.2628    3.4248   -3.7307 H   0  0  0  1  0  0  0  0  0  0  0  0
   -3.6187    1.6834   -0.1588 H   0  0  0  1  0  0  0  0  0  0  0  0
   -5.8360    1.4501   -1.1156 H   0  0  0  1  0  0  0  0  0  0  0  0
   -1.3178    2.0275   -0.4697 H   0  0  0  1  0  0  0  0  0  0  0  0
   -0.6896    2.4926   -2.0328 H   0  0  0  1  0  0  0  0  0  0  0  0
  1  4  1  0  0  0  0
  2  4  1  0  0  0  0
  2  5  2  0  0  0  0
  2  6  1  0  0  0  0
  3  4  1  0  0  0  0
  3  7  1  0  0  0  0
  3  8  1  0  0  0  0
  4 26  1  0  0  0  0
  6  9  1  0  0  0  0
  6 12  1  0  0  0  0
  8 10  1  0  0  0  0
  8 11  2  0  0  0  0
  9 13  1  0  0  0  0
  9 14  1  0  0  0  0
  9 15  1  0  0  0  0
 10 16  1  0  0  0  0
 10 17  1  0  0  0  0
 10 18  1  0  0  0  0
 19 20  1  0  0  0  0
 20 21  4  0  0  0  0
 20 25  4  0  0  0  0
 21 22  4  0  0  0  0
 21 27  1  0  0  0  0
 22 23  4  0  0  0  0
 22 28  1  0  0  0  0
 23 24  4  0  0  0  0
 23 26  1  0  0  0  0
 24 25  4  0  0  0  0
 24 29  1  0  0  0  0
 25 30  1  0  0  0  0
 26 31  1  0  0  0  0
 26 32  1  0  0  0  0
M  END
> <BCLConfClusterSize>
1

> <ConfClashScore>
0 

> <ConfOneFourInteractionScore>
-0.928132 

> <ConfScore>
0.132792 

> <ConfScorePBest>
0.00706485 

> <ConfTolerance>
0.278347 

> <RosettaParamsInstructions>
M  ROOT 3
M  POLY_N_BB 3
M  POLY_CA_BB 4
M  POLY_C_BB 2
M  POLY_O_BB 5
M  POLY_IGNORE 9 10 11 12 13 14 15 16 17 18 
M  POLY_UPPER 6
M  POLY_LOWER 8
M  POLY_CHG 0
M  POLY_PROPERTIES ALPHA_AA D_AA PROTEIN AROMATIC POLYMER 
M  END

$$$$



 32 32  0  0  0  0  0  0  0  0999 V2000
   -1.6501    4.8161   -1.0952 H   0  0  0  1  0  0  0  0  0  0  0  0
    0.2269    4.3553   -0.2519 C   0  0  0  1  0  0  0  0  0  0  0  0
   -2.0203    3.8910    0.7163 N   0  0  0  1  0  0  0  0  0  0  0  0
   -1.2324    4.0287   -0.5033 C   0  0  0  1  0  0  0  0  0  0  0  0
    0.5934    4.8633    0.8045 O   0  0  0  1  0  0  0  0  0  0  0  0
    1.0670    4.0557   -1.2437 N   0  0  0  1  0  0  0  0  0  0  0  0
   -2.3886    3.0060    0.9204 H   0  0  0  1  0  0  0  0  0  0  0  0
   -2.2776    4.8789    1.5750 C   0  0  0  1  0  0  0  0  0  0  0  0
    2.4899    4.3266   -1.1030 C   0  0  0  1  0  0  0  0  0  0  0  0
   -2.9730    4.4726    2.8545 C   0  0  0  1  0  0  0  0  0  0  0  0
   -1.9740    6.0581    1.3557 O   0  0  0  1  0  0  0  0  0  0  0  0
    0.7253    3.6523   -2.0689 H   0  0  0  1  0  0  0  0  0  0  0  0
    2.8569    3.8562   -0.2148 H   0  0  0  1  0  0  0  0  0  0  0  0
    2.6468    5.3830   -1.0377 H   0  0  0  1  0  0  0  0  0  0  0  0
    3.0121    3.9398   -1.9531 H   0  0  0  1  0  0  0  0  0  0  0  0
   -3.1553    5.3406    3.4531 H   0  0  0  1  0  0  0  0  0  0  0  0
   -2.3522    3.7900    3.3963 H   0  0  0  1  0  0  0  0  0  0  0  0
   -3.9037    3.9997    2.6197 H   0  0  0  1  0  0  0  0  0  0  0  0
   -6.5450    2.1585   -3.4937 F   0  0  0  1  0  0  0  0  0  0  0  0
   -5.3149    2.2962   -2.9627 C   0  0  0  1  0  0  0  0  0  0  0  0
   -4.2965    2.8647   -3.7117 C   0  0  0  1  0  0  0  0  0  0  0  0
   -3.0329    3.0011   -3.1686 C   0  0  0  1  0  0  0  0  0  0  0  0
   -2.7853    2.5743   -1.8732 C   0  0  0  1  0  0  0  0  0  0  0  0
   -3.8009    2.0075   -1.1265 C   0  0  0  1  0  0  0  0  0  0  0  0
   -5.0683    1.8706   -1.6711 C   0  0  0  1  0  0  0  0  0  0  0  0
   -1.4060    2.7284   -1.2772 C   0  0  0  1  0  0  0  0  0  0  0  0
   -4.4831    3.1886   -4.6822 H   0  0  0  1  0  0  0  0  0  0  0  0
   -2.2677    3.4239   -3.7319 H   0  0  0  1  0  0  0  0  0  0  0  0
   -3.6142    1.6836   -0.1560 H   0  0  0  1  0  0  0  0  0  0  0  0
   -5.8335    1.4478   -1.1078 H   0  0  0  1  0  0  0  0  0  0  0  0
   -1.2293    1.9097   -0.6114 H   0  0  0  1  0  0  0  0  0  0  0  0
   -0.6878    2.7055   -2.0700 H   0  0  0  1  0  0  0  0  0  0  0  0
  1  4  1  0  0  0  0
  2  4  1  0  0  0  0
  2  5  2  0  0  0  0
  2  6  1  0  0  0  0
  3  4  1  0  0  0  0
  3  7  1  0  0  0  0
  3  8  1  0  0  0  0
  4 26  1  0  0  0  0
  6  9  1  0  0  0  0
  6 12  1  0  0  0  0
  8 10  1  0  0  0  0
  8 11  2  0  0  0  0
  9 13  1  0  0  0  0
  9 14  1  0  0  0  0
  9 15  1  0  0  0  0
 10 16  1  0  0  0  0
 10 17  1  0  0  0  0
 10 18  1  0  0  0  0
 19 20  1  0  0  0  0
 20 21  4  0  0  0  0
 20 25  4  0  0  0  0
 21 22  4  0  0  0  0
 21 27  1  0  0  0  0
 22 23  4  0  0  0  0
 22 28  1  0  0  0  0
 23 24  4  0  0  0  0
 23 26  1  0  0  0  0
 24 25  4  0  0  0  0
 24 29  1  0  0  0  0
 25 30  1  0  0  0  0
 26 31  1  0  0  0  0
 26 32  1  0  0  0  0
M  END
> <BCLConfClusterSize>
1

> <ConfClashScore>
0 

> <ConfOneFourInteractionScore>
-0.95498 

> <ConfScore>
0.136654 

> <ConfScorePBest>
0.00703637 

> <ConfTolerance>
0.345947 

> <RosettaParamsInstructions>
M  ROOT 3
M  POLY_N_BB 3
M  POLY_CA_BB 4
M  POLY_C_BB 2
M  POLY_O_BB 5
M  POLY_IGNORE 9 10 11 12 13 14 15 16 17 18 
M  POLY_UPPER 6
M  POLY_LOWER 8
M  POLY_CHG 0
M  POLY_PROPERTIES ALPHA_AA D_AA PROTEIN AROMATIC POLYMER 
M  END

$$$$



 32 32  0  0  0  0  0  0  0  0999 V2000
   -0.9900    4.5805   -2.1376 H   0  0  0  1  0  0  0  0  0  0  0  0
    0.3257    4.4500   -0.5300 C   0  0  0  1  0  0  0  0  0  0  0  0
   -2.1037    4.9470   -0.4590 N   0  0  0  1  0  0  0  0  0  0  0  0
   -1.0393    4.1970   -1.1399 C   0  0  0  1  0  0  0  0  0  0  0  0
    0.5677    5.4876    0.0854 O   0  0  0  1  0  0  0  0  0  0  0  0
    1.2333    3.4770   -0.7076 N   0  0  0  1  0  0  0  0  0  0  0  0
   -2.8810    4.4588   -0.1159 H   0  0  0  1  0  0  0  0  0  0  0  0
   -2.0486    6.2713   -0.2914 C   0  0  0  1  0  0  0  0  0  0  0  0
    2.5930    3.5799   -0.1993 C   0  0  0  1  0  0  0  0  0  0  0  0
   -3.2325    6.9624    0.3760 C   0  0  0  1  0  0  0  0  0  0  0  0
   -1.0983    6.9688   -0.6437 O   0  0  0  1  0  0  0  0  0  0  0  0
    0.9711    2.6692   -1.1965 H   0  0  0  1  0  0  0  0  0  0  0  0
    2.5680    3.7332    0.8594 H   0  0  0  1  0  0  0  0  0  0  0  0
    3.0869    4.4057   -0.6674 H   0  0  0  1  0  0  0  0  0  0  0  0
    3.1240    2.6766   -0.4161 H   0  0  0  1  0  0  0  0  0  0  0  0
   -4.0910    6.8925   -0.2588 H   0  0  0  1  0  0  0  0  0  0  0  0
   -2.9959    7.9923    0.5435 H   0  0  0  1  0  0  0  0  0  0  0  0
   -3.4414    6.4872    1.3116 H   0  0  0  1  0  0  0  0  0  0  0  0
   -6.5450    2.1585   -3.4937 F   0  0  0  1  0  0  0  0  0  0  0  0
   -5.3149    2.2962   -2.9627 C   0  0  0  1  0  0  0  0  0  0  0  0
   -4.2965    2.8647   -3.7117 C   0  0  0  1  0  0  0  0  0  0  0  0
   -3.0329    3.0011   -3.1686 C   0  0  0  1  0  0  0  0  0  0  0  0
   -2.7853    2.5743   -1.8732 C   0  0  0  1  0  0  0  0  0  0  0  0
   -3.8009    2.0075   -1.1265 C   0  0  0  1  0  0  0  0  0  0  0  0
   -5.0683    1.8706   -1.6711 C   0  0  0  1  0  0  0  0  0  0  0  0
   -1.4060    2.7284   -1.2772 C   0  0  0  1  0  0  0  0  0  0  0  0
   -4.4831    3.1886   -4.6822 H   0  0  0  1  0  0  0  0  0  0  0  0
   -2.2677    3.4239   -3.7319 H   0  0  0  1  0  0  0  0  0  0  0  0
   -3.6142    1.6836   -0.1560 H   0  0  0  1  0  0  0  0  0  0  0  0
   -5.8335    1.4478   -1.1078 H   0  0  0  1  0  0  0  0  0  0  0  0
   -1.3885    2.2706   -0.3102 H   0  0  0  1  0  0  0  0  0  0  0  0
   -0.6931    2.2468   -1.9133 H   0  0  0  1  0  0  0  0  0  0  0  0
  1  4  1  0  0  0  0
  2  4  1  0  0  0  0
  2  5  2  0  0  0  0
  2  6  1  0  0  0  0
  3  4  1  0  0  0  0
  3  7  1  0  0  0  0
  3  8  1  0  0  0  0
  4 26  1  0  0  0  0
  6  9  1  0  0  0  0
  6 12  1  0  0  0  0
  8 10  1  0  0  0  0
  8 11  2  0  0  0  0
  9 13  1  0  0  0  0
  9 14  1  0  0  0  0
  9 15  1  0  0  0  0
 10 16  1  0  0  0  0
 10 17  1  0  0  0  0
 10 18  1  0  0  0  0
 19 20  1  0  0  0  0
 20 21  4  0  0  0  0
 20 25  4  0  0  0  0
 21 22  4  0  0  0  0
 21 27  1  0  0  0  0
 22 23  4  0  0  0  0
 22 28  1  0  0  0  0
 23 24  4  0  0  0  0
 23 26  1  0  0  0  0
 24 25  4  0  0  0  0
 24 29  1  0  0  0  0
 25 30  1  0  0  0  0
 26 31  1  0  0  0  0
 26 32  1  0  0  0  0
M  END
> <BCLConfClusterSize>
1

> <ConfClashScore>
0 

> <ConfOneFourInteractionScore>
-0.958855 

> <ConfScore>
0.141362 

> <ConfScorePBest>
0.00700789 

> <ConfTolerance>
0.431181 

> <RosettaParamsInstructions>
M  ROOT 3
M  POLY_N_BB 3
M  POLY_CA_BB 4
M  POLY_C_BB 2
M  POLY_O_BB 5
M  POLY_IGNORE 9 10 11 12 13 14 15 16 17 18 
M  POLY_UPPER 6
M  POLY_LOWER 8
M  POLY_CHG 0
M  POLY_PROPERTIES ALPHA_AA D_AA PROTEIN AROMATIC POLYMER 
M  END

$$$$



 32 32  0  0  0  0  0  0  0  0999 V2000
   -0.2307    3.8738    0.0436 H   0  0  0  1  0  0  0  0  0  0  0  0
   -2.1578    3.7796    0.8813 C   0  0  0  1  0  0  0  0  0  0  0  0
   -1.4269    5.1590   -1.0304 N   0  0  0  1  0  0  0  0  0  0  0  0
   -1.2364    3.9021   -0.3205 C   0  0  0  1  0  0  0  0  0  0  0  0
   -1.9604    2.9527    1.7571 O   0  0  0  1  0  0  0  0  0  0  0  0
   -3.1774    4.6528    0.8708 N   0  0  0  1  0  0  0  0  0  0  0  0
   -1.7007    5.1342   -1.9710 H   0  0  0  1  0  0  0  0  0  0  0  0
   -1.2416    6.3427   -0.4451 C   0  0  0  1  0  0  0  0  0  0  0  0
   -4.1425    4.8197    1.9471 C   0  0  0  1  0  0  0  0  0  0  0  0
   -1.2767    7.5516   -1.3713 C   0  0  0  1  0  0  0  0  0  0  0  0
   -1.0534    6.4697    0.7618 O   0  0  0  1  0  0  0  0  0  0  0  0
   -3.2794    5.2207    0.0787 H   0  0  0  1  0  0  0  0  0  0  0  0
   -4.8302    4.0000    1.9406 H   0  0  0  1  0  0  0  0  0  0  0  0
   -4.6781    5.7353    1.8068 H   0  0  0  1  0  0  0  0  0  0  0  0
   -3.6289    4.8466    2.8854 H   0  0  0  1  0  0  0  0  0  0  0  0
   -1.8758    7.3271   -2.2290 H   0  0  0  1  0  0  0  0  0  0  0  0
   -0.2816    7.7899   -1.6841 H   0  0  0  1  0  0  0  0  0  0  0  0
   -1.6973    8.3868   -0.8514 H   0  0  0  1  0  0  0  0  0  0  0  0
   -6.5556    2.1442   -3.4638 F   0  0  0  1  0  0  0  0  0  0  0  0
   -5.3127    2.2992   -2.9689 C   0  0  0  1  0  0  0  0  0  0  0  0
   -4.2921    2.8673   -3.7153 C   0  0  0  1  0  0  0  0  0  0  0  0
   -3.0296    3.0022   -3.1693 C   0  0  0  1  0  0  0  0  0  0  0  0
   -2.7852    2.5745   -1.8736 C   0  0  0  1  0  0  0  0  0  0  0  0
   -3.8029    2.0080   -1.1295 C   0  0  0  1  0  0  0  0  0  0  0  0
   -5.0693    1.8726   -1.6769 C   0  0  0  1  0  0  0  0  0  0  0  0
   -1.4071    2.7271   -1.2744 C   0  0  0  1  0  0  0  0  0  0  0  0
   -4.4763    3.1919   -4.6860 H   0  0  0  1  0  0  0  0  0  0  0  0
   -2.2628    3.4248   -3.7307 H   0  0  0  1  0  0  0  0  0  0  0  0
   -3.6187    1.6834   -0.1588 H   0  0  0  1  0  0  0  0  0  0  0  0
   -5.8360    1.4501   -1.1156 H   0  0  0  1  0  0  0  0  0  0  0  0
   -1.1796    1.8301   -0.7372 H   0  0  0  1  0  0  0  0  0  0  0  0
   -0.7100    2.8493   -2.0769 H   0  0  0  1  0  0  0  0  0  0  0  0
  1  4  1  0  0  0  0
  2  4  1  0  0  0  0
  2  5  2  0  0  0  0
  2  6  1  0  0  0  0
  3  4  1  0  0  0  0
  3  7  1  0  0  0  0
  3  8  1  0  0  0  0
  4 26  1  0  0  0  0
  6  9  1  0  0  0  0
  6 12  1  0  0  0  0
  8 10  1  0  0  0  0
  8 11  2  0  0  0  0
  9 13  1  0  0  0  0
  9 14  1  0  0  0  0
  9 15  1  0  0  0  0
 10 16  1  0  0  0  0
 10 17  1  0  0  0  0
 10 18  1  0  0  0  0
 19 20  1  0  0  0  0
 20 21  4  0  0  0  0
 20 25  4  0  0  0  0
 21 22  4  0  0  0  0
 21 27  1  0  0  0  0
 22 23  4  0  0  0  0
 22 28  1  0  0  0  0
 23 24  4  0  0  0  0
 23 26  1  0  0  0  0
 24 25  4  0  0  0  0
 24 29  1  0  0  0  0
 25 30  1  0  0  0  0
 26 31  1  0  0  0  0
 26 32  1  0  0  0  0
M  END
> <BCLConfClusterSize>
1

> <ConfClashScore>
0 

> <ConfOneFourInteractionScore>
-0.931937 

> <ConfScore>
0.141374 

> <ConfScorePBest>
0.00697941 

> <ConfTolerance>
0.2032 

> <RosettaParamsInstructions>
M  ROOT 3
M  POLY_N_BB 3
M  POLY_CA_BB 4
M  POLY_C_BB 2
M  POLY_O_BB 5
M  POLY_IGNORE 9 10 11 12 13 14 15 16 17 18 
M  POLY_UPPER 6
M  POLY_LOWER 8
M  POLY_CHG 0
M  POLY_PROPERTIES ALPHA_AA D_AA PROTEIN AROMATIC POLYMER 
M  END

$$$$



 32 32  0  0  0  0  0  0  0  0999 V2000
   -1.5117    1.0461   -0.0203 H   0  0  0  1  0  0  0  0  0  0  0  0
    0.4650    1.7552    0.0829 C   0  0  0  1  0  0  0  0  0  0  0  0
   -0.5688    0.4848   -1.7642 N   0  0  0  1  0  0  0  0  0  0  0  0
   -0.7987    1.4588   -0.7031 C   0  0  0  1  0  0  0  0  0  0  0  0
    0.3965    2.5878    0.9861 O   0  0  0  1  0  0  0  0  0  0  0  0
    1.5554    1.0805   -0.2759 N   0  0  0  1  0  0  0  0  0  0  0  0
   -0.2590    0.8019   -2.6382 H   0  0  0  1  0  0  0  0  0  0  0  0
   -0.7676   -0.8375   -1.5843 C   0  0  0  1  0  0  0  0  0  0  0  0
    2.8247    1.2274    0.4205 C   0  0  0  1  0  0  0  0  0  0  0  0
   -0.4841   -1.7634   -2.7454 C   0  0  0  1  0  0  0  0  0  0  0  0
   -1.1646   -1.2758   -0.5166 O   0  0  0  1  0  0  0  0  0  0  0  0
    1.5012    0.4635   -1.0354 H   0  0  0  1  0  0  0  0  0  0  0  0
    2.6512    1.2620    1.4758 H   0  0  0  1  0  0  0  0  0  0  0  0
    3.3002    2.1334    0.1076 H   0  0  0  1  0  0  0  0  0  0  0  0
    3.4560    0.3947    0.1903 H   0  0  0  1  0  0  0  0  0  0  0  0
   -0.7493   -1.2787   -3.6617 H   0  0  0  1  0  0  0  0  0  0  0  0
   -1.0598   -2.6587   -2.6361 H   0  0  0  1  0  0  0  0  0  0  0  0
    0.5575   -2.0080   -2.7601 H   0  0  0  1  0  0  0  0  0  0  0  0
   -6.5450    2.1585   -3.4937 F   0  0  0  1  0  0  0  0  0  0  0  0
   -5.3149    2.2962   -2.9627 C   0  0  0  1  0  0  0  0  0  0  0  0
   -4.2965    2.8647   -3.7117 C   0  0  0  1  0  0  0  0  0  0  0  0
   -3.0329    3.0011   -3.1686 C   0  0  0  1  0  0  0  0  0  0  0  0
   -2.7853    2.5743   -1.8732 C   0  0  0  1  0  0  0  0  0  0  0  0
   -3.8009    2.0075   -1.1265 C   0  0  0  1  0  0  0  0  0  0  0  0
   -5.0683    1.8706   -1.6711 C   0  0  0  1  0  0  0  0  0  0  0  0
   -1.4060    2.7284   -1.2772 C   0  0  0  1  0  0  0  0  0  0  0  0
   -4.4831    3.1886   -4.6822 H   0  0  0  1  0  0  0  0  0  0  0  0
   -2.2677    3.4239   -3.7319 H   0  0  0  1  0  0  0  0  0  0  0  0
   -3.6142    1.6836   -0.1560 H   0  0  0  1  0  0  0  0  0  0  0  0
   -5.8335    1.4478   -1.1078 H   0  0  0  1  0  0  0  0  0  0  0  0
   -0.7532    3.0888   -2.0445 H   0  0  0  1  0  0  0  0  0  0  0  0
   -1.4653    3.4510   -0.4902 H   0  0  0  1  0  0  0  0  0  0  0  0
  1  4  1  0  0  0  0
  2  4  1  0  0  0  0
  2  5  2  0  0  0  0
  2  6  1  0  0  0  0
  3  4  1  0  0  0  0
  3  7  1  0  0  0  0
  3  8  1  0  0  0  0
  4 26  1  0  0  0  0
  6  9  1  0  0  0  0
  6 12  1  0  0  0  0
  8 10  1  0  0  0  0
  8 11  2  0  0  0  0
  9 13  1  0  0  0  0
  9 14  1  0  0  0  0
  9 15  1  0  0  0  0
 10 16  1  0  0  0  0
 10 17  1  0  0  0  0
 10 18  1  0  0  0  0
 19 20  1  0  0  0  0
 20 21  4  0  0  0  0
 20 25  4  0  0  0  0
 21 22  4  0  0  0  0
 21 27  1  0  0  0  0
 22 23  4  0  0  0  0
 22 28  1  0  0  0  0
 23 24  4  0  0  0  0
 23 26  1  0  0  0  0
 24 25  4  0  0  0  0
 24 29  1  0  0  0  0
 25 30  1  0  0  0  0
 26 31  1  0  0  0  0
 26 32  1  0  0  0  0
M  END
> <BCLConfClusterSize>
1

> <ConfClashScore>
0 

> <ConfOneFourInteractionScore>
-0.960318 

> <ConfScore>
0.144413 

> <ConfScorePBest>
0.00695093 

> <ConfTolerance>
0.312454 

> <RosettaParamsInstructions>
M  ROOT 3
M  POLY_N_BB 3
M  POLY_CA_BB 4
M  POLY_C_BB 2
M  POLY_O_BB 5
M  POLY_IGNORE 9 10 11 12 13 14 15 16 17 18 
M  POLY_UPPER 6
M  POLY_LOWER 8
M  POLY_CHG 0
M  POLY_PROPERTIES ALPHA_AA D_AA PROTEIN AROMATIC POLYMER 
M  END

$$$$



 32 32  0  0  0  0  0  0  0  0999 V2000
   -0.1509    4.1749   -0.3904 H   0  0  0  1  0  0  0  0  0  0  0  0
   -2.1362    4.7115    0.0754 C   0  0  0  1  0  0  0  0  0  0  0  0
   -0.9628    5.0268   -2.0777 N   0  0  0  1  0  0  0  0  0  0  0  0
   -1.0908    4.1810   -0.9018 C   0  0  0  1  0  0  0  0  0  0  0  0
   -1.9383    4.6331    1.2871 O   0  0  0  1  0  0  0  0  0  0  0  0
   -3.1992    5.3238   -0.4539 N   0  0  0  1  0  0  0  0  0  0  0  0
   -1.1832    4.6695   -2.9633 H   0  0  0  1  0  0  0  0  0  0  0  0
   -0.5423    6.2988   -1.9525 C   0  0  0  1  0  0  0  0  0  0  0  0
   -4.3464    5.7220    0.3482 C   0  0  0  1  0  0  0  0  0  0  0  0
   -0.3593    7.0627   -3.2495 C   0  0  0  1  0  0  0  0  0  0  0  0
   -0.3157    6.8254   -0.8640 O   0  0  0  1  0  0  0  0  0  0  0  0
   -3.2067    5.5112   -1.4158 H   0  0  0  1  0  0  0  0  0  0  0  0
   -4.0200    5.9839    1.3330 H   0  0  0  1  0  0  0  0  0  0  0  0
   -5.0396    4.9091    0.4069 H   0  0  0  1  0  0  0  0  0  0  0  0
   -4.8229    6.5658   -0.1055 H   0  0  0  1  0  0  0  0  0  0  0  0
   -0.0908    6.3820   -4.0302 H   0  0  0  1  0  0  0  0  0  0  0  0
    0.4162    7.7899   -3.1284 H   0  0  0  1  0  0  0  0  0  0  0  0
   -1.2741    7.5553   -3.5052 H   0  0  0  1  0  0  0  0  0  0  0  0
   -6.5436    2.1603   -3.4973 F   0  0  0  1  0  0  0  0  0  0  0  0
   -5.3149    2.2961   -2.9625 C   0  0  0  1  0  0  0  0  0  0  0  0
   -4.2936    2.8641   -3.7080 C   0  0  0  1  0  0  0  0  0  0  0  0
   -3.0315    2.9985   -3.1610 C   0  0  0  1  0  0  0  0  0  0  0  0
   -2.7882    2.5704   -1.8653 C   0  0  0  1  0  0  0  0  0  0  0  0
   -3.8067    2.0042   -1.1220 C   0  0  0  1  0  0  0  0  0  0  0  0
   -5.0726    1.8692   -1.6705 C   0  0  0  1  0  0  0  0  0  0  0  0
   -1.3927    2.7464   -1.3147 C   0  0  0  1  0  0  0  0  0  0  0  0
   -4.4770    3.1890   -4.6788 H   0  0  0  1  0  0  0  0  0  0  0  0
   -2.2642    3.4210   -3.7217 H   0  0  0  1  0  0  0  0  0  0  0  0
   -3.6232    1.6793   -0.1513 H   0  0  0  1  0  0  0  0  0  0  0  0
   -5.8400    1.4467   -1.1098 H   0  0  0  1  0  0  0  0  0  0  0  0
   -1.2825    2.1151   -0.4579 H   0  0  0  1  0  0  0  0  0  0  0  0
   -0.6904    2.4535   -2.0669 H   0  0  0  1  0  0  0  0  0  0  0  0
  1  4  1  0  0  0  0
  2  4  1  0  0  0  0
  2  5  2  0  0  0  0
  2  6  1  0  0  0  0
  3  4  1  0  0  0  0
  3  7  1  0  0  0  0
  3  8  1  0  0  0  0
  4 26  1  0  0  0  0
  6  9  1  0  0  0  0
  6 12  1  0  0  0  0
  8 10  1  0  0  0  0
  8 11  2  0  0  0  0
  9 13  1  0  0  0  0
  9 14  1  0  0  0  0
  9 15  1  0  0  0  0
 10 16  1  0  0  0  0
 10 17  1  0  0  0  0
 10 18  1  0  0  0  0
 19 20  1  0  0  0  0
 20 21  4  0  0  0  0
 20 25  4  0  0  0  0
 21 22  4  0  0  0  0
 21 27  1  0  0  0  0
 22 23  4  0  0  0  0
 22 28  1  0  0  0  0
 23 24  4  0  0  0  0
 23 26  1  0  0  0  0
 24 25  4  0  0  0  0
 24 29  1  0  0  0  0
 25 30  1  0  0  0  0
 26 31  1  0  0  0  0
 26 32  1  0  0  0  0
M  END
> <BCLConfClusterSize>
1

> <ConfClashScore>
0 

> <ConfOneFourInteractionScore>
-0.957074 

> <ConfScore>
0.146681 

> <ConfScorePBest>
0.00692245 

> <ConfTolerance>
0.259087 

> <RosettaParamsInstructions>
M  ROOT 3
M  POLY_N_BB 3
M  POLY_CA_BB 4
M  POLY_C_BB 2
M  POLY_O_BB 5
M  POLY_IGNORE 9 10 11 12 13 14 15 16 17 18 
M  POLY_UPPER 6
M  POLY_LOWER 8
M  POLY_CHG 0
M  POLY_PROPERTIES ALPHA_AA D_AA PROTEIN AROMATIC POLYMER 
M  END

$$$$



 32 32  0  0  0  0  0  0  0  0999 V2000
   -1.7974    3.6352    0.5394 H   0  0  0  1  0  0  0  0  0  0  0  0
   -1.7398    5.2283   -0.8160 C   0  0  0  1  0  0  0  0  0  0  0  0
    0.1854    3.9977    0.1005 N   0  0  0  1  0  0  0  0  0  0  0  0
   -1.2226    3.8896   -0.3265 C   0  0  0  1  0  0  0  0  0  0  0  0
   -1.3283    5.7363   -1.8557 O   0  0  0  1  0  0  0  0  0  0  0  0
   -2.6612    5.7729   -0.0164 N   0  0  0  1  0  0  0  0  0  0  0  0
    0.8377    3.3583   -0.2546 H   0  0  0  1  0  0  0  0  0  0  0  0
    0.6022    4.9369    0.9544 C   0  0  0  1  0  0  0  0  0  0  0  0
   -3.2745    7.0614   -0.3018 C   0  0  0  1  0  0  0  0  0  0  0  0
    2.0156    4.7780    1.4670 C   0  0  0  1  0  0  0  0  0  0  0  0
   -0.1047    5.8782    1.3122 O   0  0  0  1  0  0  0  0  0  0  0  0
   -2.9335    5.2879    0.7904 H   0  0  0  1  0  0  0  0  0  0  0  0
   -3.5330    7.1121   -1.3389 H   0  0  0  1  0  0  0  0  0  0  0  0
   -2.5838    7.8445   -0.0680 H   0  0  0  1  0  0  0  0  0  0  0  0
   -4.1576    7.1751    0.2916 H   0  0  0  1  0  0  0  0  0  0  0  0
    2.0517    3.9738    2.1719 H   0  0  0  1  0  0  0  0  0  0  0  0
    2.3258    5.6842    1.9440 H   0  0  0  1  0  0  0  0  0  0  0  0
    2.6698    4.5636    0.6479 H   0  0  0  1  0  0  0  0  0  0  0  0
   -6.5543    2.1459   -3.4674 F   0  0  0  1  0  0  0  0  0  0  0  0
   -5.3127    2.2991   -2.9686 C   0  0  0  1  0  0  0  0  0  0  0  0
   -4.2892    2.8666   -3.7115 C   0  0  0  1  0  0  0  0  0  0  0  0
   -3.0282    2.9997   -3.1617 C   0  0  0  1  0  0  0  0  0  0  0  0
   -2.7881    2.5706   -1.8656 C   0  0  0  1  0  0  0  0  0  0  0  0
   -3.8087    2.0047   -1.1250 C   0  0  0  1  0  0  0  0  0  0  0  0
   -5.0736    1.8712   -1.6763 C   0  0  0  1  0  0  0  0  0  0  0  0
   -1.3937    2.7451   -1.3119 C   0  0  0  1  0  0  0  0  0  0  0  0
   -4.4702    3.1923   -4.6825 H   0  0  0  1  0  0  0  0  0  0  0  0
   -2.2593    3.4218   -3.7204 H   0  0  0  1  0  0  0  0  0  0  0  0
   -3.6277    1.6791   -0.1541 H   0  0  0  1  0  0  0  0  0  0  0  0
   -5.8425    1.4490   -1.1176 H   0  0  0  1  0  0  0  0  0  0  0  0
   -1.1201    1.8379   -0.8148 H   0  0  0  1  0  0  0  0  0  0  0  0
   -0.7309    2.9157   -2.1343 H   0  0  0  1  0  0  0  0  0  0  0  0
  1  4  1  0  0  0  0
  2  4  1  0  0  0  0
  2  5  2  0  0  0  0
  2  6  1  0  0  0  0
  3  4  1  0  0  0  0
  3  7  1  0  0  0  0
  3  8  1  0  0  0  0
  4 26  1  0  0  0  0
  6  9  1  0  0  0  0
  6 12  1  0  0  0  0
  8 10  1  0  0  0  0
  8 11  2  0  0  0  0
  9 13  1  0  0  0  0
  9 14  1  0  0  0  0
  9 15  1  0  0  0  0
 10 16  1  0  0  0  0
 10 17  1  0  0  0  0
 10 18  1  0  0  0  0
 19 20  1  0  0  0  0
 20 21  4  0  0  0  0
 20 25  4  0  0  0  0
 21 22  4  0  0  0  0
 21 27  1  0  0  0  0
 22 23  4  0  0  0  0
 22 28  1  0  0  0  0
 23 24  4  0  0  0  0
 23 26  1  0  0  0  0
 24 25  4  0  0  0  0
 24 29  1  0  0  0  0
 25 30  1  0  0  0  0
 26 31  1  0  0  0  0
 26 32  1  0  0  0  0
M  END
> <BCLConfClusterSize>
1

> <ConfClashScore>
0 

> <ConfOneFourInteractionScore>
-0.985807 

> <ConfScore>
0.147294 

> <ConfScorePBest>
0.00689397 

> <ConfTolerance>
0.25856 

> <RosettaParamsInstructions>
M  ROOT 3
M  POLY_N_BB 3
M  POLY_CA_BB 4
M  POLY_C_BB 2
M  POLY_O_BB 5
M  POLY_IGNORE 9 10 11 12 13 14 15 16 17 18 
M  POLY_UPPER 6
M  POLY_LOWER 8
M  POLY_CHG 0
M  POLY_PROPERTIES ALPHA_AA D_AA PROTEIN AROMATIC POLYMER 
M  END

$$$$



 32 32  0  0  0  0  0  0  0  0999 V2000
   -0.4160    3.2614   -3.0314 H   0  0  0  1  0  0  0  0  0  0  0  0
    0.9115    3.7748   -1.5266 C   0  0  0  1  0  0  0  0  0  0  0  0
   -1.0912    5.0275   -2.2467 N   0  0  0  1  0  0  0  0  0  0  0  0
   -0.4922    3.6990   -2.0580 C   0  0  0  1  0  0  0  0  0  0  0  0
    1.5647    4.8019   -1.5555 O   0  0  0  1  0  0  0  0  0  0  0  0
    1.4675    2.6787   -1.0025 N   0  0  0  1  0  0  0  0  0  0  0  0
   -1.5100    5.2396   -3.1070 H   0  0  0  1  0  0  0  0  0  0  0  0
   -1.0844    5.9857   -1.2559 C   0  0  0  1  0  0  0  0  0  0  0  0
    2.8834    2.6062   -0.6744 C   0  0  0  1  0  0  0  0  0  0  0  0
   -1.7540    7.2853   -1.5954 C   0  0  0  1  0  0  0  0  0  0  0  0
   -0.5568    5.7520   -0.1849 O   0  0  0  1  0  0  0  0  0  0  0  0
    0.9021    1.8964   -0.8332 H   0  0  0  1  0  0  0  0  0  0  0  0
    3.4456    3.1659   -1.3924 H   0  0  0  1  0  0  0  0  0  0  0  0
    3.2012    1.5846   -0.6907 H   0  0  0  1  0  0  0  0  0  0  0  0
    3.0445    3.0148    0.3013 H   0  0  0  1  0  0  0  0  0  0  0  0
   -2.7766    7.1036   -1.8529 H   0  0  0  1  0  0  0  0  0  0  0  0
   -1.2526    7.7386   -2.4248 H   0  0  0  1  0  0  0  0  0  0  0  0
   -1.7103    7.9402   -0.7503 H   0  0  0  1  0  0  0  0  0  0  0  0
   -6.5494    2.1770   -3.4874 F   0  0  0  1  0  0  0  0  0  0  0  0
   -5.3162    2.3018   -2.9604 C   0  0  0  1  0  0  0  0  0  0  0  0
   -4.2954    2.8638   -3.7112 C   0  0  0  1  0  0  0  0  0  0  0  0
   -3.0287    2.9870   -3.1723 C   0  0  0  1  0  0  0  0  0  0  0  0
   -2.7803    2.5535   -1.8793 C   0  0  0  1  0  0  0  0  0  0  0  0
   -3.7982    1.9932   -1.1308 C   0  0  0  1  0  0  0  0  0  0  0  0
   -5.0687    1.8695   -1.6712 C   0  0  0  1  0  0  0  0  0  0  0  0
   -1.4202    2.7860   -1.2648 C   0  0  0  1  0  0  0  0  0  0  0  0
   -4.4827    3.1927   -4.6799 H   0  0  0  1  0  0  0  0  0  0  0  0
   -2.2619    3.4049   -3.7369 H   0  0  0  1  0  0  0  0  0  0  0  0
   -3.6109    1.6643   -0.1621 H   0  0  0  1  0  0  0  0  0  0  0  0
   -5.8356    1.4516   -1.1066 H   0  0  0  1  0  0  0  0  0  0  0  0
   -1.5647    3.2216   -0.2982 H   0  0  0  1  0  0  0  0  0  0  0  0
   -0.9385    1.8363   -1.1602 H   0  0  0  1  0  0  0  0  0  0  0  0
  1  4  1  0  0  0  0
  2  4  1  0  0  0  0
  2  5  2  0  0  0  0
  2  6  1  0  0  0  0
  3  4  1  0  0  0  0
  3  7  1  0  0  0  0
  3  8  1  0  0  0  0
  4 26  1  0  0  0  0
  6  9  1  0  0  0  0
  6 12  1  0  0  0  0
  8 10  1  0  0  0  0
  8 11  2  0  0  0  0
  9 13  1  0  0  0  0
  9 14  1  0  0  0  0
  9 15  1  0  0  0  0
 10 16  1  0  0  0  0
 10 17  1  0  0  0  0
 10 18  1  0  0  0  0
 19 20  1  0  0  0  0
 20 21  4  0  0  0  0
 20 25  4  0  0  0  0
 21 22  4  0  0  0  0
 21 27  1  0  0  0  0
 22 23  4  0  0  0  0
 22 28  1  0  0  0  0
 23 24  4  0  0  0  0
 23 26  1  0  0  0  0
 24 25  4  0  0  0  0
 24 29  1  0  0  0  0
 25 30  1  0  0  0  0
 26 31  1  0  0  0  0
 26 32  1  0  0  0  0
M  END
> <BCLConfClusterSize>
1

> <ConfClashScore>
0 

> <ConfOneFourInteractionScore>
-0.953445 

> <ConfScore>
0.155772 

> <ConfScorePBest>
0.00686549 

> <ConfTolerance>
0.396264 

> <RosettaParamsInstructions>
M  ROOT 3
M  POLY_N_BB 3
M  POLY_CA_BB 4
M  POLY_C_BB 2
M  POLY_O_BB 5
M  POLY_IGNORE 9 10 11 12 13 14 15 16 17 18 
M  POLY_UPPER 6
M  POLY_LOWER 8
M  POLY_CHG 0
M  POLY_PROPERTIES ALPHA_AA D_AA PROTEIN AROMATIC POLYMER 
M  END

$$$$



 32 32  0  0  0  0  0  0  0  0999 V2000
   -0.2196    4.0957   -0.2302 H   0  0  0  1  0  0  0  0  0  0  0  0
   -1.8341    3.7008    1.0149 C   0  0  0  1  0  0  0  0  0  0  0  0
   -1.7971    5.1635   -0.9814 N   0  0  0  1  0  0  0  0  0  0  0  0
   -1.2695    3.9386   -0.3647 C   0  0  0  1  0  0  0  0  0  0  0  0
   -1.1810    3.1524    1.8873 O   0  0  0  1  0  0  0  0  0  0  0  0
   -3.0960    4.1472    1.1679 N   0  0  0  1  0  0  0  0  0  0  0  0
   -2.5662    5.6080   -0.5674 H   0  0  0  1  0  0  0  0  0  0  0  0
   -1.2448    5.7124   -2.1286 C   0  0  0  1  0  0  0  0  0  0  0  0
   -3.8119    3.9029    2.4112 C   0  0  0  1  0  0  0  0  0  0  0  0
   -1.8205    6.9871   -2.6787 C   0  0  0  1  0  0  0  0  0  0  0  0
   -0.3061    5.1399   -2.6551 O   0  0  0  1  0  0  0  0  0  0  0  0
   -3.5328    4.6375    0.4404 H   0  0  0  1  0  0  0  0  0  0  0  0
   -4.4014    3.0150    2.3154 H   0  0  0  1  0  0  0  0  0  0  0  0
   -4.4514    4.7341    2.6235 H   0  0  0  1  0  0  0  0  0  0  0  0
   -3.1093    3.7799    3.2087 H   0  0  0  1  0  0  0  0  0  0  0  0
   -2.7229    6.7707   -3.2114 H   0  0  0  1  0  0  0  0  0  0  0  0
   -1.1143    7.4396   -3.3431 H   0  0  0  1  0  0  0  0  0  0  0  0
   -2.0342    7.6584   -1.8734 H   0  0  0  1  0  0  0  0  0  0  0  0
   -6.5436    2.1603   -3.4973 F   0  0  0  1  0  0  0  0  0  0  0  0
   -5.3149    2.2961   -2.9625 C   0  0  0  1  0  0  0  0  0  0  0  0
   -4.2936    2.8641   -3.7080 C   0  0  0  1  0  0  0  0  0  0  0  0
   -3.0315    2.9985   -3.1610 C   0  0  0  1  0  0  0  0  0  0  0  0
   -2.7882    2.5704   -1.8653 C   0  0  0  1  0  0  0  0  0  0  0  0
   -3.8067    2.0042   -1.1220 C   0  0  0  1  0  0  0  0  0  0  0  0
   -5.0726    1.8692   -1.6705 C   0  0  0  1  0  0  0  0  0  0  0  0
   -1.3927    2.7464   -1.3147 C   0  0  0  1  0  0  0  0  0  0  0  0
   -4.4770    3.1890   -4.6788 H   0  0  0  1  0  0  0  0  0  0  0  0
   -2.2642    3.4210   -3.7217 H   0  0  0  1  0  0  0  0  0  0  0  0
   -3.6232    1.6793   -0.1513 H   0  0  0  1  0  0  0  0  0  0  0  0
   -5.8400    1.4467   -1.1098 H   0  0  0  1  0  0  0  0  0  0  0  0
   -1.1217    1.8581   -0.7833 H   0  0  0  1  0  0  0  0  0  0  0  0
   -0.7195    2.8923   -2.1334 H   0  0  0  1  0  0  0  0  0  0  0  0
  1  4  1  0  0  0  0
  2  4  1  0  0  0  0
  2  5  2  0  0  0  0
  2  6  1  0  0  0  0
  3  4  1  0  0  0  0
  3  7  1  0  0  0  0
  3  8  1  0  0  0  0
  4 26  1  0  0  0  0
  6  9  1  0  0  0  0
  6 12  1  0  0  0  0
  8 10  1  0  0  0  0
  8 11  2  0  0  0  0
  9 13  1  0  0  0  0
  9 14  1  0  0  0  0
  9 15  1  0  0  0  0
 10 16  1  0  0  0  0
 10 17  1  0  0  0  0
 10 18  1  0  0  0  0
 19 20  1  0  0  0  0
 20 21  4  0  0  0  0
 20 25  4  0  0  0  0
 21 22  4  0  0  0  0
 21 27  1  0  0  0  0
 22 23  4  0  0  0  0
 22 28  1  0  0  0  0
 23 24  4  0  0  0  0
 23 26  1  0  0  0  0
 24 25  4  0  0  0  0
 24 29  1  0  0  0  0
 25 30  1  0  0  0  0
 26 31  1  0  0  0  0
 26 32  1  0  0  0  0
M  END
> <BCLConfClusterSize>
1

> <ConfClashScore>
0 

> <ConfOneFourInteractionScore>
-0.933966 

> <ConfScore>
0.156267 

> <ConfScorePBest>
0.00683701 

> <ConfTolerance>
0.381591 

> <RosettaParamsInstructions>
M  ROOT 3
M  POLY_N_BB 3
M  POLY_CA_BB 4
M  POLY_C_BB 2
M  POLY_O_BB 5
M  POLY_IGNORE 9 10 11 12 13 14 15 16 17 18 
M  POLY_UPPER 6
M  POLY_LOWER 8
M  POLY_CHG 0
M  POLY_PROPERTIES ALPHA_AA D_AA PROTEIN AROMATIC POLYMER 
M  END

$$$$



 32 32  0  0  0  0  0  0  0  0999 V2000
    0.4411    1.7772   -1.1099 H   0  0  0  1  0  0  0  0  0  0  0  0
    0.0337    1.8323   -3.1564 C   0  0  0  1  0  0  0  0  0  0  0  0
   -0.9063    0.2778   -1.5023 N   0  0  0  1  0  0  0  0  0  0  0  0
   -0.4309    1.6570   -1.7183 C   0  0  0  1  0  0  0  0  0  0  0  0
    0.7898    2.7496   -3.4719 O   0  0  0  1  0  0  0  0  0  0  0  0
   -0.3525    0.8904   -4.0236 N   0  0  0  1  0  0  0  0  0  0  0  0
   -1.7752    0.1615   -1.0643 H   0  0  0  1  0  0  0  0  0  0  0  0
   -0.2416   -0.8250   -1.8588 C   0  0  0  1  0  0  0  0  0  0  0  0
    0.1557    0.8324   -5.3848 C   0  0  0  1  0  0  0  0  0  0  0  0
   -0.9028   -2.1397   -1.4934 C   0  0  0  1  0  0  0  0  0  0  0  0
    0.8389   -0.7954   -2.4464 O   0  0  0  1  0  0  0  0  0  0  0  0
   -1.0005    0.2157   -3.7316 H   0  0  0  1  0  0  0  0  0  0  0  0
    1.0513    0.2473   -5.4071 H   0  0  0  1  0  0  0  0  0  0  0  0
    0.3685    1.8232   -5.7283 H   0  0  0  1  0  0  0  0  0  0  0  0
   -0.5788    0.3840   -6.0207 H   0  0  0  1  0  0  0  0  0  0  0  0
   -1.9123   -2.1425   -1.8482 H   0  0  0  1  0  0  0  0  0  0  0  0
   -0.8985   -2.2573   -0.4299 H   0  0  0  1  0  0  0  0  0  0  0  0
   -0.3643   -2.9469   -1.9442 H   0  0  0  1  0  0  0  0  0  0  0  0
   -6.5463    2.1567   -3.4899 F   0  0  0  1  0  0  0  0  0  0  0  0
   -5.3147    2.2963   -2.9629 C   0  0  0  1  0  0  0  0  0  0  0  0
   -4.2994    2.8654   -3.7156 C   0  0  0  1  0  0  0  0  0  0  0  0
   -3.0342    3.0038   -3.1767 C   0  0  0  1  0  0  0  0  0  0  0  0
   -2.7820    2.5785   -1.8817 C   0  0  0  1  0  0  0  0  0  0  0  0
   -3.7945    2.0111   -1.1313 C   0  0  0  1  0  0  0  0  0  0  0  0
   -5.0635    1.8722   -1.6717 C   0  0  0  1  0  0  0  0  0  0  0  0
   -1.4219    2.7089   -1.2377 C   0  0  0  1  0  0  0  0  0  0  0  0
   -4.4895    3.1882   -4.6858 H   0  0  0  1  0  0  0  0  0  0  0  0
   -2.2714    3.4270   -3.7428 H   0  0  0  1  0  0  0  0  0  0  0  0
   -3.6043    1.6883   -0.1611 H   0  0  0  1  0  0  0  0  0  0  0  0
   -5.8264    1.4489   -1.1056 H   0  0  0  1  0  0  0  0  0  0  0  0
   -1.0284    3.6773   -1.4663 H   0  0  0  1  0  0  0  0  0  0  0  0
   -1.5359    2.6106   -0.1783 H   0  0  0  1  0  0  0  0  0  0  0  0
  1  4  1  0  0  0  0
  2  4  1  0  0  0  0
  2  5  2  0  0  0  0
  2  6  1  0  0  0  0
  3  4  1  0  0  0  0
  3  7  1  0  0  0  0
  3  8  1  0  0  0  0
  4 26  1  0  0  0  0
  6  9  1  0  0  0  0
  6 12  1  0  0  0  0
  8 10  1  0  0  0  0
  8 11  2  0  0  0  0
  9 13  1  0  0  0  0
  9 14  1  0  0  0  0
  9 15  1  0  0  0  0
 10 16  1  0  0  0  0
 10 17  1  0  0  0  0
 10 18  1  0  0  0  0
 19 20  1  0  0  0  0
 20 21  4  0  0  0  0
 20 25  4  0  0  0  0
 21 22  4  0  0  0  0
 21 27  1  0  0  0  0
 22 23  4  0  0  0  0
 22 28  1  0  0  0  0
 23 24  4  0  0  0  0
 23 26  1  0  0  0  0
 24 25  4  0  0  0  0
 24 29  1  0  0  0  0
 25 30  1  0  0  0  0
 26 31  1  0  0  0  0
 26 32  1  0  0  0  0
M  END
> <BCLConfClusterSize>
1

> <ConfClashScore>
0 

> <ConfOneFourInteractionScore>
-0.931937 

> <ConfScore>
0.156538 

> <ConfScorePBest>
0.00680853 

> <ConfTolerance>
0.238212 

> <RosettaParamsInstructions>
M  ROOT 3
M  POLY_N_BB 3
M  POLY_CA_BB 4
M  POLY_C_BB 2
M  POLY_O_BB 5
M  POLY_IGNORE 9 10 11 12 13 14 15 16 17 18 
M  POLY_UPPER 6
M  POLY_LOWER 8
M  POLY_CHG 0
M  POLY_PROPERTIES ALPHA_AA D_AA PROTEIN AROMATIC POLYMER 
M  END

$$$$



 32 32  0  0  0  0  0  0  0  0999 V2000
   -0.3368    4.1219   -0.0702 H   0  0  0  1  0  0  0  0  0  0  0  0
   -2.4240    4.3216    0.3102 C   0  0  0  1  0  0  0  0  0  0  0  0
   -1.2148    5.1579   -1.6467 N   0  0  0  1  0  0  0  0  0  0  0  0
   -1.2450    4.1114   -0.6359 C   0  0  0  1  0  0  0  0  0  0  0  0
   -2.6690    3.5219    1.2125 O   0  0  0  1  0  0  0  0  0  0  0  0
   -3.1593    5.4220    0.0896 N   0  0  0  1  0  0  0  0  0  0  0  0
   -1.7365    5.0379   -2.4675 H   0  0  0  1  0  0  0  0  0  0  0  0
   -0.4735    6.3190   -1.4887 C   0  0  0  1  0  0  0  0  0  0  0  0
   -4.3796    5.6498    0.8492 C   0  0  0  1  0  0  0  0  0  0  0  0
   -0.5612    7.3902   -2.5393 C   0  0  0  1  0  0  0  0  0  0  0  0
    0.2271    6.4324   -0.4994 O   0  0  0  1  0  0  0  0  0  0  0  0
   -2.8740    6.0738   -0.5844 H   0  0  0  1  0  0  0  0  0  0  0  0
   -4.2767    5.2256    1.8261 H   0  0  0  1  0  0  0  0  0  0  0  0
   -5.2039    5.1894    0.3457 H   0  0  0  1  0  0  0  0  0  0  0  0
   -4.5554    6.7018    0.9341 H   0  0  0  1  0  0  0  0  0  0  0  0
   -1.5788    7.7032   -2.6462 H   0  0  0  1  0  0  0  0  0  0  0  0
   -0.2071    7.0042   -3.4723 H   0  0  0  1  0  0  0  0  0  0  0  0
    0.0399    8.2258   -2.2473 H   0  0  0  1  0  0  0  0  0  0  0  0
   -6.5317    2.1748   -3.5266 F   0  0  0  1  0  0  0  0  0  0  0  0
   -5.3173    2.2931   -2.9564 C   0  0  0  1  0  0  0  0  0  0  0  0
   -4.2981    2.8615   -3.7045 C   0  0  0  1  0  0  0  0  0  0  0  0
   -3.0349    2.9974   -3.1604 C   0  0  0  1  0  0  0  0  0  0  0  0
   -2.7884    2.5703   -1.8649 C   0  0  0  1  0  0  0  0  0  0  0  0
   -3.8047    2.0036   -1.1191 C   0  0  0  1  0  0  0  0  0  0  0  0
   -5.0718    1.8672   -1.6646 C   0  0  0  1  0  0  0  0  0  0  0  0
   -1.3919    2.7478   -1.3175 C   0  0  0  1  0  0  0  0  0  0  0  0
   -4.4839    3.1856   -4.6751 H   0  0  0  1  0  0  0  0  0  0  0  0
   -2.2692    3.4201   -3.7231 H   0  0  0  1  0  0  0  0  0  0  0  0
   -3.6189    1.6794   -0.1485 H   0  0  0  1  0  0  0  0  0  0  0  0
   -5.8375    1.4445   -1.1020 H   0  0  0  1  0  0  0  0  0  0  0  0
   -1.1941    1.9756   -0.6037 H   0  0  0  1  0  0  0  0  0  0  0  0
   -0.6888    2.6798   -2.1213 H   0  0  0  1  0  0  0  0  0  0  0  0
  1  4  1  0  0  0  0
  2  4  1  0  0  0  0
  2  5  2  0  0  0  0
  2  6  1  0  0  0  0
  3  4  1  0  0  0  0
  3  7  1  0  0  0  0
  3  8  1  0  0  0  0
  4 26  1  0  0  0  0
  6  9  1  0  0  0  0
  6 12  1  0  0  0  0
  8 10  1  0  0  0  0
  8 11  2  0  0  0  0
  9 13  1  0  0  0  0
  9 14  1  0  0  0  0
  9 15  1  0  0  0  0
 10 16  1  0  0  0  0
 10 17  1  0  0  0  0
 10 18  1  0  0  0  0
 19 20  1  0  0  0  0
 20 21  4  0  0  0  0
 20 25  4  0  0  0  0
 21 22  4  0  0  0  0
 21 27  1  0  0  0  0
 22 23  4  0  0  0  0
 22 28  1  0  0  0  0
 23 24  4  0  0  0  0
 23 26  1  0  0  0  0
 24 25  4  0  0  0  0
 24 29  1  0  0  0  0
 25 30  1  0  0  0  0
 26 31  1  0  0  0  0
 26 32  1  0  0  0  0
M  END
> <BCLConfClusterSize>
1

> <ConfClashScore>
0 

> <ConfOneFourInteractionScore>
-0.957074 

> <ConfScore>
0.163331 

> <ConfScorePBest>
0.00678005 

> <ConfTolerance>
0.301197 

> <RosettaParamsInstructions>
M  ROOT 3
M  POLY_N_BB 3
M  POLY_CA_BB 4
M  POLY_C_BB 2
M  POLY_O_BB 5
M  POLY_IGNORE 9 10 11 12 13 14 15 16 17 18 
M  POLY_UPPER 6
M  POLY_LOWER 8
M  POLY_CHG 0
M  POLY_PROPERTIES ALPHA_AA D_AA PROTEIN AROMATIC POLYMER 
M  END

$$$$



 32 32  0  0  0  0  0  0  0  0999 V2000
   -0.3926    1.7798   -2.8493 H   0  0  0  1  0  0  0  0  0  0  0  0
   -0.8028    0.2455   -1.4807 C   0  0  0  1  0  0  0  0  0  0  0  0
    0.9411    1.9793   -1.2884 N   0  0  0  1  0  0  0  0  0  0  0  0
   -0.4173    1.6864   -1.7837 C   0  0  0  1  0  0  0  0  0  0  0  0
   -0.5771   -0.1851   -0.3529 O   0  0  0  1  0  0  0  0  0  0  0  0
   -1.3655   -0.4751   -2.4549 N   0  0  0  1  0  0  0  0  0  0  0  0
    1.0781    2.7663   -0.7209 H   0  0  0  1  0  0  0  0  0  0  0  0
    2.0308    1.1797   -1.5981 C   0  0  0  1  0  0  0  0  0  0  0  0
   -1.8647   -1.8139   -2.1784 C   0  0  0  1  0  0  0  0  0  0  0  0
    3.3966    1.5912   -1.1250 C   0  0  0  1  0  0  0  0  0  0  0  0
    1.8436    0.1660   -2.2461 O   0  0  0  1  0  0  0  0  0  0  0  0
   -1.4422   -0.1015   -3.3576 H   0  0  0  1  0  0  0  0  0  0  0  0
   -1.8098   -2.0055   -1.1271 H   0  0  0  1  0  0  0  0  0  0  0  0
   -1.2694   -2.5317   -2.7030 H   0  0  0  1  0  0  0  0  0  0  0  0
   -2.8819   -1.8888   -2.5017 H   0  0  0  1  0  0  0  0  0  0  0  0
    3.5963    2.5943   -1.4394 H   0  0  0  1  0  0  0  0  0  0  0  0
    4.1311    0.9341   -1.5419 H   0  0  0  1  0  0  0  0  0  0  0  0
    3.4349    1.5381   -0.0570 H   0  0  0  1  0  0  0  0  0  0  0  0
   -6.5450    2.1585   -3.4937 F   0  0  0  1  0  0  0  0  0  0  0  0
   -5.3149    2.2962   -2.9627 C   0  0  0  1  0  0  0  0  0  0  0  0
   -4.2965    2.8647   -3.7117 C   0  0  0  1  0  0  0  0  0  0  0  0
   -3.0329    3.0011   -3.1686 C   0  0  0  1  0  0  0  0  0  0  0  0
   -2.7853    2.5743   -1.8732 C   0  0  0  1  0  0  0  0  0  0  0  0
   -3.8009    2.0075   -1.1265 C   0  0  0  1  0  0  0  0  0  0  0  0
   -5.0683    1.8706   -1.6711 C   0  0  0  1  0  0  0  0  0  0  0  0
   -1.4060    2.7284   -1.2772 C   0  0  0  1  0  0  0  0  0  0  0  0
   -4.4831    3.1886   -4.6822 H   0  0  0  1  0  0  0  0  0  0  0  0
   -2.2677    3.4239   -3.7319 H   0  0  0  1  0  0  0  0  0  0  0  0
   -3.6142    1.6836   -0.1560 H   0  0  0  1  0  0  0  0  0  0  0  0
   -5.8335    1.4478   -1.1078 H   0  0  0  1  0  0  0  0  0  0  0  0
   -1.0340    3.7003   -1.5262 H   0  0  0  1  0  0  0  0  0  0  0  0
   -1.4823    2.6369   -0.2138 H   0  0  0  1  0  0  0  0  0  0  0  0
  1  4  1  0  0  0  0
  2  4  1  0  0  0  0
  2  5  2  0  0  0  0
  2  6  1  0  0  0  0
  3  4  1  0  0  0  0
  3  7  1  0  0  0  0
  3  8  1  0  0  0  0
  4 26  1  0  0  0  0
  6  9  1  0  0  0  0
  6 12  1  0  0  0  0
  8 10  1  0  0  0  0
  8 11  2  0  0  0  0
  9 13  1  0  0  0  0
  9 14  1  0  0  0  0
  9 15  1  0  0  0  0
 10 16  1  0  0  0  0
 10 17  1  0  0  0  0
 10 18  1  0  0  0  0
 19 20  1  0  0  0  0
 20 21  4  0  0  0  0
 20 25  4  0  0  0  0
 21 22  4  0  0  0  0
 21 27  1  0  0  0  0
 22 23  4  0  0  0  0
 22 28  1  0  0  0  0
 23 24  4  0  0  0  0
 23 26  1  0  0  0  0
 24 25  4  0  0  0  0
 24 29  1  0  0  0  0
 25 30  1  0  0  0  0
 26 31  1  0  0  0  0
 26 32  1  0  0  0  0
M  END
> <BCLConfClusterSize>
1

> <ConfClashScore>
0 

> <ConfOneFourInteractionScore>
-0.985807 

> <ConfScore>
0.174043 

> <ConfScorePBest>
0.00675157 

> <ConfTolerance>
0.301141 

> <RosettaParamsInstructions>
M  ROOT 3
M  POLY_N_BB 3
M  POLY_CA_BB 4
M  POLY_C_BB 2
M  POLY_O_BB 5
M  POLY_IGNORE 9 10 11 12 13 14 15 16 17 18 
M  POLY_UPPER 6
M  POLY_LOWER 8
M  POLY_CHG 0
M  POLY_PROPERTIES ALPHA_AA D_AA PROTEIN AROMATIC POLYMER 
M  END

$$$$



 32 32  0  0  0  0  0  0  0  0999 V2000
   -0.3759    3.6308    0.3031 H   0  0  0  1  0  0  0  0  0  0  0  0
   -2.0832    2.7594    1.1505 C   0  0  0  1  0  0  0  0  0  0  0  0
   -1.9369    4.8671   -0.1627 N   0  0  0  1  0  0  0  0  0  0  0  0
   -1.4025    3.5259    0.0204 C   0  0  0  1  0  0  0  0  0  0  0  0
   -1.6342    1.6876    1.5481 O   0  0  0  1  0  0  0  0  0  0  0  0
   -3.2205    3.3001    1.5967 N   0  0  0  1  0  0  0  0  0  0  0  0
   -2.3345    5.1039   -1.0266 H   0  0  0  1  0  0  0  0  0  0  0  0
   -1.9044    5.7853    0.8044 C   0  0  0  1  0  0  0  0  0  0  0  0
   -4.0658    2.6343    2.5765 C   0  0  0  1  0  0  0  0  0  0  0  0
   -2.2703    7.2012    0.3650 C   0  0  0  1  0  0  0  0  0  0  0  0
   -1.5387    5.5541    1.9538 O   0  0  0  1  0  0  0  0  0  0  0  0
   -3.4950    4.1756    1.2523 H   0  0  0  1  0  0  0  0  0  0  0  0
   -3.5092    1.8591    3.0604 H   0  0  0  1  0  0  0  0  0  0  0  0
   -4.9152    2.2090    2.0840 H   0  0  0  1  0  0  0  0  0  0  0  0
   -4.3945    3.3453    3.3054 H   0  0  0  1  0  0  0  0  0  0  0  0
   -2.7197    7.1691   -0.6055 H   0  0  0  1  0  0  0  0  0  0  0  0
   -1.3862    7.8027    0.3286 H   0  0  0  1  0  0  0  0  0  0  0  0
   -2.9614    7.6239    1.0640 H   0  0  0  1  0  0  0  0  0  0  0  0
   -6.5450    2.1585   -3.4937 F   0  0  0  1  0  0  0  0  0  0  0  0
   -5.3149    2.2962   -2.9627 C   0  0  0  1  0  0  0  0  0  0  0  0
   -4.2965    2.8647   -3.7117 C   0  0  0  1  0  0  0  0  0  0  0  0
   -3.0329    3.0011   -3.1686 C   0  0  0  1  0  0  0  0  0  0  0  0
   -2.7853    2.5743   -1.8732 C   0  0  0  1  0  0  0  0  0  0  0  0
   -3.8009    2.0075   -1.1265 C   0  0  0  1  0  0  0  0  0  0  0  0
   -5.0683    1.8706   -1.6711 C   0  0  0  1  0  0  0  0  0  0  0  0
   -1.4060    2.7284   -1.2772 C   0  0  0  1  0  0  0  0  0  0  0  0
   -4.4831    3.1886   -4.6822 H   0  0  0  1  0  0  0  0  0  0  0  0
   -2.2677    3.4239   -3.7319 H   0  0  0  1  0  0  0  0  0  0  0  0
   -3.6142    1.6836   -0.1560 H   0  0  0  1  0  0  0  0  0  0  0  0
   -5.8335    1.4478   -1.1078 H   0  0  0  1  0  0  0  0  0  0  0  0
   -1.0097    1.7544   -1.0793 H   0  0  0  1  0  0  0  0  0  0  0  0
   -0.7823    3.2304   -1.9871 H   0  0  0  1  0  0  0  0  0  0  0  0
  1  4  1  0  0  0  0
  2  4  1  0  0  0  0
  2  5  2  0  0  0  0
  2  6  1  0  0  0  0
  3  4  1  0  0  0  0
  3  7  1  0  0  0  0
  3  8  1  0  0  0  0
  4 26  1  0  0  0  0
  6  9  1  0  0  0  0
  6 12  1  0  0  0  0
  8 10  1  0  0  0  0
  8 11  2  0  0  0  0
  9 13  1  0  0  0  0
  9 14  1  0  0  0  0
  9 15  1  0  0  0  0
 10 16  1  0  0  0  0
 10 17  1  0  0  0  0
 10 18  1  0  0  0  0
 19 20  1  0  0  0  0
 20 21  4  0  0  0  0
 20 25  4  0  0  0  0
 21 22  4  0  0  0  0
 21 27  1  0  0  0  0
 22 23  4  0  0  0  0
 22 28  1  0  0  0  0
 23 24  4  0  0  0  0
 23 26  1  0  0  0  0
 24 25  4  0  0  0  0
 24 29  1  0  0  0  0
 25 30  1  0  0  0  0
 26 31  1  0  0  0  0
 26 32  1  0  0  0  0
M  END
> <BCLConfClusterSize>
1

> <ConfClashScore>
0 

> <ConfOneFourInteractionScore>
-0.931937 

> <ConfScore>
0.17655 

> <ConfScorePBest>
0.00672309 

> <ConfTolerance>
0.266391 

> <RosettaParamsInstructions>
M  ROOT 3
M  POLY_N_BB 3
M  POLY_CA_BB 4
M  POLY_C_BB 2
M  POLY_O_BB 5
M  POLY_IGNORE 9 10 11 12 13 14 15 16 17 18 
M  POLY_UPPER 6
M  POLY_LOWER 8
M  POLY_CHG 0
M  POLY_PROPERTIES ALPHA_AA D_AA PROTEIN AROMATIC POLYMER 
M  END

$$$$



 32 32  0  0  0  0  0  0  0  0999 V2000
   -0.1608    2.6385   -2.9249 H   0  0  0  1  0  0  0  0  0  0  0  0
   -0.6296    0.6384   -2.4960 C   0  0  0  1  0  0  0  0  0  0  0  0
    0.9418    2.0409   -1.2801 N   0  0  0  1  0  0  0  0  0  0  0  0
   -0.3123    2.0467   -2.0464 C   0  0  0  1  0  0  0  0  0  0  0  0
    0.0284    0.0858   -3.3765 O   0  0  0  1  0  0  0  0  0  0  0  0
   -1.6560    0.0507   -1.8792 N   0  0  0  1  0  0  0  0  0  0  0  0
    0.8973    2.2584   -0.3255 H   0  0  0  1  0  0  0  0  0  0  0  0
    2.1388    1.7579   -1.8019 C   0  0  0  1  0  0  0  0  0  0  0  0
   -2.1658   -1.2503   -2.2861 C   0  0  0  1  0  0  0  0  0  0  0  0
    3.2872    1.7236   -0.8258 C   0  0  0  1  0  0  0  0  0  0  0  0
    2.3118    1.5372   -2.9976 O   0  0  0  1  0  0  0  0  0  0  0  0
   -2.0817    0.5109   -1.1260 H   0  0  0  1  0  0  0  0  0  0  0  0
   -2.9086   -1.5769   -1.5886 H   0  0  0  1  0  0  0  0  0  0  0  0
   -1.3625   -1.9568   -2.3082 H   0  0  0  1  0  0  0  0  0  0  0  0
   -2.6010   -1.1738   -3.2605 H   0  0  0  1  0  0  0  0  0  0  0  0
    3.1231    0.9468   -0.1085 H   0  0  0  1  0  0  0  0  0  0  0  0
    3.3552    2.6652   -0.3223 H   0  0  0  1  0  0  0  0  0  0  0  0
    4.1983    1.5343   -1.3540 H   0  0  0  1  0  0  0  0  0  0  0  0
   -6.5463    2.1567   -3.4899 F   0  0  0  1  0  0  0  0  0  0  0  0
   -5.3147    2.2963   -2.9629 C   0  0  0  1  0  0  0  0  0  0  0  0
   -4.2994    2.8654   -3.7156 C   0  0  0  1  0  0  0  0  0  0  0  0
   -3.0342    3.0038   -3.1767 C   0  0  0  1  0  0  0  0  0  0  0  0
   -2.7820    2.5785   -1.8817 C   0  0  0  1  0  0  0  0  0  0  0  0
   -3.7945    2.0111   -1.1313 C   0  0  0  1  0  0  0  0  0  0  0  0
   -5.0635    1.8722   -1.6717 C   0  0  0  1  0  0  0  0  0  0  0  0
   -1.4219    2.7089   -1.2377 C   0  0  0  1  0  0  0  0  0  0  0  0
   -4.4895    3.1882   -4.6858 H   0  0  0  1  0  0  0  0  0  0  0  0
   -2.2714    3.4270   -3.7428 H   0  0  0  1  0  0  0  0  0  0  0  0
   -3.6043    1.6883   -0.1611 H   0  0  0  1  0  0  0  0  0  0  0  0
   -5.8264    1.4489   -1.1056 H   0  0  0  1  0  0  0  0  0  0  0  0
   -1.1930    3.7489   -1.1332 H   0  0  0  1  0  0  0  0  0  0  0  0
   -1.4578    2.2521   -0.2708 H   0  0  0  1  0  0  0  0  0  0  0  0
  1  4  1  0  0  0  0
  2  4  1  0  0  0  0
  2  5  2  0  0  0  0
  2  6  1  0  0  0  0
  3  4  1  0  0  0  0
  3  7  1  0  0  0  0
  3  8  1  0  0  0  0
  4 26  1  0  0  0  0
  6  9  1  0  0  0  0
  6 12  1  0  0  0  0
  8 10  1  0  0  0  0
  8 11  2  0  0  0  0
  9 13  1  0  0  0  0
  9 14  1  0  0  0  0
  9 15  1  0  0  0  0
 10 16  1  0  0  0  0
 10 17  1  0  0  0  0
 10 18  1  0  0  0  0
 19 20  1  0  0  0  0
 20 21  4  0  0  0  0
 20 25  4  0  0  0  0
 21 22  4  0  0  0  0
 21 27  1  0  0  0  0
 22 23  4  0  0  0  0
 22 28  1  0  0  0  0
 23 24  4  0  0  0  0
 23 26  1  0  0  0  0
 24 25  4  0  0  0  0
 24 29  1  0  0  0  0
 25 30  1  0  0  0  0
 26 31  1  0  0  0  0
 26 32  1  0  0  0  0
M  END
> <BCLConfClusterSize>
1

> <ConfClashScore>
0 

> <ConfOneFourInteractionScore>
-0.952541 

> <ConfScore>
0.177031 

> <ConfScorePBest>
0.0066946 

> <ConfTolerance>
0.44607 

> <RosettaParamsInstructions>
M  ROOT 3
M  POLY_N_BB 3
M  POLY_CA_BB 4
M  POLY_C_BB 2
M  POLY_O_BB 5
M  POLY_IGNORE 9 10 11 12 13 14 15 16 17 18 
M  POLY_UPPER 6
M  POLY_LOWER 8
M  POLY_CHG 0
M  POLY_PROPERTIES ALPHA_AA D_AA PROTEIN AROMATIC POLYMER 
M  END

$$$$



 32 32  0  0  0  0  0  0  0  0999 V2000
   -1.8549    3.7893    0.4862 H   0  0  0  1  0  0  0  0  0  0  0  0
   -1.6549    5.2202   -1.0407 C   0  0  0  1  0  0  0  0  0  0  0  0
    0.1564    4.0026    0.1073 N   0  0  0  1  0  0  0  0  0  0  0  0
   -1.2194    3.9345   -0.3623 C   0  0  0  1  0  0  0  0  0  0  0  0
   -2.8217    5.6008   -0.9961 O   0  0  0  1  0  0  0  0  0  0  0  0
   -0.6895    5.8975   -1.6807 N   0  0  0  1  0  0  0  0  0  0  0  0
    0.7934    3.3008   -0.1417 H   0  0  0  1  0  0  0  0  0  0  0  0
    0.5528    5.0199    0.8774 C   0  0  0  1  0  0  0  0  0  0  0  0
   -0.9781    7.0323   -2.5448 C   0  0  0  1  0  0  0  0  0  0  0  0
    1.9862    4.9555    1.3675 C   0  0  0  1  0  0  0  0  0  0  0  0
   -0.1839    5.9576    1.1801 O   0  0  0  1  0  0  0  0  0  0  0  0
    0.2424    5.6183   -1.5621 H   0  0  0  1  0  0  0  0  0  0  0  0
   -1.9459    7.4232   -2.3097 H   0  0  0  1  0  0  0  0  0  0  0  0
   -0.9602    6.7157   -3.5668 H   0  0  0  1  0  0  0  0  0  0  0  0
   -0.2403    7.7923   -2.3934 H   0  0  0  1  0  0  0  0  0  0  0  0
    2.6434    4.8244    0.5333 H   0  0  0  1  0  0  0  0  0  0  0  0
    2.0960    4.1311    2.0407 H   0  0  0  1  0  0  0  0  0  0  0  0
    2.2309    5.8655    1.8743 H   0  0  0  1  0  0  0  0  0  0  0  0
   -6.5332    2.1730   -3.5231 F   0  0  0  1  0  0  0  0  0  0  0  0
   -5.3173    2.2932   -2.9566 C   0  0  0  1  0  0  0  0  0  0  0  0
   -4.3009    2.8621   -3.7082 C   0  0  0  1  0  0  0  0  0  0  0  0
   -3.0363    2.9999   -3.1680 C   0  0  0  1  0  0  0  0  0  0  0  0
   -2.7855    2.5741   -1.8729 C   0  0  0  1  0  0  0  0  0  0  0  0
   -3.7989    2.0069   -1.1236 C   0  0  0  1  0  0  0  0  0  0  0  0
   -5.0674    1.8686   -1.6653 C   0  0  0  1  0  0  0  0  0  0  0  0
   -1.4050    2.7298   -1.2800 C   0  0  0  1  0  0  0  0  0  0  0  0
   -4.4900    3.1852   -4.6785 H   0  0  0  1  0  0  0  0  0  0  0  0
   -2.2727    3.4230   -3.7333 H   0  0  0  1  0  0  0  0  0  0  0  0
   -3.6098    1.6838   -0.1533 H   0  0  0  1  0  0  0  0  0  0  0  0
   -5.8310    1.4455   -1.1000 H   0  0  0  1  0  0  0  0  0  0  0  0
   -1.1871    1.8477   -0.7148 H   0  0  0  1  0  0  0  0  0  0  0  0
   -0.7075    2.8186   -2.0865 H   0  0  0  1  0  0  0  0  0  0  0  0
  1  4  1  0  0  0  0
  2  4  1  0  0  0  0
  2  5  2  0  0  0  0
  2  6  1  0  0  0  0
  3  4  1  0  0  0  0
  3  7  1  0  0  0  0
  3  8  1  0  0  0  0
  4 26  1  0  0  0  0
  6  9  1  0  0  0  0
  6 12  1  0  0  0  0
  8 10  1  0  0  0  0
  8 11  2  0  0  0  0
  9 13  1  0  0  0  0
  9 14  1  0  0  0  0
  9 15  1  0  0  0  0
 10 16  1  0  0  0  0
 10 17  1  0  0  0  0
 10 18  1  0  0  0  0
 19 20  1  0  0  0  0
 20 21  4  0  0  0  0
 20 25  4  0  0  0  0
 21 22  4  0  0  0  0
 21 27  1  0  0  0  0
 22 23  4  0  0  0  0
 22 28  1  0  0  0  0
 23 24  4  0  0  0  0
 23 26  1  0  0  0  0
 24 25  4  0  0  0  0
 24 29  1  0  0  0  0
 25 30  1  0  0  0  0
 26 31  1  0  0  0  0
 26 32  1  0  0  0  0
M  END
> <BCLConfClusterSize>
1

> <ConfClashScore>
0 

> <ConfOneFourInteractionScore>
-0.960318 

> <ConfScore>
0.186889 

> <ConfScorePBest>
0.00666612 

> <ConfTolerance>
0.199747 

> <RosettaParamsInstructions>
M  ROOT 3
M  POLY_N_BB 3
M  POLY_CA_BB 4
M  POLY_C_BB 2
M  POLY_O_BB 5
M  POLY_IGNORE 9 10 11 12 13 14 15 16 17 18 
M  POLY_UPPER 6
M  POLY_LOWER 8
M  POLY_CHG 0
M  POLY_PROPERTIES ALPHA_AA D_AA PROTEIN AROMATIC POLYMER 
M  END

$$$$



 32 32  0  0  0  0  0  0  0  0999 V2000
   -1.3823    0.8866   -0.2427 H   0  0  0  1  0  0  0  0  0  0  0  0
    0.5989    1.5881   -0.2659 C   0  0  0  1  0  0  0  0  0  0  0  0
   -0.6404    0.5637   -2.1355 N   0  0  0  1  0  0  0  0  0  0  0  0
   -0.7449    1.3886   -0.9403 C   0  0  0  1  0  0  0  0  0  0  0  0
    1.4501    0.7027   -0.2665 O   0  0  0  1  0  0  0  0  0  0  0  0
    0.7845    2.7736    0.3169 N   0  0  0  1  0  0  0  0  0  0  0  0
   -1.3422   -0.1010   -2.2969 H   0  0  0  1  0  0  0  0  0  0  0  0
    0.3610    0.6561   -3.0349 C   0  0  0  1  0  0  0  0  0  0  0  0
    2.0328    3.0608    1.0076 C   0  0  0  1  0  0  0  0  0  0  0  0
    0.3804   -0.3299   -4.1809 C   0  0  0  1  0  0  0  0  0  0  0  0
    1.2324    1.5150   -2.9281 O   0  0  0  1  0  0  0  0  0  0  0  0
    0.0788    3.4525    0.2798 H   0  0  0  1  0  0  0  0  0  0  0  0
    2.8445    2.5987    0.4854 H   0  0  0  1  0  0  0  0  0  0  0  0
    1.9852    2.6757    2.0047 H   0  0  0  1  0  0  0  0  0  0  0  0
    2.1867    4.1192    1.0404 H   0  0  0  1  0  0  0  0  0  0  0  0
    0.8504    0.1193   -5.0307 H   0  0  0  1  0  0  0  0  0  0  0  0
   -0.6229   -0.6042   -4.4321 H   0  0  0  1  0  0  0  0  0  0  0  0
    0.9274   -1.2026   -3.8910 H   0  0  0  1  0  0  0  0  0  0  0  0
   -6.5450    2.1585   -3.4937 F   0  0  0  1  0  0  0  0  0  0  0  0
   -5.3149    2.2962   -2.9627 C   0  0  0  1  0  0  0  0  0  0  0  0
   -4.2965    2.8647   -3.7117 C   0  0  0  1  0  0  0  0  0  0  0  0
   -3.0329    3.0011   -3.1686 C   0  0  0  1  0  0  0  0  0  0  0  0
   -2.7853    2.5743   -1.8732 C   0  0  0  1  0  0  0  0  0  0  0  0
   -3.8009    2.0075   -1.1265 C   0  0  0  1  0  0  0  0  0  0  0  0
   -5.0683    1.8706   -1.6711 C   0  0  0  1  0  0  0  0  0  0  0  0
   -1.4060    2.7284   -1.2772 C   0  0  0  1  0  0  0  0  0  0  0  0
   -4.4831    3.1886   -4.6822 H   0  0  0  1  0  0  0  0  0  0  0  0
   -2.2677    3.4239   -3.7319 H   0  0  0  1  0  0  0  0  0  0  0  0
   -3.6142    1.6836   -0.1560 H   0  0  0  1  0  0  0  0  0  0  0  0
   -5.8335    1.4478   -1.1078 H   0  0  0  1  0  0  0  0  0  0  0  0
   -0.7872    3.2463   -1.9799 H   0  0  0  1  0  0  0  0  0  0  0  0
   -1.4856    3.3043   -0.3789 H   0  0  0  1  0  0  0  0  0  0  0  0
  1  4  1  0  0  0  0
  2  4  1  0  0  0  0
  2  5  2  0  0  0  0
  2  6  1  0  0  0  0
  3  4  1  0  0  0  0
  3  7  1  0  0  0  0
  3  8  1  0  0  0  0
  4 26  1  0  0  0  0
  6  9  1  0  0  0  0
  6 12  1  0  0  0  0
  8 10  1  0  0  0  0
  8 11  2  0  0  0  0
  9 13  1  0  0  0  0
  9 14  1  0  0  0  0
  9 15  1  0  0  0  0
 10 16  1  0  0  0  0
 10 17  1  0  0  0  0
 10 18  1  0  0  0  0
 19 20  1  0  0  0  0
 20 21  4  0  0  0  0
 20 25  4  0  0  0  0
 21 22  4  0  0  0  0
 21 27  1  0  0  0  0
 22 23  4  0  0  0  0
 22 28  1  0  0  0  0
 23 24  4  0  0  0  0
 23 26  1  0  0  0  0
 24 25  4  0  0  0  0
 24 29  1  0  0  0  0
 25 30  1  0  0  0  0
 26 31  1  0  0  0  0
 26 32  1  0  0  0  0
M  END
> <BCLConfClusterSize>
1

> <ConfClashScore>
0 

> <ConfOneFourInteractionScore>
-0.933935 

> <ConfScore>
0.187177 

> <ConfScorePBest>
0.00663764 

> <ConfTolerance>
0.310006 

> <RosettaParamsInstructions>
M  ROOT 3
M  POLY_N_BB 3
M  POLY_CA_BB 4
M  POLY_C_BB 2
M  POLY_O_BB 5
M  POLY_IGNORE 9 10 11 12 13 14 15 16 17 18 
M  POLY_UPPER 6
M  POLY_LOWER 8
M  POLY_CHG 0
M  POLY_PROPERTIES ALPHA_AA D_AA PROTEIN AROMATIC POLYMER 
M  END

$$$$



 32 32  0  0  0  0  0  0  0  0999 V2000
    0.3261    1.5990   -0.7935 H   0  0  0  1  0  0  0  0  0  0  0  0
   -0.6497    0.6205   -2.3908 C   0  0  0  1  0  0  0  0  0  0  0  0
   -1.3376    0.6267   -0.0205 N   0  0  0  1  0  0  0  0  0  0  0  0
   -0.6821    1.3916   -1.0856 C   0  0  0  1  0  0  0  0  0  0  0  0
   -0.8313   -0.5960   -2.4184 O   0  0  0  1  0  0  0  0  0  0  0  0
   -0.4127    1.3493   -3.4930 N   0  0  0  1  0  0  0  0  0  0  0  0
   -1.9800    1.1005    0.5481 H   0  0  0  1  0  0  0  0  0  0  0  0
   -1.1171   -0.7167    0.2431 C   0  0  0  1  0  0  0  0  0  0  0  0
   -0.2715    0.6490   -4.7608 C   0  0  0  1  0  0  0  0  0  0  0  0
   -2.0322   -1.4350    1.2018 C   0  0  0  1  0  0  0  0  0  0  0  0
   -0.1873   -1.2738   -0.3114 O   0  0  0  1  0  0  0  0  0  0  0  0
   -0.3370    2.3252   -3.4452 H   0  0  0  1  0  0  0  0  0  0  0  0
   -0.4491   -0.3958   -4.6135 H   0  0  0  1  0  0  0  0  0  0  0  0
    0.7193    0.7923   -5.1387 H   0  0  0  1  0  0  0  0  0  0  0  0
   -0.9807    1.0356   -5.4625 H   0  0  0  1  0  0  0  0  0  0  0  0
   -1.8560   -2.4887    1.1422 H   0  0  0  1  0  0  0  0  0  0  0  0
   -3.0503   -1.2288    0.9450 H   0  0  0  1  0  0  0  0  0  0  0  0
   -1.8399   -1.0973    2.1988 H   0  0  0  1  0  0  0  0  0  0  0  0
   -6.5450    2.1585   -3.4937 F   0  0  0  1  0  0  0  0  0  0  0  0
   -5.3149    2.2962   -2.9627 C   0  0  0  1  0  0  0  0  0  0  0  0
   -4.2965    2.8647   -3.7117 C   0  0  0  1  0  0  0  0  0  0  0  0
   -3.0329    3.0011   -3.1686 C   0  0  0  1  0  0  0  0  0  0  0  0
   -2.7853    2.5743   -1.8732 C   0  0  0  1  0  0  0  0  0  0  0  0
   -3.8009    2.0075   -1.1265 C   0  0  0  1  0  0  0  0  0  0  0  0
   -5.0683    1.8706   -1.6711 C   0  0  0  1  0  0  0  0  0  0  0  0
   -1.4060    2.7284   -1.2772 C   0  0  0  1  0  0  0  0  0  0  0  0
   -4.4831    3.1886   -4.6822 H   0  0  0  1  0  0  0  0  0  0  0  0
   -2.2677    3.4239   -3.7319 H   0  0  0  1  0  0  0  0  0  0  0  0
   -3.6142    1.6836   -0.1560 H   0  0  0  1  0  0  0  0  0  0  0  0
   -5.8335    1.4478   -1.1078 H   0  0  0  1  0  0  0  0  0  0  0  0
   -0.8201    3.3426   -1.9286 H   0  0  0  1  0  0  0  0  0  0  0  0
   -1.4983    3.2054   -0.3238 H   0  0  0  1  0  0  0  0  0  0  0  0
  1  4  1  0  0  0  0
  2  4  1  0  0  0  0
  2  5  2  0  0  0  0
  2  6  1  0  0  0  0
  3  4  1  0  0  0  0
  3  7  1  0  0  0  0
  3  8  1  0  0  0  0
  4 26  1  0  0  0  0
  6  9  1  0  0  0  0
  6 12  1  0  0  0  0
  8 10  1  0  0  0  0
  8 11  2  0  0  0  0
  9 13  1  0  0  0  0
  9 14  1  0  0  0  0
  9 15  1  0  0  0  0
 10 16  1  0  0  0  0
 10 17  1  0  0  0  0
 10 18  1  0  0  0  0
 19 20  1  0  0  0  0
 20 21  4  0  0  0  0
 20 25  4  0  0  0  0
 21 22  4  0  0  0  0
 21 27  1  0  0  0  0
 22 23  4  0  0  0  0
 22 28  1  0  0  0  0
 23 24  4  0  0  0  0
 23 26  1  0  0  0  0
 24 25  4  0  0  0  0
 24 29  1  0  0  0  0
 25 30  1  0  0  0  0
 26 31  1  0  0  0  0
 26 32  1  0  0  0  0
M  END
> <BCLConfClusterSize>
1

> <ConfClashScore>
0 

> <ConfOneFourInteractionScore>
-0.955611 

> <ConfScore>
0.187724 

> <ConfScorePBest>
0.00660916 

> <ConfTolerance>
0.315006 

> <RosettaParamsInstructions>
M  ROOT 3
M  POLY_N_BB 3
M  POLY_CA_BB 4
M  POLY_C_BB 2
M  POLY_O_BB 5
M  POLY_IGNORE 9 10 11 12 13 14 15 16 17 18 
M  POLY_UPPER 6
M  POLY_LOWER 8
M  POLY_CHG 0
M  POLY_PROPERTIES ALPHA_AA D_AA PROTEIN AROMATIC POLYMER 
M  END

$$$$



 32 32  0  0  0  0  0  0  0  0999 V2000
   -2.0644    4.1207    0.1659 H   0  0  0  1  0  0  0  0  0  0  0  0
   -1.2274    5.2446   -1.4064 C   0  0  0  1  0  0  0  0  0  0  0  0
   -0.0071    3.9304    0.2960 N   0  0  0  1  0  0  0  0  0  0  0  0
   -1.2333    4.0279   -0.5015 C   0  0  0  1  0  0  0  0  0  0  0  0
   -1.0516    5.1286   -2.6185 O   0  0  0  1  0  0  0  0  0  0  0  0
   -1.4194    6.4491   -0.8456 N   0  0  0  1  0  0  0  0  0  0  0  0
    0.5690    3.1516    0.1478 H   0  0  0  1  0  0  0  0  0  0  0  0
    0.3881    4.8320    1.2186 C   0  0  0  1  0  0  0  0  0  0  0  0
   -1.4971    7.6700   -1.6337 C   0  0  0  1  0  0  0  0  0  0  0  0
    1.7811    4.6924    1.8009 C   0  0  0  1  0  0  0  0  0  0  0  0
   -0.3580    5.7417    1.5785 O   0  0  0  1  0  0  0  0  0  0  0  0
   -1.5104    6.5082    0.1284 H   0  0  0  1  0  0  0  0  0  0  0  0
   -1.8887    7.4447   -2.6036 H   0  0  0  1  0  0  0  0  0  0  0  0
   -0.5192    8.0927   -1.7335 H   0  0  0  1  0  0  0  0  0  0  0  0
   -2.1406    8.3703   -1.1434 H   0  0  0  1  0  0  0  0  0  0  0  0
    1.7503    4.0394    2.6480 H   0  0  0  1  0  0  0  0  0  0  0  0
    2.1383    5.6541    2.1050 H   0  0  0  1  0  0  0  0  0  0  0  0
    2.4377    4.2852    1.0607 H   0  0  0  1  0  0  0  0  0  0  0  0
   -6.5556    2.1442   -3.4638 F   0  0  0  1  0  0  0  0  0  0  0  0
   -5.3127    2.2992   -2.9689 C   0  0  0  1  0  0  0  0  0  0  0  0
   -4.2921    2.8673   -3.7153 C   0  0  0  1  0  0  0  0  0  0  0  0
   -3.0296    3.0022   -3.1693 C   0  0  0  1  0  0  0  0  0  0  0  0
   -2.7852    2.5745   -1.8736 C   0  0  0  1  0  0  0  0  0  0  0  0
   -3.8029    2.0080   -1.1295 C   0  0  0  1  0  0  0  0  0  0  0  0
   -5.0693    1.8726   -1.6769 C   0  0  0  1  0  0  0  0  0  0  0  0
   -1.4071    2.7271   -1.2744 C   0  0  0  1  0  0  0  0  0  0  0  0
   -4.4763    3.1919   -4.6860 H   0  0  0  1  0  0  0  0  0  0  0  0
   -2.2628    3.4248   -3.7307 H   0  0  0  1  0  0  0  0  0  0  0  0
   -3.6187    1.6834   -0.1588 H   0  0  0  1  0  0  0  0  0  0  0  0
   -5.8360    1.4501   -1.1156 H   0  0  0  1  0  0  0  0  0  0  0  0
   -1.2333    1.9087   -0.6073 H   0  0  0  1  0  0  0  0  0  0  0  0
   -0.6871    2.7021   -2.0655 H   0  0  0  1  0  0  0  0  0  0  0  0
  1  4  1  0  0  0  0
  2  4  1  0  0  0  0
  2  5  2  0  0  0  0
  2  6  1  0  0  0  0
  3  4  1  0  0  0  0
  3  7  1  0  0  0  0
  3  8  1  0  0  0  0
  4 26  1  0  0  0  0
  6  9  1  0  0  0  0
  6 12  1  0  0  0  0
  8 10  1  0  0  0  0
  8 11  2  0  0  0  0
  9 13  1  0  0  0  0
  9 14  1  0  0  0  0
  9 15  1  0  0  0  0
 10 16  1  0  0  0  0
 10 17  1  0  0  0  0
 10 18  1  0  0  0  0
 19 20  1  0  0  0  0
 20 21  4  0  0  0  0
 20 25  4  0  0  0  0
 21 22  4  0  0  0  0
 21 27  1  0  0  0  0
 22 23  4  0  0  0  0
 22 28  1  0  0  0  0
 23 24  4  0  0  0  0
 23 26  1  0  0  0  0
 24 25  4  0  0  0  0
 24 29  1  0  0  0  0
 25 30  1  0  0  0  0
 26 31  1  0  0  0  0
 26 32  1  0  0  0  0
M  END
> <BCLConfClusterSize>
1

> <ConfClashScore>
0 

> <ConfOneFourInteractionScore>
-0.979134 

> <ConfScore>
0.19038 

> <ConfScorePBest>
0.00658068 

> <ConfTolerance>
0.343515 

> <RosettaParamsInstructions>
M  ROOT 3
M  POLY_N_BB 3
M  POLY_CA_BB 4
M  POLY_C_BB 2
M  POLY_O_BB 5
M  POLY_IGNORE 9 10 11 12 13 14 15 16 17 18 
M  POLY_UPPER 6
M  POLY_LOWER 8
M  POLY_CHG 0
M  POLY_PROPERTIES ALPHA_AA D_AA PROTEIN AROMATIC POLYMER 
M  END

$$$$



 32 32  0  0  0  0  0  0  0  0999 V2000
   -1.1480    4.7994   -1.2381 H   0  0  0  1  0  0  0  0  0  0  0  0
    0.1896    4.0222    0.1653 C   0  0  0  1  0  0  0  0  0  0  0  0
   -2.2615    4.3149    0.4081 N   0  0  0  1  0  0  0  0  0  0  0  0
   -1.1691    4.0177   -0.5078 C   0  0  0  1  0  0  0  0  0  0  0  0
    1.0993    3.2931   -0.2277 O   0  0  0  1  0  0  0  0  0  0  0  0
    0.3234    4.8604    1.1971 N   0  0  0  1  0  0  0  0  0  0  0  0
   -2.9353    4.9749    0.1422 H   0  0  0  1  0  0  0  0  0  0  0  0
   -2.3772    3.7189    1.5982 C   0  0  0  1  0  0  0  0  0  0  0  0
    1.5615    4.8868    1.9614 C   0  0  0  1  0  0  0  0  0  0  0  0
   -3.5039    4.2011    2.5123 C   0  0  0  1  0  0  0  0  0  0  0  0
   -1.5728    2.8769    1.9953 O   0  0  0  1  0  0  0  0  0  0  0  0
   -0.4139    5.4587    1.4398 H   0  0  0  1  0  0  0  0  0  0  0  0
    2.0876    3.9657    1.8210 H   0  0  0  1  0  0  0  0  0  0  0  0
    1.3368    5.0142    2.9997 H   0  0  0  1  0  0  0  0  0  0  0  0
    2.1705    5.6999    1.6254 H   0  0  0  1  0  0  0  0  0  0  0  0
   -4.4464    4.0456    2.0300 H   0  0  0  1  0  0  0  0  0  0  0  0
   -3.3758    5.2436    2.7165 H   0  0  0  1  0  0  0  0  0  0  0  0
   -3.4782    3.6516    3.4301 H   0  0  0  1  0  0  0  0  0  0  0  0
   -6.5450    2.1585   -3.4937 F   0  0  0  1  0  0  0  0  0  0  0  0
   -5.3149    2.2962   -2.9627 C   0  0  0  1  0  0  0  0  0  0  0  0
   -4.2965    2.8647   -3.7117 C   0  0  0  1  0  0  0  0  0  0  0  0
   -3.0329    3.0011   -3.1686 C   0  0  0  1  0  0  0  0  0  0  0  0
   -2.7853    2.5743   -1.8732 C   0  0  0  1  0  0  0  0  0  0  0  0
   -3.8009    2.0075   -1.1265 C   0  0  0  1  0  0  0  0  0  0  0  0
   -5.0683    1.8706   -1.6711 C   0  0  0  1  0  0  0  0  0  0  0  0
   -1.4060    2.7284   -1.2772 C   0  0  0  1  0  0  0  0  0  0  0  0
   -4.4831    3.1886   -4.6822 H   0  0  0  1  0  0  0  0  0  0  0  0
   -2.2677    3.4239   -3.7319 H   0  0  0  1  0  0  0  0  0  0  0  0
   -3.6142    1.6836   -0.1560 H   0  0  0  1  0  0  0  0  0  0  0  0
   -5.8335    1.4478   -1.1078 H   0  0  0  1  0  0  0  0  0  0  0  0
   -1.2423    1.9098   -0.6078 H   0  0  0  1  0  0  0  0  0  0  0  0
   -0.6947    2.6849   -2.0754 H   0  0  0  1  0  0  0  0  0  0  0  0
  1  4  1  0  0  0  0
  2  4  1  0  0  0  0
  2  5  2  0  0  0  0
  2  6  1  0  0  0  0
  3  4  1  0  0  0  0
  3  7  1  0  0  0  0
  3  8  1  0  0  0  0
  4 26  1  0  0  0  0
  6  9  1  0  0  0  0
  6 12  1  0  0  0  0
  8 10  1  0  0  0  0
  8 11  2  0  0  0  0
  9 13  1  0  0  0  0
  9 14  1  0  0  0  0
  9 15  1  0  0  0  0
 10 16  1  0  0  0  0
 10 17  1  0  0  0  0
 10 18  1  0  0  0  0
 19 20  1  0  0  0  0
 20 21  4  0  0  0  0
 20 25  4  0  0  0  0
 21 22  4  0  0  0  0
 21 27  1  0  0  0  0
 22 23  4  0  0  0  0
 22 28  1  0  0  0  0
 23 24  4  0  0  0  0
 23 26  1  0  0  0  0
 24 25  4  0  0  0  0
 24 29  1  0  0  0  0
 25 30  1  0  0  0  0
 26 31  1  0  0  0  0
 26 32  1  0  0  0  0
M  END
> <BCLConfClusterSize>
1

> <ConfClashScore>
0 

> <ConfOneFourInteractionScore>
-0.938696 

> <ConfScore>
0.190381 

> <ConfScorePBest>
0.0065522 

> <ConfTolerance>
0.180892 

> <RosettaParamsInstructions>
M  ROOT 3
M  POLY_N_BB 3
M  POLY_CA_BB 4
M  POLY_C_BB 2
M  POLY_O_BB 5
M  POLY_IGNORE 9 10 11 12 13 14 15 16 17 18 
M  POLY_UPPER 6
M  POLY_LOWER 8
M  POLY_CHG 0
M  POLY_PROPERTIES ALPHA_AA D_AA PROTEIN AROMATIC POLYMER 
M  END

$$$$



 32 32  0  0  0  0  0  0  0  0999 V2000
    0.3369    1.6618   -0.7065 H   0  0  0  1  0  0  0  0  0  0  0  0
   -0.1931    1.0133   -2.6646 C   0  0  0  1  0  0  0  0  0  0  0  0
   -1.3099    0.3824   -0.5948 N   0  0  0  1  0  0  0  0  0  0  0  0
   -0.5622    1.4644   -1.2519 C   0  0  0  1  0  0  0  0  0  0  0  0
    0.8607    1.3660   -3.1925 O   0  0  0  1  0  0  0  0  0  0  0  0
   -1.0823    0.2227   -3.2723 N   0  0  0  1  0  0  0  0  0  0  0  0
   -2.0134    0.6372    0.0382 H   0  0  0  1  0  0  0  0  0  0  0  0
   -1.1017   -0.9277   -0.7964 C   0  0  0  1  0  0  0  0  0  0  0  0
   -0.8335   -0.3656   -4.5800 C   0  0  0  1  0  0  0  0  0  0  0  0
   -2.0933   -1.8204   -0.0760 C   0  0  0  1  0  0  0  0  0  0  0  0
   -0.2016   -1.3945   -1.4933 O   0  0  0  1  0  0  0  0  0  0  0  0
   -1.9315    0.0324   -2.8219 H   0  0  0  1  0  0  0  0  0  0  0  0
    0.2213   -0.4358   -4.7452 H   0  0  0  1  0  0  0  0  0  0  0  0
   -1.2727    0.2499   -5.3371 H   0  0  0  1  0  0  0  0  0  0  0  0
   -1.2662   -1.3434   -4.6190 H   0  0  0  1  0  0  0  0  0  0  0  0
   -3.0359   -1.3196   -0.0012 H   0  0  0  1  0  0  0  0  0  0  0  0
   -1.7276   -2.0400    0.9053 H   0  0  0  1  0  0  0  0  0  0  0  0
   -2.2161   -2.7313   -0.6236 H   0  0  0  1  0  0  0  0  0  0  0  0
   -6.5450    2.1585   -3.4937 F   0  0  0  1  0  0  0  0  0  0  0  0
   -5.3149    2.2962   -2.9627 C   0  0  0  1  0  0  0  0  0  0  0  0
   -4.2965    2.8647   -3.7117 C   0  0  0  1  0  0  0  0  0  0  0  0
   -3.0329    3.0011   -3.1686 C   0  0  0  1  0  0  0  0  0  0  0  0
   -2.7853    2.5743   -1.8732 C   0  0  0  1  0  0  0  0  0  0  0  0
   -3.8009    2.0075   -1.1265 C   0  0  0  1  0  0  0  0  0  0  0  0
   -5.0683    1.8706   -1.6711 C   0  0  0  1  0  0  0  0  0  0  0  0
   -1.4060    2.7284   -1.2772 C   0  0  0  1  0  0  0  0  0  0  0  0
   -4.4831    3.1886   -4.6822 H   0  0  0  1  0  0  0  0  0  0  0  0
   -2.2677    3.4239   -3.7319 H   0  0  0  1  0  0  0  0  0  0  0  0
   -3.6142    1.6836   -0.1560 H   0  0  0  1  0  0  0  0  0  0  0  0
   -5.8335    1.4478   -1.1078 H   0  0  0  1  0  0  0  0  0  0  0  0
   -0.8801    3.4649   -1.8480 H   0  0  0  1  0  0  0  0  0  0  0  0
   -1.5182    3.0706   -0.2696 H   0  0  0  1  0  0  0  0  0  0  0  0
  1  4  1  0  0  0  0
  2  4  1  0  0  0  0
  2  5  2  0  0  0  0
  2  6  1  0  0  0  0
  3  4  1  0  0  0  0
  3  7  1  0  0  0  0
  3  8  1  0  0  0  0
  4 26  1  0  0  0  0
  6  9  1  0  0  0  0
  6 12  1  0  0  0  0
  8 10  1  0  0  0  0
  8 11  2  0  0  0  0
  9 13  1  0  0  0  0
  9 14  1  0  0  0  0
  9 15  1  0  0  0  0
 10 16  1  0  0  0  0
 10 17  1  0  0  0  0
 10 18  1  0  0  0  0
 19 20  1  0  0  0  0
 20 21  4  0  0  0  0
 20 25  4  0  0  0  0
 21 22  4  0  0  0  0
 21 27  1  0  0  0  0
 22 23  4  0  0  0  0
 22 28  1  0  0  0  0
 23 24  4  0  0  0  0
 23 26  1  0  0  0  0
 24 25  4  0  0  0  0
 24 29  1  0  0  0  0
 25 30  1  0  0  0  0
 26 31  1  0  0  0  0
 26 32  1  0  0  0  0
M  END
> <BCLConfClusterSize>
1

> <ConfClashScore>
0 

> <ConfOneFourInteractionScore>
-0.924888 

> <ConfScore>
0.194215 

> <ConfScorePBest>
0.00652372 

> <ConfTolerance>
0.248249 

> <RosettaParamsInstructions>
M  ROOT 3
M  POLY_N_BB 3
M  POLY_CA_BB 4
M  POLY_C_BB 2
M  POLY_O_BB 5
M  POLY_IGNORE 9 10 11 12 13 14 15 16 17 18 
M  POLY_UPPER 6
M  POLY_LOWER 8
M  POLY_CHG 0
M  POLY_PROPERTIES ALPHA_AA D_AA PROTEIN AROMATIC POLYMER 
M  END

$$$$



 32 32  0  0  0  0  0  0  0  0999 V2000
   -1.1407    4.8227   -1.7629 H   0  0  0  1  0  0  0  0  0  0  0  0
    0.1678    4.3709   -0.1747 C   0  0  0  1  0  0  0  0  0  0  0  0
   -2.2879    4.6423   -0.0605 N   0  0  0  1  0  0  0  0  0  0  0  0
   -1.1680    4.2077   -0.8878 C   0  0  0  1  0  0  0  0  0  0  0  0
    1.1734    4.4258   -0.8590 O   0  0  0  1  0  0  0  0  0  0  0  0
    0.1229    4.4410    1.1587 N   0  0  0  1  0  0  0  0  0  0  0  0
   -3.0452    4.0338    0.0679 H   0  0  0  1  0  0  0  0  0  0  0  0
   -2.3170    5.8413    0.5284 C   0  0  0  1  0  0  0  0  0  0  0  0
    1.3224    4.5823    1.9706 C   0  0  0  1  0  0  0  0  0  0  0  0
   -3.5802    6.1698    1.2826 C   0  0  0  1  0  0  0  0  0  0  0  0
   -1.3841    6.6379    0.4698 O   0  0  0  1  0  0  0  0  0  0  0  0
   -0.7481    4.3956    1.6057 H   0  0  0  1  0  0  0  0  0  0  0  0
    1.8774    3.6677    1.9501 H   0  0  0  1  0  0  0  0  0  0  0  0
    1.0455    4.8086    2.9791 H   0  0  0  1  0  0  0  0  0  0  0  0
    1.9261    5.3745    1.5796 H   0  0  0  1  0  0  0  0  0  0  0  0
   -4.4299    5.9258    0.6798 H   0  0  0  1  0  0  0  0  0  0  0  0
   -3.5957    7.2144    1.5141 H   0  0  0  1  0  0  0  0  0  0  0  0
   -3.6118    5.6026    2.1893 H   0  0  0  1  0  0  0  0  0  0  0  0
   -6.5420    2.1620   -3.5007 F   0  0  0  1  0  0  0  0  0  0  0  0
   -5.3148    2.2960   -2.9622 C   0  0  0  1  0  0  0  0  0  0  0  0
   -4.2906    2.8635   -3.7042 C   0  0  0  1  0  0  0  0  0  0  0  0
   -3.0300    2.9961   -3.1535 C   0  0  0  1  0  0  0  0  0  0  0  0
   -2.7910    2.5667   -1.8574 C   0  0  0  1  0  0  0  0  0  0  0  0
   -3.8122    2.0009   -1.1176 C   0  0  0  1  0  0  0  0  0  0  0  0
   -5.0767    1.8678   -1.6698 C   0  0  0  1  0  0  0  0  0  0  0  0
   -1.3812    2.7640   -1.3523 C   0  0  0  1  0  0  0  0  0  0  0  0
   -4.4709    3.1893   -4.6753 H   0  0  0  1  0  0  0  0  0  0  0  0
   -2.2606    3.4181   -3.7116 H   0  0  0  1  0  0  0  0  0  0  0  0
   -3.6320    1.6750   -0.1465 H   0  0  0  1  0  0  0  0  0  0  0  0
   -5.8462    1.4458   -1.1117 H   0  0  0  1  0  0  0  0  0  0  0  0
   -1.2072    2.1016   -0.5302 H   0  0  0  1  0  0  0  0  0  0  0  0
   -0.6921    2.5437   -2.1406 H   0  0  0  1  0  0  0  0  0  0  0  0
  1  4  1  0  0  0  0
  2  4  1  0  0  0  0
  2  5  2  0  0  0  0
  2  6  1  0  0  0  0
  3  4  1  0  0  0  0
  3  7  1  0  0  0  0
  3  8  1  0  0  0  0
  4 26  1  0  0  0  0
  6  9  1  0  0  0  0
  6 12  1  0  0  0  0
  8 10  1  0  0  0  0
  8 11  2  0  0  0  0
  9 13  1  0  0  0  0
  9 14  1  0  0  0  0
  9 15  1  0  0  0  0
 10 16  1  0  0  0  0
 10 17  1  0  0  0  0
 10 18  1  0  0  0  0
 19 20  1  0  0  0  0
 20 21  4  0  0  0  0
 20 25  4  0  0  0  0
 21 22  4  0  0  0  0
 21 27  1  0  0  0  0
 22 23  4  0  0  0  0
 22 28  1  0  0  0  0
 23 24  4  0  0  0  0
 23 26  1  0  0  0  0
 24 25  4  0  0  0  0
 24 29  1  0  0  0  0
 25 30  1  0  0  0  0
 26 31  1  0  0  0  0
 26 32  1  0  0  0  0
M  END
> <BCLConfClusterSize>
1

> <ConfClashScore>
0 

> <ConfOneFourInteractionScore>
-0.928132 

> <ConfScore>
0.195447 

> <ConfScorePBest>
0.00649524 

> <ConfTolerance>
0.199406 

> <RosettaParamsInstructions>
M  ROOT 3
M  POLY_N_BB 3
M  POLY_CA_BB 4
M  POLY_C_BB 2
M  POLY_O_BB 5
M  POLY_IGNORE 9 10 11 12 13 14 15 16 17 18 
M  POLY_UPPER 6
M  POLY_LOWER 8
M  POLY_CHG 0
M  POLY_PROPERTIES ALPHA_AA D_AA PROTEIN AROMATIC POLYMER 
M  END

$$$$



 32 32  0  0  0  0  0  0  0  0999 V2000
   -0.2195    1.7016   -2.6836 H   0  0  0  1  0  0  0  0  0  0  0  0
   -0.9699    0.2426   -1.3522 C   0  0  0  1  0  0  0  0  0  0  0  0
    0.8090    1.9312   -0.9073 N   0  0  0  1  0  0  0  0  0  0  0  0
   -0.4158    1.6319   -1.6341 C   0  0  0  1  0  0  0  0  0  0  0  0
   -2.1255   -0.0564   -1.6501 O   0  0  0  1  0  0  0  0  0  0  0  0
   -0.1248   -0.6119   -0.7685 N   0  0  0  1  0  0  0  0  0  0  0  0
    0.7590    2.5971   -0.1900 H   0  0  0  1  0  0  0  0  0  0  0  0
    1.9945    1.3673   -1.1438 C   0  0  0  1  0  0  0  0  0  0  0  0
   -0.5550   -1.9061   -0.2608 C   0  0  0  1  0  0  0  0  0  0  0  0
    3.1603    1.9286   -0.3532 C   0  0  0  1  0  0  0  0  0  0  0  0
    2.1513    0.4497   -1.9482 O   0  0  0  1  0  0  0  0  0  0  0  0
    0.8176   -0.3583   -0.6791 H   0  0  0  1  0  0  0  0  0  0  0  0
   -0.9406   -2.4955   -1.0663 H   0  0  0  1  0  0  0  0  0  0  0  0
   -1.3190   -1.7643    0.4747 H   0  0  0  1  0  0  0  0  0  0  0  0
    0.2784   -2.4100    0.1824 H   0  0  0  1  0  0  0  0  0  0  0  0
    2.8071    2.6857    0.3153 H   0  0  0  1  0  0  0  0  0  0  0  0
    3.8759    2.3529   -1.0261 H   0  0  0  1  0  0  0  0  0  0  0  0
    3.6207    1.1432    0.2091 H   0  0  0  1  0  0  0  0  0  0  0  0
   -6.5450    2.1585   -3.4937 F   0  0  0  1  0  0  0  0  0  0  0  0
   -5.3149    2.2962   -2.9627 C   0  0  0  1  0  0  0  0  0  0  0  0
   -4.2965    2.8647   -3.7117 C   0  0  0  1  0  0  0  0  0  0  0  0
   -3.0329    3.0011   -3.1686 C   0  0  0  1  0  0  0  0  0  0  0  0
   -2.7853    2.5743   -1.8732 C   0  0  0  1  0  0  0  0  0  0  0  0
   -3.8009    2.0075   -1.1265 C   0  0  0  1  0  0  0  0  0  0  0  0
   -5.0683    1.8706   -1.6711 C   0  0  0  1  0  0  0  0  0  0  0  0
   -1.4060    2.7284   -1.2772 C   0  0  0  1  0  0  0  0  0  0  0  0
   -4.4831    3.1886   -4.6822 H   0  0  0  1  0  0  0  0  0  0  0  0
   -2.2677    3.4239   -3.7319 H   0  0  0  1  0  0  0  0  0  0  0  0
   -3.6142    1.6836   -0.1560 H   0  0  0  1  0  0  0  0  0  0  0  0
   -5.8335    1.4478   -1.1078 H   0  0  0  1  0  0  0  0  0  0  0  0
   -1.0027    3.6601   -1.6150 H   0  0  0  1  0  0  0  0  0  0  0  0
   -1.5070    2.7481   -0.2121 H   0  0  0  1  0  0  0  0  0  0  0  0
  1  4  1  0  0  0  0
  2  4  1  0  0  0  0
  2  5  2  0  0  0  0
  2  6  1  0  0  0  0
  3  4  1  0  0  0  0
  3  7  1  0  0  0  0
  3  8  1  0  0  0  0
  4 26  1  0  0  0  0
  6  9  1  0  0  0  0
  6 12  1  0  0  0  0
  8 10  1  0  0  0  0
  8 11  2  0  0  0  0
  9 13  1  0  0  0  0
  9 14  1  0  0  0  0
  9 15  1  0  0  0  0
 10 16  1  0  0  0  0
 10 17  1  0  0  0  0
 10 18  1  0  0  0  0
 19 20  1  0  0  0  0
 20 21  4  0  0  0  0
 20 25  4  0  0  0  0
 21 22  4  0  0  0  0
 21 27  1  0  0  0  0
 22 23  4  0  0  0  0
 22 28  1  0  0  0  0
 23 24  4  0  0  0  0
 23 26  1  0  0  0  0
 24 25  4  0  0  0  0
 24 29  1  0  0  0  0
 25 30  1  0  0  0  0
 26 31  1  0  0  0  0
 26 32  1  0  0  0  0
M  END
> <BCLConfClusterSize>
1

> <ConfClashScore>
0.00406972 

> <ConfOneFourInteractionScore>
-0.956443 

> <ConfScore>
0.196314 

> <ConfScorePBest>
0.00646676 

> <ConfTolerance>
0.202753 

> <RosettaParamsInstructions>
M  ROOT 3
M  POLY_N_BB 3
M  POLY_CA_BB 4
M  POLY_C_BB 2
M  POLY_O_BB 5
M  POLY_IGNORE 9 10 11 12 13 14 15 16 17 18 
M  POLY_UPPER 6
M  POLY_LOWER 8
M  POLY_CHG 0
M  POLY_PROPERTIES ALPHA_AA D_AA PROTEIN AROMATIC POLYMER 
M  END

$$$$



 32 32  0  0  0  0  0  0  0  0999 V2000
   -0.1844    4.1580   -0.3133 H   0  0  0  1  0  0  0  0  0  0  0  0
   -1.9317    3.9784    0.8543 C   0  0  0  1  0  0  0  0  0  0  0  0
   -1.6839    5.1638   -1.3029 N   0  0  0  1  0  0  0  0  0  0  0  0
   -1.2309    4.0366   -0.5002 C   0  0  0  1  0  0  0  0  0  0  0  0
   -2.0451    5.0258    1.4896 O   0  0  0  1  0  0  0  0  0  0  0  0
   -2.3851    2.7958    1.2797 N   0  0  0  1  0  0  0  0  0  0  0  0
   -1.1628    5.3897   -2.1016 H   0  0  0  1  0  0  0  0  0  0  0  0
   -2.7609    5.9165   -1.0315 C   0  0  0  1  0  0  0  0  0  0  0  0
   -3.1432    2.6521    2.5136 C   0  0  0  1  0  0  0  0  0  0  0  0
   -2.9686    7.1775   -1.8393 C   0  0  0  1  0  0  0  0  0  0  0  0
   -3.5512    5.5949   -0.1588 O   0  0  0  1  0  0  0  0  0  0  0  0
   -2.2008    1.9974    0.7422 H   0  0  0  1  0  0  0  0  0  0  0  0
   -3.9614    1.9813    2.3541 H   0  0  0  1  0  0  0  0  0  0  0  0
   -3.5191    3.6077    2.8143 H   0  0  0  1  0  0  0  0  0  0  0  0
   -2.5064    2.2616    3.2797 H   0  0  0  1  0  0  0  0  0  0  0  0
   -2.0334    7.4973   -2.2492 H   0  0  0  1  0  0  0  0  0  0  0  0
   -3.3616    7.9456   -1.2064 H   0  0  0  1  0  0  0  0  0  0  0  0
   -3.6579    6.9822   -2.6341 H   0  0  0  1  0  0  0  0  0  0  0  0
   -6.5450    2.1585   -3.4937 F   0  0  0  1  0  0  0  0  0  0  0  0
   -5.3149    2.2962   -2.9627 C   0  0  0  1  0  0  0  0  0  0  0  0
   -4.2965    2.8647   -3.7117 C   0  0  0  1  0  0  0  0  0  0  0  0
   -3.0329    3.0011   -3.1686 C   0  0  0  1  0  0  0  0  0  0  0  0
   -2.7853    2.5743   -1.8732 C   0  0  0  1  0  0  0  0  0  0  0  0
   -3.8009    2.0075   -1.1265 C   0  0  0  1  0  0  0  0  0  0  0  0
   -5.0683    1.8706   -1.6711 C   0  0  0  1  0  0  0  0  0  0  0  0
   -1.4060    2.7284   -1.2772 C   0  0  0  1  0  0  0  0  0  0  0  0
   -4.4831    3.1886   -4.6822 H   0  0  0  1  0  0  0  0  0  0  0  0
   -2.2677    3.4239   -3.7319 H   0  0  0  1  0  0  0  0  0  0  0  0
   -3.6142    1.6836   -0.1560 H   0  0  0  1  0  0  0  0  0  0  0  0
   -5.8335    1.4478   -1.1078 H   0  0  0  1  0  0  0  0  0  0  0  0
   -1.2297    1.9102   -0.6106 H   0  0  0  1  0  0  0  0  0  0  0  0
   -0.6878    2.7044   -2.0699 H   0  0  0  1  0  0  0  0  0  0  0  0
  1  4  1  0  0  0  0
  2  4  1  0  0  0  0
  2  5  2  0  0  0  0
  2  6  1  0  0  0  0
  3  4  1  0  0  0  0
  3  7  1  0  0  0  0
  3  8  1  0  0  0  0
  4 26  1  0  0  0  0
  6  9  1  0  0  0  0
  6 12  1  0  0  0  0
  8 10  1  0  0  0  0
  8 11  2  0  0  0  0
  9 13  1  0  0  0  0
  9 14  1  0  0  0  0
  9 15  1  0  0  0  0
 10 16  1  0  0  0  0
 10 17  1  0  0  0  0
 10 18  1  0  0  0  0
 19 20  1  0  0  0  0
 20 21  4  0  0  0  0
 20 25  4  0  0  0  0
 21 22  4  0  0  0  0
 21 27  1  0  0  0  0
 22 23  4  0  0  0  0
 22 28  1  0  0  0  0
 23 24  4  0  0  0  0
 23 26  1  0  0  0  0
 24 25  4  0  0  0  0
 24 29  1  0  0  0  0
 25 30  1  0  0  0  0
 26 31  1  0  0  0  0
 26 32  1  0  0  0  0
M  END
> <BCLConfClusterSize>
1

> <ConfClashScore>
0.00313046 

> <ConfOneFourInteractionScore>
-0.917907 

> <ConfScore>
0.200074 

> <ConfScorePBest>
0.00643828 

> <ConfTolerance>
0.229432 

> <RosettaParamsInstructions>
M  ROOT 3
M  POLY_N_BB 3
M  POLY_CA_BB 4
M  POLY_C_BB 2
M  POLY_O_BB 5
M  POLY_IGNORE 9 10 11 12 13 14 15 16 17 18 
M  POLY_UPPER 6
M  POLY_LOWER 8
M  POLY_CHG 0
M  POLY_PROPERTIES ALPHA_AA D_AA PROTEIN AROMATIC POLYMER 
M  END

$$$$



 32 32  0  0  0  0  0  0  0  0999 V2000
   -0.3742    3.6483    0.2961 H   0  0  0  1  0  0  0  0  0  0  0  0
   -2.2857    3.2596    1.0533 C   0  0  0  1  0  0  0  0  0  0  0  0
   -1.6251    5.0328   -0.5554 N   0  0  0  1  0  0  0  0  0  0  0  0
   -1.3738    3.6753   -0.0846 C   0  0  0  1  0  0  0  0  0  0  0  0
   -1.8915    2.5260    1.9448 O   0  0  0  1  0  0  0  0  0  0  0  0
   -3.5349    3.7489    1.0080 N   0  0  0  1  0  0  0  0  0  0  0  0
   -1.8585    5.1712   -1.4971 H   0  0  0  1  0  0  0  0  0  0  0  0
   -1.5452    6.1342    0.2831 C   0  0  0  1  0  0  0  0  0  0  0  0
   -4.5312    3.1668    1.8930 C   0  0  0  1  0  0  0  0  0  0  0  0
   -1.7528    7.5069   -0.2924 C   0  0  0  1  0  0  0  0  0  0  0  0
   -1.3080    5.9511    1.4658 O   0  0  0  1  0  0  0  0  0  0  0  0
   -3.7689    4.4776    0.3960 H   0  0  0  1  0  0  0  0  0  0  0  0
   -4.0685    2.8861    2.8161 H   0  0  0  1  0  0  0  0  0  0  0  0
   -4.9569    2.3012    1.4300 H   0  0  0  1  0  0  0  0  0  0  0  0
   -5.3011    3.8848    2.0841 H   0  0  0  1  0  0  0  0  0  0  0  0
   -1.3528    7.5427   -1.2842 H   0  0  0  1  0  0  0  0  0  0  0  0
   -1.2538    8.2291    0.3194 H   0  0  0  1  0  0  0  0  0  0  0  0
   -2.7996    7.7264   -0.3222 H   0  0  0  1  0  0  0  0  0  0  0  0
   -6.5450    2.1585   -3.4937 F   0  0  0  1  0  0  0  0  0  0  0  0
   -5.3149    2.2962   -2.9627 C   0  0  0  1  0  0  0  0  0  0  0  0
   -4.2965    2.8647   -3.7117 C   0  0  0  1  0  0  0  0  0  0  0  0
   -3.0329    3.0011   -3.1686 C   0  0  0  1  0  0  0  0  0  0  0  0
   -2.7853    2.5743   -1.8732 C   0  0  0  1  0  0  0  0  0  0  0  0
   -3.8009    2.0075   -1.1265 C   0  0  0  1  0  0  0  0  0  0  0  0
   -5.0683    1.8706   -1.6711 C   0  0  0  1  0  0  0  0  0  0  0  0
   -1.4060    2.7284   -1.2772 C   0  0  0  1  0  0  0  0  0  0  0  0
   -4.4831    3.1886   -4.6822 H   0  0  0  1  0  0  0  0  0  0  0  0
   -2.2677    3.4239   -3.7319 H   0  0  0  1  0  0  0  0  0  0  0  0
   -3.6142    1.6836   -0.1560 H   0  0  0  1  0  0  0  0  0  0  0  0
   -5.8335    1.4478   -1.1078 H   0  0  0  1  0  0  0  0  0  0  0  0
   -1.0637    1.7664   -0.9575 H   0  0  0  1  0  0  0  0  0  0  0  0
   -0.7494    3.1086   -2.0317 H   0  0  0  1  0  0  0  0  0  0  0  0
  1  4  1  0  0  0  0
  2  4  1  0  0  0  0
  2  5  2  0  0  0  0
  2  6  1  0  0  0  0
  3  4  1  0  0  0  0
  3  7  1  0  0  0  0
  3  8  1  0  0  0  0
  4 26  1  0  0  0  0
  6  9  1  0  0  0  0
  6 12  1  0  0  0  0
  8 10  1  0  0  0  0
  8 11  2  0  0  0  0
  9 13  1  0  0  0  0
  9 14  1  0  0  0  0
  9 15  1  0  0  0  0
 10 16  1  0  0  0  0
 10 17  1  0  0  0  0
 10 18  1  0  0  0  0
 19 20  1  0  0  0  0
 20 21  4  0  0  0  0
 20 25  4  0  0  0  0
 21 22  4  0  0  0  0
 21 27  1  0  0  0  0
 22 23  4  0  0  0  0
 22 28  1  0  0  0  0
 23 24  4  0  0  0  0
 23 26  1  0  0  0  0
 24 25  4  0  0  0  0
 24 29  1  0  0  0  0
 25 30  1  0  0  0  0
 26 31  1  0  0  0  0
 26 32  1  0  0  0  0
M  END
> <BCLConfClusterSize>
1

> <ConfClashScore>
0 

> <ConfOneFourInteractionScore>
-0.950605 

> <ConfScore>
0.200131 

> <ConfScorePBest>
0.0064098 

> <ConfTolerance>
0.386687 

> <RosettaParamsInstructions>
M  ROOT 3
M  POLY_N_BB 3
M  POLY_CA_BB 4
M  POLY_C_BB 2
M  POLY_O_BB 5
M  POLY_IGNORE 9 10 11 12 13 14 15 16 17 18 
M  POLY_UPPER 6
M  POLY_LOWER 8
M  POLY_CHG 0
M  POLY_PROPERTIES ALPHA_AA D_AA PROTEIN AROMATIC POLYMER 
M  END

$$$$



 32 32  0  0  0  0  0  0  0  0999 V2000
   -0.8043    0.6998   -0.9764 H   0  0  0  1  0  0  0  0  0  0  0  0
    0.9540    1.8897   -1.1983 C   0  0  0  1  0  0  0  0  0  0  0  0
   -0.4888    1.1840   -2.9771 N   0  0  0  1  0  0  0  0  0  0  0  0
   -0.4875    1.5354   -1.5649 C   0  0  0  1  0  0  0  0  0  0  0  0
    1.3817    1.6596   -0.0679 O   0  0  0  1  0  0  0  0  0  0  0  0
    1.6767    2.5313   -2.1208 N   0  0  0  1  0  0  0  0  0  0  0  0
   -1.1871    1.5773   -3.5412 H   0  0  0  1  0  0  0  0  0  0  0  0
    0.3889    0.3671   -3.5617 C   0  0  0  1  0  0  0  0  0  0  0  0
    3.0162    2.9994   -1.8033 C   0  0  0  1  0  0  0  0  0  0  0  0
    0.1934    0.0376   -5.0374 C   0  0  0  1  0  0  0  0  0  0  0  0
    1.3488   -0.1378   -2.9810 O   0  0  0  1  0  0  0  0  0  0  0  0
    1.3032    2.6866   -3.0135 H   0  0  0  1  0  0  0  0  0  0  0  0
    3.3128    3.7423   -2.5140 H   0  0  0  1  0  0  0  0  0  0  0  0
    3.6996    2.1769   -1.8412 H   0  0  0  1  0  0  0  0  0  0  0  0
    3.0220    3.4236   -0.8210 H   0  0  0  1  0  0  0  0  0  0  0  0
    0.1648    0.9441   -5.6051 H   0  0  0  1  0  0  0  0  0  0  0  0
   -0.7274   -0.4923   -5.1653 H   0  0  0  1  0  0  0  0  0  0  0  0
    1.0056   -0.5704   -5.3774 H   0  0  0  1  0  0  0  0  0  0  0  0
   -6.5453    2.1585   -3.4939 F   0  0  0  1  0  0  0  0  0  0  0  0
   -5.3152    2.2962   -2.9629 C   0  0  0  1  0  0  0  0  0  0  0  0
   -4.2967    2.8647   -3.7118 C   0  0  0  1  0  0  0  0  0  0  0  0
   -3.0332    3.0010   -3.1688 C   0  0  0  1  0  0  0  0  0  0  0  0
   -2.7856    2.5743   -1.8734 C   0  0  0  1  0  0  0  0  0  0  0  0
   -3.8012    2.0074   -1.1267 C   0  0  0  1  0  0  0  0  0  0  0  0
   -5.0686    1.8706   -1.6712 C   0  0  0  1  0  0  0  0  0  0  0  0
   -1.4027    2.7288   -1.2758 C   0  0  0  1  0  0  0  0  0  0  0  0
   -4.4834    3.1885   -4.6823 H   0  0  0  1  0  0  0  0  0  0  0  0
   -2.2680    3.4239   -3.7321 H   0  0  0  1  0  0  0  0  0  0  0  0
   -3.6145    1.6836   -0.1562 H   0  0  0  1  0  0  0  0  0  0  0  0
   -5.8338    1.4477   -1.1079 H   0  0  0  1  0  0  0  0  0  0  0  0
   -0.9523    3.6099   -1.6828 H   0  0  0  1  0  0  0  0  0  0  0  0
   -1.4998    2.8345   -0.2154 H   0  0  0  1  0  0  0  0  0  0  0  0
  1  4  1  0  0  0  0
  2  4  1  0  0  0  0
  2  5  2  0  0  0  0
  2  6  1  0  0  0  0
  3  4  1  0  0  0  0
  3  7  1  0  0  0  0
  3  8  1  0  0  0  0
  4 26  1  0  0  0  0
  6  9  1  0  0  0  0
  6 12  1  0  0  0  0
  8 10  1  0  0  0  0
  8 11  2  0  0  0  0
  9 13  1  0  0  0  0
  9 14  1  0  0  0  0
  9 15  1  0  0  0  0
 10 16  1  0  0  0  0
 10 17  1  0  0  0  0
 10 18  1  0  0  0  0
 19 20  1  0  0  0  0
 20 21  4  0  0  0  0
 20 25  4  0  0  0  0
 21 22  4  0  0  0  0
 21 27  1  0  0  0  0
 22 23  4  0  0  0  0
 22 28  1  0  0  0  0
 23 24  4  0  0  0  0
 23 26  1  0  0  0  0
 24 25  4  0  0  0  0
 24 29  1  0  0  0  0
 25 30  1  0  0  0  0
 26 31  1  0  0  0  0
 26 32  1  0  0  0  0
M  END
> <BCLConfClusterSize>
1

> <ConfClashScore>
0 

> <ConfOneFourInteractionScore>
-0.94165 

> <ConfScore>
0.204307 

> <ConfScorePBest>
0.00638132 

> <ConfTolerance>
0.263665 

> <RosettaParamsInstructions>
M  ROOT 3
M  POLY_N_BB 3
M  POLY_CA_BB 4
M  POLY_C_BB 2
M  POLY_O_BB 5
M  POLY_IGNORE 9 10 11 12 13 14 15 16 17 18 
M  POLY_UPPER 6
M  POLY_LOWER 8
M  POLY_CHG 0
M  POLY_PROPERTIES ALPHA_AA D_AA PROTEIN AROMATIC POLYMER 
M  END

$$$$



 32 32  0  0  0  0  0  0  0  0999 V2000
    0.2765    1.5795   -0.7104 H   0  0  0  1  0  0  0  0  0  0  0  0
   -0.2051    0.9802   -2.6666 C   0  0  0  1  0  0  0  0  0  0  0  0
   -1.3704    0.3305   -0.6290 N   0  0  0  1  0  0  0  0  0  0  0  0
   -0.6180    1.4158   -1.2742 C   0  0  0  1  0  0  0  0  0  0  0  0
   -0.8130    0.1000   -3.2737 O   0  0  0  1  0  0  0  0  0  0  0  0
    0.8614    1.6409   -3.1445 N   0  0  0  1  0  0  0  0  0  0  0  0
   -2.2932    0.4985   -0.3450 H   0  0  0  1  0  0  0  0  0  0  0  0
   -0.8349   -0.8891   -0.4141 C   0  0  0  1  0  0  0  0  0  0  0  0
    1.5581    1.4036   -4.3999 C   0  0  0  1  0  0  0  0  0  0  0  0
   -1.6938   -1.9335    0.2621 C   0  0  0  1  0  0  0  0  0  0  0  0
    0.3182   -1.1463   -0.7575 O   0  0  0  1  0  0  0  0  0  0  0  0
    1.2104    2.3653   -2.5843 H   0  0  0  1  0  0  0  0  0  0  0  0
    0.8970    0.9220   -5.0898 H   0  0  0  1  0  0  0  0  0  0  0  0
    2.4073    0.7770   -4.2234 H   0  0  0  1  0  0  0  0  0  0  0  0
    1.8823    2.3374   -4.8097 H   0  0  0  1  0  0  0  0  0  0  0  0
   -1.9860   -1.5834    1.2301 H   0  0  0  1  0  0  0  0  0  0  0  0
   -1.1367   -2.8413    0.3646 H   0  0  0  1  0  0  0  0  0  0  0  0
   -2.5666   -2.1149   -0.3297 H   0  0  0  1  0  0  0  0  0  0  0  0
   -6.5463    2.1567   -3.4899 F   0  0  0  1  0  0  0  0  0  0  0  0
   -5.3147    2.2963   -2.9629 C   0  0  0  1  0  0  0  0  0  0  0  0
   -4.2994    2.8654   -3.7156 C   0  0  0  1  0  0  0  0  0  0  0  0
   -3.0342    3.0038   -3.1767 C   0  0  0  1  0  0  0  0  0  0  0  0
   -2.7820    2.5785   -1.8817 C   0  0  0  1  0  0  0  0  0  0  0  0
   -3.7945    2.0111   -1.1313 C   0  0  0  1  0  0  0  0  0  0  0  0
   -5.0635    1.8722   -1.6717 C   0  0  0  1  0  0  0  0  0  0  0  0
   -1.4219    2.7089   -1.2377 C   0  0  0  1  0  0  0  0  0  0  0  0
   -4.4895    3.1882   -4.6858 H   0  0  0  1  0  0  0  0  0  0  0  0
   -2.2714    3.4270   -3.7428 H   0  0  0  1  0  0  0  0  0  0  0  0
   -3.6043    1.6883   -0.1611 H   0  0  0  1  0  0  0  0  0  0  0  0
   -5.8264    1.4489   -1.1056 H   0  0  0  1  0  0  0  0  0  0  0  0
   -0.8715    3.4668   -1.7549 H   0  0  0  1  0  0  0  0  0  0  0  0
   -1.5551    2.9984   -0.2163 H   0  0  0  1  0  0  0  0  0  0  0  0
  1  4  1  0  0  0  0
  2  4  1  0  0  0  0
  2  5  2  0  0  0  0
  2  6  1  0  0  0  0
  3  4  1  0  0  0  0
  3  7  1  0  0  0  0
  3  8  1  0  0  0  0
  4 26  1  0  0  0  0
  6  9  1  0  0  0  0
  6 12  1  0  0  0  0
  8 10  1  0  0  0  0
  8 11  2  0  0  0  0
  9 13  1  0  0  0  0
  9 14  1  0  0  0  0
  9 15  1  0  0  0  0
 10 16  1  0  0  0  0
 10 17  1  0  0  0  0
 10 18  1  0  0  0  0
 19 20  1  0  0  0  0
 20 21  4  0  0  0  0
 20 25  4  0  0  0  0
 21 22  4  0  0  0  0
 21 27  1  0  0  0  0
 22 23  4  0  0  0  0
 22 28  1  0  0  0  0
 23 24  4  0  0  0  0
 23 26  1  0  0  0  0
 24 25  4  0  0  0  0
 24 29  1  0  0  0  0
 25 30  1  0  0  0  0
 26 31  1  0  0  0  0
 26 32  1  0  0  0  0
M  END
> <BCLConfClusterSize>
1

> <ConfClashScore>
0 

> <ConfOneFourInteractionScore>
-0.976093 

> <ConfScore>
0.204976 

> <ConfScorePBest>
0.00635284 

> <ConfTolerance>
0.329678 

> <RosettaParamsInstructions>
M  ROOT 3
M  POLY_N_BB 3
M  POLY_CA_BB 4
M  POLY_C_BB 2
M  POLY_O_BB 5
M  POLY_IGNORE 9 10 11 12 13 14 15 16 17 18 
M  POLY_UPPER 6
M  POLY_LOWER 8
M  POLY_CHG 0
M  POLY_PROPERTIES ALPHA_AA D_AA PROTEIN AROMATIC POLYMER 
M  END

$$$$



 32 32  0  0  0  0  0  0  0  0999 V2000
   -1.7558    4.5701   -0.2743 H   0  0  0  1  0  0  0  0  0  0  0  0
    0.0493    3.7171    0.4715 C   0  0  0  1  0  0  0  0  0  0  0  0
   -2.2284    2.9889    0.9937 N   0  0  0  1  0  0  0  0  0  0  0  0
   -1.3879    3.5962   -0.0274 C   0  0  0  1  0  0  0  0  0  0  0  0
    0.8718    4.4136   -0.1173 O   0  0  0  1  0  0  0  0  0  0  0  0
    0.3423    3.0193    1.5802 N   0  0  0  1  0  0  0  0  0  0  0  0
   -2.2986    2.0120    1.0289 H   0  0  0  1  0  0  0  0  0  0  0  0
   -2.9075    3.7168    1.8847 C   0  0  0  1  0  0  0  0  0  0  0  0
    1.6285    3.0678    2.2609 C   0  0  0  1  0  0  0  0  0  0  0  0
   -3.6870    2.9304    2.9206 C   0  0  0  1  0  0  0  0  0  0  0  0
   -2.9121    4.9449    1.8806 O   0  0  0  1  0  0  0  0  0  0  0  0
   -0.3538    2.4405    1.9554 H   0  0  0  1  0  0  0  0  0  0  0  0
    1.7152    3.9906    2.7954 H   0  0  0  1  0  0  0  0  0  0  0  0
    2.4161    2.9980    1.5400 H   0  0  0  1  0  0  0  0  0  0  0  0
    1.6994    2.2502    2.9476 H   0  0  0  1  0  0  0  0  0  0  0  0
   -3.0059    2.4075    3.5590 H   0  0  0  1  0  0  0  0  0  0  0  0
   -4.3254    2.2270    2.4281 H   0  0  0  1  0  0  0  0  0  0  0  0
   -4.2798    3.6019    3.5059 H   0  0  0  1  0  0  0  0  0  0  0  0
   -6.5332    2.1730   -3.5231 F   0  0  0  1  0  0  0  0  0  0  0  0
   -5.3173    2.2932   -2.9566 C   0  0  0  1  0  0  0  0  0  0  0  0
   -4.3009    2.8621   -3.7082 C   0  0  0  1  0  0  0  0  0  0  0  0
   -3.0363    2.9999   -3.1680 C   0  0  0  1  0  0  0  0  0  0  0  0
   -2.7855    2.5741   -1.8729 C   0  0  0  1  0  0  0  0  0  0  0  0
   -3.7989    2.0069   -1.1236 C   0  0  0  1  0  0  0  0  0  0  0  0
   -5.0674    1.8686   -1.6653 C   0  0  0  1  0  0  0  0  0  0  0  0
   -1.4050    2.7298   -1.2800 C   0  0  0  1  0  0  0  0  0  0  0  0
   -4.4900    3.1852   -4.6785 H   0  0  0  1  0  0  0  0  0  0  0  0
   -2.2727    3.4230   -3.7333 H   0  0  0  1  0  0  0  0  0  0  0  0
   -3.6098    1.6838   -0.1533 H   0  0  0  1  0  0  0  0  0  0  0  0
   -5.8310    1.4455   -1.1000 H   0  0  0  1  0  0  0  0  0  0  0  0
   -1.0312    1.7594   -1.0280 H   0  0  0  1  0  0  0  0  0  0  0  0
   -0.7680    3.1786   -2.0133 H   0  0  0  1  0  0  0  0  0  0  0  0
  1  4  1  0  0  0  0
  2  4  1  0  0  0  0
  2  5  2  0  0  0  0
  2  6  1  0  0  0  0
  3  4  1  0  0  0  0
  3  7  1  0  0  0  0
  3  8  1  0  0  0  0
  4 26  1  0  0  0  0
  6  9  1  0  0  0  0
  6 12  1  0  0  0  0
  8 10  1  0  0  0  0
  8 11  2  0  0  0  0
  9 13  1  0  0  0  0
  9 14  1  0  0  0  0
  9 15  1  0  0  0  0
 10 16  1  0  0  0  0
 10 17  1  0  0  0  0
 10 18  1  0  0  0  0
 19 20  1  0  0  0  0
 20 21  4  0  0  0  0
 20 25  4  0  0  0  0
 21 22  4  0  0  0  0
 21 27  1  0  0  0  0
 22 23  4  0  0  0  0
 22 28  1  0  0  0  0
 23 24  4  0  0  0  0
 23 26  1  0  0  0  0
 24 25  4  0  0  0  0
 24 29  1  0  0  0  0
 25 30  1  0  0  0  0
 26 31  1  0  0  0  0
 26 32  1  0  0  0  0
M  END
> <BCLConfClusterSize>
1

> <ConfClashScore>
0 

> <ConfOneFourInteractionScore>
-0.937775 

> <ConfScore>
0.205929 

> <ConfScorePBest>
0.00632436 

> <ConfTolerance>
0.321518 

> <RosettaParamsInstructions>
M  ROOT 3
M  POLY_N_BB 3
M  POLY_CA_BB 4
M  POLY_C_BB 2
M  POLY_O_BB 5
M  POLY_IGNORE 9 10 11 12 13 14 15 16 17 18 
M  POLY_UPPER 6
M  POLY_LOWER 8
M  POLY_CHG 0
M  POLY_PROPERTIES ALPHA_AA D_AA PROTEIN AROMATIC POLYMER 
M  END

$$$$



 32 32  0  0  0  0  0  0  0  0999 V2000
   -0.9104    0.7050   -1.5247 H   0  0  0  1  0  0  0  0  0  0  0  0
    0.8527    1.6608   -0.9285 C   0  0  0  1  0  0  0  0  0  0  0  0
   -0.1547    1.6899   -3.1640 N   0  0  0  1  0  0  0  0  0  0  0  0
   -0.4369    1.6432   -1.7258 C   0  0  0  1  0  0  0  0  0  0  0  0
    0.8730    2.0308    0.2447 O   0  0  0  1  0  0  0  0  0  0  0  0
    1.9497    1.2507   -1.5846 N   0  0  0  1  0  0  0  0  0  0  0  0
   -0.5894    1.0672   -3.7834 H   0  0  0  1  0  0  0  0  0  0  0  0
    0.7206    2.6146   -3.6103 C   0  0  0  1  0  0  0  0  0  0  0  0
    3.2735    1.2813   -0.9810 C   0  0  0  1  0  0  0  0  0  0  0  0
    0.9659    2.6214   -5.1067 C   0  0  0  1  0  0  0  0  0  0  0  0
    1.2928    3.4097   -2.8660 O   0  0  0  1  0  0  0  0  0  0  0  0
    1.8558    0.9191   -2.5020 H   0  0  0  1  0  0  0  0  0  0  0  0
    3.3693    2.1575   -0.3743 H   0  0  0  1  0  0  0  0  0  0  0  0
    4.0161    1.2982   -1.7512 H   0  0  0  1  0  0  0  0  0  0  0  0
    3.4086    0.4108   -0.3737 H   0  0  0  1  0  0  0  0  0  0  0  0
    0.0639    2.3564   -5.6177 H   0  0  0  1  0  0  0  0  0  0  0  0
    1.7319    1.9135   -5.3455 H   0  0  0  1  0  0  0  0  0  0  0  0
    1.2749    3.5990   -5.4128 H   0  0  0  1  0  0  0  0  0  0  0  0
   -6.5556    2.1442   -3.4638 F   0  0  0  1  0  0  0  0  0  0  0  0
   -5.3127    2.2992   -2.9689 C   0  0  0  1  0  0  0  0  0  0  0  0
   -4.2921    2.8673   -3.7153 C   0  0  0  1  0  0  0  0  0  0  0  0
   -3.0296    3.0022   -3.1693 C   0  0  0  1  0  0  0  0  0  0  0  0
   -2.7852    2.5745   -1.8736 C   0  0  0  1  0  0  0  0  0  0  0  0
   -3.8029    2.0080   -1.1295 C   0  0  0  1  0  0  0  0  0  0  0  0
   -5.0693    1.8726   -1.6769 C   0  0  0  1  0  0  0  0  0  0  0  0
   -1.4071    2.7271   -1.2744 C   0  0  0  1  0  0  0  0  0  0  0  0
   -4.4763    3.1919   -4.6860 H   0  0  0  1  0  0  0  0  0  0  0  0
   -2.2628    3.4248   -3.7307 H   0  0  0  1  0  0  0  0  0  0  0  0
   -3.6187    1.6834   -0.1588 H   0  0  0  1  0  0  0  0  0  0  0  0
   -5.8360    1.4501   -1.1156 H   0  0  0  1  0  0  0  0  0  0  0  0
   -1.0133    3.6788   -1.5640 H   0  0  0  1  0  0  0  0  0  0  0  0
   -1.4926    2.6852   -0.2086 H   0  0  0  1  0  0  0  0  0  0  0  0
  1  4  1  0  0  0  0
  2  4  1  0  0  0  0
  2  5  2  0  0  0  0
  2  6  1  0  0  0  0
  3  4  1  0  0  0  0
  3  7  1  0  0  0  0
  3  8  1  0  0  0  0
  4 26  1  0  0  0  0
  6  9  1  0  0  0  0
  6 12  1  0  0  0  0
  8 10  1  0  0  0  0
  8 11  2  0  0  0  0
  9 13  1  0  0  0  0
  9 14  1  0  0  0  0
  9 15  1  0  0  0  0
 10 16  1  0  0  0  0
 10 17  1  0  0  0  0
 10 18  1  0  0  0  0
 19 20  1  0  0  0  0
 20 21  4  0  0  0  0
 20 25  4  0  0  0  0
 21 22  4  0  0  0  0
 21 27  1  0  0  0  0
 22 23  4  0  0  0  0
 22 28  1  0  0  0  0
 23 24  4  0  0  0  0
 23 26  1  0  0  0  0
 24 25  4  0  0  0  0
 24 29  1  0  0  0  0
 25 30  1  0  0  0  0
 26 31  1  0  0  0  0
 26 32  1  0  0  0  0
M  END
> <BCLConfClusterSize>
1

> <ConfClashScore>
0 

> <ConfOneFourInteractionScore>
-0.938696 

> <ConfScore>
0.208292 

> <ConfScorePBest>
0.00629587 

> <ConfTolerance>
0.197542 

> <RosettaParamsInstructions>
M  ROOT 3
M  POLY_N_BB 3
M  POLY_CA_BB 4
M  POLY_C_BB 2
M  POLY_O_BB 5
M  POLY_IGNORE 9 10 11 12 13 14 15 16 17 18 
M  POLY_UPPER 6
M  POLY_LOWER 8
M  POLY_CHG 0
M  POLY_PROPERTIES ALPHA_AA D_AA PROTEIN AROMATIC POLYMER 
M  END

$$$$



 32 32  0  0  0  0  0  0  0  0999 V2000
   -0.7412    0.9607   -2.2284 H   0  0  0  1  0  0  0  0  0  0  0  0
   -1.3235    0.4283   -0.2722 C   0  0  0  1  0  0  0  0  0  0  0  0
    0.7278    1.5661   -0.9080 N   0  0  0  1  0  0  0  0  0  0  0  0
   -0.6756    1.3891   -1.2501 C   0  0  0  1  0  0  0  0  0  0  0  0
   -2.3877   -0.1300   -0.5358 O   0  0  0  1  0  0  0  0  0  0  0  0
   -0.6628    0.2356    0.8804 N   0  0  0  1  0  0  0  0  0  0  0  0
    1.0407    2.4553   -0.6401 H   0  0  0  1  0  0  0  0  0  0  0  0
    1.6130    0.5487   -0.9469 C   0  0  0  1  0  0  0  0  0  0  0  0
   -1.2867   -0.5080    1.9647 C   0  0  0  1  0  0  0  0  0  0  0  0
    3.0794    0.8712   -0.7353 C   0  0  0  1  0  0  0  0  0  0  0  0
    1.2438   -0.6076   -1.1480 O   0  0  0  1  0  0  0  0  0  0  0  0
    0.2415    0.5964    0.9919 H   0  0  0  1  0  0  0  0  0  0  0  0
   -2.1441    0.0263    2.3172 H   0  0  0  1  0  0  0  0  0  0  0  0
   -0.5864   -0.6259    2.7651 H   0  0  0  1  0  0  0  0  0  0  0  0
   -1.5882   -1.4711    1.6091 H   0  0  0  1  0  0  0  0  0  0  0  0
    3.1935    1.4432    0.1617 H   0  0  0  1  0  0  0  0  0  0  0  0
    3.4437    1.4367   -1.5674 H   0  0  0  1  0  0  0  0  0  0  0  0
    3.6359   -0.0388   -0.6509 H   0  0  0  1  0  0  0  0  0  0  0  0
   -6.5450    2.1585   -3.4937 F   0  0  0  1  0  0  0  0  0  0  0  0
   -5.3149    2.2962   -2.9627 C   0  0  0  1  0  0  0  0  0  0  0  0
   -4.2965    2.8647   -3.7117 C   0  0  0  1  0  0  0  0  0  0  0  0
   -3.0329    3.0011   -3.1686 C   0  0  0  1  0  0  0  0  0  0  0  0
   -2.7853    2.5743   -1.8732 C   0  0  0  1  0  0  0  0  0  0  0  0
   -3.8009    2.0075   -1.1265 C   0  0  0  1  0  0  0  0  0  0  0  0
   -5.0683    1.8706   -1.6711 C   0  0  0  1  0  0  0  0  0  0  0  0
   -1.4060    2.7284   -1.2772 C   0  0  0  1  0  0  0  0  0  0  0  0
   -4.4831    3.1886   -4.6822 H   0  0  0  1  0  0  0  0  0  0  0  0
   -2.2677    3.4239   -3.7319 H   0  0  0  1  0  0  0  0  0  0  0  0
   -3.6142    1.6836   -0.1560 H   0  0  0  1  0  0  0  0  0  0  0  0
   -5.8335    1.4478   -1.1078 H   0  0  0  1  0  0  0  0  0  0  0  0
   -0.8444    3.4224   -1.8670 H   0  0  0  1  0  0  0  0  0  0  0  0
   -1.4953    3.0996   -0.2776 H   0  0  0  1  0  0  0  0  0  0  0  0
  1  4  1  0  0  0  0
  2  4  1  0  0  0  0
  2  5  2  0  0  0  0
  2  6  1  0  0  0  0
  3  4  1  0  0  0  0
  3  7  1  0  0  0  0
  3  8  1  0  0  0  0
  4 26  1  0  0  0  0
  6  9  1  0  0  0  0
  6 12  1  0  0  0  0
  8 10  1  0  0  0  0
  8 11  2  0  0  0  0
  9 13  1  0  0  0  0
  9 14  1  0  0  0  0
  9 15  1  0  0  0  0
 10 16  1  0  0  0  0
 10 17  1  0  0  0  0
 10 18  1  0  0  0  0
 19 20  1  0  0  0  0
 20 21  4  0  0  0  0
 20 25  4  0  0  0  0
 21 22  4  0  0  0  0
 21 27  1  0  0  0  0
 22 23  4  0  0  0  0
 22 28  1  0  0  0  0
 23 24  4  0  0  0  0
 23 26  1  0  0  0  0
 24 25  4  0  0  0  0
 24 29  1  0  0  0  0
 25 30  1  0  0  0  0
 26 31  1  0  0  0  0
 26 32  1  0  0  0  0
M  END
> <BCLConfClusterSize>
1

> <ConfClashScore>
0 

> <ConfOneFourInteractionScore>
-0.960318 

> <ConfScore>
0.208721 

> <ConfScorePBest>
0.00626739 

> <ConfTolerance>
0.278153 

> <RosettaParamsInstructions>
M  ROOT 3
M  POLY_N_BB 3
M  POLY_CA_BB 4
M  POLY_C_BB 2
M  POLY_O_BB 5
M  POLY_IGNORE 9 10 11 12 13 14 15 16 17 18 
M  POLY_UPPER 6
M  POLY_LOWER 8
M  POLY_CHG 0
M  POLY_PROPERTIES ALPHA_AA D_AA PROTEIN AROMATIC POLYMER 
M  END

$$$$



 32 32  0  0  0  0  0  0  0  0999 V2000
   -1.4007    4.8319   -1.3075 H   0  0  0  1  0  0  0  0  0  0  0  0
    0.1118    4.2755    0.0274 C   0  0  0  1  0  0  0  0  0  0  0  0
   -2.3021    4.2879    0.4593 N   0  0  0  1  0  0  0  0  0  0  0  0
   -1.2711    4.0758   -0.5616 C   0  0  0  1  0  0  0  0  0  0  0  0
    0.2702    4.8574    1.0879 O   0  0  0  1  0  0  0  0  0  0  0  0
    1.1294    3.7742   -0.6905 N   0  0  0  1  0  0  0  0  0  0  0  0
   -2.9314    5.0310    0.3488 H   0  0  0  1  0  0  0  0  0  0  0  0
   -2.4133    3.5034    1.5351 C   0  0  0  1  0  0  0  0  0  0  0  0
    2.5084    3.8308   -0.2289 C   0  0  0  1  0  0  0  0  0  0  0  0
   -3.4866    3.8988    2.5306 C   0  0  0  1  0  0  0  0  0  0  0  0
   -1.6996    2.5191    1.7230 O   0  0  0  1  0  0  0  0  0  0  0  0
    0.9369    3.3556   -1.5554 H   0  0  0  1  0  0  0  0  0  0  0  0
    2.5254    3.8898    0.8393 H   0  0  0  1  0  0  0  0  0  0  0  0
    2.9871    4.6943   -0.6413 H   0  0  0  1  0  0  0  0  0  0  0  0
    3.0266    2.9498   -0.5455 H   0  0  0  1  0  0  0  0  0  0  0  0
   -3.6296    4.9587    2.4994 H   0  0  0  1  0  0  0  0  0  0  0  0
   -3.1838    3.6088    3.5150 H   0  0  0  1  0  0  0  0  0  0  0  0
   -4.4036    3.4078    2.2798 H   0  0  0  1  0  0  0  0  0  0  0  0
   -6.5450    2.1585   -3.4937 F   0  0  0  1  0  0  0  0  0  0  0  0
   -5.3149    2.2962   -2.9627 C   0  0  0  1  0  0  0  0  0  0  0  0
   -4.2965    2.8647   -3.7117 C   0  0  0  1  0  0  0  0  0  0  0  0
   -3.0329    3.0011   -3.1686 C   0  0  0  1  0  0  0  0  0  0  0  0
   -2.7853    2.5743   -1.8732 C   0  0  0  1  0  0  0  0  0  0  0  0
   -3.8009    2.0075   -1.1265 C   0  0  0  1  0  0  0  0  0  0  0  0
   -5.0683    1.8706   -1.6711 C   0  0  0  1  0  0  0  0  0  0  0  0
   -1.4060    2.7284   -1.2772 C   0  0  0  1  0  0  0  0  0  0  0  0
   -4.4831    3.1886   -4.6822 H   0  0  0  1  0  0  0  0  0  0  0  0
   -2.2677    3.4239   -3.7319 H   0  0  0  1  0  0  0  0  0  0  0  0
   -3.6142    1.6836   -0.1560 H   0  0  0  1  0  0  0  0  0  0  0  0
   -5.8335    1.4478   -1.1078 H   0  0  0  1  0  0  0  0  0  0  0  0
   -1.2374    1.9395   -0.5743 H   0  0  0  1  0  0  0  0  0  0  0  0
   -0.6776    2.6719   -2.0590 H   0  0  0  1  0  0  0  0  0  0  0  0
  1  4  1  0  0  0  0
  2  4  1  0  0  0  0
  2  5  2  0  0  0  0
  2  6  1  0  0  0  0
  3  4  1  0  0  0  0
  3  7  1  0  0  0  0
  3  8  1  0  0  0  0
  4 26  1  0  0  0  0
  6  9  1  0  0  0  0
  6 12  1  0  0  0  0
  8 10  1  0  0  0  0
  8 11  2  0  0  0  0
  9 13  1  0  0  0  0
  9 14  1  0  0  0  0
  9 15  1  0  0  0  0
 10 16  1  0  0  0  0
 10 17  1  0  0  0  0
 10 18  1  0  0  0  0
 19 20  1  0  0  0  0
 20 21  4  0  0  0  0
 20 25  4  0  0  0  0
 21 22  4  0  0  0  0
 21 27  1  0  0  0  0
 22 23  4  0  0  0  0
 22 28  1  0  0  0  0
 23 24  4  0  0  0  0
 23 26  1  0  0  0  0
 24 25  4  0  0  0  0
 24 29  1  0  0  0  0
 25 30  1  0  0  0  0
 26 31  1  0  0  0  0
 26 32  1  0  0  0  0
M  END
> <BCLConfClusterSize>
1

> <ConfClashScore>
0 

> <ConfOneFourInteractionScore>
-0.935823 

> <ConfScore>
0.20905 

> <ConfScorePBest>
0.00623891 

> <ConfTolerance>
0.373044 

> <RosettaParamsInstructions>
M  ROOT 3
M  POLY_N_BB 3
M  POLY_CA_BB 4
M  POLY_C_BB 2
M  POLY_O_BB 5
M  POLY_IGNORE 9 10 11 12 13 14 15 16 17 18 
M  POLY_UPPER 6
M  POLY_LOWER 8
M  POLY_CHG 0
M  POLY_PROPERTIES ALPHA_AA D_AA PROTEIN AROMATIC POLYMER 
M  END

$$$$



 32 32  0  0  0  0  0  0  0  0999 V2000
   -1.3936    4.8570   -1.3498 H   0  0  0  1  0  0  0  0  0  0  0  0
    0.2525    4.2602   -0.1673 C   0  0  0  1  0  0  0  0  0  0  0  0
   -2.0864    4.2498    0.4965 N   0  0  0  1  0  0  0  0  0  0  0  0
   -1.1863    4.0917   -0.6313 C   0  0  0  1  0  0  0  0  0  0  0  0
    1.1150    4.7405   -0.8800 O   0  0  0  1  0  0  0  0  0  0  0  0
    0.5888    3.8671    1.0707 N   0  0  0  1  0  0  0  0  0  0  0  0
   -2.3495    3.4801    1.0430 H   0  0  0  1  0  0  0  0  0  0  0  0
   -2.5505    5.4866    0.7709 C   0  0  0  1  0  0  0  0  0  0  0  0
    1.9322    4.1099    1.5749 C   0  0  0  1  0  0  0  0  0  0  0  0
   -3.2158    5.6555    2.1229 C   0  0  0  1  0  0  0  0  0  0  0  0
   -2.4493    6.4293   -0.0132 O   0  0  0  1  0  0  0  0  0  0  0  0
   -0.0717    3.4156    1.6366 H   0  0  0  1  0  0  0  0  0  0  0  0
    2.3302    4.9928    1.1201 H   0  0  0  1  0  0  0  0  0  0  0  0
    2.5577    3.2744    1.3391 H   0  0  0  1  0  0  0  0  0  0  0  0
    1.8962    4.2409    2.6362 H   0  0  0  1  0  0  0  0  0  0  0  0
   -4.0046    4.9398    2.2247 H   0  0  0  1  0  0  0  0  0  0  0  0
   -3.6189    6.6437    2.2008 H   0  0  0  1  0  0  0  0  0  0  0  0
   -2.4935    5.5024    2.8973 H   0  0  0  1  0  0  0  0  0  0  0  0
   -6.5543    2.1459   -3.4674 F   0  0  0  1  0  0  0  0  0  0  0  0
   -5.3127    2.2991   -2.9686 C   0  0  0  1  0  0  0  0  0  0  0  0
   -4.2892    2.8666   -3.7115 C   0  0  0  1  0  0  0  0  0  0  0  0
   -3.0282    2.9997   -3.1617 C   0  0  0  1  0  0  0  0  0  0  0  0
   -2.7881    2.5706   -1.8656 C   0  0  0  1  0  0  0  0  0  0  0  0
   -3.8087    2.0047   -1.1250 C   0  0  0  1  0  0  0  0  0  0  0  0
   -5.0736    1.8712   -1.6763 C   0  0  0  1  0  0  0  0  0  0  0  0
   -1.3937    2.7451   -1.3119 C   0  0  0  1  0  0  0  0  0  0  0  0
   -4.4702    3.1923   -4.6825 H   0  0  0  1  0  0  0  0  0  0  0  0
   -2.2593    3.4218   -3.7204 H   0  0  0  1  0  0  0  0  0  0  0  0
   -3.6277    1.6791   -0.1541 H   0  0  0  1  0  0  0  0  0  0  0  0
   -5.8425    1.4490   -1.1176 H   0  0  0  1  0  0  0  0  0  0  0  0
   -1.2120    1.9704   -0.5966 H   0  0  0  1  0  0  0  0  0  0  0  0
   -0.6943    2.6591   -2.1170 H   0  0  0  1  0  0  0  0  0  0  0  0
  1  4  1  0  0  0  0
  2  4  1  0  0  0  0
  2  5  2  0  0  0  0
  2  6  1  0  0  0  0
  3  4  1  0  0  0  0
  3  7  1  0  0  0  0
  3  8  1  0  0  0  0
  4 26  1  0  0  0  0
  6  9  1  0  0  0  0
  6 12  1  0  0  0  0
  8 10  1  0  0  0  0
  8 11  2  0  0  0  0
  9 13  1  0  0  0  0
  9 14  1  0  0  0  0
  9 15  1  0  0  0  0
 10 16  1  0  0  0  0
 10 17  1  0  0  0  0
 10 18  1  0  0  0  0
 19 20  1  0  0  0  0
 20 21  4  0  0  0  0
 20 25  4  0  0  0  0
 21 22  4  0  0  0  0
 21 27  1  0  0  0  0
 22 23  4  0  0  0  0
 22 28  1  0  0  0  0
 23 24  4  0  0  0  0
 23 26  1  0  0  0  0
 24 25  4  0  0  0  0
 24 29  1  0  0  0  0
 25 30  1  0  0  0  0
 26 31  1  0  0  0  0
 26 32  1  0  0  0  0
M  END
> <BCLConfClusterSize>
1

> <ConfClashScore>
0 

> <ConfOneFourInteractionScore>
-0.960318 

> <ConfScore>
0.211383 

> <ConfScorePBest>
0.00621043 

> <ConfTolerance>
0.356489 

> <RosettaParamsInstructions>
M  ROOT 3
M  POLY_N_BB 3
M  POLY_CA_BB 4
M  POLY_C_BB 2
M  POLY_O_BB 5
M  POLY_IGNORE 9 10 11 12 13 14 15 16 17 18 
M  POLY_UPPER 6
M  POLY_LOWER 8
M  POLY_CHG 0
M  POLY_PROPERTIES ALPHA_AA D_AA PROTEIN AROMATIC POLYMER 
M  END

$$$$



 32 32  0  0  0  0  0  0  0  0999 V2000
   -1.1787    0.8446   -0.4946 H   0  0  0  1  0  0  0  0  0  0  0  0
    0.7233    1.6586   -0.4262 C   0  0  0  1  0  0  0  0  0  0  0  0
   -0.4949    0.7753   -2.4215 N   0  0  0  1  0  0  0  0  0  0  0  0
   -0.6103    1.4927   -1.1285 C   0  0  0  1  0  0  0  0  0  0  0  0
    0.7940    2.0400    0.7391 O   0  0  0  1  0  0  0  0  0  0  0  0
    1.7763    1.3534   -1.1926 N   0  0  0  1  0  0  0  0  0  0  0  0
   -0.7928    1.2245   -3.2399 H   0  0  0  1  0  0  0  0  0  0  0  0
    0.0061   -0.4743   -2.5101 C   0  0  0  1  0  0  0  0  0  0  0  0
    3.1149    1.3361   -0.6220 C   0  0  0  1  0  0  0  0  0  0  0  0
   -0.0289   -1.1622   -3.8610 C   0  0  0  1  0  0  0  0  0  0  0  0
    0.4778   -1.0413   -1.5254 O   0  0  0  1  0  0  0  0  0  0  0  0
    1.6460    1.1409   -2.1404 H   0  0  0  1  0  0  0  0  0  0  0  0
    3.0611    1.0452    0.4063 H   0  0  0  1  0  0  0  0  0  0  0  0
    3.5457    2.3129   -0.6940 H   0  0  0  1  0  0  0  0  0  0  0  0
    3.7222    0.6375   -1.1587 H   0  0  0  1  0  0  0  0  0  0  0  0
    0.9224   -1.0577   -4.3397 H   0  0  0  1  0  0  0  0  0  0  0  0
   -0.7856   -0.7134   -4.4700 H   0  0  0  1  0  0  0  0  0  0  0  0
   -0.2480   -2.2008   -3.7265 H   0  0  0  1  0  0  0  0  0  0  0  0
   -6.5507    2.1756   -3.4839 F   0  0  0  1  0  0  0  0  0  0  0  0
   -5.3161    2.3020   -2.9606 C   0  0  0  1  0  0  0  0  0  0  0  0
   -4.2980    2.8644   -3.7147 C   0  0  0  1  0  0  0  0  0  0  0  0
   -3.0299    2.9891   -3.1795 C   0  0  0  1  0  0  0  0  0  0  0  0
   -2.7773    2.5569   -1.8868 C   0  0  0  1  0  0  0  0  0  0  0  0
   -3.7926    1.9961   -1.1351 C   0  0  0  1  0  0  0  0  0  0  0  0
   -5.0645    1.8709   -1.6717 C   0  0  0  1  0  0  0  0  0  0  0  0
   -1.4341    2.7697   -1.2297 C   0  0  0  1  0  0  0  0  0  0  0  0
   -4.4884    3.1924   -4.6830 H   0  0  0  1  0  0  0  0  0  0  0  0
   -2.2650    3.4074   -3.7466 H   0  0  0  1  0  0  0  0  0  0  0  0
   -3.6022    1.6681   -0.1667 H   0  0  0  1  0  0  0  0  0  0  0  0
   -5.8294    1.4526   -1.1046 H   0  0  0  1  0  0  0  0  0  0  0  0
   -0.8837    3.4855   -1.8038 H   0  0  0  1  0  0  0  0  0  0  0  0
   -1.5944    3.1506   -0.2427 H   0  0  0  1  0  0  0  0  0  0  0  0
  1  4  1  0  0  0  0
  2  4  1  0  0  0  0
  2  5  2  0  0  0  0
  2  6  1  0  0  0  0
  3  4  1  0  0  0  0
  3  7  1  0  0  0  0
  3  8  1  0  0  0  0
  4 26  1  0  0  0  0
  6  9  1  0  0  0  0
  6 12  1  0  0  0  0
  8 10  1  0  0  0  0
  8 11  2  0  0  0  0
  9 13  1  0  0  0  0
  9 14  1  0  0  0  0
  9 15  1  0  0  0  0
 10 16  1  0  0  0  0
 10 17  1  0  0  0  0
 10 18  1  0  0  0  0
 19 20  1  0  0  0  0
 20 21  4  0  0  0  0
 20 25  4  0  0  0  0
 21 22  4  0  0  0  0
 21 27  1  0  0  0  0
 22 23  4  0  0  0  0
 22 28  1  0  0  0  0
 23 24  4  0  0  0  0
 23 26  1  0  0  0  0
 24 25  4  0  0  0  0
 24 29  1  0  0  0  0
 25 30  1  0  0  0  0
 26 31  1  0  0  0  0
 26 32  1  0  0  0  0
M  END
> <BCLConfClusterSize>
1

> <ConfClashScore>
0 

> <ConfOneFourInteractionScore>
-0.94165 

> <ConfScore>
0.212793 

> <ConfScorePBest>
0.00618195 

> <ConfTolerance>
0.210571 

> <RosettaParamsInstructions>
M  ROOT 3
M  POLY_N_BB 3
M  POLY_CA_BB 4
M  POLY_C_BB 2
M  POLY_O_BB 5
M  POLY_IGNORE 9 10 11 12 13 14 15 16 17 18 
M  POLY_UPPER 6
M  POLY_LOWER 8
M  POLY_CHG 0
M  POLY_PROPERTIES ALPHA_AA D_AA PROTEIN AROMATIC POLYMER 
M  END

$$$$



 32 32  0  0  0  0  0  0  0  0999 V2000
    0.3621    1.5586   -1.1781 H   0  0  0  1  0  0  0  0  0  0  0  0
   -0.7904    0.8364   -2.7931 C   0  0  0  1  0  0  0  0  0  0  0  0
   -1.2088    0.4624   -0.3986 N   0  0  0  1  0  0  0  0  0  0  0  0
   -0.6736    1.3883   -1.3857 C   0  0  0  1  0  0  0  0  0  0  0  0
   -0.0768    1.2447   -3.6945 O   0  0  0  1  0  0  0  0  0  0  0  0
   -1.7190   -0.1166   -2.9706 N   0  0  0  1  0  0  0  0  0  0  0  0
   -1.7340    0.8392    0.3380 H   0  0  0  1  0  0  0  0  0  0  0  0
   -1.0367   -0.8736   -0.4213 C   0  0  0  1  0  0  0  0  0  0  0  0
   -1.9109   -0.8747   -4.1980 C   0  0  0  1  0  0  0  0  0  0  0  0
   -1.6525   -1.5877    0.7661 C   0  0  0  1  0  0  0  0  0  0  0  0
   -0.4467   -1.4829   -1.2983 O   0  0  0  1  0  0  0  0  0  0  0  0
   -2.3125   -0.3169   -2.2170 H   0  0  0  1  0  0  0  0  0  0  0  0
   -0.9719   -0.9875   -4.6986 H   0  0  0  1  0  0  0  0  0  0  0  0
   -2.5943   -0.3537   -4.8355 H   0  0  0  1  0  0  0  0  0  0  0  0
   -2.3074   -1.8401   -3.9624 H   0  0  0  1  0  0  0  0  0  0  0  0
   -1.2661   -2.5838    0.8236 H   0  0  0  1  0  0  0  0  0  0  0  0
   -2.7154   -1.6239    0.6482 H   0  0  0  1  0  0  0  0  0  0  0  0
   -1.4106   -1.0592    1.6645 H   0  0  0  1  0  0  0  0  0  0  0  0
   -6.5332    2.1730   -3.5231 F   0  0  0  1  0  0  0  0  0  0  0  0
   -5.3173    2.2932   -2.9566 C   0  0  0  1  0  0  0  0  0  0  0  0
   -4.3009    2.8621   -3.7082 C   0  0  0  1  0  0  0  0  0  0  0  0
   -3.0363    2.9999   -3.1680 C   0  0  0  1  0  0  0  0  0  0  0  0
   -2.7855    2.5741   -1.8729 C   0  0  0  1  0  0  0  0  0  0  0  0
   -3.7989    2.0069   -1.1236 C   0  0  0  1  0  0  0  0  0  0  0  0
   -5.0674    1.8686   -1.6653 C   0  0  0  1  0  0  0  0  0  0  0  0
   -1.4050    2.7298   -1.2800 C   0  0  0  1  0  0  0  0  0  0  0  0
   -4.4900    3.1852   -4.6785 H   0  0  0  1  0  0  0  0  0  0  0  0
   -2.2727    3.4230   -3.7333 H   0  0  0  1  0  0  0  0  0  0  0  0
   -3.6098    1.6838   -0.1533 H   0  0  0  1  0  0  0  0  0  0  0  0
   -5.8310    1.4455   -1.1000 H   0  0  0  1  0  0  0  0  0  0  0  0
   -0.8636    3.4788   -1.8192 H   0  0  0  1  0  0  0  0  0  0  0  0
   -1.4845    3.0168   -0.2523 H   0  0  0  1  0  0  0  0  0  0  0  0
  1  4  1  0  0  0  0
  2  4  1  0  0  0  0
  2  5  2  0  0  0  0
  2  6  1  0  0  0  0
  3  4  1  0  0  0  0
  3  7  1  0  0  0  0
  3  8  1  0  0  0  0
  4 26  1  0  0  0  0
  6  9  1  0  0  0  0
  6 12  1  0  0  0  0
  8 10  1  0  0  0  0
  8 11  2  0  0  0  0
  9 13  1  0  0  0  0
  9 14  1  0  0  0  0
  9 15  1  0  0  0  0
 10 16  1  0  0  0  0
 10 17  1  0  0  0  0
 10 18  1  0  0  0  0
 19 20  1  0  0  0  0
 20 21  4  0  0  0  0
 20 25  4  0  0  0  0
 21 22  4  0  0  0  0
 21 27  1  0  0  0  0
 22 23  4  0  0  0  0
 22 28  1  0  0  0  0
 23 24  4  0  0  0  0
 23 26  1  0  0  0  0
 24 25  4  0  0  0  0
 24 29  1  0  0  0  0
 25 30  1  0  0  0  0
 26 31  1  0  0  0  0
 26 32  1  0  0  0  0
M  END
> <BCLConfClusterSize>
1

> <ConfClashScore>
0 

> <ConfOneFourInteractionScore>
-0.950025 

> <ConfScore>
0.213694 

> <ConfScorePBest>
0.00615347 

> <ConfTolerance>
0.302411 

> <RosettaParamsInstructions>
M  ROOT 3
M  POLY_N_BB 3
M  POLY_CA_BB 4
M  POLY_C_BB 2
M  POLY_O_BB 5
M  POLY_IGNORE 9 10 11 12 13 14 15 16 17 18 
M  POLY_UPPER 6
M  POLY_LOWER 8
M  POLY_CHG 0
M  POLY_PROPERTIES ALPHA_AA D_AA PROTEIN AROMATIC POLYMER 
M  END

$$$$



 32 32  0  0  0  0  0  0  0  0999 V2000
   -0.9612    0.6707   -0.9031 H   0  0  0  1  0  0  0  0  0  0  0  0
    0.8132    1.7474   -0.5624 C   0  0  0  1  0  0  0  0  0  0  0  0
   -0.2015    1.1971   -2.7413 N   0  0  0  1  0  0  0  0  0  0  0  0
   -0.4655    1.5092   -1.3458 C   0  0  0  1  0  0  0  0  0  0  0  0
    0.7865    2.2147    0.5929 O   0  0  0  1  0  0  0  0  0  0  0  0
    1.9234    1.4322   -1.1775 N   0  0  0  1  0  0  0  0  0  0  0  0
   -0.3003    0.2708   -3.0456 H   0  0  0  1  0  0  0  0  0  0  0  0
    0.1703    2.1277   -3.6216 C   0  0  0  1  0  0  0  0  0  0  0  0
    3.2255    1.5440   -0.5373 C   0  0  0  1  0  0  0  0  0  0  0  0
    0.5000    1.6238   -5.0132 C   0  0  0  1  0  0  0  0  0  0  0  0
    0.2467    3.3231   -3.3407 O   0  0  0  1  0  0  0  0  0  0  0  0
    1.8769    1.1094   -2.1016 H   0  0  0  1  0  0  0  0  0  0  0  0
    3.2533    2.4288    0.0636 H   0  0  0  1  0  0  0  0  0  0  0  0
    3.9876    1.5979   -1.2865 H   0  0  0  1  0  0  0  0  0  0  0  0
    3.3931    0.6874    0.0816 H   0  0  0  1  0  0  0  0  0  0  0  0
    1.3639    0.9940   -4.9696 H   0  0  0  1  0  0  0  0  0  0  0  0
    0.6977    2.4560   -5.6561 H   0  0  0  1  0  0  0  0  0  0  0  0
   -0.3289    1.0658   -5.3959 H   0  0  0  1  0  0  0  0  0  0  0  0
   -6.5347    2.1712   -3.5193 F   0  0  0  1  0  0  0  0  0  0  0  0
   -5.3171    2.2933   -2.9568 C   0  0  0  1  0  0  0  0  0  0  0  0
   -4.3039    2.8628   -3.7121 C   0  0  0  1  0  0  0  0  0  0  0  0
   -3.0377    3.0026   -3.1761 C   0  0  0  1  0  0  0  0  0  0  0  0
   -2.7822    2.5783   -1.8814 C   0  0  0  1  0  0  0  0  0  0  0  0
   -3.7926    2.0105   -1.1284 C   0  0  0  1  0  0  0  0  0  0  0  0
   -5.0626    1.8702   -1.6659 C   0  0  0  1  0  0  0  0  0  0  0  0
   -1.4208    2.7103   -1.2405 C   0  0  0  1  0  0  0  0  0  0  0  0
   -4.4964    3.1848   -4.6821 H   0  0  0  1  0  0  0  0  0  0  0  0
   -2.2764    3.4261   -3.7441 H   0  0  0  1  0  0  0  0  0  0  0  0
   -3.6000    1.6885   -0.1584 H   0  0  0  1  0  0  0  0  0  0  0  0
   -5.8239    1.4466   -1.0978 H   0  0  0  1  0  0  0  0  0  0  0  0
   -0.9333    3.5479   -1.6940 H   0  0  0  1  0  0  0  0  0  0  0  0
   -1.5745    2.9068   -0.2000 H   0  0  0  1  0  0  0  0  0  0  0  0
  1  4  1  0  0  0  0
  2  4  1  0  0  0  0
  2  5  2  0  0  0  0
  2  6  1  0  0  0  0
  3  4  1  0  0  0  0
  3  7  1  0  0  0  0
  3  8  1  0  0  0  0
  4 26  1  0  0  0  0
  6  9  1  0  0  0  0
  6 12  1  0  0  0  0
  8 10  1  0  0  0  0
  8 11  2  0  0  0  0
  9 13  1  0  0  0  0
  9 14  1  0  0  0  0
  9 15  1  0  0  0  0
 10 16  1  0  0  0  0
 10 17  1  0  0  0  0
 10 18  1  0  0  0  0
 19 20  1  0  0  0  0
 20 21  4  0  0  0  0
 20 25  4  0  0  0  0
 21 22  4  0  0  0  0
 21 27  1  0  0  0  0
 22 23  4  0  0  0  0
 22 28  1  0  0  0  0
 23 24  4  0  0  0  0
 23 26  1  0  0  0  0
 24 25  4  0  0  0  0
 24 29  1  0  0  0  0
 25 30  1  0  0  0  0
 26 31  1  0  0  0  0
 26 32  1  0  0  0  0
M  END
> <BCLConfClusterSize>
1

> <ConfClashScore>
0 

> <ConfOneFourInteractionScore>
-0.938662 

> <ConfScore>
0.216414 

> <ConfScorePBest>
0.00612499 

> <ConfTolerance>
0.240611 

> <RosettaParamsInstructions>
M  ROOT 3
M  POLY_N_BB 3
M  POLY_CA_BB 4
M  POLY_C_BB 2
M  POLY_O_BB 5
M  POLY_IGNORE 9 10 11 12 13 14 15 16 17 18 
M  POLY_UPPER 6
M  POLY_LOWER 8
M  POLY_CHG 0
M  POLY_PROPERTIES ALPHA_AA D_AA PROTEIN AROMATIC POLYMER 
M  END

$$$$



 32 32  0  0  0  0  0  0  0  0999 V2000
    0.4585    1.8189   -1.1826 H   0  0  0  1  0  0  0  0  0  0  0  0
   -0.3181    1.1683   -2.9887 C   0  0  0  1  0  0  0  0  0  0  0  0
   -0.8796    0.3505   -0.6939 N   0  0  0  1  0  0  0  0  0  0  0  0
   -0.5105    1.5217   -1.5256 C   0  0  0  1  0  0  0  0  0  0  0  0
   -0.6246    1.9572   -3.8817 O   0  0  0  1  0  0  0  0  0  0  0  0
    0.2005   -0.0433   -3.2317 N   0  0  0  1  0  0  0  0  0  0  0  0
   -0.7115    0.4308    0.2682 H   0  0  0  1  0  0  0  0  0  0  0  0
   -1.4320   -0.8381   -1.1205 C   0  0  0  1  0  0  0  0  0  0  0  0
    0.4073   -0.6108   -4.5557 C   0  0  0  1  0  0  0  0  0  0  0  0
   -1.4448   -1.9535   -0.1163 C   0  0  0  1  0  0  0  0  0  0  0  0
   -1.8717   -0.9355   -2.2506 O   0  0  0  1  0  0  0  0  0  0  0  0
    0.4600   -0.5882   -2.4596 H   0  0  0  1  0  0  0  0  0  0  0  0
    0.1572    0.1169   -5.2993 H   0  0  0  1  0  0  0  0  0  0  0  0
   -0.2163   -1.4719   -4.6758 H   0  0  0  1  0  0  0  0  0  0  0  0
    1.4331   -0.8946   -4.6656 H   0  0  0  1  0  0  0  0  0  0  0  0
   -2.3135   -2.5597   -0.2669 H   0  0  0  1  0  0  0  0  0  0  0  0
   -1.4633   -1.5433    0.8718 H   0  0  0  1  0  0  0  0  0  0  0  0
   -0.5666   -2.5526   -0.2379 H   0  0  0  1  0  0  0  0  0  0  0  0
   -6.5332    2.1730   -3.5231 F   0  0  0  1  0  0  0  0  0  0  0  0
   -5.3173    2.2932   -2.9566 C   0  0  0  1  0  0  0  0  0  0  0  0
   -4.3009    2.8621   -3.7082 C   0  0  0  1  0  0  0  0  0  0  0  0
   -3.0363    2.9999   -3.1680 C   0  0  0  1  0  0  0  0  0  0  0  0
   -2.7855    2.5741   -1.8729 C   0  0  0  1  0  0  0  0  0  0  0  0
   -3.7989    2.0069   -1.1236 C   0  0  0  1  0  0  0  0  0  0  0  0
   -5.0674    1.8686   -1.6653 C   0  0  0  1  0  0  0  0  0  0  0  0
   -1.4050    2.7298   -1.2800 C   0  0  0  1  0  0  0  0  0  0  0  0
   -4.4900    3.1852   -4.6785 H   0  0  0  1  0  0  0  0  0  0  0  0
   -2.2727    3.4230   -3.7333 H   0  0  0  1  0  0  0  0  0  0  0  0
   -3.6098    1.6838   -0.1533 H   0  0  0  1  0  0  0  0  0  0  0  0
   -5.8310    1.4455   -1.1000 H   0  0  0  1  0  0  0  0  0  0  0  0
   -0.9422    3.5904   -1.7158 H   0  0  0  1  0  0  0  0  0  0  0  0
   -1.5020    2.8726   -0.2240 H   0  0  0  1  0  0  0  0  0  0  0  0
  1  4  1  0  0  0  0
  2  4  1  0  0  0  0
  2  5  2  0  0  0  0
  2  6  1  0  0  0  0
  3  4  1  0  0  0  0
  3  7  1  0  0  0  0
  3  8  1  0  0  0  0
  4 26  1  0  0  0  0
  6  9  1  0  0  0  0
  6 12  1  0  0  0  0
  8 10  1  0  0  0  0
  8 11  2  0  0  0  0
  9 13  1  0  0  0  0
  9 14  1  0  0  0  0
  9 15  1  0  0  0  0
 10 16  1  0  0  0  0
 10 17  1  0  0  0  0
 10 18  1  0  0  0  0
 19 20  1  0  0  0  0
 20 21  4  0  0  0  0
 20 25  4  0  0  0  0
 21 22  4  0  0  0  0
 21 27  1  0  0  0  0
 22 23  4  0  0  0  0
 22 28  1  0  0  0  0
 23 24  4  0  0  0  0
 23 26  1  0  0  0  0
 24 25  4  0  0  0  0
 24 29  1  0  0  0  0
 25 30  1  0  0  0  0
 26 31  1  0  0  0  0
 26 32  1  0  0  0  0
M  END
> <BCLConfClusterSize>
1

> <ConfClashScore>
0 

> <ConfOneFourInteractionScore>
-0.973295 

> <ConfScore>
0.21858 

> <ConfScorePBest>
0.00609651 

> <ConfTolerance>
0.265402 

> <RosettaParamsInstructions>
M  ROOT 3
M  POLY_N_BB 3
M  POLY_CA_BB 4
M  POLY_C_BB 2
M  POLY_O_BB 5
M  POLY_IGNORE 9 10 11 12 13 14 15 16 17 18 
M  POLY_UPPER 6
M  POLY_LOWER 8
M  POLY_CHG 0
M  POLY_PROPERTIES ALPHA_AA D_AA PROTEIN AROMATIC POLYMER 
M  END

$$$$



 32 32  0  0  0  0  0  0  0  0999 V2000
   -0.2113    1.5501   -2.5322 H   0  0  0  1  0  0  0  0  0  0  0  0
   -1.2794    0.2201   -1.2867 C   0  0  0  1  0  0  0  0  0  0  0  0
    0.6627    1.5947   -0.6582 N   0  0  0  1  0  0  0  0  0  0  0  0
   -0.5171    1.5137   -1.5075 C   0  0  0  1  0  0  0  0  0  0  0  0
   -1.9378   -0.2870   -2.1939 O   0  0  0  1  0  0  0  0  0  0  0  0
   -1.2131   -0.3552   -0.0681 N   0  0  0  1  0  0  0  0  0  0  0  0
    0.7969    2.4197   -0.1465 H   0  0  0  1  0  0  0  0  0  0  0  0
    1.5763    0.6291   -0.5238 C   0  0  0  1  0  0  0  0  0  0  0  0
   -1.8549   -1.6483    0.1155 C   0  0  0  1  0  0  0  0  0  0  0  0
    2.6317    0.8641    0.5392 C   0  0  0  1  0  0  0  0  0  0  0  0
    1.5771   -0.3923   -1.2096 O   0  0  0  1  0  0  0  0  0  0  0  0
   -0.7460    0.0853    0.6723 H   0  0  0  1  0  0  0  0  0  0  0  0
   -1.7575   -2.2257   -0.7800 H   0  0  0  1  0  0  0  0  0  0  0  0
   -2.8920   -1.5035    0.3351 H   0  0  0  1  0  0  0  0  0  0  0  0
   -1.3870   -2.1665    0.9263 H   0  0  0  1  0  0  0  0  0  0  0  0
    3.5932    0.9438    0.0764 H   0  0  0  1  0  0  0  0  0  0  0  0
    2.6340    0.0441    1.2266 H   0  0  0  1  0  0  0  0  0  0  0  0
    2.4128    1.7701    1.0646 H   0  0  0  1  0  0  0  0  0  0  0  0
   -6.5347    2.1712   -3.5193 F   0  0  0  1  0  0  0  0  0  0  0  0
   -5.3171    2.2933   -2.9568 C   0  0  0  1  0  0  0  0  0  0  0  0
   -4.3039    2.8628   -3.7121 C   0  0  0  1  0  0  0  0  0  0  0  0
   -3.0377    3.0026   -3.1761 C   0  0  0  1  0  0  0  0  0  0  0  0
   -2.7822    2.5783   -1.8814 C   0  0  0  1  0  0  0  0  0  0  0  0
   -3.7926    2.0105   -1.1284 C   0  0  0  1  0  0  0  0  0  0  0  0
   -5.0626    1.8702   -1.6659 C   0  0  0  1  0  0  0  0  0  0  0  0
   -1.4208    2.7103   -1.2405 C   0  0  0  1  0  0  0  0  0  0  0  0
   -4.4964    3.1848   -4.6821 H   0  0  0  1  0  0  0  0  0  0  0  0
   -2.2764    3.4261   -3.7441 H   0  0  0  1  0  0  0  0  0  0  0  0
   -3.6000    1.6885   -0.1584 H   0  0  0  1  0  0  0  0  0  0  0  0
   -5.8239    1.4466   -1.0978 H   0  0  0  1  0  0  0  0  0  0  0  0
   -0.9464    3.5882   -1.6265 H   0  0  0  1  0  0  0  0  0  0  0  0
   -1.5505    2.8099   -0.1830 H   0  0  0  1  0  0  0  0  0  0  0  0
  1  4  1  0  0  0  0
  2  4  1  0  0  0  0
  2  5  2  0  0  0  0
  2  6  1  0  0  0  0
  3  4  1  0  0  0  0
  3  7  1  0  0  0  0
  3  8  1  0  0  0  0
  4 26  1  0  0  0  0
  6  9  1  0  0  0  0
  6 12  1  0  0  0  0
  8 10  1  0  0  0  0
  8 11  2  0  0  0  0
  9 13  1  0  0  0  0
  9 14  1  0  0  0  0
  9 15  1  0  0  0  0
 10 16  1  0  0  0  0
 10 17  1  0  0  0  0
 10 18  1  0  0  0  0
 19 20  1  0  0  0  0
 20 21  4  0  0  0  0
 20 25  4  0  0  0  0
 21 22  4  0  0  0  0
 21 27  1  0  0  0  0
 22 23  4  0  0  0  0
 22 28  1  0  0  0  0
 23 24  4  0  0  0  0
 23 26  1  0  0  0  0
 24 25  4  0  0  0  0
 24 29  1  0  0  0  0
 25 30  1  0  0  0  0
 26 31  1  0  0  0  0
 26 32  1  0  0  0  0
M  END
> <BCLConfClusterSize>
1

> <ConfClashScore>
0 

> <ConfOneFourInteractionScore>
-0.960318 

> <ConfScore>
0.222268 

> <ConfScorePBest>
0.00606803 

> <ConfTolerance>
0.244331 

> <RosettaParamsInstructions>
M  ROOT 3
M  POLY_N_BB 3
M  POLY_CA_BB 4
M  POLY_C_BB 2
M  POLY_O_BB 5
M  POLY_IGNORE 9 10 11 12 13 14 15 16 17 18 
M  POLY_UPPER 6
M  POLY_LOWER 8
M  POLY_CHG 0
M  POLY_PROPERTIES ALPHA_AA D_AA PROTEIN AROMATIC POLYMER 
M  END

$$$$



 32 32  0  0  0  0  0  0  0  0999 V2000
   -0.3117    4.0695   -0.0817 H   0  0  0  1  0  0  0  0  0  0  0  0
   -2.1956    3.9748    0.8240 C   0  0  0  1  0  0  0  0  0  0  0  0
   -1.6050    5.1896   -1.2342 N   0  0  0  1  0  0  0  0  0  0  0  0
   -1.3249    3.9936   -0.4172 C   0  0  0  1  0  0  0  0  0  0  0  0
   -2.5568    2.9109    1.3254 O   0  0  0  1  0  0  0  0  0  0  0  0
   -2.5593    5.1517    1.3577 N   0  0  0  1  0  0  0  0  0  0  0  0
   -0.8549    5.7461   -1.5307 H   0  0  0  1  0  0  0  0  0  0  0  0
   -2.8852    5.5516   -1.5949 C   0  0  0  1  0  0  0  0  0  0  0  0
   -3.3511    5.3082    2.5686 C   0  0  0  1  0  0  0  0  0  0  0  0
   -3.0103    6.8236   -2.3816 C   0  0  0  1  0  0  0  0  0  0  0  0
   -3.8324    4.8519   -1.2739 O   0  0  0  1  0  0  0  0  0  0  0  0
   -2.2698    5.9668    0.8971 H   0  0  0  1  0  0  0  0  0  0  0  0
   -4.2339    4.7077    2.4982 H   0  0  0  1  0  0  0  0  0  0  0  0
   -3.6271    6.3356    2.6837 H   0  0  0  1  0  0  0  0  0  0  0  0
   -2.7745    4.9964    3.4143 H   0  0  0  1  0  0  0  0  0  0  0  0
   -2.5628    6.6934   -3.3447 H   0  0  0  1  0  0  0  0  0  0  0  0
   -2.5124    7.6149   -1.8612 H   0  0  0  1  0  0  0  0  0  0  0  0
   -4.0450    7.0693   -2.4996 H   0  0  0  1  0  0  0  0  0  0  0  0
   -6.5556    2.1442   -3.4638 F   0  0  0  1  0  0  0  0  0  0  0  0
   -5.3127    2.2992   -2.9689 C   0  0  0  1  0  0  0  0  0  0  0  0
   -4.2921    2.8673   -3.7153 C   0  0  0  1  0  0  0  0  0  0  0  0
   -3.0296    3.0022   -3.1693 C   0  0  0  1  0  0  0  0  0  0  0  0
   -2.7852    2.5745   -1.8736 C   0  0  0  1  0  0  0  0  0  0  0  0
   -3.8029    2.0080   -1.1295 C   0  0  0  1  0  0  0  0  0  0  0  0
   -5.0693    1.8726   -1.6769 C   0  0  0  1  0  0  0  0  0  0  0  0
   -1.4071    2.7271   -1.2744 C   0  0  0  1  0  0  0  0  0  0  0  0
   -4.4763    3.1919   -4.6860 H   0  0  0  1  0  0  0  0  0  0  0  0
   -2.2628    3.4248   -3.7307 H   0  0  0  1  0  0  0  0  0  0  0  0
   -3.6187    1.6834   -0.1588 H   0  0  0  1  0  0  0  0  0  0  0  0
   -5.8360    1.4501   -1.1156 H   0  0  0  1  0  0  0  0  0  0  0  0
   -1.1941    1.8752   -0.6630 H   0  0  0  1  0  0  0  0  0  0  0  0
   -0.6866    2.7898   -2.0630 H   0  0  0  1  0  0  0  0  0  0  0  0
  1  4  1  0  0  0  0
  2  4  1  0  0  0  0
  2  5  2  0  0  0  0
  2  6  1  0  0  0  0
  3  4  1  0  0  0  0
  3  7  1  0  0  0  0
  3  8  1  0  0  0  0
  4 26  1  0  0  0  0
  6  9  1  0  0  0  0
  6 12  1  0  0  0  0
  8 10  1  0  0  0  0
  8 11  2  0  0  0  0
  9 13  1  0  0  0  0
  9 14  1  0  0  0  0
  9 15  1  0  0  0  0
 10 16  1  0  0  0  0
 10 17  1  0  0  0  0
 10 18  1  0  0  0  0
 19 20  1  0  0  0  0
 20 21  4  0  0  0  0
 20 25  4  0  0  0  0
 21 22  4  0  0  0  0
 21 27  1  0  0  0  0
 22 23  4  0  0  0  0
 22 28  1  0  0  0  0
 23 24  4  0  0  0  0
 23 26  1  0  0  0  0
 24 25  4  0  0  0  0
 24 29  1  0  0  0  0
 25 30  1  0  0  0  0
 26 31  1  0  0  0  0
 26 32  1  0  0  0  0
M  END
> <BCLConfClusterSize>
1

> <ConfClashScore>
0 

> <ConfOneFourInteractionScore>
-0.947651 

> <ConfScore>
0.222646 

> <ConfScorePBest>
0.00603955 

> <ConfTolerance>
0.162454 

> <RosettaParamsInstructions>
M  ROOT 3
M  POLY_N_BB 3
M  POLY_CA_BB 4
M  POLY_C_BB 2
M  POLY_O_BB 5
M  POLY_IGNORE 9 10 11 12 13 14 15 16 17 18 
M  POLY_UPPER 6
M  POLY_LOWER 8
M  POLY_CHG 0
M  POLY_PROPERTIES ALPHA_AA D_AA PROTEIN AROMATIC POLYMER 
M  END

$$$$



 32 32  0  0  0  0  0  0  0  0999 V2000
    0.4751    1.8818   -1.0377 H   0  0  0  1  0  0  0  0  0  0  0  0
   -0.0427    1.6982   -3.0626 C   0  0  0  1  0  0  0  0  0  0  0  0
   -0.9299    0.3852   -1.1792 N   0  0  0  1  0  0  0  0  0  0  0  0
   -0.4144    1.6803   -1.5972 C   0  0  0  1  0  0  0  0  0  0  0  0
    0.3633    2.7287   -3.5981 O   0  0  0  1  0  0  0  0  0  0  0  0
   -0.1691    0.5577   -3.7598 N   0  0  0  1  0  0  0  0  0  0  0  0
   -1.8938    0.2842   -1.0340 H   0  0  0  1  0  0  0  0  0  0  0  0
   -0.1268   -0.6814   -0.9845 C   0  0  0  1  0  0  0  0  0  0  0  0
    0.1021    0.4165   -5.1826 C   0  0  0  1  0  0  0  0  0  0  0  0
   -0.7769   -2.0172   -0.6808 C   0  0  0  1  0  0  0  0  0  0  0  0
    1.0971   -0.5759   -1.0510 O   0  0  0  1  0  0  0  0  0  0  0  0
   -0.4663   -0.2398   -3.2739 H   0  0  0  1  0  0  0  0  0  0  0  0
   -0.3372   -0.4906   -5.5416 H   0  0  0  1  0  0  0  0  0  0  0  0
    1.1597    0.3882   -5.3427 H   0  0  0  1  0  0  0  0  0  0  0  0
   -0.3167    1.2483   -5.7095 H   0  0  0  1  0  0  0  0  0  0  0  0
   -0.4823   -2.7338   -1.4187 H   0  0  0  1  0  0  0  0  0  0  0  0
   -1.8412   -1.9072   -0.6957 H   0  0  0  1  0  0  0  0  0  0  0  0
   -0.4661   -2.3531    0.2864 H   0  0  0  1  0  0  0  0  0  0  0  0
   -6.5601    2.1626   -3.4575 F   0  0  0  1  0  0  0  0  0  0  0  0
   -5.3140    2.3048   -2.9666 C   0  0  0  1  0  0  0  0  0  0  0  0
   -4.2910    2.8664   -3.7147 C   0  0  0  1  0  0  0  0  0  0  0  0
   -3.0254    2.9881   -3.1729 C   0  0  0  1  0  0  0  0  0  0  0  0
   -2.7802    2.5537   -1.8796 C   0  0  0  1  0  0  0  0  0  0  0  0
   -3.8002    1.9937   -1.1338 C   0  0  0  1  0  0  0  0  0  0  0  0
   -5.0697    1.8715   -1.6770 C   0  0  0  1  0  0  0  0  0  0  0  0
   -1.4213    2.7847   -1.2620 C   0  0  0  1  0  0  0  0  0  0  0  0
   -4.4759    3.1960   -4.6836 H   0  0  0  1  0  0  0  0  0  0  0  0
   -2.2570    3.4058   -3.7356 H   0  0  0  1  0  0  0  0  0  0  0  0
   -3.6153    1.6641   -0.1649 H   0  0  0  1  0  0  0  0  0  0  0  0
   -5.8382    1.4539   -1.1144 H   0  0  0  1  0  0  0  0  0  0  0  0
   -1.0374    3.7162   -1.6222 H   0  0  0  1  0  0  0  0  0  0  0  0
   -1.5338    2.8318   -0.1990 H   0  0  0  1  0  0  0  0  0  0  0  0
  1  4  1  0  0  0  0
  2  4  1  0  0  0  0
  2  5  2  0  0  0  0
  2  6  1  0  0  0  0
  3  4  1  0  0  0  0
  3  7  1  0  0  0  0
  3  8  1  0  0  0  0
  4 26  1  0  0  0  0
  6  9  1  0  0  0  0
  6 12  1  0  0  0  0
  8 10  1  0  0  0  0
  8 11  2  0  0  0  0
  9 13  1  0  0  0  0
  9 14  1  0  0  0  0
  9 15  1  0  0  0  0
 10 16  1  0  0  0  0
 10 17  1  0  0  0  0
 10 18  1  0  0  0  0
 19 20  1  0  0  0  0
 20 21  4  0  0  0  0
 20 25  4  0  0  0  0
 21 22  4  0  0  0  0
 21 27  1  0  0  0  0
 22 23  4  0  0  0  0
 22 28  1  0  0  0  0
 23 24  4  0  0  0  0
 23 26  1  0  0  0  0
 24 25  4  0  0  0  0
 24 29  1  0  0  0  0
 25 30  1  0  0  0  0
 26 31  1  0  0  0  0
 26 32  1  0  0  0  0
M  END
> <BCLConfClusterSize>
1

> <ConfClashScore>
0 

> <ConfOneFourInteractionScore>
-0.931937 

> <ConfScore>
0.231416 

> <ConfScorePBest>
0.00601107 

> <ConfTolerance>
0.22996 

> <RosettaParamsInstructions>
M  ROOT 3
M  POLY_N_BB 3
M  POLY_CA_BB 4
M  POLY_C_BB 2
M  POLY_O_BB 5
M  POLY_IGNORE 9 10 11 12 13 14 15 16 17 18 
M  POLY_UPPER 6
M  POLY_LOWER 8
M  POLY_CHG 0
M  POLY_PROPERTIES ALPHA_AA D_AA PROTEIN AROMATIC POLYMER 
M  END

$$$$



 32 32  0  0  0  0  0  0  0  0999 V2000
   -0.5636    3.3074   -3.1801 H   0  0  0  1  0  0  0  0  0  0  0  0
    0.9336    3.6603   -1.7403 C   0  0  0  1  0  0  0  0  0  0  0  0
   -1.0980    5.0144   -2.1378 N   0  0  0  1  0  0  0  0  0  0  0  0
   -0.5207    3.6673   -2.1733 C   0  0  0  1  0  0  0  0  0  0  0  0
    1.5894    2.6193   -1.7485 O   0  0  0  1  0  0  0  0  0  0  0  0
    1.4810    4.8212   -1.3493 N   0  0  0  1  0  0  0  0  0  0  0  0
   -1.6864    5.2573   -1.3927 H   0  0  0  1  0  0  0  0  0  0  0  0
   -0.8499    5.9224   -3.0860 C   0  0  0  1  0  0  0  0  0  0  0  0
    2.8817    4.9316   -0.9704 C   0  0  0  1  0  0  0  0  0  0  0  0
   -1.5190    7.2701   -2.8986 C   0  0  0  1  0  0  0  0  0  0  0  0
   -0.1335    5.6994   -4.0480 O   0  0  0  1  0  0  0  0  0  0  0  0
    0.9179    5.6227   -1.3179 H   0  0  0  1  0  0  0  0  0  0  0  0
    3.4976    4.5896   -1.7757 H   0  0  0  1  0  0  0  0  0  0  0  0
    3.0645    4.3327   -0.1027 H   0  0  0  1  0  0  0  0  0  0  0  0
    3.1129    5.9537   -0.7541 H   0  0  0  1  0  0  0  0  0  0  0  0
   -1.2156    7.6926   -1.9636 H   0  0  0  1  0  0  0  0  0  0  0  0
   -2.5816    7.1444   -2.9049 H   0  0  0  1  0  0  0  0  0  0  0  0
   -1.2320    7.9243   -3.6952 H   0  0  0  1  0  0  0  0  0  0  0  0
   -6.5436    2.1603   -3.4973 F   0  0  0  1  0  0  0  0  0  0  0  0
   -5.3149    2.2961   -2.9625 C   0  0  0  1  0  0  0  0  0  0  0  0
   -4.2936    2.8641   -3.7080 C   0  0  0  1  0  0  0  0  0  0  0  0
   -3.0315    2.9985   -3.1610 C   0  0  0  1  0  0  0  0  0  0  0  0
   -2.7882    2.5704   -1.8653 C   0  0  0  1  0  0  0  0  0  0  0  0
   -3.8067    2.0042   -1.1220 C   0  0  0  1  0  0  0  0  0  0  0  0
   -5.0726    1.8692   -1.6705 C   0  0  0  1  0  0  0  0  0  0  0  0
   -1.3927    2.7464   -1.3147 C   0  0  0  1  0  0  0  0  0  0  0  0
   -4.4770    3.1890   -4.6788 H   0  0  0  1  0  0  0  0  0  0  0  0
   -2.2642    3.4210   -3.7217 H   0  0  0  1  0  0  0  0  0  0  0  0
   -3.6232    1.6793   -0.1513 H   0  0  0  1  0  0  0  0  0  0  0  0
   -5.8400    1.4467   -1.1098 H   0  0  0  1  0  0  0  0  0  0  0  0
   -1.4644    3.1640   -0.3322 H   0  0  0  1  0  0  0  0  0  0  0  0
   -0.9241    1.7860   -1.2612 H   0  0  0  1  0  0  0  0  0  0  0  0
  1  4  1  0  0  0  0
  2  4  1  0  0  0  0
  2  5  2  0  0  0  0
  2  6  1  0  0  0  0
  3  4  1  0  0  0  0
  3  7  1  0  0  0  0
  3  8  1  0  0  0  0
  4 26  1  0  0  0  0
  6  9  1  0  0  0  0
  6 12  1  0  0  0  0
  8 10  1  0  0  0  0
  8 11  2  0  0  0  0
  9 13  1  0  0  0  0
  9 14  1  0  0  0  0
  9 15  1  0  0  0  0
 10 16  1  0  0  0  0
 10 17  1  0  0  0  0
 10 18  1  0  0  0  0
 19 20  1  0  0  0  0
 20 21  4  0  0  0  0
 20 25  4  0  0  0  0
 21 22  4  0  0  0  0
 21 27  1  0  0  0  0
 22 23  4  0  0  0  0
 22 28  1  0  0  0  0
 23 24  4  0  0  0  0
 23 26  1  0  0  0  0
 24 25  4  0  0  0  0
 24 29  1  0  0  0  0
 25 30  1  0  0  0  0
 26 31  1  0  0  0  0
 26 32  1  0  0  0  0
M  END
> <BCLConfClusterSize>
1

> <ConfClashScore>
0 

> <ConfOneFourInteractionScore>
-0.949001 

> <ConfScore>
0.23188 

> <ConfScorePBest>
0.00598259 

> <ConfTolerance>
0.293812 

> <RosettaParamsInstructions>
M  ROOT 3
M  POLY_N_BB 3
M  POLY_CA_BB 4
M  POLY_C_BB 2
M  POLY_O_BB 5
M  POLY_IGNORE 9 10 11 12 13 14 15 16 17 18 
M  POLY_UPPER 6
M  POLY_LOWER 8
M  POLY_CHG 0
M  POLY_PROPERTIES ALPHA_AA D_AA PROTEIN AROMATIC POLYMER 
M  END

$$$$



 32 32  0  0  0  0  0  0  0  0999 V2000
   -1.0869    0.6250   -1.3876 H   0  0  0  1  0  0  0  0  0  0  0  0
    0.7403    1.4729   -0.7858 C   0  0  0  1  0  0  0  0  0  0  0  0
   -0.2628    1.5590   -3.0336 N   0  0  0  1  0  0  0  0  0  0  0  0
   -0.5325    1.5149   -1.6009 C   0  0  0  1  0  0  0  0  0  0  0  0
    0.7091    1.2365    0.4190 O   0  0  0  1  0  0  0  0  0  0  0  0
    1.9023    1.7012   -1.4179 N   0  0  0  1  0  0  0  0  0  0  0  0
   -0.5469    2.3586   -3.5238 H   0  0  0  1  0  0  0  0  0  0  0  0
    0.3415    0.5928   -3.7270 C   0  0  0  1  0  0  0  0  0  0  0  0
    3.2288    1.7856   -0.8252 C   0  0  0  1  0  0  0  0  0  0  0  0
    0.2274    0.6946   -5.2356 C   0  0  0  1  0  0  0  0  0  0  0  0
    0.9566   -0.3298   -3.1940 O   0  0  0  1  0  0  0  0  0  0  0  0
    1.8517    1.8252   -2.3887 H   0  0  0  1  0  0  0  0  0  0  0  0
    3.3012    1.0944   -0.0117 H   0  0  0  1  0  0  0  0  0  0  0  0
    3.3956    2.7791   -0.4647 H   0  0  0  1  0  0  0  0  0  0  0  0
    3.9650    1.5454   -1.5636 H   0  0  0  1  0  0  0  0  0  0  0  0
   -0.6592    1.2364   -5.4910 H   0  0  0  1  0  0  0  0  0  0  0  0
    0.1784   -0.2879   -5.6564 H   0  0  0  1  0  0  0  0  0  0  0  0
    1.0826    1.2072   -5.6239 H   0  0  0  1  0  0  0  0  0  0  0  0
   -6.5347    2.1712   -3.5193 F   0  0  0  1  0  0  0  0  0  0  0  0
   -5.3171    2.2933   -2.9568 C   0  0  0  1  0  0  0  0  0  0  0  0
   -4.3039    2.8628   -3.7121 C   0  0  0  1  0  0  0  0  0  0  0  0
   -3.0377    3.0026   -3.1761 C   0  0  0  1  0  0  0  0  0  0  0  0
   -2.7822    2.5783   -1.8814 C   0  0  0  1  0  0  0  0  0  0  0  0
   -3.7926    2.0105   -1.1284 C   0  0  0  1  0  0  0  0  0  0  0  0
   -5.0626    1.8702   -1.6659 C   0  0  0  1  0  0  0  0  0  0  0  0
   -1.4208    2.7103   -1.2405 C   0  0  0  1  0  0  0  0  0  0  0  0
   -4.4964    3.1848   -4.6821 H   0  0  0  1  0  0  0  0  0  0  0  0
   -2.2764    3.4261   -3.7441 H   0  0  0  1  0  0  0  0  0  0  0  0
   -3.6000    1.6885   -0.1584 H   0  0  0  1  0  0  0  0  0  0  0  0
   -5.8239    1.4466   -1.0978 H   0  0  0  1  0  0  0  0  0  0  0  0
   -0.9560    3.6098   -1.5864 H   0  0  0  1  0  0  0  0  0  0  0  0
   -1.5362    2.7538   -0.1776 H   0  0  0  1  0  0  0  0  0  0  0  0
  1  4  1  0  0  0  0
  2  4  1  0  0  0  0
  2  5  2  0  0  0  0
  2  6  1  0  0  0  0
  3  4  1  0  0  0  0
  3  7  1  0  0  0  0
  3  8  1  0  0  0  0
  4 26  1  0  0  0  0
  6  9  1  0  0  0  0
  6 12  1  0  0  0  0
  8 10  1  0  0  0  0
  8 11  2  0  0  0  0
  9 13  1  0  0  0  0
  9 14  1  0  0  0  0
  9 15  1  0  0  0  0
 10 16  1  0  0  0  0
 10 17  1  0  0  0  0
 10 18  1  0  0  0  0
 19 20  1  0  0  0  0
 20 21  4  0  0  0  0
 20 25  4  0  0  0  0
 21 22  4  0  0  0  0
 21 27  1  0  0  0  0
 22 23  4  0  0  0  0
 22 28  1  0  0  0  0
 23 24  4  0  0  0  0
 23 26  1  0  0  0  0
 24 25  4  0  0  0  0
 24 29  1  0  0  0  0
 25 30  1  0  0  0  0
 26 31  1  0  0  0  0
 26 32  1  0  0  0  0
M  END
> <BCLConfClusterSize>
1

> <ConfClashScore>
0 

> <ConfOneFourInteractionScore>
-0.956443 

> <ConfScore>
0.232652 

> <ConfScorePBest>
0.00595411 

> <ConfTolerance>
0.282568 

> <RosettaParamsInstructions>
M  ROOT 3
M  POLY_N_BB 3
M  POLY_CA_BB 4
M  POLY_C_BB 2
M  POLY_O_BB 5
M  POLY_IGNORE 9 10 11 12 13 14 15 16 17 18 
M  POLY_UPPER 6
M  POLY_LOWER 8
M  POLY_CHG 0
M  POLY_PROPERTIES ALPHA_AA D_AA PROTEIN AROMATIC POLYMER 
M  END

$$$$



 32 32  0  0  0  0  0  0  0  0999 V2000
   -0.0643    4.2763   -0.6660 H   0  0  0  1  0  0  0  0  0  0  0  0
   -2.0541    5.0351   -0.6223 C   0  0  0  1  0  0  0  0  0  0  0  0
   -0.6791    4.6709   -2.6138 N   0  0  0  1  0  0  0  0  0  0  0  0
   -0.9490    4.2010   -1.2631 C   0  0  0  1  0  0  0  0  0  0  0  0
   -2.1306    5.1635    0.5989 O   0  0  0  1  0  0  0  0  0  0  0  0
   -2.9204    5.6077   -1.4731 N   0  0  0  1  0  0  0  0  0  0  0  0
   -1.2193    5.4039   -2.9763 H   0  0  0  1  0  0  0  0  0  0  0  0
    0.2795    4.1379   -3.3767 C   0  0  0  1  0  0  0  0  0  0  0  0
   -3.9861    6.4897   -1.0211 C   0  0  0  1  0  0  0  0  0  0  0  0
    0.3636    4.6680   -4.7948 C   0  0  0  1  0  0  0  0  0  0  0  0
    1.0536    3.2716   -2.9719 O   0  0  0  1  0  0  0  0  0  0  0  0
   -2.8321    5.4255   -2.4320 H   0  0  0  1  0  0  0  0  0  0  0  0
   -3.5656    7.4131   -0.6815 H   0  0  0  1  0  0  0  0  0  0  0  0
   -4.5179    6.0236   -0.2181 H   0  0  0  1  0  0  0  0  0  0  0  0
   -4.6583    6.6807   -1.8313 H   0  0  0  1  0  0  0  0  0  0  0  0
    0.3971    5.7373   -4.7750 H   0  0  0  1  0  0  0  0  0  0  0  0
   -0.4958    4.3485   -5.3464 H   0  0  0  1  0  0  0  0  0  0  0  0
    1.2490    4.2923   -5.2638 H   0  0  0  1  0  0  0  0  0  0  0  0
   -6.5543    2.1459   -3.4674 F   0  0  0  1  0  0  0  0  0  0  0  0
   -5.3127    2.2991   -2.9686 C   0  0  0  1  0  0  0  0  0  0  0  0
   -4.2892    2.8666   -3.7115 C   0  0  0  1  0  0  0  0  0  0  0  0
   -3.0282    2.9997   -3.1617 C   0  0  0  1  0  0  0  0  0  0  0  0
   -2.7881    2.5706   -1.8656 C   0  0  0  1  0  0  0  0  0  0  0  0
   -3.8087    2.0047   -1.1250 C   0  0  0  1  0  0  0  0  0  0  0  0
   -5.0736    1.8712   -1.6763 C   0  0  0  1  0  0  0  0  0  0  0  0
   -1.3937    2.7451   -1.3119 C   0  0  0  1  0  0  0  0  0  0  0  0
   -4.4702    3.1923   -4.6825 H   0  0  0  1  0  0  0  0  0  0  0  0
   -2.2593    3.4218   -3.7204 H   0  0  0  1  0  0  0  0  0  0  0  0
   -3.6277    1.6791   -0.1541 H   0  0  0  1  0  0  0  0  0  0  0  0
   -5.8425    1.4490   -1.1176 H   0  0  0  1  0  0  0  0  0  0  0  0
   -1.3697    2.3482   -0.3185 H   0  0  0  1  0  0  0  0  0  0  0  0
   -0.7110    2.2010   -1.9306 H   0  0  0  1  0  0  0  0  0  0  0  0
  1  4  1  0  0  0  0
  2  4  1  0  0  0  0
  2  5  2  0  0  0  0
  2  6  1  0  0  0  0
  3  4  1  0  0  0  0
  3  7  1  0  0  0  0
  3  8  1  0  0  0  0
  4 26  1  0  0  0  0
  6  9  1  0  0  0  0
  6 12  1  0  0  0  0
  8 10  1  0  0  0  0
  8 11  2  0  0  0  0
  9 13  1  0  0  0  0
  9 14  1  0  0  0  0
  9 15  1  0  0  0  0
 10 16  1  0  0  0  0
 10 17  1  0  0  0  0
 10 18  1  0  0  0  0
 19 20  1  0  0  0  0
 20 21  4  0  0  0  0
 20 25  4  0  0  0  0
 21 22  4  0  0  0  0
 21 27  1  0  0  0  0
 22 23  4  0  0  0  0
 22 28  1  0  0  0  0
 23 24  4  0  0  0  0
 23 26  1  0  0  0  0
 24 25  4  0  0  0  0
 24 29  1  0  0  0  0
 25 30  1  0  0  0  0
 26 31  1  0  0  0  0
 26 32  1  0  0  0  0
M  END
> <BCLConfClusterSize>
1

> <ConfClashScore>
0 

> <ConfOneFourInteractionScore>
-0.959103 

> <ConfScore>
0.232747 

> <ConfScorePBest>
0.00592562 

> <ConfTolerance>
0.495303 

> <RosettaParamsInstructions>
M  ROOT 3
M  POLY_N_BB 3
M  POLY_CA_BB 4
M  POLY_C_BB 2
M  POLY_O_BB 5
M  POLY_IGNORE 9 10 11 12 13 14 15 16 17 18 
M  POLY_UPPER 6
M  POLY_LOWER 8
M  POLY_CHG 0
M  POLY_PROPERTIES ALPHA_AA D_AA PROTEIN AROMATIC POLYMER 
M  END

$$$$



 32 32  0  0  0  0  0  0  0  0999 V2000
   -1.8525    3.8680    0.4425 H   0  0  0  1  0  0  0  0  0  0  0  0
   -1.7817    5.2171   -1.1674 C   0  0  0  1  0  0  0  0  0  0  0  0
    0.1304    4.1658   -0.0205 N   0  0  0  1  0  0  0  0  0  0  0  0
   -1.2544    3.9983   -0.4352 C   0  0  0  1  0  0  0  0  0  0  0  0
   -1.0265    6.0743   -1.5956 O   0  0  0  1  0  0  0  0  0  0  0  0
   -3.1062    5.2815   -1.3061 N   0  0  0  1  0  0  0  0  0  0  0  0
    0.7837    3.4773   -0.2645 H   0  0  0  1  0  0  0  0  0  0  0  0
    0.5421    5.2255    0.6813 C   0  0  0  1  0  0  0  0  0  0  0  0
   -3.7763    6.4612   -1.8326 C   0  0  0  1  0  0  0  0  0  0  0  0
    2.0357    5.3124    0.9280 C   0  0  0  1  0  0  0  0  0  0  0  0
   -0.2253    6.0846    1.1074 O   0  0  0  1  0  0  0  0  0  0  0  0
   -3.6473    4.5075   -1.0444 H   0  0  0  1  0  0  0  0  0  0  0  0
   -3.0457    7.1633   -2.1765 H   0  0  0  1  0  0  0  0  0  0  0  0
   -4.3664    6.9100   -1.0611 H   0  0  0  1  0  0  0  0  0  0  0  0
   -4.4093    6.1777   -2.6473 H   0  0  0  1  0  0  0  0  0  0  0  0
    2.5458    5.4277   -0.0055 H   0  0  0  1  0  0  0  0  0  0  0  0
    2.3702    4.4169    1.4086 H   0  0  0  1  0  0  0  0  0  0  0  0
    2.2450    6.1539    1.5549 H   0  0  0  1  0  0  0  0  0  0  0  0
   -6.5332    2.1730   -3.5231 F   0  0  0  1  0  0  0  0  0  0  0  0
   -5.3173    2.2932   -2.9566 C   0  0  0  1  0  0  0  0  0  0  0  0
   -4.3009    2.8621   -3.7082 C   0  0  0  1  0  0  0  0  0  0  0  0
   -3.0363    2.9999   -3.1680 C   0  0  0  1  0  0  0  0  0  0  0  0
   -2.7855    2.5741   -1.8729 C   0  0  0  1  0  0  0  0  0  0  0  0
   -3.7989    2.0069   -1.1236 C   0  0  0  1  0  0  0  0  0  0  0  0
   -5.0674    1.8686   -1.6653 C   0  0  0  1  0  0  0  0  0  0  0  0
   -1.4050    2.7298   -1.2800 C   0  0  0  1  0  0  0  0  0  0  0  0
   -4.4900    3.1852   -4.6785 H   0  0  0  1  0  0  0  0  0  0  0  0
   -2.2727    3.4230   -3.7333 H   0  0  0  1  0  0  0  0  0  0  0  0
   -3.6098    1.6838   -0.1533 H   0  0  0  1  0  0  0  0  0  0  0  0
   -5.8310    1.4455   -1.1000 H   0  0  0  1  0  0  0  0  0  0  0  0
   -1.2031    1.8816   -0.6597 H   0  0  0  1  0  0  0  0  0  0  0  0
   -0.6935    2.7658   -2.0784 H   0  0  0  1  0  0  0  0  0  0  0  0
  1  4  1  0  0  0  0
  2  4  1  0  0  0  0
  2  5  2  0  0  0  0
  2  6  1  0  0  0  0
  3  4  1  0  0  0  0
  3  7  1  0  0  0  0
  3  8  1  0  0  0  0
  4 26  1  0  0  0  0
  6  9  1  0  0  0  0
  6 12  1  0  0  0  0
  8 10  1  0  0  0  0
  8 11  2  0  0  0  0
  9 13  1  0  0  0  0
  9 14  1  0  0  0  0
  9 15  1  0  0  0  0
 10 16  1  0  0  0  0
 10 17  1  0  0  0  0
 10 18  1  0  0  0  0
 19 20  1  0  0  0  0
 20 21  4  0  0  0  0
 20 25  4  0  0  0  0
 21 22  4  0  0  0  0
 21 27  1  0  0  0  0
 22 23  4  0  0  0  0
 22 28  1  0  0  0  0
 23 24  4  0  0  0  0
 23 26  1  0  0  0  0
 24 25  4  0  0  0  0
 24 29  1  0  0  0  0
 25 30  1  0  0  0  0
 26 31  1  0  0  0  0
 26 32  1  0  0  0  0
M  END
> <BCLConfClusterSize>
1

> <ConfClashScore>
0 

> <ConfOneFourInteractionScore>
-0.985807 

> <ConfScore>
0.232771 

> <ConfScorePBest>
0.00589714 

> <ConfTolerance>
0.386218 

> <RosettaParamsInstructions>
M  ROOT 3
M  POLY_N_BB 3
M  POLY_CA_BB 4
M  POLY_C_BB 2
M  POLY_O_BB 5
M  POLY_IGNORE 9 10 11 12 13 14 15 16 17 18 
M  POLY_UPPER 6
M  POLY_LOWER 8
M  POLY_CHG 0
M  POLY_PROPERTIES ALPHA_AA D_AA PROTEIN AROMATIC POLYMER 
M  END

$$$$



 32 32  0  0  0  0  0  0  0  0999 V2000
   -1.9966    3.8478    0.3787 H   0  0  0  1  0  0  0  0  0  0  0  0
   -1.6084    5.2674   -1.0933 C   0  0  0  1  0  0  0  0  0  0  0  0
    0.0417    4.0019    0.2593 N   0  0  0  1  0  0  0  0  0  0  0  0
   -1.2711    3.9620   -0.3995 C   0  0  0  1  0  0  0  0  0  0  0  0
   -1.9325    6.2570   -0.4576 O   0  0  0  1  0  0  0  0  0  0  0  0
   -1.5257    5.2541   -2.4331 N   0  0  0  1  0  0  0  0  0  0  0  0
    0.1596    3.5262    1.1079 H   0  0  0  1  0  0  0  0  0  0  0  0
    1.0802    4.6641   -0.2584 C   0  0  0  1  0  0  0  0  0  0  0  0
   -1.9185    6.4261   -3.2012 C   0  0  0  1  0  0  0  0  0  0  0  0
    2.3964    4.6089    0.5274 C   0  0  0  1  0  0  0  0  0  0  0  0
    1.0409    5.2279   -1.3397 O   0  0  0  1  0  0  0  0  0  0  0  0
   -1.2001    4.4534   -2.8950 H   0  0  0  1  0  0  0  0  0  0  0  0
   -2.4292    6.1166   -4.0891 H   0  0  0  1  0  0  0  0  0  0  0  0
   -1.0466    6.9859   -3.4683 H   0  0  0  1  0  0  0  0  0  0  0  0
   -2.5686    7.0376   -2.6109 H   0  0  0  1  0  0  0  0  0  0  0  0
    2.4107    3.7311    1.1391 H   0  0  0  1  0  0  0  0  0  0  0  0
    2.4779    5.4769    1.1476 H   0  0  0  1  0  0  0  0  0  0  0  0
    3.2189    4.5801   -0.1565 H   0  0  0  1  0  0  0  0  0  0  0  0
   -6.5450    2.1585   -3.4937 F   0  0  0  1  0  0  0  0  0  0  0  0
   -5.3149    2.2962   -2.9627 C   0  0  0  1  0  0  0  0  0  0  0  0
   -4.2965    2.8647   -3.7117 C   0  0  0  1  0  0  0  0  0  0  0  0
   -3.0329    3.0011   -3.1686 C   0  0  0  1  0  0  0  0  0  0  0  0
   -2.7853    2.5743   -1.8732 C   0  0  0  1  0  0  0  0  0  0  0  0
   -3.8009    2.0075   -1.1265 C   0  0  0  1  0  0  0  0  0  0  0  0
   -5.0683    1.8706   -1.6711 C   0  0  0  1  0  0  0  0  0  0  0  0
   -1.4060    2.7284   -1.2772 C   0  0  0  1  0  0  0  0  0  0  0  0
   -4.4831    3.1886   -4.6822 H   0  0  0  1  0  0  0  0  0  0  0  0
   -2.2677    3.4239   -3.7319 H   0  0  0  1  0  0  0  0  0  0  0  0
   -3.6142    1.6836   -0.1560 H   0  0  0  1  0  0  0  0  0  0  0  0
   -5.8335    1.4478   -1.1078 H   0  0  0  1  0  0  0  0  0  0  0  0
   -1.1926    1.8636   -0.6843 H   0  0  0  1  0  0  0  0  0  0  0  0
   -0.6962    2.7986   -2.0748 H   0  0  0  1  0  0  0  0  0  0  0  0
  1  4  1  0  0  0  0
  2  4  1  0  0  0  0
  2  5  2  0  0  0  0
  2  6  1  0  0  0  0
  3  4  1  0  0  0  0
  3  7  1  0  0  0  0
  3  8  1  0  0  0  0
  4 26  1  0  0  0  0
  6  9  1  0  0  0  0
  6 12  1  0  0  0  0
  8 10  1  0  0  0  0
  8 11  2  0  0  0  0
  9 13  1  0  0  0  0
  9 14  1  0  0  0  0
  9 15  1  0  0  0  0
 10 16  1  0  0  0  0
 10 17  1  0  0  0  0
 10 18  1  0  0  0  0
 19 20  1  0  0  0  0
 20 21  4  0  0  0  0
 20 25  4  0  0  0  0
 21 22  4  0  0  0  0
 21 27  1  0  0  0  0
 22 23  4  0  0  0  0
 22 28  1  0  0  0  0
 23 24  4  0  0  0  0
 23 26  1  0  0  0  0
 24 25  4  0  0  0  0
 24 29  1  0  0  0  0
 25 30  1  0  0  0  0
 26 31  1  0  0  0  0
 26 32  1  0  0  0  0
M  END
> <BCLConfClusterSize>
1

> <ConfClashScore>
0 

> <ConfOneFourInteractionScore>
-0.927621 

> <ConfScore>
0.234426 

> <ConfScorePBest>
0.00586866 

> <ConfTolerance>
0.357881 

> <RosettaParamsInstructions>
M  ROOT 3
M  POLY_N_BB 3
M  POLY_CA_BB 4
M  POLY_C_BB 2
M  POLY_O_BB 5
M  POLY_IGNORE 9 10 11 12 13 14 15 16 17 18 
M  POLY_UPPER 6
M  POLY_LOWER 8
M  POLY_CHG 0
M  POLY_PROPERTIES ALPHA_AA D_AA PROTEIN AROMATIC POLYMER 
M  END

$$$$



 32 32  0  0  0  0  0  0  0  0999 V2000
   -1.2949    4.8056   -1.5970 H   0  0  0  1  0  0  0  0  0  0  0  0
    0.4250    4.2820   -0.4998 C   0  0  0  1  0  0  0  0  0  0  0  0
   -1.8893    4.4523    0.3543 N   0  0  0  1  0  0  0  0  0  0  0  0
   -1.0523    4.1284   -0.8049 C   0  0  0  1  0  0  0  0  0  0  0  0
    1.2666    3.6375   -1.1200 O   0  0  0  1  0  0  0  0  0  0  0  0
    0.7834    5.1410    0.4655 N   0  0  0  1  0  0  0  0  0  0  0  0
   -2.7004    4.9896    0.2369 H   0  0  0  1  0  0  0  0  0  0  0  0
   -1.5486    4.0166    1.5705 C   0  0  0  1  0  0  0  0  0  0  0  0
    2.1801    5.2596    0.8565 C   0  0  0  1  0  0  0  0  0  0  0  0
   -2.4269    4.5270    2.7105 C   0  0  0  1  0  0  0  0  0  0  0  0
   -0.5633    3.3185    1.7947 O   0  0  0  1  0  0  0  0  0  0  0  0
    0.1033    5.6900    0.9087 H   0  0  0  1  0  0  0  0  0  0  0  0
    2.6616    4.3095    0.7542 H   0  0  0  1  0  0  0  0  0  0  0  0
    2.2390    5.5811    1.8753 H   0  0  0  1  0  0  0  0  0  0  0  0
    2.6668    5.9753    0.2273 H   0  0  0  1  0  0  0  0  0  0  0  0
   -3.4271    4.1707    2.5778 H   0  0  0  1  0  0  0  0  0  0  0  0
   -2.4267    5.5970    2.7090 H   0  0  0  1  0  0  0  0  0  0  0  0
   -2.0426    4.1711    3.6434 H   0  0  0  1  0  0  0  0  0  0  0  0
   -6.5556    2.1442   -3.4638 F   0  0  0  1  0  0  0  0  0  0  0  0
   -5.3127    2.2992   -2.9689 C   0  0  0  1  0  0  0  0  0  0  0  0
   -4.2921    2.8673   -3.7153 C   0  0  0  1  0  0  0  0  0  0  0  0
   -3.0296    3.0022   -3.1693 C   0  0  0  1  0  0  0  0  0  0  0  0
   -2.7852    2.5745   -1.8736 C   0  0  0  1  0  0  0  0  0  0  0  0
   -3.8029    2.0080   -1.1295 C   0  0  0  1  0  0  0  0  0  0  0  0
   -5.0693    1.8726   -1.6769 C   0  0  0  1  0  0  0  0  0  0  0  0
   -1.4071    2.7271   -1.2744 C   0  0  0  1  0  0  0  0  0  0  0  0
   -4.4763    3.1919   -4.6860 H   0  0  0  1  0  0  0  0  0  0  0  0
   -2.2628    3.4248   -3.7307 H   0  0  0  1  0  0  0  0  0  0  0  0
   -3.6187    1.6834   -0.1588 H   0  0  0  1  0  0  0  0  0  0  0  0
   -5.8360    1.4501   -1.1156 H   0  0  0  1  0  0  0  0  0  0  0  0
   -1.3385    2.0697   -0.4329 H   0  0  0  1  0  0  0  0  0  0  0  0
   -0.6913    2.4358   -2.0145 H   0  0  0  1  0  0  0  0  0  0  0  0
  1  4  1  0  0  0  0
  2  4  1  0  0  0  0
  2  5  2  0  0  0  0
  2  6  1  0  0  0  0
  3  4  1  0  0  0  0
  3  7  1  0  0  0  0
  3  8  1  0  0  0  0
  4 26  1  0  0  0  0
  6  9  1  0  0  0  0
  6 12  1  0  0  0  0
  8 10  1  0  0  0  0
  8 11  2  0  0  0  0
  9 13  1  0  0  0  0
  9 14  1  0  0  0  0
  9 15  1  0  0  0  0
 10 16  1  0  0  0  0
 10 17  1  0  0  0  0
 10 18  1  0  0  0  0
 19 20  1  0  0  0  0
 20 21  4  0  0  0  0
 20 25  4  0  0  0  0
 21 22  4  0  0  0  0
 21 27  1  0  0  0  0
 22 23  4  0  0  0  0
 22 28  1  0  0  0  0
 23 24  4  0  0  0  0
 23 26  1  0  0  0  0
 24 25  4  0  0  0  0
 24 29  1  0  0  0  0
 25 30  1  0  0  0  0
 26 31  1  0  0  0  0
 26 32  1  0  0  0  0
M  END
> <BCLConfClusterSize>
1

> <ConfClashScore>
0 

> <ConfOneFourInteractionScore>
-0.957364 

> <ConfScore>
0.235807 

> <ConfScorePBest>
0.00584018 

> <ConfTolerance>
0.246267 

> <RosettaParamsInstructions>
M  ROOT 3
M  POLY_N_BB 3
M  POLY_CA_BB 4
M  POLY_C_BB 2
M  POLY_O_BB 5
M  POLY_IGNORE 9 10 11 12 13 14 15 16 17 18 
M  POLY_UPPER 6
M  POLY_LOWER 8
M  POLY_CHG 0
M  POLY_PROPERTIES ALPHA_AA D_AA PROTEIN AROMATIC POLYMER 
M  END

$$$$



 32 32  0  0  0  0  0  0  0  0999 V2000
   -1.3696    1.1359    0.1450 H   0  0  0  1  0  0  0  0  0  0  0  0
    0.6406    1.6402   -0.2076 C   0  0  0  1  0  0  0  0  0  0  0  0
   -0.8169    0.3856   -1.7022 N   0  0  0  1  0  0  0  0  0  0  0  0
   -0.7839    1.4530   -0.6924 C   0  0  0  1  0  0  0  0  0  0  0  0
    0.8756    1.9224    0.9666 O   0  0  0  1  0  0  0  0  0  0  0  0
    1.6349    1.4888   -1.0968 N   0  0  0  1  0  0  0  0  0  0  0  0
   -1.0895    0.6081   -2.6168 H   0  0  0  1  0  0  0  0  0  0  0  0
   -0.4854   -0.8881   -1.4142 C   0  0  0  1  0  0  0  0  0  0  0  0
    3.0369    1.5898   -0.7200 C   0  0  0  1  0  0  0  0  0  0  0  0
   -0.6583   -1.8491   -2.5908 C   0  0  0  1  0  0  0  0  0  0  0  0
   -0.0790   -1.2755   -0.3195 O   0  0  0  1  0  0  0  0  0  0  0  0
    1.4087    1.3040   -2.0323 H   0  0  0  1  0  0  0  0  0  0  0  0
    3.1373    1.4189    0.3315 H   0  0  0  1  0  0  0  0  0  0  0  0
    3.4006    2.5674   -0.9585 H   0  0  0  1  0  0  0  0  0  0  0  0
    3.6036    0.8572   -1.2558 H   0  0  0  1  0  0  0  0  0  0  0  0
    0.1796   -1.7606   -3.2503 H   0  0  0  1  0  0  0  0  0  0  0  0
   -1.5558   -1.6065   -3.1203 H   0  0  0  1  0  0  0  0  0  0  0  0
   -0.7196   -2.8528   -2.2252 H   0  0  0  1  0  0  0  0  0  0  0  0
   -6.5463    2.1567   -3.4899 F   0  0  0  1  0  0  0  0  0  0  0  0
   -5.3147    2.2963   -2.9629 C   0  0  0  1  0  0  0  0  0  0  0  0
   -4.2994    2.8654   -3.7156 C   0  0  0  1  0  0  0  0  0  0  0  0
   -3.0342    3.0038   -3.1767 C   0  0  0  1  0  0  0  0  0  0  0  0
   -2.7820    2.5785   -1.8817 C   0  0  0  1  0  0  0  0  0  0  0  0
   -3.7945    2.0111   -1.1313 C   0  0  0  1  0  0  0  0  0  0  0  0
   -5.0635    1.8722   -1.6717 C   0  0  0  1  0  0  0  0  0  0  0  0
   -1.4219    2.7089   -1.2377 C   0  0  0  1  0  0  0  0  0  0  0  0
   -4.4895    3.1882   -4.6858 H   0  0  0  1  0  0  0  0  0  0  0  0
   -2.2714    3.4270   -3.7428 H   0  0  0  1  0  0  0  0  0  0  0  0
   -3.6043    1.6883   -0.1611 H   0  0  0  1  0  0  0  0  0  0  0  0
   -5.8264    1.4489   -1.1056 H   0  0  0  1  0  0  0  0  0  0  0  0
   -0.7572    3.1127   -1.9725 H   0  0  0  1  0  0  0  0  0  0  0  0
   -1.5173    3.3984   -0.4251 H   0  0  0  1  0  0  0  0  0  0  0  0
  1  4  1  0  0  0  0
  2  4  1  0  0  0  0
  2  5  2  0  0  0  0
  2  6  1  0  0  0  0
  3  4  1  0  0  0  0
  3  7  1  0  0  0  0
  3  8  1  0  0  0  0
  4 26  1  0  0  0  0
  6  9  1  0  0  0  0
  6 12  1  0  0  0  0
  8 10  1  0  0  0  0
  8 11  2  0  0  0  0
  9 13  1  0  0  0  0
  9 14  1  0  0  0  0
  9 15  1  0  0  0  0
 10 16  1  0  0  0  0
 10 17  1  0  0  0  0
 10 18  1  0  0  0  0
 19 20  1  0  0  0  0
 20 21  4  0  0  0  0
 20 25  4  0  0  0  0
 21 22  4  0  0  0  0
 21 27  1  0  0  0  0
 22 23  4  0  0  0  0
 22 28  1  0  0  0  0
 23 24  4  0  0  0  0
 23 26  1  0  0  0  0
 24 25  4  0  0  0  0
 24 29  1  0  0  0  0
 25 30  1  0  0  0  0
 26 31  1  0  0  0  0
 26 32  1  0  0  0  0
M  END
> <BCLConfClusterSize>
1

> <ConfClashScore>
0 

> <ConfOneFourInteractionScore>
-0.960318 

> <ConfScore>
0.239347 

> <ConfScorePBest>
0.0058117 

> <ConfTolerance>
0.346222 

> <RosettaParamsInstructions>
M  ROOT 3
M  POLY_N_BB 3
M  POLY_CA_BB 4
M  POLY_C_BB 2
M  POLY_O_BB 5
M  POLY_IGNORE 9 10 11 12 13 14 15 16 17 18 
M  POLY_UPPER 6
M  POLY_LOWER 8
M  POLY_CHG 0
M  POLY_PROPERTIES ALPHA_AA D_AA PROTEIN AROMATIC POLYMER 
M  END

$$$$



 32 32  0  0  0  0  0  0  0  0999 V2000
   -0.9468    0.6737   -1.1764 H   0  0  0  1  0  0  0  0  0  0  0  0
    0.8611    1.6679   -0.7734 C   0  0  0  1  0  0  0  0  0  0  0  0
   -0.1901    1.4093   -2.9556 N   0  0  0  1  0  0  0  0  0  0  0  0
   -0.4559    1.5609   -1.5180 C   0  0  0  1  0  0  0  0  0  0  0  0
    1.5286    0.6437   -0.6394 O   0  0  0  1  0  0  0  0  0  0  0  0
    1.1887    2.8813   -0.3203 N   0  0  0  1  0  0  0  0  0  0  0  0
   -0.7064    0.7504   -3.4651 H   0  0  0  1  0  0  0  0  0  0  0  0
    0.7357    2.1424   -3.5952 C   0  0  0  1  0  0  0  0  0  0  0  0
    2.4011    3.0661    0.4631 C   0  0  0  1  0  0  0  0  0  0  0  0
    0.9416    1.8101   -5.0688 C   0  0  0  1  0  0  0  0  0  0  0  0
    1.3859    3.0295   -3.0439 O   0  0  0  1  0  0  0  0  0  0  0  0
    0.6112    3.6486   -0.5159 H   0  0  0  1  0  0  0  0  0  0  0  0
    2.8615    3.9941    0.1952 H   0  0  0  1  0  0  0  0  0  0  0  0
    3.0788    2.2619    0.2660 H   0  0  0  1  0  0  0  0  0  0  0  0
    2.1543    3.0782    1.5042 H   0  0  0  1  0  0  0  0  0  0  0  0
    0.0094    1.8931   -5.5874 H   0  0  0  1  0  0  0  0  0  0  0  0
    1.3126    0.8106   -5.1603 H   0  0  0  1  0  0  0  0  0  0  0  0
    1.6475    2.4932   -5.4930 H   0  0  0  1  0  0  0  0  0  0  0  0
   -6.5450    2.1585   -3.4937 F   0  0  0  1  0  0  0  0  0  0  0  0
   -5.3149    2.2962   -2.9627 C   0  0  0  1  0  0  0  0  0  0  0  0
   -4.2965    2.8647   -3.7117 C   0  0  0  1  0  0  0  0  0  0  0  0
   -3.0329    3.0011   -3.1686 C   0  0  0  1  0  0  0  0  0  0  0  0
   -2.7853    2.5743   -1.8732 C   0  0  0  1  0  0  0  0  0  0  0  0
   -3.8009    2.0075   -1.1265 C   0  0  0  1  0  0  0  0  0  0  0  0
   -5.0683    1.8706   -1.6711 C   0  0  0  1  0  0  0  0  0  0  0  0
   -1.4060    2.7284   -1.2772 C   0  0  0  1  0  0  0  0  0  0  0  0
   -4.4831    3.1886   -4.6822 H   0  0  0  1  0  0  0  0  0  0  0  0
   -2.2677    3.4239   -3.7319 H   0  0  0  1  0  0  0  0  0  0  0  0
   -3.6142    1.6836   -0.1560 H   0  0  0  1  0  0  0  0  0  0  0  0
   -5.8335    1.4478   -1.1078 H   0  0  0  1  0  0  0  0  0  0  0  0
   -0.9618    3.6072   -1.6958 H   0  0  0  1  0  0  0  0  0  0  0  0
   -1.5152    2.8524   -0.2200 H   0  0  0  1  0  0  0  0  0  0  0  0
  1  4  1  0  0  0  0
  2  4  1  0  0  0  0
  2  5  2  0  0  0  0
  2  6  1  0  0  0  0
  3  4  1  0  0  0  0
  3  7  1  0  0  0  0
  3  8  1  0  0  0  0
  4 26  1  0  0  0  0
  6  9  1  0  0  0  0
  6 12  1  0  0  0  0
  8 10  1  0  0  0  0
  8 11  2  0  0  0  0
  9 13  1  0  0  0  0
  9 14  1  0  0  0  0
  9 15  1  0  0  0  0
 10 16  1  0  0  0  0
 10 17  1  0  0  0  0
 10 18  1  0  0  0  0
 19 20  1  0  0  0  0
 20 21  4  0  0  0  0
 20 25  4  0  0  0  0
 21 22  4  0  0  0  0
 21 27  1  0  0  0  0
 22 23  4  0  0  0  0
 22 28  1  0  0  0  0
 23 24  4  0  0  0  0
 23 26  1  0  0  0  0
 24 25  4  0  0  0  0
 24 29  1  0  0  0  0
 25 30  1  0  0  0  0
 26 31  1  0  0  0  0
 26 32  1  0  0  0  0
M  END
> <BCLConfClusterSize>
1

> <ConfClashScore>
0 

> <ConfOneFourInteractionScore>
-0.927621 

> <ConfScore>
0.240022 

> <ConfScorePBest>
0.00578322 

> <ConfTolerance>
0.315911 

> <RosettaParamsInstructions>
M  ROOT 3
M  POLY_N_BB 3
M  POLY_CA_BB 4
M  POLY_C_BB 2
M  POLY_O_BB 5
M  POLY_IGNORE 9 10 11 12 13 14 15 16 17 18 
M  POLY_UPPER 6
M  POLY_LOWER 8
M  POLY_CHG 0
M  POLY_PROPERTIES ALPHA_AA D_AA PROTEIN AROMATIC POLYMER 
M  END

$$$$



 32 32  0  0  0  0  0  0  0  0999 V2000
    0.2540    1.5497   -0.7878 H   0  0  0  1  0  0  0  0  0  0  0  0
   -0.1402    1.1043   -2.7933 C   0  0  0  1  0  0  0  0  0  0  0  0
   -1.3938    0.3103   -0.8289 N   0  0  0  1  0  0  0  0  0  0  0  0
   -0.6205    1.4328   -1.3931 C   0  0  0  1  0  0  0  0  0  0  0  0
    0.2340   -0.0273   -3.0897 O   0  0  0  1  0  0  0  0  0  0  0  0
   -0.1539    2.1217   -3.6679 N   0  0  0  1  0  0  0  0  0  0  0  0
   -1.6255   -0.4438   -1.4103 H   0  0  0  1  0  0  0  0  0  0  0  0
   -1.7892    0.2860    0.4470 C   0  0  0  1  0  0  0  0  0  0  0  0
    0.4061    2.0740   -5.0103 C   0  0  0  1  0  0  0  0  0  0  0  0
   -2.7219   -0.8478    0.8261 C   0  0  0  1  0  0  0  0  0  0  0  0
   -1.4299    1.1214    1.2757 O   0  0  0  1  0  0  0  0  0  0  0  0
   -0.5725    2.9602   -3.3811 H   0  0  0  1  0  0  0  0  0  0  0  0
   -0.1909    1.4321   -5.6237 H   0  0  0  1  0  0  0  0  0  0  0  0
    1.4061    1.6959   -4.9661 H   0  0  0  1  0  0  0  0  0  0  0  0
    0.4149    3.0591   -5.4280 H   0  0  0  1  0  0  0  0  0  0  0  0
   -2.2888   -1.7806    0.5308 H   0  0  0  1  0  0  0  0  0  0  0  0
   -3.6610   -0.7179    0.3299 H   0  0  0  1  0  0  0  0  0  0  0  0
   -2.8742   -0.8450    1.8852 H   0  0  0  1  0  0  0  0  0  0  0  0
   -6.5332    2.1730   -3.5231 F   0  0  0  1  0  0  0  0  0  0  0  0
   -5.3173    2.2932   -2.9566 C   0  0  0  1  0  0  0  0  0  0  0  0
   -4.3009    2.8621   -3.7082 C   0  0  0  1  0  0  0  0  0  0  0  0
   -3.0363    2.9999   -3.1680 C   0  0  0  1  0  0  0  0  0  0  0  0
   -2.7855    2.5741   -1.8729 C   0  0  0  1  0  0  0  0  0  0  0  0
   -3.7989    2.0069   -1.1236 C   0  0  0  1  0  0  0  0  0  0  0  0
   -5.0674    1.8686   -1.6653 C   0  0  0  1  0  0  0  0  0  0  0  0
   -1.4050    2.7298   -1.2800 C   0  0  0  1  0  0  0  0  0  0  0  0
   -4.4900    3.1852   -4.6785 H   0  0  0  1  0  0  0  0  0  0  0  0
   -2.2727    3.4230   -3.7333 H   0  0  0  1  0  0  0  0  0  0  0  0
   -3.6098    1.6838   -0.1533 H   0  0  0  1  0  0  0  0  0  0  0  0
   -5.8310    1.4455   -1.1000 H   0  0  0  1  0  0  0  0  0  0  0  0
   -0.8829    3.5025   -1.8046 H   0  0  0  1  0  0  0  0  0  0  0  0
   -1.4946    2.9967   -0.2477 H   0  0  0  1  0  0  0  0  0  0  0  0
  1  4  1  0  0  0  0
  2  4  1  0  0  0  0
  2  5  2  0  0  0  0
  2  6  1  0  0  0  0
  3  4  1  0  0  0  0
  3  7  1  0  0  0  0
  3  8  1  0  0  0  0
  4 26  1  0  0  0  0
  6  9  1  0  0  0  0
  6 12  1  0  0  0  0
  8 10  1  0  0  0  0
  8 11  2  0  0  0  0
  9 13  1  0  0  0  0
  9 14  1  0  0  0  0
  9 15  1  0  0  0  0
 10 16  1  0  0  0  0
 10 17  1  0  0  0  0
 10 18  1  0  0  0  0
 19 20  1  0  0  0  0
 20 21  4  0  0  0  0
 20 25  4  0  0  0  0
 21 22  4  0  0  0  0
 21 27  1  0  0  0  0
 22 23  4  0  0  0  0
 22 28  1  0  0  0  0
 23 24  4  0  0  0  0
 23 26  1  0  0  0  0
 24 25  4  0  0  0  0
 24 29  1  0  0  0  0
 25 30  1  0  0  0  0
 26 31  1  0  0  0  0
 26 32  1  0  0  0  0
M  END
> <BCLConfClusterSize>
1

> <ConfClashScore>
0.000130601 

> <ConfOneFourInteractionScore>
-0.921152 

> <ConfScore>
0.240924 

> <ConfScorePBest>
0.00575474 

> <ConfTolerance>
0.330689 

> <RosettaParamsInstructions>
M  ROOT 3
M  POLY_N_BB 3
M  POLY_CA_BB 4
M  POLY_C_BB 2
M  POLY_O_BB 5
M  POLY_IGNORE 9 10 11 12 13 14 15 16 17 18 
M  POLY_UPPER 6
M  POLY_LOWER 8
M  POLY_CHG 0
M  POLY_PROPERTIES ALPHA_AA D_AA PROTEIN AROMATIC POLYMER 
M  END

$$$$



 32 32  0  0  0  0  0  0  0  0999 V2000
   -0.4495    1.5255   -2.7294 H   0  0  0  1  0  0  0  0  0  0  0  0
   -1.0931    0.2213   -1.1966 C   0  0  0  1  0  0  0  0  0  0  0  0
    0.8130    1.8384   -1.1146 N   0  0  0  1  0  0  0  0  0  0  0  0
   -0.5161    1.5499   -1.6618 C   0  0  0  1  0  0  0  0  0  0  0  0
   -1.7140   -0.5080   -1.9653 O   0  0  0  1  0  0  0  0  0  0  0  0
   -0.8786   -0.0877    0.0855 N   0  0  0  1  0  0  0  0  0  0  0  0
    0.8696    2.5843   -0.4815 H   0  0  0  1  0  0  0  0  0  0  0  0
    1.9992    1.1757   -1.3910 C   0  0  0  1  0  0  0  0  0  0  0  0
   -1.3426   -1.3358    0.6725 C   0  0  0  1  0  0  0  0  0  0  0  0
    3.2725    1.6625   -0.7580 C   0  0  0  1  0  0  0  0  0  0  0  0
    1.9695    0.2170   -2.1410 O   0  0  0  1  0  0  0  0  0  0  0  0
   -0.3918    0.5484    0.6501 H   0  0  0  1  0  0  0  0  0  0  0  0
   -1.0750   -1.3647    1.7081 H   0  0  0  1  0  0  0  0  0  0  0  0
   -0.8877   -2.1598    0.1637 H   0  0  0  1  0  0  0  0  0  0  0  0
   -2.4064   -1.4006    0.5774 H   0  0  0  1  0  0  0  0  0  0  0  0
    3.1678    2.6937   -0.4924 H   0  0  0  1  0  0  0  0  0  0  0  0
    4.0798    1.5532   -1.4516 H   0  0  0  1  0  0  0  0  0  0  0  0
    3.4762    1.0870    0.1208 H   0  0  0  1  0  0  0  0  0  0  0  0
   -6.5332    2.1730   -3.5231 F   0  0  0  1  0  0  0  0  0  0  0  0
   -5.3173    2.2932   -2.9566 C   0  0  0  1  0  0  0  0  0  0  0  0
   -4.3009    2.8621   -3.7082 C   0  0  0  1  0  0  0  0  0  0  0  0
   -3.0363    2.9999   -3.1680 C   0  0  0  1  0  0  0  0  0  0  0  0
   -2.7855    2.5741   -1.8729 C   0  0  0  1  0  0  0  0  0  0  0  0
   -3.7989    2.0069   -1.1236 C   0  0  0  1  0  0  0  0  0  0  0  0
   -5.0674    1.8686   -1.6653 C   0  0  0  1  0  0  0  0  0  0  0  0
   -1.4050    2.7298   -1.2800 C   0  0  0  1  0  0  0  0  0  0  0  0
   -4.4900    3.1852   -4.6785 H   0  0  0  1  0  0  0  0  0  0  0  0
   -2.2727    3.4230   -3.7333 H   0  0  0  1  0  0  0  0  0  0  0  0
   -3.6098    1.6838   -0.1533 H   0  0  0  1  0  0  0  0  0  0  0  0
   -5.8310    1.4455   -1.1000 H   0  0  0  1  0  0  0  0  0  0  0  0
   -0.9653    3.6335   -1.6472 H   0  0  0  1  0  0  0  0  0  0  0  0
   -1.4845    2.7786   -0.2141 H   0  0  0  1  0  0  0  0  0  0  0  0
  1  4  1  0  0  0  0
  2  4  1  0  0  0  0
  2  5  2  0  0  0  0
  2  6  1  0  0  0  0
  3  4  1  0  0  0  0
  3  7  1  0  0  0  0
  3  8  1  0  0  0  0
  4 26  1  0  0  0  0
  6  9  1  0  0  0  0
  6 12  1  0  0  0  0
  8 10  1  0  0  0  0
  8 11  2  0  0  0  0
  9 13  1  0  0  0  0
  9 14  1  0  0  0  0
  9 15  1  0  0  0  0
 10 16  1  0  0  0  0
 10 17  1  0  0  0  0
 10 18  1  0  0  0  0
 19 20  1  0  0  0  0
 20 21  4  0  0  0  0
 20 25  4  0  0  0  0
 21 22  4  0  0  0  0
 21 27  1  0  0  0  0
 22 23  4  0  0  0  0
 22 28  1  0  0  0  0
 23 24  4  0  0  0  0
 23 26  1  0  0  0  0
 24 25  4  0  0  0  0
 24 29  1  0  0  0  0
 25 30  1  0  0  0  0
 26 31  1  0  0  0  0
 26 32  1  0  0  0  0
M  END
> <BCLConfClusterSize>
1

> <ConfClashScore>
0 

> <ConfOneFourInteractionScore>
-0.960318 

> <ConfScore>
0.24275 

> <ConfScorePBest>
0.00572626 

> <ConfTolerance>
0.319931 

> <RosettaParamsInstructions>
M  ROOT 3
M  POLY_N_BB 3
M  POLY_CA_BB 4
M  POLY_C_BB 2
M  POLY_O_BB 5
M  POLY_IGNORE 9 10 11 12 13 14 15 16 17 18 
M  POLY_UPPER 6
M  POLY_LOWER 8
M  POLY_CHG 0
M  POLY_PROPERTIES ALPHA_AA D_AA PROTEIN AROMATIC POLYMER 
M  END

$$$$



 32 32  0  0  0  0  0  0  0  0999 V2000
   -1.3102    4.8622   -1.5361 H   0  0  0  1  0  0  0  0  0  0  0  0
    0.2679    4.3119   -0.2357 C   0  0  0  1  0  0  0  0  0  0  0  0
   -2.1235    4.5067    0.3310 N   0  0  0  1  0  0  0  0  0  0  0  0
   -1.1720    4.1839   -0.7201 C   0  0  0  1  0  0  0  0  0  0  0  0
    1.1611    3.8811   -0.9639 O   0  0  0  1  0  0  0  0  0  0  0  0
    0.4855    4.8839    0.9519 N   0  0  0  1  0  0  0  0  0  0  0  0
   -2.1020    3.9611    1.1448 H   0  0  0  1  0  0  0  0  0  0  0  0
   -3.0233    5.4896    0.2711 C   0  0  0  1  0  0  0  0  0  0  0  0
    1.8190    4.8739    1.5345 C   0  0  0  1  0  0  0  0  0  0  0  0
   -4.0033    5.5569    1.4262 C   0  0  0  1  0  0  0  0  0  0  0  0
   -3.0705    6.2976   -0.6526 O   0  0  0  1  0  0  0  0  0  0  0  0
   -0.2545    5.3112    1.4317 H   0  0  0  1  0  0  0  0  0  0  0  0
    2.5425    4.6918    0.7675 H   0  0  0  1  0  0  0  0  0  0  0  0
    1.8798    4.1014    2.2724 H   0  0  0  1  0  0  0  0  0  0  0  0
    2.0152    5.8211    1.9919 H   0  0  0  1  0  0  0  0  0  0  0  0
   -4.5904    4.6627    1.4491 H   0  0  0  1  0  0  0  0  0  0  0  0
   -4.6465    6.4025    1.2991 H   0  0  0  1  0  0  0  0  0  0  0  0
   -3.4644    5.6530    2.3456 H   0  0  0  1  0  0  0  0  0  0  0  0
   -6.5507    2.1756   -3.4839 F   0  0  0  1  0  0  0  0  0  0  0  0
   -5.3161    2.3020   -2.9606 C   0  0  0  1  0  0  0  0  0  0  0  0
   -4.2980    2.8644   -3.7147 C   0  0  0  1  0  0  0  0  0  0  0  0
   -3.0299    2.9891   -3.1795 C   0  0  0  1  0  0  0  0  0  0  0  0
   -2.7773    2.5569   -1.8868 C   0  0  0  1  0  0  0  0  0  0  0  0
   -3.7926    1.9961   -1.1351 C   0  0  0  1  0  0  0  0  0  0  0  0
   -5.0645    1.8709   -1.6717 C   0  0  0  1  0  0  0  0  0  0  0  0
   -1.4341    2.7697   -1.2297 C   0  0  0  1  0  0  0  0  0  0  0  0
   -4.4884    3.1924   -4.6830 H   0  0  0  1  0  0  0  0  0  0  0  0
   -2.2650    3.4074   -3.7466 H   0  0  0  1  0  0  0  0  0  0  0  0
   -3.6022    1.6681   -0.1667 H   0  0  0  1  0  0  0  0  0  0  0  0
   -5.8294    1.4526   -1.1046 H   0  0  0  1  0  0  0  0  0  0  0  0
   -1.3641    2.1008   -0.3975 H   0  0  0  1  0  0  0  0  0  0  0  0
   -0.6751    2.5307   -1.9449 H   0  0  0  1  0  0  0  0  0  0  0  0
  1  4  1  0  0  0  0
  2  4  1  0  0  0  0
  2  5  2  0  0  0  0
  2  6  1  0  0  0  0
  3  4  1  0  0  0  0
  3  7  1  0  0  0  0
  3  8  1  0  0  0  0
  4 26  1  0  0  0  0
  6  9  1  0  0  0  0
  6 12  1  0  0  0  0
  8 10  1  0  0  0  0
  8 11  2  0  0  0  0
  9 13  1  0  0  0  0
  9 14  1  0  0  0  0
  9 15  1  0  0  0  0
 10 16  1  0  0  0  0
 10 17  1  0  0  0  0
 10 18  1  0  0  0  0
 19 20  1  0  0  0  0
 20 21  4  0  0  0  0
 20 25  4  0  0  0  0
 21 22  4  0  0  0  0
 21 27  1  0  0  0  0
 22 23  4  0  0  0  0
 22 28  1  0  0  0  0
 23 24  4  0  0  0  0
 23 26  1  0  0  0  0
 24 25  4  0  0  0  0
 24 29  1  0  0  0  0
 25 30  1  0  0  0  0
 26 31  1  0  0  0  0
 26 32  1  0  0  0  0
M  END
> <BCLConfClusterSize>
1

> <ConfClashScore>
0 

> <ConfOneFourInteractionScore>
-0.960318 

> <ConfScore>
0.247372 

> <ConfScorePBest>
0.00569778 

> <ConfTolerance>
0.407161 

> <RosettaParamsInstructions>
M  ROOT 3
M  POLY_N_BB 3
M  POLY_CA_BB 4
M  POLY_C_BB 2
M  POLY_O_BB 5
M  POLY_IGNORE 9 10 11 12 13 14 15 16 17 18 
M  POLY_UPPER 6
M  POLY_LOWER 8
M  POLY_CHG 0
M  POLY_PROPERTIES ALPHA_AA D_AA PROTEIN AROMATIC POLYMER 
M  END

$$$$



 32 32  0  0  0  0  0  0  0  0999 V2000
   -0.2560    3.9972   -0.0279 H   0  0  0  1  0  0  0  0  0  0  0  0
   -2.2031    3.8469    0.7881 C   0  0  0  1  0  0  0  0  0  0  0  0
   -1.5149    5.1871   -1.1720 N   0  0  0  1  0  0  0  0  0  0  0  0
   -1.2590    3.9688   -0.3995 C   0  0  0  1  0  0  0  0  0  0  0  0
   -2.4556    2.7498    1.2831 O   0  0  0  1  0  0  0  0  0  0  0  0
   -2.7482    4.9670    1.2757 N   0  0  0  1  0  0  0  0  0  0  0  0
   -2.2916    5.7386   -0.9418 H   0  0  0  1  0  0  0  0  0  0  0  0
   -0.6963    5.5870   -2.2172 C   0  0  0  1  0  0  0  0  0  0  0  0
   -3.6531    5.0886    2.4089 C   0  0  0  1  0  0  0  0  0  0  0  0
   -1.0580    6.8193   -2.9979 C   0  0  0  1  0  0  0  0  0  0  0  0
    0.2928    4.9232   -2.4689 O   0  0  0  1  0  0  0  0  0  0  0  0
   -2.5112    5.8004    0.8177 H   0  0  0  1  0  0  0  0  0  0  0  0
   -4.2818    4.2242    2.4583 H   0  0  0  1  0  0  0  0  0  0  0  0
   -4.2582    5.9630    2.2896 H   0  0  0  1  0  0  0  0  0  0  0  0
   -3.0848    5.1681    3.3120 H   0  0  0  1  0  0  0  0  0  0  0  0
   -1.3047    7.6109   -2.3216 H   0  0  0  1  0  0  0  0  0  0  0  0
   -1.9000    6.6102   -3.6242 H   0  0  0  1  0  0  0  0  0  0  0  0
   -0.2267    7.1142   -3.6037 H   0  0  0  1  0  0  0  0  0  0  0  0
   -6.5543    2.1459   -3.4674 F   0  0  0  1  0  0  0  0  0  0  0  0
   -5.3127    2.2991   -2.9686 C   0  0  0  1  0  0  0  0  0  0  0  0
   -4.2892    2.8666   -3.7115 C   0  0  0  1  0  0  0  0  0  0  0  0
   -3.0282    2.9997   -3.1617 C   0  0  0  1  0  0  0  0  0  0  0  0
   -2.7881    2.5706   -1.8656 C   0  0  0  1  0  0  0  0  0  0  0  0
   -3.8087    2.0047   -1.1250 C   0  0  0  1  0  0  0  0  0  0  0  0
   -5.0736    1.8712   -1.6763 C   0  0  0  1  0  0  0  0  0  0  0  0
   -1.3937    2.7451   -1.3119 C   0  0  0  1  0  0  0  0  0  0  0  0
   -4.4702    3.1923   -4.6825 H   0  0  0  1  0  0  0  0  0  0  0  0
   -2.2593    3.4218   -3.7204 H   0  0  0  1  0  0  0  0  0  0  0  0
   -3.6277    1.6791   -0.1541 H   0  0  0  1  0  0  0  0  0  0  0  0
   -5.8425    1.4490   -1.1176 H   0  0  0  1  0  0  0  0  0  0  0  0
   -1.1388    1.8712   -0.7495 H   0  0  0  1  0  0  0  0  0  0  0  0
   -0.7134    2.8540   -2.1305 H   0  0  0  1  0  0  0  0  0  0  0  0
  1  4  1  0  0  0  0
  2  4  1  0  0  0  0
  2  5  2  0  0  0  0
  2  6  1  0  0  0  0
  3  4  1  0  0  0  0
  3  7  1  0  0  0  0
  3  8  1  0  0  0  0
  4 26  1  0  0  0  0
  6  9  1  0  0  0  0
  6 12  1  0  0  0  0
  8 10  1  0  0  0  0
  8 11  2  0  0  0  0
  9 13  1  0  0  0  0
  9 14  1  0  0  0  0
  9 15  1  0  0  0  0
 10 16  1  0  0  0  0
 10 17  1  0  0  0  0
 10 18  1  0  0  0  0
 19 20  1  0  0  0  0
 20 21  4  0  0  0  0
 20 25  4  0  0  0  0
 21 22  4  0  0  0  0
 21 27  1  0  0  0  0
 22 23  4  0  0  0  0
 22 28  1  0  0  0  0
 23 24  4  0  0  0  0
 23 26  1  0  0  0  0
 24 25  4  0  0  0  0
 24 29  1  0  0  0  0
 25 30  1  0  0  0  0
 26 31  1  0  0  0  0
 26 32  1  0  0  0  0
M  END
> <BCLConfClusterSize>
1

> <ConfClashScore>
0 

> <ConfOneFourInteractionScore>
-0.950895 

> <ConfScore>
0.248244 

> <ConfScorePBest>
0.0056693 

> <ConfTolerance>
0.266842 

> <RosettaParamsInstructions>
M  ROOT 3
M  POLY_N_BB 3
M  POLY_CA_BB 4
M  POLY_C_BB 2
M  POLY_O_BB 5
M  POLY_IGNORE 9 10 11 12 13 14 15 16 17 18 
M  POLY_UPPER 6
M  POLY_LOWER 8
M  POLY_CHG 0
M  POLY_PROPERTIES ALPHA_AA D_AA PROTEIN AROMATIC POLYMER 
M  END

$$$$



 32 32  0  0  0  0  0  0  0  0999 V2000
   -0.2594    3.9821   -0.0509 H   0  0  0  1  0  0  0  0  0  0  0  0
   -2.0687    3.7867    0.9633 C   0  0  0  1  0  0  0  0  0  0  0  0
   -1.6161    5.2106   -0.9817 N   0  0  0  1  0  0  0  0  0  0  0  0
   -1.2908    3.9280   -0.3306 C   0  0  0  1  0  0  0  0  0  0  0  0
   -2.5586    2.6887    1.2239 O   0  0  0  1  0  0  0  0  0  0  0  0
   -2.1813    4.8555    1.7489 N   0  0  0  1  0  0  0  0  0  0  0  0
   -0.8848    5.8144   -1.2287 H   0  0  0  1  0  0  0  0  0  0  0  0
   -2.9016    5.5864   -1.2526 C   0  0  0  1  0  0  0  0  0  0  0  0
   -2.7627    4.8513    3.0831 C   0  0  0  1  0  0  0  0  0  0  0  0
   -3.0294    7.0230   -1.6911 C   0  0  0  1  0  0  0  0  0  0  0  0
   -3.8366    4.8149   -1.1422 O   0  0  0  1  0  0  0  0  0  0  0  0
   -1.8476    5.7095    1.4028 H   0  0  0  1  0  0  0  0  0  0  0  0
   -1.9946    4.6755    3.8069 H   0  0  0  1  0  0  0  0  0  0  0  0
   -3.4984    4.0772    3.1488 H   0  0  0  1  0  0  0  0  0  0  0  0
   -3.2227    5.7983    3.2744 H   0  0  0  1  0  0  0  0  0  0  0  0
   -2.6421    7.6652   -0.9279 H   0  0  0  1  0  0  0  0  0  0  0  0
   -4.0603    7.2533   -1.8614 H   0  0  0  1  0  0  0  0  0  0  0  0
   -2.4765    7.1702   -2.5952 H   0  0  0  1  0  0  0  0  0  0  0  0
   -6.5332    2.1730   -3.5231 F   0  0  0  1  0  0  0  0  0  0  0  0
   -5.3173    2.2932   -2.9566 C   0  0  0  1  0  0  0  0  0  0  0  0
   -4.3009    2.8621   -3.7082 C   0  0  0  1  0  0  0  0  0  0  0  0
   -3.0363    2.9999   -3.1680 C   0  0  0  1  0  0  0  0  0  0  0  0
   -2.7855    2.5741   -1.8729 C   0  0  0  1  0  0  0  0  0  0  0  0
   -3.7989    2.0069   -1.1236 C   0  0  0  1  0  0  0  0  0  0  0  0
   -5.0674    1.8686   -1.6653 C   0  0  0  1  0  0  0  0  0  0  0  0
   -1.4050    2.7298   -1.2800 C   0  0  0  1  0  0  0  0  0  0  0  0
   -4.4900    3.1852   -4.6785 H   0  0  0  1  0  0  0  0  0  0  0  0
   -2.2727    3.4230   -3.7333 H   0  0  0  1  0  0  0  0  0  0  0  0
   -3.6098    1.6838   -0.1533 H   0  0  0  1  0  0  0  0  0  0  0  0
   -5.8310    1.4455   -1.1000 H   0  0  0  1  0  0  0  0  0  0  0  0
   -1.1658    1.8401   -0.7358 H   0  0  0  1  0  0  0  0  0  0  0  0
   -0.7042    2.8596   -2.0781 H   0  0  0  1  0  0  0  0  0  0  0  0
  1  4  1  0  0  0  0
  2  4  1  0  0  0  0
  2  5  2  0  0  0  0
  2  6  1  0  0  0  0
  3  4  1  0  0  0  0
  3  7  1  0  0  0  0
  3  8  1  0  0  0  0
  4 26  1  0  0  0  0
  6  9  1  0  0  0  0
  6 12  1  0  0  0  0
  8 10  1  0  0  0  0
  8 11  2  0  0  0  0
  9 13  1  0  0  0  0
  9 14  1  0  0  0  0
  9 15  1  0  0  0  0
 10 16  1  0  0  0  0
 10 17  1  0  0  0  0
 10 18  1  0  0  0  0
 19 20  1  0  0  0  0
 20 21  4  0  0  0  0
 20 25  4  0  0  0  0
 21 22  4  0  0  0  0
 21 27  1  0  0  0  0
 22 23  4  0  0  0  0
 22 28  1  0  0  0  0
 23 24  4  0  0  0  0
 23 26  1  0  0  0  0
 24 25  4  0  0  0  0
 24 29  1  0  0  0  0
 25 30  1  0  0  0  0
 26 31  1  0  0  0  0
 26 32  1  0  0  0  0
M  END
> <BCLConfClusterSize>
1

> <ConfClashScore>
0 

> <ConfOneFourInteractionScore>
-0.966825 

> <ConfScore>
0.248791 

> <ConfScorePBest>
0.00564082 

> <ConfTolerance>
0.262848 

> <RosettaParamsInstructions>
M  ROOT 3
M  POLY_N_BB 3
M  POLY_CA_BB 4
M  POLY_C_BB 2
M  POLY_O_BB 5
M  POLY_IGNORE 9 10 11 12 13 14 15 16 17 18 
M  POLY_UPPER 6
M  POLY_LOWER 8
M  POLY_CHG 0
M  POLY_PROPERTIES ALPHA_AA D_AA PROTEIN AROMATIC POLYMER 
M  END

$$$$



 32 32  0  0  0  0  0  0  0  0999 V2000
   -0.3694    3.7870    0.2589 H   0  0  0  1  0  0  0  0  0  0  0  0
   -2.1292    2.9345    1.0864 C   0  0  0  1  0  0  0  0  0  0  0  0
   -2.0163    4.9012   -0.3525 N   0  0  0  1  0  0  0  0  0  0  0  0
   -1.3851    3.6281   -0.0380 C   0  0  0  1  0  0  0  0  0  0  0  0
   -1.7234    1.8776    1.5624 O   0  0  0  1  0  0  0  0  0  0  0  0
   -3.2430    3.5492    1.5149 N   0  0  0  1  0  0  0  0  0  0  0  0
   -2.8590    4.9004   -0.8527 H   0  0  0  1  0  0  0  0  0  0  0  0
   -1.4876    6.0690    0.0164 C   0  0  0  1  0  0  0  0  0  0  0  0
   -3.9511    3.1276    2.7144 C   0  0  0  1  0  0  0  0  0  0  0  0
   -2.3750    7.2926   -0.1892 C   0  0  0  1  0  0  0  0  0  0  0  0
   -0.3674    6.1714    0.4900 O   0  0  0  1  0  0  0  0  0  0  0  0
   -3.5914    4.3083    1.0023 H   0  0  0  1  0  0  0  0  0  0  0  0
   -4.9537    3.5004    2.6868 H   0  0  0  1  0  0  0  0  0  0  0  0
   -3.4509    3.5138    3.5779 H   0  0  0  1  0  0  0  0  0  0  0  0
   -3.9694    2.0588    2.7603 H   0  0  0  1  0  0  0  0  0  0  0  0
   -2.6236    7.3834   -1.2260 H   0  0  0  1  0  0  0  0  0  0  0  0
   -1.8521    8.1698    0.1301 H   0  0  0  1  0  0  0  0  0  0  0  0
   -3.2718    7.1828    0.3840 H   0  0  0  1  0  0  0  0  0  0  0  0
   -6.5450    2.1585   -3.4937 F   0  0  0  1  0  0  0  0  0  0  0  0
   -5.3149    2.2962   -2.9627 C   0  0  0  1  0  0  0  0  0  0  0  0
   -4.2965    2.8647   -3.7117 C   0  0  0  1  0  0  0  0  0  0  0  0
   -3.0329    3.0011   -3.1686 C   0  0  0  1  0  0  0  0  0  0  0  0
   -2.7853    2.5743   -1.8732 C   0  0  0  1  0  0  0  0  0  0  0  0
   -3.8009    2.0075   -1.1265 C   0  0  0  1  0  0  0  0  0  0  0  0
   -5.0683    1.8706   -1.6711 C   0  0  0  1  0  0  0  0  0  0  0  0
   -1.4060    2.7284   -1.2772 C   0  0  0  1  0  0  0  0  0  0  0  0
   -4.4831    3.1886   -4.6822 H   0  0  0  1  0  0  0  0  0  0  0  0
   -2.2677    3.4239   -3.7319 H   0  0  0  1  0  0  0  0  0  0  0  0
   -3.6142    1.6836   -0.1560 H   0  0  0  1  0  0  0  0  0  0  0  0
   -5.8335    1.4478   -1.1078 H   0  0  0  1  0  0  0  0  0  0  0  0
   -1.0442    1.7600   -1.0011 H   0  0  0  1  0  0  0  0  0  0  0  0
   -0.7606    3.1532   -2.0174 H   0  0  0  1  0  0  0  0  0  0  0  0
  1  4  1  0  0  0  0
  2  4  1  0  0  0  0
  2  5  2  0  0  0  0
  2  6  1  0  0  0  0
  3  4  1  0  0  0  0
  3  7  1  0  0  0  0
  3  8  1  0  0  0  0
  4 26  1  0  0  0  0
  6  9  1  0  0  0  0
  6 12  1  0  0  0  0
  8 10  1  0  0  0  0
  8 11  2  0  0  0  0
  9 13  1  0  0  0  0
  9 14  1  0  0  0  0
  9 15  1  0  0  0  0
 10 16  1  0  0  0  0
 10 17  1  0  0  0  0
 10 18  1  0  0  0  0
 19 20  1  0  0  0  0
 20 21  4  0  0  0  0
 20 25  4  0  0  0  0
 21 22  4  0  0  0  0
 21 27  1  0  0  0  0
 22 23  4  0  0  0  0
 22 28  1  0  0  0  0
 23 24  4  0  0  0  0
 23 26  1  0  0  0  0
 24 25  4  0  0  0  0
 24 29  1  0  0  0  0
 25 30  1  0  0  0  0
 26 31  1  0  0  0  0
 26 32  1  0  0  0  0
M  END
> <BCLConfClusterSize>
1

> <ConfClashScore>
0 

> <ConfOneFourInteractionScore>
-0.931937 

> <ConfScore>
0.249908 

> <ConfScorePBest>
0.00561234 

> <ConfTolerance>
0.413216 

> <RosettaParamsInstructions>
M  ROOT 3
M  POLY_N_BB 3
M  POLY_CA_BB 4
M  POLY_C_BB 2
M  POLY_O_BB 5
M  POLY_IGNORE 9 10 11 12 13 14 15 16 17 18 
M  POLY_UPPER 6
M  POLY_LOWER 8
M  POLY_CHG 0
M  POLY_PROPERTIES ALPHA_AA D_AA PROTEIN AROMATIC POLYMER 
M  END

$$$$



 32 32  0  0  0  0  0  0  0  0999 V2000
   -0.3090    3.9594    0.0426 H   0  0  0  1  0  0  0  0  0  0  0  0
   -2.3470    4.1734    0.5434 C   0  0  0  1  0  0  0  0  0  0  0  0
   -1.2149    5.1792   -1.3610 N   0  0  0  1  0  0  0  0  0  0  0  0
   -1.2403    4.0161   -0.4812 C   0  0  0  1  0  0  0  0  0  0  0  0
   -2.9411    3.1960    0.9966 O   0  0  0  1  0  0  0  0  0  0  0  0
   -2.6236    5.4258    0.9099 N   0  0  0  1  0  0  0  0  0  0  0  0
   -0.3474    5.6048   -1.5245 H   0  0  0  1  0  0  0  0  0  0  0  0
   -2.2838    5.7074   -1.9599 C   0  0  0  1  0  0  0  0  0  0  0  0
   -3.8081    5.7656    1.6840 C   0  0  0  1  0  0  0  0  0  0  0  0
   -2.0044    6.8454   -2.9222 C   0  0  0  1  0  0  0  0  0  0  0  0
   -3.4282    5.3104   -1.7573 O   0  0  0  1  0  0  0  0  0  0  0  0
   -2.0077    6.1419    0.6489 H   0  0  0  1  0  0  0  0  0  0  0  0
   -3.7369    5.3266    2.6572 H   0  0  0  1  0  0  0  0  0  0  0  0
   -4.6784    5.3909    1.1869 H   0  0  0  1  0  0  0  0  0  0  0  0
   -3.8801    6.8291    1.7771 H   0  0  0  1  0  0  0  0  0  0  0  0
   -1.0067    7.2022   -2.7734 H   0  0  0  1  0  0  0  0  0  0  0  0
   -2.6976    7.6409   -2.7442 H   0  0  0  1  0  0  0  0  0  0  0  0
   -2.1119    6.4963   -3.9279 H   0  0  0  1  0  0  0  0  0  0  0  0
   -6.5332    2.1730   -3.5231 F   0  0  0  1  0  0  0  0  0  0  0  0
   -5.3173    2.2932   -2.9566 C   0  0  0  1  0  0  0  0  0  0  0  0
   -4.3009    2.8621   -3.7082 C   0  0  0  1  0  0  0  0  0  0  0  0
   -3.0363    2.9999   -3.1680 C   0  0  0  1  0  0  0  0  0  0  0  0
   -2.7855    2.5741   -1.8729 C   0  0  0  1  0  0  0  0  0  0  0  0
   -3.7989    2.0069   -1.1236 C   0  0  0  1  0  0  0  0  0  0  0  0
   -5.0674    1.8686   -1.6653 C   0  0  0  1  0  0  0  0  0  0  0  0
   -1.4050    2.7298   -1.2800 C   0  0  0  1  0  0  0  0  0  0  0  0
   -4.4900    3.1852   -4.6785 H   0  0  0  1  0  0  0  0  0  0  0  0
   -2.2727    3.4230   -3.7333 H   0  0  0  1  0  0  0  0  0  0  0  0
   -3.6098    1.6838   -0.1533 H   0  0  0  1  0  0  0  0  0  0  0  0
   -5.8310    1.4455   -1.1000 H   0  0  0  1  0  0  0  0  0  0  0  0
   -1.2173    1.8997   -0.6314 H   0  0  0  1  0  0  0  0  0  0  0  0
   -0.6903    2.7295   -2.0763 H   0  0  0  1  0  0  0  0  0  0  0  0
  1  4  1  0  0  0  0
  2  4  1  0  0  0  0
  2  5  2  0  0  0  0
  2  6  1  0  0  0  0
  3  4  1  0  0  0  0
  3  7  1  0  0  0  0
  3  8  1  0  0  0  0
  4 26  1  0  0  0  0
  6  9  1  0  0  0  0
  6 12  1  0  0  0  0
  8 10  1  0  0  0  0
  8 11  2  0  0  0  0
  9 13  1  0  0  0  0
  9 14  1  0  0  0  0
  9 15  1  0  0  0  0
 10 16  1  0  0  0  0
 10 17  1  0  0  0  0
 10 18  1  0  0  0  0
 19 20  1  0  0  0  0
 20 21  4  0  0  0  0
 20 25  4  0  0  0  0
 21 22  4  0  0  0  0
 21 27  1  0  0  0  0
 22 23  4  0  0  0  0
 22 28  1  0  0  0  0
 23 24  4  0  0  0  0
 23 26  1  0  0  0  0
 24 25  4  0  0  0  0
 24 29  1  0  0  0  0
 25 30  1  0  0  0  0
 26 31  1  0  0  0  0
 26 32  1  0  0  0  0
M  END
> <BCLConfClusterSize>
1

> <ConfClashScore>
0 

> <ConfOneFourInteractionScore>
-0.95412 

> <ConfScore>
0.254202 

> <ConfScorePBest>
0.00558386 

> <ConfTolerance>
0.320287 

> <RosettaParamsInstructions>
M  ROOT 3
M  POLY_N_BB 3
M  POLY_CA_BB 4
M  POLY_C_BB 2
M  POLY_O_BB 5
M  POLY_IGNORE 9 10 11 12 13 14 15 16 17 18 
M  POLY_UPPER 6
M  POLY_LOWER 8
M  POLY_CHG 0
M  POLY_PROPERTIES ALPHA_AA D_AA PROTEIN AROMATIC POLYMER 
M  END

$$$$



 32 32  0  0  0  0  0  0  0  0999 V2000
   -0.0413    4.0991   -0.4632 H   0  0  0  1  0  0  0  0  0  0  0  0
   -1.8983    4.5137    0.4208 C   0  0  0  1  0  0  0  0  0  0  0  0
   -1.1582    5.0492   -1.9028 N   0  0  0  1  0  0  0  0  0  0  0  0
   -1.0622    4.1239   -0.7827 C   0  0  0  1  0  0  0  0  0  0  0  0
   -1.6597    4.0582    1.5385 O   0  0  0  1  0  0  0  0  0  0  0  0
   -2.8925    5.3704    0.1827 N   0  0  0  1  0  0  0  0  0  0  0  0
   -1.8151    4.8715   -2.6080 H   0  0  0  1  0  0  0  0  0  0  0  0
   -0.3820    6.1320   -2.0026 C   0  0  0  1  0  0  0  0  0  0  0  0
   -3.7018    5.8744    1.2822 C   0  0  0  1  0  0  0  0  0  0  0  0
   -0.4476    6.9179   -3.3125 C   0  0  0  1  0  0  0  0  0  0  0  0
    0.4192    6.4525   -1.1257 O   0  0  0  1  0  0  0  0  0  0  0  0
   -3.0784    5.6611   -0.7346 H   0  0  0  1  0  0  0  0  0  0  0  0
   -3.6265    5.2080    2.1159 H   0  0  0  1  0  0  0  0  0  0  0  0
   -4.7234    5.9420    0.9710 H   0  0  0  1  0  0  0  0  0  0  0  0
   -3.3507    6.8439    1.5680 H   0  0  0  1  0  0  0  0  0  0  0  0
   -1.4505    6.9074   -3.6855 H   0  0  0  1  0  0  0  0  0  0  0  0
    0.2047    6.4677   -4.0313 H   0  0  0  1  0  0  0  0  0  0  0  0
   -0.1431    7.9286   -3.1374 H   0  0  0  1  0  0  0  0  0  0  0  0
   -6.5450    2.1585   -3.4937 F   0  0  0  1  0  0  0  0  0  0  0  0
   -5.3149    2.2962   -2.9627 C   0  0  0  1  0  0  0  0  0  0  0  0
   -4.2965    2.8647   -3.7117 C   0  0  0  1  0  0  0  0  0  0  0  0
   -3.0329    3.0011   -3.1686 C   0  0  0  1  0  0  0  0  0  0  0  0
   -2.7853    2.5743   -1.8732 C   0  0  0  1  0  0  0  0  0  0  0  0
   -3.8009    2.0075   -1.1265 C   0  0  0  1  0  0  0  0  0  0  0  0
   -5.0683    1.8706   -1.6711 C   0  0  0  1  0  0  0  0  0  0  0  0
   -1.4060    2.7284   -1.2772 C   0  0  0  1  0  0  0  0  0  0  0  0
   -4.4831    3.1886   -4.6822 H   0  0  0  1  0  0  0  0  0  0  0  0
   -2.2677    3.4239   -3.7319 H   0  0  0  1  0  0  0  0  0  0  0  0
   -3.6142    1.6836   -0.1560 H   0  0  0  1  0  0  0  0  0  0  0  0
   -5.8335    1.4478   -1.1078 H   0  0  0  1  0  0  0  0  0  0  0  0
   -1.3275    2.0560   -0.4486 H   0  0  0  1  0  0  0  0  0  0  0  0
   -0.6908    2.4580   -2.0257 H   0  0  0  1  0  0  0  0  0  0  0  0
  1  4  1  0  0  0  0
  2  4  1  0  0  0  0
  2  5  2  0  0  0  0
  2  6  1  0  0  0  0
  3  4  1  0  0  0  0
  3  7  1  0  0  0  0
  3  8  1  0  0  0  0
  4 26  1  0  0  0  0
  6  9  1  0  0  0  0
  6 12  1  0  0  0  0
  8 10  1  0  0  0  0
  8 11  2  0  0  0  0
  9 13  1  0  0  0  0
  9 14  1  0  0  0  0
  9 15  1  0  0  0  0
 10 16  1  0  0  0  0
 10 17  1  0  0  0  0
 10 18  1  0  0  0  0
 19 20  1  0  0  0  0
 20 21  4  0  0  0  0
 20 25  4  0  0  0  0
 21 22  4  0  0  0  0
 21 27  1  0  0  0  0
 22 23  4  0  0  0  0
 22 28  1  0  0  0  0
 23 24  4  0  0  0  0
 23 26  1  0  0  0  0
 24 25  4  0  0  0  0
 24 29  1  0  0  0  0
 25 30  1  0  0  0  0
 26 31  1  0  0  0  0
 26 32  1  0  0  0  0
M  END
> <BCLConfClusterSize>
1

> <ConfClashScore>
0 

> <ConfOneFourInteractionScore>
-0.950605 

> <ConfScore>
0.255038 

> <ConfScorePBest>
0.00555537 

> <ConfTolerance>
0.410002 

> <RosettaParamsInstructions>
M  ROOT 3
M  POLY_N_BB 3
M  POLY_CA_BB 4
M  POLY_C_BB 2
M  POLY_O_BB 5
M  POLY_IGNORE 9 10 11 12 13 14 15 16 17 18 
M  POLY_UPPER 6
M  POLY_LOWER 8
M  POLY_CHG 0
M  POLY_PROPERTIES ALPHA_AA D_AA PROTEIN AROMATIC POLYMER 
M  END

$$$$



 32 32  0  0  0  0  0  0  0  0999 V2000
    0.5862    2.1096   -1.4741 H   0  0  0  1  0  0  0  0  0  0  0  0
   -0.2123    2.1483   -3.4207 C   0  0  0  1  0  0  0  0  0  0  0  0
   -0.6118    0.4419   -1.7257 N   0  0  0  1  0  0  0  0  0  0  0  0
   -0.3512    1.8735   -1.9329 C   0  0  0  1  0  0  0  0  0  0  0  0
   -0.9393    1.5756   -4.2428 O   0  0  0  1  0  0  0  0  0  0  0  0
    0.7148    3.0236   -3.8128 N   0  0  0  1  0  0  0  0  0  0  0  0
   -1.3281    0.1755   -1.1122 H   0  0  0  1  0  0  0  0  0  0  0  0
    0.1007   -0.5182   -2.3509 C   0  0  0  1  0  0  0  0  0  0  0  0
    1.0171    3.3527   -5.1978 C   0  0  0  1  0  0  0  0  0  0  0  0
   -0.1719   -1.9591   -1.9827 C   0  0  0  1  0  0  0  0  0  0  0  0
    0.9465   -0.2328   -3.1944 O   0  0  0  1  0  0  0  0  0  0  0  0
    1.2312    3.4794   -3.1157 H   0  0  0  1  0  0  0  0  0  0  0  0
    1.3346    2.4705   -5.7134 H   0  0  0  1  0  0  0  0  0  0  0  0
    1.7978    4.0837   -5.2283 H   0  0  0  1  0  0  0  0  0  0  0  0
    0.1411    3.7458   -5.6701 H   0  0  0  1  0  0  0  0  0  0  0  0
   -1.2044   -2.1821   -2.1536 H   0  0  0  1  0  0  0  0  0  0  0  0
    0.0597   -2.1129   -0.9495 H   0  0  0  1  0  0  0  0  0  0  0  0
    0.4359   -2.6019   -2.5846 H   0  0  0  1  0  0  0  0  0  0  0  0
   -6.5347    2.1712   -3.5193 F   0  0  0  1  0  0  0  0  0  0  0  0
   -5.3171    2.2933   -2.9568 C   0  0  0  1  0  0  0  0  0  0  0  0
   -4.3039    2.8628   -3.7121 C   0  0  0  1  0  0  0  0  0  0  0  0
   -3.0377    3.0026   -3.1761 C   0  0  0  1  0  0  0  0  0  0  0  0
   -2.7822    2.5783   -1.8814 C   0  0  0  1  0  0  0  0  0  0  0  0
   -3.7926    2.0105   -1.1284 C   0  0  0  1  0  0  0  0  0  0  0  0
   -5.0626    1.8702   -1.6659 C   0  0  0  1  0  0  0  0  0  0  0  0
   -1.4208    2.7103   -1.2405 C   0  0  0  1  0  0  0  0  0  0  0  0
   -4.4964    3.1848   -4.6821 H   0  0  0  1  0  0  0  0  0  0  0  0
   -2.2764    3.4261   -3.7441 H   0  0  0  1  0  0  0  0  0  0  0  0
   -3.6000    1.6885   -0.1584 H   0  0  0  1  0  0  0  0  0  0  0  0
   -5.8239    1.4466   -1.0978 H   0  0  0  1  0  0  0  0  0  0  0  0
   -1.1256    3.7381   -1.2767 H   0  0  0  1  0  0  0  0  0  0  0  0
   -1.4926    2.3950   -0.2205 H   0  0  0  1  0  0  0  0  0  0  0  0
  1  4  1  0  0  0  0
  2  4  1  0  0  0  0
  2  5  2  0  0  0  0
  2  6  1  0  0  0  0
  3  4  1  0  0  0  0
  3  7  1  0  0  0  0
  3  8  1  0  0  0  0
  4 26  1  0  0  0  0
  6  9  1  0  0  0  0
  6 12  1  0  0  0  0
  8 10  1  0  0  0  0
  8 11  2  0  0  0  0
  9 13  1  0  0  0  0
  9 14  1  0  0  0  0
  9 15  1  0  0  0  0
 10 16  1  0  0  0  0
 10 17  1  0  0  0  0
 10 18  1  0  0  0  0
 19 20  1  0  0  0  0
 20 21  4  0  0  0  0
 20 25  4  0  0  0  0
 21 22  4  0  0  0  0
 21 27  1  0  0  0  0
 22 23  4  0  0  0  0
 22 28  1  0  0  0  0
 23 24  4  0  0  0  0
 23 26  1  0  0  0  0
 24 25  4  0  0  0  0
 24 29  1  0  0  0  0
 25 30  1  0  0  0  0
 26 31  1  0  0  0  0
 26 32  1  0  0  0  0
M  END
> <BCLConfClusterSize>
1

> <ConfClashScore>
0 

> <ConfOneFourInteractionScore>
-0.982563 

> <ConfScore>
0.255279 

> <ConfScorePBest>
0.00552689 

> <ConfTolerance>
0.367092 

> <RosettaParamsInstructions>
M  ROOT 3
M  POLY_N_BB 3
M  POLY_CA_BB 4
M  POLY_C_BB 2
M  POLY_O_BB 5
M  POLY_IGNORE 9 10 11 12 13 14 15 16 17 18 
M  POLY_UPPER 6
M  POLY_LOWER 8
M  POLY_CHG 0
M  POLY_PROPERTIES ALPHA_AA D_AA PROTEIN AROMATIC POLYMER 
M  END

$$$$



 32 32  0  0  0  0  0  0  0  0999 V2000
   -1.1788    0.6414   -1.1007 H   0  0  0  1  0  0  0  0  0  0  0  0
    0.6532    1.4181   -0.5073 C   0  0  0  1  0  0  0  0  0  0  0  0
   -0.2261    1.2332   -2.8135 N   0  0  0  1  0  0  0  0  0  0  0  0
   -0.5622    1.4624   -1.4016 C   0  0  0  1  0  0  0  0  0  0  0  0
    0.5666    0.9424    0.6128 O   0  0  0  1  0  0  0  0  0  0  0  0
    1.8060    1.8372   -1.0369 N   0  0  0  1  0  0  0  0  0  0  0  0
    0.6927    1.3954   -3.1134 H   0  0  0  1  0  0  0  0  0  0  0  0
   -1.1372    0.8076   -3.7103 C   0  0  0  1  0  0  0  0  0  0  0  0
    3.0599    1.7982   -0.2994 C   0  0  0  1  0  0  0  0  0  0  0  0
   -0.6182    0.7683   -5.1345 C   0  0  0  1  0  0  0  0  0  0  0  0
   -2.2794    0.4777   -3.4365 O   0  0  0  1  0  0  0  0  0  0  0  0
    1.8072    2.1828   -1.9540 H   0  0  0  1  0  0  0  0  0  0  0  0
    2.8640    1.9231    0.7451 H   0  0  0  1  0  0  0  0  0  0  0  0
    3.6979    2.5871   -0.6392 H   0  0  0  1  0  0  0  0  0  0  0  0
    3.5398    0.8557   -0.4618 H   0  0  0  1  0  0  0  0  0  0  0  0
   -0.5363    1.7660   -5.5124 H   0  0  0  1  0  0  0  0  0  0  0  0
   -1.2964    0.2102   -5.7456 H   0  0  0  1  0  0  0  0  0  0  0  0
    0.3442    0.3010   -5.1504 H   0  0  0  1  0  0  0  0  0  0  0  0
   -6.5463    2.1567   -3.4899 F   0  0  0  1  0  0  0  0  0  0  0  0
   -5.3147    2.2963   -2.9629 C   0  0  0  1  0  0  0  0  0  0  0  0
   -4.2994    2.8654   -3.7156 C   0  0  0  1  0  0  0  0  0  0  0  0
   -3.0342    3.0038   -3.1767 C   0  0  0  1  0  0  0  0  0  0  0  0
   -2.7820    2.5785   -1.8817 C   0  0  0  1  0  0  0  0  0  0  0  0
   -3.7945    2.0111   -1.1313 C   0  0  0  1  0  0  0  0  0  0  0  0
   -5.0635    1.8722   -1.6717 C   0  0  0  1  0  0  0  0  0  0  0  0
   -1.4219    2.7089   -1.2377 C   0  0  0  1  0  0  0  0  0  0  0  0
   -4.4895    3.1882   -4.6858 H   0  0  0  1  0  0  0  0  0  0  0  0
   -2.2714    3.4270   -3.7428 H   0  0  0  1  0  0  0  0  0  0  0  0
   -3.6043    1.6883   -0.1611 H   0  0  0  1  0  0  0  0  0  0  0  0
   -5.8264    1.4489   -1.1056 H   0  0  0  1  0  0  0  0  0  0  0  0
   -0.9113    3.5361   -1.6849 H   0  0  0  1  0  0  0  0  0  0  0  0
   -1.5564    2.8949   -0.1926 H   0  0  0  1  0  0  0  0  0  0  0  0
  1  4  1  0  0  0  0
  2  4  1  0  0  0  0
  2  5  2  0  0  0  0
  2  6  1  0  0  0  0
  3  4  1  0  0  0  0
  3  7  1  0  0  0  0
  3  8  1  0  0  0  0
  4 26  1  0  0  0  0
  6  9  1  0  0  0  0
  6 12  1  0  0  0  0
  8 10  1  0  0  0  0
  8 11  2  0  0  0  0
  9 13  1  0  0  0  0
  9 14  1  0  0  0  0
  9 15  1  0  0  0  0
 10 16  1  0  0  0  0
 10 17  1  0  0  0  0
 10 18  1  0  0  0  0
 19 20  1  0  0  0  0
 20 21  4  0  0  0  0
 20 25  4  0  0  0  0
 21 22  4  0  0  0  0
 21 27  1  0  0  0  0
 22 23  4  0  0  0  0
 22 28  1  0  0  0  0
 23 24  4  0  0  0  0
 23 26  1  0  0  0  0
 24 25  4  0  0  0  0
 24 29  1  0  0  0  0
 25 30  1  0  0  0  0
 26 31  1  0  0  0  0
 26 32  1  0  0  0  0
M  END
> <BCLConfClusterSize>
1

> <ConfClashScore>
0 

> <ConfOneFourInteractionScore>
-0.965014 

> <ConfScore>
0.257094 

> <ConfScorePBest>
0.00549841 

> <ConfTolerance>
0.473088 

> <RosettaParamsInstructions>
M  ROOT 3
M  POLY_N_BB 3
M  POLY_CA_BB 4
M  POLY_C_BB 2
M  POLY_O_BB 5
M  POLY_IGNORE 9 10 11 12 13 14 15 16 17 18 
M  POLY_UPPER 6
M  POLY_LOWER 8
M  POLY_CHG 0
M  POLY_PROPERTIES ALPHA_AA D_AA PROTEIN AROMATIC POLYMER 
M  END

$$$$



 32 32  0  0  0  0  0  0  0  0999 V2000
    0.5021    1.7984   -1.2326 H   0  0  0  1  0  0  0  0  0  0  0  0
   -0.3051    1.5077   -3.1622 C   0  0  0  1  0  0  0  0  0  0  0  0
   -0.9549    0.3333   -1.0982 N   0  0  0  1  0  0  0  0  0  0  0  0
   -0.4575    1.5860   -1.6556 C   0  0  0  1  0  0  0  0  0  0  0  0
   -0.5945    0.4845   -3.7809 O   0  0  0  1  0  0  0  0  0  0  0  0
    0.1602    2.6162   -3.7597 N   0  0  0  1  0  0  0  0  0  0  0  0
   -1.6306    0.3889   -0.3905 H   0  0  0  1  0  0  0  0  0  0  0  0
   -0.5499   -0.9120   -1.4885 C   0  0  0  1  0  0  0  0  0  0  0  0
    0.3908    2.6873   -5.1948 C   0  0  0  1  0  0  0  0  0  0  0  0
   -1.2582   -2.0361   -0.7577 C   0  0  0  1  0  0  0  0  0  0  0  0
    0.3005   -1.0758   -2.3438 O   0  0  0  1  0  0  0  0  0  0  0  0
    0.3512    3.4049   -3.2103 H   0  0  0  1  0  0  0  0  0  0  0  0
    1.2355    3.3144   -5.3902 H   0  0  0  1  0  0  0  0  0  0  0  0
   -0.4742    3.0947   -5.6751 H   0  0  0  1  0  0  0  0  0  0  0  0
    0.5808    1.7051   -5.5744 H   0  0  0  1  0  0  0  0  0  0  0  0
   -2.1562   -2.2918   -1.2803 H   0  0  0  1  0  0  0  0  0  0  0  0
   -1.5015   -1.7184    0.2346 H   0  0  0  1  0  0  0  0  0  0  0  0
   -0.6167   -2.8912   -0.7118 H   0  0  0  1  0  0  0  0  0  0  0  0
   -6.5450    2.1585   -3.4937 F   0  0  0  1  0  0  0  0  0  0  0  0
   -5.3149    2.2962   -2.9627 C   0  0  0  1  0  0  0  0  0  0  0  0
   -4.2965    2.8647   -3.7117 C   0  0  0  1  0  0  0  0  0  0  0  0
   -3.0329    3.0011   -3.1686 C   0  0  0  1  0  0  0  0  0  0  0  0
   -2.7853    2.5743   -1.8732 C   0  0  0  1  0  0  0  0  0  0  0  0
   -3.8009    2.0075   -1.1265 C   0  0  0  1  0  0  0  0  0  0  0  0
   -5.0683    1.8706   -1.6711 C   0  0  0  1  0  0  0  0  0  0  0  0
   -1.4060    2.7284   -1.2772 C   0  0  0  1  0  0  0  0  0  0  0  0
   -4.4831    3.1886   -4.6822 H   0  0  0  1  0  0  0  0  0  0  0  0
   -2.2677    3.4239   -3.7319 H   0  0  0  1  0  0  0  0  0  0  0  0
   -3.6142    1.6836   -0.1560 H   0  0  0  1  0  0  0  0  0  0  0  0
   -5.8335    1.4478   -1.1078 H   0  0  0  1  0  0  0  0  0  0  0  0
   -0.9858    3.6491   -1.6245 H   0  0  0  1  0  0  0  0  0  0  0  0
   -1.4968    2.7568   -0.2114 H   0  0  0  1  0  0  0  0  0  0  0  0
  1  4  1  0  0  0  0
  2  4  1  0  0  0  0
  2  5  2  0  0  0  0
  2  6  1  0  0  0  0
  3  4  1  0  0  0  0
  3  7  1  0  0  0  0
  3  8  1  0  0  0  0
  4 26  1  0  0  0  0
  6  9  1  0  0  0  0
  6 12  1  0  0  0  0
  8 10  1  0  0  0  0
  8 11  2  0  0  0  0
  9 13  1  0  0  0  0
  9 14  1  0  0  0  0
  9 15  1  0  0  0  0
 10 16  1  0  0  0  0
 10 17  1  0  0  0  0
 10 18  1  0  0  0  0
 19 20  1  0  0  0  0
 20 21  4  0  0  0  0
 20 25  4  0  0  0  0
 21 22  4  0  0  0  0
 21 27  1  0  0  0  0
 22 23  4  0  0  0  0
 22 28  1  0  0  0  0
 23 24  4  0  0  0  0
 23 26  1  0  0  0  0
 24 25  4  0  0  0  0
 24 29  1  0  0  0  0
 25 30  1  0  0  0  0
 26 31  1  0  0  0  0
 26 32  1  0  0  0  0
M  END
> <BCLConfClusterSize>
1

> <ConfClashScore>
0 

> <ConfOneFourInteractionScore>
-0.982563 

> <ConfScore>
0.258629 

> <ConfScorePBest>
0.00546993 

> <ConfTolerance>
0.396699 

> <RosettaParamsInstructions>
M  ROOT 3
M  POLY_N_BB 3
M  POLY_CA_BB 4
M  POLY_C_BB 2
M  POLY_O_BB 5
M  POLY_IGNORE 9 10 11 12 13 14 15 16 17 18 
M  POLY_UPPER 6
M  POLY_LOWER 8
M  POLY_CHG 0
M  POLY_PROPERTIES ALPHA_AA D_AA PROTEIN AROMATIC POLYMER 
M  END

$$$$



 32 32  0  0  0  0  0  0  0  0999 V2000
    0.4318    1.7695   -0.9574 H   0  0  0  1  0  0  0  0  0  0  0  0
    0.0012    1.5001   -2.9872 C   0  0  0  1  0  0  0  0  0  0  0  0
   -0.9957    0.2867   -1.0907 N   0  0  0  1  0  0  0  0  0  0  0  0
   -0.4455    1.5798   -1.5399 C   0  0  0  1  0  0  0  0  0  0  0  0
    0.5339    0.4825   -3.4280 O   0  0  0  1  0  0  0  0  0  0  0  0
   -0.2020    2.5713   -3.7703 N   0  0  0  1  0  0  0  0  0  0  0  0
   -1.5356   -0.2404   -1.7161 H   0  0  0  1  0  0  0  0  0  0  0  0
   -0.7827   -0.1923    0.1430 C   0  0  0  1  0  0  0  0  0  0  0  0
    0.1623    2.5847   -5.1792 C   0  0  0  1  0  0  0  0  0  0  0  0
   -1.3554   -1.5532    0.4880 C   0  0  0  1  0  0  0  0  0  0  0  0
   -0.1419    0.4514    0.9728 O   0  0  0  1  0  0  0  0  0  0  0  0
   -0.6100    3.3722   -3.3796 H   0  0  0  1  0  0  0  0  0  0  0  0
    1.1010    2.0882   -5.3101 H   0  0  0  1  0  0  0  0  0  0  0  0
    0.2443    3.5968   -5.5165 H   0  0  0  1  0  0  0  0  0  0  0  0
   -0.5907    2.0790   -5.7468 H   0  0  0  1  0  0  0  0  0  0  0  0
   -1.8263   -1.9722   -0.3766 H   0  0  0  1  0  0  0  0  0  0  0  0
   -2.0769   -1.4482    1.2711 H   0  0  0  1  0  0  0  0  0  0  0  0
   -0.5671   -2.1997    0.8130 H   0  0  0  1  0  0  0  0  0  0  0  0
   -6.5463    2.1567   -3.4899 F   0  0  0  1  0  0  0  0  0  0  0  0
   -5.3147    2.2963   -2.9629 C   0  0  0  1  0  0  0  0  0  0  0  0
   -4.2994    2.8654   -3.7156 C   0  0  0  1  0  0  0  0  0  0  0  0
   -3.0342    3.0038   -3.1767 C   0  0  0  1  0  0  0  0  0  0  0  0
   -2.7820    2.5785   -1.8817 C   0  0  0  1  0  0  0  0  0  0  0  0
   -3.7945    2.0111   -1.1313 C   0  0  0  1  0  0  0  0  0  0  0  0
   -5.0635    1.8722   -1.6717 C   0  0  0  1  0  0  0  0  0  0  0  0
   -1.4219    2.7089   -1.2377 C   0  0  0  1  0  0  0  0  0  0  0  0
   -4.4895    3.1882   -4.6858 H   0  0  0  1  0  0  0  0  0  0  0  0
   -2.2714    3.4270   -3.7428 H   0  0  0  1  0  0  0  0  0  0  0  0
   -3.6043    1.6883   -0.1611 H   0  0  0  1  0  0  0  0  0  0  0  0
   -5.8264    1.4489   -1.1056 H   0  0  0  1  0  0  0  0  0  0  0  0
   -0.9830    3.6242   -1.5760 H   0  0  0  1  0  0  0  0  0  0  0  0
   -1.5613    2.7499   -0.1776 H   0  0  0  1  0  0  0  0  0  0  0  0
  1  4  1  0  0  0  0
  2  4  1  0  0  0  0
  2  5  2  0  0  0  0
  2  6  1  0  0  0  0
  3  4  1  0  0  0  0
  3  7  1  0  0  0  0
  3  8  1  0  0  0  0
  4 26  1  0  0  0  0
  6  9  1  0  0  0  0
  6 12  1  0  0  0  0
  8 10  1  0  0  0  0
  8 11  2  0  0  0  0
  9 13  1  0  0  0  0
  9 14  1  0  0  0  0
  9 15  1  0  0  0  0
 10 16  1  0  0  0  0
 10 17  1  0  0  0  0
 10 18  1  0  0  0  0
 19 20  1  0  0  0  0
 20 21  4  0  0  0  0
 20 25  4  0  0  0  0
 21 22  4  0  0  0  0
 21 27  1  0  0  0  0
 22 23  4  0  0  0  0
 22 28  1  0  0  0  0
 23 24  4  0  0  0  0
 23 26  1  0  0  0  0
 24 25  4  0  0  0  0
 24 29  1  0  0  0  0
 25 30  1  0  0  0  0
 26 31  1  0  0  0  0
 26 32  1  0  0  0  0
M  END
> <BCLConfClusterSize>
1

> <ConfClashScore>
0 

> <ConfOneFourInteractionScore>
-0.921152 

> <ConfScore>
0.259383 

> <ConfScorePBest>
0.00544145 

> <ConfTolerance>
0.431769 

> <RosettaParamsInstructions>
M  ROOT 3
M  POLY_N_BB 3
M  POLY_CA_BB 4
M  POLY_C_BB 2
M  POLY_O_BB 5
M  POLY_IGNORE 9 10 11 12 13 14 15 16 17 18 
M  POLY_UPPER 6
M  POLY_LOWER 8
M  POLY_CHG 0
M  POLY_PROPERTIES ALPHA_AA D_AA PROTEIN AROMATIC POLYMER 
M  END

$$$$



 32 32  0  0  0  0  0  0  0  0999 V2000
   -0.1985    2.9915   -2.9445 H   0  0  0  1  0  0  0  0  0  0  0  0
    0.8221    3.7989   -1.2823 C   0  0  0  1  0  0  0  0  0  0  0  0
   -1.0949    4.7896   -2.4601 N   0  0  0  1  0  0  0  0  0  0  0  0
   -0.4516    3.5467   -2.0655 C   0  0  0  1  0  0  0  0  0  0  0  0
    1.5044    4.8036   -1.4793 O   0  0  0  1  0  0  0  0  0  0  0  0
    1.1442    2.8629   -0.3756 N   0  0  0  1  0  0  0  0  0  0  0  0
   -2.0355    4.9112   -2.2131 H   0  0  0  1  0  0  0  0  0  0  0  0
   -0.5013    5.7767   -3.1328 C   0  0  0  1  0  0  0  0  0  0  0  0
    2.3896    2.9047    0.3762 C   0  0  0  1  0  0  0  0  0  0  0  0
   -1.3928    6.9419   -3.5159 C   0  0  0  1  0  0  0  0  0  0  0  0
    0.6919    5.7604   -3.4322 O   0  0  0  1  0  0  0  0  0  0  0  0
    0.5189    2.1257   -0.2142 H   0  0  0  1  0  0  0  0  0  0  0  0
    3.2160    2.8030   -0.2958 H   0  0  0  1  0  0  0  0  0  0  0  0
    2.4054    2.1029    1.0846 H   0  0  0  1  0  0  0  0  0  0  0  0
    2.4630    3.8390    0.8925 H   0  0  0  1  0  0  0  0  0  0  0  0
   -1.4343    7.6410   -2.7069 H   0  0  0  1  0  0  0  0  0  0  0  0
   -2.3782    6.5823   -3.7271 H   0  0  0  1  0  0  0  0  0  0  0  0
   -0.9951    7.4246   -4.3841 H   0  0  0  1  0  0  0  0  0  0  0  0
   -6.5347    2.1712   -3.5193 F   0  0  0  1  0  0  0  0  0  0  0  0
   -5.3171    2.2933   -2.9568 C   0  0  0  1  0  0  0  0  0  0  0  0
   -4.3039    2.8628   -3.7121 C   0  0  0  1  0  0  0  0  0  0  0  0
   -3.0377    3.0026   -3.1761 C   0  0  0  1  0  0  0  0  0  0  0  0
   -2.7822    2.5783   -1.8814 C   0  0  0  1  0  0  0  0  0  0  0  0
   -3.7926    2.0105   -1.1284 C   0  0  0  1  0  0  0  0  0  0  0  0
   -5.0626    1.8702   -1.6659 C   0  0  0  1  0  0  0  0  0  0  0  0
   -1.4208    2.7103   -1.2405 C   0  0  0  1  0  0  0  0  0  0  0  0
   -4.4964    3.1848   -4.6821 H   0  0  0  1  0  0  0  0  0  0  0  0
   -2.2764    3.4261   -3.7441 H   0  0  0  1  0  0  0  0  0  0  0  0
   -3.6000    1.6885   -0.1584 H   0  0  0  1  0  0  0  0  0  0  0  0
   -5.8239    1.4466   -1.0978 H   0  0  0  1  0  0  0  0  0  0  0  0
   -1.5388    3.1718   -0.2824 H   0  0  0  1  0  0  0  0  0  0  0  0
   -1.0063    1.7316   -1.1169 H   0  0  0  1  0  0  0  0  0  0  0  0
  1  4  1  0  0  0  0
  2  4  1  0  0  0  0
  2  5  2  0  0  0  0
  2  6  1  0  0  0  0
  3  4  1  0  0  0  0
  3  7  1  0  0  0  0
  3  8  1  0  0  0  0
  4 26  1  0  0  0  0
  6  9  1  0  0  0  0
  6 12  1  0  0  0  0
  8 10  1  0  0  0  0
  8 11  2  0  0  0  0
  9 13  1  0  0  0  0
  9 14  1  0  0  0  0
  9 15  1  0  0  0  0
 10 16  1  0  0  0  0
 10 17  1  0  0  0  0
 10 18  1  0  0  0  0
 19 20  1  0  0  0  0
 20 21  4  0  0  0  0
 20 25  4  0  0  0  0
 21 22  4  0  0  0  0
 21 27  1  0  0  0  0
 22 23  4  0  0  0  0
 22 28  1  0  0  0  0
 23 24  4  0  0  0  0
 23 26  1  0  0  0  0
 24 25  4  0  0  0  0
 24 29  1  0  0  0  0
 25 30  1  0  0  0  0
 26 31  1  0  0  0  0
 26 32  1  0  0  0  0
M  END
> <BCLConfClusterSize>
1

> <ConfClashScore>
0 

> <ConfOneFourInteractionScore>
-0.951414 

> <ConfScore>
0.261647 

> <ConfScorePBest>
0.00541297 

> <ConfTolerance>
0.610849 

> <RosettaParamsInstructions>
M  ROOT 3
M  POLY_N_BB 3
M  POLY_CA_BB 4
M  POLY_C_BB 2
M  POLY_O_BB 5
M  POLY_IGNORE 9 10 11 12 13 14 15 16 17 18 
M  POLY_UPPER 6
M  POLY_LOWER 8
M  POLY_CHG 0
M  POLY_PROPERTIES ALPHA_AA D_AA PROTEIN AROMATIC POLYMER 
M  END

$$$$



 32 32  0  0  0  0  0  0  0  0999 V2000
   -0.8034    0.7638   -0.9175 H   0  0  0  1  0  0  0  0  0  0  0  0
    0.9587    1.8963   -1.0831 C   0  0  0  1  0  0  0  0  0  0  0  0
   -0.4996    1.1323   -2.9214 N   0  0  0  1  0  0  0  0  0  0  0  0
   -0.4524    1.5678   -1.5301 C   0  0  0  1  0  0  0  0  0  0  0  0
    1.1986    2.2349    0.0728 O   0  0  0  1  0  0  0  0  0  0  0  0
    1.9084    1.7919   -2.0262 N   0  0  0  1  0  0  0  0  0  0  0  0
   -0.6592    0.1850   -3.1153 H   0  0  0  1  0  0  0  0  0  0  0  0
   -0.3312    1.9870   -3.9492 C   0  0  0  1  0  0  0  0  0  0  0  0
    3.3099    2.0722   -1.7525 C   0  0  0  1  0  0  0  0  0  0  0  0
   -0.3274    1.3134   -5.3076 C   0  0  0  1  0  0  0  0  0  0  0  0
   -0.1911    3.2037   -3.8323 O   0  0  0  1  0  0  0  0  0  0  0  0
    1.6488    1.5172   -2.9304 H   0  0  0  1  0  0  0  0  0  0  0  0
    3.9251    1.4868   -2.4034 H   0  0  0  1  0  0  0  0  0  0  0  0
    3.5309    1.8247   -0.7352 H   0  0  0  1  0  0  0  0  0  0  0  0
    3.5044    3.1114   -1.9175 H   0  0  0  1  0  0  0  0  0  0  0  0
    0.2579    0.4189   -5.2611 H   0  0  0  1  0  0  0  0  0  0  0  0
    0.0936    1.9773   -6.0335 H   0  0  0  1  0  0  0  0  0  0  0  0
   -1.3308    1.0686   -5.5869 H   0  0  0  1  0  0  0  0  0  0  0  0
   -6.5436    2.1603   -3.4973 F   0  0  0  1  0  0  0  0  0  0  0  0
   -5.3149    2.2961   -2.9625 C   0  0  0  1  0  0  0  0  0  0  0  0
   -4.2936    2.8641   -3.7080 C   0  0  0  1  0  0  0  0  0  0  0  0
   -3.0315    2.9985   -3.1610 C   0  0  0  1  0  0  0  0  0  0  0  0
   -2.7882    2.5704   -1.8653 C   0  0  0  1  0  0  0  0  0  0  0  0
   -3.8067    2.0042   -1.1220 C   0  0  0  1  0  0  0  0  0  0  0  0
   -5.0726    1.8692   -1.6705 C   0  0  0  1  0  0  0  0  0  0  0  0
   -1.3927    2.7464   -1.3147 C   0  0  0  1  0  0  0  0  0  0  0  0
   -4.4770    3.1890   -4.6788 H   0  0  0  1  0  0  0  0  0  0  0  0
   -2.2642    3.4210   -3.7217 H   0  0  0  1  0  0  0  0  0  0  0  0
   -3.6232    1.6793   -0.1513 H   0  0  0  1  0  0  0  0  0  0  0  0
   -5.8400    1.4467   -1.1098 H   0  0  0  1  0  0  0  0  0  0  0  0
   -0.9588    3.6048   -1.7834 H   0  0  0  1  0  0  0  0  0  0  0  0
   -1.4725    2.9168   -0.2613 H   0  0  0  1  0  0  0  0  0  0  0  0
  1  4  1  0  0  0  0
  2  4  1  0  0  0  0
  2  5  2  0  0  0  0
  2  6  1  0  0  0  0
  3  4  1  0  0  0  0
  3  7  1  0  0  0  0
  3  8  1  0  0  0  0
  4 26  1  0  0  0  0
  6  9  1  0  0  0  0
  6 12  1  0  0  0  0
  8 10  1  0  0  0  0
  8 11  2  0  0  0  0
  9 13  1  0  0  0  0
  9 14  1  0  0  0  0
  9 15  1  0  0  0  0
 10 16  1  0  0  0  0
 10 17  1  0  0  0  0
 10 18  1  0  0  0  0
 19 20  1  0  0  0  0
 20 21  4  0  0  0  0
 20 25  4  0  0  0  0
 21 22  4  0  0  0  0
 21 27  1  0  0  0  0
 22 23  4  0  0  0  0
 22 28  1  0  0  0  0
 23 24  4  0  0  0  0
 23 26  1  0  0  0  0
 24 25  4  0  0  0  0
 24 29  1  0  0  0  0
 25 30  1  0  0  0  0
 26 31  1  0  0  0  0
 26 32  1  0  0  0  0
M  END
> <BCLConfClusterSize>
1

> <ConfClashScore>
0 

> <ConfOneFourInteractionScore>
-0.940043 

> <ConfScore>
0.263856 

> <ConfScorePBest>
0.00538449 

> <ConfTolerance>
0.344824 

> <RosettaParamsInstructions>
M  ROOT 3
M  POLY_N_BB 3
M  POLY_CA_BB 4
M  POLY_C_BB 2
M  POLY_O_BB 5
M  POLY_IGNORE 9 10 11 12 13 14 15 16 17 18 
M  POLY_UPPER 6
M  POLY_LOWER 8
M  POLY_CHG 0
M  POLY_PROPERTIES ALPHA_AA D_AA PROTEIN AROMATIC POLYMER 
M  END

$$$$



 32 32  0  0  0  0  0  0  0  0999 V2000
   -0.5311    1.3128   -2.6156 H   0  0  0  1  0  0  0  0  0  0  0  0
   -1.1749    0.2883   -0.8666 C   0  0  0  1  0  0  0  0  0  0  0  0
    0.8017    1.7101   -1.0682 N   0  0  0  1  0  0  0  0  0  0  0  0
   -0.5499    1.4886   -1.5603 C   0  0  0  1  0  0  0  0  0  0  0  0
   -1.1714    0.1961    0.3603 O   0  0  0  1  0  0  0  0  0  0  0  0
   -1.7320   -0.6698   -1.6359 N   0  0  0  1  0  0  0  0  0  0  0  0
    0.9488    1.7715   -0.1012 H   0  0  0  1  0  0  0  0  0  0  0  0
    1.8885    1.8371   -1.9198 C   0  0  0  1  0  0  0  0  0  0  0  0
   -2.2410   -1.8905   -1.0286 C   0  0  0  1  0  0  0  0  0  0  0  0
    3.2586    2.0277   -1.3322 C   0  0  0  1  0  0  0  0  0  0  0  0
    1.6951    1.7898   -3.1235 O   0  0  0  1  0  0  0  0  0  0  0  0
   -1.7940   -0.5436   -2.6058 H   0  0  0  1  0  0  0  0  0  0  0  0
   -2.4176   -1.7241    0.0136 H   0  0  0  1  0  0  0  0  0  0  0  0
   -1.5224   -2.6743   -1.1477 H   0  0  0  1  0  0  0  0  0  0  0  0
   -3.1572   -2.1704   -1.5051 H   0  0  0  1  0  0  0  0  0  0  0  0
    3.1746    2.2053   -0.2804 H   0  0  0  1  0  0  0  0  0  0  0  0
    3.7330    2.8658   -1.7985 H   0  0  0  1  0  0  0  0  0  0  0  0
    3.8436    1.1475   -1.4994 H   0  0  0  1  0  0  0  0  0  0  0  0
   -6.5450    2.1585   -3.4937 F   0  0  0  1  0  0  0  0  0  0  0  0
   -5.3149    2.2962   -2.9627 C   0  0  0  1  0  0  0  0  0  0  0  0
   -4.2965    2.8647   -3.7117 C   0  0  0  1  0  0  0  0  0  0  0  0
   -3.0329    3.0011   -3.1686 C   0  0  0  1  0  0  0  0  0  0  0  0
   -2.7853    2.5743   -1.8732 C   0  0  0  1  0  0  0  0  0  0  0  0
   -3.8009    2.0075   -1.1265 C   0  0  0  1  0  0  0  0  0  0  0  0
   -5.0683    1.8706   -1.6711 C   0  0  0  1  0  0  0  0  0  0  0  0
   -1.4060    2.7284   -1.2772 C   0  0  0  1  0  0  0  0  0  0  0  0
   -4.4831    3.1886   -4.6822 H   0  0  0  1  0  0  0  0  0  0  0  0
   -2.2677    3.4239   -3.7319 H   0  0  0  1  0  0  0  0  0  0  0  0
   -3.6142    1.6836   -0.1560 H   0  0  0  1  0  0  0  0  0  0  0  0
   -5.8335    1.4478   -1.1078 H   0  0  0  1  0  0  0  0  0  0  0  0
   -0.9326    3.5870   -1.7057 H   0  0  0  1  0  0  0  0  0  0  0  0
   -1.4938    2.8599   -0.2189 H   0  0  0  1  0  0  0  0  0  0  0  0
  1  4  1  0  0  0  0
  2  4  1  0  0  0  0
  2  5  2  0  0  0  0
  2  6  1  0  0  0  0
  3  4  1  0  0  0  0
  3  7  1  0  0  0  0
  3  8  1  0  0  0  0
  4 26  1  0  0  0  0
  6  9  1  0  0  0  0
  6 12  1  0  0  0  0
  8 10  1  0  0  0  0
  8 11  2  0  0  0  0
  9 13  1  0  0  0  0
  9 14  1  0  0  0  0
  9 15  1  0  0  0  0
 10 16  1  0  0  0  0
 10 17  1  0  0  0  0
 10 18  1  0  0  0  0
 19 20  1  0  0  0  0
 20 21  4  0  0  0  0
 20 25  4  0  0  0  0
 21 22  4  0  0  0  0
 21 27  1  0  0  0  0
 22 23  4  0  0  0  0
 22 28  1  0  0  0  0
 23 24  4  0  0  0  0
 23 26  1  0  0  0  0
 24 25  4  0  0  0  0
 24 29  1  0  0  0  0
 25 30  1  0  0  0  0
 26 31  1  0  0  0  0
 26 32  1  0  0  0  0
M  END
> <BCLConfClusterSize>
1

> <ConfClashScore>
0 

> <ConfOneFourInteractionScore>
-0.990503 

> <ConfScore>
0.264719 

> <ConfScorePBest>
0.00535601 

> <ConfTolerance>
0.266546 

> <RosettaParamsInstructions>
M  ROOT 3
M  POLY_N_BB 3
M  POLY_CA_BB 4
M  POLY_C_BB 2
M  POLY_O_BB 5
M  POLY_IGNORE 9 10 11 12 13 14 15 16 17 18 
M  POLY_UPPER 6
M  POLY_LOWER 8
M  POLY_CHG 0
M  POLY_PROPERTIES ALPHA_AA D_AA PROTEIN AROMATIC POLYMER 
M  END

$$$$



 32 32  0  0  0  0  0  0  0  0999 V2000
   -1.3399    4.7556   -0.9521 H   0  0  0  1  0  0  0  0  0  0  0  0
    0.2170    3.9770    0.2133 C   0  0  0  1  0  0  0  0  0  0  0  0
   -2.1970    3.8546    0.6941 N   0  0  0  1  0  0  0  0  0  0  0  0
   -1.1800    3.8692   -0.3744 C   0  0  0  1  0  0  0  0  0  0  0  0
    1.1510    3.2896   -0.2198 O   0  0  0  1  0  0  0  0  0  0  0  0
    0.3609    4.8559    1.2178 N   0  0  0  1  0  0  0  0  0  0  0  0
   -2.9704    4.4518    0.6191 H   0  0  0  1  0  0  0  0  0  0  0  0
   -2.1003    3.0556    1.7605 C   0  0  0  1  0  0  0  0  0  0  0  0
    1.6266    5.0439    1.9109 C   0  0  0  1  0  0  0  0  0  0  0  0
   -3.2585    3.1176    2.7373 C   0  0  0  1  0  0  0  0  0  0  0  0
   -1.1407    2.3105    1.9545 O   0  0  0  1  0  0  0  0  0  0  0  0
   -0.4134    5.3895    1.4939 H   0  0  0  1  0  0  0  0  0  0  0  0
    2.1859    5.8185    1.4293 H   0  0  0  1  0  0  0  0  0  0  0  0
    2.1857    4.1320    1.8856 H   0  0  0  1  0  0  0  0  0  0  0  0
    1.4387    5.3195    2.9276 H   0  0  0  1  0  0  0  0  0  0  0  0
   -2.8820    3.2535    3.7296 H   0  0  0  1  0  0  0  0  0  0  0  0
   -3.8147    2.2048    2.6890 H   0  0  0  1  0  0  0  0  0  0  0  0
   -3.8960    3.9383    2.4825 H   0  0  0  1  0  0  0  0  0  0  0  0
   -6.5493    2.1272   -3.4735 F   0  0  0  1  0  0  0  0  0  0  0  0
   -5.3109    2.2935   -2.9708 C   0  0  0  1  0  0  0  0  0  0  0  0
   -4.2899    2.8676   -3.7120 C   0  0  0  1  0  0  0  0  0  0  0  0
   -3.0322    3.0141   -3.1581 C   0  0  0  1  0  0  0  0  0  0  0  0
   -2.7930    2.5919   -1.8597 C   0  0  0  1  0  0  0  0  0  0  0  0
   -3.8111    2.0194   -1.1207 C   0  0  0  1  0  0  0  0  0  0  0  0
   -5.0726    1.8724   -1.6761 C   0  0  0  1  0  0  0  0  0  0  0  0
   -1.3835    2.6857   -1.3249 C   0  0  0  1  0  0  0  0  0  0  0  0
   -4.4703    3.1882   -4.6848 H   0  0  0  1  0  0  0  0  0  0  0  0
   -2.2651    3.4412   -3.7156 H   0  0  0  1  0  0  0  0  0  0  0  0
   -3.6306    1.6989   -0.1479 H   0  0  0  1  0  0  0  0  0  0  0  0
   -5.8397    1.4452   -1.1186 H   0  0  0  1  0  0  0  0  0  0  0  0
   -1.1586    1.7824   -0.7972 H   0  0  0  1  0  0  0  0  0  0  0  0
   -0.7122    2.7931   -2.1512 H   0  0  0  1  0  0  0  0  0  0  0  0
  1  4  1  0  0  0  0
  2  4  1  0  0  0  0
  2  5  2  0  0  0  0
  2  6  1  0  0  0  0
  3  4  1  0  0  0  0
  3  7  1  0  0  0  0
  3  8  1  0  0  0  0
  4 26  1  0  0  0  0
  6  9  1  0  0  0  0
  6 12  1  0  0  0  0
  8 10  1  0  0  0  0
  8 11  2  0  0  0  0
  9 13  1  0  0  0  0
  9 14  1  0  0  0  0
  9 15  1  0  0  0  0
 10 16  1  0  0  0  0
 10 17  1  0  0  0  0
 10 18  1  0  0  0  0
 19 20  1  0  0  0  0
 20 21  4  0  0  0  0
 20 25  4  0  0  0  0
 21 22  4  0  0  0  0
 21 27  1  0  0  0  0
 22 23  4  0  0  0  0
 22 28  1  0  0  0  0
 23 24  4  0  0  0  0
 23 26  1  0  0  0  0
 24 25  4  0  0  0  0
 24 29  1  0  0  0  0
 25 30  1  0  0  0  0
 26 31  1  0  0  0  0
 26 32  1  0  0  0  0
M  END
> <BCLConfClusterSize>
1

> <ConfClashScore>
0 

> <ConfOneFourInteractionScore>
-0.976539 

> <ConfScore>
0.266837 

> <ConfScorePBest>
0.00532753 

> <ConfTolerance>
0.256934 

> <RosettaParamsInstructions>
M  ROOT 3
M  POLY_N_BB 3
M  POLY_CA_BB 4
M  POLY_C_BB 2
M  POLY_O_BB 5
M  POLY_IGNORE 9 10 11 12 13 14 15 16 17 18 
M  POLY_UPPER 6
M  POLY_LOWER 8
M  POLY_CHG 0
M  POLY_PROPERTIES ALPHA_AA D_AA PROTEIN AROMATIC POLYMER 
M  END

$$$$



 32 32  0  0  0  0  0  0  0  0999 V2000
   -0.1289    4.2018   -0.4616 H   0  0  0  1  0  0  0  0  0  0  0  0
   -1.8815    4.2850    0.6904 C   0  0  0  1  0  0  0  0  0  0  0  0
   -1.5932    5.1696   -1.5566 N   0  0  0  1  0  0  0  0  0  0  0  0
   -1.1797    4.1010   -0.6361 C   0  0  0  1  0  0  0  0  0  0  0  0
   -2.0575    3.3384    1.4564 O   0  0  0  1  0  0  0  0  0  0  0  0
   -2.2902    5.5331    0.9654 N   0  0  0  1  0  0  0  0  0  0  0  0
   -0.9030    5.6783   -2.0311 H   0  0  0  1  0  0  0  0  0  0  0  0
   -2.8899    5.4744   -1.7710 C   0  0  0  1  0  0  0  0  0  0  0  0
   -2.8449    5.8488    2.2733 C   0  0  0  1  0  0  0  0  0  0  0  0
   -3.2070    6.6089   -2.7258 C   0  0  0  1  0  0  0  0  0  0  0  0
   -3.7904    4.8518   -1.2096 O   0  0  0  1  0  0  0  0  0  0  0  0
   -2.2151    6.2335    0.2841 H   0  0  0  1  0  0  0  0  0  0  0  0
   -3.5464    6.6513    2.1795 H   0  0  0  1  0  0  0  0  0  0  0  0
   -2.0556    6.1408    2.9341 H   0  0  0  1  0  0  0  0  0  0  0  0
   -3.3405    4.9865    2.6679 H   0  0  0  1  0  0  0  0  0  0  0  0
   -3.9386    7.2531   -2.2846 H   0  0  0  1  0  0  0  0  0  0  0  0
   -3.5905    6.2081   -3.6407 H   0  0  0  1  0  0  0  0  0  0  0  0
   -2.3157    7.1661   -2.9258 H   0  0  0  1  0  0  0  0  0  0  0  0
   -6.5332    2.1730   -3.5231 F   0  0  0  1  0  0  0  0  0  0  0  0
   -5.3173    2.2932   -2.9566 C   0  0  0  1  0  0  0  0  0  0  0  0
   -4.3009    2.8621   -3.7082 C   0  0  0  1  0  0  0  0  0  0  0  0
   -3.0363    2.9999   -3.1680 C   0  0  0  1  0  0  0  0  0  0  0  0
   -2.7855    2.5741   -1.8729 C   0  0  0  1  0  0  0  0  0  0  0  0
   -3.7989    2.0069   -1.1236 C   0  0  0  1  0  0  0  0  0  0  0  0
   -5.0674    1.8686   -1.6653 C   0  0  0  1  0  0  0  0  0  0  0  0
   -1.4050    2.7298   -1.2800 C   0  0  0  1  0  0  0  0  0  0  0  0
   -4.4900    3.1852   -4.6785 H   0  0  0  1  0  0  0  0  0  0  0  0
   -2.2727    3.4230   -3.7333 H   0  0  0  1  0  0  0  0  0  0  0  0
   -3.6098    1.6838   -0.1533 H   0  0  0  1  0  0  0  0  0  0  0  0
   -5.8310    1.4455   -1.1000 H   0  0  0  1  0  0  0  0  0  0  0  0
   -1.2683    1.9761   -0.5329 H   0  0  0  1  0  0  0  0  0  0  0  0
   -0.6830    2.5963   -2.0583 H   0  0  0  1  0  0  0  0  0  0  0  0
  1  4  1  0  0  0  0
  2  4  1  0  0  0  0
  2  5  2  0  0  0  0
  2  6  1  0  0  0  0
  3  4  1  0  0  0  0
  3  7  1  0  0  0  0
  3  8  1  0  0  0  0
  4 26  1  0  0  0  0
  6  9  1  0  0  0  0
  6 12  1  0  0  0  0
  8 10  1  0  0  0  0
  8 11  2  0  0  0  0
  9 13  1  0  0  0  0
  9 14  1  0  0  0  0
  9 15  1  0  0  0  0
 10 16  1  0  0  0  0
 10 17  1  0  0  0  0
 10 18  1  0  0  0  0
 19 20  1  0  0  0  0
 20 21  4  0  0  0  0
 20 25  4  0  0  0  0
 21 22  4  0  0  0  0
 21 27  1  0  0  0  0
 22 23  4  0  0  0  0
 22 28  1  0  0  0  0
 23 24  4  0  0  0  0
 23 26  1  0  0  0  0
 24 25  4  0  0  0  0
 24 29  1  0  0  0  0
 25 30  1  0  0  0  0
 26 31  1  0  0  0  0
 26 32  1  0  0  0  0
M  END
> <BCLConfClusterSize>
1

> <ConfClashScore>
0 

> <ConfOneFourInteractionScore>
-0.929341 

> <ConfScore>
0.26814 

> <ConfScorePBest>
0.00529905 

> <ConfTolerance>
0.311627 

> <RosettaParamsInstructions>
M  ROOT 3
M  POLY_N_BB 3
M  POLY_CA_BB 4
M  POLY_C_BB 2
M  POLY_O_BB 5
M  POLY_IGNORE 9 10 11 12 13 14 15 16 17 18 
M  POLY_UPPER 6
M  POLY_LOWER 8
M  POLY_CHG 0
M  POLY_PROPERTIES ALPHA_AA D_AA PROTEIN AROMATIC POLYMER 
M  END

$$$$



 32 32  0  0  0  0  0  0  0  0999 V2000
   -1.5859    4.7816   -0.9028 H   0  0  0  1  0  0  0  0  0  0  0  0
    0.2314    4.1726   -0.0419 C   0  0  0  1  0  0  0  0  0  0  0  0
   -2.0361    3.8115    0.8548 N   0  0  0  1  0  0  0  0  0  0  0  0
   -1.2334    3.9342   -0.3529 C   0  0  0  1  0  0  0  0  0  0  0  0
    0.6363    4.2324    1.1183 O   0  0  0  1  0  0  0  0  0  0  0  0
    1.0384    4.3108   -1.1058 N   0  0  0  1  0  0  0  0  0  0  0  0
   -2.8780    4.3118    0.8920 H   0  0  0  1  0  0  0  0  0  0  0  0
   -1.7091    3.0620    1.9256 C   0  0  0  1  0  0  0  0  0  0  0  0
    2.3792    4.8518   -0.9404 C   0  0  0  1  0  0  0  0  0  0  0  0
   -2.6946    3.1748    3.0724 C   0  0  0  1  0  0  0  0  0  0  0  0
   -0.7132    2.3434    1.9994 O   0  0  0  1  0  0  0  0  0  0  0  0
    0.7239    4.0469   -1.9956 H   0  0  0  1  0  0  0  0  0  0  0  0
    3.0430    4.3795   -1.6341 H   0  0  0  1  0  0  0  0  0  0  0  0
    2.7172    4.6678    0.0580 H   0  0  0  1  0  0  0  0  0  0  0  0
    2.3633    5.9059   -1.1235 H   0  0  0  1  0  0  0  0  0  0  0  0
   -2.4673    2.4363    3.8126 H   0  0  0  1  0  0  0  0  0  0  0  0
   -3.6876    3.0181    2.7057 H   0  0  0  1  0  0  0  0  0  0  0  0
   -2.6245    4.1495    3.5081 H   0  0  0  1  0  0  0  0  0  0  0  0
   -6.5463    2.1567   -3.4899 F   0  0  0  1  0  0  0  0  0  0  0  0
   -5.3147    2.2963   -2.9629 C   0  0  0  1  0  0  0  0  0  0  0  0
   -4.2994    2.8654   -3.7156 C   0  0  0  1  0  0  0  0  0  0  0  0
   -3.0342    3.0038   -3.1767 C   0  0  0  1  0  0  0  0  0  0  0  0
   -2.7820    2.5785   -1.8817 C   0  0  0  1  0  0  0  0  0  0  0  0
   -3.7945    2.0111   -1.1313 C   0  0  0  1  0  0  0  0  0  0  0  0
   -5.0635    1.8722   -1.6717 C   0  0  0  1  0  0  0  0  0  0  0  0
   -1.4219    2.7089   -1.2377 C   0  0  0  1  0  0  0  0  0  0  0  0
   -4.4895    3.1882   -4.6858 H   0  0  0  1  0  0  0  0  0  0  0  0
   -2.2714    3.4270   -3.7428 H   0  0  0  1  0  0  0  0  0  0  0  0
   -3.6043    1.6883   -0.1611 H   0  0  0  1  0  0  0  0  0  0  0  0
   -5.8264    1.4489   -1.1056 H   0  0  0  1  0  0  0  0  0  0  0  0
   -1.2565    1.8392   -0.6368 H   0  0  0  1  0  0  0  0  0  0  0  0
   -0.6901    2.7490   -2.0173 H   0  0  0  1  0  0  0  0  0  0  0  0
  1  4  1  0  0  0  0
  2  4  1  0  0  0  0
  2  5  2  0  0  0  0
  2  6  1  0  0  0  0
  3  4  1  0  0  0  0
  3  7  1  0  0  0  0
  3  8  1  0  0  0  0
  4 26  1  0  0  0  0
  6  9  1  0  0  0  0
  6 12  1  0  0  0  0
  8 10  1  0  0  0  0
  8 11  2  0  0  0  0
  9 13  1  0  0  0  0
  9 14  1  0  0  0  0
  9 15  1  0  0  0  0
 10 16  1  0  0  0  0
 10 17  1  0  0  0  0
 10 18  1  0  0  0  0
 19 20  1  0  0  0  0
 20 21  4  0  0  0  0
 20 25  4  0  0  0  0
 21 22  4  0  0  0  0
 21 27  1  0  0  0  0
 22 23  4  0  0  0  0
 22 28  1  0  0  0  0
 23 24  4  0  0  0  0
 23 26  1  0  0  0  0
 24 25  4  0  0  0  0
 24 29  1  0  0  0  0
 25 30  1  0  0  0  0
 26 31  1  0  0  0  0
 26 32  1  0  0  0  0
M  END
> <BCLConfClusterSize>
1

> <ConfClashScore>
0 

> <ConfOneFourInteractionScore>
-0.960887 

> <ConfScore>
0.272863 

> <ConfScorePBest>
0.00527057 

> <ConfTolerance>
0.419477 

> <RosettaParamsInstructions>
M  ROOT 3
M  POLY_N_BB 3
M  POLY_CA_BB 4
M  POLY_C_BB 2
M  POLY_O_BB 5
M  POLY_IGNORE 9 10 11 12 13 14 15 16 17 18 
M  POLY_UPPER 6
M  POLY_LOWER 8
M  POLY_CHG 0
M  POLY_PROPERTIES ALPHA_AA D_AA PROTEIN AROMATIC POLYMER 
M  END

$$$$



 32 32  0  0  0  0  0  0  0  0999 V2000
   -1.8340    3.7410    0.5257 H   0  0  0  1  0  0  0  0  0  0  0  0
   -1.9178    5.1956   -0.9538 C   0  0  0  1  0  0  0  0  0  0  0  0
    0.1066    4.1705    0.0346 N   0  0  0  1  0  0  0  0  0  0  0  0
   -1.2891    3.9534   -0.3703 C   0  0  0  1  0  0  0  0  0  0  0  0
   -1.4400    5.6453   -1.9794 O   0  0  0  1  0  0  0  0  0  0  0  0
   -2.9585    5.7022   -0.2864 N   0  0  0  1  0  0  0  0  0  0  0  0
    0.8065    4.1508   -0.6511 H   0  0  0  1  0  0  0  0  0  0  0  0
    0.4547    4.3937    1.3051 C   0  0  0  1  0  0  0  0  0  0  0  0
   -3.5876    6.9586   -0.6651 C   0  0  0  1  0  0  0  0  0  0  0  0
    1.9406    4.4448    1.5797 C   0  0  0  1  0  0  0  0  0  0  0  0
   -0.3657    4.5497    2.2056 O   0  0  0  1  0  0  0  0  0  0  0  0
   -3.3103    5.2107    0.4849 H   0  0  0  1  0  0  0  0  0  0  0  0
   -3.8172    6.9424   -1.7101 H   0  0  0  1  0  0  0  0  0  0  0  0
   -2.9189    7.7683   -0.4596 H   0  0  0  1  0  0  0  0  0  0  0  0
   -4.4894    7.0890   -0.1041 H   0  0  0  1  0  0  0  0  0  0  0  0
    2.3852    3.5082    1.3148 H   0  0  0  1  0  0  0  0  0  0  0  0
    2.1045    4.6356    2.6197 H   0  0  0  1  0  0  0  0  0  0  0  0
    2.3837    5.2266    0.9990 H   0  0  0  1  0  0  0  0  0  0  0  0
   -6.5347    2.1712   -3.5193 F   0  0  0  1  0  0  0  0  0  0  0  0
   -5.3171    2.2933   -2.9568 C   0  0  0  1  0  0  0  0  0  0  0  0
   -4.3039    2.8628   -3.7121 C   0  0  0  1  0  0  0  0  0  0  0  0
   -3.0377    3.0026   -3.1761 C   0  0  0  1  0  0  0  0  0  0  0  0
   -2.7822    2.5783   -1.8814 C   0  0  0  1  0  0  0  0  0  0  0  0
   -3.7926    2.0105   -1.1284 C   0  0  0  1  0  0  0  0  0  0  0  0
   -5.0626    1.8702   -1.6659 C   0  0  0  1  0  0  0  0  0  0  0  0
   -1.4208    2.7103   -1.2405 C   0  0  0  1  0  0  0  0  0  0  0  0
   -4.4964    3.1848   -4.6821 H   0  0  0  1  0  0  0  0  0  0  0  0
   -2.2764    3.4261   -3.7441 H   0  0  0  1  0  0  0  0  0  0  0  0
   -3.6000    1.6885   -0.1584 H   0  0  0  1  0  0  0  0  0  0  0  0
   -5.8239    1.4466   -1.0978 H   0  0  0  1  0  0  0  0  0  0  0  0
   -1.2461    1.8481   -0.6314 H   0  0  0  1  0  0  0  0  0  0  0  0
   -0.6832    2.7564   -2.0142 H   0  0  0  1  0  0  0  0  0  0  0  0
  1  4  1  0  0  0  0
  2  4  1  0  0  0  0
  2  5  2  0  0  0  0
  2  6  1  0  0  0  0
  3  4  1  0  0  0  0
  3  7  1  0  0  0  0
  3  8  1  0  0  0  0
  4 26  1  0  0  0  0
  6  9  1  0  0  0  0
  6 12  1  0  0  0  0
  8 10  1  0  0  0  0
  8 11  2  0  0  0  0
  9 13  1  0  0  0  0
  9 14  1  0  0  0  0
  9 15  1  0  0  0  0
 10 16  1  0  0  0  0
 10 17  1  0  0  0  0
 10 18  1  0  0  0  0
 19 20  1  0  0  0  0
 20 21  4  0  0  0  0
 20 25  4  0  0  0  0
 21 22  4  0  0  0  0
 21 27  1  0  0  0  0
 22 23  4  0  0  0  0
 22 28  1  0  0  0  0
 23 24  4  0  0  0  0
 23 26  1  0  0  0  0
 24 25  4  0  0  0  0
 24 29  1  0  0  0  0
 25 30  1  0  0  0  0
 26 31  1  0  0  0  0
 26 32  1  0  0  0  0
M  END
> <BCLConfClusterSize>
1

> <ConfClashScore>
0 

> <ConfOneFourInteractionScore>
-0.974883 

> <ConfScore>
0.277308 

> <ConfScorePBest>
0.00524209 

> <ConfTolerance>
0.41222 

> <RosettaParamsInstructions>
M  ROOT 3
M  POLY_N_BB 3
M  POLY_CA_BB 4
M  POLY_C_BB 2
M  POLY_O_BB 5
M  POLY_IGNORE 9 10 11 12 13 14 15 16 17 18 
M  POLY_UPPER 6
M  POLY_LOWER 8
M  POLY_CHG 0
M  POLY_PROPERTIES ALPHA_AA D_AA PROTEIN AROMATIC POLYMER 
M  END

$$$$



 32 32  0  0  0  0  0  0  0  0999 V2000
   -0.4343    1.0025   -2.0331 H   0  0  0  1  0  0  0  0  0  0  0  0
   -1.5878    0.3878   -0.3819 C   0  0  0  1  0  0  0  0  0  0  0  0
    0.5344    1.5673   -0.2955 N   0  0  0  1  0  0  0  0  0  0  0  0
   -0.6894    1.3909   -1.0693 C   0  0  0  1  0  0  0  0  0  0  0  0
   -2.3809   -0.2957   -1.0279 O   0  0  0  1  0  0  0  0  0  0  0  0
   -1.4942    0.2669    0.9454 N   0  0  0  1  0  0  0  0  0  0  0  0
    0.8036    2.4732   -0.0362 H   0  0  0  1  0  0  0  0  0  0  0  0
    1.3010    0.5367    0.0722 C   0  0  0  1  0  0  0  0  0  0  0  0
   -2.2230   -0.7516    1.6865 C   0  0  0  1  0  0  0  0  0  0  0  0
    2.5580    0.8786    0.8766 C   0  0  0  1  0  0  0  0  0  0  0  0
    1.0850   -0.6484   -0.1779 O   0  0  0  1  0  0  0  0  0  0  0  0
   -0.9145    0.8855    1.4370 H   0  0  0  1  0  0  0  0  0  0  0  0
   -2.3105   -1.6346    1.0885 H   0  0  0  1  0  0  0  0  0  0  0  0
   -3.1994   -0.3865    1.9279 H   0  0  0  1  0  0  0  0  0  0  0  0
   -1.6951   -0.9827    2.5881 H   0  0  0  1  0  0  0  0  0  0  0  0
    3.2807    0.0983    0.7589 H   0  0  0  1  0  0  0  0  0  0  0  0
    2.3035    0.9756    1.9114 H   0  0  0  1  0  0  0  0  0  0  0  0
    2.9683    1.8009    0.5217 H   0  0  0  1  0  0  0  0  0  0  0  0
   -6.5450    2.1585   -3.4937 F   0  0  0  1  0  0  0  0  0  0  0  0
   -5.3149    2.2962   -2.9627 C   0  0  0  1  0  0  0  0  0  0  0  0
   -4.2965    2.8647   -3.7117 C   0  0  0  1  0  0  0  0  0  0  0  0
   -3.0329    3.0011   -3.1686 C   0  0  0  1  0  0  0  0  0  0  0  0
   -2.7853    2.5743   -1.8732 C   0  0  0  1  0  0  0  0  0  0  0  0
   -3.8009    2.0075   -1.1265 C   0  0  0  1  0  0  0  0  0  0  0  0
   -5.0683    1.8706   -1.6711 C   0  0  0  1  0  0  0  0  0  0  0  0
   -1.4060    2.7284   -1.2772 C   0  0  0  1  0  0  0  0  0  0  0  0
   -4.4831    3.1886   -4.6822 H   0  0  0  1  0  0  0  0  0  0  0  0
   -2.2677    3.4239   -3.7319 H   0  0  0  1  0  0  0  0  0  0  0  0
   -3.6142    1.6836   -0.1560 H   0  0  0  1  0  0  0  0  0  0  0  0
   -5.8335    1.4478   -1.1078 H   0  0  0  1  0  0  0  0  0  0  0  0
   -0.8163    3.3322   -1.9349 H   0  0  0  1  0  0  0  0  0  0  0  0
   -1.4971    3.2168   -0.3295 H   0  0  0  1  0  0  0  0  0  0  0  0
  1  4  1  0  0  0  0
  2  4  1  0  0  0  0
  2  5  2  0  0  0  0
  2  6  1  0  0  0  0
  3  4  1  0  0  0  0
  3  7  1  0  0  0  0
  3  8  1  0  0  0  0
  4 26  1  0  0  0  0
  6  9  1  0  0  0  0
  6 12  1  0  0  0  0
  8 10  1  0  0  0  0
  8 11  2  0  0  0  0
  9 13  1  0  0  0  0
  9 14  1  0  0  0  0
  9 15  1  0  0  0  0
 10 16  1  0  0  0  0
 10 17  1  0  0  0  0
 10 18  1  0  0  0  0
 19 20  1  0  0  0  0
 20 21  4  0  0  0  0
 20 25  4  0  0  0  0
 21 22  4  0  0  0  0
 21 27  1  0  0  0  0
 22 23  4  0  0  0  0
 22 28  1  0  0  0  0
 23 24  4  0  0  0  0
 23 26  1  0  0  0  0
 24 25  4  0  0  0  0
 24 29  1  0  0  0  0
 25 30  1  0  0  0  0
 26 31  1  0  0  0  0
 26 32  1  0  0  0  0
M  END
> <BCLConfClusterSize>
1

> <ConfClashScore>
0 

> <ConfOneFourInteractionScore>
-0.956443 

> <ConfScore>
0.282899 

> <ConfScorePBest>
0.00521361 

> <ConfTolerance>
0.371298 

> <RosettaParamsInstructions>
M  ROOT 3
M  POLY_N_BB 3
M  POLY_CA_BB 4
M  POLY_C_BB 2
M  POLY_O_BB 5
M  POLY_IGNORE 9 10 11 12 13 14 15 16 17 18 
M  POLY_UPPER 6
M  POLY_LOWER 8
M  POLY_CHG 0
M  POLY_PROPERTIES ALPHA_AA D_AA PROTEIN AROMATIC POLYMER 
M  END

$$$$



 32 32  0  0  0  0  0  0  0  0999 V2000
   -0.8870    0.7252   -1.6697 H   0  0  0  1  0  0  0  0  0  0  0  0
    0.7936    1.6041   -0.7554 C   0  0  0  1  0  0  0  0  0  0  0  0
    0.0114    1.9474   -3.0672 N   0  0  0  1  0  0  0  0  0  0  0  0
   -0.3939    1.6744   -1.6956 C   0  0  0  1  0  0  0  0  0  0  0  0
    0.7231    2.0279    0.3864 O   0  0  0  1  0  0  0  0  0  0  0  0
    1.9071    1.0517   -1.2626 N   0  0  0  1  0  0  0  0  0  0  0  0
   -0.3631    1.3787   -3.7720 H   0  0  0  1  0  0  0  0  0  0  0  0
    0.8536    2.9128   -3.4365 C   0  0  0  1  0  0  0  0  0  0  0  0
    3.1099    0.7517   -0.5003 C   0  0  0  1  0  0  0  0  0  0  0  0
    1.1706    2.9794   -4.9178 C   0  0  0  1  0  0  0  0  0  0  0  0
    1.3516    3.7080   -2.6407 O   0  0  0  1  0  0  0  0  0  0  0  0
    1.9101    0.8340   -2.2181 H   0  0  0  1  0  0  0  0  0  0  0  0
    3.8336    0.2929   -1.1411 H   0  0  0  1  0  0  0  0  0  0  0  0
    2.8676    0.0836    0.2996 H   0  0  0  1  0  0  0  0  0  0  0  0
    3.5129    1.6581   -0.0990 H   0  0  0  1  0  0  0  0  0  0  0  0
    0.3184    2.6594   -5.4802 H   0  0  0  1  0  0  0  0  0  0  0  0
    2.0007    2.3397   -5.1337 H   0  0  0  1  0  0  0  0  0  0  0  0
    1.4164    3.9859   -5.1848 H   0  0  0  1  0  0  0  0  0  0  0  0
   -6.5450    2.1585   -3.4937 F   0  0  0  1  0  0  0  0  0  0  0  0
   -5.3149    2.2962   -2.9627 C   0  0  0  1  0  0  0  0  0  0  0  0
   -4.2965    2.8647   -3.7117 C   0  0  0  1  0  0  0  0  0  0  0  0
   -3.0329    3.0011   -3.1686 C   0  0  0  1  0  0  0  0  0  0  0  0
   -2.7853    2.5743   -1.8732 C   0  0  0  1  0  0  0  0  0  0  0  0
   -3.8009    2.0075   -1.1265 C   0  0  0  1  0  0  0  0  0  0  0  0
   -5.0683    1.8706   -1.6711 C   0  0  0  1  0  0  0  0  0  0  0  0
   -1.4060    2.7284   -1.2772 C   0  0  0  1  0  0  0  0  0  0  0  0
   -4.4831    3.1886   -4.6822 H   0  0  0  1  0  0  0  0  0  0  0  0
   -2.2677    3.4239   -3.7319 H   0  0  0  1  0  0  0  0  0  0  0  0
   -3.6142    1.6836   -0.1560 H   0  0  0  1  0  0  0  0  0  0  0  0
   -5.8335    1.4478   -1.1078 H   0  0  0  1  0  0  0  0  0  0  0  0
   -1.0256    3.6852   -1.5683 H   0  0  0  1  0  0  0  0  0  0  0  0
   -1.5006    2.6907   -0.2120 H   0  0  0  1  0  0  0  0  0  0  0  0
  1  4  1  0  0  0  0
  2  4  1  0  0  0  0
  2  5  2  0  0  0  0
  2  6  1  0  0  0  0
  3  4  1  0  0  0  0
  3  7  1  0  0  0  0
  3  8  1  0  0  0  0
  4 26  1  0  0  0  0
  6  9  1  0  0  0  0
  6 12  1  0  0  0  0
  8 10  1  0  0  0  0
  8 11  2  0  0  0  0
  9 13  1  0  0  0  0
  9 14  1  0  0  0  0
  9 15  1  0  0  0  0
 10 16  1  0  0  0  0
 10 17  1  0  0  0  0
 10 18  1  0  0  0  0
 19 20  1  0  0  0  0
 20 21  4  0  0  0  0
 20 25  4  0  0  0  0
 21 22  4  0  0  0  0
 21 27  1  0  0  0  0
 22 23  4  0  0  0  0
 22 28  1  0  0  0  0
 23 24  4  0  0  0  0
 23 26  1  0  0  0  0
 24 25  4  0  0  0  0
 24 29  1  0  0  0  0
 25 30  1  0  0  0  0
 26 31  1  0  0  0  0
 26 32  1  0  0  0  0
M  END
> <BCLConfClusterSize>
1

> <ConfClashScore>
0 

> <ConfOneFourInteractionScore>
-0.953489 

> <ConfScore>
0.290267 

> <ConfScorePBest>
0.00518512 

> <ConfTolerance>
0.356012 

> <RosettaParamsInstructions>
M  ROOT 3
M  POLY_N_BB 3
M  POLY_CA_BB 4
M  POLY_C_BB 2
M  POLY_O_BB 5
M  POLY_IGNORE 9 10 11 12 13 14 15 16 17 18 
M  POLY_UPPER 6
M  POLY_LOWER 8
M  POLY_CHG 0
M  POLY_PROPERTIES ALPHA_AA D_AA PROTEIN AROMATIC POLYMER 
M  END

$$$$



 32 32  0  0  0  0  0  0  0  0999 V2000
    0.4422    1.8074   -0.9856 H   0  0  0  1  0  0  0  0  0  0  0  0
    0.2621    2.1048   -3.0491 C   0  0  0  1  0  0  0  0  0  0  0  0
   -0.8201    0.3559   -1.7136 N   0  0  0  1  0  0  0  0  0  0  0  0
   -0.3449    1.7431   -1.7075 C   0  0  0  1  0  0  0  0  0  0  0  0
    0.0258    3.1762   -3.5828 O   0  0  0  1  0  0  0  0  0  0  0  0
    1.0634    1.1768   -3.5959 N   0  0  0  1  0  0  0  0  0  0  0  0
   -0.9782   -0.0651   -2.5844 H   0  0  0  1  0  0  0  0  0  0  0  0
   -1.0559   -0.3847   -0.6108 C   0  0  0  1  0  0  0  0  0  0  0  0
    1.7765    1.3294   -4.8553 C   0  0  0  1  0  0  0  0  0  0  0  0
   -1.5893   -1.7917   -0.7976 C   0  0  0  1  0  0  0  0  0  0  0  0
   -0.8455    0.0653    0.5125 O   0  0  0  1  0  0  0  0  0  0  0  0
    1.1766    0.3331   -3.1104 H   0  0  0  1  0  0  0  0  0  0  0  0
    1.0802    1.5597   -5.6344 H   0  0  0  1  0  0  0  0  0  0  0  0
    2.2849    0.4176   -5.0897 H   0  0  0  1  0  0  0  0  0  0  0  0
    2.4887    2.1231   -4.7677 H   0  0  0  1  0  0  0  0  0  0  0  0
   -2.5592   -1.7492   -1.2474 H   0  0  0  1  0  0  0  0  0  0  0  0
   -1.6587   -2.2758    0.1541 H   0  0  0  1  0  0  0  0  0  0  0  0
   -0.9263   -2.3430   -1.4312 H   0  0  0  1  0  0  0  0  0  0  0  0
   -6.5450    2.1585   -3.4937 F   0  0  0  1  0  0  0  0  0  0  0  0
   -5.3149    2.2962   -2.9627 C   0  0  0  1  0  0  0  0  0  0  0  0
   -4.2965    2.8647   -3.7117 C   0  0  0  1  0  0  0  0  0  0  0  0
   -3.0329    3.0011   -3.1686 C   0  0  0  1  0  0  0  0  0  0  0  0
   -2.7853    2.5743   -1.8732 C   0  0  0  1  0  0  0  0  0  0  0  0
   -3.8009    2.0075   -1.1265 C   0  0  0  1  0  0  0  0  0  0  0  0
   -5.0683    1.8706   -1.6711 C   0  0  0  1  0  0  0  0  0  0  0  0
   -1.4060    2.7284   -1.2772 C   0  0  0  1  0  0  0  0  0  0  0  0
   -4.4831    3.1886   -4.6822 H   0  0  0  1  0  0  0  0  0  0  0  0
   -2.2677    3.4239   -3.7319 H   0  0  0  1  0  0  0  0  0  0  0  0
   -3.6142    1.6836   -0.1560 H   0  0  0  1  0  0  0  0  0  0  0  0
   -5.8335    1.4478   -1.1078 H   0  0  0  1  0  0  0  0  0  0  0  0
   -1.0555    3.7072   -1.5301 H   0  0  0  1  0  0  0  0  0  0  0  0
   -1.5055    2.6481   -0.2148 H   0  0  0  1  0  0  0  0  0  0  0  0
  1  4  1  0  0  0  0
  2  4  1  0  0  0  0
  2  5  2  0  0  0  0
  2  6  1  0  0  0  0
  3  4  1  0  0  0  0
  3  7  1  0  0  0  0
  3  8  1  0  0  0  0
  4 26  1  0  0  0  0
  6  9  1  0  0  0  0
  6 12  1  0  0  0  0
  8 10  1  0  0  0  0
  8 11  2  0  0  0  0
  9 13  1  0  0  0  0
  9 14  1  0  0  0  0
  9 15  1  0  0  0  0
 10 16  1  0  0  0  0
 10 17  1  0  0  0  0
 10 18  1  0  0  0  0
 19 20  1  0  0  0  0
 20 21  4  0  0  0  0
 20 25  4  0  0  0  0
 21 22  4  0  0  0  0
 21 27  1  0  0  0  0
 22 23  4  0  0  0  0
 22 28  1  0  0  0  0
 23 24  4  0  0  0  0
 23 26  1  0  0  0  0
 24 25  4  0  0  0  0
 24 29  1  0  0  0  0
 25 30  1  0  0  0  0
 26 31  1  0  0  0  0
 26 32  1  0  0  0  0
M  END
> <BCLConfClusterSize>
1

> <ConfClashScore>
0 

> <ConfOneFourInteractionScore>
-0.951402 

> <ConfScore>
0.290683 

> <ConfScorePBest>
0.00515664 

> <ConfTolerance>
0.443381 

> <RosettaParamsInstructions>
M  ROOT 3
M  POLY_N_BB 3
M  POLY_CA_BB 4
M  POLY_C_BB 2
M  POLY_O_BB 5
M  POLY_IGNORE 9 10 11 12 13 14 15 16 17 18 
M  POLY_UPPER 6
M  POLY_LOWER 8
M  POLY_CHG 0
M  POLY_PROPERTIES ALPHA_AA D_AA PROTEIN AROMATIC POLYMER 
M  END

$$$$



 32 32  0  0  0  0  0  0  0  0999 V2000
   -0.8863    0.6662   -1.3479 H   0  0  0  1  0  0  0  0  0  0  0  0
    0.9225    1.6935   -0.9979 C   0  0  0  1  0  0  0  0  0  0  0  0
   -0.2982    1.5763   -3.1110 N   0  0  0  1  0  0  0  0  0  0  0  0
   -0.4534    1.5970   -1.6496 C   0  0  0  1  0  0  0  0  0  0  0  0
    1.7993    2.4162   -1.4696 O   0  0  0  1  0  0  0  0  0  0  0  0
    1.0838    1.0253    0.1477 N   0  0  0  1  0  0  0  0  0  0  0  0
   -0.4968    2.3802   -3.6352 H   0  0  0  1  0  0  0  0  0  0  0  0
    0.1129    0.4639   -3.7263 C   0  0  0  1  0  0  0  0  0  0  0  0
    2.2948    1.1342    0.9473 C   0  0  0  1  0  0  0  0  0  0  0  0
    0.1289    0.5362   -5.2515 C   0  0  0  1  0  0  0  0  0  0  0  0
    0.3912   -0.5784   -3.1393 O   0  0  0  1  0  0  0  0  0  0  0  0
    0.3614    0.4415    0.4605 H   0  0  0  1  0  0  0  0  0  0  0  0
    2.8066    2.0404    0.6988 H   0  0  0  1  0  0  0  0  0  0  0  0
    2.9316    0.2984    0.7453 H   0  0  0  1  0  0  0  0  0  0  0  0
    2.0367    1.1438    1.9856 H   0  0  0  1  0  0  0  0  0  0  0  0
    0.7253    1.3679   -5.5635 H   0  0  0  1  0  0  0  0  0  0  0  0
   -0.8707    0.6588   -5.6130 H   0  0  0  1  0  0  0  0  0  0  0  0
    0.5432   -0.3677   -5.6468 H   0  0  0  1  0  0  0  0  0  0  0  0
   -6.5568    2.1423   -3.4599 F   0  0  0  1  0  0  0  0  0  0  0  0
   -5.3125    2.2993   -2.9691 C   0  0  0  1  0  0  0  0  0  0  0  0
   -4.2950    2.8680   -3.7192 C   0  0  0  1  0  0  0  0  0  0  0  0
   -3.0309    3.0049   -3.1774 C   0  0  0  1  0  0  0  0  0  0  0  0
   -2.7819    2.5786   -1.8821 C   0  0  0  1  0  0  0  0  0  0  0  0
   -3.7966    2.0116   -1.1343 C   0  0  0  1  0  0  0  0  0  0  0  0
   -5.0645    1.8742   -1.6775 C   0  0  0  1  0  0  0  0  0  0  0  0
   -1.4232    2.7075   -1.2350 C   0  0  0  1  0  0  0  0  0  0  0  0
   -4.4827    3.1915   -4.6896 H   0  0  0  1  0  0  0  0  0  0  0  0
   -2.2665    3.4279   -3.7415 H   0  0  0  1  0  0  0  0  0  0  0  0
   -3.6088    1.6881   -0.1639 H   0  0  0  1  0  0  0  0  0  0  0  0
   -5.8289    1.4512   -1.1134 H   0  0  0  1  0  0  0  0  0  0  0  0
   -1.0010    3.6502   -1.5143 H   0  0  0  1  0  0  0  0  0  0  0  0
   -1.5471    2.6724   -0.1728 H   0  0  0  1  0  0  0  0  0  0  0  0
  1  4  1  0  0  0  0
  2  4  1  0  0  0  0
  2  5  2  0  0  0  0
  2  6  1  0  0  0  0
  3  4  1  0  0  0  0
  3  7  1  0  0  0  0
  3  8  1  0  0  0  0
  4 26  1  0  0  0  0
  6  9  1  0  0  0  0
  6 12  1  0  0  0  0
  8 10  1  0  0  0  0
  8 11  2  0  0  0  0
  9 13  1  0  0  0  0
  9 14  1  0  0  0  0
  9 15  1  0  0  0  0
 10 16  1  0  0  0  0
 10 17  1  0  0  0  0
 10 18  1  0  0  0  0
 19 20  1  0  0  0  0
 20 21  4  0  0  0  0
 20 25  4  0  0  0  0
 21 22  4  0  0  0  0
 21 27  1  0  0  0  0
 22 23  4  0  0  0  0
 22 28  1  0  0  0  0
 23 24  4  0  0  0  0
 23 26  1  0  0  0  0
 24 25  4  0  0  0  0
 24 29  1  0  0  0  0
 25 30  1  0  0  0  0
 26 31  1  0  0  0  0
 26 32  1  0  0  0  0
M  END
> <BCLConfClusterSize>
1

> <ConfClashScore>
0 

> <ConfOneFourInteractionScore>
-0.985807 

> <ConfScore>
0.293969 

> <ConfScorePBest>
0.00512816 

> <ConfTolerance>
0.269446 

> <RosettaParamsInstructions>
M  ROOT 3
M  POLY_N_BB 3
M  POLY_CA_BB 4
M  POLY_C_BB 2
M  POLY_O_BB 5
M  POLY_IGNORE 9 10 11 12 13 14 15 16 17 18 
M  POLY_UPPER 6
M  POLY_LOWER 8
M  POLY_CHG 0
M  POLY_PROPERTIES ALPHA_AA D_AA PROTEIN AROMATIC POLYMER 
M  END

$$$$



 32 32  0  0  0  0  0  0  0  0999 V2000
   -0.6193    0.8383   -1.7630 H   0  0  0  1  0  0  0  0  0  0  0  0
   -1.6476    0.5675    0.0460 C   0  0  0  1  0  0  0  0  0  0  0  0
    0.5222    1.6305   -0.2311 N   0  0  0  1  0  0  0  0  0  0  0  0
   -0.7822    1.4037   -0.8693 C   0  0  0  1  0  0  0  0  0  0  0  0
   -1.6467    0.7561    1.2596 O   0  0  0  1  0  0  0  0  0  0  0  0
   -2.4097   -0.3785   -0.5034 N   0  0  0  1  0  0  0  0  0  0  0  0
    0.7572    2.5378    0.0554 H   0  0  0  1  0  0  0  0  0  0  0  0
    1.3987    0.6429   -0.0280 C   0  0  0  1  0  0  0  0  0  0  0  0
   -3.3870   -1.1692    0.2299 C   0  0  0  1  0  0  0  0  0  0  0  0
    2.6744    1.0323    0.6932 C   0  0  0  1  0  0  0  0  0  0  0  0
    1.2011   -0.5125   -0.3947 O   0  0  0  1  0  0  0  0  0  0  0  0
   -2.3052   -0.5526   -1.4622 H   0  0  0  1  0  0  0  0  0  0  0  0
   -3.5676   -2.0863   -0.2908 H   0  0  0  1  0  0  0  0  0  0  0  0
   -4.3014   -0.6195    0.3114 H   0  0  0  1  0  0  0  0  0  0  0  0
   -3.0104   -1.3831    1.2084 H   0  0  0  1  0  0  0  0  0  0  0  0
    3.2033    1.7609    0.1151 H   0  0  0  1  0  0  0  0  0  0  0  0
    3.2889    0.1661    0.8233 H   0  0  0  1  0  0  0  0  0  0  0  0
    2.4312    1.4447    1.6501 H   0  0  0  1  0  0  0  0  0  0  0  0
   -6.5450    2.1585   -3.4937 F   0  0  0  1  0  0  0  0  0  0  0  0
   -5.3149    2.2962   -2.9627 C   0  0  0  1  0  0  0  0  0  0  0  0
   -4.2965    2.8647   -3.7117 C   0  0  0  1  0  0  0  0  0  0  0  0
   -3.0329    3.0011   -3.1686 C   0  0  0  1  0  0  0  0  0  0  0  0
   -2.7853    2.5743   -1.8732 C   0  0  0  1  0  0  0  0  0  0  0  0
   -3.8009    2.0075   -1.1265 C   0  0  0  1  0  0  0  0  0  0  0  0
   -5.0683    1.8706   -1.6711 C   0  0  0  1  0  0  0  0  0  0  0  0
   -1.4060    2.7284   -1.2772 C   0  0  0  1  0  0  0  0  0  0  0  0
   -4.4831    3.1886   -4.6822 H   0  0  0  1  0  0  0  0  0  0  0  0
   -2.2677    3.4239   -3.7319 H   0  0  0  1  0  0  0  0  0  0  0  0
   -3.6142    1.6836   -0.1560 H   0  0  0  1  0  0  0  0  0  0  0  0
   -5.8335    1.4478   -1.1078 H   0  0  0  1  0  0  0  0  0  0  0  0
   -0.7719    3.1946   -2.0020 H   0  0  0  1  0  0  0  0  0  0  0  0
   -1.4771    3.3524   -0.4109 H   0  0  0  1  0  0  0  0  0  0  0  0
  1  4  1  0  0  0  0
  2  4  1  0  0  0  0
  2  5  2  0  0  0  0
  2  6  1  0  0  0  0
  3  4  1  0  0  0  0
  3  7  1  0  0  0  0
  3  8  1  0  0  0  0
  4 26  1  0  0  0  0
  6  9  1  0  0  0  0
  6 12  1  0  0  0  0
  8 10  1  0  0  0  0
  8 11  2  0  0  0  0
  9 13  1  0  0  0  0
  9 14  1  0  0  0  0
  9 15  1  0  0  0  0
 10 16  1  0  0  0  0
 10 17  1  0  0  0  0
 10 18  1  0  0  0  0
 19 20  1  0  0  0  0
 20 21  4  0  0  0  0
 20 25  4  0  0  0  0
 21 22  4  0  0  0  0
 21 27  1  0  0  0  0
 22 23  4  0  0  0  0
 22 28  1  0  0  0  0
 23 24  4  0  0  0  0
 23 26  1  0  0  0  0
 24 25  4  0  0  0  0
 24 29  1  0  0  0  0
 25 30  1  0  0  0  0
 26 31  1  0  0  0  0
 26 32  1  0  0  0  0
M  END
> <BCLConfClusterSize>
1

> <ConfClashScore>
0 

> <ConfOneFourInteractionScore>
-0.981931 

> <ConfScore>
0.299356 

> <ConfScorePBest>
0.00509968 

> <ConfTolerance>
0.519328 

> <RosettaParamsInstructions>
M  ROOT 3
M  POLY_N_BB 3
M  POLY_CA_BB 4
M  POLY_C_BB 2
M  POLY_O_BB 5
M  POLY_IGNORE 9 10 11 12 13 14 15 16 17 18 
M  POLY_UPPER 6
M  POLY_LOWER 8
M  POLY_CHG 0
M  POLY_PROPERTIES ALPHA_AA D_AA PROTEIN AROMATIC POLYMER 
M  END

$$$$



 32 32  0  0  0  0  0  0  0  0999 V2000
   -0.4486    1.5136   -2.7430 H   0  0  0  1  0  0  0  0  0  0  0  0
   -0.9313    0.2751   -1.1060 C   0  0  0  1  0  0  0  0  0  0  0  0
    0.8707    1.9903   -1.2241 N   0  0  0  1  0  0  0  0  0  0  0  0
   -0.4595    1.5984   -1.6764 C   0  0  0  1  0  0  0  0  0  0  0  0
   -2.0935    0.1277   -0.7330 O   0  0  0  1  0  0  0  0  0  0  0  0
   -0.0432   -0.7280   -1.0211 N   0  0  0  1  0  0  0  0  0  0  0  0
    1.4853    2.3608   -1.8915 H   0  0  0  1  0  0  0  0  0  0  0  0
    1.3143    1.8822    0.0315 C   0  0  0  1  0  0  0  0  0  0  0  0
   -0.3118   -2.0052   -0.3772 C   0  0  0  1  0  0  0  0  0  0  0  0
    2.6323    2.5716    0.3261 C   0  0  0  1  0  0  0  0  0  0  0  0
    0.7072    1.2678    0.9047 O   0  0  0  1  0  0  0  0  0  0  0  0
    0.8424   -0.5916   -1.4180 H   0  0  0  1  0  0  0  0  0  0  0  0
   -1.3669   -2.1827   -0.3621 H   0  0  0  1  0  0  0  0  0  0  0  0
    0.0604   -1.9839    0.6258 H   0  0  0  1  0  0  0  0  0  0  0  0
    0.1736   -2.7880   -0.9218 H   0  0  0  1  0  0  0  0  0  0  0  0
    3.3635    2.2668   -0.3932 H   0  0  0  1  0  0  0  0  0  0  0  0
    2.9638    2.3025    1.3073 H   0  0  0  1  0  0  0  0  0  0  0  0
    2.4997    3.6320    0.2722 H   0  0  0  1  0  0  0  0  0  0  0  0
   -6.5436    2.1603   -3.4973 F   0  0  0  1  0  0  0  0  0  0  0  0
   -5.3149    2.2961   -2.9625 C   0  0  0  1  0  0  0  0  0  0  0  0
   -4.2936    2.8641   -3.7080 C   0  0  0  1  0  0  0  0  0  0  0  0
   -3.0315    2.9985   -3.1610 C   0  0  0  1  0  0  0  0  0  0  0  0
   -2.7882    2.5704   -1.8653 C   0  0  0  1  0  0  0  0  0  0  0  0
   -3.8067    2.0042   -1.1220 C   0  0  0  1  0  0  0  0  0  0  0  0
   -5.0726    1.8692   -1.6705 C   0  0  0  1  0  0  0  0  0  0  0  0
   -1.3927    2.7464   -1.3147 C   0  0  0  1  0  0  0  0  0  0  0  0
   -4.4770    3.1890   -4.6788 H   0  0  0  1  0  0  0  0  0  0  0  0
   -2.2642    3.4210   -3.7217 H   0  0  0  1  0  0  0  0  0  0  0  0
   -3.6232    1.6793   -0.1513 H   0  0  0  1  0  0  0  0  0  0  0  0
   -5.8400    1.4467   -1.1098 H   0  0  0  1  0  0  0  0  0  0  0  0
   -0.9839    3.6542   -1.7068 H   0  0  0  1  0  0  0  0  0  0  0  0
   -1.4532    2.8132   -0.2485 H   0  0  0  1  0  0  0  0  0  0  0  0
  1  4  1  0  0  0  0
  2  4  1  0  0  0  0
  2  5  2  0  0  0  0
  2  6  1  0  0  0  0
  3  4  1  0  0  0  0
  3  7  1  0  0  0  0
  3  8  1  0  0  0  0
  4 26  1  0  0  0  0
  6  9  1  0  0  0  0
  6 12  1  0  0  0  0
  8 10  1  0  0  0  0
  8 11  2  0  0  0  0
  9 13  1  0  0  0  0
  9 14  1  0  0  0  0
  9 15  1  0  0  0  0
 10 16  1  0  0  0  0
 10 17  1  0  0  0  0
 10 18  1  0  0  0  0
 19 20  1  0  0  0  0
 20 21  4  0  0  0  0
 20 25  4  0  0  0  0
 21 22  4  0  0  0  0
 21 27  1  0  0  0  0
 22 23  4  0  0  0  0
 22 28  1  0  0  0  0
 23 24  4  0  0  0  0
 23 26  1  0  0  0  0
 24 25  4  0  0  0  0
 24 29  1  0  0  0  0
 25 30  1  0  0  0  0
 26 31  1  0  0  0  0
 26 32  1  0  0  0  0
M  END
> <BCLConfClusterSize>
1

> <ConfClashScore>
0 

> <ConfOneFourInteractionScore>
-0.976539 

> <ConfScore>
0.302912 

> <ConfScorePBest>
0.0050712 

> <ConfTolerance>
0.221032 

> <RosettaParamsInstructions>
M  ROOT 3
M  POLY_N_BB 3
M  POLY_CA_BB 4
M  POLY_C_BB 2
M  POLY_O_BB 5
M  POLY_IGNORE 9 10 11 12 13 14 15 16 17 18 
M  POLY_UPPER 6
M  POLY_LOWER 8
M  POLY_CHG 0
M  POLY_PROPERTIES ALPHA_AA D_AA PROTEIN AROMATIC POLYMER 
M  END

$$$$



 32 32  0  0  0  0  0  0  0  0999 V2000
   -1.0194    0.6874   -1.0350 H   0  0  0  1  0  0  0  0  0  0  0  0
    0.8513    1.6467   -0.9983 C   0  0  0  1  0  0  0  0  0  0  0  0
   -0.5364    1.1607   -2.9813 N   0  0  0  1  0  0  0  0  0  0  0  0
   -0.5495    1.4921   -1.5610 C   0  0  0  1  0  0  0  0  0  0  0  0
    1.7162    2.2788   -1.6033 O   0  0  0  1  0  0  0  0  0  0  0  0
    1.0717    1.0571    0.1802 N   0  0  0  1  0  0  0  0  0  0  0  0
   -1.1239    0.4367   -3.2831 H   0  0  0  1  0  0  0  0  0  0  0  0
    0.2164    1.7697   -3.9019 C   0  0  0  1  0  0  0  0  0  0  0  0
    2.4246    0.9622    0.7080 C   0  0  0  1  0  0  0  0  0  0  0  0
    0.2539    1.1074   -5.2654 C   0  0  0  1  0  0  0  0  0  0  0  0
    0.8448    2.8006   -3.6766 O   0  0  0  1  0  0  0  0  0  0  0  0
    0.3208    0.6879    0.6903 H   0  0  0  1  0  0  0  0  0  0  0  0
    2.3849    0.7640    1.7588 H   0  0  0  1  0  0  0  0  0  0  0  0
    2.9389    1.8850    0.5385 H   0  0  0  1  0  0  0  0  0  0  0  0
    2.9446    0.1676    0.2149 H   0  0  0  1  0  0  0  0  0  0  0  0
   -0.6252    0.5119   -5.3976 H   0  0  0  1  0  0  0  0  0  0  0  0
    1.1206    0.4837   -5.3349 H   0  0  0  1  0  0  0  0  0  0  0  0
    0.2929    1.8591   -6.0259 H   0  0  0  1  0  0  0  0  0  0  0  0
   -6.5317    2.1748   -3.5266 F   0  0  0  1  0  0  0  0  0  0  0  0
   -5.3173    2.2931   -2.9564 C   0  0  0  1  0  0  0  0  0  0  0  0
   -4.2981    2.8615   -3.7045 C   0  0  0  1  0  0  0  0  0  0  0  0
   -3.0349    2.9974   -3.1604 C   0  0  0  1  0  0  0  0  0  0  0  0
   -2.7884    2.5703   -1.8649 C   0  0  0  1  0  0  0  0  0  0  0  0
   -3.8047    2.0036   -1.1191 C   0  0  0  1  0  0  0  0  0  0  0  0
   -5.0718    1.8672   -1.6646 C   0  0  0  1  0  0  0  0  0  0  0  0
   -1.3919    2.7478   -1.3175 C   0  0  0  1  0  0  0  0  0  0  0  0
   -4.4839    3.1856   -4.6751 H   0  0  0  1  0  0  0  0  0  0  0  0
   -2.2692    3.4201   -3.7231 H   0  0  0  1  0  0  0  0  0  0  0  0
   -3.6189    1.6794   -0.1485 H   0  0  0  1  0  0  0  0  0  0  0  0
   -5.8375    1.4445   -1.1020 H   0  0  0  1  0  0  0  0  0  0  0  0
   -0.9280    3.5809   -1.8030 H   0  0  0  1  0  0  0  0  0  0  0  0
   -1.4485    2.9337   -0.2653 H   0  0  0  1  0  0  0  0  0  0  0  0
  1  4  1  0  0  0  0
  2  4  1  0  0  0  0
  2  5  2  0  0  0  0
  2  6  1  0  0  0  0
  3  4  1  0  0  0  0
  3  7  1  0  0  0  0
  3  8  1  0  0  0  0
  4 26  1  0  0  0  0
  6  9  1  0  0  0  0
  6 12  1  0  0  0  0
  8 10  1  0  0  0  0
  8 11  2  0  0  0  0
  9 13  1  0  0  0  0
  9 14  1  0  0  0  0
  9 15  1  0  0  0  0
 10 16  1  0  0  0  0
 10 17  1  0  0  0  0
 10 18  1  0  0  0  0
 19 20  1  0  0  0  0
 20 21  4  0  0  0  0
 20 25  4  0  0  0  0
 21 22  4  0  0  0  0
 21 27  1  0  0  0  0
 22 23  4  0  0  0  0
 22 28  1  0  0  0  0
 23 24  4  0  0  0  0
 23 26  1  0  0  0  0
 24 25  4  0  0  0  0
 24 29  1  0  0  0  0
 25 30  1  0  0  0  0
 26 31  1  0  0  0  0
 26 32  1  0  0  0  0
M  END
> <BCLConfClusterSize>
1

> <ConfClashScore>
0 

> <ConfOneFourInteractionScore>
-0.987258 

> <ConfScore>
0.306772 

> <ConfScorePBest>
0.00504272 

> <ConfTolerance>
0.428887 

> <RosettaParamsInstructions>
M  ROOT 3
M  POLY_N_BB 3
M  POLY_CA_BB 4
M  POLY_C_BB 2
M  POLY_O_BB 5
M  POLY_IGNORE 9 10 11 12 13 14 15 16 17 18 
M  POLY_UPPER 6
M  POLY_LOWER 8
M  POLY_CHG 0
M  POLY_PROPERTIES ALPHA_AA D_AA PROTEIN AROMATIC POLYMER 
M  END

$$$$



 32 32  0  0  0  0  0  0  0  0999 V2000
   -2.0831    2.9021    0.6948 H   0  0  0  1  0  0  0  0  0  0  0  0
    0.0012    2.6574    0.8051 C   0  0  0  1  0  0  0  0  0  0  0  0
   -1.6835    0.9067    0.3888 N   0  0  0  1  0  0  0  0  0  0  0  0
   -1.3439    2.3089    0.1981 C   0  0  0  1  0  0  0  0  0  0  0  0
    0.2757    3.8121    1.1289 O   0  0  0  1  0  0  0  0  0  0  0  0
    0.8542    1.6324    0.9601 N   0  0  0  1  0  0  0  0  0  0  0  0
   -1.9742    0.3810   -0.3855 H   0  0  0  1  0  0  0  0  0  0  0  0
   -1.6126    0.3112    1.5826 C   0  0  0  1  0  0  0  0  0  0  0  0
    2.2174    1.8203    1.4335 C   0  0  0  1  0  0  0  0  0  0  0  0
   -1.9768   -1.1605    1.6073 C   0  0  0  1  0  0  0  0  0  0  0  0
   -1.2760    0.9017    2.6056 O   0  0  0  1  0  0  0  0  0  0  0  0
    0.5482    0.7261    0.7470 H   0  0  0  1  0  0  0  0  0  0  0  0
    2.2087    2.4243    2.3167 H   0  0  0  1  0  0  0  0  0  0  0  0
    2.7943    2.3066    0.6749 H   0  0  0  1  0  0  0  0  0  0  0  0
    2.6515    0.8682    1.6571 H   0  0  0  1  0  0  0  0  0  0  0  0
   -1.4433   -1.6735    0.8346 H   0  0  0  1  0  0  0  0  0  0  0  0
   -3.0291   -1.2700    1.4470 H   0  0  0  1  0  0  0  0  0  0  0  0
   -1.7152   -1.5766    2.5577 H   0  0  0  1  0  0  0  0  0  0  0  0
   -6.5506    2.1259   -3.4700 F   0  0  0  1  0  0  0  0  0  0  0  0
   -5.3109    2.2936   -2.9710 C   0  0  0  1  0  0  0  0  0  0  0  0
   -4.2926    2.8682   -3.7155 C   0  0  0  1  0  0  0  0  0  0  0  0
   -3.0334    3.0163   -3.1654 C   0  0  0  1  0  0  0  0  0  0  0  0
   -2.7901    2.5952   -1.8673 C   0  0  0  1  0  0  0  0  0  0  0  0
   -3.8055    2.0223   -1.1250 C   0  0  0  1  0  0  0  0  0  0  0  0
   -5.0685    1.8737   -1.6767 C   0  0  0  1  0  0  0  0  0  0  0  0
   -1.3965    2.6695   -1.2894 C   0  0  0  1  0  0  0  0  0  0  0  0
   -4.4761    3.1879   -4.6880 H   0  0  0  1  0  0  0  0  0  0  0  0
   -2.2683    3.4437   -3.7253 H   0  0  0  1  0  0  0  0  0  0  0  0
   -3.6220    1.7027   -0.1525 H   0  0  0  1  0  0  0  0  0  0  0  0
   -5.8336    1.4463   -1.1167 H   0  0  0  1  0  0  0  0  0  0  0  0
   -0.7683    1.9902   -1.8269 H   0  0  0  1  0  0  0  0  0  0  0  0
   -1.0301    3.6674   -1.4112 H   0  0  0  1  0  0  0  0  0  0  0  0
  1  4  1  0  0  0  0
  2  4  1  0  0  0  0
  2  5  2  0  0  0  0
  2  6  1  0  0  0  0
  3  4  1  0  0  0  0
  3  7  1  0  0  0  0
  3  8  1  0  0  0  0
  4 26  1  0  0  0  0
  6  9  1  0  0  0  0
  6 12  1  0  0  0  0
  8 10  1  0  0  0  0
  8 11  2  0  0  0  0
  9 13  1  0  0  0  0
  9 14  1  0  0  0  0
  9 15  1  0  0  0  0
 10 16  1  0  0  0  0
 10 17  1  0  0  0  0
 10 18  1  0  0  0  0
 19 20  1  0  0  0  0
 20 21  4  0  0  0  0
 20 25  4  0  0  0  0
 21 22  4  0  0  0  0
 21 27  1  0  0  0  0
 22 23  4  0  0  0  0
 22 28  1  0  0  0  0
 23 24  4  0  0  0  0
 23 26  1  0  0  0  0
 24 25  4  0  0  0  0
 24 29  1  0  0  0  0
 25 30  1  0  0  0  0
 26 31  1  0  0  0  0
 26 32  1  0  0  0  0
M  END
> <BCLConfClusterSize>
1

> <ConfClashScore>
0 

> <ConfOneFourInteractionScore>
-0.949001 

> <ConfScore>
0.307188 

> <ConfScorePBest>
0.00501424 

> <ConfTolerance>
0.459029 

> <RosettaParamsInstructions>
M  ROOT 3
M  POLY_N_BB 3
M  POLY_CA_BB 4
M  POLY_C_BB 2
M  POLY_O_BB 5
M  POLY_IGNORE 9 10 11 12 13 14 15 16 17 18 
M  POLY_UPPER 6
M  POLY_LOWER 8
M  POLY_CHG 0
M  POLY_PROPERTIES ALPHA_AA D_AA PROTEIN AROMATIC POLYMER 
M  END

$$$$



 32 32  0  0  0  0  0  0  0  0999 V2000
   -2.0369    4.4377   -0.1839 H   0  0  0  1  0  0  0  0  0  0  0  0
   -1.0571    5.0727   -1.9427 C   0  0  0  1  0  0  0  0  0  0  0  0
   -0.0039    4.1747    0.0910 N   0  0  0  1  0  0  0  0  0  0  0  0
   -1.1861    4.1351   -0.7580 C   0  0  0  1  0  0  0  0  0  0  0  0
   -1.4036    6.2521   -1.8560 O   0  0  0  1  0  0  0  0  0  0  0  0
   -0.5549    4.5797   -3.0859 N   0  0  0  1  0  0  0  0  0  0  0  0
    0.3051    3.3287    0.4771 H   0  0  0  1  0  0  0  0  0  0  0  0
    0.6899    5.2753    0.3826 C   0  0  0  1  0  0  0  0  0  0  0  0
   -0.3720    5.4492   -4.2385 C   0  0  0  1  0  0  0  0  0  0  0  0
    1.9191    5.0696    1.2462 C   0  0  0  1  0  0  0  0  0  0  0  0
    0.3713    6.3852   -0.0111 O   0  0  0  1  0  0  0  0  0  0  0  0
   -0.3111    3.6324   -3.1445 H   0  0  0  1  0  0  0  0  0  0  0  0
    0.1616    6.3279   -3.9419 H   0  0  0  1  0  0  0  0  0  0  0  0
   -1.3280    5.7278   -4.6301 H   0  0  0  1  0  0  0  0  0  0  0  0
    0.1849    4.9310   -4.9910 H   0  0  0  1  0  0  0  0  0  0  0  0
    1.6369    4.5922    2.1613 H   0  0  0  1  0  0  0  0  0  0  0  0
    2.3659    6.0177    1.4619 H   0  0  0  1  0  0  0  0  0  0  0  0
    2.6219    4.4539    0.7249 H   0  0  0  1  0  0  0  0  0  0  0  0
   -6.5463    2.1567   -3.4899 F   0  0  0  1  0  0  0  0  0  0  0  0
   -5.3147    2.2963   -2.9629 C   0  0  0  1  0  0  0  0  0  0  0  0
   -4.2994    2.8654   -3.7156 C   0  0  0  1  0  0  0  0  0  0  0  0
   -3.0342    3.0038   -3.1767 C   0  0  0  1  0  0  0  0  0  0  0  0
   -2.7820    2.5785   -1.8817 C   0  0  0  1  0  0  0  0  0  0  0  0
   -3.7945    2.0111   -1.1313 C   0  0  0  1  0  0  0  0  0  0  0  0
   -5.0635    1.8722   -1.6717 C   0  0  0  1  0  0  0  0  0  0  0  0
   -1.4219    2.7089   -1.2377 C   0  0  0  1  0  0  0  0  0  0  0  0
   -4.4895    3.1882   -4.6858 H   0  0  0  1  0  0  0  0  0  0  0  0
   -2.2714    3.4270   -3.7428 H   0  0  0  1  0  0  0  0  0  0  0  0
   -3.6043    1.6883   -0.1611 H   0  0  0  1  0  0  0  0  0  0  0  0
   -5.8264    1.4489   -1.1056 H   0  0  0  1  0  0  0  0  0  0  0  0
   -1.3644    2.0436   -0.4017 H   0  0  0  1  0  0  0  0  0  0  0  0
   -0.6690    2.4502   -1.9526 H   0  0  0  1  0  0  0  0  0  0  0  0
  1  4  1  0  0  0  0
  2  4  1  0  0  0  0
  2  5  2  0  0  0  0
  2  6  1  0  0  0  0
  3  4  1  0  0  0  0
  3  7  1  0  0  0  0
  3  8  1  0  0  0  0
  4 26  1  0  0  0  0
  6  9  1  0  0  0  0
  6 12  1  0  0  0  0
  8 10  1  0  0  0  0
  8 11  2  0  0  0  0
  9 13  1  0  0  0  0
  9 14  1  0  0  0  0
  9 15  1  0  0  0  0
 10 16  1  0  0  0  0
 10 17  1  0  0  0  0
 10 18  1  0  0  0  0
 19 20  1  0  0  0  0
 20 21  4  0  0  0  0
 20 25  4  0  0  0  0
 21 22  4  0  0  0  0
 21 27  1  0  0  0  0
 22 23  4  0  0  0  0
 22 28  1  0  0  0  0
 23 24  4  0  0  0  0
 23 26  1  0  0  0  0
 24 25  4  0  0  0  0
 24 29  1  0  0  0  0
 25 30  1  0  0  0  0
 26 31  1  0  0  0  0
 26 32  1  0  0  0  0
M  END
> <BCLConfClusterSize>
1

> <ConfClashScore>
0 

> <ConfOneFourInteractionScore>
-0.952541 

> <ConfScore>
0.308587 

> <ConfScorePBest>
0.00498576 

> <ConfTolerance>
0.337553 

> <RosettaParamsInstructions>
M  ROOT 3
M  POLY_N_BB 3
M  POLY_CA_BB 4
M  POLY_C_BB 2
M  POLY_O_BB 5
M  POLY_IGNORE 9 10 11 12 13 14 15 16 17 18 
M  POLY_UPPER 6
M  POLY_LOWER 8
M  POLY_CHG 0
M  POLY_PROPERTIES ALPHA_AA D_AA PROTEIN AROMATIC POLYMER 
M  END

$$$$



 32 32  0  0  0  0  0  0  0  0999 V2000
   -1.1499    0.6874   -0.7095 H   0  0  0  1  0  0  0  0  0  0  0  0
    0.7744    1.5180   -0.8006 C   0  0  0  1  0  0  0  0  0  0  0  0
   -0.6346    0.8362   -2.6955 N   0  0  0  1  0  0  0  0  0  0  0  0
   -0.6449    1.3908   -1.3381 C   0  0  0  1  0  0  0  0  0  0  0  0
    1.0869    2.4476   -0.0578 O   0  0  0  1  0  0  0  0  0  0  0  0
    1.6712    0.5874   -1.1613 N   0  0  0  1  0  0  0  0  0  0  0  0
   -1.0169   -0.0535   -2.8459 H   0  0  0  1  0  0  0  0  0  0  0  0
   -0.1027    1.5269   -3.7738 C   0  0  0  1  0  0  0  0  0  0  0  0
    3.0782    0.5980   -0.7896 C   0  0  0  1  0  0  0  0  0  0  0  0
   -0.0974    0.8751   -5.1280 C   0  0  0  1  0  0  0  0  0  0  0  0
    0.3453    2.6461   -3.5861 O   0  0  0  1  0  0  0  0  0  0  0  0
    1.3549   -0.1554   -1.7168 H   0  0  0  1  0  0  0  0  0  0  0  0
    3.4220    1.6090   -0.7215 H   0  0  0  1  0  0  0  0  0  0  0  0
    3.6467    0.0774   -1.5316 H   0  0  0  1  0  0  0  0  0  0  0  0
    3.2003    0.1154    0.1576 H   0  0  0  1  0  0  0  0  0  0  0  0
   -1.0946    0.8470   -5.5147 H   0  0  0  1  0  0  0  0  0  0  0  0
    0.2798   -0.1225   -5.0419 H   0  0  0  1  0  0  0  0  0  0  0  0
    0.5265    1.4368   -5.7914 H   0  0  0  1  0  0  0  0  0  0  0  0
   -6.5568    2.1423   -3.4599 F   0  0  0  1  0  0  0  0  0  0  0  0
   -5.3125    2.2993   -2.9691 C   0  0  0  1  0  0  0  0  0  0  0  0
   -4.2950    2.8680   -3.7192 C   0  0  0  1  0  0  0  0  0  0  0  0
   -3.0309    3.0049   -3.1774 C   0  0  0  1  0  0  0  0  0  0  0  0
   -2.7819    2.5786   -1.8821 C   0  0  0  1  0  0  0  0  0  0  0  0
   -3.7966    2.0116   -1.1343 C   0  0  0  1  0  0  0  0  0  0  0  0
   -5.0645    1.8742   -1.6775 C   0  0  0  1  0  0  0  0  0  0  0  0
   -1.4232    2.7075   -1.2350 C   0  0  0  1  0  0  0  0  0  0  0  0
   -4.4827    3.1915   -4.6896 H   0  0  0  1  0  0  0  0  0  0  0  0
   -2.2665    3.4279   -3.7415 H   0  0  0  1  0  0  0  0  0  0  0  0
   -3.6088    1.6881   -0.1639 H   0  0  0  1  0  0  0  0  0  0  0  0
   -5.8289    1.4512   -1.1134 H   0  0  0  1  0  0  0  0  0  0  0  0
   -0.8717    3.4805   -1.7282 H   0  0  0  1  0  0  0  0  0  0  0  0
   -1.5487    2.9610   -0.2031 H   0  0  0  1  0  0  0  0  0  0  0  0
  1  4  1  0  0  0  0
  2  4  1  0  0  0  0
  2  5  2  0  0  0  0
  2  6  1  0  0  0  0
  3  4  1  0  0  0  0
  3  7  1  0  0  0  0
  3  8  1  0  0  0  0
  4 26  1  0  0  0  0
  6  9  1  0  0  0  0
  6 12  1  0  0  0  0
  8 10  1  0  0  0  0
  8 11  2  0  0  0  0
  9 13  1  0  0  0  0
  9 14  1  0  0  0  0
  9 15  1  0  0  0  0
 10 16  1  0  0  0  0
 10 17  1  0  0  0  0
 10 18  1  0  0  0  0
 19 20  1  0  0  0  0
 20 21  4  0  0  0  0
 20 25  4  0  0  0  0
 21 22  4  0  0  0  0
 21 27  1  0  0  0  0
 22 23  4  0  0  0  0
 22 28  1  0  0  0  0
 23 24  4  0  0  0  0
 23 26  1  0  0  0  0
 24 25  4  0  0  0  0
 24 29  1  0  0  0  0
 25 30  1  0  0  0  0
 26 31  1  0  0  0  0
 26 32  1  0  0  0  0
M  END
> <BCLConfClusterSize>
1

> <ConfClashScore>
0 

> <ConfOneFourInteractionScore>
-0.938304 

> <ConfScore>
0.31177 

> <ConfScorePBest>
0.00495728 

> <ConfTolerance>
0.336573 

> <RosettaParamsInstructions>
M  ROOT 3
M  POLY_N_BB 3
M  POLY_CA_BB 4
M  POLY_C_BB 2
M  POLY_O_BB 5
M  POLY_IGNORE 9 10 11 12 13 14 15 16 17 18 
M  POLY_UPPER 6
M  POLY_LOWER 8
M  POLY_CHG 0
M  POLY_PROPERTIES ALPHA_AA D_AA PROTEIN AROMATIC POLYMER 
M  END

$$$$



 32 32  0  0  0  0  0  0  0  0999 V2000
   -0.0543    4.1759   -0.5375 H   0  0  0  1  0  0  0  0  0  0  0  0
   -1.7616    4.2160    0.6991 C   0  0  0  1  0  0  0  0  0  0  0  0
   -1.5510    5.1051   -1.6149 N   0  0  0  1  0  0  0  0  0  0  0  0
   -1.1132    4.0923   -0.6660 C   0  0  0  1  0  0  0  0  0  0  0  0
   -1.0893    4.1976    1.7293 O   0  0  0  1  0  0  0  0  0  0  0  0
   -3.0979    4.3448    0.7005 N   0  0  0  1  0  0  0  0  0  0  0  0
   -1.6359    4.8621   -2.5605 H   0  0  0  1  0  0  0  0  0  0  0  0
   -1.8503    6.3944   -1.2300 C   0  0  0  1  0  0  0  0  0  0  0  0
   -3.8717    4.4051    1.9315 C   0  0  0  1  0  0  0  0  0  0  0  0
   -2.4158    7.2837   -2.2986 C   0  0  0  1  0  0  0  0  0  0  0  0
   -1.6523    6.7510   -0.0802 O   0  0  0  1  0  0  0  0  0  0  0  0
   -3.5686    4.4000   -0.1573 H   0  0  0  1  0  0  0  0  0  0  0  0
   -3.4620    3.7209    2.6448 H   0  0  0  1  0  0  0  0  0  0  0  0
   -4.8881    4.1406    1.7269 H   0  0  0  1  0  0  0  0  0  0  0  0
   -3.8340    5.3983    2.3278 H   0  0  0  1  0  0  0  0  0  0  0  0
   -2.5407    8.2731   -1.9108 H   0  0  0  1  0  0  0  0  0  0  0  0
   -3.3643    6.9023   -2.6146 H   0  0  0  1  0  0  0  0  0  0  0  0
   -1.7456    7.3096   -3.1323 H   0  0  0  1  0  0  0  0  0  0  0  0
   -6.5436    2.1603   -3.4973 F   0  0  0  1  0  0  0  0  0  0  0  0
   -5.3149    2.2961   -2.9625 C   0  0  0  1  0  0  0  0  0  0  0  0
   -4.2936    2.8641   -3.7080 C   0  0  0  1  0  0  0  0  0  0  0  0
   -3.0315    2.9985   -3.1610 C   0  0  0  1  0  0  0  0  0  0  0  0
   -2.7882    2.5704   -1.8653 C   0  0  0  1  0  0  0  0  0  0  0  0
   -3.8067    2.0042   -1.1220 C   0  0  0  1  0  0  0  0  0  0  0  0
   -5.0726    1.8692   -1.6705 C   0  0  0  1  0  0  0  0  0  0  0  0
   -1.3927    2.7464   -1.3147 C   0  0  0  1  0  0  0  0  0  0  0  0
   -4.4770    3.1890   -4.6788 H   0  0  0  1  0  0  0  0  0  0  0  0
   -2.2642    3.4210   -3.7217 H   0  0  0  1  0  0  0  0  0  0  0  0
   -3.6232    1.6793   -0.1513 H   0  0  0  1  0  0  0  0  0  0  0  0
   -5.8400    1.4467   -1.1098 H   0  0  0  1  0  0  0  0  0  0  0  0
   -1.2293    1.9857   -0.5802 H   0  0  0  1  0  0  0  0  0  0  0  0
   -0.7012    2.6187   -2.1211 H   0  0  0  1  0  0  0  0  0  0  0  0
  1  4  1  0  0  0  0
  2  4  1  0  0  0  0
  2  5  2  0  0  0  0
  2  6  1  0  0  0  0
  3  4  1  0  0  0  0
  3  7  1  0  0  0  0
  3  8  1  0  0  0  0
  4 26  1  0  0  0  0
  6  9  1  0  0  0  0
  6 12  1  0  0  0  0
  8 10  1  0  0  0  0
  8 11  2  0  0  0  0
  9 13  1  0  0  0  0
  9 14  1  0  0  0  0
  9 15  1  0  0  0  0
 10 16  1  0  0  0  0
 10 17  1  0  0  0  0
 10 18  1  0  0  0  0
 19 20  1  0  0  0  0
 20 21  4  0  0  0  0
 20 25  4  0  0  0  0
 21 22  4  0  0  0  0
 21 27  1  0  0  0  0
 22 23  4  0  0  0  0
 22 28  1  0  0  0  0
 23 24  4  0  0  0  0
 23 26  1  0  0  0  0
 24 25  4  0  0  0  0
 24 29  1  0  0  0  0
 25 30  1  0  0  0  0
 26 31  1  0  0  0  0
 26 32  1  0  0  0  0
M  END
> <BCLConfClusterSize>
1

> <ConfClashScore>
0 

> <ConfOneFourInteractionScore>
-0.943556 

> <ConfScore>
0.312483 

> <ConfScorePBest>
0.0049288 

> <ConfTolerance>
0.359682 

> <RosettaParamsInstructions>
M  ROOT 3
M  POLY_N_BB 3
M  POLY_CA_BB 4
M  POLY_C_BB 2
M  POLY_O_BB 5
M  POLY_IGNORE 9 10 11 12 13 14 15 16 17 18 
M  POLY_UPPER 6
M  POLY_LOWER 8
M  POLY_CHG 0
M  POLY_PROPERTIES ALPHA_AA D_AA PROTEIN AROMATIC POLYMER 
M  END

$$$$



 32 32  0  0  0  0  0  0  0  0999 V2000
   -1.7474    4.5942   -0.3870 H   0  0  0  1  0  0  0  0  0  0  0  0
    0.1824    4.0218    0.2186 C   0  0  0  1  0  0  0  0  0  0  0  0
   -1.9207    3.1444    1.0784 N   0  0  0  1  0  0  0  0  0  0  0  0
   -1.2567    3.6823   -0.1174 C   0  0  0  1  0  0  0  0  0  0  0  0
    0.8447    4.7729   -0.4960 O   0  0  0  1  0  0  0  0  0  0  0  0
    0.6687    3.4558    1.3269 N   0  0  0  1  0  0  0  0  0  0  0  0
   -2.4013    2.2952    0.9865 H   0  0  0  1  0  0  0  0  0  0  0  0
   -1.9185    3.7248    2.2794 C   0  0  0  1  0  0  0  0  0  0  0  0
    1.9804    3.7348    1.9004 C   0  0  0  1  0  0  0  0  0  0  0  0
   -2.8557    3.1187    3.3057 C   0  0  0  1  0  0  0  0  0  0  0  0
   -1.2084    4.6909    2.5551 O   0  0  0  1  0  0  0  0  0  0  0  0
    0.1013    2.8041    1.7892 H   0  0  0  1  0  0  0  0  0  0  0  0
    2.2314    4.7617    1.7351 H   0  0  0  1  0  0  0  0  0  0  0  0
    2.7133    3.1094    1.4350 H   0  0  0  1  0  0  0  0  0  0  0  0
    1.9588    3.5380    2.9519 H   0  0  0  1  0  0  0  0  0  0  0  0
   -2.7720    3.6560    4.2272 H   0  0  0  1  0  0  0  0  0  0  0  0
   -2.5940    2.0936    3.4658 H   0  0  0  1  0  0  0  0  0  0  0  0
   -3.8625    3.1787    2.9484 H   0  0  0  1  0  0  0  0  0  0  0  0
   -6.5551    2.1442   -3.4636 F   0  0  0  1  0  0  0  0  0  0  0  0
   -5.3122    2.2992   -2.9687 C   0  0  0  1  0  0  0  0  0  0  0  0
   -4.2916    2.8673   -3.7150 C   0  0  0  1  0  0  0  0  0  0  0  0
   -3.0291    3.0023   -3.1691 C   0  0  0  1  0  0  0  0  0  0  0  0
   -2.7847    2.5745   -1.8734 C   0  0  0  1  0  0  0  0  0  0  0  0
   -3.8024    2.0081   -1.1293 C   0  0  0  1  0  0  0  0  0  0  0  0
   -5.0688    1.8727   -1.6767 C   0  0  0  1  0  0  0  0  0  0  0  0
   -1.4125    2.7265   -1.2768 C   0  0  0  1  0  0  0  0  0  0  0  0
   -4.4758    3.1920   -4.6858 H   0  0  0  1  0  0  0  0  0  0  0  0
   -2.2623    3.4248   -3.7304 H   0  0  0  1  0  0  0  0  0  0  0  0
   -3.6182    1.6835   -0.1586 H   0  0  0  1  0  0  0  0  0  0  0  0
   -5.8355    1.4501   -1.1154 H   0  0  0  1  0  0  0  0  0  0  0  0
   -1.1015    1.7600   -0.9389 H   0  0  0  1  0  0  0  0  0  0  0  0
   -0.7596    3.0595   -2.0562 H   0  0  0  1  0  0  0  0  0  0  0  0
  1  4  1  0  0  0  0
  2  4  1  0  0  0  0
  2  5  2  0  0  0  0
  2  6  1  0  0  0  0
  3  4  1  0  0  0  0
  3  7  1  0  0  0  0
  3  8  1  0  0  0  0
  4 26  1  0  0  0  0
  6  9  1  0  0  0  0
  6 12  1  0  0  0  0
  8 10  1  0  0  0  0
  8 11  2  0  0  0  0
  9 13  1  0  0  0  0
  9 14  1  0  0  0  0
  9 15  1  0  0  0  0
 10 16  1  0  0  0  0
 10 17  1  0  0  0  0
 10 18  1  0  0  0  0
 19 20  1  0  0  0  0
 20 21  4  0  0  0  0
 20 25  4  0  0  0  0
 21 22  4  0  0  0  0
 21 27  1  0  0  0  0
 22 23  4  0  0  0  0
 22 28  1  0  0  0  0
 23 24  4  0  0  0  0
 23 26  1  0  0  0  0
 24 25  4  0  0  0  0
 24 29  1  0  0  0  0
 25 30  1  0  0  0  0
 26 31  1  0  0  0  0
 26 32  1  0  0  0  0
M  END
> <BCLConfClusterSize>
1

> <ConfClashScore>
0 

> <ConfOneFourInteractionScore>
-0.956443 

> <ConfScore>
0.312762 

> <ConfScorePBest>
0.00490032 

> <ConfTolerance>
0.359961 

> <RosettaParamsInstructions>
M  ROOT 3
M  POLY_N_BB 3
M  POLY_CA_BB 4
M  POLY_C_BB 2
M  POLY_O_BB 5
M  POLY_IGNORE 9 10 11 12 13 14 15 16 17 18 
M  POLY_UPPER 6
M  POLY_LOWER 8
M  POLY_CHG 0
M  POLY_PROPERTIES ALPHA_AA D_AA PROTEIN AROMATIC POLYMER 
M  END

$$$$



 32 32  0  0  0  0  0  0  0  0999 V2000
   -1.1327    4.7931   -1.8184 H   0  0  0  1  0  0  0  0  0  0  0  0
    0.2721    4.4153   -0.3196 C   0  0  0  1  0  0  0  0  0  0  0  0
   -2.1530    4.6936   -0.0289 N   0  0  0  1  0  0  0  0  0  0  0  0
   -1.0944    4.1988   -0.9294 C   0  0  0  1  0  0  0  0  0  0  0  0
    1.1337    3.5388   -0.3747 O   0  0  0  1  0  0  0  0  0  0  0  0
    0.5169    5.5961    0.2854 N   0  0  0  1  0  0  0  0  0  0  0  0
   -3.0033    4.9891   -0.4162 H   0  0  0  1  0  0  0  0  0  0  0  0
   -1.9927    4.7529    1.2961 C   0  0  0  1  0  0  0  0  0  0  0  0
    1.7645    5.8035    1.0054 C   0  0  0  1  0  0  0  0  0  0  0  0
   -3.0596    5.5178    2.0551 C   0  0  0  1  0  0  0  0  0  0  0  0
   -1.0466    4.2268    1.8807 O   0  0  0  1  0  0  0  0  0  0  0  0
   -0.1469    6.3157    0.2399 H   0  0  0  1  0  0  0  0  0  0  0  0
    1.8014    6.8073    1.3742 H   0  0  0  1  0  0  0  0  0  0  0  0
    2.5893    5.6360    0.3447 H   0  0  0  1  0  0  0  0  0  0  0  0
    1.8200    5.1198    1.8266 H   0  0  0  1  0  0  0  0  0  0  0  0
   -2.7858    6.5505    2.1128 H   0  0  0  1  0  0  0  0  0  0  0  0
   -3.1502    5.1174    3.0432 H   0  0  0  1  0  0  0  0  0  0  0  0
   -3.9955    5.4251    1.5449 H   0  0  0  1  0  0  0  0  0  0  0  0
   -6.5420    2.1620   -3.5007 F   0  0  0  1  0  0  0  0  0  0  0  0
   -5.3148    2.2960   -2.9622 C   0  0  0  1  0  0  0  0  0  0  0  0
   -4.2906    2.8635   -3.7042 C   0  0  0  1  0  0  0  0  0  0  0  0
   -3.0300    2.9961   -3.1535 C   0  0  0  1  0  0  0  0  0  0  0  0
   -2.7910    2.5667   -1.8574 C   0  0  0  1  0  0  0  0  0  0  0  0
   -3.8122    2.0009   -1.1176 C   0  0  0  1  0  0  0  0  0  0  0  0
   -5.0767    1.8678   -1.6698 C   0  0  0  1  0  0  0  0  0  0  0  0
   -1.3812    2.7640   -1.3523 C   0  0  0  1  0  0  0  0  0  0  0  0
   -4.4709    3.1893   -4.6753 H   0  0  0  1  0  0  0  0  0  0  0  0
   -2.2606    3.4181   -3.7116 H   0  0  0  1  0  0  0  0  0  0  0  0
   -3.6320    1.6750   -0.1465 H   0  0  0  1  0  0  0  0  0  0  0  0
   -5.8462    1.4458   -1.1117 H   0  0  0  1  0  0  0  0  0  0  0  0
   -1.2288    2.1234   -0.5089 H   0  0  0  1  0  0  0  0  0  0  0  0
   -0.6994    2.4960   -2.1322 H   0  0  0  1  0  0  0  0  0  0  0  0
  1  4  1  0  0  0  0
  2  4  1  0  0  0  0
  2  5  2  0  0  0  0
  2  6  1  0  0  0  0
  3  4  1  0  0  0  0
  3  7  1  0  0  0  0
  3  8  1  0  0  0  0
  4 26  1  0  0  0  0
  6  9  1  0  0  0  0
  6 12  1  0  0  0  0
  8 10  1  0  0  0  0
  8 11  2  0  0  0  0
  9 13  1  0  0  0  0
  9 14  1  0  0  0  0
  9 15  1  0  0  0  0
 10 16  1  0  0  0  0
 10 17  1  0  0  0  0
 10 18  1  0  0  0  0
 19 20  1  0  0  0  0
 20 21  4  0  0  0  0
 20 25  4  0  0  0  0
 21 22  4  0  0  0  0
 21 27  1  0  0  0  0
 22 23  4  0  0  0  0
 22 28  1  0  0  0  0
 23 24  4  0  0  0  0
 23 26  1  0  0  0  0
 24 25  4  0  0  0  0
 24 29  1  0  0  0  0
 25 30  1  0  0  0  0
 26 31  1  0  0  0  0
 26 32  1  0  0  0  0
M  END
> <BCLConfClusterSize>
1

> <ConfClashScore>
0 

> <ConfOneFourInteractionScore>
-0.976539 

> <ConfScore>
0.314273 

> <ConfScorePBest>
0.00487184 

> <ConfTolerance>
0.364912 

> <RosettaParamsInstructions>
M  ROOT 3
M  POLY_N_BB 3
M  POLY_CA_BB 4
M  POLY_C_BB 2
M  POLY_O_BB 5
M  POLY_IGNORE 9 10 11 12 13 14 15 16 17 18 
M  POLY_UPPER 6
M  POLY_LOWER 8
M  POLY_CHG 0
M  POLY_PROPERTIES ALPHA_AA D_AA PROTEIN AROMATIC POLYMER 
M  END

$$$$



 32 32  0  0  0  0  0  0  0  0999 V2000
   -1.4681    4.8170   -1.5597 H   0  0  0  1  0  0  0  0  0  0  0  0
    0.1237    4.4815   -0.2287 C   0  0  0  1  0  0  0  0  0  0  0  0
   -2.2503    4.4000    0.3094 N   0  0  0  1  0  0  0  0  0  0  0  0
   -1.2615    4.1500   -0.7489 C   0  0  0  1  0  0  0  0  0  0  0  0
    0.6514    3.8089    0.6560 O   0  0  0  1  0  0  0  0  0  0  0  0
    0.7166    5.5362   -0.7904 N   0  0  0  1  0  0  0  0  0  0  0  0
   -2.5497    3.6494    0.8638 H   0  0  0  1  0  0  0  0  0  0  0  0
   -2.7553    5.6149    0.5418 C   0  0  0  1  0  0  0  0  0  0  0  0
    1.9992    6.0449   -0.3277 C   0  0  0  1  0  0  0  0  0  0  0  0
   -3.6574    5.7323    1.7549 C   0  0  0  1  0  0  0  0  0  0  0  0
   -2.5150    6.5879   -0.1718 O   0  0  0  1  0  0  0  0  0  0  0  0
    0.2730    5.9841   -1.5408 H   0  0  0  1  0  0  0  0  0  0  0  0
    2.2463    5.5913    0.6094 H   0  0  0  1  0  0  0  0  0  0  0  0
    1.9384    7.1061   -0.2050 H   0  0  0  1  0  0  0  0  0  0  0  0
    2.7558    5.8113   -1.0473 H   0  0  0  1  0  0  0  0  0  0  0  0
   -3.2089    6.3884    2.4713 H   0  0  0  1  0  0  0  0  0  0  0  0
   -3.7931    4.7656    2.1930 H   0  0  0  1  0  0  0  0  0  0  0  0
   -4.6066    6.1257    1.4565 H   0  0  0  1  0  0  0  0  0  0  0  0
   -6.5332    2.1730   -3.5231 F   0  0  0  1  0  0  0  0  0  0  0  0
   -5.3173    2.2932   -2.9566 C   0  0  0  1  0  0  0  0  0  0  0  0
   -4.3009    2.8621   -3.7082 C   0  0  0  1  0  0  0  0  0  0  0  0
   -3.0363    2.9999   -3.1680 C   0  0  0  1  0  0  0  0  0  0  0  0
   -2.7855    2.5741   -1.8729 C   0  0  0  1  0  0  0  0  0  0  0  0
   -3.7989    2.0069   -1.1236 C   0  0  0  1  0  0  0  0  0  0  0  0
   -5.0674    1.8686   -1.6653 C   0  0  0  1  0  0  0  0  0  0  0  0
   -1.4050    2.7298   -1.2800 C   0  0  0  1  0  0  0  0  0  0  0  0
   -4.4900    3.1852   -4.6785 H   0  0  0  1  0  0  0  0  0  0  0  0
   -2.2727    3.4230   -3.7333 H   0  0  0  1  0  0  0  0  0  0  0  0
   -3.6098    1.6838   -0.1533 H   0  0  0  1  0  0  0  0  0  0  0  0
   -5.8310    1.4455   -1.1000 H   0  0  0  1  0  0  0  0  0  0  0  0
   -1.2756    2.0311   -0.4800 H   0  0  0  1  0  0  0  0  0  0  0  0
   -0.6669    2.5506   -2.0336 H   0  0  0  1  0  0  0  0  0  0  0  0
  1  4  1  0  0  0  0
  2  4  1  0  0  0  0
  2  5  2  0  0  0  0
  2  6  1  0  0  0  0
  3  4  1  0  0  0  0
  3  7  1  0  0  0  0
  3  8  1  0  0  0  0
  4 26  1  0  0  0  0
  6  9  1  0  0  0  0
  6 12  1  0  0  0  0
  8 10  1  0  0  0  0
  8 11  2  0  0  0  0
  9 13  1  0  0  0  0
  9 14  1  0  0  0  0
  9 15  1  0  0  0  0
 10 16  1  0  0  0  0
 10 17  1  0  0  0  0
 10 18  1  0  0  0  0
 19 20  1  0  0  0  0
 20 21  4  0  0  0  0
 20 25  4  0  0  0  0
 21 22  4  0  0  0  0
 21 27  1  0  0  0  0
 22 23  4  0  0  0  0
 22 28  1  0  0  0  0
 23 24  4  0  0  0  0
 23 26  1  0  0  0  0
 24 25  4  0  0  0  0
 24 29  1  0  0  0  0
 25 30  1  0  0  0  0
 26 31  1  0  0  0  0
 26 32  1  0  0  0  0
M  END
> <BCLConfClusterSize>
1

> <ConfClashScore>
0 

> <ConfOneFourInteractionScore>
-0.978127 

> <ConfScore>
0.315083 

> <ConfScorePBest>
0.00484336 

> <ConfTolerance>
0.370424 

> <RosettaParamsInstructions>
M  ROOT 3
M  POLY_N_BB 3
M  POLY_CA_BB 4
M  POLY_C_BB 2
M  POLY_O_BB 5
M  POLY_IGNORE 9 10 11 12 13 14 15 16 17 18 
M  POLY_UPPER 6
M  POLY_LOWER 8
M  POLY_CHG 0
M  POLY_PROPERTIES ALPHA_AA D_AA PROTEIN AROMATIC POLYMER 
M  END

$$$$



 32 32  0  0  0  0  0  0  0  0999 V2000
   -0.9521    0.6740   -0.9007 H   0  0  0  1  0  0  0  0  0  0  0  0
    0.8612    1.7792   -0.9358 C   0  0  0  1  0  0  0  0  0  0  0  0
   -0.4757    1.1324   -2.8798 N   0  0  0  1  0  0  0  0  0  0  0  0
   -0.5306    1.4831   -1.4598 C   0  0  0  1  0  0  0  0  0  0  0  0
    1.5162    2.7250   -1.3658 O   0  0  0  1  0  0  0  0  0  0  0  0
    1.3170    0.9451    0.0169 N   0  0  0  1  0  0  0  0  0  0  0  0
   -1.0904    1.5763   -3.5007 H   0  0  0  1  0  0  0  0  0  0  0  0
    0.3834    0.2283   -3.3590 C   0  0  0  1  0  0  0  0  0  0  0  0
    2.6167    1.2200    0.6017 C   0  0  0  1  0  0  0  0  0  0  0  0
    0.4235    0.0014   -4.8661 C   0  0  0  1  0  0  0  0  0  0  0  0
    1.1459   -0.4338   -2.6563 O   0  0  0  1  0  0  0  0  0  0  0  0
    0.7864    0.1742    0.3076 H   0  0  0  1  0  0  0  0  0  0  0  0
    3.3353    1.3663   -0.1775 H   0  0  0  1  0  0  0  0  0  0  0  0
    2.9154    0.3928    1.2112 H   0  0  0  1  0  0  0  0  0  0  0  0
    2.5576    2.1034    1.2026 H   0  0  0  1  0  0  0  0  0  0  0  0
    0.6243   -1.0303   -5.0667 H   0  0  0  1  0  0  0  0  0  0  0  0
    1.1947    0.6050   -5.2970 H   0  0  0  1  0  0  0  0  0  0  0  0
   -0.5205    0.2701   -5.2922 H   0  0  0  1  0  0  0  0  0  0  0  0
   -6.5556    2.1442   -3.4638 F   0  0  0  1  0  0  0  0  0  0  0  0
   -5.3127    2.2992   -2.9689 C   0  0  0  1  0  0  0  0  0  0  0  0
   -4.2921    2.8673   -3.7153 C   0  0  0  1  0  0  0  0  0  0  0  0
   -3.0296    3.0022   -3.1693 C   0  0  0  1  0  0  0  0  0  0  0  0
   -2.7852    2.5745   -1.8736 C   0  0  0  1  0  0  0  0  0  0  0  0
   -3.8029    2.0080   -1.1295 C   0  0  0  1  0  0  0  0  0  0  0  0
   -5.0693    1.8726   -1.6769 C   0  0  0  1  0  0  0  0  0  0  0  0
   -1.4071    2.7271   -1.2744 C   0  0  0  1  0  0  0  0  0  0  0  0
   -4.4763    3.1919   -4.6860 H   0  0  0  1  0  0  0  0  0  0  0  0
   -2.2628    3.4248   -3.7307 H   0  0  0  1  0  0  0  0  0  0  0  0
   -3.6187    1.6834   -0.1588 H   0  0  0  1  0  0  0  0  0  0  0  0
   -5.8360    1.4501   -1.1156 H   0  0  0  1  0  0  0  0  0  0  0  0
   -0.9223    3.5581   -1.7426 H   0  0  0  1  0  0  0  0  0  0  0  0
   -1.5105    2.9178   -0.2266 H   0  0  0  1  0  0  0  0  0  0  0  0
  1  4  1  0  0  0  0
  2  4  1  0  0  0  0
  2  5  2  0  0  0  0
  2  6  1  0  0  0  0
  3  4  1  0  0  0  0
  3  7  1  0  0  0  0
  3  8  1  0  0  0  0
  4 26  1  0  0  0  0
  6  9  1  0  0  0  0
  6 12  1  0  0  0  0
  8 10  1  0  0  0  0
  8 11  2  0  0  0  0
  9 13  1  0  0  0  0
  9 14  1  0  0  0  0
  9 15  1  0  0  0  0
 10 16  1  0  0  0  0
 10 17  1  0  0  0  0
 10 18  1  0  0  0  0
 19 20  1  0  0  0  0
 20 21  4  0  0  0  0
 20 25  4  0  0  0  0
 21 22  4  0  0  0  0
 21 27  1  0  0  0  0
 22 23  4  0  0  0  0
 22 28  1  0  0  0  0
 23 24  4  0  0  0  0
 23 26  1  0  0  0  0
 24 25  4  0  0  0  0
 24 29  1  0  0  0  0
 25 30  1  0  0  0  0
 26 31  1  0  0  0  0
 26 32  1  0  0  0  0
M  END
> <BCLConfClusterSize>
1

> <ConfClashScore>
0 

> <ConfOneFourInteractionScore>
-0.979134 

> <ConfScore>
0.315854 

> <ConfScorePBest>
0.00481488 

> <ConfTolerance>
0.329465 

> <RosettaParamsInstructions>
M  ROOT 3
M  POLY_N_BB 3
M  POLY_CA_BB 4
M  POLY_C_BB 2
M  POLY_O_BB 5
M  POLY_IGNORE 9 10 11 12 13 14 15 16 17 18 
M  POLY_UPPER 6
M  POLY_LOWER 8
M  POLY_CHG 0
M  POLY_PROPERTIES ALPHA_AA D_AA PROTEIN AROMATIC POLYMER 
M  END

$$$$



 32 32  0  0  0  0  0  0  0  0999 V2000
   -1.7436    3.9095    0.4089 H   0  0  0  1  0  0  0  0  0  0  0  0
   -1.9555    5.2230   -1.2540 C   0  0  0  1  0  0  0  0  0  0  0  0
    0.1445    4.3978   -0.3381 N   0  0  0  1  0  0  0  0  0  0  0  0
   -1.2716    4.0577   -0.5399 C   0  0  0  1  0  0  0  0  0  0  0  0
   -3.1470    5.1633   -1.5628 O   0  0  0  1  0  0  0  0  0  0  0  0
   -1.2202    6.3107   -1.5338 N   0  0  0  1  0  0  0  0  0  0  0  0
    0.8203    3.9603   -0.8970 H   0  0  0  1  0  0  0  0  0  0  0  0
    0.5437    5.2864    0.5845 C   0  0  0  1  0  0  0  0  0  0  0  0
   -1.7727    7.4656   -2.2258 C   0  0  0  1  0  0  0  0  0  0  0  0
    2.0352    5.3209    0.9191 C   0  0  0  1  0  0  0  0  0  0  0  0
   -0.2487    5.9925    1.2067 O   0  0  0  1  0  0  0  0  0  0  0  0
   -0.2786    6.3277   -1.2625 H   0  0  0  1  0  0  0  0  0  0  0  0
   -2.3189    7.1389   -3.0860 H   0  0  0  1  0  0  0  0  0  0  0  0
   -0.9767    8.1113   -2.5331 H   0  0  0  1  0  0  0  0  0  0  0  0
   -2.4286    7.9956   -1.5673 H   0  0  0  1  0  0  0  0  0  0  0  0
    2.5188    6.0633    0.3192 H   0  0  0  1  0  0  0  0  0  0  0  0
    2.4678    4.3631    0.7181 H   0  0  0  1  0  0  0  0  0  0  0  0
    2.1629    5.5604    1.9541 H   0  0  0  1  0  0  0  0  0  0  0  0
   -6.5420    2.1620   -3.5007 F   0  0  0  1  0  0  0  0  0  0  0  0
   -5.3148    2.2960   -2.9622 C   0  0  0  1  0  0  0  0  0  0  0  0
   -4.2906    2.8635   -3.7042 C   0  0  0  1  0  0  0  0  0  0  0  0
   -3.0300    2.9961   -3.1535 C   0  0  0  1  0  0  0  0  0  0  0  0
   -2.7910    2.5667   -1.8574 C   0  0  0  1  0  0  0  0  0  0  0  0
   -3.8122    2.0009   -1.1176 C   0  0  0  1  0  0  0  0  0  0  0  0
   -5.0767    1.8678   -1.6698 C   0  0  0  1  0  0  0  0  0  0  0  0
   -1.3812    2.7640   -1.3523 C   0  0  0  1  0  0  0  0  0  0  0  0
   -4.4709    3.1893   -4.6753 H   0  0  0  1  0  0  0  0  0  0  0  0
   -2.2606    3.4181   -3.7116 H   0  0  0  1  0  0  0  0  0  0  0  0
   -3.6320    1.6750   -0.1465 H   0  0  0  1  0  0  0  0  0  0  0  0
   -5.8462    1.4458   -1.1117 H   0  0  0  1  0  0  0  0  0  0  0  0
   -1.1120    1.9356   -0.7308 H   0  0  0  1  0  0  0  0  0  0  0  0
   -0.7137    2.8162   -2.1869 H   0  0  0  1  0  0  0  0  0  0  0  0
  1  4  1  0  0  0  0
  2  4  1  0  0  0  0
  2  5  2  0  0  0  0
  2  6  1  0  0  0  0
  3  4  1  0  0  0  0
  3  7  1  0  0  0  0
  3  8  1  0  0  0  0
  4 26  1  0  0  0  0
  6  9  1  0  0  0  0
  6 12  1  0  0  0  0
  8 10  1  0  0  0  0
  8 11  2  0  0  0  0
  9 13  1  0  0  0  0
  9 14  1  0  0  0  0
  9 15  1  0  0  0  0
 10 16  1  0  0  0  0
 10 17  1  0  0  0  0
 10 18  1  0  0  0  0
 19 20  1  0  0  0  0
 20 21  4  0  0  0  0
 20 25  4  0  0  0  0
 21 22  4  0  0  0  0
 21 27  1  0  0  0  0
 22 23  4  0  0  0  0
 22 28  1  0  0  0  0
 23 24  4  0  0  0  0
 23 26  1  0  0  0  0
 24 25  4  0  0  0  0
 24 29  1  0  0  0  0
 25 30  1  0  0  0  0
 26 31  1  0  0  0  0
 26 32  1  0  0  0  0
M  END
> <BCLConfClusterSize>
1

> <ConfClashScore>
0 

> <ConfOneFourInteractionScore>
-0.953269 

> <ConfScore>
0.319619 

> <ConfScorePBest>
0.00478639 

> <ConfTolerance>
0.370599 

> <RosettaParamsInstructions>
M  ROOT 3
M  POLY_N_BB 3
M  POLY_CA_BB 4
M  POLY_C_BB 2
M  POLY_O_BB 5
M  POLY_IGNORE 9 10 11 12 13 14 15 16 17 18 
M  POLY_UPPER 6
M  POLY_LOWER 8
M  POLY_CHG 0
M  POLY_PROPERTIES ALPHA_AA D_AA PROTEIN AROMATIC POLYMER 
M  END

$$$$



 32 32  0  0  0  0  0  0  0  0999 V2000
   -0.2881    3.9522    0.0325 H   0  0  0  1  0  0  0  0  0  0  0  0
   -2.2574    3.9371    0.7568 C   0  0  0  1  0  0  0  0  0  0  0  0
   -1.4014    5.1803   -1.1908 N   0  0  0  1  0  0  0  0  0  0  0  0
   -1.2714    3.9688   -0.3890 C   0  0  0  1  0  0  0  0  0  0  0  0
   -2.7034    2.8698    1.1761 O   0  0  0  1  0  0  0  0  0  0  0  0
   -2.6302    5.1062    1.3012 N   0  0  0  1  0  0  0  0  0  0  0  0
   -2.2878    5.5848   -1.2962 H   0  0  0  1  0  0  0  0  0  0  0  0
   -0.3542    5.7576   -1.7866 C   0  0  0  1  0  0  0  0  0  0  0  0
   -3.5702    5.1830    2.4096 C   0  0  0  1  0  0  0  0  0  0  0  0
   -0.6746    6.9367   -2.6845 C   0  0  0  1  0  0  0  0  0  0  0  0
    0.8012    5.3718   -1.6292 O   0  0  0  1  0  0  0  0  0  0  0  0
   -2.2565    5.9368    0.9396 H   0  0  0  1  0  0  0  0  0  0  0  0
   -3.2561    4.5225    3.1906 H   0  0  0  1  0  0  0  0  0  0  0  0
   -4.5442    4.8972    2.0713 H   0  0  0  1  0  0  0  0  0  0  0  0
   -3.6012    6.1857    2.7817 H   0  0  0  1  0  0  0  0  0  0  0  0
   -0.3627    6.7192   -3.6846 H   0  0  0  1  0  0  0  0  0  0  0  0
   -0.1582    7.8046   -2.3309 H   0  0  0  1  0  0  0  0  0  0  0  0
   -1.7290    7.1184   -2.6715 H   0  0  0  1  0  0  0  0  0  0  0  0
   -6.5450    2.1585   -3.4937 F   0  0  0  1  0  0  0  0  0  0  0  0
   -5.3149    2.2962   -2.9627 C   0  0  0  1  0  0  0  0  0  0  0  0
   -4.2965    2.8647   -3.7117 C   0  0  0  1  0  0  0  0  0  0  0  0
   -3.0329    3.0011   -3.1686 C   0  0  0  1  0  0  0  0  0  0  0  0
   -2.7853    2.5743   -1.8732 C   0  0  0  1  0  0  0  0  0  0  0  0
   -3.8009    2.0075   -1.1265 C   0  0  0  1  0  0  0  0  0  0  0  0
   -5.0683    1.8706   -1.6711 C   0  0  0  1  0  0  0  0  0  0  0  0
   -1.4060    2.7284   -1.2772 C   0  0  0  1  0  0  0  0  0  0  0  0
   -4.4831    3.1886   -4.6822 H   0  0  0  1  0  0  0  0  0  0  0  0
   -2.2677    3.4239   -3.7319 H   0  0  0  1  0  0  0  0  0  0  0  0
   -3.6142    1.6836   -0.1560 H   0  0  0  1  0  0  0  0  0  0  0  0
   -5.8335    1.4478   -1.1078 H   0  0  0  1  0  0  0  0  0  0  0  0
   -1.1913    1.8621   -0.6870 H   0  0  0  1  0  0  0  0  0  0  0  0
   -0.6966    2.8021   -2.0748 H   0  0  0  1  0  0  0  0  0  0  0  0
  1  4  1  0  0  0  0
  2  4  1  0  0  0  0
  2  5  2  0  0  0  0
  2  6  1  0  0  0  0
  3  4  1  0  0  0  0
  3  7  1  0  0  0  0
  3  8  1  0  0  0  0
  4 26  1  0  0  0  0
  6  9  1  0  0  0  0
  6 12  1  0  0  0  0
  8 10  1  0  0  0  0
  8 11  2  0  0  0  0
  9 13  1  0  0  0  0
  9 14  1  0  0  0  0
  9 15  1  0  0  0  0
 10 16  1  0  0  0  0
 10 17  1  0  0  0  0
 10 18  1  0  0  0  0
 19 20  1  0  0  0  0
 20 21  4  0  0  0  0
 20 25  4  0  0  0  0
 21 22  4  0  0  0  0
 21 27  1  0  0  0  0
 22 23  4  0  0  0  0
 22 28  1  0  0  0  0
 23 24  4  0  0  0  0
 23 26  1  0  0  0  0
 24 25  4  0  0  0  0
 24 29  1  0  0  0  0
 25 30  1  0  0  0  0
 26 31  1  0  0  0  0
 26 32  1  0  0  0  0
M  END
> <BCLConfClusterSize>
1

> <ConfClashScore>
0 

> <ConfOneFourInteractionScore>
-0.957364 

> <ConfScore>
0.320791 

> <ConfScorePBest>
0.00475791 

> <ConfTolerance>
0.574972 

> <RosettaParamsInstructions>
M  ROOT 3
M  POLY_N_BB 3
M  POLY_CA_BB 4
M  POLY_C_BB 2
M  POLY_O_BB 5
M  POLY_IGNORE 9 10 11 12 13 14 15 16 17 18 
M  POLY_UPPER 6
M  POLY_LOWER 8
M  POLY_CHG 0
M  POLY_PROPERTIES ALPHA_AA D_AA PROTEIN AROMATIC POLYMER 
M  END

$$$$



 32 32  0  0  0  0  0  0  0  0999 V2000
   -1.6603    3.5845    0.5915 H   0  0  0  1  0  0  0  0  0  0  0  0
   -1.9234    5.1856   -0.7357 C   0  0  0  1  0  0  0  0  0  0  0  0
    0.2112    4.1438   -0.0717 N   0  0  0  1  0  0  0  0  0  0  0  0
   -1.2200    3.8981   -0.3320 C   0  0  0  1  0  0  0  0  0  0  0  0
   -2.7120    5.2129   -1.6768 O   0  0  0  1  0  0  0  0  0  0  0  0
   -1.6255    6.2636   -0.0047 N   0  0  0  1  0  0  0  0  0  0  0  0
    0.6168    3.8318    0.7641 H   0  0  0  1  0  0  0  0  0  0  0  0
    0.9628    4.7972   -0.9818 C   0  0  0  1  0  0  0  0  0  0  0  0
   -2.4217    7.4807   -0.0543 C   0  0  0  1  0  0  0  0  0  0  0  0
    2.4210    5.0508   -0.6522 C   0  0  0  1  0  0  0  0  0  0  0  0
    0.4817    5.1770   -2.0485 O   0  0  0  1  0  0  0  0  0  0  0  0
   -0.8436    6.2335    0.5853 H   0  0  0  1  0  0  0  0  0  0  0  0
   -3.4484    7.2294   -0.2203 H   0  0  0  1  0  0  0  0  0  0  0  0
   -2.0733    8.1023   -0.8525 H   0  0  0  1  0  0  0  0  0  0  0  0
   -2.3287    8.0054    0.8736 H   0  0  0  1  0  0  0  0  0  0  0  0
    2.9634    4.1297   -0.6999 H   0  0  0  1  0  0  0  0  0  0  0  0
    2.4977    5.4589    0.3339 H   0  0  0  1  0  0  0  0  0  0  0  0
    2.8308    5.7427   -1.3580 H   0  0  0  1  0  0  0  0  0  0  0  0
   -6.5543    2.1459   -3.4674 F   0  0  0  1  0  0  0  0  0  0  0  0
   -5.3127    2.2991   -2.9686 C   0  0  0  1  0  0  0  0  0  0  0  0
   -4.2892    2.8666   -3.7115 C   0  0  0  1  0  0  0  0  0  0  0  0
   -3.0282    2.9997   -3.1617 C   0  0  0  1  0  0  0  0  0  0  0  0
   -2.7881    2.5706   -1.8656 C   0  0  0  1  0  0  0  0  0  0  0  0
   -3.8087    2.0047   -1.1250 C   0  0  0  1  0  0  0  0  0  0  0  0
   -5.0736    1.8712   -1.6763 C   0  0  0  1  0  0  0  0  0  0  0  0
   -1.3937    2.7451   -1.3119 C   0  0  0  1  0  0  0  0  0  0  0  0
   -4.4702    3.1923   -4.6825 H   0  0  0  1  0  0  0  0  0  0  0  0
   -2.2593    3.4218   -3.7204 H   0  0  0  1  0  0  0  0  0  0  0  0
   -3.6277    1.6791   -0.1541 H   0  0  0  1  0  0  0  0  0  0  0  0
   -5.8425    1.4490   -1.1176 H   0  0  0  1  0  0  0  0  0  0  0  0
   -1.1229    1.8405   -0.8086 H   0  0  0  1  0  0  0  0  0  0  0  0
   -0.7298    2.9085   -2.1349 H   0  0  0  1  0  0  0  0  0  0  0  0
  1  4  1  0  0  0  0
  2  4  1  0  0  0  0
  2  5  2  0  0  0  0
  2  6  1  0  0  0  0
  3  4  1  0  0  0  0
  3  7  1  0  0  0  0
  3  8  1  0  0  0  0
  4 26  1  0  0  0  0
  6  9  1  0  0  0  0
  6 12  1  0  0  0  0
  8 10  1  0  0  0  0
  8 11  2  0  0  0  0
  9 13  1  0  0  0  0
  9 14  1  0  0  0  0
  9 15  1  0  0  0  0
 10 16  1  0  0  0  0
 10 17  1  0  0  0  0
 10 18  1  0  0  0  0
 19 20  1  0  0  0  0
 20 21  4  0  0  0  0
 20 25  4  0  0  0  0
 21 22  4  0  0  0  0
 21 27  1  0  0  0  0
 22 23  4  0  0  0  0
 22 28  1  0  0  0  0
 23 24  4  0  0  0  0
 23 26  1  0  0  0  0
 24 25  4  0  0  0  0
 24 29  1  0  0  0  0
 25 30  1  0  0  0  0
 26 31  1  0  0  0  0
 26 32  1  0  0  0  0
M  END
> <BCLConfClusterSize>
1

> <ConfClashScore>
0 

> <ConfOneFourInteractionScore>
-0.96949 

> <ConfScore>
0.322743 

> <ConfScorePBest>
0.00472943 

> <ConfTolerance>
0.367139 

> <RosettaParamsInstructions>
M  ROOT 3
M  POLY_N_BB 3
M  POLY_CA_BB 4
M  POLY_C_BB 2
M  POLY_O_BB 5
M  POLY_IGNORE 9 10 11 12 13 14 15 16 17 18 
M  POLY_UPPER 6
M  POLY_LOWER 8
M  POLY_CHG 0
M  POLY_PROPERTIES ALPHA_AA D_AA PROTEIN AROMATIC POLYMER 
M  END

$$$$



 32 32  0  0  0  0  0  0  0  0999 V2000
   -0.4151    2.7879   -3.1439 H   0  0  0  1  0  0  0  0  0  0  0  0
   -0.3265    0.7778   -2.5319 C   0  0  0  1  0  0  0  0  0  0  0  0
    1.0221    2.6131   -1.6660 N   0  0  0  1  0  0  0  0  0  0  0  0
   -0.2934    2.2625   -2.2198 C   0  0  0  1  0  0  0  0  0  0  0  0
    0.0859   -0.0498   -1.7203 O   0  0  0  1  0  0  0  0  0  0  0  0
   -0.7524    0.4666   -3.7594 N   0  0  0  1  0  0  0  0  0  0  0  0
    1.0626    3.1426   -0.8423 H   0  0  0  1  0  0  0  0  0  0  0  0
    2.1646    2.2351   -2.2464 C   0  0  0  1  0  0  0  0  0  0  0  0
   -0.6318   -0.8764   -4.3068 C   0  0  0  1  0  0  0  0  0  0  0  0
    3.4340    2.5113   -1.4510 C   0  0  0  1  0  0  0  0  0  0  0  0
    2.2083    1.6971   -3.3520 O   0  0  0  1  0  0  0  0  0  0  0  0
   -1.1601    1.1670   -4.3103 H   0  0  0  1  0  0  0  0  0  0  0  0
   -0.0957   -1.4959   -3.6185 H   0  0  0  1  0  0  0  0  0  0  0  0
   -0.1032   -0.8363   -5.2363 H   0  0  0  1  0  0  0  0  0  0  0  0
   -1.6076   -1.2845   -4.4682 H   0  0  0  1  0  0  0  0  0  0  0  0
    3.1928    2.5974   -0.4121 H   0  0  0  1  0  0  0  0  0  0  0  0
    3.8762    3.4244   -1.7911 H   0  0  0  1  0  0  0  0  0  0  0  0
    4.1246    1.7061   -1.5910 H   0  0  0  1  0  0  0  0  0  0  0  0
   -6.5332    2.1730   -3.5231 F   0  0  0  1  0  0  0  0  0  0  0  0
   -5.3173    2.2932   -2.9566 C   0  0  0  1  0  0  0  0  0  0  0  0
   -4.3009    2.8621   -3.7082 C   0  0  0  1  0  0  0  0  0  0  0  0
   -3.0363    2.9999   -3.1680 C   0  0  0  1  0  0  0  0  0  0  0  0
   -2.7855    2.5741   -1.8729 C   0  0  0  1  0  0  0  0  0  0  0  0
   -3.7989    2.0069   -1.1236 C   0  0  0  1  0  0  0  0  0  0  0  0
   -5.0674    1.8686   -1.6653 C   0  0  0  1  0  0  0  0  0  0  0  0
   -1.4050    2.7298   -1.2800 C   0  0  0  1  0  0  0  0  0  0  0  0
   -4.4900    3.1852   -4.6785 H   0  0  0  1  0  0  0  0  0  0  0  0
   -2.2727    3.4230   -3.7333 H   0  0  0  1  0  0  0  0  0  0  0  0
   -3.6098    1.6838   -0.1533 H   0  0  0  1  0  0  0  0  0  0  0  0
   -5.8310    1.4455   -1.1000 H   0  0  0  1  0  0  0  0  0  0  0  0
   -1.2466    3.7632   -1.0525 H   0  0  0  1  0  0  0  0  0  0  0  0
   -1.3542    2.1540   -0.3796 H   0  0  0  1  0  0  0  0  0  0  0  0
  1  4  1  0  0  0  0
  2  4  1  0  0  0  0
  2  5  2  0  0  0  0
  2  6  1  0  0  0  0
  3  4  1  0  0  0  0
  3  7  1  0  0  0  0
  3  8  1  0  0  0  0
  4 26  1  0  0  0  0
  6  9  1  0  0  0  0
  6 12  1  0  0  0  0
  8 10  1  0  0  0  0
  8 11  2  0  0  0  0
  9 13  1  0  0  0  0
  9 14  1  0  0  0  0
  9 15  1  0  0  0  0
 10 16  1  0  0  0  0
 10 17  1  0  0  0  0
 10 18  1  0  0  0  0
 19 20  1  0  0  0  0
 20 21  4  0  0  0  0
 20 25  4  0  0  0  0
 21 22  4  0  0  0  0
 21 27  1  0  0  0  0
 22 23  4  0  0  0  0
 22 28  1  0  0  0  0
 23 24  4  0  0  0  0
 23 26  1  0  0  0  0
 24 25  4  0  0  0  0
 24 29  1  0  0  0  0
 25 30  1  0  0  0  0
 26 31  1  0  0  0  0
 26 32  1  0  0  0  0
M  END
> <BCLConfClusterSize>
1

> <ConfClashScore>
0 

> <ConfOneFourInteractionScore>
-0.978127 

> <ConfScore>
0.323028 

> <ConfScorePBest>
0.00470095 

> <ConfTolerance>
0.560433 

> <RosettaParamsInstructions>
M  ROOT 3
M  POLY_N_BB 3
M  POLY_CA_BB 4
M  POLY_C_BB 2
M  POLY_O_BB 5
M  POLY_IGNORE 9 10 11 12 13 14 15 16 17 18 
M  POLY_UPPER 6
M  POLY_LOWER 8
M  POLY_CHG 0
M  POLY_PROPERTIES ALPHA_AA D_AA PROTEIN AROMATIC POLYMER 
M  END

$$$$



 32 32  0  0  0  0  0  0  0  0999 V2000
   -2.1148    3.9936    0.2218 H   0  0  0  1  0  0  0  0  0  0  0  0
   -1.4078    5.2939   -1.2658 C   0  0  0  1  0  0  0  0  0  0  0  0
   -0.0480    4.0204    0.2974 N   0  0  0  1  0  0  0  0  0  0  0  0
   -1.3003    4.0117   -0.4719 C   0  0  0  1  0  0  0  0  0  0  0  0
   -2.5002    5.8223   -1.4657 O   0  0  0  1  0  0  0  0  0  0  0  0
   -0.2825    5.8338   -1.7424 N   0  0  0  1  0  0  0  0  0  0  0  0
    0.6556    4.6666    0.0789 H   0  0  0  1  0  0  0  0  0  0  0  0
    0.1332    3.1492    1.2940 C   0  0  0  1  0  0  0  0  0  0  0  0
   -0.2829    7.0410   -2.5552 C   0  0  0  1  0  0  0  0  0  0  0  0
    1.5227    3.1216    1.9003 C   0  0  0  1  0  0  0  0  0  0  0  0
   -0.7583    2.4086    1.7068 O   0  0  0  1  0  0  0  0  0  0  0  0
    0.5730    5.4019   -1.5375 H   0  0  0  1  0  0  0  0  0  0  0  0
   -1.1467    7.6280   -2.3223 H   0  0  0  1  0  0  0  0  0  0  0  0
   -0.3026    6.7733   -3.5910 H   0  0  0  1  0  0  0  0  0  0  0  0
    0.6002    7.6092   -2.3499 H   0  0  0  1  0  0  0  0  0  0  0  0
    2.2374    2.8709    1.1444 H   0  0  0  1  0  0  0  0  0  0  0  0
    1.5569    2.3895    2.6799 H   0  0  0  1  0  0  0  0  0  0  0  0
    1.7544    4.0848    2.3045 H   0  0  0  1  0  0  0  0  0  0  0  0
   -6.5436    2.1603   -3.4973 F   0  0  0  1  0  0  0  0  0  0  0  0
   -5.3149    2.2961   -2.9625 C   0  0  0  1  0  0  0  0  0  0  0  0
   -4.2936    2.8641   -3.7080 C   0  0  0  1  0  0  0  0  0  0  0  0
   -3.0315    2.9985   -3.1610 C   0  0  0  1  0  0  0  0  0  0  0  0
   -2.7882    2.5704   -1.8653 C   0  0  0  1  0  0  0  0  0  0  0  0
   -3.8067    2.0042   -1.1220 C   0  0  0  1  0  0  0  0  0  0  0  0
   -5.0726    1.8692   -1.6705 C   0  0  0  1  0  0  0  0  0  0  0  0
   -1.3927    2.7464   -1.3147 C   0  0  0  1  0  0  0  0  0  0  0  0
   -4.4770    3.1890   -4.6788 H   0  0  0  1  0  0  0  0  0  0  0  0
   -2.2642    3.4210   -3.7217 H   0  0  0  1  0  0  0  0  0  0  0  0
   -3.6232    1.6793   -0.1513 H   0  0  0  1  0  0  0  0  0  0  0  0
   -5.8400    1.4467   -1.1098 H   0  0  0  1  0  0  0  0  0  0  0  0
   -1.1463    1.9011   -0.7067 H   0  0  0  1  0  0  0  0  0  0  0  0
   -0.7008    2.8153   -2.1280 H   0  0  0  1  0  0  0  0  0  0  0  0
  1  4  1  0  0  0  0
  2  4  1  0  0  0  0
  2  5  2  0  0  0  0
  2  6  1  0  0  0  0
  3  4  1  0  0  0  0
  3  7  1  0  0  0  0
  3  8  1  0  0  0  0
  4 26  1  0  0  0  0
  6  9  1  0  0  0  0
  6 12  1  0  0  0  0
  8 10  1  0  0  0  0
  8 11  2  0  0  0  0
  9 13  1  0  0  0  0
  9 14  1  0  0  0  0
  9 15  1  0  0  0  0
 10 16  1  0  0  0  0
 10 17  1  0  0  0  0
 10 18  1  0  0  0  0
 19 20  1  0  0  0  0
 20 21  4  0  0  0  0
 20 25  4  0  0  0  0
 21 22  4  0  0  0  0
 21 27  1  0  0  0  0
 22 23  4  0  0  0  0
 22 28  1  0  0  0  0
 23 24  4  0  0  0  0
 23 26  1  0  0  0  0
 24 25  4  0  0  0  0
 24 29  1  0  0  0  0
 25 30  1  0  0  0  0
 26 31  1  0  0  0  0
 26 32  1  0  0  0  0
M  END
> <BCLConfClusterSize>
1

> <ConfClashScore>
0 

> <ConfOneFourInteractionScore>
-0.962347 

> <ConfScore>
0.324569 

> <ConfScorePBest>
0.00467247 

> <ConfTolerance>
0.386694 

> <RosettaParamsInstructions>
M  ROOT 3
M  POLY_N_BB 3
M  POLY_CA_BB 4
M  POLY_C_BB 2
M  POLY_O_BB 5
M  POLY_IGNORE 9 10 11 12 13 14 15 16 17 18 
M  POLY_UPPER 6
M  POLY_LOWER 8
M  POLY_CHG 0
M  POLY_PROPERTIES ALPHA_AA D_AA PROTEIN AROMATIC POLYMER 
M  END

$$$$



 32 32  0  0  0  0  0  0  0  0999 V2000
   -1.2763    1.2582    0.1711 H   0  0  0  1  0  0  0  0  0  0  0  0
    0.7091    1.6886   -0.3923 C   0  0  0  1  0  0  0  0  0  0  0  0
   -0.9576    0.3989   -1.6791 N   0  0  0  1  0  0  0  0  0  0  0  0
   -0.7581    1.4928   -0.7352 C   0  0  0  1  0  0  0  0  0  0  0  0
    1.0845    2.6463    0.2788 O   0  0  0  1  0  0  0  0  0  0  0  0
    1.5448    0.7599   -0.8657 N   0  0  0  1  0  0  0  0  0  0  0  0
   -1.5548   -0.3295   -1.4088 H   0  0  0  1  0  0  0  0  0  0  0  0
   -0.3883    0.3153   -2.8825 C   0  0  0  1  0  0  0  0  0  0  0  0
    2.9838    0.9507   -0.7621 C   0  0  0  1  0  0  0  0  0  0  0  0
   -0.6015   -0.9907   -3.6228 C   0  0  0  1  0  0  0  0  0  0  0  0
    0.2711    1.2290   -3.3766 O   0  0  0  1  0  0  0  0  0  0  0  0
    1.1880   -0.0516   -1.2835 H   0  0  0  1  0  0  0  0  0  0  0  0
    3.1962    1.6485    0.0207 H   0  0  0  1  0  0  0  0  0  0  0  0
    3.3607    1.3295   -1.6892 H   0  0  0  1  0  0  0  0  0  0  0  0
    3.4526    0.0144   -0.5419 H   0  0  0  1  0  0  0  0  0  0  0  0
   -1.2291   -1.6328   -3.0409 H   0  0  0  1  0  0  0  0  0  0  0  0
    0.3429   -1.4668   -3.7850 H   0  0  0  1  0  0  0  0  0  0  0  0
   -1.0688   -0.7941   -4.5651 H   0  0  0  1  0  0  0  0  0  0  0  0
   -6.5436    2.1603   -3.4973 F   0  0  0  1  0  0  0  0  0  0  0  0
   -5.3149    2.2961   -2.9625 C   0  0  0  1  0  0  0  0  0  0  0  0
   -4.2936    2.8641   -3.7080 C   0  0  0  1  0  0  0  0  0  0  0  0
   -3.0315    2.9985   -3.1610 C   0  0  0  1  0  0  0  0  0  0  0  0
   -2.7882    2.5704   -1.8653 C   0  0  0  1  0  0  0  0  0  0  0  0
   -3.8067    2.0042   -1.1220 C   0  0  0  1  0  0  0  0  0  0  0  0
   -5.0726    1.8692   -1.6705 C   0  0  0  1  0  0  0  0  0  0  0  0
   -1.3927    2.7464   -1.3147 C   0  0  0  1  0  0  0  0  0  0  0  0
   -4.4770    3.1890   -4.6788 H   0  0  0  1  0  0  0  0  0  0  0  0
   -2.2642    3.4210   -3.7217 H   0  0  0  1  0  0  0  0  0  0  0  0
   -3.6232    1.6793   -0.1513 H   0  0  0  1  0  0  0  0  0  0  0  0
   -5.8400    1.4467   -1.1098 H   0  0  0  1  0  0  0  0  0  0  0  0
   -0.7665    3.0967   -2.1084 H   0  0  0  1  0  0  0  0  0  0  0  0
   -1.4340    3.4837   -0.5403 H   0  0  0  1  0  0  0  0  0  0  0  0
  1  4  1  0  0  0  0
  2  4  1  0  0  0  0
  2  5  2  0  0  0  0
  2  6  1  0  0  0  0
  3  4  1  0  0  0  0
  3  7  1  0  0  0  0
  3  8  1  0  0  0  0
  4 26  1  0  0  0  0
  6  9  1  0  0  0  0
  6 12  1  0  0  0  0
  8 10  1  0  0  0  0
  8 11  2  0  0  0  0
  9 13  1  0  0  0  0
  9 14  1  0  0  0  0
  9 15  1  0  0  0  0
 10 16  1  0  0  0  0
 10 17  1  0  0  0  0
 10 18  1  0  0  0  0
 19 20  1  0  0  0  0
 20 21  4  0  0  0  0
 20 25  4  0  0  0  0
 21 22  4  0  0  0  0
 21 27  1  0  0  0  0
 22 23  4  0  0  0  0
 22 28  1  0  0  0  0
 23 24  4  0  0  0  0
 23 26  1  0  0  0  0
 24 25  4  0  0  0  0
 24 29  1  0  0  0  0
 25 30  1  0  0  0  0
 26 31  1  0  0  0  0
 26 32  1  0  0  0  0
M  END
> <BCLConfClusterSize>
1

> <ConfClashScore>
0 

> <ConfOneFourInteractionScore>
-0.925537 

> <ConfScore>
0.327207 

> <ConfScorePBest>
0.00464399 

> <ConfTolerance>
0.424668 

> <RosettaParamsInstructions>
M  ROOT 3
M  POLY_N_BB 3
M  POLY_CA_BB 4
M  POLY_C_BB 2
M  POLY_O_BB 5
M  POLY_IGNORE 9 10 11 12 13 14 15 16 17 18 
M  POLY_UPPER 6
M  POLY_LOWER 8
M  POLY_CHG 0
M  POLY_PROPERTIES ALPHA_AA D_AA PROTEIN AROMATIC POLYMER 
M  END

$$$$



 32 32  0  0  0  0  0  0  0  0999 V2000
   -0.0695    2.1481    0.2372 H   0  0  0  1  0  0  0  0  0  0  0  0
   -1.5220    0.6286    0.0002 C   0  0  0  1  0  0  0  0  0  0  0  0
   -1.8344    2.8223    1.0760 N   0  0  0  1  0  0  0  0  0  0  0  0
   -1.1196    2.0960    0.0386 C   0  0  0  1  0  0  0  0  0  0  0  0
   -1.3014   -0.0603   -0.9950 O   0  0  0  1  0  0  0  0  0  0  0  0
   -2.1265    0.1079    1.0882 N   0  0  0  1  0  0  0  0  0  0  0  0
   -2.5097    3.4816    0.8121 H   0  0  0  1  0  0  0  0  0  0  0  0
   -1.6032    2.6227    2.3720 C   0  0  0  1  0  0  0  0  0  0  0  0
   -2.4858   -1.3020    1.1200 C   0  0  0  1  0  0  0  0  0  0  0  0
   -2.1882    3.6447    3.3505 C   0  0  0  1  0  0  0  0  0  0  0  0
   -0.8840    1.7122    2.7812 O   0  0  0  1  0  0  0  0  0  0  0  0
   -2.3240    0.6803    1.8587 H   0  0  0  1  0  0  0  0  0  0  0  0
   -2.5677   -1.6723    0.1195 H   0  0  0  1  0  0  0  0  0  0  0  0
   -3.4237   -1.4195    1.6214 H   0  0  0  1  0  0  0  0  0  0  0  0
   -1.7302   -1.8507    1.6424 H   0  0  0  1  0  0  0  0  0  0  0  0
   -1.8501    3.4245    4.3415 H   0  0  0  1  0  0  0  0  0  0  0  0
   -3.2567    3.5967    3.3195 H   0  0  0  1  0  0  0  0  0  0  0  0
   -1.8667    4.6271    3.0742 H   0  0  0  1  0  0  0  0  0  0  0  0
   -6.5328    2.1747   -3.5272 F   0  0  0  1  0  0  0  0  0  0  0  0
   -5.3184    2.2930   -2.9569 C   0  0  0  1  0  0  0  0  0  0  0  0
   -4.2992    2.8614   -3.7049 C   0  0  0  1  0  0  0  0  0  0  0  0
   -3.0360    2.9972   -3.1608 C   0  0  0  1  0  0  0  0  0  0  0  0
   -2.7896    2.5701   -1.8653 C   0  0  0  1  0  0  0  0  0  0  0  0
   -3.8059    2.0034   -1.1196 C   0  0  0  1  0  0  0  0  0  0  0  0
   -5.0730    1.8671   -1.6651 C   0  0  0  1  0  0  0  0  0  0  0  0
   -1.3792    2.7493   -1.3125 C   0  0  0  1  0  0  0  0  0  0  0  0
   -4.4850    3.1855   -4.6755 H   0  0  0  1  0  0  0  0  0  0  0  0
   -2.2703    3.4199   -3.7235 H   0  0  0  1  0  0  0  0  0  0  0  0
   -3.6201    1.6793   -0.1490 H   0  0  0  1  0  0  0  0  0  0  0  0
   -5.8387    1.4443   -1.1025 H   0  0  0  1  0  0  0  0  0  0  0  0
   -0.6923    2.3315   -2.0186 H   0  0  0  1  0  0  0  0  0  0  0  0
   -1.1947    3.7986   -1.2126 H   0  0  0  1  0  0  0  0  0  0  0  0
  1  4  1  0  0  0  0
  2  4  1  0  0  0  0
  2  5  2  0  0  0  0
  2  6  1  0  0  0  0
  3  4  1  0  0  0  0
  3  7  1  0  0  0  0
  3  8  1  0  0  0  0
  4 26  1  0  0  0  0
  6  9  1  0  0  0  0
  6 12  1  0  0  0  0
  8 10  1  0  0  0  0
  8 11  2  0  0  0  0
  9 13  1  0  0  0  0
  9 14  1  0  0  0  0
  9 15  1  0  0  0  0
 10 16  1  0  0  0  0
 10 17  1  0  0  0  0
 10 18  1  0  0  0  0
 19 20  1  0  0  0  0
 20 21  4  0  0  0  0
 20 25  4  0  0  0  0
 21 22  4  0  0  0  0
 21 27  1  0  0  0  0
 22 23  4  0  0  0  0
 22 28  1  0  0  0  0
 23 24  4  0  0  0  0
 23 26  1  0  0  0  0
 24 25  4  0  0  0  0
 24 29  1  0  0  0  0
 25 30  1  0  0  0  0
 26 31  1  0  0  0  0
 26 32  1  0  0  0  0
M  END
> <BCLConfClusterSize>
1

> <ConfClashScore>
0.0043222 

> <ConfOneFourInteractionScore>
-0.949633 

> <ConfScore>
0.327311 

> <ConfScorePBest>
0.00461551 

> <ConfTolerance>
0.411215 

> <RosettaParamsInstructions>
M  ROOT 3
M  POLY_N_BB 3
M  POLY_CA_BB 4
M  POLY_C_BB 2
M  POLY_O_BB 5
M  POLY_IGNORE 9 10 11 12 13 14 15 16 17 18 
M  POLY_UPPER 6
M  POLY_LOWER 8
M  POLY_CHG 0
M  POLY_PROPERTIES ALPHA_AA D_AA PROTEIN AROMATIC POLYMER 
M  END

$$$$



 32 32  0  0  0  0  0  0  0  0999 V2000
   -1.3637    4.8301   -1.1117 H   0  0  0  1  0  0  0  0  0  0  0  0
    0.1085    4.1030    0.2014 C   0  0  0  1  0  0  0  0  0  0  0  0
   -2.3315    4.0392    0.5314 N   0  0  0  1  0  0  0  0  0  0  0  0
   -1.2523    3.9974   -0.4490 C   0  0  0  1  0  0  0  0  0  0  0  0
    0.8395    3.1183    0.2988 O   0  0  0  1  0  0  0  0  0  0  0  0
    0.4935    5.3013    0.6682 N   0  0  0  1  0  0  0  0  0  0  0  0
   -2.8626    3.2250    0.6556 H   0  0  0  1  0  0  0  0  0  0  0  0
   -2.6505    5.1039    1.2728 C   0  0  0  1  0  0  0  0  0  0  0  0
    1.7703    5.5740    1.3111 C   0  0  0  1  0  0  0  0  0  0  0  0
   -3.8640    4.9437    2.1677 C   0  0  0  1  0  0  0  0  0  0  0  0
   -2.0176    6.1466    1.2448 O   0  0  0  1  0  0  0  0  0  0  0  0
   -0.1323    6.0488    0.5686 H   0  0  0  1  0  0  0  0  0  0  0  0
    2.3686    4.6868    1.3077 H   0  0  0  1  0  0  0  0  0  0  0  0
    1.6016    5.8862    2.3206 H   0  0  0  1  0  0  0  0  0  0  0  0
    2.2796    6.3493    0.7778 H   0  0  0  1  0  0  0  0  0  0  0  0
   -4.0651    5.8691    2.6658 H   0  0  0  1  0  0  0  0  0  0  0  0
   -3.6729    4.1819    2.8944 H   0  0  0  1  0  0  0  0  0  0  0  0
   -4.7104    4.6671    1.5743 H   0  0  0  1  0  0  0  0  0  0  0  0
   -6.5450    2.1585   -3.4937 F   0  0  0  1  0  0  0  0  0  0  0  0
   -5.3149    2.2962   -2.9627 C   0  0  0  1  0  0  0  0  0  0  0  0
   -4.2965    2.8647   -3.7117 C   0  0  0  1  0  0  0  0  0  0  0  0
   -3.0329    3.0011   -3.1686 C   0  0  0  1  0  0  0  0  0  0  0  0
   -2.7853    2.5743   -1.8732 C   0  0  0  1  0  0  0  0  0  0  0  0
   -3.8009    2.0075   -1.1265 C   0  0  0  1  0  0  0  0  0  0  0  0
   -5.0683    1.8706   -1.6711 C   0  0  0  1  0  0  0  0  0  0  0  0
   -1.4060    2.7284   -1.2772 C   0  0  0  1  0  0  0  0  0  0  0  0
   -4.4831    3.1886   -4.6822 H   0  0  0  1  0  0  0  0  0  0  0  0
   -2.2677    3.4239   -3.7319 H   0  0  0  1  0  0  0  0  0  0  0  0
   -3.6142    1.6836   -0.1560 H   0  0  0  1  0  0  0  0  0  0  0  0
   -5.8335    1.4478   -1.1078 H   0  0  0  1  0  0  0  0  0  0  0  0
   -1.2108    1.8853   -0.6479 H   0  0  0  1  0  0  0  0  0  0  0  0
   -0.6917    2.7528   -2.0734 H   0  0  0  1  0  0  0  0  0  0  0  0
  1  4  1  0  0  0  0
  2  4  1  0  0  0  0
  2  5  2  0  0  0  0
  2  6  1  0  0  0  0
  3  4  1  0  0  0  0
  3  7  1  0  0  0  0
  3  8  1  0  0  0  0
  4 26  1  0  0  0  0
  6  9  1  0  0  0  0
  6 12  1  0  0  0  0
  8 10  1  0  0  0  0
  8 11  2  0  0  0  0
  9 13  1  0  0  0  0
  9 14  1  0  0  0  0
  9 15  1  0  0  0  0
 10 16  1  0  0  0  0
 10 17  1  0  0  0  0
 10 18  1  0  0  0  0
 19 20  1  0  0  0  0
 20 21  4  0  0  0  0
 20 25  4  0  0  0  0
 21 22  4  0  0  0  0
 21 27  1  0  0  0  0
 22 23  4  0  0  0  0
 22 28  1  0  0  0  0
 23 24  4  0  0  0  0
 23 26  1  0  0  0  0
 24 25  4  0  0  0  0
 24 29  1  0  0  0  0
 25 30  1  0  0  0  0
 26 31  1  0  0  0  0
 26 32  1  0  0  0  0
M  END
> <BCLConfClusterSize>
1

> <ConfClashScore>
0 

> <ConfOneFourInteractionScore>
-0.979134 

> <ConfScore>
0.327539 

> <ConfScorePBest>
0.00458703 

> <ConfTolerance>
0.352547 

> <RosettaParamsInstructions>
M  ROOT 3
M  POLY_N_BB 3
M  POLY_CA_BB 4
M  POLY_C_BB 2
M  POLY_O_BB 5
M  POLY_IGNORE 9 10 11 12 13 14 15 16 17 18 
M  POLY_UPPER 6
M  POLY_LOWER 8
M  POLY_CHG 0
M  POLY_PROPERTIES ALPHA_AA D_AA PROTEIN AROMATIC POLYMER 
M  END

$$$$



 32 32  0  0  0  0  0  0  0  0999 V2000
   -2.0468    3.9605    0.3488 H   0  0  0  1  0  0  0  0  0  0  0  0
   -1.4896    5.2326   -1.2383 C   0  0  0  1  0  0  0  0  0  0  0  0
    0.0153    3.9895    0.2880 N   0  0  0  1  0  0  0  0  0  0  0  0
   -1.2772    3.9797   -0.3943 C   0  0  0  1  0  0  0  0  0  0  0  0
   -2.5532    5.4308   -1.8242 O   0  0  0  1  0  0  0  0  0  0  0  0
   -0.5003    6.1273   -1.2287 N   0  0  0  1  0  0  0  0  0  0  0  0
    0.7619    3.4916   -0.1059 H   0  0  0  1  0  0  0  0  0  0  0  0
    0.2161    4.6593    1.4397 C   0  0  0  1  0  0  0  0  0  0  0  0
   -0.5958    7.4578   -1.8104 C   0  0  0  1  0  0  0  0  0  0  0  0
    1.5744    4.3871    2.0784 C   0  0  0  1  0  0  0  0  0  0  0  0
   -0.5956    5.4239    1.9543 O   0  0  0  1  0  0  0  0  0  0  0  0
    0.3447    5.8724   -0.8028 H   0  0  0  1  0  0  0  0  0  0  0  0
    0.3110    7.6863   -2.3303 H   0  0  0  1  0  0  0  0  0  0  0  0
   -0.7518    8.1763   -1.0331 H   0  0  0  1  0  0  0  0  0  0  0  0
   -1.4170    7.4891   -2.4957 H   0  0  0  1  0  0  0  0  0  0  0  0
    1.4334    3.9705    3.0538 H   0  0  0  1  0  0  0  0  0  0  0  0
    2.1210    5.3035    2.1578 H   0  0  0  1  0  0  0  0  0  0  0  0
    2.1216    3.6962    1.4715 H   0  0  0  1  0  0  0  0  0  0  0  0
   -6.5568    2.1423   -3.4599 F   0  0  0  1  0  0  0  0  0  0  0  0
   -5.3125    2.2993   -2.9691 C   0  0  0  1  0  0  0  0  0  0  0  0
   -4.2950    2.8680   -3.7192 C   0  0  0  1  0  0  0  0  0  0  0  0
   -3.0309    3.0049   -3.1774 C   0  0  0  1  0  0  0  0  0  0  0  0
   -2.7819    2.5786   -1.8821 C   0  0  0  1  0  0  0  0  0  0  0  0
   -3.7966    2.0116   -1.1343 C   0  0  0  1  0  0  0  0  0  0  0  0
   -5.0645    1.8742   -1.6775 C   0  0  0  1  0  0  0  0  0  0  0  0
   -1.4232    2.7075   -1.2350 C   0  0  0  1  0  0  0  0  0  0  0  0
   -4.4827    3.1915   -4.6896 H   0  0  0  1  0  0  0  0  0  0  0  0
   -2.2665    3.4279   -3.7415 H   0  0  0  1  0  0  0  0  0  0  0  0
   -3.6088    1.6881   -0.1639 H   0  0  0  1  0  0  0  0  0  0  0  0
   -5.8289    1.4512   -1.1134 H   0  0  0  1  0  0  0  0  0  0  0  0
   -1.2663    1.8603   -0.6006 H   0  0  0  1  0  0  0  0  0  0  0  0
   -0.6795    2.7204   -2.0042 H   0  0  0  1  0  0  0  0  0  0  0  0
  1  4  1  0  0  0  0
  2  4  1  0  0  0  0
  2  5  2  0  0  0  0
  2  6  1  0  0  0  0
  3  4  1  0  0  0  0
  3  7  1  0  0  0  0
  3  8  1  0  0  0  0
  4 26  1  0  0  0  0
  6  9  1  0  0  0  0
  6 12  1  0  0  0  0
  8 10  1  0  0  0  0
  8 11  2  0  0  0  0
  9 13  1  0  0  0  0
  9 14  1  0  0  0  0
  9 15  1  0  0  0  0
 10 16  1  0  0  0  0
 10 17  1  0  0  0  0
 10 18  1  0  0  0  0
 19 20  1  0  0  0  0
 20 21  4  0  0  0  0
 20 25  4  0  0  0  0
 21 22  4  0  0  0  0
 21 27  1  0  0  0  0
 22 23  4  0  0  0  0
 22 28  1  0  0  0  0
 23 24  4  0  0  0  0
 23 26  1  0  0  0  0
 24 25  4  0  0  0  0
 24 29  1  0  0  0  0
 25 30  1  0  0  0  0
 26 31  1  0  0  0  0
 26 32  1  0  0  0  0
M  END
> <BCLConfClusterSize>
1

> <ConfClashScore>
0 

> <ConfOneFourInteractionScore>
-0.960318 

> <ConfScore>
0.330476 

> <ConfScorePBest>
0.00455855 

> <ConfTolerance>
0.435559 

> <RosettaParamsInstructions>
M  ROOT 3
M  POLY_N_BB 3
M  POLY_CA_BB 4
M  POLY_C_BB 2
M  POLY_O_BB 5
M  POLY_IGNORE 9 10 11 12 13 14 15 16 17 18 
M  POLY_UPPER 6
M  POLY_LOWER 8
M  POLY_CHG 0
M  POLY_PROPERTIES ALPHA_AA D_AA PROTEIN AROMATIC POLYMER 
M  END

$$$$



 32 32  0  0  0  0  0  0  0  0999 V2000
    0.3373    1.6597   -0.8416 H   0  0  0  1  0  0  0  0  0  0  0  0
   -0.6860    0.4561   -2.2168 C   0  0  0  1  0  0  0  0  0  0  0  0
   -1.2354    0.7816    0.1635 N   0  0  0  1  0  0  0  0  0  0  0  0
   -0.6863    1.4242   -1.0456 C   0  0  0  1  0  0  0  0  0  0  0  0
   -0.4288    0.7747   -3.3623 O   0  0  0  1  0  0  0  0  0  0  0  0
   -0.9934   -0.8171   -1.9255 N   0  0  0  1  0  0  0  0  0  0  0  0
   -2.1959    0.8791    0.3320 H   0  0  0  1  0  0  0  0  0  0  0  0
   -0.5218    0.0768    1.0462 C   0  0  0  1  0  0  0  0  0  0  0  0
   -1.0223   -1.8211   -2.9785 C   0  0  0  1  0  0  0  0  0  0  0  0
   -1.3237   -0.6813    2.0862 C   0  0  0  1  0  0  0  0  0  0  0  0
    0.7076    0.0337    1.0318 O   0  0  0  1  0  0  0  0  0  0  0  0
   -1.1989   -1.0714   -1.0016 H   0  0  0  1  0  0  0  0  0  0  0  0
   -1.5765   -2.6732   -2.6444 H   0  0  0  1  0  0  0  0  0  0  0  0
   -0.0220   -2.1173   -3.2162 H   0  0  0  1  0  0  0  0  0  0  0  0
   -1.4898   -1.4110   -3.8493 H   0  0  0  1  0  0  0  0  0  0  0  0
   -2.3626   -0.6444    1.8328 H   0  0  0  1  0  0  0  0  0  0  0  0
   -1.1750   -0.2338    3.0467 H   0  0  0  1  0  0  0  0  0  0  0  0
   -0.9994   -1.7006    2.1129 H   0  0  0  1  0  0  0  0  0  0  0  0
   -6.5436    2.1603   -3.4973 F   0  0  0  1  0  0  0  0  0  0  0  0
   -5.3149    2.2961   -2.9625 C   0  0  0  1  0  0  0  0  0  0  0  0
   -4.2936    2.8641   -3.7080 C   0  0  0  1  0  0  0  0  0  0  0  0
   -3.0315    2.9985   -3.1610 C   0  0  0  1  0  0  0  0  0  0  0  0
   -2.7882    2.5704   -1.8653 C   0  0  0  1  0  0  0  0  0  0  0  0
   -3.8067    2.0042   -1.1220 C   0  0  0  1  0  0  0  0  0  0  0  0
   -5.0726    1.8692   -1.6705 C   0  0  0  1  0  0  0  0  0  0  0  0
   -1.3927    2.7464   -1.3147 C   0  0  0  1  0  0  0  0  0  0  0  0
   -4.4770    3.1890   -4.6788 H   0  0  0  1  0  0  0  0  0  0  0  0
   -2.2642    3.4210   -3.7217 H   0  0  0  1  0  0  0  0  0  0  0  0
   -3.6232    1.6793   -0.1513 H   0  0  0  1  0  0  0  0  0  0  0  0
   -5.8400    1.4467   -1.1098 H   0  0  0  1  0  0  0  0  0  0  0  0
   -0.8151    3.3033   -2.0226 H   0  0  0  1  0  0  0  0  0  0  0  0
   -1.4552    3.2922   -0.3964 H   0  0  0  1  0  0  0  0  0  0  0  0
  1  4  1  0  0  0  0
  2  4  1  0  0  0  0
  2  5  2  0  0  0  0
  2  6  1  0  0  0  0
  3  4  1  0  0  0  0
  3  7  1  0  0  0  0
  3  8  1  0  0  0  0
  4 26  1  0  0  0  0
  6  9  1  0  0  0  0
  6 12  1  0  0  0  0
  8 10  1  0  0  0  0
  8 11  2  0  0  0  0
  9 13  1  0  0  0  0
  9 14  1  0  0  0  0
  9 15  1  0  0  0  0
 10 16  1  0  0  0  0
 10 17  1  0  0  0  0
 10 18  1  0  0  0  0
 19 20  1  0  0  0  0
 20 21  4  0  0  0  0
 20 25  4  0  0  0  0
 21 22  4  0  0  0  0
 21 27  1  0  0  0  0
 22 23  4  0  0  0  0
 22 28  1  0  0  0  0
 23 24  4  0  0  0  0
 23 26  1  0  0  0  0
 24 25  4  0  0  0  0
 24 29  1  0  0  0  0
 25 30  1  0  0  0  0
 26 31  1  0  0  0  0
 26 32  1  0  0  0  0
M  END
> <BCLConfClusterSize>
1

> <ConfClashScore>
0 

> <ConfOneFourInteractionScore>
-0.957074 

> <ConfScore>
0.330721 

> <ConfScorePBest>
0.00453007 

> <ConfTolerance>
0.406645 

> <RosettaParamsInstructions>
M  ROOT 3
M  POLY_N_BB 3
M  POLY_CA_BB 4
M  POLY_C_BB 2
M  POLY_O_BB 5
M  POLY_IGNORE 9 10 11 12 13 14 15 16 17 18 
M  POLY_UPPER 6
M  POLY_LOWER 8
M  POLY_CHG 0
M  POLY_PROPERTIES ALPHA_AA D_AA PROTEIN AROMATIC POLYMER 
M  END

$$$$



 32 32  0  0  0  0  0  0  0  0999 V2000
   -1.8136    4.8419   -1.0075 H   0  0  0  1  0  0  0  0  0  0  0  0
    0.0729    4.4875   -0.1489 C   0  0  0  1  0  0  0  0  0  0  0  0
   -2.1237    3.8625    0.7896 N   0  0  0  1  0  0  0  0  0  0  0  0
   -1.3492    4.0637   -0.4387 C   0  0  0  1  0  0  0  0  0  0  0  0
    0.3623    5.0433    0.9099 O   0  0  0  1  0  0  0  0  0  0  0  0
    1.0032    4.2404   -1.0754 N   0  0  0  1  0  0  0  0  0  0  0  0
   -1.9013    3.1051    1.3703 H   0  0  0  1  0  0  0  0  0  0  0  0
   -3.1200    4.6739    1.1440 C   0  0  0  1  0  0  0  0  0  0  0  0
    2.3723    4.7173   -0.9490 C   0  0  0  1  0  0  0  0  0  0  0  0
   -3.6296    4.5347    2.5750 C   0  0  0  1  0  0  0  0  0  0  0  0
   -3.5582    5.5465    0.3960 O   0  0  0  1  0  0  0  0  0  0  0  0
    0.7550    3.7199   -1.8678 H   0  0  0  1  0  0  0  0  0  0  0  0
    2.3997    5.5503   -0.2780 H   0  0  0  1  0  0  0  0  0  0  0  0
    2.7340    5.0209   -1.9091 H   0  0  0  1  0  0  0  0  0  0  0  0
    2.9896    3.9314   -0.5668 H   0  0  0  1  0  0  0  0  0  0  0  0
   -2.8722    4.8602    3.2571 H   0  0  0  1  0  0  0  0  0  0  0  0
   -3.8686    3.5101    2.7702 H   0  0  0  1  0  0  0  0  0  0  0  0
   -4.5055    5.1361    2.7016 H   0  0  0  1  0  0  0  0  0  0  0  0
   -6.5494    2.1770   -3.4874 F   0  0  0  1  0  0  0  0  0  0  0  0
   -5.3162    2.3018   -2.9604 C   0  0  0  1  0  0  0  0  0  0  0  0
   -4.2954    2.8638   -3.7112 C   0  0  0  1  0  0  0  0  0  0  0  0
   -3.0287    2.9870   -3.1723 C   0  0  0  1  0  0  0  0  0  0  0  0
   -2.7803    2.5535   -1.8793 C   0  0  0  1  0  0  0  0  0  0  0  0
   -3.7982    1.9932   -1.1308 C   0  0  0  1  0  0  0  0  0  0  0  0
   -5.0687    1.8695   -1.6712 C   0  0  0  1  0  0  0  0  0  0  0  0
   -1.4202    2.7860   -1.2648 C   0  0  0  1  0  0  0  0  0  0  0  0
   -4.4827    3.1927   -4.6799 H   0  0  0  1  0  0  0  0  0  0  0  0
   -2.2619    3.4049   -3.7369 H   0  0  0  1  0  0  0  0  0  0  0  0
   -3.6109    1.6643   -0.1621 H   0  0  0  1  0  0  0  0  0  0  0  0
   -5.8356    1.4516   -1.1066 H   0  0  0  1  0  0  0  0  0  0  0  0
   -1.1869    1.9567   -0.6302 H   0  0  0  1  0  0  0  0  0  0  0  0
   -0.6973    2.8484   -2.0512 H   0  0  0  1  0  0  0  0  0  0  0  0
  1  4  1  0  0  0  0
  2  4  1  0  0  0  0
  2  5  2  0  0  0  0
  2  6  1  0  0  0  0
  3  4  1  0  0  0  0
  3  7  1  0  0  0  0
  3  8  1  0  0  0  0
  4 26  1  0  0  0  0
  6  9  1  0  0  0  0
  6 12  1  0  0  0  0
  8 10  1  0  0  0  0
  8 11  2  0  0  0  0
  9 13  1  0  0  0  0
  9 14  1  0  0  0  0
  9 15  1  0  0  0  0
 10 16  1  0  0  0  0
 10 17  1  0  0  0  0
 10 18  1  0  0  0  0
 19 20  1  0  0  0  0
 20 21  4  0  0  0  0
 20 25  4  0  0  0  0
 21 22  4  0  0  0  0
 21 27  1  0  0  0  0
 22 23  4  0  0  0  0
 22 28  1  0  0  0  0
 23 24  4  0  0  0  0
 23 26  1  0  0  0  0
 24 25  4  0  0  0  0
 24 29  1  0  0  0  0
 25 30  1  0  0  0  0
 26 31  1  0  0  0  0
 26 32  1  0  0  0  0
M  END
> <BCLConfClusterSize>
1

> <ConfClashScore>
0 

> <ConfOneFourInteractionScore>
-0.95498 

> <ConfScore>
0.337721 

> <ConfScorePBest>
0.00450159 

> <ConfTolerance>
0.58536 

> <RosettaParamsInstructions>
M  ROOT 3
M  POLY_N_BB 3
M  POLY_CA_BB 4
M  POLY_C_BB 2
M  POLY_O_BB 5
M  POLY_IGNORE 9 10 11 12 13 14 15 16 17 18 
M  POLY_UPPER 6
M  POLY_LOWER 8
M  POLY_CHG 0
M  POLY_PROPERTIES ALPHA_AA D_AA PROTEIN AROMATIC POLYMER 
M  END

$$$$



 32 32  0  0  0  0  0  0  0  0999 V2000
   -1.4394    4.8277   -1.5107 H   0  0  0  1  0  0  0  0  0  0  0  0
    0.3441    4.3640   -0.5006 C   0  0  0  1  0  0  0  0  0  0  0  0
   -1.9344    4.3957    0.4395 N   0  0  0  1  0  0  0  0  0  0  0  0
   -1.1349    4.1403   -0.7494 C   0  0  0  1  0  0  0  0  0  0  0  0
    0.8632    4.0610    0.5705 O   0  0  0  1  0  0  0  0  0  0  0  0
    1.0310    4.9072   -1.5180 N   0  0  0  1  0  0  0  0  0  0  0  0
   -2.5354    3.6934    0.7651 H   0  0  0  1  0  0  0  0  0  0  0  0
   -1.8776    5.5523    1.1015 C   0  0  0  1  0  0  0  0  0  0  0  0
    2.4690    5.1225   -1.4579 C   0  0  0  1  0  0  0  0  0  0  0  0
   -2.6458    5.6005    2.4185 C   0  0  0  1  0  0  0  0  0  0  0  0
   -1.2559    6.5208    0.6950 O   0  0  0  1  0  0  0  0  0  0  0  0
    0.5473    5.1679   -2.3295 H   0  0  0  1  0  0  0  0  0  0  0  0
    2.9767    4.2307   -1.7609 H   0  0  0  1  0  0  0  0  0  0  0  0
    2.7507    5.3701   -0.4557 H   0  0  0  1  0  0  0  0  0  0  0  0
    2.7369    5.9252   -2.1128 H   0  0  0  1  0  0  0  0  0  0  0  0
   -2.7821    4.6061    2.7891 H   0  0  0  1  0  0  0  0  0  0  0  0
   -3.6010    6.0550    2.2576 H   0  0  0  1  0  0  0  0  0  0  0  0
   -2.0931    6.1744    3.1327 H   0  0  0  1  0  0  0  0  0  0  0  0
   -6.5450    2.1585   -3.4937 F   0  0  0  1  0  0  0  0  0  0  0  0
   -5.3149    2.2962   -2.9627 C   0  0  0  1  0  0  0  0  0  0  0  0
   -4.2965    2.8647   -3.7117 C   0  0  0  1  0  0  0  0  0  0  0  0
   -3.0329    3.0011   -3.1686 C   0  0  0  1  0  0  0  0  0  0  0  0
   -2.7853    2.5743   -1.8732 C   0  0  0  1  0  0  0  0  0  0  0  0
   -3.8009    2.0075   -1.1265 C   0  0  0  1  0  0  0  0  0  0  0  0
   -5.0683    1.8706   -1.6711 C   0  0  0  1  0  0  0  0  0  0  0  0
   -1.4060    2.7284   -1.2772 C   0  0  0  1  0  0  0  0  0  0  0  0
   -4.4831    3.1886   -4.6822 H   0  0  0  1  0  0  0  0  0  0  0  0
   -2.2677    3.4239   -3.7319 H   0  0  0  1  0  0  0  0  0  0  0  0
   -3.6142    1.6836   -0.1560 H   0  0  0  1  0  0  0  0  0  0  0  0
   -5.8335    1.4478   -1.1078 H   0  0  0  1  0  0  0  0  0  0  0  0
   -1.3060    2.0369   -0.4668 H   0  0  0  1  0  0  0  0  0  0  0  0
   -0.6817    2.5019   -2.0315 H   0  0  0  1  0  0  0  0  0  0  0  0
  1  4  1  0  0  0  0
  2  4  1  0  0  0  0
  2  5  2  0  0  0  0
  2  6  1  0  0  0  0
  3  4  1  0  0  0  0
  3  7  1  0  0  0  0
  3  8  1  0  0  0  0
  4 26  1  0  0  0  0
  6  9  1  0  0  0  0
  6 12  1  0  0  0  0
  8 10  1  0  0  0  0
  8 11  2  0  0  0  0
  9 13  1  0  0  0  0
  9 14  1  0  0  0  0
  9 15  1  0  0  0  0
 10 16  1  0  0  0  0
 10 17  1  0  0  0  0
 10 18  1  0  0  0  0
 19 20  1  0  0  0  0
 20 21  4  0  0  0  0
 20 25  4  0  0  0  0
 21 22  4  0  0  0  0
 21 27  1  0  0  0  0
 22 23  4  0  0  0  0
 22 28  1  0  0  0  0
 23 24  4  0  0  0  0
 23 26  1  0  0  0  0
 24 25  4  0  0  0  0
 24 29  1  0  0  0  0
 25 30  1  0  0  0  0
 26 31  1  0  0  0  0
 26 32  1  0  0  0  0
M  END
> <BCLConfClusterSize>
1

> <ConfClashScore>
0 

> <ConfOneFourInteractionScore>
-0.978127 

> <ConfScore>
0.340032 

> <ConfScorePBest>
0.00447311 

> <ConfTolerance>
0.476625 

> <RosettaParamsInstructions>
M  ROOT 3
M  POLY_N_BB 3
M  POLY_CA_BB 4
M  POLY_C_BB 2
M  POLY_O_BB 5
M  POLY_IGNORE 9 10 11 12 13 14 15 16 17 18 
M  POLY_UPPER 6
M  POLY_LOWER 8
M  POLY_CHG 0
M  POLY_PROPERTIES ALPHA_AA D_AA PROTEIN AROMATIC POLYMER 
M  END

$$$$



 32 32  0  0  0  0  0  0  0  0999 V2000
   -0.4147    3.8248    0.2246 H   0  0  0  1  0  0  0  0  0  0  0  0
   -2.4094    4.5009    0.2167 C   0  0  0  1  0  0  0  0  0  0  0  0
   -0.6558    5.0222   -1.4469 N   0  0  0  1  0  0  0  0  0  0  0  0
   -1.1687    4.0186   -0.5094 C   0  0  0  1  0  0  0  0  0  0  0  0
   -2.7442    4.0050    1.2893 O   0  0  0  1  0  0  0  0  0  0  0  0
   -3.1252    5.4794   -0.3447 N   0  0  0  1  0  0  0  0  0  0  0  0
   -0.6882    4.8078   -2.4026 H   0  0  0  1  0  0  0  0  0  0  0  0
   -0.1475    6.2070   -1.0966 C   0  0  0  1  0  0  0  0  0  0  0  0
   -4.3805    5.9483    0.2230 C   0  0  0  1  0  0  0  0  0  0  0  0
    0.6211    6.9784   -2.1670 C   0  0  0  1  0  0  0  0  0  0  0  0
   -0.2111    6.6372    0.0521 O   0  0  0  1  0  0  0  0  0  0  0  0
   -2.7935    5.8957   -1.1675 H   0  0  0  1  0  0  0  0  0  0  0  0
   -4.3475    5.8550    1.2885 H   0  0  0  1  0  0  0  0  0  0  0  0
   -5.1873    5.3601   -0.1615 H   0  0  0  1  0  0  0  0  0  0  0  0
   -4.5294    6.9746   -0.0404 H   0  0  0  1  0  0  0  0  0  0  0  0
    0.9241    6.3068   -2.9430 H   0  0  0  1  0  0  0  0  0  0  0  0
    1.4863    7.4302   -1.7287 H   0  0  0  1  0  0  0  0  0  0  0  0
   -0.0086    7.7388   -2.5796 H   0  0  0  1  0  0  0  0  0  0  0  0
   -6.5556    2.1442   -3.4638 F   0  0  0  1  0  0  0  0  0  0  0  0
   -5.3127    2.2992   -2.9689 C   0  0  0  1  0  0  0  0  0  0  0  0
   -4.2921    2.8673   -3.7153 C   0  0  0  1  0  0  0  0  0  0  0  0
   -3.0296    3.0022   -3.1693 C   0  0  0  1  0  0  0  0  0  0  0  0
   -2.7852    2.5745   -1.8736 C   0  0  0  1  0  0  0  0  0  0  0  0
   -3.8029    2.0080   -1.1295 C   0  0  0  1  0  0  0  0  0  0  0  0
   -5.0693    1.8726   -1.6769 C   0  0  0  1  0  0  0  0  0  0  0  0
   -1.4071    2.7271   -1.2744 C   0  0  0  1  0  0  0  0  0  0  0  0
   -4.4763    3.1919   -4.6860 H   0  0  0  1  0  0  0  0  0  0  0  0
   -2.2628    3.4248   -3.7307 H   0  0  0  1  0  0  0  0  0  0  0  0
   -3.6187    1.6834   -0.1588 H   0  0  0  1  0  0  0  0  0  0  0  0
   -5.8360    1.4501   -1.1156 H   0  0  0  1  0  0  0  0  0  0  0  0
   -1.2475    1.9106   -0.6015 H   0  0  0  1  0  0  0  0  0  0  0  0
   -0.6938    2.6785   -2.0705 H   0  0  0  1  0  0  0  0  0  0  0  0
  1  4  1  0  0  0  0
  2  4  1  0  0  0  0
  2  5  2  0  0  0  0
  2  6  1  0  0  0  0
  3  4  1  0  0  0  0
  3  7  1  0  0  0  0
  3  8  1  0  0  0  0
  4 26  1  0  0  0  0
  6  9  1  0  0  0  0
  6 12  1  0  0  0  0
  8 10  1  0  0  0  0
  8 11  2  0  0  0  0
  9 13  1  0  0  0  0
  9 14  1  0  0  0  0
  9 15  1  0  0  0  0
 10 16  1  0  0  0  0
 10 17  1  0  0  0  0
 10 18  1  0  0  0  0
 19 20  1  0  0  0  0
 20 21  4  0  0  0  0
 20 25  4  0  0  0  0
 21 22  4  0  0  0  0
 21 27  1  0  0  0  0
 22 23  4  0  0  0  0
 22 28  1  0  0  0  0
 23 24  4  0  0  0  0
 23 26  1  0  0  0  0
 24 25  4  0  0  0  0
 24 29  1  0  0  0  0
 25 30  1  0  0  0  0
 26 31  1  0  0  0  0
 26 32  1  0  0  0  0
M  END
> <BCLConfClusterSize>
1

> <ConfClashScore>
0 

> <ConfOneFourInteractionScore>
-0.942345 

> <ConfScore>
0.345184 

> <ConfScorePBest>
0.00444463 

> <ConfTolerance>
0.450313 

> <RosettaParamsInstructions>
M  ROOT 3
M  POLY_N_BB 3
M  POLY_CA_BB 4
M  POLY_C_BB 2
M  POLY_O_BB 5
M  POLY_IGNORE 9 10 11 12 13 14 15 16 17 18 
M  POLY_UPPER 6
M  POLY_LOWER 8
M  POLY_CHG 0
M  POLY_PROPERTIES ALPHA_AA D_AA PROTEIN AROMATIC POLYMER 
M  END

$$$$



 32 32  0  0  0  0  0  0  0  0999 V2000
   -0.1665    4.0515   -0.2044 H   0  0  0  1  0  0  0  0  0  0  0  0
   -1.8947    3.7749    0.9692 C   0  0  0  1  0  0  0  0  0  0  0  0
   -1.6971    5.1262   -1.0949 N   0  0  0  1  0  0  0  0  0  0  0  0
   -1.2163    3.9393   -0.3784 C   0  0  0  1  0  0  0  0  0  0  0  0
   -2.3877    2.6911    1.2791 O   0  0  0  1  0  0  0  0  0  0  0  0
   -1.8443    4.8161    1.7973 N   0  0  0  1  0  0  0  0  0  0  0  0
   -1.1898    5.4170   -1.8813 H   0  0  0  1  0  0  0  0  0  0  0  0
   -2.7725    5.8390   -0.7565 C   0  0  0  1  0  0  0  0  0  0  0  0
   -2.4344    4.7810    3.1271 C   0  0  0  1  0  0  0  0  0  0  0  0
   -2.8935    7.2006   -1.4126 C   0  0  0  1  0  0  0  0  0  0  0  0
   -3.6210    5.4348    0.0342 O   0  0  0  1  0  0  0  0  0  0  0  0
   -1.3941    5.6346    1.5010 H   0  0  0  1  0  0  0  0  0  0  0  0
   -2.5707    5.7805    3.4838 H   0  0  0  1  0  0  0  0  0  0  0  0
   -1.7844    4.2510    3.7916 H   0  0  0  1  0  0  0  0  0  0  0  0
   -3.3818    4.2857    3.0836 H   0  0  0  1  0  0  0  0  0  0  0  0
   -1.9223    7.5468   -1.6987 H   0  0  0  1  0  0  0  0  0  0  0  0
   -3.3290    7.8918   -0.7215 H   0  0  0  1  0  0  0  0  0  0  0  0
   -3.5146    7.1241   -2.2805 H   0  0  0  1  0  0  0  0  0  0  0  0
   -6.5450    2.1585   -3.4937 F   0  0  0  1  0  0  0  0  0  0  0  0
   -5.3149    2.2962   -2.9627 C   0  0  0  1  0  0  0  0  0  0  0  0
   -4.2965    2.8647   -3.7117 C   0  0  0  1  0  0  0  0  0  0  0  0
   -3.0329    3.0011   -3.1686 C   0  0  0  1  0  0  0  0  0  0  0  0
   -2.7853    2.5743   -1.8732 C   0  0  0  1  0  0  0  0  0  0  0  0
   -3.8009    2.0075   -1.1265 C   0  0  0  1  0  0  0  0  0  0  0  0
   -5.0683    1.8706   -1.6711 C   0  0  0  1  0  0  0  0  0  0  0  0
   -1.4060    2.7284   -1.2772 C   0  0  0  1  0  0  0  0  0  0  0  0
   -4.4831    3.1886   -4.6822 H   0  0  0  1  0  0  0  0  0  0  0  0
   -2.2677    3.4239   -3.7319 H   0  0  0  1  0  0  0  0  0  0  0  0
   -3.6142    1.6836   -0.1560 H   0  0  0  1  0  0  0  0  0  0  0  0
   -5.8335    1.4478   -1.1078 H   0  0  0  1  0  0  0  0  0  0  0  0
   -1.1963    1.8525   -0.6995 H   0  0  0  1  0  0  0  0  0  0  0  0
   -0.7049    2.8017   -2.0821 H   0  0  0  1  0  0  0  0  0  0  0  0
  1  4  1  0  0  0  0
  2  4  1  0  0  0  0
  2  5  2  0  0  0  0
  2  6  1  0  0  0  0
  3  4  1  0  0  0  0
  3  7  1  0  0  0  0
  3  8  1  0  0  0  0
  4 26  1  0  0  0  0
  6  9  1  0  0  0  0
  6 12  1  0  0  0  0
  8 10  1  0  0  0  0
  8 11  2  0  0  0  0
  9 13  1  0  0  0  0
  9 14  1  0  0  0  0
  9 15  1  0  0  0  0
 10 16  1  0  0  0  0
 10 17  1  0  0  0  0
 10 18  1  0  0  0  0
 19 20  1  0  0  0  0
 20 21  4  0  0  0  0
 20 25  4  0  0  0  0
 21 22  4  0  0  0  0
 21 27  1  0  0  0  0
 22 23  4  0  0  0  0
 22 28  1  0  0  0  0
 23 24  4  0  0  0  0
 23 26  1  0  0  0  0
 24 25  4  0  0  0  0
 24 29  1  0  0  0  0
 25 30  1  0  0  0  0
 26 31  1  0  0  0  0
 26 32  1  0  0  0  0
M  END
> <BCLConfClusterSize>
1

> <ConfClashScore>
0 

> <ConfOneFourInteractionScore>
-0.966825 

> <ConfScore>
0.345319 

> <ConfScorePBest>
0.00441614 

> <ConfTolerance>
0.277675 

> <RosettaParamsInstructions>
M  ROOT 3
M  POLY_N_BB 3
M  POLY_CA_BB 4
M  POLY_C_BB 2
M  POLY_O_BB 5
M  POLY_IGNORE 9 10 11 12 13 14 15 16 17 18 
M  POLY_UPPER 6
M  POLY_LOWER 8
M  POLY_CHG 0
M  POLY_PROPERTIES ALPHA_AA D_AA PROTEIN AROMATIC POLYMER 
M  END

$$$$



 32 32  0  0  0  0  0  0  0  0999 V2000
   -0.3153    2.9700   -3.0745 H   0  0  0  1  0  0  0  0  0  0  0  0
   -0.6890    0.9028   -2.8245 C   0  0  0  1  0  0  0  0  0  0  0  0
    0.9609    2.2686   -1.6062 N   0  0  0  1  0  0  0  0  0  0  0  0
   -0.3378    2.2731   -2.2628 C   0  0  0  1  0  0  0  0  0  0  0  0
   -1.2610    0.7625   -3.8901 O   0  0  0  1  0  0  0  0  0  0  0  0
   -0.3600   -0.1884   -2.1274 N   0  0  0  1  0  0  0  0  0  0  0  0
    1.0014    2.4082   -0.6370 H   0  0  0  1  0  0  0  0  0  0  0  0
    2.1000    2.0808   -2.2786 C   0  0  0  1  0  0  0  0  0  0  0  0
   -0.5528   -1.5326   -2.6507 C   0  0  0  1  0  0  0  0  0  0  0  0
    3.3652    2.0762   -1.4430 C   0  0  0  1  0  0  0  0  0  0  0  0
    2.1395    1.9202   -3.4978 O   0  0  0  1  0  0  0  0  0  0  0  0
    0.0244   -0.0799   -1.2325 H   0  0  0  1  0  0  0  0  0  0  0  0
    0.2129   -2.1767   -2.2716 H   0  0  0  1  0  0  0  0  0  0  0  0
   -0.5024   -1.5097   -3.7193 H   0  0  0  1  0  0  0  0  0  0  0  0
   -1.5105   -1.8998   -2.3461 H   0  0  0  1  0  0  0  0  0  0  0  0
    3.1080    2.1179   -0.4052 H   0  0  0  1  0  0  0  0  0  0  0  0
    3.9629    2.9268   -1.6964 H   0  0  0  1  0  0  0  0  0  0  0  0
    3.9177    1.1808   -1.6376 H   0  0  0  1  0  0  0  0  0  0  0  0
   -6.5450    2.1585   -3.4937 F   0  0  0  1  0  0  0  0  0  0  0  0
   -5.3149    2.2962   -2.9627 C   0  0  0  1  0  0  0  0  0  0  0  0
   -4.2965    2.8647   -3.7117 C   0  0  0  1  0  0  0  0  0  0  0  0
   -3.0329    3.0011   -3.1686 C   0  0  0  1  0  0  0  0  0  0  0  0
   -2.7853    2.5743   -1.8732 C   0  0  0  1  0  0  0  0  0  0  0  0
   -3.8009    2.0075   -1.1265 C   0  0  0  1  0  0  0  0  0  0  0  0
   -5.0683    1.8706   -1.6711 C   0  0  0  1  0  0  0  0  0  0  0  0
   -1.4060    2.7284   -1.2772 C   0  0  0  1  0  0  0  0  0  0  0  0
   -4.4831    3.1886   -4.6822 H   0  0  0  1  0  0  0  0  0  0  0  0
   -2.2677    3.4239   -3.7319 H   0  0  0  1  0  0  0  0  0  0  0  0
   -3.6142    1.6836   -0.1560 H   0  0  0  1  0  0  0  0  0  0  0  0
   -5.8335    1.4478   -1.1078 H   0  0  0  1  0  0  0  0  0  0  0  0
   -1.2423    3.7572   -1.0329 H   0  0  0  1  0  0  0  0  0  0  0  0
   -1.3394    2.1355   -0.3890 H   0  0  0  1  0  0  0  0  0  0  0  0
  1  4  1  0  0  0  0
  2  4  1  0  0  0  0
  2  5  2  0  0  0  0
  2  6  1  0  0  0  0
  3  4  1  0  0  0  0
  3  7  1  0  0  0  0
  3  8  1  0  0  0  0
  4 26  1  0  0  0  0
  6  9  1  0  0  0  0
  6 12  1  0  0  0  0
  8 10  1  0  0  0  0
  8 11  2  0  0  0  0
  9 13  1  0  0  0  0
  9 14  1  0  0  0  0
  9 15  1  0  0  0  0
 10 16  1  0  0  0  0
 10 17  1  0  0  0  0
 10 18  1  0  0  0  0
 19 20  1  0  0  0  0
 20 21  4  0  0  0  0
 20 25  4  0  0  0  0
 21 22  4  0  0  0  0
 21 27  1  0  0  0  0
 22 23  4  0  0  0  0
 22 28  1  0  0  0  0
 23 24  4  0  0  0  0
 23 26  1  0  0  0  0
 24 25  4  0  0  0  0
 24 29  1  0  0  0  0
 25 30  1  0  0  0  0
 26 31  1  0  0  0  0
 26 32  1  0  0  0  0
M  END
> <BCLConfClusterSize>
1

> <ConfClashScore>
0 

> <ConfOneFourInteractionScore>
-0.960318 

> <ConfScore>
0.348651 

> <ConfScorePBest>
0.00438766 

> <ConfTolerance>
0.522466 

> <RosettaParamsInstructions>
M  ROOT 3
M  POLY_N_BB 3
M  POLY_CA_BB 4
M  POLY_C_BB 2
M  POLY_O_BB 5
M  POLY_IGNORE 9 10 11 12 13 14 15 16 17 18 
M  POLY_UPPER 6
M  POLY_LOWER 8
M  POLY_CHG 0
M  POLY_PROPERTIES ALPHA_AA D_AA PROTEIN AROMATIC POLYMER 
M  END

$$$$



 32 32  0  0  0  0  0  0  0  0999 V2000
    0.5864    2.0801   -1.5166 H   0  0  0  1  0  0  0  0  0  0  0  0
   -0.0810    2.6511   -3.4218 C   0  0  0  1  0  0  0  0  0  0  0  0
   -0.6744    0.5871   -2.1497 N   0  0  0  1  0  0  0  0  0  0  0  0
   -0.3224    1.9972   -2.0752 C   0  0  0  1  0  0  0  0  0  0  0  0
   -0.3143    3.8455   -3.6025 O   0  0  0  1  0  0  0  0  0  0  0  0
    0.3969    1.8459   -4.3838 N   0  0  0  1  0  0  0  0  0  0  0  0
   -0.3302   -0.0232   -1.4645 H   0  0  0  1  0  0  0  0  0  0  0  0
   -1.4582    0.0907   -3.1294 C   0  0  0  1  0  0  0  0  0  0  0  0
    0.9085    2.4119   -5.6230 C   0  0  0  1  0  0  0  0  0  0  0  0
   -1.8883   -1.3600   -3.0320 C   0  0  0  1  0  0  0  0  0  0  0  0
   -1.8147    0.7924   -4.0749 O   0  0  0  1  0  0  0  0  0  0  0  0
    0.4013    0.8749   -4.2512 H   0  0  0  1  0  0  0  0  0  0  0  0
    0.2773    3.2176   -5.9350 H   0  0  0  1  0  0  0  0  0  0  0  0
    0.9229    1.6565   -6.3806 H   0  0  0  1  0  0  0  0  0  0  0  0
    1.9014    2.7779   -5.4645 H   0  0  0  1  0  0  0  0  0  0  0  0
   -1.9537   -1.7799   -4.0140 H   0  0  0  1  0  0  0  0  0  0  0  0
   -2.8446   -1.4170   -2.5555 H   0  0  0  1  0  0  0  0  0  0  0  0
   -1.1699   -1.9070   -2.4577 H   0  0  0  1  0  0  0  0  0  0  0  0
   -6.5450    2.1585   -3.4937 F   0  0  0  1  0  0  0  0  0  0  0  0
   -5.3149    2.2962   -2.9627 C   0  0  0  1  0  0  0  0  0  0  0  0
   -4.2965    2.8647   -3.7117 C   0  0  0  1  0  0  0  0  0  0  0  0
   -3.0329    3.0011   -3.1686 C   0  0  0  1  0  0  0  0  0  0  0  0
   -2.7853    2.5743   -1.8732 C   0  0  0  1  0  0  0  0  0  0  0  0
   -3.8009    2.0075   -1.1265 C   0  0  0  1  0  0  0  0  0  0  0  0
   -5.0683    1.8706   -1.6711 C   0  0  0  1  0  0  0  0  0  0  0  0
   -1.4060    2.7284   -1.2772 C   0  0  0  1  0  0  0  0  0  0  0  0
   -4.4831    3.1886   -4.6822 H   0  0  0  1  0  0  0  0  0  0  0  0
   -2.2677    3.4239   -3.7319 H   0  0  0  1  0  0  0  0  0  0  0  0
   -3.6142    1.6836   -0.1560 H   0  0  0  1  0  0  0  0  0  0  0  0
   -5.8335    1.4478   -1.1078 H   0  0  0  1  0  0  0  0  0  0  0  0
   -1.1624    3.7699   -1.2471 H   0  0  0  1  0  0  0  0  0  0  0  0
   -1.4193    2.3358   -0.2819 H   0  0  0  1  0  0  0  0  0  0  0  0
  1  4  1  0  0  0  0
  2  4  1  0  0  0  0
  2  5  2  0  0  0  0
  2  6  1  0  0  0  0
  3  4  1  0  0  0  0
  3  7  1  0  0  0  0
  3  8  1  0  0  0  0
  4 26  1  0  0  0  0
  6  9  1  0  0  0  0
  6 12  1  0  0  0  0
  8 10  1  0  0  0  0
  8 11  2  0  0  0  0
  9 13  1  0  0  0  0
  9 14  1  0  0  0  0
  9 15  1  0  0  0  0
 10 16  1  0  0  0  0
 10 17  1  0  0  0  0
 10 18  1  0  0  0  0
 19 20  1  0  0  0  0
 20 21  4  0  0  0  0
 20 25  4  0  0  0  0
 21 22  4  0  0  0  0
 21 27  1  0  0  0  0
 22 23  4  0  0  0  0
 22 28  1  0  0  0  0
 23 24  4  0  0  0  0
 23 26  1  0  0  0  0
 24 25  4  0  0  0  0
 24 29  1  0  0  0  0
 25 30  1  0  0  0  0
 26 31  1  0  0  0  0
 26 32  1  0  0  0  0
M  END
> <BCLConfClusterSize>
1

> <ConfClashScore>
0 

> <ConfOneFourInteractionScore>
-0.947651 

> <ConfScore>
0.34886 

> <ConfScorePBest>
0.00435918 

> <ConfTolerance>
0.368977 

> <RosettaParamsInstructions>
M  ROOT 3
M  POLY_N_BB 3
M  POLY_CA_BB 4
M  POLY_C_BB 2
M  POLY_O_BB 5
M  POLY_IGNORE 9 10 11 12 13 14 15 16 17 18 
M  POLY_UPPER 6
M  POLY_LOWER 8
M  POLY_CHG 0
M  POLY_PROPERTIES ALPHA_AA D_AA PROTEIN AROMATIC POLYMER 
M  END

$$$$



 32 32  0  0  0  0  0  0  0  0999 V2000
    0.3817    1.6257   -0.9330 H   0  0  0  1  0  0  0  0  0  0  0  0
   -0.1892    1.3905   -2.9689 C   0  0  0  1  0  0  0  0  0  0  0  0
   -1.2299    0.3107   -1.0354 N   0  0  0  1  0  0  0  0  0  0  0  0
   -0.5246    1.5043   -1.4886 C   0  0  0  1  0  0  0  0  0  0  0  0
   -1.0678    0.9859   -3.7292 O   0  0  0  1  0  0  0  0  0  0  0  0
    1.0349    1.7336   -3.3642 N   0  0  0  1  0  0  0  0  0  0  0  0
   -1.8172    0.4000   -0.2560 H   0  0  0  1  0  0  0  0  0  0  0  0
   -1.1356   -0.8933   -1.6019 C   0  0  0  1  0  0  0  0  0  0  0  0
    1.3954    1.8441   -4.7698 C   0  0  0  1  0  0  0  0  0  0  0  0
   -2.0420   -1.9645   -1.0272 C   0  0  0  1  0  0  0  0  0  0  0  0
   -0.3747   -1.1357   -2.5242 O   0  0  0  1  0  0  0  0  0  0  0  0
    1.7168    1.9183   -2.6851 H   0  0  0  1  0  0  0  0  0  0  0  0
    0.9734    1.0241   -5.3123 H   0  0  0  1  0  0  0  0  0  0  0  0
    2.4608    1.8252   -4.8670 H   0  0  0  1  0  0  0  0  0  0  0  0
    1.0171    2.7643   -5.1635 H   0  0  0  1  0  0  0  0  0  0  0  0
   -2.9190   -1.5083   -0.6178 H   0  0  0  1  0  0  0  0  0  0  0  0
   -1.5229   -2.4945   -0.2561 H   0  0  0  1  0  0  0  0  0  0  0  0
   -2.3235   -2.6465   -1.8021 H   0  0  0  1  0  0  0  0  0  0  0  0
   -6.5556    2.1442   -3.4638 F   0  0  0  1  0  0  0  0  0  0  0  0
   -5.3127    2.2992   -2.9689 C   0  0  0  1  0  0  0  0  0  0  0  0
   -4.2921    2.8673   -3.7153 C   0  0  0  1  0  0  0  0  0  0  0  0
   -3.0296    3.0022   -3.1693 C   0  0  0  1  0  0  0  0  0  0  0  0
   -2.7852    2.5745   -1.8736 C   0  0  0  1  0  0  0  0  0  0  0  0
   -3.8029    2.0080   -1.1295 C   0  0  0  1  0  0  0  0  0  0  0  0
   -5.0693    1.8726   -1.6769 C   0  0  0  1  0  0  0  0  0  0  0  0
   -1.4071    2.7271   -1.2744 C   0  0  0  1  0  0  0  0  0  0  0  0
   -4.4763    3.1919   -4.6860 H   0  0  0  1  0  0  0  0  0  0  0  0
   -2.2628    3.4248   -3.7307 H   0  0  0  1  0  0  0  0  0  0  0  0
   -3.6187    1.6834   -0.1588 H   0  0  0  1  0  0  0  0  0  0  0  0
   -5.8360    1.4501   -1.1156 H   0  0  0  1  0  0  0  0  0  0  0  0
   -0.9317    3.5733   -1.7247 H   0  0  0  1  0  0  0  0  0  0  0  0
   -1.5096    2.8929   -0.2223 H   0  0  0  1  0  0  0  0  0  0  0  0
  1  4  1  0  0  0  0
  2  4  1  0  0  0  0
  2  5  2  0  0  0  0
  2  6  1  0  0  0  0
  3  4  1  0  0  0  0
  3  7  1  0  0  0  0
  3  8  1  0  0  0  0
  4 26  1  0  0  0  0
  6  9  1  0  0  0  0
  6 12  1  0  0  0  0
  8 10  1  0  0  0  0
  8 11  2  0  0  0  0
  9 13  1  0  0  0  0
  9 14  1  0  0  0  0
  9 15  1  0  0  0  0
 10 16  1  0  0  0  0
 10 17  1  0  0  0  0
 10 18  1  0  0  0  0
 19 20  1  0  0  0  0
 20 21  4  0  0  0  0
 20 25  4  0  0  0  0
 21 22  4  0  0  0  0
 21 27  1  0  0  0  0
 22 23  4  0  0  0  0
 22 28  1  0  0  0  0
 23 24  4  0  0  0  0
 23 26  1  0  0  0  0
 24 25  4  0  0  0  0
 24 29  1  0  0  0  0
 25 30  1  0  0  0  0
 26 31  1  0  0  0  0
 26 32  1  0  0  0  0
M  END
> <BCLConfClusterSize>
1

> <ConfClashScore>
0 

> <ConfOneFourInteractionScore>
-0.969045 

> <ConfScore>
0.3511 

> <ConfScorePBest>
0.0043307 

> <ConfTolerance>
0.440652 

> <RosettaParamsInstructions>
M  ROOT 3
M  POLY_N_BB 3
M  POLY_CA_BB 4
M  POLY_C_BB 2
M  POLY_O_BB 5
M  POLY_IGNORE 9 10 11 12 13 14 15 16 17 18 
M  POLY_UPPER 6
M  POLY_LOWER 8
M  POLY_CHG 0
M  POLY_PROPERTIES ALPHA_AA D_AA PROTEIN AROMATIC POLYMER 
M  END

$$$$



 32 32  0  0  0  0  0  0  0  0999 V2000
    0.5227    1.8889   -1.3148 H   0  0  0  1  0  0  0  0  0  0  0  0
   -0.2323    1.5601   -3.2443 C   0  0  0  1  0  0  0  0  0  0  0  0
   -0.8221    0.3293   -1.1884 N   0  0  0  1  0  0  0  0  0  0  0  0
   -0.4293    1.6416   -1.7360 C   0  0  0  1  0  0  0  0  0  0  0  0
   -0.9368    0.8381   -3.9486 O   0  0  0  1  0  0  0  0  0  0  0  0
    0.7556    2.3329   -3.6985 N   0  0  0  1  0  0  0  0  0  0  0  0
   -1.0735   -0.3862   -1.8092 H   0  0  0  1  0  0  0  0  0  0  0  0
   -0.8469    0.0821    0.1243 C   0  0  0  1  0  0  0  0  0  0  0  0
    1.1583    2.4365   -5.0931 C   0  0  0  1  0  0  0  0  0  0  0  0
   -1.4161   -1.2706    0.5324 C   0  0  0  1  0  0  0  0  0  0  0  0
   -0.4405    0.8836    0.9647 O   0  0  0  1  0  0  0  0  0  0  0  0
    1.2472    2.8714   -3.0437 H   0  0  0  1  0  0  0  0  0  0  0  0
    0.2904    2.5540   -5.7077 H   0  0  0  1  0  0  0  0  0  0  0  0
    1.6808    1.5480   -5.3802 H   0  0  0  1  0  0  0  0  0  0  0  0
    1.7999    3.2838   -5.2167 H   0  0  0  1  0  0  0  0  0  0  0  0
   -2.0493   -1.6413   -0.2464 H   0  0  0  1  0  0  0  0  0  0  0  0
   -1.9846   -1.1613    1.4322 H   0  0  0  1  0  0  0  0  0  0  0  0
   -0.6142   -1.9594    0.6980 H   0  0  0  1  0  0  0  0  0  0  0  0
   -6.5450    2.1585   -3.4937 F   0  0  0  1  0  0  0  0  0  0  0  0
   -5.3149    2.2962   -2.9627 C   0  0  0  1  0  0  0  0  0  0  0  0
   -4.2965    2.8647   -3.7117 C   0  0  0  1  0  0  0  0  0  0  0  0
   -3.0329    3.0011   -3.1686 C   0  0  0  1  0  0  0  0  0  0  0  0
   -2.7853    2.5743   -1.8732 C   0  0  0  1  0  0  0  0  0  0  0  0
   -3.8009    2.0075   -1.1265 C   0  0  0  1  0  0  0  0  0  0  0  0
   -5.0683    1.8706   -1.6711 C   0  0  0  1  0  0  0  0  0  0  0  0
   -1.4060    2.7284   -1.2772 C   0  0  0  1  0  0  0  0  0  0  0  0
   -4.4831    3.1886   -4.6822 H   0  0  0  1  0  0  0  0  0  0  0  0
   -2.2677    3.4239   -3.7319 H   0  0  0  1  0  0  0  0  0  0  0  0
   -3.6142    1.6836   -0.1560 H   0  0  0  1  0  0  0  0  0  0  0  0
   -5.8335    1.4478   -1.1078 H   0  0  0  1  0  0  0  0  0  0  0  0
   -1.0149    3.6817   -1.5657 H   0  0  0  1  0  0  0  0  0  0  0  0
   -1.4887    2.6840   -0.2113 H   0  0  0  1  0  0  0  0  0  0  0  0
  1  4  1  0  0  0  0
  2  4  1  0  0  0  0
  2  5  2  0  0  0  0
  2  6  1  0  0  0  0
  3  4  1  0  0  0  0
  3  7  1  0  0  0  0
  3  8  1  0  0  0  0
  4 26  1  0  0  0  0
  6  9  1  0  0  0  0
  6 12  1  0  0  0  0
  8 10  1  0  0  0  0
  8 11  2  0  0  0  0
  9 13  1  0  0  0  0
  9 14  1  0  0  0  0
  9 15  1  0  0  0  0
 10 16  1  0  0  0  0
 10 17  1  0  0  0  0
 10 18  1  0  0  0  0
 19 20  1  0  0  0  0
 20 21  4  0  0  0  0
 20 25  4  0  0  0  0
 21 22  4  0  0  0  0
 21 27  1  0  0  0  0
 22 23  4  0  0  0  0
 22 28  1  0  0  0  0
 23 24  4  0  0  0  0
 23 26  1  0  0  0  0
 24 25  4  0  0  0  0
 24 29  1  0  0  0  0
 25 30  1  0  0  0  0
 26 31  1  0  0  0  0
 26 32  1  0  0  0  0
M  END
> <BCLConfClusterSize>
1

> <ConfClashScore>
0 

> <ConfOneFourInteractionScore>
-0.978122 

> <ConfScore>
0.352529 

> <ConfScorePBest>
0.00430222 

> <ConfTolerance>
0.398194 

> <RosettaParamsInstructions>
M  ROOT 3
M  POLY_N_BB 3
M  POLY_CA_BB 4
M  POLY_C_BB 2
M  POLY_O_BB 5
M  POLY_IGNORE 9 10 11 12 13 14 15 16 17 18 
M  POLY_UPPER 6
M  POLY_LOWER 8
M  POLY_CHG 0
M  POLY_PROPERTIES ALPHA_AA D_AA PROTEIN AROMATIC POLYMER 
M  END

$$$$



 32 32  0  0  0  0  0  0  0  0999 V2000
    0.6183    2.0569   -1.5580 H   0  0  0  1  0  0  0  0  0  0  0  0
   -0.0301    2.7549   -3.4148 C   0  0  0  1  0  0  0  0  0  0  0  0
   -0.6920    0.6537   -2.3155 N   0  0  0  1  0  0  0  0  0  0  0  0
   -0.2812    2.0372   -2.1372 C   0  0  0  1  0  0  0  0  0  0  0  0
    0.1233    2.1498   -4.4750 O   0  0  0  1  0  0  0  0  0  0  0  0
    0.0086    4.0819   -3.2856 N   0  0  0  1  0  0  0  0  0  0  0  0
   -0.8611    0.3061   -3.2161 H   0  0  0  1  0  0  0  0  0  0  0  0
   -0.8404   -0.1512   -1.2454 C   0  0  0  1  0  0  0  0  0  0  0  0
    0.2758    5.0170   -4.3683 C   0  0  0  1  0  0  0  0  0  0  0  0
   -1.0810   -1.6045   -1.6046 C   0  0  0  1  0  0  0  0  0  0  0  0
   -0.7913    0.2241   -0.0747 O   0  0  0  1  0  0  0  0  0  0  0  0
   -0.1554    4.4554   -2.3945 H   0  0  0  1  0  0  0  0  0  0  0  0
   -0.0626    4.5987   -5.2932 H   0  0  0  1  0  0  0  0  0  0  0  0
    1.3277    5.2046   -4.4256 H   0  0  0  1  0  0  0  0  0  0  0  0
   -0.2411    5.9351   -4.1820 H   0  0  0  1  0  0  0  0  0  0  0  0
   -2.1329   -1.8006   -1.6144 H   0  0  0  1  0  0  0  0  0  0  0  0
   -0.6079   -2.2338   -0.8800 H   0  0  0  1  0  0  0  0  0  0  0  0
   -0.6721   -1.8047   -2.5729 H   0  0  0  1  0  0  0  0  0  0  0  0
   -6.5450    2.1585   -3.4937 F   0  0  0  1  0  0  0  0  0  0  0  0
   -5.3149    2.2962   -2.9627 C   0  0  0  1  0  0  0  0  0  0  0  0
   -4.2965    2.8647   -3.7117 C   0  0  0  1  0  0  0  0  0  0  0  0
   -3.0329    3.0011   -3.1686 C   0  0  0  1  0  0  0  0  0  0  0  0
   -2.7853    2.5743   -1.8732 C   0  0  0  1  0  0  0  0  0  0  0  0
   -3.8009    2.0075   -1.1265 C   0  0  0  1  0  0  0  0  0  0  0  0
   -5.0683    1.8706   -1.6711 C   0  0  0  1  0  0  0  0  0  0  0  0
   -1.4060    2.7284   -1.2772 C   0  0  0  1  0  0  0  0  0  0  0  0
   -4.4831    3.1886   -4.6822 H   0  0  0  1  0  0  0  0  0  0  0  0
   -2.2677    3.4239   -3.7319 H   0  0  0  1  0  0  0  0  0  0  0  0
   -3.6142    1.6836   -0.1560 H   0  0  0  1  0  0  0  0  0  0  0  0
   -5.8335    1.4478   -1.1078 H   0  0  0  1  0  0  0  0  0  0  0  0
   -1.1829    3.7721   -1.2002 H   0  0  0  1  0  0  0  0  0  0  0  0
   -1.4059    2.2903   -0.3010 H   0  0  0  1  0  0  0  0  0  0  0  0
  1  4  1  0  0  0  0
  2  4  1  0  0  0  0
  2  5  2  0  0  0  0
  2  6  1  0  0  0  0
  3  4  1  0  0  0  0
  3  7  1  0  0  0  0
  3  8  1  0  0  0  0
  4 26  1  0  0  0  0
  6  9  1  0  0  0  0
  6 12  1  0  0  0  0
  8 10  1  0  0  0  0
  8 11  2  0  0  0  0
  9 13  1  0  0  0  0
  9 14  1  0  0  0  0
  9 15  1  0  0  0  0
 10 16  1  0  0  0  0
 10 17  1  0  0  0  0
 10 18  1  0  0  0  0
 19 20  1  0  0  0  0
 20 21  4  0  0  0  0
 20 25  4  0  0  0  0
 21 22  4  0  0  0  0
 21 27  1  0  0  0  0
 22 23  4  0  0  0  0
 22 28  1  0  0  0  0
 23 24  4  0  0  0  0
 23 26  1  0  0  0  0
 24 25  4  0  0  0  0
 24 29  1  0  0  0  0
 25 30  1  0  0  0  0
 26 31  1  0  0  0  0
 26 32  1  0  0  0  0
M  END
> <BCLConfClusterSize>
1

> <ConfClashScore>
0 

> <ConfOneFourInteractionScore>
-0.954417 

> <ConfScore>
0.352935 

> <ConfScorePBest>
0.00427374 

> <ConfTolerance>
0.589931 

> <RosettaParamsInstructions>
M  ROOT 3
M  POLY_N_BB 3
M  POLY_CA_BB 4
M  POLY_C_BB 2
M  POLY_O_BB 5
M  POLY_IGNORE 9 10 11 12 13 14 15 16 17 18 
M  POLY_UPPER 6
M  POLY_LOWER 8
M  POLY_CHG 0
M  POLY_PROPERTIES ALPHA_AA D_AA PROTEIN AROMATIC POLYMER 
M  END

$$$$



 32 32  0  0  0  0  0  0  0  0999 V2000
   -0.1691    3.9869   -0.1353 H   0  0  0  1  0  0  0  0  0  0  0  0
   -1.9857    3.9479    0.9021 C   0  0  0  1  0  0  0  0  0  0  0  0
   -1.4897    5.1934   -1.1627 N   0  0  0  1  0  0  0  0  0  0  0  0
   -1.2060    3.9639   -0.3982 C   0  0  0  1  0  0  0  0  0  0  0  0
   -2.2700    4.9917    1.4837 O   0  0  0  1  0  0  0  0  0  0  0  0
   -2.4163    2.7483    1.3236 N   0  0  0  1  0  0  0  0  0  0  0  0
   -2.1933    5.1745   -1.8446 H   0  0  0  1  0  0  0  0  0  0  0  0
   -0.8199    6.3327   -0.9576 C   0  0  0  1  0  0  0  0  0  0  0  0
   -3.1687    2.5822    2.5581 C   0  0  0  1  0  0  0  0  0  0  0  0
   -1.2622    7.5167   -1.7953 C   0  0  0  1  0  0  0  0  0  0  0  0
    0.0913    6.4319   -0.1525 O   0  0  0  1  0  0  0  0  0  0  0  0
   -2.2171    1.9569    0.7810 H   0  0  0  1  0  0  0  0  0  0  0  0
   -4.1464    2.2100    2.3333 H   0  0  0  1  0  0  0  0  0  0  0  0
   -3.2522    3.5264    3.0544 H   0  0  0  1  0  0  0  0  0  0  0  0
   -2.6607    1.8879    3.1944 H   0  0  0  1  0  0  0  0  0  0  0  0
   -1.6438    7.1686   -2.7324 H   0  0  0  1  0  0  0  0  0  0  0  0
   -0.4270    8.1627   -1.9683 H   0  0  0  1  0  0  0  0  0  0  0  0
   -2.0280    8.0543   -1.2762 H   0  0  0  1  0  0  0  0  0  0  0  0
   -6.5450    2.1585   -3.4937 F   0  0  0  1  0  0  0  0  0  0  0  0
   -5.3149    2.2962   -2.9627 C   0  0  0  1  0  0  0  0  0  0  0  0
   -4.2965    2.8647   -3.7117 C   0  0  0  1  0  0  0  0  0  0  0  0
   -3.0329    3.0011   -3.1686 C   0  0  0  1  0  0  0  0  0  0  0  0
   -2.7853    2.5743   -1.8732 C   0  0  0  1  0  0  0  0  0  0  0  0
   -3.8009    2.0075   -1.1265 C   0  0  0  1  0  0  0  0  0  0  0  0
   -5.0683    1.8706   -1.6711 C   0  0  0  1  0  0  0  0  0  0  0  0
   -1.4060    2.7284   -1.2772 C   0  0  0  1  0  0  0  0  0  0  0  0
   -4.4831    3.1886   -4.6822 H   0  0  0  1  0  0  0  0  0  0  0  0
   -2.2677    3.4239   -3.7319 H   0  0  0  1  0  0  0  0  0  0  0  0
   -3.6142    1.6836   -0.1560 H   0  0  0  1  0  0  0  0  0  0  0  0
   -5.8335    1.4478   -1.1078 H   0  0  0  1  0  0  0  0  0  0  0  0
   -1.2056    1.8630   -0.6806 H   0  0  0  1  0  0  0  0  0  0  0  0
   -0.7024    2.7783   -2.0818 H   0  0  0  1  0  0  0  0  0  0  0  0
  1  4  1  0  0  0  0
  2  4  1  0  0  0  0
  2  5  2  0  0  0  0
  2  6  1  0  0  0  0
  3  4  1  0  0  0  0
  3  7  1  0  0  0  0
  3  8  1  0  0  0  0
  4 26  1  0  0  0  0
  6  9  1  0  0  0  0
  6 12  1  0  0  0  0
  8 10  1  0  0  0  0
  8 11  2  0  0  0  0
  9 13  1  0  0  0  0
  9 14  1  0  0  0  0
  9 15  1  0  0  0  0
 10 16  1  0  0  0  0
 10 17  1  0  0  0  0
 10 18  1  0  0  0  0
 19 20  1  0  0  0  0
 20 21  4  0  0  0  0
 20 25  4  0  0  0  0
 21 22  4  0  0  0  0
 21 27  1  0  0  0  0
 22 23  4  0  0  0  0
 22 28  1  0  0  0  0
 23 24  4  0  0  0  0
 23 26  1  0  0  0  0
 24 25  4  0  0  0  0
 24 29  1  0  0  0  0
 25 30  1  0  0  0  0
 26 31  1  0  0  0  0
 26 32  1  0  0  0  0
M  END
> <BCLConfClusterSize>
1

> <ConfClashScore>
0 

> <ConfOneFourInteractionScore>
-0.949142 

> <ConfScore>
0.353631 

> <ConfScorePBest>
0.00424526 

> <ConfTolerance>
0.587281 

> <RosettaParamsInstructions>
M  ROOT 3
M  POLY_N_BB 3
M  POLY_CA_BB 4
M  POLY_C_BB 2
M  POLY_O_BB 5
M  POLY_IGNORE 9 10 11 12 13 14 15 16 17 18 
M  POLY_UPPER 6
M  POLY_LOWER 8
M  POLY_CHG 0
M  POLY_PROPERTIES ALPHA_AA D_AA PROTEIN AROMATIC POLYMER 
M  END

$$$$



 32 32  0  0  0  0  0  0  0  0999 V2000
   -1.7421    4.7319   -0.7453 H   0  0  0  1  0  0  0  0  0  0  0  0
    0.1305    4.2571    0.0509 C   0  0  0  1  0  0  0  0  0  0  0  0
   -2.0958    3.5190    0.8786 N   0  0  0  1  0  0  0  0  0  0  0  0
   -1.2901    3.8726   -0.2957 C   0  0  0  1  0  0  0  0  0  0  0  0
    0.3617    5.1610    0.8520 O   0  0  0  1  0  0  0  0  0  0  0  0
    1.1244    3.5863   -0.5385 N   0  0  0  1  0  0  0  0  0  0  0  0
   -3.0709    3.4807    0.7889 H   0  0  0  1  0  0  0  0  0  0  0  0
   -1.5416    3.2452    2.0757 C   0  0  0  1  0  0  0  0  0  0  0  0
    2.5222    3.9459   -0.3527 C   0  0  0  1  0  0  0  0  0  0  0  0
   -2.5431    3.2236    3.2234 C   0  0  0  1  0  0  0  0  0  0  0  0
   -0.3542    3.0301    2.2587 O   0  0  0  1  0  0  0  0  0  0  0  0
    0.9043    2.8257   -1.1159 H   0  0  0  1  0  0  0  0  0  0  0  0
    3.0519    3.8071   -1.2720 H   0  0  0  1  0  0  0  0  0  0  0  0
    2.9527    3.3239    0.4040 H   0  0  0  1  0  0  0  0  0  0  0  0
    2.5899    4.9710   -0.0537 H   0  0  0  1  0  0  0  0  0  0  0  0
   -2.0394    2.9680    4.1322 H   0  0  0  1  0  0  0  0  0  0  0  0
   -3.3022    2.4974    3.0203 H   0  0  0  1  0  0  0  0  0  0  0  0
   -2.9910    4.1901    3.3238 H   0  0  0  1  0  0  0  0  0  0  0  0
   -6.5317    2.1748   -3.5266 F   0  0  0  1  0  0  0  0  0  0  0  0
   -5.3173    2.2931   -2.9564 C   0  0  0  1  0  0  0  0  0  0  0  0
   -4.2981    2.8615   -3.7045 C   0  0  0  1  0  0  0  0  0  0  0  0
   -3.0349    2.9974   -3.1604 C   0  0  0  1  0  0  0  0  0  0  0  0
   -2.7884    2.5703   -1.8649 C   0  0  0  1  0  0  0  0  0  0  0  0
   -3.8047    2.0036   -1.1191 C   0  0  0  1  0  0  0  0  0  0  0  0
   -5.0718    1.8672   -1.6646 C   0  0  0  1  0  0  0  0  0  0  0  0
   -1.3919    2.7478   -1.3175 C   0  0  0  1  0  0  0  0  0  0  0  0
   -4.4839    3.1856   -4.6751 H   0  0  0  1  0  0  0  0  0  0  0  0
   -2.2692    3.4201   -3.7231 H   0  0  0  1  0  0  0  0  0  0  0  0
   -3.6189    1.6794   -0.1485 H   0  0  0  1  0  0  0  0  0  0  0  0
   -5.8375    1.4445   -1.1020 H   0  0  0  1  0  0  0  0  0  0  0  0
   -1.0909    1.8340   -0.8493 H   0  0  0  1  0  0  0  0  0  0  0  0
   -0.7323    2.9662   -2.1313 H   0  0  0  1  0  0  0  0  0  0  0  0
  1  4  1  0  0  0  0
  2  4  1  0  0  0  0
  2  5  2  0  0  0  0
  2  6  1  0  0  0  0
  3  4  1  0  0  0  0
  3  7  1  0  0  0  0
  3  8  1  0  0  0  0
  4 26  1  0  0  0  0
  6  9  1  0  0  0  0
  6 12  1  0  0  0  0
  8 10  1  0  0  0  0
  8 11  2  0  0  0  0
  9 13  1  0  0  0  0
  9 14  1  0  0  0  0
  9 15  1  0  0  0  0
 10 16  1  0  0  0  0
 10 17  1  0  0  0  0
 10 18  1  0  0  0  0
 19 20  1  0  0  0  0
 20 21  4  0  0  0  0
 20 25  4  0  0  0  0
 21 22  4  0  0  0  0
 21 27  1  0  0  0  0
 22 23  4  0  0  0  0
 22 28  1  0  0  0  0
 23 24  4  0  0  0  0
 23 26  1  0  0  0  0
 24 25  4  0  0  0  0
 24 29  1  0  0  0  0
 25 30  1  0  0  0  0
 26 31  1  0  0  0  0
 26 32  1  0  0  0  0
M  END
> <BCLConfClusterSize>
1

> <ConfClashScore>
0 

> <ConfOneFourInteractionScore>
-0.923745 

> <ConfScore>
0.355883 

> <ConfScorePBest>
0.00421678 

> <ConfTolerance>
0.545914 

> <RosettaParamsInstructions>
M  ROOT 3
M  POLY_N_BB 3
M  POLY_CA_BB 4
M  POLY_C_BB 2
M  POLY_O_BB 5
M  POLY_IGNORE 9 10 11 12 13 14 15 16 17 18 
M  POLY_UPPER 6
M  POLY_LOWER 8
M  POLY_CHG 0
M  POLY_PROPERTIES ALPHA_AA D_AA PROTEIN AROMATIC POLYMER 
M  END

$$$$



 32 32  0  0  0  0  0  0  0  0999 V2000
    0.3354    1.6815   -0.7395 H   0  0  0  1  0  0  0  0  0  0  0  0
   -0.6575    0.5068   -2.1729 C   0  0  0  1  0  0  0  0  0  0  0  0
   -1.2659    0.7932    0.1997 N   0  0  0  1  0  0  0  0  0  0  0  0
   -0.6791    1.4310   -0.9694 C   0  0  0  1  0  0  0  0  0  0  0  0
   -1.5007   -0.3805   -2.2963 O   0  0  0  1  0  0  0  0  0  0  0  0
    0.2750    0.8015   -3.0892 N   0  0  0  1  0  0  0  0  0  0  0  0
   -1.9655    1.2538    0.7084 H   0  0  0  1  0  0  0  0  0  0  0  0
   -0.8487   -0.4307    0.5846 C   0  0  0  1  0  0  0  0  0  0  0  0
    0.5170   -0.0410   -4.2509 C   0  0  0  1  0  0  0  0  0  0  0  0
   -1.3447   -0.9678    1.9131 C   0  0  0  1  0  0  0  0  0  0  0  0
   -0.0895   -1.0925   -0.1184 O   0  0  0  1  0  0  0  0  0  0  0  0
    0.8127    1.6125   -2.9729 H   0  0  0  1  0  0  0  0  0  0  0  0
    1.2594    0.4134   -4.8732 H   0  0  0  1  0  0  0  0  0  0  0  0
   -0.3916   -0.1540   -4.8046 H   0  0  0  1  0  0  0  0  0  0  0  0
    0.8610   -1.0017   -3.9290 H   0  0  0  1  0  0  0  0  0  0  0  0
   -2.4108   -1.0556    1.8872 H   0  0  0  1  0  0  0  0  0  0  0  0
   -1.0612   -0.2969    2.6969 H   0  0  0  1  0  0  0  0  0  0  0  0
   -0.9121   -1.9298    2.0925 H   0  0  0  1  0  0  0  0  0  0  0  0
   -6.5332    2.1730   -3.5231 F   0  0  0  1  0  0  0  0  0  0  0  0
   -5.3173    2.2932   -2.9566 C   0  0  0  1  0  0  0  0  0  0  0  0
   -4.3009    2.8621   -3.7082 C   0  0  0  1  0  0  0  0  0  0  0  0
   -3.0363    2.9999   -3.1680 C   0  0  0  1  0  0  0  0  0  0  0  0
   -2.7855    2.5741   -1.8729 C   0  0  0  1  0  0  0  0  0  0  0  0
   -3.7989    2.0069   -1.1236 C   0  0  0  1  0  0  0  0  0  0  0  0
   -5.0674    1.8686   -1.6653 C   0  0  0  1  0  0  0  0  0  0  0  0
   -1.4050    2.7298   -1.2800 C   0  0  0  1  0  0  0  0  0  0  0  0
   -4.4900    3.1852   -4.6785 H   0  0  0  1  0  0  0  0  0  0  0  0
   -2.2727    3.4230   -3.7333 H   0  0  0  1  0  0  0  0  0  0  0  0
   -3.6098    1.6838   -0.1533 H   0  0  0  1  0  0  0  0  0  0  0  0
   -5.8310    1.4455   -1.1000 H   0  0  0  1  0  0  0  0  0  0  0  0
   -0.8082    3.2837   -1.9741 H   0  0  0  1  0  0  0  0  0  0  0  0
   -1.4977    3.2822   -0.3683 H   0  0  0  1  0  0  0  0  0  0  0  0
  1  4  1  0  0  0  0
  2  4  1  0  0  0  0
  2  5  2  0  0  0  0
  2  6  1  0  0  0  0
  3  4  1  0  0  0  0
  3  7  1  0  0  0  0
  3  8  1  0  0  0  0
  4 26  1  0  0  0  0
  6  9  1  0  0  0  0
  6 12  1  0  0  0  0
  8 10  1  0  0  0  0
  8 11  2  0  0  0  0
  9 13  1  0  0  0  0
  9 14  1  0  0  0  0
  9 15  1  0  0  0  0
 10 16  1  0  0  0  0
 10 17  1  0  0  0  0
 10 18  1  0  0  0  0
 19 20  1  0  0  0  0
 20 21  4  0  0  0  0
 20 25  4  0  0  0  0
 21 22  4  0  0  0  0
 21 27  1  0  0  0  0
 22 23  4  0  0  0  0
 22 28  1  0  0  0  0
 23 24  4  0  0  0  0
 23 26  1  0  0  0  0
 24 25  4  0  0  0  0
 24 29  1  0  0  0  0
 25 30  1  0  0  0  0
 26 31  1  0  0  0  0
 26 32  1  0  0  0  0
M  END
> <BCLConfClusterSize>
1

> <ConfClashScore>
0 

> <ConfOneFourInteractionScore>
-0.982563 

> <ConfScore>
0.358593 

> <ConfScorePBest>
0.0041883 

> <ConfTolerance>
0.564688 

> <RosettaParamsInstructions>
M  ROOT 3
M  POLY_N_BB 3
M  POLY_CA_BB 4
M  POLY_C_BB 2
M  POLY_O_BB 5
M  POLY_IGNORE 9 10 11 12 13 14 15 16 17 18 
M  POLY_UPPER 6
M  POLY_LOWER 8
M  POLY_CHG 0
M  POLY_PROPERTIES ALPHA_AA D_AA PROTEIN AROMATIC POLYMER 
M  END

$$$$



 32 32  0  0  0  0  0  0  0  0999 V2000
   -1.5031    4.7473   -0.6996 H   0  0  0  1  0  0  0  0  0  0  0  0
   -0.7008    4.6539   -2.6527 C   0  0  0  1  0  0  0  0  0  0  0  0
    0.4654    4.1309   -0.5804 N   0  0  0  1  0  0  0  0  0  0  0  0
   -0.8328    4.1100   -1.2377 C   0  0  0  1  0  0  0  0  0  0  0  0
   -1.5715    5.3701   -3.1452 O   0  0  0  1  0  0  0  0  0  0  0  0
    0.4092    4.3030   -3.3083 N   0  0  0  1  0  0  0  0  0  0  0  0
    1.2454    4.3916   -1.1134 H   0  0  0  1  0  0  0  0  0  0  0  0
    0.6691    3.8054    0.7520 C   0  0  0  1  0  0  0  0  0  0  0  0
    0.5659    4.6435   -4.7144 C   0  0  0  1  0  0  0  0  0  0  0  0
    2.0572    3.8933    1.3214 C   0  0  0  1  0  0  0  0  0  0  0  0
   -0.2881    3.4577    1.4193 O   0  0  0  1  0  0  0  0  0  0  0  0
    1.1193    3.8152   -2.8412 H   0  0  0  1  0  0  0  0  0  0  0  0
   -0.0183    5.5114   -4.9390 H   0  0  0  1  0  0  0  0  0  0  0  0
    0.2346    3.8248   -5.3185 H   0  0  0  1  0  0  0  0  0  0  0  0
    1.5966    4.8447   -4.9197 H   0  0  0  1  0  0  0  0  0  0  0  0
    2.7234    3.2988    0.7318 H   0  0  0  1  0  0  0  0  0  0  0  0
    2.0529    3.5313    2.3283 H   0  0  0  1  0  0  0  0  0  0  0  0
    2.3835    4.9122    1.3096 H   0  0  0  1  0  0  0  0  0  0  0  0
   -6.5463    2.1567   -3.4899 F   0  0  0  1  0  0  0  0  0  0  0  0
   -5.3147    2.2963   -2.9629 C   0  0  0  1  0  0  0  0  0  0  0  0
   -4.2994    2.8654   -3.7156 C   0  0  0  1  0  0  0  0  0  0  0  0
   -3.0342    3.0038   -3.1767 C   0  0  0  1  0  0  0  0  0  0  0  0
   -2.7820    2.5785   -1.8817 C   0  0  0  1  0  0  0  0  0  0  0  0
   -3.7945    2.0111   -1.1313 C   0  0  0  1  0  0  0  0  0  0  0  0
   -5.0635    1.8722   -1.6717 C   0  0  0  1  0  0  0  0  0  0  0  0
   -1.4219    2.7089   -1.2377 C   0  0  0  1  0  0  0  0  0  0  0  0
   -4.4895    3.1882   -4.6858 H   0  0  0  1  0  0  0  0  0  0  0  0
   -2.2714    3.4270   -3.7428 H   0  0  0  1  0  0  0  0  0  0  0  0
   -3.6043    1.6883   -0.1611 H   0  0  0  1  0  0  0  0  0  0  0  0
   -5.8264    1.4489   -1.1056 H   0  0  0  1  0  0  0  0  0  0  0  0
   -1.5058    2.3861   -0.2210 H   0  0  0  1  0  0  0  0  0  0  0  0
   -0.7456    2.0665   -1.7618 H   0  0  0  1  0  0  0  0  0  0  0  0
  1  4  1  0  0  0  0
  2  4  1  0  0  0  0
  2  5  2  0  0  0  0
  2  6  1  0  0  0  0
  3  4  1  0  0  0  0
  3  7  1  0  0  0  0
  3  8  1  0  0  0  0
  4 26  1  0  0  0  0
  6  9  1  0  0  0  0
  6 12  1  0  0  0  0
  8 10  1  0  0  0  0
  8 11  2  0  0  0  0
  9 13  1  0  0  0  0
  9 14  1  0  0  0  0
  9 15  1  0  0  0  0
 10 16  1  0  0  0  0
 10 17  1  0  0  0  0
 10 18  1  0  0  0  0
 19 20  1  0  0  0  0
 20 21  4  0  0  0  0
 20 25  4  0  0  0  0
 21 22  4  0  0  0  0
 21 27  1  0  0  0  0
 22 23  4  0  0  0  0
 22 28  1  0  0  0  0
 23 24  4  0  0  0  0
 23 26  1  0  0  0  0
 24 25  4  0  0  0  0
 24 29  1  0  0  0  0
 25 30  1  0  0  0  0
 26 31  1  0  0  0  0
 26 32  1  0  0  0  0
M  END
> <BCLConfClusterSize>
1

> <ConfClashScore>
0 

> <ConfOneFourInteractionScore>
-0.958472 

> <ConfScore>
0.364054 

> <ConfScorePBest>
0.00415982 

> <ConfTolerance>
0.648943 

> <RosettaParamsInstructions>
M  ROOT 3
M  POLY_N_BB 3
M  POLY_CA_BB 4
M  POLY_C_BB 2
M  POLY_O_BB 5
M  POLY_IGNORE 9 10 11 12 13 14 15 16 17 18 
M  POLY_UPPER 6
M  POLY_LOWER 8
M  POLY_CHG 0
M  POLY_PROPERTIES ALPHA_AA D_AA PROTEIN AROMATIC POLYMER 
M  END

$$$$



 32 32  0  0  0  0  0  0  0  0999 V2000
   -0.0656    1.4263   -2.2697 H   0  0  0  1  0  0  0  0  0  0  0  0
   -1.5906    0.2444   -1.4107 C   0  0  0  1  0  0  0  0  0  0  0  0
    0.2831    1.3208   -0.2344 N   0  0  0  1  0  0  0  0  0  0  0  0
   -0.6318    1.4195   -1.3618 C   0  0  0  1  0  0  0  0  0  0  0  0
   -2.0612   -0.1420   -2.4798 O   0  0  0  1  0  0  0  0  0  0  0  0
   -1.9086   -0.3588   -0.2552 N   0  0  0  1  0  0  0  0  0  0  0  0
    0.3360    2.0671    0.3986 H   0  0  0  1  0  0  0  0  0  0  0  0
    1.0610    0.2375   -0.0303 C   0  0  0  1  0  0  0  0  0  0  0  0
   -2.8466   -1.4696   -0.1904 C   0  0  0  1  0  0  0  0  0  0  0  0
    1.9090    0.1954    1.2261 C   0  0  0  1  0  0  0  0  0  0  0  0
    1.0835   -0.6901   -0.8381 O   0  0  0  1  0  0  0  0  0  0  0  0
   -1.4947   -0.0403    0.5741 H   0  0  0  1  0  0  0  0  0  0  0  0
   -3.6269   -1.3204   -0.9073 H   0  0  0  1  0  0  0  0  0  0  0  0
   -3.2696   -1.5221    0.7910 H   0  0  0  1  0  0  0  0  0  0  0  0
   -2.3331   -2.3829   -0.4074 H   0  0  0  1  0  0  0  0  0  0  0  0
    1.8517    1.1389    1.7275 H   0  0  0  1  0  0  0  0  0  0  0  0
    2.9262   -0.0071    0.9629 H   0  0  0  1  0  0  0  0  0  0  0  0
    1.5476   -0.5754    1.8743 H   0  0  0  1  0  0  0  0  0  0  0  0
   -6.5450    2.1585   -3.4937 F   0  0  0  1  0  0  0  0  0  0  0  0
   -5.3149    2.2962   -2.9627 C   0  0  0  1  0  0  0  0  0  0  0  0
   -4.2965    2.8647   -3.7117 C   0  0  0  1  0  0  0  0  0  0  0  0
   -3.0329    3.0011   -3.1686 C   0  0  0  1  0  0  0  0  0  0  0  0
   -2.7853    2.5743   -1.8732 C   0  0  0  1  0  0  0  0  0  0  0  0
   -3.8009    2.0075   -1.1265 C   0  0  0  1  0  0  0  0  0  0  0  0
   -5.0683    1.8706   -1.6711 C   0  0  0  1  0  0  0  0  0  0  0  0
   -1.4060    2.7284   -1.2772 C   0  0  0  1  0  0  0  0  0  0  0  0
   -4.4831    3.1886   -4.6822 H   0  0  0  1  0  0  0  0  0  0  0  0
   -2.2677    3.4239   -3.7319 H   0  0  0  1  0  0  0  0  0  0  0  0
   -3.6142    1.6836   -0.1560 H   0  0  0  1  0  0  0  0  0  0  0  0
   -5.8335    1.4478   -1.1078 H   0  0  0  1  0  0  0  0  0  0  0  0
   -0.8743    3.4859   -1.8143 H   0  0  0  1  0  0  0  0  0  0  0  0
   -1.4976    3.0161   -0.2506 H   0  0  0  1  0  0  0  0  0  0  0  0
  1  4  1  0  0  0  0
  2  4  1  0  0  0  0
  2  5  2  0  0  0  0
  2  6  1  0  0  0  0
  3  4  1  0  0  0  0
  3  7  1  0  0  0  0
  3  8  1  0  0  0  0
  4 26  1  0  0  0  0
  6  9  1  0  0  0  0
  6 12  1  0  0  0  0
  8 10  1  0  0  0  0
  8 11  2  0  0  0  0
  9 13  1  0  0  0  0
  9 14  1  0  0  0  0
  9 15  1  0  0  0  0
 10 16  1  0  0  0  0
 10 17  1  0  0  0  0
 10 18  1  0  0  0  0
 19 20  1  0  0  0  0
 20 21  4  0  0  0  0
 20 25  4  0  0  0  0
 21 22  4  0  0  0  0
 21 27  1  0  0  0  0
 22 23  4  0  0  0  0
 22 28  1  0  0  0  0
 23 24  4  0  0  0  0
 23 26  1  0  0  0  0
 24 25  4  0  0  0  0
 24 29  1  0  0  0  0
 25 30  1  0  0  0  0
 26 31  1  0  0  0  0
 26 32  1  0  0  0  0
M  END
> <BCLConfClusterSize>
1

> <ConfClashScore>
0 

> <ConfOneFourInteractionScore>
-0.942345 

> <ConfScore>
0.371566 

> <ConfScorePBest>
0.00413134 

> <ConfTolerance>
0.684026 

> <RosettaParamsInstructions>
M  ROOT 3
M  POLY_N_BB 3
M  POLY_CA_BB 4
M  POLY_C_BB 2
M  POLY_O_BB 5
M  POLY_IGNORE 9 10 11 12 13 14 15 16 17 18 
M  POLY_UPPER 6
M  POLY_LOWER 8
M  POLY_CHG 0
M  POLY_PROPERTIES ALPHA_AA D_AA PROTEIN AROMATIC POLYMER 
M  END

$$$$



 32 32  0  0  0  0  0  0  0  0999 V2000
   -1.9064    4.7740   -1.1252 H   0  0  0  1  0  0  0  0  0  0  0  0
   -0.0413    4.6780   -2.0814 C   0  0  0  1  0  0  0  0  0  0  0  0
   -0.4983    4.3555    0.3156 N   0  0  0  1  0  0  0  0  0  0  0  0
   -1.0158    4.1881   -1.0342 C   0  0  0  1  0  0  0  0  0  0  0  0
    0.7018    5.6319   -1.8546 O   0  0  0  1  0  0  0  0  0  0  0  0
   -0.0120    4.0420   -3.2624 N   0  0  0  1  0  0  0  0  0  0  0  0
   -0.4636    3.5486    0.8706 H   0  0  0  1  0  0  0  0  0  0  0  0
   -0.0632    5.4891    0.8866 C   0  0  0  1  0  0  0  0  0  0  0  0
    0.8614    4.4598   -4.3489 C   0  0  0  1  0  0  0  0  0  0  0  0
    0.4765    5.4129    2.2968 C   0  0  0  1  0  0  0  0  0  0  0  0
   -0.1013    6.5602    0.2825 O   0  0  0  1  0  0  0  0  0  0  0  0
   -0.5992    3.2692   -3.3981 H   0  0  0  1  0  0  0  0  0  0  0  0
    0.6569    5.4798   -4.5995 H   0  0  0  1  0  0  0  0  0  0  0  0
    0.6874    3.8409   -5.2042 H   0  0  0  1  0  0  0  0  0  0  0  0
    1.8821    4.3660   -4.0418 H   0  0  0  1  0  0  0  0  0  0  0  0
    1.0103    4.4946    2.4259 H   0  0  0  1  0  0  0  0  0  0  0  0
   -0.3358    5.4537    2.9921 H   0  0  0  1  0  0  0  0  0  0  0  0
    1.1370    6.2366    2.4706 H   0  0  0  1  0  0  0  0  0  0  0  0
   -6.5556    2.1442   -3.4638 F   0  0  0  1  0  0  0  0  0  0  0  0
   -5.3127    2.2992   -2.9689 C   0  0  0  1  0  0  0  0  0  0  0  0
   -4.2921    2.8673   -3.7153 C   0  0  0  1  0  0  0  0  0  0  0  0
   -3.0296    3.0022   -3.1693 C   0  0  0  1  0  0  0  0  0  0  0  0
   -2.7852    2.5745   -1.8736 C   0  0  0  1  0  0  0  0  0  0  0  0
   -3.8029    2.0080   -1.1295 C   0  0  0  1  0  0  0  0  0  0  0  0
   -5.0693    1.8726   -1.6769 C   0  0  0  1  0  0  0  0  0  0  0  0
   -1.4071    2.7271   -1.2744 C   0  0  0  1  0  0  0  0  0  0  0  0
   -4.4763    3.1919   -4.6860 H   0  0  0  1  0  0  0  0  0  0  0  0
   -2.2628    3.4248   -3.7307 H   0  0  0  1  0  0  0  0  0  0  0  0
   -3.6187    1.6834   -0.1588 H   0  0  0  1  0  0  0  0  0  0  0  0
   -5.8360    1.4501   -1.1156 H   0  0  0  1  0  0  0  0  0  0  0  0
   -1.3837    2.2099   -0.3380 H   0  0  0  1  0  0  0  0  0  0  0  0
   -0.6950    2.2891   -1.9422 H   0  0  0  1  0  0  0  0  0  0  0  0
  1  4  1  0  0  0  0
  2  4  1  0  0  0  0
  2  5  2  0  0  0  0
  2  6  1  0  0  0  0
  3  4  1  0  0  0  0
  3  7  1  0  0  0  0
  3  8  1  0  0  0  0
  4 26  1  0  0  0  0
  6  9  1  0  0  0  0
  6 12  1  0  0  0  0
  8 10  1  0  0  0  0
  8 11  2  0  0  0  0
  9 13  1  0  0  0  0
  9 14  1  0  0  0  0
  9 15  1  0  0  0  0
 10 16  1  0  0  0  0
 10 17  1  0  0  0  0
 10 18  1  0  0  0  0
 19 20  1  0  0  0  0
 20 21  4  0  0  0  0
 20 25  4  0  0  0  0
 21 22  4  0  0  0  0
 21 27  1  0  0  0  0
 22 23  4  0  0  0  0
 22 28  1  0  0  0  0
 23 24  4  0  0  0  0
 23 26  1  0  0  0  0
 24 25  4  0  0  0  0
 24 29  1  0  0  0  0
 25 30  1  0  0  0  0
 26 31  1  0  0  0  0
 26 32  1  0  0  0  0
M  END
> <BCLConfClusterSize>
1

> <ConfClashScore>
0 

> <ConfOneFourInteractionScore>
-0.947371 

> <ConfScore>
0.37671 

> <ConfScorePBest>
0.00410286 

> <ConfTolerance>
0.250928 

> <RosettaParamsInstructions>
M  ROOT 3
M  POLY_N_BB 3
M  POLY_CA_BB 4
M  POLY_C_BB 2
M  POLY_O_BB 5
M  POLY_IGNORE 9 10 11 12 13 14 15 16 17 18 
M  POLY_UPPER 6
M  POLY_LOWER 8
M  POLY_CHG 0
M  POLY_PROPERTIES ALPHA_AA D_AA PROTEIN AROMATIC POLYMER 
M  END

$$$$



 32 32  0  0  0  0  0  0  0  0999 V2000
    0.1542    1.6704   -0.3740 H   0  0  0  1  0  0  0  0  0  0  0  0
   -1.0196    0.3046   -1.4631 C   0  0  0  1  0  0  0  0  0  0  0  0
   -1.5820    1.4274    0.7096 N   0  0  0  1  0  0  0  0  0  0  0  0
   -0.8877    1.5200   -0.5660 C   0  0  0  1  0  0  0  0  0  0  0  0
   -0.2931    0.1446   -2.4430 O   0  0  0  1  0  0  0  0  0  0  0  0
   -1.9846   -0.5464   -1.0801 N   0  0  0  1  0  0  0  0  0  0  0  0
   -2.1383    2.1797    1.0010 H   0  0  0  1  0  0  0  0  0  0  0  0
   -1.4836    0.3118    1.5272 C   0  0  0  1  0  0  0  0  0  0  0  0
   -2.1221   -1.8382   -1.7360 C   0  0  0  1  0  0  0  0  0  0  0  0
   -2.3244    0.2413    2.7710 C   0  0  0  1  0  0  0  0  0  0  0  0
   -0.7158   -0.5777    1.2085 O   0  0  0  1  0  0  0  0  0  0  0  0
   -2.5978   -0.2972   -0.3574 H   0  0  0  1  0  0  0  0  0  0  0  0
   -1.3774   -1.9327   -2.4985 H   0  0  0  1  0  0  0  0  0  0  0  0
   -3.0944   -1.9127   -2.1763 H   0  0  0  1  0  0  0  0  0  0  0  0
   -1.9955   -2.6190   -1.0154 H   0  0  0  1  0  0  0  0  0  0  0  0
   -3.3421    0.4642    2.5272 H   0  0  0  1  0  0  0  0  0  0  0  0
   -1.9649    0.9526    3.4849 H   0  0  0  1  0  0  0  0  0  0  0  0
   -2.2647   -0.7430    3.1862 H   0  0  0  1  0  0  0  0  0  0  0  0
   -6.5436    2.1603   -3.4973 F   0  0  0  1  0  0  0  0  0  0  0  0
   -5.3149    2.2961   -2.9625 C   0  0  0  1  0  0  0  0  0  0  0  0
   -4.2936    2.8641   -3.7080 C   0  0  0  1  0  0  0  0  0  0  0  0
   -3.0315    2.9985   -3.1610 C   0  0  0  1  0  0  0  0  0  0  0  0
   -2.7882    2.5704   -1.8653 C   0  0  0  1  0  0  0  0  0  0  0  0
   -3.8067    2.0042   -1.1220 C   0  0  0  1  0  0  0  0  0  0  0  0
   -5.0726    1.8692   -1.6705 C   0  0  0  1  0  0  0  0  0  0  0  0
   -1.3927    2.7464   -1.3147 C   0  0  0  1  0  0  0  0  0  0  0  0
   -4.4770    3.1890   -4.6788 H   0  0  0  1  0  0  0  0  0  0  0  0
   -2.2642    3.4210   -3.7217 H   0  0  0  1  0  0  0  0  0  0  0  0
   -3.6232    1.6793   -0.1513 H   0  0  0  1  0  0  0  0  0  0  0  0
   -5.8400    1.4467   -1.1098 H   0  0  0  1  0  0  0  0  0  0  0  0
   -0.7280    2.9460   -2.1290 H   0  0  0  1  0  0  0  0  0  0  0  0
   -1.3943    3.5790   -0.6426 H   0  0  0  1  0  0  0  0  0  0  0  0
  1  4  1  0  0  0  0
  2  4  1  0  0  0  0
  2  5  2  0  0  0  0
  2  6  1  0  0  0  0
  3  4  1  0  0  0  0
  3  7  1  0  0  0  0
  3  8  1  0  0  0  0
  4 26  1  0  0  0  0
  6  9  1  0  0  0  0
  6 12  1  0  0  0  0
  8 10  1  0  0  0  0
  8 11  2  0  0  0  0
  9 13  1  0  0  0  0
  9 14  1  0  0  0  0
  9 15  1  0  0  0  0
 10 16  1  0  0  0  0
 10 17  1  0  0  0  0
 10 18  1  0  0  0  0
 19 20  1  0  0  0  0
 20 21  4  0  0  0  0
 20 25  4  0  0  0  0
 21 22  4  0  0  0  0
 21 27  1  0  0  0  0
 22 23  4  0  0  0  0
 22 28  1  0  0  0  0
 23 24  4  0  0  0  0
 23 26  1  0  0  0  0
 24 25  4  0  0  0  0
 24 29  1  0  0  0  0
 25 30  1  0  0  0  0
 26 31  1  0  0  0  0
 26 32  1  0  0  0  0
M  END
> <BCLConfClusterSize>
1

> <ConfClashScore>
0 

> <ConfOneFourInteractionScore>
-0.957074 

> <ConfScore>
0.376836 

> <ConfScorePBest>
0.00407438 

> <ConfTolerance>
0.487935 

> <RosettaParamsInstructions>
M  ROOT 3
M  POLY_N_BB 3
M  POLY_CA_BB 4
M  POLY_C_BB 2
M  POLY_O_BB 5
M  POLY_IGNORE 9 10 11 12 13 14 15 16 17 18 
M  POLY_UPPER 6
M  POLY_LOWER 8
M  POLY_CHG 0
M  POLY_PROPERTIES ALPHA_AA D_AA PROTEIN AROMATIC POLYMER 
M  END

$$$$



 32 32  0  0  0  0  0  0  0  0999 V2000
   -1.0962    0.8523   -0.3373 H   0  0  0  1  0  0  0  0  0  0  0  0
    0.8075    1.6506   -0.8064 C   0  0  0  1  0  0  0  0  0  0  0  0
   -0.8007    0.6322   -2.3727 N   0  0  0  1  0  0  0  0  0  0  0  0
   -0.6564    1.3997   -1.1447 C   0  0  0  1  0  0  0  0  0  0  0  0
    1.6019    2.0667   -1.6487 O   0  0  0  1  0  0  0  0  0  0  0  0
    1.1196    1.3773    0.4636 N   0  0  0  1  0  0  0  0  0  0  0  0
   -0.9801    1.1088   -3.2100 H   0  0  0  1  0  0  0  0  0  0  0  0
   -0.6968   -0.7052   -2.3985 C   0  0  0  1  0  0  0  0  0  0  0  0
    2.4846    1.4537    0.9625 C   0  0  0  1  0  0  0  0  0  0  0  0
   -1.0100   -1.3648   -3.7274 C   0  0  0  1  0  0  0  0  0  0  0  0
   -0.3698   -1.3708   -1.4168 O   0  0  0  1  0  0  0  0  0  0  0  0
    0.4044    1.1162    1.0808 H   0  0  0  1  0  0  0  0  0  0  0  0
    3.1491    1.6722    0.1528 H   0  0  0  1  0  0  0  0  0  0  0  0
    2.7559    0.5173    1.4034 H   0  0  0  1  0  0  0  0  0  0  0  0
    2.5524    2.2278    1.6981 H   0  0  0  1  0  0  0  0  0  0  0  0
   -1.8592   -2.0063   -3.6164 H   0  0  0  1  0  0  0  0  0  0  0  0
   -0.1671   -1.9415   -4.0465 H   0  0  0  1  0  0  0  0  0  0  0  0
   -1.2248   -0.6122   -4.4570 H   0  0  0  1  0  0  0  0  0  0  0  0
   -6.5332    2.1730   -3.5231 F   0  0  0  1  0  0  0  0  0  0  0  0
   -5.3173    2.2932   -2.9566 C   0  0  0  1  0  0  0  0  0  0  0  0
   -4.3009    2.8621   -3.7082 C   0  0  0  1  0  0  0  0  0  0  0  0
   -3.0363    2.9999   -3.1680 C   0  0  0  1  0  0  0  0  0  0  0  0
   -2.7855    2.5741   -1.8729 C   0  0  0  1  0  0  0  0  0  0  0  0
   -3.7989    2.0069   -1.1236 C   0  0  0  1  0  0  0  0  0  0  0  0
   -5.0674    1.8686   -1.6653 C   0  0  0  1  0  0  0  0  0  0  0  0
   -1.4050    2.7298   -1.2800 C   0  0  0  1  0  0  0  0  0  0  0  0
   -4.4900    3.1852   -4.6785 H   0  0  0  1  0  0  0  0  0  0  0  0
   -2.2727    3.4230   -3.7333 H   0  0  0  1  0  0  0  0  0  0  0  0
   -3.6098    1.6838   -0.1533 H   0  0  0  1  0  0  0  0  0  0  0  0
   -5.8310    1.4455   -1.1000 H   0  0  0  1  0  0  0  0  0  0  0  0
   -0.8346    3.3790   -1.9109 H   0  0  0  1  0  0  0  0  0  0  0  0
   -1.4991    3.1680   -0.3084 H   0  0  0  1  0  0  0  0  0  0  0  0
  1  4  1  0  0  0  0
  2  4  1  0  0  0  0
  2  5  2  0  0  0  0
  2  6  1  0  0  0  0
  3  4  1  0  0  0  0
  3  7  1  0  0  0  0
  3  8  1  0  0  0  0
  4 26  1  0  0  0  0
  6  9  1  0  0  0  0
  6 12  1  0  0  0  0
  8 10  1  0  0  0  0
  8 11  2  0  0  0  0
  9 13  1  0  0  0  0
  9 14  1  0  0  0  0
  9 15  1  0  0  0  0
 10 16  1  0  0  0  0
 10 17  1  0  0  0  0
 10 18  1  0  0  0  0
 19 20  1  0  0  0  0
 20 21  4  0  0  0  0
 20 25  4  0  0  0  0
 21 22  4  0  0  0  0
 21 27  1  0  0  0  0
 22 23  4  0  0  0  0
 22 28  1  0  0  0  0
 23 24  4  0  0  0  0
 23 26  1  0  0  0  0
 24 25  4  0  0  0  0
 24 29  1  0  0  0  0
 25 30  1  0  0  0  0
 26 31  1  0  0  0  0
 26 32  1  0  0  0  0
M  END
> <BCLConfClusterSize>
1

> <ConfClashScore>
0 

> <ConfOneFourInteractionScore>
-0.972289 

> <ConfScore>
0.378112 

> <ConfScorePBest>
0.00404589 

> <ConfTolerance>
0.585226 

> <RosettaParamsInstructions>
M  ROOT 3
M  POLY_N_BB 3
M  POLY_CA_BB 4
M  POLY_C_BB 2
M  POLY_O_BB 5
M  POLY_IGNORE 9 10 11 12 13 14 15 16 17 18 
M  POLY_UPPER 6
M  POLY_LOWER 8
M  POLY_CHG 0
M  POLY_PROPERTIES ALPHA_AA D_AA PROTEIN AROMATIC POLYMER 
M  END

$$$$



 32 32  0  0  0  0  0  0  0  0999 V2000
   -1.0217    0.6957   -1.6353 H   0  0  0  1  0  0  0  0  0  0  0  0
    0.6097    1.3477   -0.4875 C   0  0  0  1  0  0  0  0  0  0  0  0
    0.2084    1.7835   -2.8841 N   0  0  0  1  0  0  0  0  0  0  0  0
   -0.4354    1.5885   -1.5711 C   0  0  0  1  0  0  0  0  0  0  0  0
    0.2820    1.1213    0.6766 O   0  0  0  1  0  0  0  0  0  0  0  0
    1.8834    1.3998   -0.8876 N   0  0  0  1  0  0  0  0  0  0  0  0
    0.2791    2.6915   -3.2460 H   0  0  0  1  0  0  0  0  0  0  0  0
    0.7033    0.7553   -3.6040 C   0  0  0  1  0  0  0  0  0  0  0  0
    2.9544    1.0618    0.0378 C   0  0  0  1  0  0  0  0  0  0  0  0
    1.4393    1.0750   -4.8905 C   0  0  0  1  0  0  0  0  0  0  0  0
    0.5630   -0.4062   -3.2304 O   0  0  0  1  0  0  0  0  0  0  0  0
    2.0968    1.6661   -1.8063 H   0  0  0  1  0  0  0  0  0  0  0  0
    2.5588    0.9840    1.0290 H   0  0  0  1  0  0  0  0  0  0  0  0
    3.7026    1.8264    0.0117 H   0  0  0  1  0  0  0  0  0  0  0  0
    3.3895    0.1265   -0.2467 H   0  0  0  1  0  0  0  0  0  0  0  0
    1.8336    2.0684   -4.8391 H   0  0  0  1  0  0  0  0  0  0  0  0
    0.7623    1.0025   -5.7159 H   0  0  0  1  0  0  0  0  0  0  0  0
    2.2415    0.3796   -5.0244 H   0  0  0  1  0  0  0  0  0  0  0  0
   -6.5450    2.1585   -3.4937 F   0  0  0  1  0  0  0  0  0  0  0  0
   -5.3149    2.2962   -2.9627 C   0  0  0  1  0  0  0  0  0  0  0  0
   -4.2965    2.8647   -3.7117 C   0  0  0  1  0  0  0  0  0  0  0  0
   -3.0329    3.0011   -3.1686 C   0  0  0  1  0  0  0  0  0  0  0  0
   -2.7853    2.5743   -1.8732 C   0  0  0  1  0  0  0  0  0  0  0  0
   -3.8009    2.0075   -1.1265 C   0  0  0  1  0  0  0  0  0  0  0  0
   -5.0683    1.8706   -1.6711 C   0  0  0  1  0  0  0  0  0  0  0  0
   -1.4060    2.7284   -1.2772 C   0  0  0  1  0  0  0  0  0  0  0  0
   -4.4831    3.1886   -4.6822 H   0  0  0  1  0  0  0  0  0  0  0  0
   -2.2677    3.4239   -3.7319 H   0  0  0  1  0  0  0  0  0  0  0  0
   -3.6142    1.6836   -0.1560 H   0  0  0  1  0  0  0  0  0  0  0  0
   -5.8335    1.4478   -1.1078 H   0  0  0  1  0  0  0  0  0  0  0  0
   -0.9798    3.6319   -1.6605 H   0  0  0  1  0  0  0  0  0  0  0  0
   -1.5121    2.8060   -0.2153 H   0  0  0  1  0  0  0  0  0  0  0  0
  1  4  1  0  0  0  0
  2  4  1  0  0  0  0
  2  5  2  0  0  0  0
  2  6  1  0  0  0  0
  3  4  1  0  0  0  0
  3  7  1  0  0  0  0
  3  8  1  0  0  0  0
  4 26  1  0  0  0  0
  6  9  1  0  0  0  0
  6 12  1  0  0  0  0
  8 10  1  0  0  0  0
  8 11  2  0  0  0  0
  9 13  1  0  0  0  0
  9 14  1  0  0  0  0
  9 15  1  0  0  0  0
 10 16  1  0  0  0  0
 10 17  1  0  0  0  0
 10 18  1  0  0  0  0
 19 20  1  0  0  0  0
 20 21  4  0  0  0  0
 20 25  4  0  0  0  0
 21 22  4  0  0  0  0
 21 27  1  0  0  0  0
 22 23  4  0  0  0  0
 22 28  1  0  0  0  0
 23 24  4  0  0  0  0
 23 26  1  0  0  0  0
 24 25  4  0  0  0  0
 24 29  1  0  0  0  0
 25 30  1  0  0  0  0
 26 31  1  0  0  0  0
 26 32  1  0  0  0  0
M  END
> <BCLConfClusterSize>
1

> <ConfClashScore>
0 

> <ConfOneFourInteractionScore>
-0.948834 

> <ConfScore>
0.382901 

> <ConfScorePBest>
0.00401741 

> <ConfTolerance>
0.495783 

> <RosettaParamsInstructions>
M  ROOT 3
M  POLY_N_BB 3
M  POLY_CA_BB 4
M  POLY_C_BB 2
M  POLY_O_BB 5
M  POLY_IGNORE 9 10 11 12 13 14 15 16 17 18 
M  POLY_UPPER 6
M  POLY_LOWER 8
M  POLY_CHG 0
M  POLY_PROPERTIES ALPHA_AA D_AA PROTEIN AROMATIC POLYMER 
M  END

$$$$



 32 32  0  0  0  0  0  0  0  0999 V2000
   -0.4530    1.5547   -2.7310 H   0  0  0  1  0  0  0  0  0  0  0  0
   -0.9106    0.2298   -1.1728 C   0  0  0  1  0  0  0  0  0  0  0  0
    0.8971    1.9480   -1.2291 N   0  0  0  1  0  0  0  0  0  0  0  0
   -0.4605    1.5976   -1.6619 C   0  0  0  1  0  0  0  0  0  0  0  0
   -2.0283   -0.0077   -0.7453 O   0  0  0  1  0  0  0  0  0  0  0  0
    0.0082   -0.7461   -1.2326 N   0  0  0  1  0  0  0  0  0  0  0  0
    1.1814    1.7074   -0.3227 H   0  0  0  1  0  0  0  0  0  0  0  0
    1.7675    2.5899   -2.0357 C   0  0  0  1  0  0  0  0  0  0  0  0
   -0.2984   -2.0711   -0.7147 C   0  0  0  1  0  0  0  0  0  0  0  0
    3.1548    2.8825   -1.4981 C   0  0  0  1  0  0  0  0  0  0  0  0
    1.4476    2.9288   -3.1743 O   0  0  0  1  0  0  0  0  0  0  0  0
    0.8877   -0.5662   -1.6257 H   0  0  0  1  0  0  0  0  0  0  0  0
    0.5261   -2.7271   -0.9012 H   0  0  0  1  0  0  0  0  0  0  0  0
   -1.1727   -2.4504   -1.2012 H   0  0  0  1  0  0  0  0  0  0  0  0
   -0.4741   -2.0101    0.3390 H   0  0  0  1  0  0  0  0  0  0  0  0
    3.0760    3.4688   -0.6065 H   0  0  0  1  0  0  0  0  0  0  0  0
    3.7147    3.4236   -2.2321 H   0  0  0  1  0  0  0  0  0  0  0  0
    3.6527    1.9618   -1.2764 H   0  0  0  1  0  0  0  0  0  0  0  0
   -6.5332    2.1730   -3.5231 F   0  0  0  1  0  0  0  0  0  0  0  0
   -5.3173    2.2932   -2.9566 C   0  0  0  1  0  0  0  0  0  0  0  0
   -4.3009    2.8621   -3.7082 C   0  0  0  1  0  0  0  0  0  0  0  0
   -3.0363    2.9999   -3.1680 C   0  0  0  1  0  0  0  0  0  0  0  0
   -2.7855    2.5741   -1.8729 C   0  0  0  1  0  0  0  0  0  0  0  0
   -3.7989    2.0069   -1.1236 C   0  0  0  1  0  0  0  0  0  0  0  0
   -5.0674    1.8686   -1.6653 C   0  0  0  1  0  0  0  0  0  0  0  0
   -1.4050    2.7298   -1.2800 C   0  0  0  1  0  0  0  0  0  0  0  0
   -4.4900    3.1852   -4.6785 H   0  0  0  1  0  0  0  0  0  0  0  0
   -2.2727    3.4230   -3.7333 H   0  0  0  1  0  0  0  0  0  0  0  0
   -3.6098    1.6838   -0.1533 H   0  0  0  1  0  0  0  0  0  0  0  0
   -5.8310    1.4455   -1.1000 H   0  0  0  1  0  0  0  0  0  0  0  0
   -0.9879    3.6525   -1.6257 H   0  0  0  1  0  0  0  0  0  0  0  0
   -1.4931    2.7548   -0.2139 H   0  0  0  1  0  0  0  0  0  0  0  0
  1  4  1  0  0  0  0
  2  4  1  0  0  0  0
  2  5  2  0  0  0  0
  2  6  1  0  0  0  0
  3  4  1  0  0  0  0
  3  7  1  0  0  0  0
  3  8  1  0  0  0  0
  4 26  1  0  0  0  0
  6  9  1  0  0  0  0
  6 12  1  0  0  0  0
  8 10  1  0  0  0  0
  8 11  2  0  0  0  0
  9 13  1  0  0  0  0
  9 14  1  0  0  0  0
  9 15  1  0  0  0  0
 10 16  1  0  0  0  0
 10 17  1  0  0  0  0
 10 18  1  0  0  0  0
 19 20  1  0  0  0  0
 20 21  4  0  0  0  0
 20 25  4  0  0  0  0
 21 22  4  0  0  0  0
 21 27  1  0  0  0  0
 22 23  4  0  0  0  0
 22 28  1  0  0  0  0
 23 24  4  0  0  0  0
 23 26  1  0  0  0  0
 24 25  4  0  0  0  0
 24 29  1  0  0  0  0
 25 30  1  0  0  0  0
 26 31  1  0  0  0  0
 26 32  1  0  0  0  0
M  END
> <BCLConfClusterSize>
1

> <ConfClashScore>
0 

> <ConfOneFourInteractionScore>
-0.979783 

> <ConfScore>
0.383858 

> <ConfScorePBest>
0.00398893 

> <ConfTolerance>
0.4257 

> <RosettaParamsInstructions>
M  ROOT 3
M  POLY_N_BB 3
M  POLY_CA_BB 4
M  POLY_C_BB 2
M  POLY_O_BB 5
M  POLY_IGNORE 9 10 11 12 13 14 15 16 17 18 
M  POLY_UPPER 6
M  POLY_LOWER 8
M  POLY_CHG 0
M  POLY_PROPERTIES ALPHA_AA D_AA PROTEIN AROMATIC POLYMER 
M  END

$$$$



 32 32  0  0  0  0  0  0  0  0999 V2000
    0.3367    1.5765   -0.9356 H   0  0  0  1  0  0  0  0  0  0  0  0
   -0.4016    1.0704   -2.8530 C   0  0  0  1  0  0  0  0  0  0  0  0
   -1.3273    0.3645   -0.6720 N   0  0  0  1  0  0  0  0  0  0  0  0
   -0.6206    1.4283   -1.3899 C   0  0  0  1  0  0  0  0  0  0  0  0
   -1.0126    1.6135   -3.7552 O   0  0  0  1  0  0  0  0  0  0  0  0
    0.4958    0.1230   -3.1652 N   0  0  0  1  0  0  0  0  0  0  0  0
   -2.1282    0.6335   -0.1755 H   0  0  0  1  0  0  0  0  0  0  0  0
   -1.0035   -0.9323   -0.6174 C   0  0  0  1  0  0  0  0  0  0  0  0
    0.6527   -0.3081   -4.5463 C   0  0  0  1  0  0  0  0  0  0  0  0
   -1.9263   -1.8074    0.2084 C   0  0  0  1  0  0  0  0  0  0  0  0
   -0.0319   -1.3990   -1.1888 O   0  0  0  1  0  0  0  0  0  0  0  0
    1.0468   -0.2794   -2.4617 H   0  0  0  1  0  0  0  0  0  0  0  0
    1.0036   -1.3187   -4.5673 H   0  0  0  1  0  0  0  0  0  0  0  0
    1.3603    0.3252   -5.0392 H   0  0  0  1  0  0  0  0  0  0  0  0
   -0.2906   -0.2479   -5.0478 H   0  0  0  1  0  0  0  0  0  0  0  0
   -2.4663   -1.2001    0.9044 H   0  0  0  1  0  0  0  0  0  0  0  0
   -1.3473   -2.5320    0.7419 H   0  0  0  1  0  0  0  0  0  0  0  0
   -2.6164   -2.3077   -0.4385 H   0  0  0  1  0  0  0  0  0  0  0  0
   -6.5450    2.1585   -3.4937 F   0  0  0  1  0  0  0  0  0  0  0  0
   -5.3149    2.2962   -2.9627 C   0  0  0  1  0  0  0  0  0  0  0  0
   -4.2965    2.8647   -3.7117 C   0  0  0  1  0  0  0  0  0  0  0  0
   -3.0329    3.0011   -3.1686 C   0  0  0  1  0  0  0  0  0  0  0  0
   -2.7853    2.5743   -1.8732 C   0  0  0  1  0  0  0  0  0  0  0  0
   -3.8009    2.0075   -1.1265 C   0  0  0  1  0  0  0  0  0  0  0  0
   -5.0683    1.8706   -1.6711 C   0  0  0  1  0  0  0  0  0  0  0  0
   -1.4060    2.7284   -1.2772 C   0  0  0  1  0  0  0  0  0  0  0  0
   -4.4831    3.1886   -4.6822 H   0  0  0  1  0  0  0  0  0  0  0  0
   -2.2677    3.4239   -3.7319 H   0  0  0  1  0  0  0  0  0  0  0  0
   -3.6142    1.6836   -0.1560 H   0  0  0  1  0  0  0  0  0  0  0  0
   -5.8335    1.4478   -1.1078 H   0  0  0  1  0  0  0  0  0  0  0  0
   -0.8822    3.5012   -1.8000 H   0  0  0  1  0  0  0  0  0  0  0  0
   -1.4977    2.9945   -0.2448 H   0  0  0  1  0  0  0  0  0  0  0  0
  1  4  1  0  0  0  0
  2  4  1  0  0  0  0
  2  5  2  0  0  0  0
  2  6  1  0  0  0  0
  3  4  1  0  0  0  0
  3  7  1  0  0  0  0
  3  8  1  0  0  0  0
  4 26  1  0  0  0  0
  6  9  1  0  0  0  0
  6 12  1  0  0  0  0
  8 10  1  0  0  0  0
  8 11  2  0  0  0  0
  9 13  1  0  0  0  0
  9 14  1  0  0  0  0
  9 15  1  0  0  0  0
 10 16  1  0  0  0  0
 10 17  1  0  0  0  0
 10 18  1  0  0  0  0
 19 20  1  0  0  0  0
 20 21  4  0  0  0  0
 20 25  4  0  0  0  0
 21 22  4  0  0  0  0
 21 27  1  0  0  0  0
 22 23  4  0  0  0  0
 22 28  1  0  0  0  0
 23 24  4  0  0  0  0
 23 26  1  0  0  0  0
 24 25  4  0  0  0  0
 24 29  1  0  0  0  0
 25 30  1  0  0  0  0
 26 31  1  0  0  0  0
 26 32  1  0  0  0  0
M  END
> <BCLConfClusterSize>
1

> <ConfClashScore>
0.00155911 

> <ConfOneFourInteractionScore>
-0.969421 

> <ConfScore>
0.390542 

> <ConfScorePBest>
0.00396045 

> <ConfTolerance>
0.37813 

> <RosettaParamsInstructions>
M  ROOT 3
M  POLY_N_BB 3
M  POLY_CA_BB 4
M  POLY_C_BB 2
M  POLY_O_BB 5
M  POLY_IGNORE 9 10 11 12 13 14 15 16 17 18 
M  POLY_UPPER 6
M  POLY_LOWER 8
M  POLY_CHG 0
M  POLY_PROPERTIES ALPHA_AA D_AA PROTEIN AROMATIC POLYMER 
M  END

$$$$



 32 32  0  0  0  0  0  0  0  0999 V2000
   -0.3412    1.2623   -2.3576 H   0  0  0  1  0  0  0  0  0  0  0  0
   -1.3784    0.2491   -0.8462 C   0  0  0  1  0  0  0  0  0  0  0  0
    0.6647    1.6571   -0.6108 N   0  0  0  1  0  0  0  0  0  0  0  0
   -0.5816    1.4394   -1.3301 C   0  0  0  1  0  0  0  0  0  0  0  0
   -1.6466    0.1117    0.3488 O   0  0  0  1  0  0  0  0  0  0  0  0
   -1.7816   -0.6469   -1.7515 N   0  0  0  1  0  0  0  0  0  0  0  0
    1.4916    1.7773   -1.1230 H   0  0  0  1  0  0  0  0  0  0  0  0
    0.7207    1.6989    0.7234 C   0  0  0  1  0  0  0  0  0  0  0  0
   -2.6001   -1.7966   -1.3963 C   0  0  0  1  0  0  0  0  0  0  0  0
    2.1054    1.8611    1.3197 C   0  0  0  1  0  0  0  0  0  0  0  0
   -0.2681    1.6136    1.4328 O   0  0  0  1  0  0  0  0  0  0  0  0
   -1.5171   -0.5256   -2.6873 H   0  0  0  1  0  0  0  0  0  0  0  0
   -3.3883   -1.4857   -0.7429 H   0  0  0  1  0  0  0  0  0  0  0  0
   -1.9939   -2.5264   -0.9015 H   0  0  0  1  0  0  0  0  0  0  0  0
   -3.0198   -2.2230   -2.2834 H   0  0  0  1  0  0  0  0  0  0  0  0
    2.0556    1.7265    2.3801 H   0  0  0  1  0  0  0  0  0  0  0  0
    2.4748    2.8413    1.1018 H   0  0  0  1  0  0  0  0  0  0  0  0
    2.7629    1.1297    0.8982 H   0  0  0  1  0  0  0  0  0  0  0  0
   -6.5332    2.1730   -3.5231 F   0  0  0  1  0  0  0  0  0  0  0  0
   -5.3173    2.2932   -2.9566 C   0  0  0  1  0  0  0  0  0  0  0  0
   -4.3009    2.8621   -3.7082 C   0  0  0  1  0  0  0  0  0  0  0  0
   -3.0363    2.9999   -3.1680 C   0  0  0  1  0  0  0  0  0  0  0  0
   -2.7855    2.5741   -1.8729 C   0  0  0  1  0  0  0  0  0  0  0  0
   -3.7989    2.0069   -1.1236 C   0  0  0  1  0  0  0  0  0  0  0  0
   -5.0674    1.8686   -1.6653 C   0  0  0  1  0  0  0  0  0  0  0  0
   -1.4050    2.7298   -1.2800 C   0  0  0  1  0  0  0  0  0  0  0  0
   -4.4900    3.1852   -4.6785 H   0  0  0  1  0  0  0  0  0  0  0  0
   -2.2727    3.4230   -3.7333 H   0  0  0  1  0  0  0  0  0  0  0  0
   -3.6098    1.6838   -0.1533 H   0  0  0  1  0  0  0  0  0  0  0  0
   -5.8310    1.4455   -1.1000 H   0  0  0  1  0  0  0  0  0  0  0  0
   -0.8834    3.4880   -1.8258 H   0  0  0  1  0  0  0  0  0  0  0  0
   -1.5052    3.0303   -0.2580 H   0  0  0  1  0  0  0  0  0  0  0  0
  1  4  1  0  0  0  0
  2  4  1  0  0  0  0
  2  5  2  0  0  0  0
  2  6  1  0  0  0  0
  3  4  1  0  0  0  0
  3  7  1  0  0  0  0
  3  8  1  0  0  0  0
  4 26  1  0  0  0  0
  6  9  1  0  0  0  0
  6 12  1  0  0  0  0
  8 10  1  0  0  0  0
  8 11  2  0  0  0  0
  9 13  1  0  0  0  0
  9 14  1  0  0  0  0
  9 15  1  0  0  0  0
 10 16  1  0  0  0  0
 10 17  1  0  0  0  0
 10 18  1  0  0  0  0
 19 20  1  0  0  0  0
 20 21  4  0  0  0  0
 20 25  4  0  0  0  0
 21 22  4  0  0  0  0
 21 27  1  0  0  0  0
 22 23  4  0  0  0  0
 22 28  1  0  0  0  0
 23 24  4  0  0  0  0
 23 26  1  0  0  0  0
 24 25  4  0  0  0  0
 24 29  1  0  0  0  0
 25 30  1  0  0  0  0
 26 31  1  0  0  0  0
 26 32  1  0  0  0  0
M  END
> <BCLConfClusterSize>
1

> <ConfClashScore>
0 

> <ConfOneFourInteractionScore>
-0.983383 

> <ConfScore>
0.391378 

> <ConfScorePBest>
0.00393197 

> <ConfTolerance>
0.463233 

> <RosettaParamsInstructions>
M  ROOT 3
M  POLY_N_BB 3
M  POLY_CA_BB 4
M  POLY_C_BB 2
M  POLY_O_BB 5
M  POLY_IGNORE 9 10 11 12 13 14 15 16 17 18 
M  POLY_UPPER 6
M  POLY_LOWER 8
M  POLY_CHG 0
M  POLY_PROPERTIES ALPHA_AA D_AA PROTEIN AROMATIC POLYMER 
M  END

$$$$



 32 32  0  0  0  0  0  0  0  0999 V2000
   -0.7488    4.2894   -2.5051 H   0  0  0  1  0  0  0  0  0  0  0  0
    0.6641    4.1743   -0.9654 C   0  0  0  1  0  0  0  0  0  0  0  0
   -1.6424    5.1064   -0.8413 N   0  0  0  1  0  0  0  0  0  0  0  0
   -0.7697    4.0976   -1.4526 C   0  0  0  1  0  0  0  0  0  0  0  0
    1.5863    3.7251   -1.6447 O   0  0  0  1  0  0  0  0  0  0  0  0
    0.8970    4.7490    0.2329 N   0  0  0  1  0  0  0  0  0  0  0  0
   -1.5228    5.3507    0.1002 H   0  0  0  1  0  0  0  0  0  0  0  0
   -2.6093    5.6985   -1.5728 C   0  0  0  1  0  0  0  0  0  0  0  0
    2.2538    4.8307    0.7528 C   0  0  0  1  0  0  0  0  0  0  0  0
   -3.5545    6.6030   -0.8062 C   0  0  0  1  0  0  0  0  0  0  0  0
   -2.7317    5.5276   -2.7850 O   0  0  0  1  0  0  0  0  0  0  0  0
    0.1509    5.1121    0.7543 H   0  0  0  1  0  0  0  0  0  0  0  0
    2.9515    4.7045   -0.0485 H   0  0  0  1  0  0  0  0  0  0  0  0
    2.4036    4.0607    1.4805 H   0  0  0  1  0  0  0  0  0  0  0  0
    2.4038    5.7871    1.2086 H   0  0  0  1  0  0  0  0  0  0  0  0
   -3.8564    6.1190    0.0991 H   0  0  0  1  0  0  0  0  0  0  0  0
   -4.4169    6.8074   -1.4058 H   0  0  0  1  0  0  0  0  0  0  0  0
   -3.0573    7.5208   -0.5710 H   0  0  0  1  0  0  0  0  0  0  0  0
   -6.5450    2.1585   -3.4937 F   0  0  0  1  0  0  0  0  0  0  0  0
   -5.3149    2.2962   -2.9627 C   0  0  0  1  0  0  0  0  0  0  0  0
   -4.2965    2.8647   -3.7117 C   0  0  0  1  0  0  0  0  0  0  0  0
   -3.0329    3.0011   -3.1686 C   0  0  0  1  0  0  0  0  0  0  0  0
   -2.7853    2.5743   -1.8732 C   0  0  0  1  0  0  0  0  0  0  0  0
   -3.8009    2.0075   -1.1265 C   0  0  0  1  0  0  0  0  0  0  0  0
   -5.0683    1.8706   -1.6711 C   0  0  0  1  0  0  0  0  0  0  0  0
   -1.4060    2.7284   -1.2772 C   0  0  0  1  0  0  0  0  0  0  0  0
   -4.4831    3.1886   -4.6822 H   0  0  0  1  0  0  0  0  0  0  0  0
   -2.2677    3.4239   -3.7319 H   0  0  0  1  0  0  0  0  0  0  0  0
   -3.6142    1.6836   -0.1560 H   0  0  0  1  0  0  0  0  0  0  0  0
   -5.8335    1.4478   -1.1078 H   0  0  0  1  0  0  0  0  0  0  0  0
   -1.4755    2.5287   -0.2283 H   0  0  0  1  0  0  0  0  0  0  0  0
   -0.7651    2.0053   -1.7368 H   0  0  0  1  0  0  0  0  0  0  0  0
  1  4  1  0  0  0  0
  2  4  1  0  0  0  0
  2  5  2  0  0  0  0
  2  6  1  0  0  0  0
  3  4  1  0  0  0  0
  3  7  1  0  0  0  0
  3  8  1  0  0  0  0
  4 26  1  0  0  0  0
  6  9  1  0  0  0  0
  6 12  1  0  0  0  0
  8 10  1  0  0  0  0
  8 11  2  0  0  0  0
  9 13  1  0  0  0  0
  9 14  1  0  0  0  0
  9 15  1  0  0  0  0
 10 16  1  0  0  0  0
 10 17  1  0  0  0  0
 10 18  1  0  0  0  0
 19 20  1  0  0  0  0
 20 21  4  0  0  0  0
 20 25  4  0  0  0  0
 21 22  4  0  0  0  0
 21 27  1  0  0  0  0
 22 23  4  0  0  0  0
 22 28  1  0  0  0  0
 23 24  4  0  0  0  0
 23 26  1  0  0  0  0
 24 25  4  0  0  0  0
 24 29  1  0  0  0  0
 25 30  1  0  0  0  0
 26 31  1  0  0  0  0
 26 32  1  0  0  0  0
M  END
> <BCLConfClusterSize>
1

> <ConfClashScore>
0 

> <ConfOneFourInteractionScore>
-0.965014 

> <ConfScore>
0.392768 

> <ConfScorePBest>
0.00390349 

> <ConfTolerance>
0.623355 

> <RosettaParamsInstructions>
M  ROOT 3
M  POLY_N_BB 3
M  POLY_CA_BB 4
M  POLY_C_BB 2
M  POLY_O_BB 5
M  POLY_IGNORE 9 10 11 12 13 14 15 16 17 18 
M  POLY_UPPER 6
M  POLY_LOWER 8
M  POLY_CHG 0
M  POLY_PROPERTIES ALPHA_AA D_AA PROTEIN AROMATIC POLYMER 
M  END

$$$$



 32 32  0  0  0  0  0  0  0  0999 V2000
   -0.1854    2.1917    0.3613 H   0  0  0  1  0  0  0  0  0  0  0  0
   -1.6080    0.6493    0.0884 C   0  0  0  1  0  0  0  0  0  0  0  0
   -2.0036    2.8725    1.0747 N   0  0  0  1  0  0  0  0  0  0  0  0
   -1.2216    2.1214    0.1040 C   0  0  0  1  0  0  0  0  0  0  0  0
   -1.5738   -0.0226   -0.9264 O   0  0  0  1  0  0  0  0  0  0  0  0
   -1.9987    0.0695    1.2244 N   0  0  0  1  0  0  0  0  0  0  0  0
   -2.7804    2.4431    1.4902 H   0  0  0  1  0  0  0  0  0  0  0  0
   -1.6993    4.1270    1.4192 C   0  0  0  1  0  0  0  0  0  0  0  0
   -2.2958   -1.3469    1.3775 C   0  0  0  1  0  0  0  0  0  0  0  0
   -2.5970    4.7779    2.4749 C   0  0  0  1  0  0  0  0  0  0  0  0
   -0.7708    4.7946    0.9655 O   0  0  0  1  0  0  0  0  0  0  0  0
   -2.0928    0.6403    2.0154 H   0  0  0  1  0  0  0  0  0  0  0  0
   -1.6337   -1.9194    0.7621 H   0  0  0  1  0  0  0  0  0  0  0  0
   -3.3073   -1.5329    1.0820 H   0  0  0  1  0  0  0  0  0  0  0  0
   -2.1650   -1.6299    2.4011 H   0  0  0  1  0  0  0  0  0  0  0  0
   -2.6881    4.1251    3.3178 H   0  0  0  1  0  0  0  0  0  0  0  0
   -3.5656    4.9579    2.0572 H   0  0  0  1  0  0  0  0  0  0  0  0
   -2.1648    5.7054    2.7874 H   0  0  0  1  0  0  0  0  0  0  0  0
   -6.5450    2.1585   -3.4937 F   0  0  0  1  0  0  0  0  0  0  0  0
   -5.3149    2.2962   -2.9627 C   0  0  0  1  0  0  0  0  0  0  0  0
   -4.2965    2.8647   -3.7117 C   0  0  0  1  0  0  0  0  0  0  0  0
   -3.0329    3.0011   -3.1686 C   0  0  0  1  0  0  0  0  0  0  0  0
   -2.7853    2.5743   -1.8732 C   0  0  0  1  0  0  0  0  0  0  0  0
   -3.8009    2.0075   -1.1265 C   0  0  0  1  0  0  0  0  0  0  0  0
   -5.0683    1.8706   -1.6711 C   0  0  0  1  0  0  0  0  0  0  0  0
   -1.4060    2.7284   -1.2772 C   0  0  0  1  0  0  0  0  0  0  0  0
   -4.4831    3.1886   -4.6822 H   0  0  0  1  0  0  0  0  0  0  0  0
   -2.2677    3.4239   -3.7319 H   0  0  0  1  0  0  0  0  0  0  0  0
   -3.6142    1.6836   -0.1560 H   0  0  0  1  0  0  0  0  0  0  0  0
   -5.8335    1.4478   -1.1078 H   0  0  0  1  0  0  0  0  0  0  0  0
   -0.7064    2.2618   -1.9388 H   0  0  0  1  0  0  0  0  0  0  0  0
   -1.1907    3.7743   -1.2095 H   0  0  0  1  0  0  0  0  0  0  0  0
  1  4  1  0  0  0  0
  2  4  1  0  0  0  0
  2  5  2  0  0  0  0
  2  6  1  0  0  0  0
  3  4  1  0  0  0  0
  3  7  1  0  0  0  0
  3  8  1  0  0  0  0
  4 26  1  0  0  0  0
  6  9  1  0  0  0  0
  6 12  1  0  0  0  0
  8 10  1  0  0  0  0
  8 11  2  0  0  0  0
  9 13  1  0  0  0  0
  9 14  1  0  0  0  0
  9 15  1  0  0  0  0
 10 16  1  0  0  0  0
 10 17  1  0  0  0  0
 10 18  1  0  0  0  0
 19 20  1  0  0  0  0
 20 21  4  0  0  0  0
 20 25  4  0  0  0  0
 21 22  4  0  0  0  0
 21 27  1  0  0  0  0
 22 23  4  0  0  0  0
 22 28  1  0  0  0  0
 23 24  4  0  0  0  0
 23 26  1  0  0  0  0
 24 25  4  0  0  0  0
 24 29  1  0  0  0  0
 25 30  1  0  0  0  0
 26 31  1  0  0  0  0
 26 32  1  0  0  0  0
M  END
> <BCLConfClusterSize>
1

> <ConfClashScore>
0 

> <ConfOneFourInteractionScore>
-0.949923 

> <ConfScore>
0.393958 

> <ConfScorePBest>
0.00387501 

> <ConfTolerance>
0.715127 

> <RosettaParamsInstructions>
M  ROOT 3
M  POLY_N_BB 3
M  POLY_CA_BB 4
M  POLY_C_BB 2
M  POLY_O_BB 5
M  POLY_IGNORE 9 10 11 12 13 14 15 16 17 18 
M  POLY_UPPER 6
M  POLY_LOWER 8
M  POLY_CHG 0
M  POLY_PROPERTIES ALPHA_AA D_AA PROTEIN AROMATIC POLYMER 
M  END

$$$$



 32 32  0  0  0  0  0  0  0  0999 V2000
   -1.3700    4.8251   -1.3570 H   0  0  0  1  0  0  0  0  0  0  0  0
    0.3565    4.2616   -0.3078 C   0  0  0  1  0  0  0  0  0  0  0  0
   -1.9434    4.3323    0.5557 N   0  0  0  1  0  0  0  0  0  0  0  0
   -1.1205    4.0794   -0.6314 C   0  0  0  1  0  0  0  0  0  0  0  0
    1.1268    3.3241   -0.4350 O   0  0  0  1  0  0  0  0  0  0  0  0
    0.7542    5.4992    0.0277 N   0  0  0  1  0  0  0  0  0  0  0  0
   -2.5380    5.1113    0.5618 H   0  0  0  1  0  0  0  0  0  0  0  0
   -1.9106    3.5317    1.6371 C   0  0  0  1  0  0  0  0  0  0  0  0
    2.1449    5.8193    0.3065 C   0  0  0  1  0  0  0  0  0  0  0  0
   -2.9056    3.8593    2.7273 C   0  0  0  1  0  0  0  0  0  0  0  0
   -1.1282    2.5888    1.7491 O   0  0  0  1  0  0  0  0  0  0  0  0
    0.0838    6.2116    0.0868 H   0  0  0  1  0  0  0  0  0  0  0  0
    2.4546    5.3184    1.1998 H   0  0  0  1  0  0  0  0  0  0  0  0
    2.2482    6.8764    0.4365 H   0  0  0  1  0  0  0  0  0  0  0  0
    2.7554    5.4988   -0.5118 H   0  0  0  1  0  0  0  0  0  0  0  0
   -2.6983    4.8332    3.1191 H   0  0  0  1  0  0  0  0  0  0  0  0
   -2.8265    3.1355    3.5114 H   0  0  0  1  0  0  0  0  0  0  0  0
   -3.8961    3.8412    2.3231 H   0  0  0  1  0  0  0  0  0  0  0  0
   -6.5450    2.1585   -3.4937 F   0  0  0  1  0  0  0  0  0  0  0  0
   -5.3149    2.2962   -2.9627 C   0  0  0  1  0  0  0  0  0  0  0  0
   -4.2965    2.8647   -3.7117 C   0  0  0  1  0  0  0  0  0  0  0  0
   -3.0329    3.0011   -3.1686 C   0  0  0  1  0  0  0  0  0  0  0  0
   -2.7853    2.5743   -1.8732 C   0  0  0  1  0  0  0  0  0  0  0  0
   -3.8009    2.0075   -1.1265 C   0  0  0  1  0  0  0  0  0  0  0  0
   -5.0683    1.8706   -1.6711 C   0  0  0  1  0  0  0  0  0  0  0  0
   -1.4060    2.7284   -1.2772 C   0  0  0  1  0  0  0  0  0  0  0  0
   -4.4831    3.1886   -4.6822 H   0  0  0  1  0  0  0  0  0  0  0  0
   -2.2677    3.4239   -3.7319 H   0  0  0  1  0  0  0  0  0  0  0  0
   -3.6142    1.6836   -0.1560 H   0  0  0  1  0  0  0  0  0  0  0  0
   -5.8335    1.4478   -1.1078 H   0  0  0  1  0  0  0  0  0  0  0  0
   -1.2831    1.9727   -0.5297 H   0  0  0  1  0  0  0  0  0  0  0  0
   -0.6902    2.5780   -2.0582 H   0  0  0  1  0  0  0  0  0  0  0  0
  1  4  1  0  0  0  0
  2  4  1  0  0  0  0
  2  5  2  0  0  0  0
  2  6  1  0  0  0  0
  3  4  1  0  0  0  0
  3  7  1  0  0  0  0
  3  8  1  0  0  0  0
  4 26  1  0  0  0  0
  6  9  1  0  0  0  0
  6 12  1  0  0  0  0
  8 10  1  0  0  0  0
  8 11  2  0  0  0  0
  9 13  1  0  0  0  0
  9 14  1  0  0  0  0
  9 15  1  0  0  0  0
 10 16  1  0  0  0  0
 10 17  1  0  0  0  0
 10 18  1  0  0  0  0
 19 20  1  0  0  0  0
 20 21  4  0  0  0  0
 20 25  4  0  0  0  0
 21 22  4  0  0  0  0
 21 27  1  0  0  0  0
 22 23  4  0  0  0  0
 22 28  1  0  0  0  0
 23 24  4  0  0  0  0
 23 26  1  0  0  0  0
 24 25  4  0  0  0  0
 24 29  1  0  0  0  0
 25 30  1  0  0  0  0
 26 31  1  0  0  0  0
 26 32  1  0  0  0  0
M  END
> <BCLConfClusterSize>
1

> <ConfClashScore>
0 

> <ConfOneFourInteractionScore>
-0.976146 

> <ConfScore>
0.395101 

> <ConfScorePBest>
0.00384653 

> <ConfTolerance>
0.554487 

> <RosettaParamsInstructions>
M  ROOT 3
M  POLY_N_BB 3
M  POLY_CA_BB 4
M  POLY_C_BB 2
M  POLY_O_BB 5
M  POLY_IGNORE 9 10 11 12 13 14 15 16 17 18 
M  POLY_UPPER 6
M  POLY_LOWER 8
M  POLY_CHG 0
M  POLY_PROPERTIES ALPHA_AA D_AA PROTEIN AROMATIC POLYMER 
M  END

$$$$



 32 32  0  0  0  0  0  0  0  0999 V2000
   -0.7648    1.4410   -2.8204 H   0  0  0  1  0  0  0  0  0  0  0  0
   -0.3728    0.3990   -0.9755 C   0  0  0  1  0  0  0  0  0  0  0  0
    0.9051    2.2874   -1.8950 N   0  0  0  1  0  0  0  0  0  0  0  0
   -0.4397    1.6964   -1.8335 C   0  0  0  1  0  0  0  0  0  0  0  0
    0.6049   -0.3741   -1.0583 O   0  0  0  1  0  0  0  0  0  0  0  0
   -1.4252    0.1298   -0.1220 N   0  0  0  1  0  0  0  0  0  0  0  0
    1.0331    3.2057   -1.5776 H   0  0  0  1  0  0  0  0  0  0  0  0
    1.9600    1.6153   -2.3691 C   0  0  0  1  0  0  0  0  0  0  0  0
   -1.5265   -1.1196    0.6173 C   0  0  0  1  0  0  0  0  0  0  0  0
    3.2440    2.4343   -2.4008 C   0  0  0  1  0  0  0  0  0  0  0  0
    1.9312    0.4463   -2.7517 O   0  0  0  1  0  0  0  0  0  0  0  0
   -2.1280    0.8036   -0.0105 H   0  0  0  1  0  0  0  0  0  0  0  0
   -0.6776   -1.7334    0.3993 H   0  0  0  1  0  0  0  0  0  0  0  0
   -2.4205   -1.6325    0.3297 H   0  0  0  1  0  0  0  0  0  0  0  0
   -1.5559   -0.9116    1.6665 H   0  0  0  1  0  0  0  0  0  0  0  0
    4.0652    1.8234   -2.0890 H   0  0  0  1  0  0  0  0  0  0  0  0
    3.1501    3.2700   -1.7392 H   0  0  0  1  0  0  0  0  0  0  0  0
    3.4186    2.7850   -3.3965 H   0  0  0  1  0  0  0  0  0  0  0  0
   -6.5463    2.1567   -3.4899 F   0  0  0  1  0  0  0  0  0  0  0  0
   -5.3147    2.2963   -2.9629 C   0  0  0  1  0  0  0  0  0  0  0  0
   -4.2994    2.8654   -3.7156 C   0  0  0  1  0  0  0  0  0  0  0  0
   -3.0342    3.0038   -3.1767 C   0  0  0  1  0  0  0  0  0  0  0  0
   -2.7820    2.5785   -1.8817 C   0  0  0  1  0  0  0  0  0  0  0  0
   -3.7945    2.0111   -1.1313 C   0  0  0  1  0  0  0  0  0  0  0  0
   -5.0635    1.8722   -1.6717 C   0  0  0  1  0  0  0  0  0  0  0  0
   -1.4219    2.7089   -1.2377 C   0  0  0  1  0  0  0  0  0  0  0  0
   -4.4895    3.1882   -4.6858 H   0  0  0  1  0  0  0  0  0  0  0  0
   -2.2714    3.4270   -3.7428 H   0  0  0  1  0  0  0  0  0  0  0  0
   -3.6043    1.6883   -0.1611 H   0  0  0  1  0  0  0  0  0  0  0  0
   -5.8264    1.4489   -1.1056 H   0  0  0  1  0  0  0  0  0  0  0  0
   -1.0491    3.6982   -1.4027 H   0  0  0  1  0  0  0  0  0  0  0  0
   -1.5132    2.5323   -0.1863 H   0  0  0  1  0  0  0  0  0  0  0  0
  1  4  1  0  0  0  0
  2  4  1  0  0  0  0
  2  5  2  0  0  0  0
  2  6  1  0  0  0  0
  3  4  1  0  0  0  0
  3  7  1  0  0  0  0
  3  8  1  0  0  0  0
  4 26  1  0  0  0  0
  6  9  1  0  0  0  0
  6 12  1  0  0  0  0
  8 10  1  0  0  0  0
  8 11  2  0  0  0  0
  9 13  1  0  0  0  0
  9 14  1  0  0  0  0
  9 15  1  0  0  0  0
 10 16  1  0  0  0  0
 10 17  1  0  0  0  0
 10 18  1  0  0  0  0
 19 20  1  0  0  0  0
 20 21  4  0  0  0  0
 20 25  4  0  0  0  0
 21 22  4  0  0  0  0
 21 27  1  0  0  0  0
 22 23  4  0  0  0  0
 22 28  1  0  0  0  0
 23 24  4  0  0  0  0
 23 26  1  0  0  0  0
 24 25  4  0  0  0  0
 24 29  1  0  0  0  0
 25 30  1  0  0  0  0
 26 31  1  0  0  0  0
 26 32  1  0  0  0  0
M  END
> <BCLConfClusterSize>
1

> <ConfClashScore>
0 

> <ConfOneFourInteractionScore>
-0.947371 

> <ConfScore>
0.397178 

> <ConfScorePBest>
0.00381805 

> <ConfTolerance>
0.254899 

> <RosettaParamsInstructions>
M  ROOT 3
M  POLY_N_BB 3
M  POLY_CA_BB 4
M  POLY_C_BB 2
M  POLY_O_BB 5
M  POLY_IGNORE 9 10 11 12 13 14 15 16 17 18 
M  POLY_UPPER 6
M  POLY_LOWER 8
M  POLY_CHG 0
M  POLY_PROPERTIES ALPHA_AA D_AA PROTEIN AROMATIC POLYMER 
M  END

$$$$



 32 32  0  0  0  0  0  0  0  0999 V2000
   -1.5497    4.8291   -1.2570 H   0  0  0  1  0  0  0  0  0  0  0  0
    0.3466    4.4351   -0.4762 C   0  0  0  1  0  0  0  0  0  0  0  0
   -1.8106    4.1933    0.6778 N   0  0  0  1  0  0  0  0  0  0  0  0
   -1.1267    4.0774   -0.6237 C   0  0  0  1  0  0  0  0  0  0  0  0
    0.7110    5.5887   -0.2526 O   0  0  0  1  0  0  0  0  0  0  0  0
    1.1689    3.3909   -0.6125 N   0  0  0  1  0  0  0  0  0  0  0  0
   -2.2934    3.4163    1.0292 H   0  0  0  1  0  0  0  0  0  0  0  0
   -1.7946    5.3256    1.3975 C   0  0  0  1  0  0  0  0  0  0  0  0
    2.6087    3.5069   -0.4356 C   0  0  0  1  0  0  0  0  0  0  0  0
   -2.5682    5.2869    2.7091 C   0  0  0  1  0  0  0  0  0  0  0  0
   -1.2037    6.3320    1.0401 O   0  0  0  1  0  0  0  0  0  0  0  0
    0.7892    2.5164   -0.8396 H   0  0  0  1  0  0  0  0  0  0  0  0
    3.0071    4.1704   -1.1746 H   0  0  0  1  0  0  0  0  0  0  0  0
    3.0598    2.5425   -0.5422 H   0  0  0  1  0  0  0  0  0  0  0  0
    2.8179    3.8932    0.5400 H   0  0  0  1  0  0  0  0  0  0  0  0
   -1.8814    5.2217    3.5270 H   0  0  0  1  0  0  0  0  0  0  0  0
   -3.2140    4.4338    2.7171 H   0  0  0  1  0  0  0  0  0  0  0  0
   -3.1526    6.1781    2.8047 H   0  0  0  1  0  0  0  0  0  0  0  0
   -6.5317    2.1748   -3.5266 F   0  0  0  1  0  0  0  0  0  0  0  0
   -5.3173    2.2931   -2.9564 C   0  0  0  1  0  0  0  0  0  0  0  0
   -4.2981    2.8615   -3.7045 C   0  0  0  1  0  0  0  0  0  0  0  0
   -3.0349    2.9974   -3.1604 C   0  0  0  1  0  0  0  0  0  0  0  0
   -2.7884    2.5703   -1.8649 C   0  0  0  1  0  0  0  0  0  0  0  0
   -3.8047    2.0036   -1.1191 C   0  0  0  1  0  0  0  0  0  0  0  0
   -5.0718    1.8672   -1.6646 C   0  0  0  1  0  0  0  0  0  0  0  0
   -1.3919    2.7478   -1.3175 C   0  0  0  1  0  0  0  0  0  0  0  0
   -4.4839    3.1856   -4.6751 H   0  0  0  1  0  0  0  0  0  0  0  0
   -2.2692    3.4201   -3.7231 H   0  0  0  1  0  0  0  0  0  0  0  0
   -3.6189    1.6794   -0.1485 H   0  0  0  1  0  0  0  0  0  0  0  0
   -5.8375    1.4445   -1.1020 H   0  0  0  1  0  0  0  0  0  0  0  0
   -1.2125    1.9650   -0.6105 H   0  0  0  1  0  0  0  0  0  0  0  0
   -0.7041    2.6577   -2.1323 H   0  0  0  1  0  0  0  0  0  0  0  0
  1  4  1  0  0  0  0
  2  4  1  0  0  0  0
  2  5  2  0  0  0  0
  2  6  1  0  0  0  0
  3  4  1  0  0  0  0
  3  7  1  0  0  0  0
  3  8  1  0  0  0  0
  4 26  1  0  0  0  0
  6  9  1  0  0  0  0
  6 12  1  0  0  0  0
  8 10  1  0  0  0  0
  8 11  2  0  0  0  0
  9 13  1  0  0  0  0
  9 14  1  0  0  0  0
  9 15  1  0  0  0  0
 10 16  1  0  0  0  0
 10 17  1  0  0  0  0
 10 18  1  0  0  0  0
 19 20  1  0  0  0  0
 20 21  4  0  0  0  0
 20 25  4  0  0  0  0
 21 22  4  0  0  0  0
 21 27  1  0  0  0  0
 22 23  4  0  0  0  0
 22 28  1  0  0  0  0
 23 24  4  0  0  0  0
 23 26  1  0  0  0  0
 24 25  4  0  0  0  0
 24 29  1  0  0  0  0
 25 30  1  0  0  0  0
 26 31  1  0  0  0  0
 26 32  1  0  0  0  0
M  END
> <BCLConfClusterSize>
1

> <ConfClashScore>
0.000787367 

> <ConfOneFourInteractionScore>
-0.952541 

> <ConfScore>
0.398629 

> <ConfScorePBest>
0.00378957 

> <ConfTolerance>
0.739158 

> <RosettaParamsInstructions>
M  ROOT 3
M  POLY_N_BB 3
M  POLY_CA_BB 4
M  POLY_C_BB 2
M  POLY_O_BB 5
M  POLY_IGNORE 9 10 11 12 13 14 15 16 17 18 
M  POLY_UPPER 6
M  POLY_LOWER 8
M  POLY_CHG 0
M  POLY_PROPERTIES ALPHA_AA D_AA PROTEIN AROMATIC POLYMER 
M  END

$$$$



 32 32  0  0  0  0  0  0  0  0999 V2000
   -1.8687    4.2323    0.0250 H   0  0  0  1  0  0  0  0  0  0  0  0
   -1.0440    5.1799   -1.6479 C   0  0  0  1  0  0  0  0  0  0  0  0
    0.1735    3.9558    0.1071 N   0  0  0  1  0  0  0  0  0  0  0  0
   -1.0802    4.0237   -0.6675 C   0  0  0  1  0  0  0  0  0  0  0  0
   -1.7237    5.1697   -2.6708 O   0  0  0  1  0  0  0  0  0  0  0  0
   -0.2299    6.1961   -1.3214 N   0  0  0  1  0  0  0  0  0  0  0  0
    0.1328    4.0487    1.0818 H   0  0  0  1  0  0  0  0  0  0  0  0
    1.3624    3.7720   -0.4740 C   0  0  0  1  0  0  0  0  0  0  0  0
   -0.1295    7.4022   -2.1295 C   0  0  0  1  0  0  0  0  0  0  0  0
    2.5617    3.7127    0.4519 C   0  0  0  1  0  0  0  0  0  0  0  0
    1.4833    3.5780   -1.6829 O   0  0  0  1  0  0  0  0  0  0  0  0
    0.3158    6.1232   -0.5106 H   0  0  0  1  0  0  0  0  0  0  0  0
    0.1835    7.1438   -3.1195 H   0  0  0  1  0  0  0  0  0  0  0  0
    0.5861    8.0663   -1.6913 H   0  0  0  1  0  0  0  0  0  0  0  0
   -1.0842    7.8835   -2.1717 H   0  0  0  1  0  0  0  0  0  0  0  0
    2.2886    3.2146    1.3586 H   0  0  0  1  0  0  0  0  0  0  0  0
    2.8886    4.7067    0.6758 H   0  0  0  1  0  0  0  0  0  0  0  0
    3.3542    3.1751   -0.0253 H   0  0  0  1  0  0  0  0  0  0  0  0
   -6.5400    2.1402   -3.4999 F   0  0  0  1  0  0  0  0  0  0  0  0
   -5.3132    2.2907   -2.9648 C   0  0  0  1  0  0  0  0  0  0  0  0
   -4.2970    2.8657   -3.7120 C   0  0  0  1  0  0  0  0  0  0  0  0
   -3.0367    3.0151   -3.1647 C   0  0  0  1  0  0  0  0  0  0  0  0
   -2.7902    2.5950   -1.8669 C   0  0  0  1  0  0  0  0  0  0  0  0
   -3.8035    2.0217   -1.1220 C   0  0  0  1  0  0  0  0  0  0  0  0
   -5.0676    1.8717   -1.6708 C   0  0  0  1  0  0  0  0  0  0  0  0
   -1.3954    2.6708   -1.2922 C   0  0  0  1  0  0  0  0  0  0  0  0
   -4.4829    3.1845   -4.6843 H   0  0  0  1  0  0  0  0  0  0  0  0
   -2.2733    3.4429   -3.7266 H   0  0  0  1  0  0  0  0  0  0  0  0
   -3.6175    1.7028   -0.1497 H   0  0  0  1  0  0  0  0  0  0  0  0
   -5.8311    1.4440   -1.1089 H   0  0  0  1  0  0  0  0  0  0  0  0
   -1.2957    1.9167   -0.5396 H   0  0  0  1  0  0  0  0  0  0  0  0
   -0.6928    2.4865   -2.0778 H   0  0  0  1  0  0  0  0  0  0  0  0
  1  4  1  0  0  0  0
  2  4  1  0  0  0  0
  2  5  2  0  0  0  0
  2  6  1  0  0  0  0
  3  4  1  0  0  0  0
  3  7  1  0  0  0  0
  3  8  1  0  0  0  0
  4 26  1  0  0  0  0
  6  9  1  0  0  0  0
  6 12  1  0  0  0  0
  8 10  1  0  0  0  0
  8 11  2  0  0  0  0
  9 13  1  0  0  0  0
  9 14  1  0  0  0  0
  9 15  1  0  0  0  0
 10 16  1  0  0  0  0
 10 17  1  0  0  0  0
 10 18  1  0  0  0  0
 19 20  1  0  0  0  0
 20 21  4  0  0  0  0
 20 25  4  0  0  0  0
 21 22  4  0  0  0  0
 21 27  1  0  0  0  0
 22 23  4  0  0  0  0
 22 28  1  0  0  0  0
 23 24  4  0  0  0  0
 23 26  1  0  0  0  0
 24 25  4  0  0  0  0
 24 29  1  0  0  0  0
 25 30  1  0  0  0  0
 26 31  1  0  0  0  0
 26 32  1  0  0  0  0
M  END
> <BCLConfClusterSize>
1

> <ConfClashScore>
0 

> <ConfOneFourInteractionScore>
-0.957723 

> <ConfScore>
0.399958 

> <ConfScorePBest>
0.00376109 

> <ConfTolerance>
0.300164 

> <RosettaParamsInstructions>
M  ROOT 3
M  POLY_N_BB 3
M  POLY_CA_BB 4
M  POLY_C_BB 2
M  POLY_O_BB 5
M  POLY_IGNORE 9 10 11 12 13 14 15 16 17 18 
M  POLY_UPPER 6
M  POLY_LOWER 8
M  POLY_CHG 0
M  POLY_PROPERTIES ALPHA_AA D_AA PROTEIN AROMATIC POLYMER 
M  END

$$$$



 32 32  0  0  0  0  0  0  0  0999 V2000
    0.5024    1.7929   -1.2361 H   0  0  0  1  0  0  0  0  0  0  0  0
   -0.3680    1.4891   -3.1393 C   0  0  0  1  0  0  0  0  0  0  0  0
   -0.9636    0.3459   -1.0174 N   0  0  0  1  0  0  0  0  0  0  0  0
   -0.4677    1.5700   -1.6285 C   0  0  0  1  0  0  0  0  0  0  0  0
   -0.2628    2.5052   -3.8286 O   0  0  0  1  0  0  0  0  0  0  0  0
   -0.4020    0.2525   -3.6606 N   0  0  0  1  0  0  0  0  0  0  0  0
   -1.8287    0.3637   -0.5572 H   0  0  0  1  0  0  0  0  0  0  0  0
   -0.2738   -0.8128   -1.0624 C   0  0  0  1  0  0  0  0  0  0  0  0
   -0.1318   -0.0060   -5.0671 C   0  0  0  1  0  0  0  0  0  0  0  0
   -0.8323   -2.0045   -0.3093 C   0  0  0  1  0  0  0  0  0  0  0  0
    0.7775   -0.9024   -1.6950 O   0  0  0  1  0  0  0  0  0  0  0  0
   -0.6163   -0.5025   -3.0737 H   0  0  0  1  0  0  0  0  0  0  0  0
    0.7951    0.4519   -5.3427 H   0  0  0  1  0  0  0  0  0  0  0  0
   -0.9218    0.4019   -5.6626 H   0  0  0  1  0  0  0  0  0  0  0  0
   -0.0703   -1.0617   -5.2300 H   0  0  0  1  0  0  0  0  0  0  0  0
   -0.0283   -2.5618    0.1241 H   0  0  0  1  0  0  0  0  0  0  0  0
   -1.3760   -2.6306   -0.9856 H   0  0  0  1  0  0  0  0  0  0  0  0
   -1.4867   -1.6621    0.4649 H   0  0  0  1  0  0  0  0  0  0  0  0
   -6.5450    2.1585   -3.4937 F   0  0  0  1  0  0  0  0  0  0  0  0
   -5.3149    2.2962   -2.9627 C   0  0  0  1  0  0  0  0  0  0  0  0
   -4.2965    2.8647   -3.7117 C   0  0  0  1  0  0  0  0  0  0  0  0
   -3.0329    3.0011   -3.1686 C   0  0  0  1  0  0  0  0  0  0  0  0
   -2.7853    2.5743   -1.8732 C   0  0  0  1  0  0  0  0  0  0  0  0
   -3.8009    2.0075   -1.1265 C   0  0  0  1  0  0  0  0  0  0  0  0
   -5.0683    1.8706   -1.6711 C   0  0  0  1  0  0  0  0  0  0  0  0
   -1.4060    2.7284   -1.2772 C   0  0  0  1  0  0  0  0  0  0  0  0
   -4.4831    3.1886   -4.6822 H   0  0  0  1  0  0  0  0  0  0  0  0
   -2.2677    3.4239   -3.7319 H   0  0  0  1  0  0  0  0  0  0  0  0
   -3.6142    1.6836   -0.1560 H   0  0  0  1  0  0  0  0  0  0  0  0
   -5.8335    1.4478   -1.1078 H   0  0  0  1  0  0  0  0  0  0  0  0
   -0.9765    3.6375   -1.6431 H   0  0  0  1  0  0  0  0  0  0  0  0
   -1.4990    2.7805   -0.2125 H   0  0  0  1  0  0  0  0  0  0  0  0
  1  4  1  0  0  0  0
  2  4  1  0  0  0  0
  2  5  2  0  0  0  0
  2  6  1  0  0  0  0
  3  4  1  0  0  0  0
  3  7  1  0  0  0  0
  3  8  1  0  0  0  0
  4 26  1  0  0  0  0
  6  9  1  0  0  0  0
  6 12  1  0  0  0  0
  8 10  1  0  0  0  0
  8 11  2  0  0  0  0
  9 13  1  0  0  0  0
  9 14  1  0  0  0  0
  9 15  1  0  0  0  0
 10 16  1  0  0  0  0
 10 17  1  0  0  0  0
 10 18  1  0  0  0  0
 19 20  1  0  0  0  0
 20 21  4  0  0  0  0
 20 25  4  0  0  0  0
 21 22  4  0  0  0  0
 21 27  1  0  0  0  0
 22 23  4  0  0  0  0
 22 28  1  0  0  0  0
 23 24  4  0  0  0  0
 23 26  1  0  0  0  0
 24 25  4  0  0  0  0
 24 29  1  0  0  0  0
 25 30  1  0  0  0  0
 26 31  1  0  0  0  0
 26 32  1  0  0  0  0
M  END
> <BCLConfClusterSize>
1

> <ConfClashScore>
0.00644554 

> <ConfOneFourInteractionScore>
-0.957074 

> <ConfScore>
0.403538 

> <ConfScorePBest>
0.00373261 

> <ConfTolerance>
0.32801 

> <RosettaParamsInstructions>
M  ROOT 3
M  POLY_N_BB 3
M  POLY_CA_BB 4
M  POLY_C_BB 2
M  POLY_O_BB 5
M  POLY_IGNORE 9 10 11 12 13 14 15 16 17 18 
M  POLY_UPPER 6
M  POLY_LOWER 8
M  POLY_CHG 0
M  POLY_PROPERTIES ALPHA_AA D_AA PROTEIN AROMATIC POLYMER 
M  END

$$$$



 32 32  0  0  0  0  0  0  0  0999 V2000
   -0.1908    4.1993   -0.3824 H   0  0  0  1  0  0  0  0  0  0  0  0
   -1.7621    3.8732    0.9604 C   0  0  0  1  0  0  0  0  0  0  0  0
   -1.8511    5.1675   -1.1319 N   0  0  0  1  0  0  0  0  0  0  0  0
   -1.2406    4.0062   -0.4572 C   0  0  0  1  0  0  0  0  0  0  0  0
   -2.4551    2.9261    1.2937 O   0  0  0  1  0  0  0  0  0  0  0  0
   -1.4117    4.8557    1.8054 N   0  0  0  1  0  0  0  0  0  0  0  0
   -1.2547    5.8058   -1.5759 H   0  0  0  1  0  0  0  0  0  0  0  0
   -3.1708    5.4052   -1.1763 C   0  0  0  1  0  0  0  0  0  0  0  0
   -1.6652    4.8520    3.2384 C   0  0  0  1  0  0  0  0  0  0  0  0
   -3.6376    6.7306   -1.7462 C   0  0  0  1  0  0  0  0  0  0  0  0
   -3.9791    4.5755   -0.7681 O   0  0  0  1  0  0  0  0  0  0  0  0
   -0.9504    5.6340    1.4288 H   0  0  0  1  0  0  0  0  0  0  0  0
   -1.8110    3.8461    3.5728 H   0  0  0  1  0  0  0  0  0  0  0  0
   -2.5428    5.4275    3.4466 H   0  0  0  1  0  0  0  0  0  0  0  0
   -0.8281    5.2797    3.7495 H   0  0  0  1  0  0  0  0  0  0  0  0
   -2.9319    7.0752   -2.4730 H   0  0  0  1  0  0  0  0  0  0  0  0
   -3.7170    7.4495   -0.9577 H   0  0  0  1  0  0  0  0  0  0  0  0
   -4.5932    6.6023   -2.2102 H   0  0  0  1  0  0  0  0  0  0  0  0
   -6.5436    2.1603   -3.4973 F   0  0  0  1  0  0  0  0  0  0  0  0
   -5.3149    2.2961   -2.9625 C   0  0  0  1  0  0  0  0  0  0  0  0
   -4.2936    2.8641   -3.7080 C   0  0  0  1  0  0  0  0  0  0  0  0
   -3.0315    2.9985   -3.1610 C   0  0  0  1  0  0  0  0  0  0  0  0
   -2.7882    2.5704   -1.8653 C   0  0  0  1  0  0  0  0  0  0  0  0
   -3.8067    2.0042   -1.1220 C   0  0  0  1  0  0  0  0  0  0  0  0
   -5.0726    1.8692   -1.6705 C   0  0  0  1  0  0  0  0  0  0  0  0
   -1.3927    2.7464   -1.3147 C   0  0  0  1  0  0  0  0  0  0  0  0
   -4.4770    3.1890   -4.6788 H   0  0  0  1  0  0  0  0  0  0  0  0
   -2.2642    3.4210   -3.7217 H   0  0  0  1  0  0  0  0  0  0  0  0
   -3.6232    1.6793   -0.1513 H   0  0  0  1  0  0  0  0  0  0  0  0
   -5.8400    1.4467   -1.1098 H   0  0  0  1  0  0  0  0  0  0  0  0
   -1.1539    1.8942   -0.7133 H   0  0  0  1  0  0  0  0  0  0  0  0
   -0.7083    2.8080   -2.1348 H   0  0  0  1  0  0  0  0  0  0  0  0
  1  4  1  0  0  0  0
  2  4  1  0  0  0  0
  2  5  2  0  0  0  0
  2  6  1  0  0  0  0
  3  4  1  0  0  0  0
  3  7  1  0  0  0  0
  3  8  1  0  0  0  0
  4 26  1  0  0  0  0
  6  9  1  0  0  0  0
  6 12  1  0  0  0  0
  8 10  1  0  0  0  0
  8 11  2  0  0  0  0
  9 13  1  0  0  0  0
  9 14  1  0  0  0  0
  9 15  1  0  0  0  0
 10 16  1  0  0  0  0
 10 17  1  0  0  0  0
 10 18  1  0  0  0  0
 19 20  1  0  0  0  0
 20 21  4  0  0  0  0
 20 25  4  0  0  0  0
 21 22  4  0  0  0  0
 21 27  1  0  0  0  0
 22 23  4  0  0  0  0
 22 28  1  0  0  0  0
 23 24  4  0  0  0  0
 23 26  1  0  0  0  0
 24 25  4  0  0  0  0
 24 29  1  0  0  0  0
 25 30  1  0  0  0  0
 26 31  1  0  0  0  0
 26 32  1  0  0  0  0
M  END
> <BCLConfClusterSize>
1

> <ConfClashScore>
0 

> <ConfOneFourInteractionScore>
-0.966825 

> <ConfScore>
0.407583 

> <ConfScorePBest>
0.00370413 

> <ConfTolerance>
0.558144 

> <RosettaParamsInstructions>
M  ROOT 3
M  POLY_N_BB 3
M  POLY_CA_BB 4
M  POLY_C_BB 2
M  POLY_O_BB 5
M  POLY_IGNORE 9 10 11 12 13 14 15 16 17 18 
M  POLY_UPPER 6
M  POLY_LOWER 8
M  POLY_CHG 0
M  POLY_PROPERTIES ALPHA_AA D_AA PROTEIN AROMATIC POLYMER 
M  END

$$$$



 32 32  0  0  0  0  0  0  0  0999 V2000
    0.0981    4.0642   -0.8022 H   0  0  0  1  0  0  0  0  0  0  0  0
   -1.6218    4.9751   -0.0945 C   0  0  0  1  0  0  0  0  0  0  0  0
   -0.8142    4.8478   -2.4572 N   0  0  0  1  0  0  0  0  0  0  0  0
   -0.9096    4.1511   -1.1514 C   0  0  0  1  0  0  0  0  0  0  0  0
   -0.9855    5.6106    0.7450 O   0  0  0  1  0  0  0  0  0  0  0  0
   -2.9578    4.9889   -0.1037 N   0  0  0  1  0  0  0  0  0  0  0  0
   -0.4127    4.3393   -3.1925 H   0  0  0  1  0  0  0  0  0  0  0  0
   -1.2141    6.0914   -2.7455 C   0  0  0  1  0  0  0  0  0  0  0  0
   -3.7337    5.7723    0.8461 C   0  0  0  1  0  0  0  0  0  0  0  0
   -0.9777    6.5451   -4.1729 C   0  0  0  1  0  0  0  0  0  0  0  0
   -1.7373    6.8278   -1.9255 O   0  0  0  1  0  0  0  0  0  0  0  0
   -3.4317    4.4529   -0.7734 H   0  0  0  1  0  0  0  0  0  0  0  0
   -4.7774    5.6253    0.6620 H   0  0  0  1  0  0  0  0  0  0  0  0
   -3.4942    6.8090    0.7328 H   0  0  0  1  0  0  0  0  0  0  0  0
   -3.4998    5.4585    1.8420 H   0  0  0  1  0  0  0  0  0  0  0  0
   -1.9175    6.6608   -4.6711 H   0  0  0  1  0  0  0  0  0  0  0  0
   -0.3896    5.8136   -4.6866 H   0  0  0  1  0  0  0  0  0  0  0  0
   -0.4592    7.4811   -4.1681 H   0  0  0  1  0  0  0  0  0  0  0  0
   -6.5450    2.1585   -3.4937 F   0  0  0  1  0  0  0  0  0  0  0  0
   -5.3149    2.2962   -2.9627 C   0  0  0  1  0  0  0  0  0  0  0  0
   -4.2965    2.8647   -3.7117 C   0  0  0  1  0  0  0  0  0  0  0  0
   -3.0329    3.0011   -3.1686 C   0  0  0  1  0  0  0  0  0  0  0  0
   -2.7853    2.5743   -1.8732 C   0  0  0  1  0  0  0  0  0  0  0  0
   -3.8009    2.0075   -1.1265 C   0  0  0  1  0  0  0  0  0  0  0  0
   -5.0683    1.8706   -1.6711 C   0  0  0  1  0  0  0  0  0  0  0  0
   -1.4060    2.7284   -1.2772 C   0  0  0  1  0  0  0  0  0  0  0  0
   -4.4831    3.1886   -4.6822 H   0  0  0  1  0  0  0  0  0  0  0  0
   -2.2677    3.4239   -3.7319 H   0  0  0  1  0  0  0  0  0  0  0  0
   -3.6142    1.6836   -0.1560 H   0  0  0  1  0  0  0  0  0  0  0  0
   -5.8335    1.4478   -1.1078 H   0  0  0  1  0  0  0  0  0  0  0  0
   -1.4190    2.2956   -0.2987 H   0  0  0  1  0  0  0  0  0  0  0  0
   -0.7172    2.1920   -1.8958 H   0  0  0  1  0  0  0  0  0  0  0  0
  1  4  1  0  0  0  0
  2  4  1  0  0  0  0
  2  5  2  0  0  0  0
  2  6  1  0  0  0  0
  3  4  1  0  0  0  0
  3  7  1  0  0  0  0
  3  8  1  0  0  0  0
  4 26  1  0  0  0  0
  6  9  1  0  0  0  0
  6 12  1  0  0  0  0
  8 10  1  0  0  0  0
  8 11  2  0  0  0  0
  9 13  1  0  0  0  0
  9 14  1  0  0  0  0
  9 15  1  0  0  0  0
 10 16  1  0  0  0  0
 10 17  1  0  0  0  0
 10 18  1  0  0  0  0
 19 20  1  0  0  0  0
 20 21  4  0  0  0  0
 20 25  4  0  0  0  0
 21 22  4  0  0  0  0
 21 27  1  0  0  0  0
 22 23  4  0  0  0  0
 22 28  1  0  0  0  0
 23 24  4  0  0  0  0
 23 26  1  0  0  0  0
 24 25  4  0  0  0  0
 24 29  1  0  0  0  0
 25 30  1  0  0  0  0
 26 31  1  0  0  0  0
 26 32  1  0  0  0  0
M  END
> <BCLConfClusterSize>
1

> <ConfClashScore>
0 

> <ConfOneFourInteractionScore>
-0.944279 

> <ConfScore>
0.411628 

> <ConfScorePBest>
0.00367564 

> <ConfTolerance>
0.570251 

> <RosettaParamsInstructions>
M  ROOT 3
M  POLY_N_BB 3
M  POLY_CA_BB 4
M  POLY_C_BB 2
M  POLY_O_BB 5
M  POLY_IGNORE 9 10 11 12 13 14 15 16 17 18 
M  POLY_UPPER 6
M  POLY_LOWER 8
M  POLY_CHG 0
M  POLY_PROPERTIES ALPHA_AA D_AA PROTEIN AROMATIC POLYMER 
M  END

$$$$



 32 32  0  0  0  0  0  0  0  0999 V2000
   -0.6790    0.8663   -2.1154 H   0  0  0  1  0  0  0  0  0  0  0  0
    1.0184    1.9518   -1.5030 C   0  0  0  1  0  0  0  0  0  0  0  0
   -0.3951    2.3932   -3.4757 N   0  0  0  1  0  0  0  0  0  0  0  0
   -0.3714    1.8911   -2.1065 C   0  0  0  1  0  0  0  0  0  0  0  0
    1.1845    1.9727   -0.2863 O   0  0  0  1  0  0  0  0  0  0  0  0
    2.0278    1.9803   -2.3745 N   0  0  0  1  0  0  0  0  0  0  0  0
   -0.8882    1.9044   -4.1673 H   0  0  0  1  0  0  0  0  0  0  0  0
    0.2594    3.5277   -3.7916 C   0  0  0  1  0  0  0  0  0  0  0  0
    3.4267    2.1738   -2.0230 C   0  0  0  1  0  0  0  0  0  0  0  0
    0.0542    4.0345   -5.2059 C   0  0  0  1  0  0  0  0  0  0  0  0
    0.9756    4.1229   -3.0035 O   0  0  0  1  0  0  0  0  0  0  0  0
    1.8111    1.8620   -3.3229 H   0  0  0  1  0  0  0  0  0  0  0  0
    3.9712    2.4933   -2.8870 H   0  0  0  1  0  0  0  0  0  0  0  0
    3.8351    1.2519   -1.6651 H   0  0  0  1  0  0  0  0  0  0  0  0
    3.5024    2.9186   -1.2585 H   0  0  0  1  0  0  0  0  0  0  0  0
   -0.9280    4.4490   -5.2978 H   0  0  0  1  0  0  0  0  0  0  0  0
    0.1645    3.2232   -5.8948 H   0  0  0  1  0  0  0  0  0  0  0  0
    0.7812    4.7889   -5.4232 H   0  0  0  1  0  0  0  0  0  0  0  0
   -6.5400    2.1402   -3.4999 F   0  0  0  1  0  0  0  0  0  0  0  0
   -5.3132    2.2907   -2.9648 C   0  0  0  1  0  0  0  0  0  0  0  0
   -4.2970    2.8657   -3.7120 C   0  0  0  1  0  0  0  0  0  0  0  0
   -3.0367    3.0151   -3.1647 C   0  0  0  1  0  0  0  0  0  0  0  0
   -2.7902    2.5950   -1.8669 C   0  0  0  1  0  0  0  0  0  0  0  0
   -3.8035    2.0217   -1.1220 C   0  0  0  1  0  0  0  0  0  0  0  0
   -5.0676    1.8717   -1.6708 C   0  0  0  1  0  0  0  0  0  0  0  0
   -1.3954    2.6708   -1.2922 C   0  0  0  1  0  0  0  0  0  0  0  0
   -4.4829    3.1845   -4.6843 H   0  0  0  1  0  0  0  0  0  0  0  0
   -2.2733    3.4429   -3.7266 H   0  0  0  1  0  0  0  0  0  0  0  0
   -3.6175    1.7028   -0.1497 H   0  0  0  1  0  0  0  0  0  0  0  0
   -5.8311    1.4440   -1.1089 H   0  0  0  1  0  0  0  0  0  0  0  0
   -1.0953    3.6974   -1.2608 H   0  0  0  1  0  0  0  0  0  0  0  0
   -1.4144    2.2737   -0.2988 H   0  0  0  1  0  0  0  0  0  0  0  0
  1  4  1  0  0  0  0
  2  4  1  0  0  0  0
  2  5  2  0  0  0  0
  2  6  1  0  0  0  0
  3  4  1  0  0  0  0
  3  7  1  0  0  0  0
  3  8  1  0  0  0  0
  4 26  1  0  0  0  0
  6  9  1  0  0  0  0
  6 12  1  0  0  0  0
  8 10  1  0  0  0  0
  8 11  2  0  0  0  0
  9 13  1  0  0  0  0
  9 14  1  0  0  0  0
  9 15  1  0  0  0  0
 10 16  1  0  0  0  0
 10 17  1  0  0  0  0
 10 18  1  0  0  0  0
 19 20  1  0  0  0  0
 20 21  4  0  0  0  0
 20 25  4  0  0  0  0
 21 22  4  0  0  0  0
 21 27  1  0  0  0  0
 22 23  4  0  0  0  0
 22 28  1  0  0  0  0
 23 24  4  0  0  0  0
 23 26  1  0  0  0  0
 24 25  4  0  0  0  0
 24 29  1  0  0  0  0
 25 30  1  0  0  0  0
 26 31  1  0  0  0  0
 26 32  1  0  0  0  0
M  END
> <BCLConfClusterSize>
1

> <ConfClashScore>
0 

> <ConfOneFourInteractionScore>
-0.953847 

> <ConfScore>
0.414978 

> <ConfScorePBest>
0.00364716 

> <ConfTolerance>
0.5546 

> <RosettaParamsInstructions>
M  ROOT 3
M  POLY_N_BB 3
M  POLY_CA_BB 4
M  POLY_C_BB 2
M  POLY_O_BB 5
M  POLY_IGNORE 9 10 11 12 13 14 15 16 17 18 
M  POLY_UPPER 6
M  POLY_LOWER 8
M  POLY_CHG 0
M  POLY_PROPERTIES ALPHA_AA D_AA PROTEIN AROMATIC POLYMER 
M  END

$$$$



 32 32  0  0  0  0  0  0  0  0999 V2000
    0.5681    2.0826   -1.5685 H   0  0  0  1  0  0  0  0  0  0  0  0
   -0.3835    2.0754   -3.4384 C   0  0  0  1  0  0  0  0  0  0  0  0
   -0.6422    0.4199   -1.6355 N   0  0  0  1  0  0  0  0  0  0  0  0
   -0.3971    1.8199   -1.9483 C   0  0  0  1  0  0  0  0  0  0  0  0
   -0.6814    1.1872   -4.2326 O   0  0  0  1  0  0  0  0  0  0  0  0
   -0.0366    3.2999   -3.8656 N   0  0  0  1  0  0  0  0  0  0  0  0
   -0.0737   -0.0229   -0.9713 H   0  0  0  1  0  0  0  0  0  0  0  0
   -1.6249   -0.2897   -2.2282 C   0  0  0  1  0  0  0  0  0  0  0  0
    0.0714    3.6765   -5.2671 C   0  0  0  1  0  0  0  0  0  0  0  0
   -1.7525   -1.7598   -1.8793 C   0  0  0  1  0  0  0  0  0  0  0  0
   -2.3960    0.2382   -3.0284 O   0  0  0  1  0  0  0  0  0  0  0  0
    0.1562    3.9837   -3.1906 H   0  0  0  1  0  0  0  0  0  0  0  0
   -0.2088    2.8472   -5.8824 H   0  0  0  1  0  0  0  0  0  0  0  0
    1.0811    3.9562   -5.4842 H   0  0  0  1  0  0  0  0  0  0  0  0
   -0.5786    4.5030   -5.4652 H   0  0  0  1  0  0  0  0  0  0  0  0
   -2.0501   -1.8596   -0.8564 H   0  0  0  1  0  0  0  0  0  0  0  0
   -0.8095   -2.2438   -2.0250 H   0  0  0  1  0  0  0  0  0  0  0  0
   -2.4881   -2.2133   -2.5103 H   0  0  0  1  0  0  0  0  0  0  0  0
   -6.5463    2.1567   -3.4899 F   0  0  0  1  0  0  0  0  0  0  0  0
   -5.3147    2.2963   -2.9629 C   0  0  0  1  0  0  0  0  0  0  0  0
   -4.2994    2.8654   -3.7156 C   0  0  0  1  0  0  0  0  0  0  0  0
   -3.0342    3.0038   -3.1767 C   0  0  0  1  0  0  0  0  0  0  0  0
   -2.7820    2.5785   -1.8817 C   0  0  0  1  0  0  0  0  0  0  0  0
   -3.7945    2.0111   -1.1313 C   0  0  0  1  0  0  0  0  0  0  0  0
   -5.0635    1.8722   -1.6717 C   0  0  0  1  0  0  0  0  0  0  0  0
   -1.4219    2.7089   -1.2377 C   0  0  0  1  0  0  0  0  0  0  0  0
   -4.4895    3.1882   -4.6858 H   0  0  0  1  0  0  0  0  0  0  0  0
   -2.2714    3.4270   -3.7428 H   0  0  0  1  0  0  0  0  0  0  0  0
   -3.6043    1.6883   -0.1611 H   0  0  0  1  0  0  0  0  0  0  0  0
   -5.8264    1.4489   -1.1056 H   0  0  0  1  0  0  0  0  0  0  0  0
   -1.1024    3.7284   -1.2963 H   0  0  0  1  0  0  0  0  0  0  0  0
   -1.4901    2.4144   -0.2113 H   0  0  0  1  0  0  0  0  0  0  0  0
  1  4  1  0  0  0  0
  2  4  1  0  0  0  0
  2  5  2  0  0  0  0
  2  6  1  0  0  0  0
  3  4  1  0  0  0  0
  3  7  1  0  0  0  0
  3  8  1  0  0  0  0
  4 26  1  0  0  0  0
  6  9  1  0  0  0  0
  6 12  1  0  0  0  0
  8 10  1  0  0  0  0
  8 11  2  0  0  0  0
  9 13  1  0  0  0  0
  9 14  1  0  0  0  0
  9 15  1  0  0  0  0
 10 16  1  0  0  0  0
 10 17  1  0  0  0  0
 10 18  1  0  0  0  0
 19 20  1  0  0  0  0
 20 21  4  0  0  0  0
 20 25  4  0  0  0  0
 21 22  4  0  0  0  0
 21 27  1  0  0  0  0
 22 23  4  0  0  0  0
 22 28  1  0  0  0  0
 23 24  4  0  0  0  0
 23 26  1  0  0  0  0
 24 25  4  0  0  0  0
 24 29  1  0  0  0  0
 25 30  1  0  0  0  0
 26 31  1  0  0  0  0
 26 32  1  0  0  0  0
M  END
> <BCLConfClusterSize>
1

> <ConfClashScore>
0.000600172 

> <ConfOneFourInteractionScore>
-0.957642 

> <ConfScore>
0.415914 

> <ConfScorePBest>
0.00361868 

> <ConfTolerance>
0.470085 

> <RosettaParamsInstructions>
M  ROOT 3
M  POLY_N_BB 3
M  POLY_CA_BB 4
M  POLY_C_BB 2
M  POLY_O_BB 5
M  POLY_IGNORE 9 10 11 12 13 14 15 16 17 18 
M  POLY_UPPER 6
M  POLY_LOWER 8
M  POLY_CHG 0
M  POLY_PROPERTIES ALPHA_AA D_AA PROTEIN AROMATIC POLYMER 
M  END

$$$$



 32 32  0  0  0  0  0  0  0  0999 V2000
   -0.3048    4.0467   -0.0307 H   0  0  0  1  0  0  0  0  0  0  0  0
   -2.1869    4.0329    0.8581 C   0  0  0  1  0  0  0  0  0  0  0  0
   -1.4952    5.2342   -1.1991 N   0  0  0  1  0  0  0  0  0  0  0  0
   -1.3151    4.0260   -0.3824 C   0  0  0  1  0  0  0  0  0  0  0  0
   -3.4110    3.9324    0.7866 O   0  0  0  1  0  0  0  0  0  0  0  0
   -1.4960    4.1565    2.0025 N   0  0  0  1  0  0  0  0  0  0  0  0
   -2.3489    5.3701   -1.6608 H   0  0  0  1  0  0  0  0  0  0  0  0
   -0.5356    6.1539   -1.3342 C   0  0  0  1  0  0  0  0  0  0  0  0
   -2.1506    4.2800    3.2963 C   0  0  0  1  0  0  0  0  0  0  0  0
   -0.9060    7.3754   -2.1446 C   0  0  0  1  0  0  0  0  0  0  0  0
    0.5748    6.0330   -0.8422 O   0  0  0  1  0  0  0  0  0  0  0  0
   -0.5167    4.1639    1.9652 H   0  0  0  1  0  0  0  0  0  0  0  0
   -2.5477    3.3301    3.5878 H   0  0  0  1  0  0  0  0  0  0  0  0
   -2.9458    4.9926    3.2269 H   0  0  0  1  0  0  0  0  0  0  0  0
   -1.4397    4.6080    4.0256 H   0  0  0  1  0  0  0  0  0  0  0  0
   -0.0334    7.7601   -2.6299 H   0  0  0  1  0  0  0  0  0  0  0  0
   -1.3122    8.1235   -1.4963 H   0  0  0  1  0  0  0  0  0  0  0  0
   -1.6344    7.1072   -2.8810 H   0  0  0  1  0  0  0  0  0  0  0  0
   -6.5507    2.1756   -3.4839 F   0  0  0  1  0  0  0  0  0  0  0  0
   -5.3161    2.3020   -2.9606 C   0  0  0  1  0  0  0  0  0  0  0  0
   -4.2980    2.8644   -3.7147 C   0  0  0  1  0  0  0  0  0  0  0  0
   -3.0299    2.9891   -3.1795 C   0  0  0  1  0  0  0  0  0  0  0  0
   -2.7773    2.5569   -1.8868 C   0  0  0  1  0  0  0  0  0  0  0  0
   -3.7926    1.9961   -1.1351 C   0  0  0  1  0  0  0  0  0  0  0  0
   -5.0645    1.8709   -1.6717 C   0  0  0  1  0  0  0  0  0  0  0  0
   -1.4341    2.7697   -1.2297 C   0  0  0  1  0  0  0  0  0  0  0  0
   -4.4884    3.1924   -4.6830 H   0  0  0  1  0  0  0  0  0  0  0  0
   -2.2650    3.4074   -3.7466 H   0  0  0  1  0  0  0  0  0  0  0  0
   -3.6022    1.6681   -0.1667 H   0  0  0  1  0  0  0  0  0  0  0  0
   -5.8294    1.4526   -1.1046 H   0  0  0  1  0  0  0  0  0  0  0  0
   -1.2374    1.9272   -0.6001 H   0  0  0  1  0  0  0  0  0  0  0  0
   -0.6937    2.8201   -2.0005 H   0  0  0  1  0  0  0  0  0  0  0  0
  1  4  1  0  0  0  0
  2  4  1  0  0  0  0
  2  5  2  0  0  0  0
  2  6  1  0  0  0  0
  3  4  1  0  0  0  0
  3  7  1  0  0  0  0
  3  8  1  0  0  0  0
  4 26  1  0  0  0  0
  6  9  1  0  0  0  0
  6 12  1  0  0  0  0
  8 10  1  0  0  0  0
  8 11  2  0  0  0  0
  9 13  1  0  0  0  0
  9 14  1  0  0  0  0
  9 15  1  0  0  0  0
 10 16  1  0  0  0  0
 10 17  1  0  0  0  0
 10 18  1  0  0  0  0
 19 20  1  0  0  0  0
 20 21  4  0  0  0  0
 20 25  4  0  0  0  0
 21 22  4  0  0  0  0
 21 27  1  0  0  0  0
 22 23  4  0  0  0  0
 22 28  1  0  0  0  0
 23 24  4  0  0  0  0
 23 26  1  0  0  0  0
 24 25  4  0  0  0  0
 24 29  1  0  0  0  0
 25 30  1  0  0  0  0
 26 31  1  0  0  0  0
 26 32  1  0  0  0  0
M  END
> <BCLConfClusterSize>
1

> <ConfClashScore>
0 

> <ConfOneFourInteractionScore>
-0.976093 

> <ConfScore>
0.423464 

> <ConfScorePBest>
0.0035902 

> <ConfTolerance>
0.715563 

> <RosettaParamsInstructions>
M  ROOT 3
M  POLY_N_BB 3
M  POLY_CA_BB 4
M  POLY_C_BB 2
M  POLY_O_BB 5
M  POLY_IGNORE 9 10 11 12 13 14 15 16 17 18 
M  POLY_UPPER 6
M  POLY_LOWER 8
M  POLY_CHG 0
M  POLY_PROPERTIES ALPHA_AA D_AA PROTEIN AROMATIC POLYMER 
M  END

$$$$



 32 32  0  0  0  0  0  0  0  0999 V2000
   -1.6465    4.7076   -0.6326 H   0  0  0  1  0  0  0  0  0  0  0  0
   -0.5735    4.7848   -2.4374 C   0  0  0  1  0  0  0  0  0  0  0  0
    0.2839    4.1262   -0.2221 N   0  0  0  1  0  0  0  0  0  0  0  0
   -0.8754    4.1332   -1.1019 C   0  0  0  1  0  0  0  0  0  0  0  0
    0.2711    4.3186   -3.1975 O   0  0  0  1  0  0  0  0  0  0  0  0
   -1.2840    5.8876   -2.7221 N   0  0  0  1  0  0  0  0  0  0  0  0
    0.9980    3.4753   -0.3860 H   0  0  0  1  0  0  0  0  0  0  0  0
    0.4095    4.9833    0.8097 C   0  0  0  1  0  0  0  0  0  0  0  0
   -0.9673    6.7457   -3.8541 C   0  0  0  1  0  0  0  0  0  0  0  0
    1.7396    4.8787    1.5303 C   0  0  0  1  0  0  0  0  0  0  0  0
   -0.4456    5.7806    1.1581 O   0  0  0  1  0  0  0  0  0  0  0  0
   -2.0422    6.1231   -2.1477 H   0  0  0  1  0  0  0  0  0  0  0  0
   -1.2110    7.7593   -3.6131 H   0  0  0  1  0  0  0  0  0  0  0  0
   -1.5352    6.4355   -4.7062 H   0  0  0  1  0  0  0  0  0  0  0  0
    0.0771    6.6731   -4.0751 H   0  0  0  1  0  0  0  0  0  0  0  0
    1.7291    4.0267    2.1775 H   0  0  0  1  0  0  0  0  0  0  0  0
    1.9019    5.7640    2.1091 H   0  0  0  1  0  0  0  0  0  0  0  0
    2.5262    4.7718    0.8129 H   0  0  0  1  0  0  0  0  0  0  0  0
   -6.5332    2.1730   -3.5231 F   0  0  0  1  0  0  0  0  0  0  0  0
   -5.3173    2.2932   -2.9566 C   0  0  0  1  0  0  0  0  0  0  0  0
   -4.3009    2.8621   -3.7082 C   0  0  0  1  0  0  0  0  0  0  0  0
   -3.0363    2.9999   -3.1680 C   0  0  0  1  0  0  0  0  0  0  0  0
   -2.7855    2.5741   -1.8729 C   0  0  0  1  0  0  0  0  0  0  0  0
   -3.7989    2.0069   -1.1236 C   0  0  0  1  0  0  0  0  0  0  0  0
   -5.0674    1.8686   -1.6653 C   0  0  0  1  0  0  0  0  0  0  0  0
   -1.4050    2.7298   -1.2800 C   0  0  0  1  0  0  0  0  0  0  0  0
   -4.4900    3.1852   -4.6785 H   0  0  0  1  0  0  0  0  0  0  0  0
   -2.2727    3.4230   -3.7333 H   0  0  0  1  0  0  0  0  0  0  0  0
   -3.6098    1.6838   -0.1533 H   0  0  0  1  0  0  0  0  0  0  0  0
   -5.8310    1.4455   -1.1000 H   0  0  0  1  0  0  0  0  0  0  0  0
   -1.4169    2.2673   -0.3152 H   0  0  0  1  0  0  0  0  0  0  0  0
   -0.7220    2.2083   -1.9176 H   0  0  0  1  0  0  0  0  0  0  0  0
  1  4  1  0  0  0  0
  2  4  1  0  0  0  0
  2  5  2  0  0  0  0
  2  6  1  0  0  0  0
  3  4  1  0  0  0  0
  3  7  1  0  0  0  0
  3  8  1  0  0  0  0
  4 26  1  0  0  0  0
  6  9  1  0  0  0  0
  6 12  1  0  0  0  0
  8 10  1  0  0  0  0
  8 11  2  0  0  0  0
  9 13  1  0  0  0  0
  9 14  1  0  0  0  0
  9 15  1  0  0  0  0
 10 16  1  0  0  0  0
 10 17  1  0  0  0  0
 10 18  1  0  0  0  0
 19 20  1  0  0  0  0
 20 21  4  0  0  0  0
 20 25  4  0  0  0  0
 21 22  4  0  0  0  0
 21 27  1  0  0  0  0
 22 23  4  0  0  0  0
 22 28  1  0  0  0  0
 23 24  4  0  0  0  0
 23 26  1  0  0  0  0
 24 25  4  0  0  0  0
 24 29  1  0  0  0  0
 25 30  1  0  0  0  0
 26 31  1  0  0  0  0
 26 32  1  0  0  0  0
M  END
> <BCLConfClusterSize>
1

> <ConfClashScore>
0 

> <ConfOneFourInteractionScore>
-0.978127 

> <ConfScore>
0.424047 

> <ConfScorePBest>
0.00356172 

> <ConfTolerance>
0.601952 

> <RosettaParamsInstructions>
M  ROOT 3
M  POLY_N_BB 3
M  POLY_CA_BB 4
M  POLY_C_BB 2
M  POLY_O_BB 5
M  POLY_IGNORE 9 10 11 12 13 14 15 16 17 18 
M  POLY_UPPER 6
M  POLY_LOWER 8
M  POLY_CHG 0
M  POLY_PROPERTIES ALPHA_AA D_AA PROTEIN AROMATIC POLYMER 
M  END

$$$$



 32 32  0  0  0  0  0  0  0  0999 V2000
   -0.8168    1.0092   -2.3366 H   0  0  0  1  0  0  0  0  0  0  0  0
   -0.8583    0.4345   -0.3156 C   0  0  0  1  0  0  0  0  0  0  0  0
    0.8510    1.8130   -1.4369 N   0  0  0  1  0  0  0  0  0  0  0  0
   -0.5594    1.4536   -1.3979 C   0  0  0  1  0  0  0  0  0  0  0  0
   -1.9652   -0.0665   -0.2060 O   0  0  0  1  0  0  0  0  0  0  0  0
    0.1656    0.1301    0.4976 N   0  0  0  1  0  0  0  0  0  0  0  0
    1.1710    2.4853   -0.7997 H   0  0  0  1  0  0  0  0  0  0  0  0
    1.7351    1.2857   -2.2844 C   0  0  0  1  0  0  0  0  0  0  0  0
    0.0440   -0.8486    1.5677 C   0  0  0  1  0  0  0  0  0  0  0  0
    3.1357    1.8627   -2.2187 C   0  0  0  1  0  0  0  0  0  0  0  0
    1.4509    0.3879   -3.0762 O   0  0  0  1  0  0  0  0  0  0  0  0
    1.0248    0.5828    0.3660 H   0  0  0  1  0  0  0  0  0  0  0  0
   -0.6635   -1.6002    1.2856 H   0  0  0  1  0  0  0  0  0  0  0  0
   -0.2901   -0.3616    2.4599 H   0  0  0  1  0  0  0  0  0  0  0  0
    0.9961   -1.3038    1.7443 H   0  0  0  1  0  0  0  0  0  0  0  0
    3.8499    1.0901   -2.4136 H   0  0  0  1  0  0  0  0  0  0  0  0
    3.3082    2.2698   -1.2443 H   0  0  0  1  0  0  0  0  0  0  0  0
    3.2376    2.6354   -2.9518 H   0  0  0  1  0  0  0  0  0  0  0  0
   -6.5463    2.1567   -3.4899 F   0  0  0  1  0  0  0  0  0  0  0  0
   -5.3147    2.2963   -2.9629 C   0  0  0  1  0  0  0  0  0  0  0  0
   -4.2994    2.8654   -3.7156 C   0  0  0  1  0  0  0  0  0  0  0  0
   -3.0342    3.0038   -3.1767 C   0  0  0  1  0  0  0  0  0  0  0  0
   -2.7820    2.5785   -1.8817 C   0  0  0  1  0  0  0  0  0  0  0  0
   -3.7945    2.0111   -1.1313 C   0  0  0  1  0  0  0  0  0  0  0  0
   -5.0635    1.8722   -1.6717 C   0  0  0  1  0  0  0  0  0  0  0  0
   -1.4219    2.7089   -1.2377 C   0  0  0  1  0  0  0  0  0  0  0  0
   -4.4895    3.1882   -4.6858 H   0  0  0  1  0  0  0  0  0  0  0  0
   -2.2714    3.4270   -3.7428 H   0  0  0  1  0  0  0  0  0  0  0  0
   -3.6043    1.6883   -0.1611 H   0  0  0  1  0  0  0  0  0  0  0  0
   -5.8264    1.4489   -1.1056 H   0  0  0  1  0  0  0  0  0  0  0  0
   -0.9098    3.5337   -1.6876 H   0  0  0  1  0  0  0  0  0  0  0  0
   -1.5565    2.8987   -0.1933 H   0  0  0  1  0  0  0  0  0  0  0  0
  1  4  1  0  0  0  0
  2  4  1  0  0  0  0
  2  5  2  0  0  0  0
  2  6  1  0  0  0  0
  3  4  1  0  0  0  0
  3  7  1  0  0  0  0
  3  8  1  0  0  0  0
  4 26  1  0  0  0  0
  6  9  1  0  0  0  0
  6 12  1  0  0  0  0
  8 10  1  0  0  0  0
  8 11  2  0  0  0  0
  9 13  1  0  0  0  0
  9 14  1  0  0  0  0
  9 15  1  0  0  0  0
 10 16  1  0  0  0  0
 10 17  1  0  0  0  0
 10 18  1  0  0  0  0
 19 20  1  0  0  0  0
 20 21  4  0  0  0  0
 20 25  4  0  0  0  0
 21 22  4  0  0  0  0
 21 27  1  0  0  0  0
 22 23  4  0  0  0  0
 22 28  1  0  0  0  0
 23 24  4  0  0  0  0
 23 26  1  0  0  0  0
 24 25  4  0  0  0  0
 24 29  1  0  0  0  0
 25 30  1  0  0  0  0
 26 31  1  0  0  0  0
 26 32  1  0  0  0  0
M  END
> <BCLConfClusterSize>
1

> <ConfClashScore>
0 

> <ConfOneFourInteractionScore>
-0.948834 

> <ConfScore>
0.427451 

> <ConfScorePBest>
0.00353324 

> <ConfTolerance>
0.70783 

> <RosettaParamsInstructions>
M  ROOT 3
M  POLY_N_BB 3
M  POLY_CA_BB 4
M  POLY_C_BB 2
M  POLY_O_BB 5
M  POLY_IGNORE 9 10 11 12 13 14 15 16 17 18 
M  POLY_UPPER 6
M  POLY_LOWER 8
M  POLY_CHG 0
M  POLY_PROPERTIES ALPHA_AA D_AA PROTEIN AROMATIC POLYMER 
M  END

$$$$



 32 32  0  0  0  0  0  0  0  0999 V2000
   -2.2786    3.3941    0.6023 H   0  0  0  1  0  0  0  0  0  0  0  0
   -1.8099    5.1090   -0.4567 C   0  0  0  1  0  0  0  0  0  0  0  0
   -0.2254    3.6469    0.6806 N   0  0  0  1  0  0  0  0  0  0  0  0
   -1.4959    3.7285   -0.0462 C   0  0  0  1  0  0  0  0  0  0  0  0
   -2.1896    5.9391    0.3642 O   0  0  0  1  0  0  0  0  0  0  0  0
   -1.6669    5.4326   -1.7639 N   0  0  0  1  0  0  0  0  0  0  0  0
    0.6075    3.9186    0.2413 H   0  0  0  1  0  0  0  0  0  0  0  0
   -0.1999    3.1928    1.9691 C   0  0  0  1  0  0  0  0  0  0  0  0
   -2.0197    6.7456   -2.2828 C   0  0  0  1  0  0  0  0  0  0  0  0
    1.2012    2.9858    2.5108 C   0  0  0  1  0  0  0  0  0  0  0  0
   -1.2194    2.9825    2.5998 O   0  0  0  1  0  0  0  0  0  0  0  0
   -1.3134    4.7591   -2.3819 H   0  0  0  1  0  0  0  0  0  0  0  0
   -2.0901    7.4423   -1.4738 H   0  0  0  1  0  0  0  0  0  0  0  0
   -2.9619    6.6883   -2.7867 H   0  0  0  1  0  0  0  0  0  0  0  0
   -1.2667    7.0716   -2.9695 H   0  0  0  1  0  0  0  0  0  0  0  0
    1.7234    3.9197    2.5168 H   0  0  0  1  0  0  0  0  0  0  0  0
    1.7241    2.2890    1.8896 H   0  0  0  1  0  0  0  0  0  0  0  0
    1.1447    2.6027    3.5083 H   0  0  0  1  0  0  0  0  0  0  0  0
   -6.5612    2.1612   -3.4540 F   0  0  0  1  0  0  0  0  0  0  0  0
   -5.3139    2.3050   -2.9667 C   0  0  0  1  0  0  0  0  0  0  0  0
   -4.2936    2.8669   -3.7182 C   0  0  0  1  0  0  0  0  0  0  0  0
   -3.0266    2.9903   -3.1801 C   0  0  0  1  0  0  0  0  0  0  0  0
   -2.7772    2.5570   -1.8872 C   0  0  0  1  0  0  0  0  0  0  0  0
   -3.7946    1.9967   -1.1380 C   0  0  0  1  0  0  0  0  0  0  0  0
   -5.0655    1.8729   -1.6776 C   0  0  0  1  0  0  0  0  0  0  0  0
   -1.4353    2.7684   -1.2269 C   0  0  0  1  0  0  0  0  0  0  0  0
   -4.4816    3.1957   -4.6868 H   0  0  0  1  0  0  0  0  0  0  0  0
   -2.2601    3.4083   -3.7453 H   0  0  0  1  0  0  0  0  0  0  0  0
   -3.6066    1.6679   -0.1694 H   0  0  0  1  0  0  0  0  0  0  0  0
   -5.8320    1.4549   -1.1124 H   0  0  0  1  0  0  0  0  0  0  0  0
   -1.0743    1.8231   -0.8791 H   0  0  0  1  0  0  0  0  0  0  0  0
   -0.7569    3.1644   -1.9534 H   0  0  0  1  0  0  0  0  0  0  0  0
  1  4  1  0  0  0  0
  2  4  1  0  0  0  0
  2  5  2  0  0  0  0
  2  6  1  0  0  0  0
  3  4  1  0  0  0  0
  3  7  1  0  0  0  0
  3  8  1  0  0  0  0
  4 26  1  0  0  0  0
  6  9  1  0  0  0  0
  6 12  1  0  0  0  0
  8 10  1  0  0  0  0
  8 11  2  0  0  0  0
  9 13  1  0  0  0  0
  9 14  1  0  0  0  0
  9 15  1  0  0  0  0
 10 16  1  0  0  0  0
 10 17  1  0  0  0  0
 10 18  1  0  0  0  0
 19 20  1  0  0  0  0
 20 21  4  0  0  0  0
 20 25  4  0  0  0  0
 21 22  4  0  0  0  0
 21 27  1  0  0  0  0
 22 23  4  0  0  0  0
 22 28  1  0  0  0  0
 23 24  4  0  0  0  0
 23 26  1  0  0  0  0
 24 25  4  0  0  0  0
 24 29  1  0  0  0  0
 25 30  1  0  0  0  0
 26 31  1  0  0  0  0
 26 32  1  0  0  0  0
M  END
> <BCLConfClusterSize>
1

> <ConfClashScore>
0 

> <ConfOneFourInteractionScore>
-0.926169 

> <ConfScore>
0.428865 

> <ConfScorePBest>
0.00350476 

> <ConfTolerance>
0.67186 

> <RosettaParamsInstructions>
M  ROOT 3
M  POLY_N_BB 3
M  POLY_CA_BB 4
M  POLY_C_BB 2
M  POLY_O_BB 5
M  POLY_IGNORE 9 10 11 12 13 14 15 16 17 18 
M  POLY_UPPER 6
M  POLY_LOWER 8
M  POLY_CHG 0
M  POLY_PROPERTIES ALPHA_AA D_AA PROTEIN AROMATIC POLYMER 
M  END

$$$$



 32 32  0  0  0  0  0  0  0  0999 V2000
   -2.1507    3.1922    0.6445 H   0  0  0  1  0  0  0  0  0  0  0  0
   -1.9424    5.0176   -0.3757 C   0  0  0  1  0  0  0  0  0  0  0  0
   -0.1447    3.6500    0.6112 N   0  0  0  1  0  0  0  0  0  0  0  0
   -1.4478    3.6250   -0.0362 C   0  0  0  1  0  0  0  0  0  0  0  0
   -2.7251    5.2055   -1.2925 O   0  0  0  1  0  0  0  0  0  0  0  0
   -1.4647    6.0095    0.3925 N   0  0  0  1  0  0  0  0  0  0  0  0
    0.0325    3.0214    1.3419 H   0  0  0  1  0  0  0  0  0  0  0  0
    0.8185    4.4999    0.2439 C   0  0  0  1  0  0  0  0  0  0  0  0
   -1.8945    7.3812    0.1655 C   0  0  0  1  0  0  0  0  0  0  0  0
    2.1132    4.4069    1.0278 C   0  0  0  1  0  0  0  0  0  0  0  0
    0.6832    5.3062   -0.6616 O   0  0  0  1  0  0  0  0  0  0  0  0
   -0.8252    5.8095    1.1076 H   0  0  0  1  0  0  0  0  0  0  0  0
   -1.9542    7.5674   -0.8865 H   0  0  0  1  0  0  0  0  0  0  0  0
   -1.1888    8.0535    0.6070 H   0  0  0  1  0  0  0  0  0  0  0  0
   -2.8566    7.5313    0.6091 H   0  0  0  1  0  0  0  0  0  0  0  0
    2.8832    4.9397    0.5101 H   0  0  0  1  0  0  0  0  0  0  0  0
    2.3960    3.3799    1.1282 H   0  0  0  1  0  0  0  0  0  0  0  0
    1.9738    4.8355    1.9983 H   0  0  0  1  0  0  0  0  0  0  0  0
   -6.5450    2.1585   -3.4937 F   0  0  0  1  0  0  0  0  0  0  0  0
   -5.3149    2.2962   -2.9627 C   0  0  0  1  0  0  0  0  0  0  0  0
   -4.2965    2.8647   -3.7117 C   0  0  0  1  0  0  0  0  0  0  0  0
   -3.0329    3.0011   -3.1686 C   0  0  0  1  0  0  0  0  0  0  0  0
   -2.7853    2.5743   -1.8732 C   0  0  0  1  0  0  0  0  0  0  0  0
   -3.8009    2.0075   -1.1265 C   0  0  0  1  0  0  0  0  0  0  0  0
   -5.0683    1.8706   -1.6711 C   0  0  0  1  0  0  0  0  0  0  0  0
   -1.4060    2.7284   -1.2772 C   0  0  0  1  0  0  0  0  0  0  0  0
   -4.4831    3.1886   -4.6822 H   0  0  0  1  0  0  0  0  0  0  0  0
   -2.2677    3.4239   -3.7319 H   0  0  0  1  0  0  0  0  0  0  0  0
   -3.6142    1.6836   -0.1560 H   0  0  0  1  0  0  0  0  0  0  0  0
   -5.8335    1.4478   -1.1078 H   0  0  0  1  0  0  0  0  0  0  0  0
   -1.0335    1.7642   -1.0009 H   0  0  0  1  0  0  0  0  0  0  0  0
   -0.7562    3.1672   -2.0053 H   0  0  0  1  0  0  0  0  0  0  0  0
  1  4  1  0  0  0  0
  2  4  1  0  0  0  0
  2  5  2  0  0  0  0
  2  6  1  0  0  0  0
  3  4  1  0  0  0  0
  3  7  1  0  0  0  0
  3  8  1  0  0  0  0
  4 26  1  0  0  0  0
  6  9  1  0  0  0  0
  6 12  1  0  0  0  0
  8 10  1  0  0  0  0
  8 11  2  0  0  0  0
  9 13  1  0  0  0  0
  9 14  1  0  0  0  0
  9 15  1  0  0  0  0
 10 16  1  0  0  0  0
 10 17  1  0  0  0  0
 10 18  1  0  0  0  0
 19 20  1  0  0  0  0
 20 21  4  0  0  0  0
 20 25  4  0  0  0  0
 21 22  4  0  0  0  0
 21 27  1  0  0  0  0
 22 23  4  0  0  0  0
 22 28  1  0  0  0  0
 23 24  4  0  0  0  0
 23 26  1  0  0  0  0
 24 25  4  0  0  0  0
 24 29  1  0  0  0  0
 25 30  1  0  0  0  0
 26 31  1  0  0  0  0
 26 32  1  0  0  0  0
M  END
> <BCLConfClusterSize>
1

> <ConfClashScore>
0 

> <ConfOneFourInteractionScore>
-0.957364 

> <ConfScore>
0.430199 

> <ConfScorePBest>
0.00347628 

> <ConfTolerance>
0.454626 

> <RosettaParamsInstructions>
M  ROOT 3
M  POLY_N_BB 3
M  POLY_CA_BB 4
M  POLY_C_BB 2
M  POLY_O_BB 5
M  POLY_IGNORE 9 10 11 12 13 14 15 16 17 18 
M  POLY_UPPER 6
M  POLY_LOWER 8
M  POLY_CHG 0
M  POLY_PROPERTIES ALPHA_AA D_AA PROTEIN AROMATIC POLYMER 
M  END

$$$$



 32 32  0  0  0  0  0  0  0  0999 V2000
   -2.0594    2.8053    0.7073 H   0  0  0  1  0  0  0  0  0  0  0  0
   -0.0020    2.5154    0.8535 C   0  0  0  1  0  0  0  0  0  0  0  0
   -1.6945    0.8229    0.3186 N   0  0  0  1  0  0  0  0  0  0  0  0
   -1.3265    2.2429    0.1674 C   0  0  0  1  0  0  0  0  0  0  0  0
    0.8379    3.2546    0.3419 O   0  0  0  1  0  0  0  0  0  0  0  0
    0.1563    1.9837    2.0689 N   0  0  0  1  0  0  0  0  0  0  0  0
   -2.5680    0.5990    0.7025 H   0  0  0  1  0  0  0  0  0  0  0  0
   -0.8786   -0.1689   -0.0495 C   0  0  0  1  0  0  0  0  0  0  0  0
    1.3407    2.2314    2.8775 C   0  0  0  1  0  0  0  0  0  0  0  0
   -1.4426   -1.5752    0.1405 C   0  0  0  1  0  0  0  0  0  0  0  0
    0.2642    0.0023   -0.4407 O   0  0  0  1  0  0  0  0  0  0  0  0
   -0.5496    1.4068    2.4284 H   0  0  0  1  0  0  0  0  0  0  0  0
    1.0803    2.1897    3.9145 H   0  0  0  1  0  0  0  0  0  0  0  0
    1.7333    3.1997    2.6472 H   0  0  0  1  0  0  0  0  0  0  0  0
    2.0792    1.4868    2.6653 H   0  0  0  1  0  0  0  0  0  0  0  0
   -1.3423   -2.1264   -0.7710 H   0  0  0  1  0  0  0  0  0  0  0  0
   -2.4770   -1.5114    0.4065 H   0  0  0  1  0  0  0  0  0  0  0  0
   -0.9036   -2.0731    0.9193 H   0  0  0  1  0  0  0  0  0  0  0  0
   -6.5556    2.1442   -3.4638 F   0  0  0  1  0  0  0  0  0  0  0  0
   -5.3127    2.2992   -2.9689 C   0  0  0  1  0  0  0  0  0  0  0  0
   -4.2921    2.8673   -3.7153 C   0  0  0  1  0  0  0  0  0  0  0  0
   -3.0296    3.0022   -3.1693 C   0  0  0  1  0  0  0  0  0  0  0  0
   -2.7852    2.5745   -1.8736 C   0  0  0  1  0  0  0  0  0  0  0  0
   -3.8029    2.0080   -1.1295 C   0  0  0  1  0  0  0  0  0  0  0  0
   -5.0693    1.8726   -1.6769 C   0  0  0  1  0  0  0  0  0  0  0  0
   -1.4071    2.7271   -1.2744 C   0  0  0  1  0  0  0  0  0  0  0  0
   -4.4763    3.1919   -4.6860 H   0  0  0  1  0  0  0  0  0  0  0  0
   -2.2628    3.4248   -3.7307 H   0  0  0  1  0  0  0  0  0  0  0  0
   -3.6187    1.6834   -0.1588 H   0  0  0  1  0  0  0  0  0  0  0  0
   -5.8360    1.4501   -1.1156 H   0  0  0  1  0  0  0  0  0  0  0  0
   -0.7153    2.1613   -1.8628 H   0  0  0  1  0  0  0  0  0  0  0  0
   -1.1365    3.7619   -1.3018 H   0  0  0  1  0  0  0  0  0  0  0  0
  1  4  1  0  0  0  0
  2  4  1  0  0  0  0
  2  5  2  0  0  0  0
  2  6  1  0  0  0  0
  3  4  1  0  0  0  0
  3  7  1  0  0  0  0
  3  8  1  0  0  0  0
  4 26  1  0  0  0  0
  6  9  1  0  0  0  0
  6 12  1  0  0  0  0
  8 10  1  0  0  0  0
  8 11  2  0  0  0  0
  9 13  1  0  0  0  0
  9 14  1  0  0  0  0
  9 15  1  0  0  0  0
 10 16  1  0  0  0  0
 10 17  1  0  0  0  0
 10 18  1  0  0  0  0
 19 20  1  0  0  0  0
 20 21  4  0  0  0  0
 20 25  4  0  0  0  0
 21 22  4  0  0  0  0
 21 27  1  0  0  0  0
 22 23  4  0  0  0  0
 22 28  1  0  0  0  0
 23 24  4  0  0  0  0
 23 26  1  0  0  0  0
 24 25  4  0  0  0  0
 24 29  1  0  0  0  0
 25 30  1  0  0  0  0
 26 31  1  0  0  0  0
 26 32  1  0  0  0  0
M  END
> <BCLConfClusterSize>
1

> <ConfClashScore>
0 

> <ConfOneFourInteractionScore>
-0.965222 

> <ConfScore>
0.433176 

> <ConfScorePBest>
0.0034478 

> <ConfTolerance>
0.590658 

> <RosettaParamsInstructions>
M  ROOT 3
M  POLY_N_BB 3
M  POLY_CA_BB 4
M  POLY_C_BB 2
M  POLY_O_BB 5
M  POLY_IGNORE 9 10 11 12 13 14 15 16 17 18 
M  POLY_UPPER 6
M  POLY_LOWER 8
M  POLY_CHG 0
M  POLY_PROPERTIES ALPHA_AA D_AA PROTEIN AROMATIC POLYMER 
M  END

$$$$



 32 32  0  0  0  0  0  0  0  0999 V2000
   -2.2009    3.7988    0.3536 H   0  0  0  1  0  0  0  0  0  0  0  0
   -1.5180    5.2249   -1.0307 C   0  0  0  1  0  0  0  0  0  0  0  0
   -0.1430    3.8518    0.4966 N   0  0  0  1  0  0  0  0  0  0  0  0
   -1.3651    3.9015   -0.3066 C   0  0  0  1  0  0  0  0  0  0  0  0
   -0.6245    5.6652   -1.7492 O   0  0  0  1  0  0  0  0  0  0  0  0
   -2.6798    5.8675   -0.8322 N   0  0  0  1  0  0  0  0  0  0  0  0
    0.5896    4.4660    0.2814 H   0  0  0  1  0  0  0  0  0  0  0  0
    0.0088    2.9981    1.5131 C   0  0  0  1  0  0  0  0  0  0  0  0
   -2.9084    7.1725   -1.4422 C   0  0  0  1  0  0  0  0  0  0  0  0
    1.3758    2.9913    2.1691 C   0  0  0  1  0  0  0  0  0  0  0  0
   -0.8899    2.2584    1.9051 O   0  0  0  1  0  0  0  0  0  0  0  0
   -3.3758    5.4589   -0.2764 H   0  0  0  1  0  0  0  0  0  0  0  0
   -2.7242    7.1122   -2.4945 H   0  0  0  1  0  0  0  0  0  0  0  0
   -2.2468    7.8910   -1.0052 H   0  0  0  1  0  0  0  0  0  0  0  0
   -3.9219    7.4718   -1.2744 H   0  0  0  1  0  0  0  0  0  0  0  0
    1.5669    3.9490    2.6063 H   0  0  0  1  0  0  0  0  0  0  0  0
    2.1232    2.7800    1.4332 H   0  0  0  1  0  0  0  0  0  0  0  0
    1.4020    2.2402    2.9307 H   0  0  0  1  0  0  0  0  0  0  0  0
   -6.5450    2.1585   -3.4937 F   0  0  0  1  0  0  0  0  0  0  0  0
   -5.3149    2.2962   -2.9627 C   0  0  0  1  0  0  0  0  0  0  0  0
   -4.2965    2.8647   -3.7117 C   0  0  0  1  0  0  0  0  0  0  0  0
   -3.0329    3.0011   -3.1686 C   0  0  0  1  0  0  0  0  0  0  0  0
   -2.7853    2.5743   -1.8732 C   0  0  0  1  0  0  0  0  0  0  0  0
   -3.8009    2.0075   -1.1265 C   0  0  0  1  0  0  0  0  0  0  0  0
   -5.0683    1.8706   -1.6711 C   0  0  0  1  0  0  0  0  0  0  0  0
   -1.4060    2.7284   -1.2772 C   0  0  0  1  0  0  0  0  0  0  0  0
   -4.4831    3.1886   -4.6822 H   0  0  0  1  0  0  0  0  0  0  0  0
   -2.2677    3.4239   -3.7319 H   0  0  0  1  0  0  0  0  0  0  0  0
   -3.6142    1.6836   -0.1560 H   0  0  0  1  0  0  0  0  0  0  0  0
   -5.8335    1.4478   -1.1078 H   0  0  0  1  0  0  0  0  0  0  0  0
   -1.1475    1.8313   -0.7544 H   0  0  0  1  0  0  0  0  0  0  0  0
   -0.7010    2.8992   -2.0637 H   0  0  0  1  0  0  0  0  0  0  0  0
  1  4  1  0  0  0  0
  2  4  1  0  0  0  0
  2  5  2  0  0  0  0
  2  6  1  0  0  0  0
  3  4  1  0  0  0  0
  3  7  1  0  0  0  0
  3  8  1  0  0  0  0
  4 26  1  0  0  0  0
  6  9  1  0  0  0  0
  6 12  1  0  0  0  0
  8 10  1  0  0  0  0
  8 11  2  0  0  0  0
  9 13  1  0  0  0  0
  9 14  1  0  0  0  0
  9 15  1  0  0  0  0
 10 16  1  0  0  0  0
 10 17  1  0  0  0  0
 10 18  1  0  0  0  0
 19 20  1  0  0  0  0
 20 21  4  0  0  0  0
 20 25  4  0  0  0  0
 21 22  4  0  0  0  0
 21 27  1  0  0  0  0
 22 23  4  0  0  0  0
 22 28  1  0  0  0  0
 23 24  4  0  0  0  0
 23 26  1  0  0  0  0
 24 25  4  0  0  0  0
 24 29  1  0  0  0  0
 25 30  1  0  0  0  0
 26 31  1  0  0  0  0
 26 32  1  0  0  0  0
M  END
> <BCLConfClusterSize>
1

> <ConfClashScore>
0 

> <ConfOneFourInteractionScore>
-0.982823 

> <ConfScore>
0.437705 

> <ConfScorePBest>
0.00341932 

> <ConfTolerance>
0.603615 

> <RosettaParamsInstructions>
M  ROOT 3
M  POLY_N_BB 3
M  POLY_CA_BB 4
M  POLY_C_BB 2
M  POLY_O_BB 5
M  POLY_IGNORE 9 10 11 12 13 14 15 16 17 18 
M  POLY_UPPER 6
M  POLY_LOWER 8
M  POLY_CHG 0
M  POLY_PROPERTIES ALPHA_AA D_AA PROTEIN AROMATIC POLYMER 
M  END

$$$$



 32 32  0  0  0  0  0  0  0  0999 V2000
   -1.9051    1.4416    0.3070 H   0  0  0  1  0  0  0  0  0  0  0  0
    0.0733    2.0960    0.6091 C   0  0  0  1  0  0  0  0  0  0  0  0
   -0.7413    0.3653   -0.9993 N   0  0  0  1  0  0  0  0  0  0  0  0
   -1.0462    1.6094   -0.3086 C   0  0  0  1  0  0  0  0  0  0  0  0
   -0.0939    3.0619    1.3491 O   0  0  0  1  0  0  0  0  0  0  0  0
    1.2371    1.4404    0.5823 N   0  0  0  1  0  0  0  0  0  0  0  0
   -0.8065    0.3623   -1.9771 H   0  0  0  1  0  0  0  0  0  0  0  0
   -0.3762   -0.7825   -0.3957 C   0  0  0  1  0  0  0  0  0  0  0  0
    2.3706    1.8338    1.4072 C   0  0  0  1  0  0  0  0  0  0  0  0
   -0.2761   -1.9634   -1.3416 C   0  0  0  1  0  0  0  0  0  0  0  0
   -0.1390   -0.8971    0.8061 O   0  0  0  1  0  0  0  0  0  0  0  0
    1.3311    0.6679   -0.0133 H   0  0  0  1  0  0  0  0  0  0  0  0
    2.9324    2.5926    0.9038 H   0  0  0  1  0  0  0  0  0  0  0  0
    2.9964    0.9836    1.5817 H   0  0  0  1  0  0  0  0  0  0  0  0
    2.0159    2.2141    2.3423 H   0  0  0  1  0  0  0  0  0  0  0  0
   -1.2357   -2.1574   -1.7734 H   0  0  0  1  0  0  0  0  0  0  0  0
    0.0525   -2.8263   -0.8010 H   0  0  0  1  0  0  0  0  0  0  0  0
    0.4254   -1.7397   -2.1180 H   0  0  0  1  0  0  0  0  0  0  0  0
   -6.5450    2.1585   -3.4937 F   0  0  0  1  0  0  0  0  0  0  0  0
   -5.3149    2.2962   -2.9627 C   0  0  0  1  0  0  0  0  0  0  0  0
   -4.2965    2.8647   -3.7117 C   0  0  0  1  0  0  0  0  0  0  0  0
   -3.0329    3.0011   -3.1686 C   0  0  0  1  0  0  0  0  0  0  0  0
   -2.7853    2.5743   -1.8732 C   0  0  0  1  0  0  0  0  0  0  0  0
   -3.8009    2.0075   -1.1265 C   0  0  0  1  0  0  0  0  0  0  0  0
   -5.0683    1.8706   -1.6711 C   0  0  0  1  0  0  0  0  0  0  0  0
   -1.4060    2.7284   -1.2772 C   0  0  0  1  0  0  0  0  0  0  0  0
   -4.4831    3.1886   -4.6822 H   0  0  0  1  0  0  0  0  0  0  0  0
   -2.2677    3.4239   -3.7319 H   0  0  0  1  0  0  0  0  0  0  0  0
   -3.6142    1.6836   -0.1560 H   0  0  0  1  0  0  0  0  0  0  0  0
   -5.8335    1.4478   -1.1078 H   0  0  0  1  0  0  0  0  0  0  0  0
   -0.6900    2.7339   -2.0723 H   0  0  0  1  0  0  0  0  0  0  0  0
   -1.3640    3.6599   -0.7523 H   0  0  0  1  0  0  0  0  0  0  0  0
  1  4  1  0  0  0  0
  2  4  1  0  0  0  0
  2  5  2  0  0  0  0
  2  6  1  0  0  0  0
  3  4  1  0  0  0  0
  3  7  1  0  0  0  0
  3  8  1  0  0  0  0
  4 26  1  0  0  0  0
  6  9  1  0  0  0  0
  6 12  1  0  0  0  0
  8 10  1  0  0  0  0
  8 11  2  0  0  0  0
  9 13  1  0  0  0  0
  9 14  1  0  0  0  0
  9 15  1  0  0  0  0
 10 16  1  0  0  0  0
 10 17  1  0  0  0  0
 10 18  1  0  0  0  0
 19 20  1  0  0  0  0
 20 21  4  0  0  0  0
 20 25  4  0  0  0  0
 21 22  4  0  0  0  0
 21 27  1  0  0  0  0
 22 23  4  0  0  0  0
 22 28  1  0  0  0  0
 23 24  4  0  0  0  0
 23 26  1  0  0  0  0
 24 25  4  0  0  0  0
 24 29  1  0  0  0  0
 25 30  1  0  0  0  0
 26 31  1  0  0  0  0
 26 32  1  0  0  0  0
M  END
> <BCLConfClusterSize>
1

> <ConfClashScore>
0 

> <ConfOneFourInteractionScore>
-0.952877 

> <ConfScore>
0.439926 

> <ConfScorePBest>
0.00339084 

> <ConfTolerance>
0.643434 

> <RosettaParamsInstructions>
M  ROOT 3
M  POLY_N_BB 3
M  POLY_CA_BB 4
M  POLY_C_BB 2
M  POLY_O_BB 5
M  POLY_IGNORE 9 10 11 12 13 14 15 16 17 18 
M  POLY_UPPER 6
M  POLY_LOWER 8
M  POLY_CHG 0
M  POLY_PROPERTIES ALPHA_AA D_AA PROTEIN AROMATIC POLYMER 
M  END

$$$$



 32 32  0  0  0  0  0  0  0  0999 V2000
   -1.8680    2.7306    0.7547 H   0  0  0  1  0  0  0  0  0  0  0  0
    0.2062    2.3533    0.5742 C   0  0  0  1  0  0  0  0  0  0  0  0
   -1.6321    0.7792    0.1107 N   0  0  0  1  0  0  0  0  0  0  0  0
   -1.2289    2.1774    0.0986 C   0  0  0  1  0  0  0  0  0  0  0  0
    1.1607    1.7823    0.0813 O   0  0  0  1  0  0  0  0  0  0  0  0
    0.3837    3.1945    1.5969 N   0  0  0  1  0  0  0  0  0  0  0  0
   -1.9498    0.3714   -0.7219 H   0  0  0  1  0  0  0  0  0  0  0  0
   -1.5841    0.0321    1.2173 C   0  0  0  1  0  0  0  0  0  0  0  0
    1.6427    3.2827    2.3214 C   0  0  0  1  0  0  0  0  0  0  0  0
   -1.8538   -1.4476    1.0254 C   0  0  0  1  0  0  0  0  0  0  0  0
   -1.3388    0.4965    2.3275 O   0  0  0  1  0  0  0  0  0  0  0  0
   -0.3598    3.7722    1.8686 H   0  0  0  1  0  0  0  0  0  0  0  0
    2.1507    2.3423    2.2706 H   0  0  0  1  0  0  0  0  0  0  0  0
    1.4487    3.5281    3.3446 H   0  0  0  1  0  0  0  0  0  0  0  0
    2.2545    4.0425    1.8817 H   0  0  0  1  0  0  0  0  0  0  0  0
   -2.3323   -1.8396    1.8984 H   0  0  0  1  0  0  0  0  0  0  0  0
   -0.9286   -1.9607    0.8652 H   0  0  0  1  0  0  0  0  0  0  0  0
   -2.4908   -1.5867    0.1770 H   0  0  0  1  0  0  0  0  0  0  0  0
   -6.5436    2.1603   -3.4973 F   0  0  0  1  0  0  0  0  0  0  0  0
   -5.3149    2.2961   -2.9625 C   0  0  0  1  0  0  0  0  0  0  0  0
   -4.2936    2.8641   -3.7080 C   0  0  0  1  0  0  0  0  0  0  0  0
   -3.0315    2.9985   -3.1610 C   0  0  0  1  0  0  0  0  0  0  0  0
   -2.7882    2.5704   -1.8653 C   0  0  0  1  0  0  0  0  0  0  0  0
   -3.8067    2.0042   -1.1220 C   0  0  0  1  0  0  0  0  0  0  0  0
   -5.0726    1.8692   -1.6705 C   0  0  0  1  0  0  0  0  0  0  0  0
   -1.3927    2.7464   -1.3147 C   0  0  0  1  0  0  0  0  0  0  0  0
   -4.4770    3.1890   -4.6788 H   0  0  0  1  0  0  0  0  0  0  0  0
   -2.2642    3.4210   -3.7217 H   0  0  0  1  0  0  0  0  0  0  0  0
   -3.6232    1.6793   -0.1513 H   0  0  0  1  0  0  0  0  0  0  0  0
   -5.8400    1.4467   -1.1098 H   0  0  0  1  0  0  0  0  0  0  0  0
   -0.7047    2.2473   -1.9646 H   0  0  0  1  0  0  0  0  0  0  0  0
   -1.1659    3.7918   -1.2894 H   0  0  0  1  0  0  0  0  0  0  0  0
  1  4  1  0  0  0  0
  2  4  1  0  0  0  0
  2  5  2  0  0  0  0
  2  6  1  0  0  0  0
  3  4  1  0  0  0  0
  3  7  1  0  0  0  0
  3  8  1  0  0  0  0
  4 26  1  0  0  0  0
  6  9  1  0  0  0  0
  6 12  1  0  0  0  0
  8 10  1  0  0  0  0
  8 11  2  0  0  0  0
  9 13  1  0  0  0  0
  9 14  1  0  0  0  0
  9 15  1  0  0  0  0
 10 16  1  0  0  0  0
 10 17  1  0  0  0  0
 10 18  1  0  0  0  0
 19 20  1  0  0  0  0
 20 21  4  0  0  0  0
 20 25  4  0  0  0  0
 21 22  4  0  0  0  0
 21 27  1  0  0  0  0
 22 23  4  0  0  0  0
 22 28  1  0  0  0  0
 23 24  4  0  0  0  0
 23 26  1  0  0  0  0
 24 25  4  0  0  0  0
 24 29  1  0  0  0  0
 25 30  1  0  0  0  0
 26 31  1  0  0  0  0
 26 32  1  0  0  0  0
M  END
> <BCLConfClusterSize>
1

> <ConfClashScore>
0 

> <ConfOneFourInteractionScore>
-0.978366 

> <ConfScore>
0.440032 

> <ConfScorePBest>
0.00336236 

> <ConfTolerance>
0.756643 

> <RosettaParamsInstructions>
M  ROOT 3
M  POLY_N_BB 3
M  POLY_CA_BB 4
M  POLY_C_BB 2
M  POLY_O_BB 5
M  POLY_IGNORE 9 10 11 12 13 14 15 16 17 18 
M  POLY_UPPER 6
M  POLY_LOWER 8
M  POLY_CHG 0
M  POLY_PROPERTIES ALPHA_AA D_AA PROTEIN AROMATIC POLYMER 
M  END

$$$$



 32 32  0  0  0  0  0  0  0  0999 V2000
   -1.5764    0.7008   -0.5960 H   0  0  0  1  0  0  0  0  0  0  0  0
   -1.0901    1.9855    1.0256 C   0  0  0  1  0  0  0  0  0  0  0  0
    0.4399    1.2006   -0.7091 N   0  0  0  1  0  0  0  0  0  0  0  0
   -0.9448    1.5468   -0.4218 C   0  0  0  1  0  0  0  0  0  0  0  0
   -0.2798    1.6159    1.8854 O   0  0  0  1  0  0  0  0  0  0  0  0
   -2.1214    2.7843    1.3425 N   0  0  0  1  0  0  0  0  0  0  0  0
    0.8599    1.6215   -1.4882 H   0  0  0  1  0  0  0  0  0  0  0  0
    1.1797    0.3541    0.0078 C   0  0  0  1  0  0  0  0  0  0  0  0
   -2.3062    3.3206    2.6827 C   0  0  0  1  0  0  0  0  0  0  0  0
    2.6146    0.1637   -0.4669 C   0  0  0  1  0  0  0  0  0  0  0  0
    0.7490   -0.2429    0.9909 O   0  0  0  1  0  0  0  0  0  0  0  0
   -2.7726    3.0143    0.6471 H   0  0  0  1  0  0  0  0  0  0  0  0
   -1.3514    3.5244    3.1206 H   0  0  0  1  0  0  0  0  0  0  0  0
   -2.8287    2.6060    3.2836 H   0  0  0  1  0  0  0  0  0  0  0  0
   -2.8742    4.2258    2.6291 H   0  0  0  1  0  0  0  0  0  0  0  0
    3.2180   -0.1780    0.3480 H   0  0  0  1  0  0  0  0  0  0  0  0
    2.9973    1.0955   -0.8275 H   0  0  0  1  0  0  0  0  0  0  0  0
    2.6363   -0.5602   -1.2545 H   0  0  0  1  0  0  0  0  0  0  0  0
   -6.5267    2.1561   -3.5327 F   0  0  0  1  0  0  0  0  0  0  0  0
   -5.3155    2.2875   -2.9585 C   0  0  0  1  0  0  0  0  0  0  0  0
   -4.2988    2.8625   -3.7050 C   0  0  0  1  0  0  0  0  0  0  0  0
   -3.0389    3.0118   -3.1568 C   0  0  0  1  0  0  0  0  0  0  0  0
   -2.7932    2.5915   -1.8590 C   0  0  0  1  0  0  0  0  0  0  0  0
   -3.8071    2.0182   -1.1148 C   0  0  0  1  0  0  0  0  0  0  0  0
   -5.0708    1.8684   -1.6644 C   0  0  0  1  0  0  0  0  0  0  0  0
   -1.3815    2.6884   -1.3306 C   0  0  0  1  0  0  0  0  0  0  0  0
   -4.4841    3.1815   -4.6773 H   0  0  0  1  0  0  0  0  0  0  0  0
   -2.2750    3.4395   -3.7182 H   0  0  0  1  0  0  0  0  0  0  0  0
   -3.6218    1.6992   -0.1424 H   0  0  0  1  0  0  0  0  0  0  0  0
   -5.8347    1.4407   -1.1030 H   0  0  0  1  0  0  0  0  0  0  0  0
   -0.7166    2.7161   -2.1685 H   0  0  0  1  0  0  0  0  0  0  0  0
   -1.2978    3.6007   -0.7779 H   0  0  0  1  0  0  0  0  0  0  0  0
  1  4  1  0  0  0  0
  2  4  1  0  0  0  0
  2  5  2  0  0  0  0
  2  6  1  0  0  0  0
  3  4  1  0  0  0  0
  3  7  1  0  0  0  0
  3  8  1  0  0  0  0
  4 26  1  0  0  0  0
  6  9  1  0  0  0  0
  6 12  1  0  0  0  0
  8 10  1  0  0  0  0
  8 11  2  0  0  0  0
  9 13  1  0  0  0  0
  9 14  1  0  0  0  0
  9 15  1  0  0  0  0
 10 16  1  0  0  0  0
 10 17  1  0  0  0  0
 10 18  1  0  0  0  0
 19 20  1  0  0  0  0
 20 21  4  0  0  0  0
 20 25  4  0  0  0  0
 21 22  4  0  0  0  0
 21 27  1  0  0  0  0
 22 23  4  0  0  0  0
 22 28  1  0  0  0  0
 23 24  4  0  0  0  0
 23 26  1  0  0  0  0
 24 25  4  0  0  0  0
 24 29  1  0  0  0  0
 25 30  1  0  0  0  0
 26 31  1  0  0  0  0
 26 32  1  0  0  0  0
M  END
> <BCLConfClusterSize>
1

> <ConfClashScore>
0 

> <ConfOneFourInteractionScore>
-0.939929 

> <ConfScore>
0.448747 

> <ConfScorePBest>
0.00333388 

> <ConfTolerance>
0.476698 

> <RosettaParamsInstructions>
M  ROOT 3
M  POLY_N_BB 3
M  POLY_CA_BB 4
M  POLY_C_BB 2
M  POLY_O_BB 5
M  POLY_IGNORE 9 10 11 12 13 14 15 16 17 18 
M  POLY_UPPER 6
M  POLY_LOWER 8
M  POLY_CHG 0
M  POLY_PROPERTIES ALPHA_AA D_AA PROTEIN AROMATIC POLYMER 
M  END

$$$$



 32 32  0  0  0  0  0  0  0  0999 V2000
    0.5783    3.2571   -1.6921 H   0  0  0  1  0  0  0  0  0  0  0  0
   -0.5637    4.8410   -2.4430 C   0  0  0  1  0  0  0  0  0  0  0  0
   -0.2725    2.6174   -3.4586 N   0  0  0  1  0  0  0  0  0  0  0  0
   -0.3648    3.3597   -2.1871 C   0  0  0  1  0  0  0  0  0  0  0  0
   -0.0080    5.3360   -3.4226 O   0  0  0  1  0  0  0  0  0  0  0  0
   -1.3277    5.5280   -1.5965 N   0  0  0  1  0  0  0  0  0  0  0  0
   -0.6305    3.0490   -4.2623 H   0  0  0  1  0  0  0  0  0  0  0  0
    0.2826    1.3549   -3.6023 C   0  0  0  1  0  0  0  0  0  0  0  0
   -1.5471    6.9601   -1.7342 C   0  0  0  1  0  0  0  0  0  0  0  0
    0.2370    0.6856   -4.9472 C   0  0  0  1  0  0  0  0  0  0  0  0
    0.7909    0.8282   -2.6293 O   0  0  0  1  0  0  0  0  0  0  0  0
   -1.7573    5.0529   -0.8548 H   0  0  0  1  0  0  0  0  0  0  0  0
   -0.6638    7.4208   -2.1246 H   0  0  0  1  0  0  0  0  0  0  0  0
   -1.7744    7.3796   -0.7765 H   0  0  0  1  0  0  0  0  0  0  0  0
   -2.3644    7.1327   -2.4029 H   0  0  0  1  0  0  0  0  0  0  0  0
   -0.3605    1.2689   -5.6163 H   0  0  0  1  0  0  0  0  0  0  0  0
   -0.1909   -0.2898   -4.8456 H   0  0  0  1  0  0  0  0  0  0  0  0
    1.2298    0.6013   -5.3372 H   0  0  0  1  0  0  0  0  0  0  0  0
   -6.5556    2.1442   -3.4638 F   0  0  0  1  0  0  0  0  0  0  0  0
   -5.3127    2.2992   -2.9689 C   0  0  0  1  0  0  0  0  0  0  0  0
   -4.2921    2.8673   -3.7153 C   0  0  0  1  0  0  0  0  0  0  0  0
   -3.0296    3.0022   -3.1693 C   0  0  0  1  0  0  0  0  0  0  0  0
   -2.7852    2.5745   -1.8736 C   0  0  0  1  0  0  0  0  0  0  0  0
   -3.8029    2.0080   -1.1295 C   0  0  0  1  0  0  0  0  0  0  0  0
   -5.0693    1.8726   -1.6769 C   0  0  0  1  0  0  0  0  0  0  0  0
   -1.4071    2.7271   -1.2744 C   0  0  0  1  0  0  0  0  0  0  0  0
   -4.4763    3.1919   -4.6860 H   0  0  0  1  0  0  0  0  0  0  0  0
   -2.2628    3.4248   -3.7307 H   0  0  0  1  0  0  0  0  0  0  0  0
   -3.6187    1.6834   -0.1588 H   0  0  0  1  0  0  0  0  0  0  0  0
   -5.8360    1.4501   -1.1156 H   0  0  0  1  0  0  0  0  0  0  0  0
   -1.4933    3.3368   -0.3994 H   0  0  0  1  0  0  0  0  0  0  0  0
   -1.0575    1.7541   -0.9987 H   0  0  0  1  0  0  0  0  0  0  0  0
  1  4  1  0  0  0  0
  2  4  1  0  0  0  0
  2  5  2  0  0  0  0
  2  6  1  0  0  0  0
  3  4  1  0  0  0  0
  3  7  1  0  0  0  0
  3  8  1  0  0  0  0
  4 26  1  0  0  0  0
  6  9  1  0  0  0  0
  6 12  1  0  0  0  0
  8 10  1  0  0  0  0
  8 11  2  0  0  0  0
  9 13  1  0  0  0  0
  9 14  1  0  0  0  0
  9 15  1  0  0  0  0
 10 16  1  0  0  0  0
 10 17  1  0  0  0  0
 10 18  1  0  0  0  0
 19 20  1  0  0  0  0
 20 21  4  0  0  0  0
 20 25  4  0  0  0  0
 21 22  4  0  0  0  0
 21 27  1  0  0  0  0
 22 23  4  0  0  0  0
 22 28  1  0  0  0  0
 23 24  4  0  0  0  0
 23 26  1  0  0  0  0
 24 25  4  0  0  0  0
 24 29  1  0  0  0  0
 25 30  1  0  0  0  0
 26 31  1  0  0  0  0
 26 32  1  0  0  0  0
M  END
> <BCLConfClusterSize>
1

> <ConfClashScore>
0 

> <ConfOneFourInteractionScore>
-0.920024 

> <ConfScore>
0.451242 

> <ConfScorePBest>
0.0033054 

> <ConfTolerance>
0.78573 

> <RosettaParamsInstructions>
M  ROOT 3
M  POLY_N_BB 3
M  POLY_CA_BB 4
M  POLY_C_BB 2
M  POLY_O_BB 5
M  POLY_IGNORE 9 10 11 12 13 14 15 16 17 18 
M  POLY_UPPER 6
M  POLY_LOWER 8
M  POLY_CHG 0
M  POLY_PROPERTIES ALPHA_AA D_AA PROTEIN AROMATIC POLYMER 
M  END

$$$$



 32 32  0  0  0  0  0  0  0  0999 V2000
   -0.3203    3.9503    0.0169 H   0  0  0  1  0  0  0  0  0  0  0  0
   -1.7161    2.9074    1.1767 C   0  0  0  1  0  0  0  0  0  0  0  0
   -2.1211    4.8750   -0.2899 N   0  0  0  1  0  0  0  0  0  0  0  0
   -1.3432    3.6567   -0.0946 C   0  0  0  1  0  0  0  0  0  0  0  0
   -2.6508    3.2582    1.8730 O   0  0  0  1  0  0  0  0  0  0  0  0
   -0.9303    1.8602    1.4319 N   0  0  0  1  0  0  0  0  0  0  0  0
   -2.5271    5.0414   -1.1662 H   0  0  0  1  0  0  0  0  0  0  0  0
   -2.2992    5.7719    0.6841 C   0  0  0  1  0  0  0  0  0  0  0  0
   -1.0425    0.9995    2.6000 C   0  0  0  1  0  0  0  0  0  0  0  0
   -3.0990    7.0037    0.3071 C   0  0  0  1  0  0  0  0  0  0  0  0
   -1.8507    5.6249    1.8203 O   0  0  0  1  0  0  0  0  0  0  0  0
   -0.2244    1.6549    0.7839 H   0  0  0  1  0  0  0  0  0  0  0  0
   -0.0707    0.8335    3.0160 H   0  0  0  1  0  0  0  0  0  0  0  0
   -1.4718    0.0625    2.3125 H   0  0  0  1  0  0  0  0  0  0  0  0
   -1.6673    1.4696    3.3304 H   0  0  0  1  0  0  0  0  0  0  0  0
   -3.5479    7.4205    1.1844 H   0  0  0  1  0  0  0  0  0  0  0  0
   -3.8639    6.7324   -0.3901 H   0  0  0  1  0  0  0  0  0  0  0  0
   -2.4495    7.7276   -0.1391 H   0  0  0  1  0  0  0  0  0  0  0  0
   -6.5436    2.1603   -3.4973 F   0  0  0  1  0  0  0  0  0  0  0  0
   -5.3149    2.2961   -2.9625 C   0  0  0  1  0  0  0  0  0  0  0  0
   -4.2936    2.8641   -3.7080 C   0  0  0  1  0  0  0  0  0  0  0  0
   -3.0315    2.9985   -3.1610 C   0  0  0  1  0  0  0  0  0  0  0  0
   -2.7882    2.5704   -1.8653 C   0  0  0  1  0  0  0  0  0  0  0  0
   -3.8067    2.0042   -1.1220 C   0  0  0  1  0  0  0  0  0  0  0  0
   -5.0726    1.8692   -1.6705 C   0  0  0  1  0  0  0  0  0  0  0  0
   -1.3927    2.7464   -1.3147 C   0  0  0  1  0  0  0  0  0  0  0  0
   -4.4770    3.1890   -4.6788 H   0  0  0  1  0  0  0  0  0  0  0  0
   -2.2642    3.4210   -3.7217 H   0  0  0  1  0  0  0  0  0  0  0  0
   -3.6232    1.6793   -0.1513 H   0  0  0  1  0  0  0  0  0  0  0  0
   -5.8400    1.4467   -1.1098 H   0  0  0  1  0  0  0  0  0  0  0  0
   -1.0119    1.7854   -1.0383 H   0  0  0  1  0  0  0  0  0  0  0  0
   -0.7755    3.1687   -2.0799 H   0  0  0  1  0  0  0  0  0  0  0  0
  1  4  1  0  0  0  0
  2  4  1  0  0  0  0
  2  5  2  0  0  0  0
  2  6  1  0  0  0  0
  3  4  1  0  0  0  0
  3  7  1  0  0  0  0
  3  8  1  0  0  0  0
  4 26  1  0  0  0  0
  6  9  1  0  0  0  0
  6 12  1  0  0  0  0
  8 10  1  0  0  0  0
  8 11  2  0  0  0  0
  9 13  1  0  0  0  0
  9 14  1  0  0  0  0
  9 15  1  0  0  0  0
 10 16  1  0  0  0  0
 10 17  1  0  0  0  0
 10 18  1  0  0  0  0
 19 20  1  0  0  0  0
 20 21  4  0  0  0  0
 20 25  4  0  0  0  0
 21 22  4  0  0  0  0
 21 27  1  0  0  0  0
 22 23  4  0  0  0  0
 22 28  1  0  0  0  0
 23 24  4  0  0  0  0
 23 26  1  0  0  0  0
 24 25  4  0  0  0  0
 24 29  1  0  0  0  0
 25 30  1  0  0  0  0
 26 31  1  0  0  0  0
 26 32  1  0  0  0  0
M  END
> <BCLConfClusterSize>
1

> <ConfClashScore>
0 

> <ConfOneFourInteractionScore>
-0.977982 

> <ConfScore>
0.451725 

> <ConfScorePBest>
0.00327691 

> <ConfTolerance>
0.631523 

> <RosettaParamsInstructions>
M  ROOT 3
M  POLY_N_BB 3
M  POLY_CA_BB 4
M  POLY_C_BB 2
M  POLY_O_BB 5
M  POLY_IGNORE 9 10 11 12 13 14 15 16 17 18 
M  POLY_UPPER 6
M  POLY_LOWER 8
M  POLY_CHG 0
M  POLY_PROPERTIES ALPHA_AA D_AA PROTEIN AROMATIC POLYMER 
M  END

$$$$



 32 32  0  0  0  0  0  0  0  0999 V2000
   -0.4205    4.5902   -1.2904 H   0  0  0  1  0  0  0  0  0  0  0  0
   -0.5850    3.9569    0.7177 C   0  0  0  1  0  0  0  0  0  0  0  0
   -2.3935    4.8826   -0.7694 N   0  0  0  1  0  0  0  0  0  0  0  0
   -1.1624    4.1110   -0.6864 C   0  0  0  1  0  0  0  0  0  0  0  0
   -0.7775    4.8088    1.5842 O   0  0  0  1  0  0  0  0  0  0  0  0
    0.1352    2.8439    0.9336 N   0  0  0  1  0  0  0  0  0  0  0  0
   -2.5289    5.4759   -1.5376 H   0  0  0  1  0  0  0  0  0  0  0  0
   -3.3439    4.8105    0.1637 C   0  0  0  1  0  0  0  0  0  0  0  0
    0.7465    2.5511    2.2214 C   0  0  0  1  0  0  0  0  0  0  0  0
   -4.6492    5.5407   -0.0859 C   0  0  0  1  0  0  0  0  0  0  0  0
   -3.2258    4.1870    1.2153 O   0  0  0  1  0  0  0  0  0  0  0  0
    0.2530    2.2068    0.1983 H   0  0  0  1  0  0  0  0  0  0  0  0
    1.1610    3.4480    2.6321 H   0  0  0  1  0  0  0  0  0  0  0  0
    1.5231    1.8267    2.0908 H   0  0  0  1  0  0  0  0  0  0  0  0
    0.0048    2.1634    2.8880 H   0  0  0  1  0  0  0  0  0  0  0  0
   -4.6717    6.4401    0.4934 H   0  0  0  1  0  0  0  0  0  0  0  0
   -5.4684    4.9135    0.1978 H   0  0  0  1  0  0  0  0  0  0  0  0
   -4.7286    5.7838   -1.1249 H   0  0  0  1  0  0  0  0  0  0  0  0
   -6.5450    2.1585   -3.4937 F   0  0  0  1  0  0  0  0  0  0  0  0
   -5.3149    2.2962   -2.9627 C   0  0  0  1  0  0  0  0  0  0  0  0
   -4.2965    2.8647   -3.7117 C   0  0  0  1  0  0  0  0  0  0  0  0
   -3.0329    3.0011   -3.1686 C   0  0  0  1  0  0  0  0  0  0  0  0
   -2.7853    2.5743   -1.8732 C   0  0  0  1  0  0  0  0  0  0  0  0
   -3.8009    2.0075   -1.1265 C   0  0  0  1  0  0  0  0  0  0  0  0
   -5.0683    1.8706   -1.6711 C   0  0  0  1  0  0  0  0  0  0  0  0
   -1.4060    2.7284   -1.2772 C   0  0  0  1  0  0  0  0  0  0  0  0
   -4.4831    3.1886   -4.6822 H   0  0  0  1  0  0  0  0  0  0  0  0
   -2.2677    3.4239   -3.7319 H   0  0  0  1  0  0  0  0  0  0  0  0
   -3.6142    1.6836   -0.1560 H   0  0  0  1  0  0  0  0  0  0  0  0
   -5.8335    1.4478   -1.1078 H   0  0  0  1  0  0  0  0  0  0  0  0
   -1.2869    2.0009   -0.5016 H   0  0  0  1  0  0  0  0  0  0  0  0
   -0.6817    2.5537   -2.0451 H   0  0  0  1  0  0  0  0  0  0  0  0
  1  4  1  0  0  0  0
  2  4  1  0  0  0  0
  2  5  2  0  0  0  0
  2  6  1  0  0  0  0
  3  4  1  0  0  0  0
  3  7  1  0  0  0  0
  3  8  1  0  0  0  0
  4 26  1  0  0  0  0
  6  9  1  0  0  0  0
  6 12  1  0  0  0  0
  8 10  1  0  0  0  0
  8 11  2  0  0  0  0
  9 13  1  0  0  0  0
  9 14  1  0  0  0  0
  9 15  1  0  0  0  0
 10 16  1  0  0  0  0
 10 17  1  0  0  0  0
 10 18  1  0  0  0  0
 19 20  1  0  0  0  0
 20 21  4  0  0  0  0
 20 25  4  0  0  0  0
 21 22  4  0  0  0  0
 21 27  1  0  0  0  0
 22 23  4  0  0  0  0
 22 28  1  0  0  0  0
 23 24  4  0  0  0  0
 23 26  1  0  0  0  0
 24 25  4  0  0  0  0
 24 29  1  0  0  0  0
 25 30  1  0  0  0  0
 26 31  1  0  0  0  0
 26 32  1  0  0  0  0
M  END
> <BCLConfClusterSize>
1

> <ConfClashScore>
0 

> <ConfOneFourInteractionScore>
-0.910684 

> <ConfScore>
0.452301 

> <ConfScorePBest>
0.00324843 

> <ConfTolerance>
0.640084 

> <RosettaParamsInstructions>
M  ROOT 3
M  POLY_N_BB 3
M  POLY_CA_BB 4
M  POLY_C_BB 2
M  POLY_O_BB 5
M  POLY_IGNORE 9 10 11 12 13 14 15 16 17 18 
M  POLY_UPPER 6
M  POLY_LOWER 8
M  POLY_CHG 0
M  POLY_PROPERTIES ALPHA_AA D_AA PROTEIN AROMATIC POLYMER 
M  END

$$$$



 32 32  0  0  0  0  0  0  0  0999 V2000
   -1.0801    4.7869   -1.5059 H   0  0  0  1  0  0  0  0  0  0  0  0
    0.2711    4.1320   -0.0407 C   0  0  0  1  0  0  0  0  0  0  0  0
   -2.1893    4.4773    0.1949 N   0  0  0  1  0  0  0  0  0  0  0  0
   -1.0989    4.0956   -0.6894 C   0  0  0  1  0  0  0  0  0  0  0  0
    0.5828    3.3121    0.8220 O   0  0  0  1  0  0  0  0  0  0  0  0
    1.1314    5.0839   -0.4357 N   0  0  0  1  0  0  0  0  0  0  0  0
   -2.1881    4.1807    1.1289 H   0  0  0  1  0  0  0  0  0  0  0  0
   -3.2008    5.2378   -0.2676 C   0  0  0  1  0  0  0  0  0  0  0  0
    2.4390    5.2540    0.1799 C   0  0  0  1  0  0  0  0  0  0  0  0
   -4.3848    5.3978    0.6660 C   0  0  0  1  0  0  0  0  0  0  0  0
   -3.1828    5.7715   -1.3645 O   0  0  0  1  0  0  0  0  0  0  0  0
    0.8697    5.6851   -1.1640 H   0  0  0  1  0  0  0  0  0  0  0  0
    2.3755    5.0231    1.2228 H   0  0  0  1  0  0  0  0  0  0  0  0
    2.7612    6.2671    0.0582 H   0  0  0  1  0  0  0  0  0  0  0  0
    3.1417    4.5970   -0.2885 H   0  0  0  1  0  0  0  0  0  0  0  0
   -4.9515    4.4903    0.6829 H   0  0  0  1  0  0  0  0  0  0  0  0
   -5.0048    6.1989    0.3214 H   0  0  0  1  0  0  0  0  0  0  0  0
   -4.0336    5.6170    1.6527 H   0  0  0  1  0  0  0  0  0  0  0  0
   -6.5556    2.1442   -3.4638 F   0  0  0  1  0  0  0  0  0  0  0  0
   -5.3127    2.2992   -2.9689 C   0  0  0  1  0  0  0  0  0  0  0  0
   -4.2921    2.8673   -3.7153 C   0  0  0  1  0  0  0  0  0  0  0  0
   -3.0296    3.0022   -3.1693 C   0  0  0  1  0  0  0  0  0  0  0  0
   -2.7852    2.5745   -1.8736 C   0  0  0  1  0  0  0  0  0  0  0  0
   -3.8029    2.0080   -1.1295 C   0  0  0  1  0  0  0  0  0  0  0  0
   -5.0693    1.8726   -1.6769 C   0  0  0  1  0  0  0  0  0  0  0  0
   -1.4071    2.7271   -1.2744 C   0  0  0  1  0  0  0  0  0  0  0  0
   -4.4763    3.1919   -4.6860 H   0  0  0  1  0  0  0  0  0  0  0  0
   -2.2628    3.4248   -3.7307 H   0  0  0  1  0  0  0  0  0  0  0  0
   -3.6187    1.6834   -0.1588 H   0  0  0  1  0  0  0  0  0  0  0  0
   -5.8360    1.4501   -1.1156 H   0  0  0  1  0  0  0  0  0  0  0  0
   -1.3050    2.0034   -0.4928 H   0  0  0  1  0  0  0  0  0  0  0  0
   -0.6893    2.5271   -2.0423 H   0  0  0  1  0  0  0  0  0  0  0  0
  1  4  1  0  0  0  0
  2  4  1  0  0  0  0
  2  5  2  0  0  0  0
  2  6  1  0  0  0  0
  3  4  1  0  0  0  0
  3  7  1  0  0  0  0
  3  8  1  0  0  0  0
  4 26  1  0  0  0  0
  6  9  1  0  0  0  0
  6 12  1  0  0  0  0
  8 10  1  0  0  0  0
  8 11  2  0  0  0  0
  9 13  1  0  0  0  0
  9 14  1  0  0  0  0
  9 15  1  0  0  0  0
 10 16  1  0  0  0  0
 10 17  1  0  0  0  0
 10 18  1  0  0  0  0
 19 20  1  0  0  0  0
 20 21  4  0  0  0  0
 20 25  4  0  0  0  0
 21 22  4  0  0  0  0
 21 27  1  0  0  0  0
 22 23  4  0  0  0  0
 22 28  1  0  0  0  0
 23 24  4  0  0  0  0
 23 26  1  0  0  0  0
 24 25  4  0  0  0  0
 24 29  1  0  0  0  0
 25 30  1  0  0  0  0
 26 31  1  0  0  0  0
 26 32  1  0  0  0  0
M  END
> <BCLConfClusterSize>
1

> <ConfClashScore>
0 

> <ConfOneFourInteractionScore>
-0.98383 

> <ConfScore>
0.452314 

> <ConfScorePBest>
0.00321995 

> <ConfTolerance>
0.550588 

> <RosettaParamsInstructions>
M  ROOT 3
M  POLY_N_BB 3
M  POLY_CA_BB 4
M  POLY_C_BB 2
M  POLY_O_BB 5
M  POLY_IGNORE 9 10 11 12 13 14 15 16 17 18 
M  POLY_UPPER 6
M  POLY_LOWER 8
M  POLY_CHG 0
M  POLY_PROPERTIES ALPHA_AA D_AA PROTEIN AROMATIC POLYMER 
M  END

$$$$



 32 32  0  0  0  0  0  0  0  0999 V2000
   -2.1870    4.3793   -0.0996 H   0  0  0  1  0  0  0  0  0  0  0  0
   -1.2787    5.2610   -1.7824 C   0  0  0  1  0  0  0  0  0  0  0  0
   -0.1411    4.2675    0.1709 N   0  0  0  1  0  0  0  0  0  0  0  0
   -1.3162    4.2039   -0.6960 C   0  0  0  1  0  0  0  0  0  0  0  0
   -1.2320    4.9527   -2.9704 O   0  0  0  1  0  0  0  0  0  0  0  0
   -1.3000    6.5263   -1.3608 N   0  0  0  1  0  0  0  0  0  0  0  0
   -0.2914    4.4192    1.1273 H   0  0  0  1  0  0  0  0  0  0  0  0
    1.1224    4.1345   -0.2425 C   0  0  0  1  0  0  0  0  0  0  0  0
   -1.4399    7.6134   -2.3182 C   0  0  0  1  0  0  0  0  0  0  0  0
    2.2210    4.1317    0.8026 C   0  0  0  1  0  0  0  0  0  0  0  0
    1.4495    4.0138   -1.4223 O   0  0  0  1  0  0  0  0  0  0  0  0
   -1.2212    6.7243   -0.4042 H   0  0  0  1  0  0  0  0  0  0  0  0
   -1.9686    7.2641   -3.1804 H   0  0  0  1  0  0  0  0  0  0  0  0
   -0.4700    7.9581   -2.6102 H   0  0  0  1  0  0  0  0  0  0  0  0
   -1.9840    8.4171   -1.8678 H   0  0  0  1  0  0  0  0  0  0  0  0
    2.0070    3.3904    1.5439 H   0  0  0  1  0  0  0  0  0  0  0  0
    2.2742    5.0945    1.2664 H   0  0  0  1  0  0  0  0  0  0  0  0
    3.1572    3.9084    0.3351 H   0  0  0  1  0  0  0  0  0  0  0  0
   -6.5601    2.1626   -3.4575 F   0  0  0  1  0  0  0  0  0  0  0  0
   -5.3140    2.3048   -2.9666 C   0  0  0  1  0  0  0  0  0  0  0  0
   -4.2910    2.8664   -3.7147 C   0  0  0  1  0  0  0  0  0  0  0  0
   -3.0254    2.9881   -3.1729 C   0  0  0  1  0  0  0  0  0  0  0  0
   -2.7802    2.5537   -1.8796 C   0  0  0  1  0  0  0  0  0  0  0  0
   -3.8002    1.9937   -1.1338 C   0  0  0  1  0  0  0  0  0  0  0  0
   -5.0697    1.8715   -1.6770 C   0  0  0  1  0  0  0  0  0  0  0  0
   -1.4213    2.7847   -1.2620 C   0  0  0  1  0  0  0  0  0  0  0  0
   -4.4759    3.1960   -4.6836 H   0  0  0  1  0  0  0  0  0  0  0  0
   -2.2570    3.4058   -3.7356 H   0  0  0  1  0  0  0  0  0  0  0  0
   -3.6153    1.6641   -0.1649 H   0  0  0  1  0  0  0  0  0  0  0  0
   -5.8382    1.4539   -1.1144 H   0  0  0  1  0  0  0  0  0  0  0  0
   -1.2708    2.0796   -0.4714 H   0  0  0  1  0  0  0  0  0  0  0  0
   -0.6683    2.6486   -2.0100 H   0  0  0  1  0  0  0  0  0  0  0  0
  1  4  1  0  0  0  0
  2  4  1  0  0  0  0
  2  5  2  0  0  0  0
  2  6  1  0  0  0  0
  3  4  1  0  0  0  0
  3  7  1  0  0  0  0
  3  8  1  0  0  0  0
  4 26  1  0  0  0  0
  6  9  1  0  0  0  0
  6 12  1  0  0  0  0
  8 10  1  0  0  0  0
  8 11  2  0  0  0  0
  9 13  1  0  0  0  0
  9 14  1  0  0  0  0
  9 15  1  0  0  0  0
 10 16  1  0  0  0  0
 10 17  1  0  0  0  0
 10 18  1  0  0  0  0
 19 20  1  0  0  0  0
 20 21  4  0  0  0  0
 20 25  4  0  0  0  0
 21 22  4  0  0  0  0
 21 27  1  0  0  0  0
 22 23  4  0  0  0  0
 22 28  1  0  0  0  0
 23 24  4  0  0  0  0
 23 26  1  0  0  0  0
 24 25  4  0  0  0  0
 24 29  1  0  0  0  0
 25 30  1  0  0  0  0
 26 31  1  0  0  0  0
 26 32  1  0  0  0  0
M  END
> <BCLConfClusterSize>
1

> <ConfClashScore>
0 

> <ConfOneFourInteractionScore>
-0.976146 

> <ConfScore>
0.452402 

> <ConfScorePBest>
0.00319147 

> <ConfTolerance>
0.525105 

> <RosettaParamsInstructions>
M  ROOT 3
M  POLY_N_BB 3
M  POLY_CA_BB 4
M  POLY_C_BB 2
M  POLY_O_BB 5
M  POLY_IGNORE 9 10 11 12 13 14 15 16 17 18 
M  POLY_UPPER 6
M  POLY_LOWER 8
M  POLY_CHG 0
M  POLY_PROPERTIES ALPHA_AA D_AA PROTEIN AROMATIC POLYMER 
M  END

$$$$



 32 32  0  0  0  0  0  0  0  0999 V2000
   -0.8766    0.6335   -1.2540 H   0  0  0  1  0  0  0  0  0  0  0  0
    0.9278    1.7371   -1.2903 C   0  0  0  1  0  0  0  0  0  0  0  0
   -0.5948    1.3234   -3.1830 N   0  0  0  1  0  0  0  0  0  0  0  0
   -0.5078    1.5111   -1.7425 C   0  0  0  1  0  0  0  0  0  0  0  0
    1.7491    0.8218   -1.3170 O   0  0  0  1  0  0  0  0  0  0  0  0
    1.2693    2.9629   -0.8626 N   0  0  0  1  0  0  0  0  0  0  0  0
   -0.8667    0.4483   -3.5304 H   0  0  0  1  0  0  0  0  0  0  0  0
   -0.3170    2.3027   -4.0484 C   0  0  0  1  0  0  0  0  0  0  0  0
    2.5733    3.2489   -0.2834 C   0  0  0  1  0  0  0  0  0  0  0  0
   -0.2774    1.8990   -5.5095 C   0  0  0  1  0  0  0  0  0  0  0  0
   -0.1041    3.4635   -3.7008 O   0  0  0  1  0  0  0  0  0  0  0  0
    0.6177    3.6905   -0.9432 H   0  0  0  1  0  0  0  0  0  0  0  0
    2.8209    4.2764   -0.4507 H   0  0  0  1  0  0  0  0  0  0  0  0
    3.3117    2.6251   -0.7423 H   0  0  0  1  0  0  0  0  0  0  0  0
    2.5462    3.0556    0.7686 H   0  0  0  1  0  0  0  0  0  0  0  0
    0.6919    2.1081   -5.9116 H   0  0  0  1  0  0  0  0  0  0  0  0
   -1.0153    2.4520   -6.0522 H   0  0  0  1  0  0  0  0  0  0  0  0
   -0.4807    0.8520   -5.5956 H   0  0  0  1  0  0  0  0  0  0  0  0
   -6.5386    2.1416   -3.5033 F   0  0  0  1  0  0  0  0  0  0  0  0
   -5.3132    2.2905   -2.9646 C   0  0  0  1  0  0  0  0  0  0  0  0
   -4.2943    2.8651   -3.7085 C   0  0  0  1  0  0  0  0  0  0  0  0
   -3.0355    3.0130   -3.1575 C   0  0  0  1  0  0  0  0  0  0  0  0
   -2.7930    2.5917   -1.8593 C   0  0  0  1  0  0  0  0  0  0  0  0
   -3.8090    2.0188   -1.1177 C   0  0  0  1  0  0  0  0  0  0  0  0
   -5.0717    1.8704   -1.6702 C   0  0  0  1  0  0  0  0  0  0  0  0
   -1.3824    2.6870   -1.3277 C   0  0  0  1  0  0  0  0  0  0  0  0
   -4.4772    3.1848   -4.6811 H   0  0  0  1  0  0  0  0  0  0  0  0
   -2.2700    3.4404   -3.7169 H   0  0  0  1  0  0  0  0  0  0  0  0
   -3.6261    1.6990   -0.1452 H   0  0  0  1  0  0  0  0  0  0  0  0
   -5.8372    1.4430   -1.1108 H   0  0  0  1  0  0  0  0  0  0  0  0
   -0.9394    3.5881   -1.6974 H   0  0  0  1  0  0  0  0  0  0  0  0
   -1.4228    2.7211   -0.2590 H   0  0  0  1  0  0  0  0  0  0  0  0
  1  4  1  0  0  0  0
  2  4  1  0  0  0  0
  2  5  2  0  0  0  0
  2  6  1  0  0  0  0
  3  4  1  0  0  0  0
  3  7  1  0  0  0  0
  3  8  1  0  0  0  0
  4 26  1  0  0  0  0
  6  9  1  0  0  0  0
  6 12  1  0  0  0  0
  8 10  1  0  0  0  0
  8 11  2  0  0  0  0
  9 13  1  0  0  0  0
  9 14  1  0  0  0  0
  9 15  1  0  0  0  0
 10 16  1  0  0  0  0
 10 17  1  0  0  0  0
 10 18  1  0  0  0  0
 19 20  1  0  0  0  0
 20 21  4  0  0  0  0
 20 25  4  0  0  0  0
 21 22  4  0  0  0  0
 21 27  1  0  0  0  0
 22 23  4  0  0  0  0
 22 28  1  0  0  0  0
 23 24  4  0  0  0  0
 23 26  1  0  0  0  0
 24 25  4  0  0  0  0
 24 29  1  0  0  0  0
 25 30  1  0  0  0  0
 26 31  1  0  0  0  0
 26 32  1  0  0  0  0
M  END
> <BCLConfClusterSize>
1

> <ConfClashScore>
0 

> <ConfOneFourInteractionScore>
-0.927228 

> <ConfScore>
0.45364 

> <ConfScorePBest>
0.00316299 

> <ConfTolerance>
0.747269 

> <RosettaParamsInstructions>
M  ROOT 3
M  POLY_N_BB 3
M  POLY_CA_BB 4
M  POLY_C_BB 2
M  POLY_O_BB 5
M  POLY_IGNORE 9 10 11 12 13 14 15 16 17 18 
M  POLY_UPPER 6
M  POLY_LOWER 8
M  POLY_CHG 0
M  POLY_PROPERTIES ALPHA_AA D_AA PROTEIN AROMATIC POLYMER 
M  END

$$$$



 32 32  0  0  0  0  0  0  0  0999 V2000
   -2.2143    4.0171    0.2247 H   0  0  0  1  0  0  0  0  0  0  0  0
   -0.1088    4.2778    0.1349 C   0  0  0  1  0  0  0  0  0  0  0  0
   -1.2903    2.4061    1.1613 N   0  0  0  1  0  0  0  0  0  0  0  0
   -1.3471    3.4025    0.1022 C   0  0  0  1  0  0  0  0  0  0  0  0
    0.6256    4.3083    1.1215 O   0  0  0  1  0  0  0  0  0  0  0  0
    0.1222    5.0029   -0.9710 N   0  0  0  1  0  0  0  0  0  0  0  0
   -2.1165    2.1678    1.6314 H   0  0  0  1  0  0  0  0  0  0  0  0
   -0.1508    1.8049    1.5152 C   0  0  0  1  0  0  0  0  0  0  0  0
    1.2511    5.9146   -1.0811 C   0  0  0  1  0  0  0  0  0  0  0  0
   -0.2389    0.8761    2.7194 C   0  0  0  1  0  0  0  0  0  0  0  0
    0.9094    1.9777    0.9199 O   0  0  0  1  0  0  0  0  0  0  0  0
   -0.4907    4.9152   -1.7306 H   0  0  0  1  0  0  0  0  0  0  0  0
    0.8958    6.8964   -1.3149 H   0  0  0  1  0  0  0  0  0  0  0  0
    1.9064    5.5785   -1.8573 H   0  0  0  1  0  0  0  0  0  0  0  0
    1.7812    5.9393   -0.1519 H   0  0  0  1  0  0  0  0  0  0  0  0
    0.7310    0.4801    2.9368 H   0  0  0  1  0  0  0  0  0  0  0  0
   -0.9112    0.0727    2.5014 H   0  0  0  1  0  0  0  0  0  0  0  0
   -0.5985    1.4230    3.5658 H   0  0  0  1  0  0  0  0  0  0  0  0
   -6.5463    2.1567   -3.4899 F   0  0  0  1  0  0  0  0  0  0  0  0
   -5.3147    2.2963   -2.9629 C   0  0  0  1  0  0  0  0  0  0  0  0
   -4.2994    2.8654   -3.7156 C   0  0  0  1  0  0  0  0  0  0  0  0
   -3.0342    3.0038   -3.1767 C   0  0  0  1  0  0  0  0  0  0  0  0
   -2.7820    2.5785   -1.8817 C   0  0  0  1  0  0  0  0  0  0  0  0
   -3.7945    2.0111   -1.1313 C   0  0  0  1  0  0  0  0  0  0  0  0
   -5.0635    1.8722   -1.6717 C   0  0  0  1  0  0  0  0  0  0  0  0
   -1.4219    2.7089   -1.2377 C   0  0  0  1  0  0  0  0  0  0  0  0
   -4.4895    3.1882   -4.6858 H   0  0  0  1  0  0  0  0  0  0  0  0
   -2.2714    3.4270   -3.7428 H   0  0  0  1  0  0  0  0  0  0  0  0
   -3.6043    1.6883   -0.1611 H   0  0  0  1  0  0  0  0  0  0  0  0
   -5.8264    1.4489   -1.1056 H   0  0  0  1  0  0  0  0  0  0  0  0
   -1.0326    1.7206   -1.1089 H   0  0  0  1  0  0  0  0  0  0  0  0
   -0.7978    3.2532   -1.9153 H   0  0  0  1  0  0  0  0  0  0  0  0
  1  4  1  0  0  0  0
  2  4  1  0  0  0  0
  2  5  2  0  0  0  0
  2  6  1  0  0  0  0
  3  4  1  0  0  0  0
  3  7  1  0  0  0  0
  3  8  1  0  0  0  0
  4 26  1  0  0  0  0
  6  9  1  0  0  0  0
  6 12  1  0  0  0  0
  8 10  1  0  0  0  0
  8 11  2  0  0  0  0
  9 13  1  0  0  0  0
  9 14  1  0  0  0  0
  9 15  1  0  0  0  0
 10 16  1  0  0  0  0
 10 17  1  0  0  0  0
 10 18  1  0  0  0  0
 19 20  1  0  0  0  0
 20 21  4  0  0  0  0
 20 25  4  0  0  0  0
 21 22  4  0  0  0  0
 21 27  1  0  0  0  0
 22 23  4  0  0  0  0
 22 28  1  0  0  0  0
 23 24  4  0  0  0  0
 23 26  1  0  0  0  0
 24 25  4  0  0  0  0
 24 29  1  0  0  0  0
 25 30  1  0  0  0  0
 26 31  1  0  0  0  0
 26 32  1  0  0  0  0
M  END
> <BCLConfClusterSize>
1

> <ConfClashScore>
0 

> <ConfOneFourInteractionScore>
-0.926255 

> <ConfScore>
0.461711 

> <ConfScorePBest>
0.00313451 

> <ConfTolerance>
0.693658 

> <RosettaParamsInstructions>
M  ROOT 3
M  POLY_N_BB 3
M  POLY_CA_BB 4
M  POLY_C_BB 2
M  POLY_O_BB 5
M  POLY_IGNORE 9 10 11 12 13 14 15 16 17 18 
M  POLY_UPPER 6
M  POLY_LOWER 8
M  POLY_CHG 0
M  POLY_PROPERTIES ALPHA_AA D_AA PROTEIN AROMATIC POLYMER 
M  END

$$$$



 32 32  0  0  0  0  0  0  0  0999 V2000
   -0.6475    0.9566   -2.1622 H   0  0  0  1  0  0  0  0  0  0  0  0
    1.0132    2.0684   -1.4853 C   0  0  0  1  0  0  0  0  0  0  0  0
   -0.3135    2.5213   -3.4807 N   0  0  0  1  0  0  0  0  0  0  0  0
   -0.3632    1.9871   -2.1174 C   0  0  0  1  0  0  0  0  0  0  0  0
    1.2177    2.3223   -0.3132 O   0  0  0  1  0  0  0  0  0  0  0  0
    2.0095    1.8323   -2.3436 N   0  0  0  1  0  0  0  0  0  0  0  0
   -0.2033    3.4868   -3.6066 H   0  0  0  1  0  0  0  0  0  0  0  0
   -0.4171    1.7081   -4.5990 C   0  0  0  1  0  0  0  0  0  0  0  0
    3.4080    1.8826   -1.9442 C   0  0  0  1  0  0  0  0  0  0  0  0
   -0.3198    2.3282   -5.9646 C   0  0  0  1  0  0  0  0  0  0  0  0
   -0.5843    0.5131   -4.4364 O   0  0  0  1  0  0  0  0  0  0  0  0
    1.7909    1.6177   -3.2745 H   0  0  0  1  0  0  0  0  0  0  0  0
    3.4823    1.7445   -0.8857 H   0  0  0  1  0  0  0  0  0  0  0  0
    3.8204    2.8336   -2.2094 H   0  0  0  1  0  0  0  0  0  0  0  0
    3.9495    1.1066   -2.4438 H   0  0  0  1  0  0  0  0  0  0  0  0
   -1.0747    1.9138   -6.5996 H   0  0  0  1  0  0  0  0  0  0  0  0
    0.6455    2.1263   -6.3797 H   0  0  0  1  0  0  0  0  0  0  0  0
   -0.4610    3.3860   -5.8866 H   0  0  0  1  0  0  0  0  0  0  0  0
   -6.5556    2.1442   -3.4638 F   0  0  0  1  0  0  0  0  0  0  0  0
   -5.3127    2.2992   -2.9689 C   0  0  0  1  0  0  0  0  0  0  0  0
   -4.2921    2.8673   -3.7153 C   0  0  0  1  0  0  0  0  0  0  0  0
   -3.0296    3.0022   -3.1693 C   0  0  0  1  0  0  0  0  0  0  0  0
   -2.7852    2.5745   -1.8736 C   0  0  0  1  0  0  0  0  0  0  0  0
   -3.8029    2.0080   -1.1295 C   0  0  0  1  0  0  0  0  0  0  0  0
   -5.0693    1.8726   -1.6769 C   0  0  0  1  0  0  0  0  0  0  0  0
   -1.4071    2.7271   -1.2744 C   0  0  0  1  0  0  0  0  0  0  0  0
   -4.4763    3.1919   -4.6860 H   0  0  0  1  0  0  0  0  0  0  0  0
   -2.2628    3.4248   -3.7307 H   0  0  0  1  0  0  0  0  0  0  0  0
   -3.6187    1.6834   -0.1588 H   0  0  0  1  0  0  0  0  0  0  0  0
   -5.8360    1.4501   -1.1156 H   0  0  0  1  0  0  0  0  0  0  0  0
   -1.1544    3.7661   -1.2358 H   0  0  0  1  0  0  0  0  0  0  0  0
   -1.4086    2.3228   -0.2837 H   0  0  0  1  0  0  0  0  0  0  0  0
  1  4  1  0  0  0  0
  2  4  1  0  0  0  0
  2  5  2  0  0  0  0
  2  6  1  0  0  0  0
  3  4  1  0  0  0  0
  3  7  1  0  0  0  0
  3  8  1  0  0  0  0
  4 26  1  0  0  0  0
  6  9  1  0  0  0  0
  6 12  1  0  0  0  0
  8 10  1  0  0  0  0
  8 11  2  0  0  0  0
  9 13  1  0  0  0  0
  9 14  1  0  0  0  0
  9 15  1  0  0  0  0
 10 16  1  0  0  0  0
 10 17  1  0  0  0  0
 10 18  1  0  0  0  0
 19 20  1  0  0  0  0
 20 21  4  0  0  0  0
 20 25  4  0  0  0  0
 21 22  4  0  0  0  0
 21 27  1  0  0  0  0
 22 23  4  0  0  0  0
 22 28  1  0  0  0  0
 23 24  4  0  0  0  0
 23 26  1  0  0  0  0
 24 25  4  0  0  0  0
 24 29  1  0  0  0  0
 25 30  1  0  0  0  0
 26 31  1  0  0  0  0
 26 32  1  0  0  0  0
M  END
> <BCLConfClusterSize>
1

> <ConfClashScore>
0 

> <ConfOneFourInteractionScore>
-0.937416 

> <ConfScore>
0.469374 

> <ConfScorePBest>
0.00310603 

> <ConfTolerance>
0.881311 

> <RosettaParamsInstructions>
M  ROOT 3
M  POLY_N_BB 3
M  POLY_CA_BB 4
M  POLY_C_BB 2
M  POLY_O_BB 5
M  POLY_IGNORE 9 10 11 12 13 14 15 16 17 18 
M  POLY_UPPER 6
M  POLY_LOWER 8
M  POLY_CHG 0
M  POLY_PROPERTIES ALPHA_AA D_AA PROTEIN AROMATIC POLYMER 
M  END

$$$$



 32 32  0  0  0  0  0  0  0  0999 V2000
   -0.1776    4.3237   -0.5926 H   0  0  0  1  0  0  0  0  0  0  0  0
   -1.3374    3.8107    1.0740 C   0  0  0  1  0  0  0  0  0  0  0  0
   -2.0637    5.1012   -0.8960 N   0  0  0  1  0  0  0  0  0  0  0  0
   -1.1873    4.0121   -0.4245 C   0  0  0  1  0  0  0  0  0  0  0  0
   -0.3667    3.4654    1.7464 O   0  0  0  1  0  0  0  0  0  0  0  0
   -2.5276    4.1091    1.6059 N   0  0  0  1  0  0  0  0  0  0  0  0
   -2.7172    4.9107   -1.6010 H   0  0  0  1  0  0  0  0  0  0  0  0
   -1.9968    6.3484   -0.3910 C   0  0  0  1  0  0  0  0  0  0  0  0
   -2.8237    3.8998    3.0153 C   0  0  0  1  0  0  0  0  0  0  0  0
   -3.0443    7.2965   -0.9605 C   0  0  0  1  0  0  0  0  0  0  0  0
   -1.1818    6.7196    0.4495 O   0  0  0  1  0  0  0  0  0  0  0  0
   -3.2246    4.4816    1.0264 H   0  0  0  1  0  0  0  0  0  0  0  0
   -1.9402    3.5700    3.5208 H   0  0  0  1  0  0  0  0  0  0  0  0
   -3.5881    3.1573    3.1125 H   0  0  0  1  0  0  0  0  0  0  0  0
   -3.1606    4.8181    3.4489 H   0  0  0  1  0  0  0  0  0  0  0  0
   -2.8575    8.2891   -0.6073 H   0  0  0  1  0  0  0  0  0  0  0  0
   -4.0176    6.9833   -0.6451 H   0  0  0  1  0  0  0  0  0  0  0  0
   -2.9937    7.2830   -2.0293 H   0  0  0  1  0  0  0  0  0  0  0  0
   -6.5450    2.1585   -3.4937 F   0  0  0  1  0  0  0  0  0  0  0  0
   -5.3149    2.2962   -2.9627 C   0  0  0  1  0  0  0  0  0  0  0  0
   -4.2965    2.8647   -3.7117 C   0  0  0  1  0  0  0  0  0  0  0  0
   -3.0329    3.0011   -3.1686 C   0  0  0  1  0  0  0  0  0  0  0  0
   -2.7853    2.5743   -1.8732 C   0  0  0  1  0  0  0  0  0  0  0  0
   -3.8009    2.0075   -1.1265 C   0  0  0  1  0  0  0  0  0  0  0  0
   -5.0683    1.8706   -1.6711 C   0  0  0  1  0  0  0  0  0  0  0  0
   -1.4060    2.7284   -1.2772 C   0  0  0  1  0  0  0  0  0  0  0  0
   -4.4831    3.1886   -4.6822 H   0  0  0  1  0  0  0  0  0  0  0  0
   -2.2677    3.4239   -3.7319 H   0  0  0  1  0  0  0  0  0  0  0  0
   -3.6142    1.6836   -0.1560 H   0  0  0  1  0  0  0  0  0  0  0  0
   -5.8335    1.4478   -1.1078 H   0  0  0  1  0  0  0  0  0  0  0  0
   -1.2204    1.8807   -0.6512 H   0  0  0  1  0  0  0  0  0  0  0  0
   -0.6989    2.7411   -2.0802 H   0  0  0  1  0  0  0  0  0  0  0  0
  1  4  1  0  0  0  0
  2  4  1  0  0  0  0
  2  5  2  0  0  0  0
  2  6  1  0  0  0  0
  3  4  1  0  0  0  0
  3  7  1  0  0  0  0
  3  8  1  0  0  0  0
  4 26  1  0  0  0  0
  6  9  1  0  0  0  0
  6 12  1  0  0  0  0
  8 10  1  0  0  0  0
  8 11  2  0  0  0  0
  9 13  1  0  0  0  0
  9 14  1  0  0  0  0
  9 15  1  0  0  0  0
 10 16  1  0  0  0  0
 10 17  1  0  0  0  0
 10 18  1  0  0  0  0
 19 20  1  0  0  0  0
 20 21  4  0  0  0  0
 20 25  4  0  0  0  0
 21 22  4  0  0  0  0
 21 27  1  0  0  0  0
 22 23  4  0  0  0  0
 22 28  1  0  0  0  0
 23 24  4  0  0  0  0
 23 26  1  0  0  0  0
 24 25  4  0  0  0  0
 24 29  1  0  0  0  0
 25 30  1  0  0  0  0
 26 31  1  0  0  0  0
 26 32  1  0  0  0  0
M  END
> <BCLConfClusterSize>
1

> <ConfClashScore>
0 

> <ConfOneFourInteractionScore>
-0.928132 

> <ConfScore>
0.474253 

> <ConfScorePBest>
0.00307755 

> <ConfTolerance>
0.48858 

> <RosettaParamsInstructions>
M  ROOT 3
M  POLY_N_BB 3
M  POLY_CA_BB 4
M  POLY_C_BB 2
M  POLY_O_BB 5
M  POLY_IGNORE 9 10 11 12 13 14 15 16 17 18 
M  POLY_UPPER 6
M  POLY_LOWER 8
M  POLY_CHG 0
M  POLY_PROPERTIES ALPHA_AA D_AA PROTEIN AROMATIC POLYMER 
M  END

$$$$



 32 32  0  0  0  0  0  0  0  0999 V2000
   -2.0866    4.5124   -0.4202 H   0  0  0  1  0  0  0  0  0  0  0  0
    0.0094    4.6787   -0.4411 C   0  0  0  1  0  0  0  0  0  0  0  0
   -1.4017    3.2863    1.0846 N   0  0  0  1  0  0  0  0  0  0  0  0
   -1.2622    3.8485   -0.2636 C   0  0  0  1  0  0  0  0  0  0  0  0
    0.1313    5.3259   -1.4803 O   0  0  0  1  0  0  0  0  0  0  0  0
    0.8928    4.6307    0.5601 N   0  0  0  1  0  0  0  0  0  0  0  0
   -2.0200    3.7136    1.7135 H   0  0  0  1  0  0  0  0  0  0  0  0
   -0.7093    2.2031    1.4879 C   0  0  0  1  0  0  0  0  0  0  0  0
    2.2285    5.1940    0.4451 C   0  0  0  1  0  0  0  0  0  0  0  0
   -0.9551    1.8262    2.9446 C   0  0  0  1  0  0  0  0  0  0  0  0
    0.0567    1.5564    0.7748 O   0  0  0  1  0  0  0  0  0  0  0  0
    0.6315    4.2010    1.4012 H   0  0  0  1  0  0  0  0  0  0  0  0
    2.5858    5.0646   -0.5551 H   0  0  0  1  0  0  0  0  0  0  0  0
    2.8857    4.6944    1.1258 H   0  0  0  1  0  0  0  0  0  0  0  0
    2.1967    6.2374    0.6801 H   0  0  0  1  0  0  0  0  0  0  0  0
   -1.9211    1.3757    3.0388 H   0  0  0  1  0  0  0  0  0  0  0  0
   -0.9112    2.7056    3.5526 H   0  0  0  1  0  0  0  0  0  0  0  0
   -0.2057    1.1328    3.2646 H   0  0  0  1  0  0  0  0  0  0  0  0
   -6.5445    2.1586   -3.4935 F   0  0  0  1  0  0  0  0  0  0  0  0
   -5.3144    2.2963   -2.9625 C   0  0  0  1  0  0  0  0  0  0  0  0
   -4.2960    2.8648   -3.7115 C   0  0  0  1  0  0  0  0  0  0  0  0
   -3.0324    3.0011   -3.1684 C   0  0  0  1  0  0  0  0  0  0  0  0
   -2.7848    2.5744   -1.8730 C   0  0  0  1  0  0  0  0  0  0  0  0
   -3.8004    2.0075   -1.1263 C   0  0  0  1  0  0  0  0  0  0  0  0
   -5.0678    1.8707   -1.6709 C   0  0  0  1  0  0  0  0  0  0  0  0
   -1.4114    2.7278   -1.2795 C   0  0  0  1  0  0  0  0  0  0  0  0
   -4.4826    3.1886   -4.6820 H   0  0  0  1  0  0  0  0  0  0  0  0
   -2.2672    3.4240   -3.7317 H   0  0  0  1  0  0  0  0  0  0  0  0
   -3.6137    1.6837   -0.1558 H   0  0  0  1  0  0  0  0  0  0  0  0
   -5.8330    1.4478   -1.1076 H   0  0  0  1  0  0  0  0  0  0  0  0
   -1.1560    1.8080   -0.7962 H   0  0  0  1  0  0  0  0  0  0  0  0
   -0.7251    2.9136   -2.0791 H   0  0  0  1  0  0  0  0  0  0  0  0
  1  4  1  0  0  0  0
  2  4  1  0  0  0  0
  2  5  2  0  0  0  0
  2  6  1  0  0  0  0
  3  4  1  0  0  0  0
  3  7  1  0  0  0  0
  3  8  1  0  0  0  0
  4 26  1  0  0  0  0
  6  9  1  0  0  0  0
  6 12  1  0  0  0  0
  8 10  1  0  0  0  0
  8 11  2  0  0  0  0
  9 13  1  0  0  0  0
  9 14  1  0  0  0  0
  9 15  1  0  0  0  0
 10 16  1  0  0  0  0
 10 17  1  0  0  0  0
 10 18  1  0  0  0  0
 19 20  1  0  0  0  0
 20 21  4  0  0  0  0
 20 25  4  0  0  0  0
 21 22  4  0  0  0  0
 21 27  1  0  0  0  0
 22 23  4  0  0  0  0
 22 28  1  0  0  0  0
 23 24  4  0  0  0  0
 23 26  1  0  0  0  0
 24 25  4  0  0  0  0
 24 29  1  0  0  0  0
 25 30  1  0  0  0  0
 26 31  1  0  0  0  0
 26 32  1  0  0  0  0
M  END
> <BCLConfClusterSize>
1

> <ConfClashScore>
0 

> <ConfOneFourInteractionScore>
-0.95103 

> <ConfScore>
0.478177 

> <ConfScorePBest>
0.00304907 

> <ConfTolerance>
0.793802 

> <RosettaParamsInstructions>
M  ROOT 3
M  POLY_N_BB 3
M  POLY_CA_BB 4
M  POLY_C_BB 2
M  POLY_O_BB 5
M  POLY_IGNORE 9 10 11 12 13 14 15 16 17 18 
M  POLY_UPPER 6
M  POLY_LOWER 8
M  POLY_CHG 0
M  POLY_PROPERTIES ALPHA_AA D_AA PROTEIN AROMATIC POLYMER 
M  END

$$$$



 32 32  0  0  0  0  0  0  0  0999 V2000
   -0.3006    3.3990   -3.0051 H   0  0  0  1  0  0  0  0  0  0  0  0
   -0.6045    1.3329   -3.2473 C   0  0  0  1  0  0  0  0  0  0  0  0
    1.0015    2.4357   -1.7370 N   0  0  0  1  0  0  0  0  0  0  0  0
   -0.3024    2.5358   -2.3729 C   0  0  0  1  0  0  0  0  0  0  0  0
   -0.7711    0.2277   -2.7331 O   0  0  0  1  0  0  0  0  0  0  0  0
   -0.7603    1.5635   -4.5605 N   0  0  0  1  0  0  0  0  0  0  0  0
    1.1759    1.7217   -1.0888 H   0  0  0  1  0  0  0  0  0  0  0  0
    1.9622    3.3152   -2.0346 C   0  0  0  1  0  0  0  0  0  0  0  0
   -1.1250    0.5108   -5.4968 C   0  0  0  1  0  0  0  0  0  0  0  0
    3.2689    3.1421   -1.2850 C   0  0  0  1  0  0  0  0  0  0  0  0
    1.8146    4.2145   -2.8610 O   0  0  0  1  0  0  0  0  0  0  0  0
   -0.6237    2.4724   -4.9006 H   0  0  0  1  0  0  0  0  0  0  0  0
   -1.4199   -0.3632   -4.9544 H   0  0  0  1  0  0  0  0  0  0  0  0
   -0.2846    0.2786   -6.1171 H   0  0  0  1  0  0  0  0  0  0  0  0
   -1.9386    0.8429   -6.1073 H   0  0  0  1  0  0  0  0  0  0  0  0
    3.3941    2.1135   -1.0183 H   0  0  0  1  0  0  0  0  0  0  0  0
    3.2531    3.7408   -0.3983 H   0  0  0  1  0  0  0  0  0  0  0  0
    4.0814    3.4499   -1.9094 H   0  0  0  1  0  0  0  0  0  0  0  0
   -6.5317    2.1748   -3.5266 F   0  0  0  1  0  0  0  0  0  0  0  0
   -5.3173    2.2931   -2.9564 C   0  0  0  1  0  0  0  0  0  0  0  0
   -4.2981    2.8615   -3.7045 C   0  0  0  1  0  0  0  0  0  0  0  0
   -3.0349    2.9974   -3.1604 C   0  0  0  1  0  0  0  0  0  0  0  0
   -2.7884    2.5703   -1.8649 C   0  0  0  1  0  0  0  0  0  0  0  0
   -3.8047    2.0036   -1.1191 C   0  0  0  1  0  0  0  0  0  0  0  0
   -5.0718    1.8672   -1.6646 C   0  0  0  1  0  0  0  0  0  0  0  0
   -1.3919    2.7478   -1.3175 C   0  0  0  1  0  0  0  0  0  0  0  0
   -4.4839    3.1856   -4.6751 H   0  0  0  1  0  0  0  0  0  0  0  0
   -2.2692    3.4201   -3.7231 H   0  0  0  1  0  0  0  0  0  0  0  0
   -3.6189    1.6794   -0.1485 H   0  0  0  1  0  0  0  0  0  0  0  0
   -5.8375    1.4445   -1.1020 H   0  0  0  1  0  0  0  0  0  0  0  0
   -1.3017    3.7410   -0.9298 H   0  0  0  1  0  0  0  0  0  0  0  0
   -1.2432    2.0412   -0.5279 H   0  0  0  1  0  0  0  0  0  0  0  0
  1  4  1  0  0  0  0
  2  4  1  0  0  0  0
  2  5  2  0  0  0  0
  2  6  1  0  0  0  0
  3  4  1  0  0  0  0
  3  7  1  0  0  0  0
  3  8  1  0  0  0  0
  4 26  1  0  0  0  0
  6  9  1  0  0  0  0
  6 12  1  0  0  0  0
  8 10  1  0  0  0  0
  8 11  2  0  0  0  0
  9 13  1  0  0  0  0
  9 14  1  0  0  0  0
  9 15  1  0  0  0  0
 10 16  1  0  0  0  0
 10 17  1  0  0  0  0
 10 18  1  0  0  0  0
 19 20  1  0  0  0  0
 20 21  4  0  0  0  0
 20 25  4  0  0  0  0
 21 22  4  0  0  0  0
 21 27  1  0  0  0  0
 22 23  4  0  0  0  0
 22 28  1  0  0  0  0
 23 24  4  0  0  0  0
 23 26  1  0  0  0  0
 24 25  4  0  0  0  0
 24 29  1  0  0  0  0
 25 30  1  0  0  0  0
 26 31  1  0  0  0  0
 26 32  1  0  0  0  0
M  END
> <BCLConfClusterSize>
1

> <ConfClashScore>
0 

> <ConfOneFourInteractionScore>
-0.967818 

> <ConfScore>
0.482194 

> <ConfScorePBest>
0.00302059 

> <ConfTolerance>
0.83465 

> <RosettaParamsInstructions>
M  ROOT 3
M  POLY_N_BB 3
M  POLY_CA_BB 4
M  POLY_C_BB 2
M  POLY_O_BB 5
M  POLY_IGNORE 9 10 11 12 13 14 15 16 17 18 
M  POLY_UPPER 6
M  POLY_LOWER 8
M  POLY_CHG 0
M  POLY_PROPERTIES ALPHA_AA D_AA PROTEIN AROMATIC POLYMER 
M  END

$$$$



 32 32  0  0  0  0  0  0  0  0999 V2000
   -0.8994    4.3082   -2.5515 H   0  0  0  1  0  0  0  0  0  0  0  0
    0.0883    2.6374   -3.3344 C   0  0  0  1  0  0  0  0  0  0  0  0
    0.6961    3.9456   -1.3036 N   0  0  0  1  0  0  0  0  0  0  0  0
   -0.3957    3.4532   -2.1514 C   0  0  0  1  0  0  0  0  0  0  0  0
   -0.5769    2.5517   -4.3658 O   0  0  0  1  0  0  0  0  0  0  0  0
    1.2736    2.0273   -3.1762 N   0  0  0  1  0  0  0  0  0  0  0  0
    0.7690    3.6418   -0.3748 H   0  0  0  1  0  0  0  0  0  0  0  0
    1.6113    4.8268   -1.8066 C   0  0  0  1  0  0  0  0  0  0  0  0
    1.8969    1.2524   -4.2387 C   0  0  0  1  0  0  0  0  0  0  0  0
    2.5929    5.3382   -0.7702 C   0  0  0  1  0  0  0  0  0  0  0  0
    1.6163    5.1534   -2.9792 O   0  0  0  1  0  0  0  0  0  0  0  0
    1.7351    2.1065   -2.3153 H   0  0  0  1  0  0  0  0  0  0  0  0
    1.1417    0.7403   -4.7975 H   0  0  0  1  0  0  0  0  0  0  0  0
    2.5698    0.5386   -3.8114 H   0  0  0  1  0  0  0  0  0  0  0  0
    2.4376    1.9086   -4.8882 H   0  0  0  1  0  0  0  0  0  0  0  0
    3.2305    6.0737   -1.2144 H   0  0  0  1  0  0  0  0  0  0  0  0
    3.1857    4.5242   -0.4085 H   0  0  0  1  0  0  0  0  0  0  0  0
    2.0550    5.7776    0.0438 H   0  0  0  1  0  0  0  0  0  0  0  0
   -6.5450    2.1585   -3.4937 F   0  0  0  1  0  0  0  0  0  0  0  0
   -5.3149    2.2962   -2.9627 C   0  0  0  1  0  0  0  0  0  0  0  0
   -4.2965    2.8647   -3.7117 C   0  0  0  1  0  0  0  0  0  0  0  0
   -3.0329    3.0011   -3.1686 C   0  0  0  1  0  0  0  0  0  0  0  0
   -2.7853    2.5743   -1.8732 C   0  0  0  1  0  0  0  0  0  0  0  0
   -3.8009    2.0075   -1.1265 C   0  0  0  1  0  0  0  0  0  0  0  0
   -5.0683    1.8706   -1.6711 C   0  0  0  1  0  0  0  0  0  0  0  0
   -1.4060    2.7284   -1.2772 C   0  0  0  1  0  0  0  0  0  0  0  0
   -4.4831    3.1886   -4.6822 H   0  0  0  1  0  0  0  0  0  0  0  0
   -2.2677    3.4239   -3.7319 H   0  0  0  1  0  0  0  0  0  0  0  0
   -3.6142    1.6836   -0.1560 H   0  0  0  1  0  0  0  0  0  0  0  0
   -5.8335    1.4478   -1.1078 H   0  0  0  1  0  0  0  0  0  0  0  0
   -1.5012    3.2736   -0.3614 H   0  0  0  1  0  0  0  0  0  0  0  0
   -1.0237    1.7502   -1.0725 H   0  0  0  1  0  0  0  0  0  0  0  0
  1  4  1  0  0  0  0
  2  4  1  0  0  0  0
  2  5  2  0  0  0  0
  2  6  1  0  0  0  0
  3  4  1  0  0  0  0
  3  7  1  0  0  0  0
  3  8  1  0  0  0  0
  4 26  1  0  0  0  0
  6  9  1  0  0  0  0
  6 12  1  0  0  0  0
  8 10  1  0  0  0  0
  8 11  2  0  0  0  0
  9 13  1  0  0  0  0
  9 14  1  0  0  0  0
  9 15  1  0  0  0  0
 10 16  1  0  0  0  0
 10 17  1  0  0  0  0
 10 18  1  0  0  0  0
 19 20  1  0  0  0  0
 20 21  4  0  0  0  0
 20 25  4  0  0  0  0
 21 22  4  0  0  0  0
 21 27  1  0  0  0  0
 22 23  4  0  0  0  0
 22 28  1  0  0  0  0
 23 24  4  0  0  0  0
 23 26  1  0  0  0  0
 24 25  4  0  0  0  0
 24 29  1  0  0  0  0
 25 30  1  0  0  0  0
 26 31  1  0  0  0  0
 26 32  1  0  0  0  0
M  END
> <BCLConfClusterSize>
1

> <ConfClashScore>
0 

> <ConfOneFourInteractionScore>
-0.945197 

> <ConfScore>
0.483871 

> <ConfScorePBest>
0.00299211 

> <ConfTolerance>
0.890365 

> <RosettaParamsInstructions>
M  ROOT 3
M  POLY_N_BB 3
M  POLY_CA_BB 4
M  POLY_C_BB 2
M  POLY_O_BB 5
M  POLY_IGNORE 9 10 11 12 13 14 15 16 17 18 
M  POLY_UPPER 6
M  POLY_LOWER 8
M  POLY_CHG 0
M  POLY_PROPERTIES ALPHA_AA D_AA PROTEIN AROMATIC POLYMER 
M  END

$$$$



 32 32  0  0  0  0  0  0  0  0999 V2000
   -1.7311    3.9440    0.3886 H   0  0  0  1  0  0  0  0  0  0  0  0
   -1.8471    5.2471   -1.2307 C   0  0  0  1  0  0  0  0  0  0  0  0
    0.1973    4.2766   -0.2146 N   0  0  0  1  0  0  0  0  0  0  0  0
   -1.2169    4.0513   -0.5436 C   0  0  0  1  0  0  0  0  0  0  0  0
   -2.9942    5.1894   -1.6715 O   0  0  0  1  0  0  0  0  0  0  0  0
   -1.1166    6.3678   -1.3429 N   0  0  0  1  0  0  0  0  0  0  0  0
    0.4337    4.5451    0.6978 H   0  0  0  1  0  0  0  0  0  0  0  0
    1.1804    4.1268   -1.1236 C   0  0  0  1  0  0  0  0  0  0  0  0
   -1.6649    7.5319   -2.0202 C   0  0  0  1  0  0  0  0  0  0  0  0
    2.5553    4.5370   -0.6117 C   0  0  0  1  0  0  0  0  0  0  0  0
    1.0201    3.7069   -2.2540 O   0  0  0  1  0  0  0  0  0  0  0  0
   -0.2120    6.4014   -0.9676 H   0  0  0  1  0  0  0  0  0  0  0  0
   -2.7071    7.6189   -1.7938 H   0  0  0  1  0  0  0  0  0  0  0  0
   -1.5376    7.4222   -3.0769 H   0  0  0  1  0  0  0  0  0  0  0  0
   -1.1535    8.4111   -1.6881 H   0  0  0  1  0  0  0  0  0  0  0  0
    3.3059    3.9406   -1.0869 H   0  0  0  1  0  0  0  0  0  0  0  0
    2.6001    4.3892    0.4471 H   0  0  0  1  0  0  0  0  0  0  0  0
    2.7256    5.5693   -0.8357 H   0  0  0  1  0  0  0  0  0  0  0  0
   -6.5450    2.1585   -3.4937 F   0  0  0  1  0  0  0  0  0  0  0  0
   -5.3149    2.2962   -2.9627 C   0  0  0  1  0  0  0  0  0  0  0  0
   -4.2965    2.8647   -3.7117 C   0  0  0  1  0  0  0  0  0  0  0  0
   -3.0329    3.0011   -3.1686 C   0  0  0  1  0  0  0  0  0  0  0  0
   -2.7853    2.5743   -1.8732 C   0  0  0  1  0  0  0  0  0  0  0  0
   -3.8009    2.0075   -1.1265 C   0  0  0  1  0  0  0  0  0  0  0  0
   -5.0683    1.8706   -1.6711 C   0  0  0  1  0  0  0  0  0  0  0  0
   -1.4060    2.7284   -1.2772 C   0  0  0  1  0  0  0  0  0  0  0  0
   -4.4831    3.1886   -4.6822 H   0  0  0  1  0  0  0  0  0  0  0  0
   -2.2677    3.4239   -3.7319 H   0  0  0  1  0  0  0  0  0  0  0  0
   -3.6142    1.6836   -0.1560 H   0  0  0  1  0  0  0  0  0  0  0  0
   -5.8335    1.4478   -1.1078 H   0  0  0  1  0  0  0  0  0  0  0  0
   -1.2428    1.9288   -0.5851 H   0  0  0  1  0  0  0  0  0  0  0  0
   -0.6856    2.6705   -2.0662 H   0  0  0  1  0  0  0  0  0  0  0  0
  1  4  1  0  0  0  0
  2  4  1  0  0  0  0
  2  5  2  0  0  0  0
  2  6  1  0  0  0  0
  3  4  1  0  0  0  0
  3  7  1  0  0  0  0
  3  8  1  0  0  0  0
  4 26  1  0  0  0  0
  6  9  1  0  0  0  0
  6 12  1  0  0  0  0
  8 10  1  0  0  0  0
  8 11  2  0  0  0  0
  9 13  1  0  0  0  0
  9 14  1  0  0  0  0
  9 15  1  0  0  0  0
 10 16  1  0  0  0  0
 10 17  1  0  0  0  0
 10 18  1  0  0  0  0
 19 20  1  0  0  0  0
 20 21  4  0  0  0  0
 20 25  4  0  0  0  0
 21 22  4  0  0  0  0
 21 27  1  0  0  0  0
 22 23  4  0  0  0  0
 22 28  1  0  0  0  0
 23 24  4  0  0  0  0
 23 26  1  0  0  0  0
 24 25  4  0  0  0  0
 24 29  1  0  0  0  0
 25 30  1  0  0  0  0
 26 31  1  0  0  0  0
 26 32  1  0  0  0  0
M  END
> <BCLConfClusterSize>
1

> <ConfClashScore>
0 

> <ConfOneFourInteractionScore>
-0.947786 

> <ConfScore>
0.491911 

> <ConfScorePBest>
0.00296363 

> <ConfTolerance>
0.651235 

> <RosettaParamsInstructions>
M  ROOT 3
M  POLY_N_BB 3
M  POLY_CA_BB 4
M  POLY_C_BB 2
M  POLY_O_BB 5
M  POLY_IGNORE 9 10 11 12 13 14 15 16 17 18 
M  POLY_UPPER 6
M  POLY_LOWER 8
M  POLY_CHG 0
M  POLY_PROPERTIES ALPHA_AA D_AA PROTEIN AROMATIC POLYMER 
M  END

$$$$



 32 32  0  0  0  0  0  0  0  0999 V2000
   -1.4763    0.6731   -1.0033 H   0  0  0  1  0  0  0  0  0  0  0  0
   -1.2405    1.4236    0.9123 C   0  0  0  1  0  0  0  0  0  0  0  0
    0.5048    1.1628   -0.8586 N   0  0  0  1  0  0  0  0  0  0  0  0
   -0.9160    1.4746   -0.5692 C   0  0  0  1  0  0  0  0  0  0  0  0
   -0.6850    0.6202    1.6603 O   0  0  0  1  0  0  0  0  0  0  0  0
   -2.1610    2.3030    1.3383 N   0  0  0  1  0  0  0  0  0  0  0  0
    0.7019    0.6710   -1.6830 H   0  0  0  1  0  0  0  0  0  0  0  0
    1.5363    1.5018   -0.0800 C   0  0  0  1  0  0  0  0  0  0  0  0
   -2.5321    2.4221    2.7404 C   0  0  0  1  0  0  0  0  0  0  0  0
    2.8904    0.9538   -0.5246 C   0  0  0  1  0  0  0  0  0  0  0  0
    1.4240    2.1415    0.9624 O   0  0  0  1  0  0  0  0  0  0  0  0
   -2.5983    2.8851    0.6823 H   0  0  0  1  0  0  0  0  0  0  0  0
   -3.3784    1.7986    2.9402 H   0  0  0  1  0  0  0  0  0  0  0  0
   -2.7799    3.4400    2.9583 H   0  0  0  1  0  0  0  0  0  0  0  0
   -1.7107    2.1154    3.3538 H   0  0  0  1  0  0  0  0  0  0  0  0
    3.6632    1.3739    0.0845 H   0  0  0  1  0  0  0  0  0  0  0  0
    3.0618    1.2146   -1.5481 H   0  0  0  1  0  0  0  0  0  0  0  0
    2.8949   -0.1113   -0.4219 H   0  0  0  1  0  0  0  0  0  0  0  0
   -6.5332    2.1730   -3.5231 F   0  0  0  1  0  0  0  0  0  0  0  0
   -5.3173    2.2932   -2.9566 C   0  0  0  1  0  0  0  0  0  0  0  0
   -4.3009    2.8621   -3.7082 C   0  0  0  1  0  0  0  0  0  0  0  0
   -3.0363    2.9999   -3.1680 C   0  0  0  1  0  0  0  0  0  0  0  0
   -2.7855    2.5741   -1.8729 C   0  0  0  1  0  0  0  0  0  0  0  0
   -3.7989    2.0069   -1.1236 C   0  0  0  1  0  0  0  0  0  0  0  0
   -5.0674    1.8686   -1.6653 C   0  0  0  1  0  0  0  0  0  0  0  0
   -1.4050    2.7298   -1.2800 C   0  0  0  1  0  0  0  0  0  0  0  0
   -4.4900    3.1852   -4.6785 H   0  0  0  1  0  0  0  0  0  0  0  0
   -2.2727    3.4230   -3.7333 H   0  0  0  1  0  0  0  0  0  0  0  0
   -3.6098    1.6838   -0.1533 H   0  0  0  1  0  0  0  0  0  0  0  0
   -5.8310    1.4455   -1.1000 H   0  0  0  1  0  0  0  0  0  0  0  0
   -0.7202    2.9635   -2.0682 H   0  0  0  1  0  0  0  0  0  0  0  0
   -1.4259    3.5342   -0.5748 H   0  0  0  1  0  0  0  0  0  0  0  0
  1  4  1  0  0  0  0
  2  4  1  0  0  0  0
  2  5  2  0  0  0  0
  2  6  1  0  0  0  0
  3  4  1  0  0  0  0
  3  7  1  0  0  0  0
  3  8  1  0  0  0  0
  4 26  1  0  0  0  0
  6  9  1  0  0  0  0
  6 12  1  0  0  0  0
  8 10  1  0  0  0  0
  8 11  2  0  0  0  0
  9 13  1  0  0  0  0
  9 14  1  0  0  0  0
  9 15  1  0  0  0  0
 10 16  1  0  0  0  0
 10 17  1  0  0  0  0
 10 18  1  0  0  0  0
 19 20  1  0  0  0  0
 20 21  4  0  0  0  0
 20 25  4  0  0  0  0
 21 22  4  0  0  0  0
 21 27  1  0  0  0  0
 22 23  4  0  0  0  0
 22 28  1  0  0  0  0
 23 24  4  0  0  0  0
 23 26  1  0  0  0  0
 24 25  4  0  0  0  0
 24 29  1  0  0  0  0
 25 30  1  0  0  0  0
 26 31  1  0  0  0  0
 26 32  1  0  0  0  0
M  END
> <BCLConfClusterSize>
1

> <ConfClashScore>
0 

> <ConfOneFourInteractionScore>
-0.919941 

> <ConfScore>
0.493003 

> <ConfScorePBest>
0.00293515 

> <ConfTolerance>
0.434517 

> <RosettaParamsInstructions>
M  ROOT 3
M  POLY_N_BB 3
M  POLY_CA_BB 4
M  POLY_C_BB 2
M  POLY_O_BB 5
M  POLY_IGNORE 9 10 11 12 13 14 15 16 17 18 
M  POLY_UPPER 6
M  POLY_LOWER 8
M  POLY_CHG 0
M  POLY_PROPERTIES ALPHA_AA D_AA PROTEIN AROMATIC POLYMER 
M  END

$$$$



 32 32  0  0  0  0  0  0  0  0999 V2000
   -1.6111    4.8028   -0.9153 H   0  0  0  1  0  0  0  0  0  0  0  0
   -0.6094    4.6492   -2.7585 C   0  0  0  1  0  0  0  0  0  0  0  0
    0.3359    4.2748   -0.5101 N   0  0  0  1  0  0  0  0  0  0  0  0
   -0.8569    4.1720   -1.3374 C   0  0  0  1  0  0  0  0  0  0  0  0
   -0.8646    5.8043   -3.0886 O   0  0  0  1  0  0  0  0  0  0  0  0
   -0.1069    3.7757   -3.6358 N   0  0  0  1  0  0  0  0  0  0  0  0
    0.2531    4.6383    0.3962 H   0  0  0  1  0  0  0  0  0  0  0  0
    1.5401    3.8909   -0.9433 C   0  0  0  1  0  0  0  0  0  0  0  0
    0.2074    4.1455   -5.0078 C   0  0  0  1  0  0  0  0  0  0  0  0
    2.6939    4.1454    0.0071 C   0  0  0  1  0  0  0  0  0  0  0  0
    1.7207    3.3632   -2.0398 O   0  0  0  1  0  0  0  0  0  0  0  0
    0.0556    2.8540   -3.3453 H   0  0  0  1  0  0  0  0  0  0  0  0
   -0.6854    4.4605   -5.5064 H   0  0  0  1  0  0  0  0  0  0  0  0
    0.6218    3.3014   -5.5184 H   0  0  0  1  0  0  0  0  0  0  0  0
    0.9170    4.9464   -5.0074 H   0  0  0  1  0  0  0  0  0  0  0  0
    2.3370    4.1259    1.0156 H   0  0  0  1  0  0  0  0  0  0  0  0
    3.1223    5.1036   -0.2010 H   0  0  0  1  0  0  0  0  0  0  0  0
    3.4367    3.3863   -0.1228 H   0  0  0  1  0  0  0  0  0  0  0  0
   -6.5436    2.1603   -3.4973 F   0  0  0  1  0  0  0  0  0  0  0  0
   -5.3149    2.2961   -2.9625 C   0  0  0  1  0  0  0  0  0  0  0  0
   -4.2936    2.8641   -3.7080 C   0  0  0  1  0  0  0  0  0  0  0  0
   -3.0315    2.9985   -3.1610 C   0  0  0  1  0  0  0  0  0  0  0  0
   -2.7882    2.5704   -1.8653 C   0  0  0  1  0  0  0  0  0  0  0  0
   -3.8067    2.0042   -1.1220 C   0  0  0  1  0  0  0  0  0  0  0  0
   -5.0726    1.8692   -1.6705 C   0  0  0  1  0  0  0  0  0  0  0  0
   -1.3927    2.7464   -1.3147 C   0  0  0  1  0  0  0  0  0  0  0  0
   -4.4770    3.1890   -4.6788 H   0  0  0  1  0  0  0  0  0  0  0  0
   -2.2642    3.4210   -3.7217 H   0  0  0  1  0  0  0  0  0  0  0  0
   -3.6232    1.6793   -0.1513 H   0  0  0  1  0  0  0  0  0  0  0  0
   -5.8400    1.4467   -1.1098 H   0  0  0  1  0  0  0  0  0  0  0  0
   -1.3939    2.4104   -0.2988 H   0  0  0  1  0  0  0  0  0  0  0  0
   -0.7306    2.1357   -1.8922 H   0  0  0  1  0  0  0  0  0  0  0  0
  1  4  1  0  0  0  0
  2  4  1  0  0  0  0
  2  5  2  0  0  0  0
  2  6  1  0  0  0  0
  3  4  1  0  0  0  0
  3  7  1  0  0  0  0
  3  8  1  0  0  0  0
  4 26  1  0  0  0  0
  6  9  1  0  0  0  0
  6 12  1  0  0  0  0
  8 10  1  0  0  0  0
  8 11  2  0  0  0  0
  9 13  1  0  0  0  0
  9 14  1  0  0  0  0
  9 15  1  0  0  0  0
 10 16  1  0  0  0  0
 10 17  1  0  0  0  0
 10 18  1  0  0  0  0
 19 20  1  0  0  0  0
 20 21  4  0  0  0  0
 20 25  4  0  0  0  0
 21 22  4  0  0  0  0
 21 27  1  0  0  0  0
 22 23  4  0  0  0  0
 22 28  1  0  0  0  0
 23 24  4  0  0  0  0
 23 26  1  0  0  0  0
 24 25  4  0  0  0  0
 24 29  1  0  0  0  0
 25 30  1  0  0  0  0
 26 31  1  0  0  0  0
 26 32  1  0  0  0  0
M  END
> <BCLConfClusterSize>
1

> <ConfClashScore>
0 

> <ConfOneFourInteractionScore>
-0.927621 

> <ConfScore>
0.502288 

> <ConfScorePBest>
0.00290666 

> <ConfTolerance>
0.632079 

> <RosettaParamsInstructions>
M  ROOT 3
M  POLY_N_BB 3
M  POLY_CA_BB 4
M  POLY_C_BB 2
M  POLY_O_BB 5
M  POLY_IGNORE 9 10 11 12 13 14 15 16 17 18 
M  POLY_UPPER 6
M  POLY_LOWER 8
M  POLY_CHG 0
M  POLY_PROPERTIES ALPHA_AA D_AA PROTEIN AROMATIC POLYMER 
M  END

$$$$



 32 32  0  0  0  0  0  0  0  0999 V2000
   -0.3685    4.3222   -0.3446 H   0  0  0  1  0  0  0  0  0  0  0  0
   -1.6727    3.6635    1.1276 C   0  0  0  1  0  0  0  0  0  0  0  0
   -2.1817    5.1343   -0.8334 N   0  0  0  1  0  0  0  0  0  0  0  0
   -1.3851    3.9886   -0.3309 C   0  0  0  1  0  0  0  0  0  0  0  0
   -1.6164    4.5295    1.9967 O   0  0  0  1  0  0  0  0  0  0  0  0
   -1.9843    2.3928    1.3875 N   0  0  0  1  0  0  0  0  0  0  0  0
   -1.8733    5.6105   -1.6325 H   0  0  0  1  0  0  0  0  0  0  0  0
   -3.3034    5.5390   -0.2356 C   0  0  0  1  0  0  0  0  0  0  0  0
   -2.1452    1.8939    2.7451 C   0  0  0  1  0  0  0  0  0  0  0  0
   -3.8330    6.8904   -0.6744 C   0  0  0  1  0  0  0  0  0  0  0  0
   -3.8850    4.8723    0.6192 O   0  0  0  1  0  0  0  0  0  0  0  0
   -2.1093    1.7737    0.6382 H   0  0  0  1  0  0  0  0  0  0  0  0
   -1.8615    0.8629    2.7827 H   0  0  0  1  0  0  0  0  0  0  0  0
   -3.1683    1.9930    3.0424 H   0  0  0  1  0  0  0  0  0  0  0  0
   -1.5242    2.4589    3.4084 H   0  0  0  1  0  0  0  0  0  0  0  0
   -4.0321    6.8718   -1.7256 H   0  0  0  1  0  0  0  0  0  0  0  0
   -3.1041    7.6446   -0.4630 H   0  0  0  1  0  0  0  0  0  0  0  0
   -4.7365    7.1084   -0.1443 H   0  0  0  1  0  0  0  0  0  0  0  0
   -6.5494    2.1770   -3.4874 F   0  0  0  1  0  0  0  0  0  0  0  0
   -5.3162    2.3018   -2.9604 C   0  0  0  1  0  0  0  0  0  0  0  0
   -4.2954    2.8638   -3.7112 C   0  0  0  1  0  0  0  0  0  0  0  0
   -3.0287    2.9870   -3.1723 C   0  0  0  1  0  0  0  0  0  0  0  0
   -2.7803    2.5535   -1.8793 C   0  0  0  1  0  0  0  0  0  0  0  0
   -3.7982    1.9932   -1.1308 C   0  0  0  1  0  0  0  0  0  0  0  0
   -5.0687    1.8695   -1.6712 C   0  0  0  1  0  0  0  0  0  0  0  0
   -1.4202    2.7860   -1.2648 C   0  0  0  1  0  0  0  0  0  0  0  0
   -4.4827    3.1927   -4.6799 H   0  0  0  1  0  0  0  0  0  0  0  0
   -2.2619    3.4049   -3.7369 H   0  0  0  1  0  0  0  0  0  0  0  0
   -3.6109    1.6643   -0.1621 H   0  0  0  1  0  0  0  0  0  0  0  0
   -5.8356    1.4516   -1.1066 H   0  0  0  1  0  0  0  0  0  0  0  0
   -1.1443    1.9146   -0.7085 H   0  0  0  1  0  0  0  0  0  0  0  0
   -0.7135    2.9456   -2.0522 H   0  0  0  1  0  0  0  0  0  0  0  0
  1  4  1  0  0  0  0
  2  4  1  0  0  0  0
  2  5  2  0  0  0  0
  2  6  1  0  0  0  0
  3  4  1  0  0  0  0
  3  7  1  0  0  0  0
  3  8  1  0  0  0  0
  4 26  1  0  0  0  0
  6  9  1  0  0  0  0
  6 12  1  0  0  0  0
  8 10  1  0  0  0  0
  8 11  2  0  0  0  0
  9 13  1  0  0  0  0
  9 14  1  0  0  0  0
  9 15  1  0  0  0  0
 10 16  1  0  0  0  0
 10 17  1  0  0  0  0
 10 18  1  0  0  0  0
 19 20  1  0  0  0  0
 20 21  4  0  0  0  0
 20 25  4  0  0  0  0
 21 22  4  0  0  0  0
 21 27  1  0  0  0  0
 22 23  4  0  0  0  0
 22 28  1  0  0  0  0
 23 24  4  0  0  0  0
 23 26  1  0  0  0  0
 24 25  4  0  0  0  0
 24 29  1  0  0  0  0
 25 30  1  0  0  0  0
 26 31  1  0  0  0  0
 26 32  1  0  0  0  0
M  END
> <BCLConfClusterSize>
1

> <ConfClashScore>
0.00138564 

> <ConfOneFourInteractionScore>
-0.908174 

> <ConfScore>
0.505587 

> <ConfScorePBest>
0.00287818 

> <ConfTolerance>
0.263247 

> <RosettaParamsInstructions>
M  ROOT 3
M  POLY_N_BB 3
M  POLY_CA_BB 4
M  POLY_C_BB 2
M  POLY_O_BB 5
M  POLY_IGNORE 9 10 11 12 13 14 15 16 17 18 
M  POLY_UPPER 6
M  POLY_LOWER 8
M  POLY_CHG 0
M  POLY_PROPERTIES ALPHA_AA D_AA PROTEIN AROMATIC POLYMER 
M  END

$$$$



 32 32  0  0  0  0  0  0  0  0999 V2000
    0.5130    1.9985   -1.2341 H   0  0  0  1  0  0  0  0  0  0  0  0
   -0.5108    0.7976   -2.5932 C   0  0  0  1  0  0  0  0  0  0  0  0
   -0.6527    0.7395   -0.1163 N   0  0  0  1  0  0  0  0  0  0  0  0
   -0.4742    1.5911   -1.3003 C   0  0  0  1  0  0  0  0  0  0  0  0
   -0.8604    1.3179   -3.6519 O   0  0  0  1  0  0  0  0  0  0  0  0
   -0.1429   -0.4811   -2.4990 N   0  0  0  1  0  0  0  0  0  0  0  0
    0.0251    0.7648    0.5911 H   0  0  0  1  0  0  0  0  0  0  0  0
   -1.7052   -0.0670    0.0292 C   0  0  0  1  0  0  0  0  0  0  0  0
   -0.1760   -1.4403   -3.5929 C   0  0  0  1  0  0  0  0  0  0  0  0
   -1.7892   -0.8762    1.3238 C   0  0  0  1  0  0  0  0  0  0  0  0
   -2.5369   -0.2311   -0.8594 O   0  0  0  1  0  0  0  0  0  0  0  0
    0.1735   -0.7985   -1.6275 H   0  0  0  1  0  0  0  0  0  0  0  0
   -0.3668   -2.4188   -3.2042 H   0  0  0  1  0  0  0  0  0  0  0  0
    0.7663   -1.4356   -4.0997 H   0  0  0  1  0  0  0  0  0  0  0  0
   -0.9519   -1.1718   -4.2790 H   0  0  0  1  0  0  0  0  0  0  0  0
   -1.8864   -0.2102    2.1556 H   0  0  0  1  0  0  0  0  0  0  0  0
   -0.9000   -1.4606    1.4371 H   0  0  0  1  0  0  0  0  0  0  0  0
   -2.6398   -1.5241    1.2846 H   0  0  0  1  0  0  0  0  0  0  0  0
   -6.5494    2.1770   -3.4874 F   0  0  0  1  0  0  0  0  0  0  0  0
   -5.3162    2.3018   -2.9604 C   0  0  0  1  0  0  0  0  0  0  0  0
   -4.2954    2.8638   -3.7112 C   0  0  0  1  0  0  0  0  0  0  0  0
   -3.0287    2.9870   -3.1723 C   0  0  0  1  0  0  0  0  0  0  0  0
   -2.7803    2.5535   -1.8793 C   0  0  0  1  0  0  0  0  0  0  0  0
   -3.7982    1.9932   -1.1308 C   0  0  0  1  0  0  0  0  0  0  0  0
   -5.0687    1.8695   -1.6712 C   0  0  0  1  0  0  0  0  0  0  0  0
   -1.4202    2.7860   -1.2648 C   0  0  0  1  0  0  0  0  0  0  0  0
   -4.4827    3.1927   -4.6799 H   0  0  0  1  0  0  0  0  0  0  0  0
   -2.2619    3.4049   -3.7369 H   0  0  0  1  0  0  0  0  0  0  0  0
   -3.6109    1.6643   -0.1621 H   0  0  0  1  0  0  0  0  0  0  0  0
   -5.8356    1.4516   -1.1066 H   0  0  0  1  0  0  0  0  0  0  0  0
   -0.9535    3.5922   -1.7914 H   0  0  0  1  0  0  0  0  0  0  0  0
   -1.5634    3.0634   -0.2413 H   0  0  0  1  0  0  0  0  0  0  0  0
  1  4  1  0  0  0  0
  2  4  1  0  0  0  0
  2  5  2  0  0  0  0
  2  6  1  0  0  0  0
  3  4  1  0  0  0  0
  3  7  1  0  0  0  0
  3  8  1  0  0  0  0
  4 26  1  0  0  0  0
  6  9  1  0  0  0  0
  6 12  1  0  0  0  0
  8 10  1  0  0  0  0
  8 11  2  0  0  0  0
  9 13  1  0  0  0  0
  9 14  1  0  0  0  0
  9 15  1  0  0  0  0
 10 16  1  0  0  0  0
 10 17  1  0  0  0  0
 10 18  1  0  0  0  0
 19 20  1  0  0  0  0
 20 21  4  0  0  0  0
 20 25  4  0  0  0  0
 21 22  4  0  0  0  0
 21 27  1  0  0  0  0
 22 23  4  0  0  0  0
 22 28  1  0  0  0  0
 23 24  4  0  0  0  0
 23 26  1  0  0  0  0
 24 25  4  0  0  0  0
 24 29  1  0  0  0  0
 25 30  1  0  0  0  0
 26 31  1  0  0  0  0
 26 32  1  0  0  0  0
M  END
> <BCLConfClusterSize>
1

> <ConfClashScore>
0 

> <ConfOneFourInteractionScore>
-0.94644 

> <ConfScore>
0.50858 

> <ConfScorePBest>
0.0028497 

> <ConfTolerance>
0.501196 

> <RosettaParamsInstructions>
M  ROOT 3
M  POLY_N_BB 3
M  POLY_CA_BB 4
M  POLY_C_BB 2
M  POLY_O_BB 5
M  POLY_IGNORE 9 10 11 12 13 14 15 16 17 18 
M  POLY_UPPER 6
M  POLY_LOWER 8
M  POLY_CHG 0
M  POLY_PROPERTIES ALPHA_AA D_AA PROTEIN AROMATIC POLYMER 
M  END

$$$$



 32 32  0  0  0  0  0  0  0  0999 V2000
    0.1597    4.0938   -1.0176 H   0  0  0  1  0  0  0  0  0  0  0  0
   -1.5193    4.9108   -0.0676 C   0  0  0  1  0  0  0  0  0  0  0  0
   -1.1150    4.7919   -2.5082 N   0  0  0  1  0  0  0  0  0  0  0  0
   -0.8947    4.1370   -1.1944 C   0  0  0  1  0  0  0  0  0  0  0  0
   -1.2689    6.1056    0.0669 O   0  0  0  1  0  0  0  0  0  0  0  0
   -2.4051    4.2548    0.6987 N   0  0  0  1  0  0  0  0  0  0  0  0
   -0.5203    4.5401   -3.2453 H   0  0  0  1  0  0  0  0  0  0  0  0
   -2.0988    5.7330   -2.7710 C   0  0  0  1  0  0  0  0  0  0  0  0
   -3.0433    4.9298    1.8189 C   0  0  0  1  0  0  0  0  0  0  0  0
   -2.2382    6.2738   -4.1663 C   0  0  0  1  0  0  0  0  0  0  0  0
   -2.8203    6.0914   -1.8581 O   0  0  0  1  0  0  0  0  0  0  0  0
   -2.6223    3.3193    0.5034 H   0  0  0  1  0  0  0  0  0  0  0  0
   -4.0512    4.5841    1.9170 H   0  0  0  1  0  0  0  0  0  0  0  0
   -3.0439    5.9856    1.6454 H   0  0  0  1  0  0  0  0  0  0  0  0
   -2.5041    4.7159    2.7181 H   0  0  0  1  0  0  0  0  0  0  0  0
   -1.3122    6.7137   -4.4730 H   0  0  0  1  0  0  0  0  0  0  0  0
   -3.0089    7.0157   -4.1856 H   0  0  0  1  0  0  0  0  0  0  0  0
   -2.4925    5.4770   -4.8336 H   0  0  0  1  0  0  0  0  0  0  0  0
   -6.5450    2.1585   -3.4937 F   0  0  0  1  0  0  0  0  0  0  0  0
   -5.3149    2.2962   -2.9627 C   0  0  0  1  0  0  0  0  0  0  0  0
   -4.2965    2.8647   -3.7117 C   0  0  0  1  0  0  0  0  0  0  0  0
   -3.0329    3.0011   -3.1686 C   0  0  0  1  0  0  0  0  0  0  0  0
   -2.7853    2.5743   -1.8732 C   0  0  0  1  0  0  0  0  0  0  0  0
   -3.8009    2.0075   -1.1265 C   0  0  0  1  0  0  0  0  0  0  0  0
   -5.0683    1.8706   -1.6711 C   0  0  0  1  0  0  0  0  0  0  0  0
   -1.4060    2.7284   -1.2772 C   0  0  0  1  0  0  0  0  0  0  0  0
   -4.4831    3.1886   -4.6822 H   0  0  0  1  0  0  0  0  0  0  0  0
   -2.2677    3.4239   -3.7319 H   0  0  0  1  0  0  0  0  0  0  0  0
   -3.6142    1.6836   -0.1560 H   0  0  0  1  0  0  0  0  0  0  0  0
   -5.8335    1.4478   -1.1078 H   0  0  0  1  0  0  0  0  0  0  0  0
   -1.4281    2.3265   -0.2858 H   0  0  0  1  0  0  0  0  0  0  0  0
   -0.7225    2.1638   -1.8763 H   0  0  0  1  0  0  0  0  0  0  0  0
  1  4  1  0  0  0  0
  2  4  1  0  0  0  0
  2  5  2  0  0  0  0
  2  6  1  0  0  0  0
  3  4  1  0  0  0  0
  3  7  1  0  0  0  0
  3  8  1  0  0  0  0
  4 26  1  0  0  0  0
  6  9  1  0  0  0  0
  6 12  1  0  0  0  0
  8 10  1  0  0  0  0
  8 11  2  0  0  0  0
  9 13  1  0  0  0  0
  9 14  1  0  0  0  0
  9 15  1  0  0  0  0
 10 16  1  0  0  0  0
 10 17  1  0  0  0  0
 10 18  1  0  0  0  0
 19 20  1  0  0  0  0
 20 21  4  0  0  0  0
 20 25  4  0  0  0  0
 21 22  4  0  0  0  0
 21 27  1  0  0  0  0
 22 23  4  0  0  0  0
 22 28  1  0  0  0  0
 23 24  4  0  0  0  0
 23 26  1  0  0  0  0
 24 25  4  0  0  0  0
 24 29  1  0  0  0  0
 25 30  1  0  0  0  0
 26 31  1  0  0  0  0
 26 32  1  0  0  0  0
M  END
> <BCLConfClusterSize>
1

> <ConfClashScore>
0.00374666 

> <ConfOneFourInteractionScore>
-0.917907 

> <ConfScore>
0.513313 

> <ConfScorePBest>
0.00282122 

> <ConfTolerance>
0.611338 

> <RosettaParamsInstructions>
M  ROOT 3
M  POLY_N_BB 3
M  POLY_CA_BB 4
M  POLY_C_BB 2
M  POLY_O_BB 5
M  POLY_IGNORE 9 10 11 12 13 14 15 16 17 18 
M  POLY_UPPER 6
M  POLY_LOWER 8
M  POLY_CHG 0
M  POLY_PROPERTIES ALPHA_AA D_AA PROTEIN AROMATIC POLYMER 
M  END

$$$$



 32 32  0  0  0  0  0  0  0  0999 V2000
   -1.6532    3.4982    0.6643 H   0  0  0  1  0  0  0  0  0  0  0  0
   -2.2869    4.9688   -0.6985 C   0  0  0  1  0  0  0  0  0  0  0  0
    0.0547    4.3399   -0.1060 N   0  0  0  1  0  0  0  0  0  0  0  0
   -1.3136    3.8750   -0.2778 C   0  0  0  1  0  0  0  0  0  0  0  0
   -3.4040    5.0437   -0.2127 O   0  0  0  1  0  0  0  0  0  0  0  0
   -1.8340    5.8272   -1.6249 N   0  0  0  1  0  0  0  0  0  0  0  0
    0.2780    5.2586   -0.3639 H   0  0  0  1  0  0  0  0  0  0  0  0
    1.0171    3.5576    0.3910 C   0  0  0  1  0  0  0  0  0  0  0  0
   -2.6890    6.8340   -2.2358 C   0  0  0  1  0  0  0  0  0  0  0  0
    2.4250    4.1151    0.3129 C   0  0  0  1  0  0  0  0  0  0  0  0
    0.7943    2.4529    0.8844 O   0  0  0  1  0  0  0  0  0  0  0  0
   -0.8948    5.7745   -1.8997 H   0  0  0  1  0  0  0  0  0  0  0  0
   -3.1818    6.4147   -3.0880 H   0  0  0  1  0  0  0  0  0  0  0  0
   -2.0937    7.6684   -2.5430 H   0  0  0  1  0  0  0  0  0  0  0  0
   -3.4202    7.1592   -1.5255 H   0  0  0  1  0  0  0  0  0  0  0  0
    3.0435    3.6259    1.0361 H   0  0  0  1  0  0  0  0  0  0  0  0
    2.4041    5.1657    0.5142 H   0  0  0  1  0  0  0  0  0  0  0  0
    2.8210    3.9469   -0.6668 H   0  0  0  1  0  0  0  0  0  0  0  0
   -6.5556    2.1442   -3.4638 F   0  0  0  1  0  0  0  0  0  0  0  0
   -5.3127    2.2992   -2.9689 C   0  0  0  1  0  0  0  0  0  0  0  0
   -4.2921    2.8673   -3.7153 C   0  0  0  1  0  0  0  0  0  0  0  0
   -3.0296    3.0022   -3.1693 C   0  0  0  1  0  0  0  0  0  0  0  0
   -2.7852    2.5745   -1.8736 C   0  0  0  1  0  0  0  0  0  0  0  0
   -3.8029    2.0080   -1.1295 C   0  0  0  1  0  0  0  0  0  0  0  0
   -5.0693    1.8726   -1.6769 C   0  0  0  1  0  0  0  0  0  0  0  0
   -1.4071    2.7271   -1.2744 C   0  0  0  1  0  0  0  0  0  0  0  0
   -4.4763    3.1919   -4.6860 H   0  0  0  1  0  0  0  0  0  0  0  0
   -2.2628    3.4248   -3.7307 H   0  0  0  1  0  0  0  0  0  0  0  0
   -3.6187    1.6834   -0.1588 H   0  0  0  1  0  0  0  0  0  0  0  0
   -5.8360    1.4501   -1.1156 H   0  0  0  1  0  0  0  0  0  0  0  0
   -1.1519    1.8178   -0.7714 H   0  0  0  1  0  0  0  0  0  0  0  0
   -0.7095    2.9054   -2.0658 H   0  0  0  1  0  0  0  0  0  0  0  0
  1  4  1  0  0  0  0
  2  4  1  0  0  0  0
  2  5  2  0  0  0  0
  2  6  1  0  0  0  0
  3  4  1  0  0  0  0
  3  7  1  0  0  0  0
  3  8  1  0  0  0  0
  4 26  1  0  0  0  0
  6  9  1  0  0  0  0
  6 12  1  0  0  0  0
  8 10  1  0  0  0  0
  8 11  2  0  0  0  0
  9 13  1  0  0  0  0
  9 14  1  0  0  0  0
  9 15  1  0  0  0  0
 10 16  1  0  0  0  0
 10 17  1  0  0  0  0
 10 18  1  0  0  0  0
 19 20  1  0  0  0  0
 20 21  4  0  0  0  0
 20 25  4  0  0  0  0
 21 22  4  0  0  0  0
 21 27  1  0  0  0  0
 22 23  4  0  0  0  0
 22 28  1  0  0  0  0
 23 24  4  0  0  0  0
 23 26  1  0  0  0  0
 24 25  4  0  0  0  0
 24 29  1  0  0  0  0
 25 30  1  0  0  0  0
 26 31  1  0  0  0  0
 26 32  1  0  0  0  0
M  END
> <BCLConfClusterSize>
1

> <ConfClashScore>
0 

> <ConfOneFourInteractionScore>
-0.951423 

> <ConfScore>
0.519997 

> <ConfScorePBest>
0.00279274 

> <ConfTolerance>
0.970686 

> <RosettaParamsInstructions>
M  ROOT 3
M  POLY_N_BB 3
M  POLY_CA_BB 4
M  POLY_C_BB 2
M  POLY_O_BB 5
M  POLY_IGNORE 9 10 11 12 13 14 15 16 17 18 
M  POLY_UPPER 6
M  POLY_LOWER 8
M  POLY_CHG 0
M  POLY_PROPERTIES ALPHA_AA D_AA PROTEIN AROMATIC POLYMER 
M  END

$$$$



 32 32  0  0  0  0  0  0  0  0999 V2000
   -1.9119    1.6865    0.4987 H   0  0  0  1  0  0  0  0  0  0  0  0
    0.1678    1.9865    0.5639 C   0  0  0  1  0  0  0  0  0  0  0  0
   -1.0513    0.3683   -0.8365 N   0  0  0  1  0  0  0  0  0  0  0  0
   -1.1008    1.6793   -0.1991 C   0  0  0  1  0  0  0  0  0  0  0  0
    1.2483    1.5198    0.2058 O   0  0  0  1  0  0  0  0  0  0  0  0
    0.0796    2.7785    1.6363 N   0  0  0  1  0  0  0  0  0  0  0  0
   -1.8385   -0.2086   -0.7478 H   0  0  0  1  0  0  0  0  0  0  0  0
   -0.0153   -0.1045   -1.5311 C   0  0  0  1  0  0  0  0  0  0  0  0
    1.2507    3.1978    2.3916 C   0  0  0  1  0  0  0  0  0  0  0  0
   -0.0719   -1.5800   -1.8763 C   0  0  0  1  0  0  0  0  0  0  0  0
    0.9343    0.5964   -1.8783 O   0  0  0  1  0  0  0  0  0  0  0  0
   -0.8046    3.0879    1.9243 H   0  0  0  1  0  0  0  0  0  0  0  0
    2.0779    3.3273    1.7253 H   0  0  0  1  0  0  0  0  0  0  0  0
    1.4923    2.4507    3.1185 H   0  0  0  1  0  0  0  0  0  0  0  0
    1.0432    4.1236    2.8862 H   0  0  0  1  0  0  0  0  0  0  0  0
    0.8110   -1.8550   -2.4145 H   0  0  0  1  0  0  0  0  0  0  0  0
   -0.9328   -1.7715   -2.4821 H   0  0  0  1  0  0  0  0  0  0  0  0
   -0.1339   -2.1545   -0.9757 H   0  0  0  1  0  0  0  0  0  0  0  0
   -6.5556    2.1442   -3.4638 F   0  0  0  1  0  0  0  0  0  0  0  0
   -5.3127    2.2992   -2.9689 C   0  0  0  1  0  0  0  0  0  0  0  0
   -4.2921    2.8673   -3.7153 C   0  0  0  1  0  0  0  0  0  0  0  0
   -3.0296    3.0022   -3.1693 C   0  0  0  1  0  0  0  0  0  0  0  0
   -2.7852    2.5745   -1.8736 C   0  0  0  1  0  0  0  0  0  0  0  0
   -3.8029    2.0080   -1.1295 C   0  0  0  1  0  0  0  0  0  0  0  0
   -5.0693    1.8726   -1.6769 C   0  0  0  1  0  0  0  0  0  0  0  0
   -1.4071    2.7271   -1.2744 C   0  0  0  1  0  0  0  0  0  0  0  0
   -4.4763    3.1919   -4.6860 H   0  0  0  1  0  0  0  0  0  0  0  0
   -2.2628    3.4248   -3.7307 H   0  0  0  1  0  0  0  0  0  0  0  0
   -3.6187    1.6834   -0.1588 H   0  0  0  1  0  0  0  0  0  0  0  0
   -5.8360    1.4501   -1.1156 H   0  0  0  1  0  0  0  0  0  0  0  0
   -0.6833    2.6337   -2.0569 H   0  0  0  1  0  0  0  0  0  0  0  0
   -1.3332    3.6992   -0.8335 H   0  0  0  1  0  0  0  0  0  0  0  0
  1  4  1  0  0  0  0
  2  4  1  0  0  0  0
  2  5  2  0  0  0  0
  2  6  1  0  0  0  0
  3  4  1  0  0  0  0
  3  7  1  0  0  0  0
  3  8  1  0  0  0  0
  4 26  1  0  0  0  0
  6  9  1  0  0  0  0
  6 12  1  0  0  0  0
  8 10  1  0  0  0  0
  8 11  2  0  0  0  0
  9 13  1  0  0  0  0
  9 14  1  0  0  0  0
  9 15  1  0  0  0  0
 10 16  1  0  0  0  0
 10 17  1  0  0  0  0
 10 18  1  0  0  0  0
 19 20  1  0  0  0  0
 20 21  4  0  0  0  0
 20 25  4  0  0  0  0
 21 22  4  0  0  0  0
 21 27  1  0  0  0  0
 22 23  4  0  0  0  0
 22 28  1  0  0  0  0
 23 24  4  0  0  0  0
 23 26  1  0  0  0  0
 24 25  4  0  0  0  0
 24 29  1  0  0  0  0
 25 30  1  0  0  0  0
 26 31  1  0  0  0  0
 26 32  1  0  0  0  0
M  END
> <BCLConfClusterSize>
1

> <ConfClashScore>
0 

> <ConfOneFourInteractionScore>
-0.975942 

> <ConfScore>
0.527526 

> <ConfScorePBest>
0.00276426 

> <ConfTolerance>
0.933192 

> <RosettaParamsInstructions>
M  ROOT 3
M  POLY_N_BB 3
M  POLY_CA_BB 4
M  POLY_C_BB 2
M  POLY_O_BB 5
M  POLY_IGNORE 9 10 11 12 13 14 15 16 17 18 
M  POLY_UPPER 6
M  POLY_LOWER 8
M  POLY_CHG 0
M  POLY_PROPERTIES ALPHA_AA D_AA PROTEIN AROMATIC POLYMER 
M  END

$$$$



 32 32  0  0  0  0  0  0  0  0999 V2000
   -2.2240    4.2512   -0.0930 H   0  0  0  1  0  0  0  0  0  0  0  0
   -0.7646    5.2042   -1.2692 C   0  0  0  1  0  0  0  0  0  0  0  0
   -0.4055    3.7142    0.7079 N   0  0  0  1  0  0  0  0  0  0  0  0
   -1.2492    4.0025   -0.4575 C   0  0  0  1  0  0  0  0  0  0  0  0
   -1.2596    5.3821   -2.3814 O   0  0  0  1  0  0  0  0  0  0  0  0
    0.1676    5.9699   -0.6949 N   0  0  0  1  0  0  0  0  0  0  0  0
   -0.8277    3.6298    1.5882 H   0  0  0  1  0  0  0  0  0  0  0  0
    0.9240    3.5622    0.6101 C   0  0  0  1  0  0  0  0  0  0  0  0
    0.7554    7.1171   -1.3703 C   0  0  0  1  0  0  0  0  0  0  0  0
    1.6987    3.2531    1.8712 C   0  0  0  1  0  0  0  0  0  0  0  0
    1.4936    3.6697   -0.4639 O   0  0  0  1  0  0  0  0  0  0  0  0
    0.4659    5.7513    0.2126 H   0  0  0  1  0  0  0  0  0  0  0  0
    1.2882    6.7868   -2.2375 H   0  0  0  1  0  0  0  0  0  0  0  0
    1.4302    7.6148   -0.7056 H   0  0  0  1  0  0  0  0  0  0  0  0
   -0.0199    7.7933   -1.6644 H   0  0  0  1  0  0  0  0  0  0  0  0
    2.7284    3.5072    1.7292 H   0  0  0  1  0  0  0  0  0  0  0  0
    1.6165    2.2096    2.0933 H   0  0  0  1  0  0  0  0  0  0  0  0
    1.2995    3.8237    2.6836 H   0  0  0  1  0  0  0  0  0  0  0  0
   -6.5450    2.1585   -3.4937 F   0  0  0  1  0  0  0  0  0  0  0  0
   -5.3149    2.2962   -2.9627 C   0  0  0  1  0  0  0  0  0  0  0  0
   -4.2965    2.8647   -3.7117 C   0  0  0  1  0  0  0  0  0  0  0  0
   -3.0329    3.0011   -3.1686 C   0  0  0  1  0  0  0  0  0  0  0  0
   -2.7853    2.5743   -1.8732 C   0  0  0  1  0  0  0  0  0  0  0  0
   -3.8009    2.0075   -1.1265 C   0  0  0  1  0  0  0  0  0  0  0  0
   -5.0683    1.8706   -1.6711 C   0  0  0  1  0  0  0  0  0  0  0  0
   -1.4060    2.7284   -1.2772 C   0  0  0  1  0  0  0  0  0  0  0  0
   -4.4831    3.1886   -4.6822 H   0  0  0  1  0  0  0  0  0  0  0  0
   -2.2677    3.4239   -3.7319 H   0  0  0  1  0  0  0  0  0  0  0  0
   -3.6142    1.6836   -0.1560 H   0  0  0  1  0  0  0  0  0  0  0  0
   -5.8335    1.4478   -1.1078 H   0  0  0  1  0  0  0  0  0  0  0  0
   -1.2137    1.8890   -0.6421 H   0  0  0  1  0  0  0  0  0  0  0  0
   -0.6910    2.7453   -2.0730 H   0  0  0  1  0  0  0  0  0  0  0  0
  1  4  1  0  0  0  0
  2  4  1  0  0  0  0
  2  5  2  0  0  0  0
  2  6  1  0  0  0  0
  3  4  1  0  0  0  0
  3  7  1  0  0  0  0
  3  8  1  0  0  0  0
  4 26  1  0  0  0  0
  6  9  1  0  0  0  0
  6 12  1  0  0  0  0
  8 10  1  0  0  0  0
  8 11  2  0  0  0  0
  9 13  1  0  0  0  0
  9 14  1  0  0  0  0
  9 15  1  0  0  0  0
 10 16  1  0  0  0  0
 10 17  1  0  0  0  0
 10 18  1  0  0  0  0
 19 20  1  0  0  0  0
 20 21  4  0  0  0  0
 20 25  4  0  0  0  0
 21 22  4  0  0  0  0
 21 27  1  0  0  0  0
 22 23  4  0  0  0  0
 22 28  1  0  0  0  0
 23 24  4  0  0  0  0
 23 26  1  0  0  0  0
 24 25  4  0  0  0  0
 24 29  1  0  0  0  0
 25 30  1  0  0  0  0
 26 31  1  0  0  0  0
 26 32  1  0  0  0  0
M  END
> <BCLConfClusterSize>
1

> <ConfClashScore>
0 

> <ConfOneFourInteractionScore>
-0.950043 

> <ConfScore>
0.53967 

> <ConfScorePBest>
0.00273578 

> <ConfTolerance>
0.779195 

> <RosettaParamsInstructions>
M  ROOT 3
M  POLY_N_BB 3
M  POLY_CA_BB 4
M  POLY_C_BB 2
M  POLY_O_BB 5
M  POLY_IGNORE 9 10 11 12 13 14 15 16 17 18 
M  POLY_UPPER 6
M  POLY_LOWER 8
M  POLY_CHG 0
M  POLY_PROPERTIES ALPHA_AA D_AA PROTEIN AROMATIC POLYMER 
M  END

$$$$



 32 32  0  0  0  0  0  0  0  0999 V2000
   -0.1513    4.1541   -0.3278 H   0  0  0  1  0  0  0  0  0  0  0  0
   -2.1031    4.4052    0.4495 C   0  0  0  1  0  0  0  0  0  0  0  0
   -1.2865    5.1168   -1.7628 N   0  0  0  1  0  0  0  0  0  0  0  0
   -1.1519    4.1273   -0.7058 C   0  0  0  1  0  0  0  0  0  0  0  0
   -2.6295    5.4908    0.6134 O   0  0  0  1  0  0  0  0  0  0  0  0
   -2.3731    3.4284    1.3159 N   0  0  0  1  0  0  0  0  0  0  0  0
   -1.7340    4.8607   -2.5962 H   0  0  0  1  0  0  0  0  0  0  0  0
   -0.8213    6.3629   -1.6373 C   0  0  0  1  0  0  0  0  0  0  0  0
   -3.4261    3.4930    2.3184 C   0  0  0  1  0  0  0  0  0  0  0  0
   -0.1539    6.6868   -0.3148 C   0  0  0  1  0  0  0  0  0  0  0  0
   -0.9181    7.2001   -2.5193 O   0  0  0  1  0  0  0  0  0  0  0  0
   -1.8277    2.6153    1.2751 H   0  0  0  1  0  0  0  0  0  0  0  0
   -4.2720    4.0094    1.9151 H   0  0  0  1  0  0  0  0  0  0  0  0
   -3.0666    4.0160    3.1798 H   0  0  0  1  0  0  0  0  0  0  0  0
   -3.7139    2.5009    2.5973 H   0  0  0  1  0  0  0  0  0  0  0  0
   -0.6271    6.1333    0.4691 H   0  0  0  1  0  0  0  0  0  0  0  0
   -0.2451    7.7344   -0.1167 H   0  0  0  1  0  0  0  0  0  0  0  0
    0.8815    6.4214   -0.3637 H   0  0  0  1  0  0  0  0  0  0  0  0
   -6.5450    2.1585   -3.4937 F   0  0  0  1  0  0  0  0  0  0  0  0
   -5.3149    2.2962   -2.9627 C   0  0  0  1  0  0  0  0  0  0  0  0
   -4.2965    2.8647   -3.7117 C   0  0  0  1  0  0  0  0  0  0  0  0
   -3.0329    3.0011   -3.1686 C   0  0  0  1  0  0  0  0  0  0  0  0
   -2.7853    2.5743   -1.8732 C   0  0  0  1  0  0  0  0  0  0  0  0
   -3.8009    2.0075   -1.1265 C   0  0  0  1  0  0  0  0  0  0  0  0
   -5.0683    1.8706   -1.6711 C   0  0  0  1  0  0  0  0  0  0  0  0
   -1.4060    2.7284   -1.2772 C   0  0  0  1  0  0  0  0  0  0  0  0
   -4.4831    3.1886   -4.6822 H   0  0  0  1  0  0  0  0  0  0  0  0
   -2.2677    3.4239   -3.7319 H   0  0  0  1  0  0  0  0  0  0  0  0
   -3.6142    1.6836   -0.1560 H   0  0  0  1  0  0  0  0  0  0  0  0
   -5.8335    1.4478   -1.1078 H   0  0  0  1  0  0  0  0  0  0  0  0
   -1.2936    2.0131   -0.4894 H   0  0  0  1  0  0  0  0  0  0  0  0
   -0.6816    2.5357   -2.0407 H   0  0  0  1  0  0  0  0  0  0  0  0
  1  4  1  0  0  0  0
  2  4  1  0  0  0  0
  2  5  2  0  0  0  0
  2  6  1  0  0  0  0
  3  4  1  0  0  0  0
  3  7  1  0  0  0  0
  3  8  1  0  0  0  0
  4 26  1  0  0  0  0
  6  9  1  0  0  0  0
  6 12  1  0  0  0  0
  8 10  1  0  0  0  0
  8 11  2  0  0  0  0
  9 13  1  0  0  0  0
  9 14  1  0  0  0  0
  9 15  1  0  0  0  0
 10 16  1  0  0  0  0
 10 17  1  0  0  0  0
 10 18  1  0  0  0  0
 19 20  1  0  0  0  0
 20 21  4  0  0  0  0
 20 25  4  0  0  0  0
 21 22  4  0  0  0  0
 21 27  1  0  0  0  0
 22 23  4  0  0  0  0
 22 28  1  0  0  0  0
 23 24  4  0  0  0  0
 23 26  1  0  0  0  0
 24 25  4  0  0  0  0
 24 29  1  0  0  0  0
 25 30  1  0  0  0  0
 26 31  1  0  0  0  0
 26 32  1  0  0  0  0
M  END
> <BCLConfClusterSize>
1

> <ConfClashScore>
0 

> <ConfOneFourInteractionScore>
-0.949142 

> <ConfScore>
0.542574 

> <ConfScorePBest>
0.0027073 

> <ConfTolerance>
1.01942 

> <RosettaParamsInstructions>
M  ROOT 3
M  POLY_N_BB 3
M  POLY_CA_BB 4
M  POLY_C_BB 2
M  POLY_O_BB 5
M  POLY_IGNORE 9 10 11 12 13 14 15 16 17 18 
M  POLY_UPPER 6
M  POLY_LOWER 8
M  POLY_CHG 0
M  POLY_PROPERTIES ALPHA_AA D_AA PROTEIN AROMATIC POLYMER 
M  END

$$$$



 32 32  0  0  0  0  0  0  0  0999 V2000
   -1.6165    1.2584    0.2750 H   0  0  0  1  0  0  0  0  0  0  0  0
    0.4477    1.4724    0.0087 C   0  0  0  1  0  0  0  0  0  0  0  0
   -1.1152    0.2685   -1.4639 N   0  0  0  1  0  0  0  0  0  0  0  0
   -0.9593    1.4192   -0.5539 C   0  0  0  1  0  0  0  0  0  0  0  0
    1.3158    0.6906   -0.3704 O   0  0  0  1  0  0  0  0  0  0  0  0
    0.6693    2.4146    0.9297 N   0  0  0  1  0  0  0  0  0  0  0  0
   -0.4927    0.1715   -2.2146 H   0  0  0  1  0  0  0  0  0  0  0  0
   -2.0748   -0.6452   -1.3004 C   0  0  0  1  0  0  0  0  0  0  0  0
    1.9511    2.6685    1.5703 C   0  0  0  1  0  0  0  0  0  0  0  0
   -2.3449   -1.5893   -2.4723 C   0  0  0  1  0  0  0  0  0  0  0  0
   -2.7792   -0.6888   -0.2932 O   0  0  0  1  0  0  0  0  0  0  0  0
   -0.0885    2.9772    1.1938 H   0  0  0  1  0  0  0  0  0  0  0  0
    1.8238    2.6779    2.6327 H   0  0  0  1  0  0  0  0  0  0  0  0
    2.3290    3.6162    1.2482 H   0  0  0  1  0  0  0  0  0  0  0  0
    2.6429    1.8978    1.3011 H   0  0  0  1  0  0  0  0  0  0  0  0
   -1.4160   -1.8897   -2.9104 H   0  0  0  1  0  0  0  0  0  0  0  0
   -2.9387   -1.0857   -3.2062 H   0  0  0  1  0  0  0  0  0  0  0  0
   -2.8689   -2.4534   -2.1205 H   0  0  0  1  0  0  0  0  0  0  0  0
   -6.5568    2.1423   -3.4599 F   0  0  0  1  0  0  0  0  0  0  0  0
   -5.3125    2.2993   -2.9691 C   0  0  0  1  0  0  0  0  0  0  0  0
   -4.2950    2.8680   -3.7192 C   0  0  0  1  0  0  0  0  0  0  0  0
   -3.0309    3.0049   -3.1774 C   0  0  0  1  0  0  0  0  0  0  0  0
   -2.7819    2.5786   -1.8821 C   0  0  0  1  0  0  0  0  0  0  0  0
   -3.7966    2.0116   -1.1343 C   0  0  0  1  0  0  0  0  0  0  0  0
   -5.0645    1.8742   -1.6775 C   0  0  0  1  0  0  0  0  0  0  0  0
   -1.4232    2.7075   -1.2350 C   0  0  0  1  0  0  0  0  0  0  0  0
   -4.4827    3.1915   -4.6896 H   0  0  0  1  0  0  0  0  0  0  0  0
   -2.2665    3.4279   -3.7415 H   0  0  0  1  0  0  0  0  0  0  0  0
   -3.6088    1.6881   -0.1639 H   0  0  0  1  0  0  0  0  0  0  0  0
   -5.8289    1.4512   -1.1134 H   0  0  0  1  0  0  0  0  0  0  0  0
   -0.7105    2.9699   -1.9888 H   0  0  0  1  0  0  0  0  0  0  0  0
   -1.4682    3.4841   -0.5002 H   0  0  0  1  0  0  0  0  0  0  0  0
  1  4  1  0  0  0  0
  2  4  1  0  0  0  0
  2  5  2  0  0  0  0
  2  6  1  0  0  0  0
  3  4  1  0  0  0  0
  3  7  1  0  0  0  0
  3  8  1  0  0  0  0
  4 26  1  0  0  0  0
  6  9  1  0  0  0  0
  6 12  1  0  0  0  0
  8 10  1  0  0  0  0
  8 11  2  0  0  0  0
  9 13  1  0  0  0  0
  9 14  1  0  0  0  0
  9 15  1  0  0  0  0
 10 16  1  0  0  0  0
 10 17  1  0  0  0  0
 10 18  1  0  0  0  0
 19 20  1  0  0  0  0
 20 21  4  0  0  0  0
 20 25  4  0  0  0  0
 21 22  4  0  0  0  0
 21 27  1  0  0  0  0
 22 23  4  0  0  0  0
 22 28  1  0  0  0  0
 23 24  4  0  0  0  0
 23 26  1  0  0  0  0
 24 25  4  0  0  0  0
 24 29  1  0  0  0  0
 25 30  1  0  0  0  0
 26 31  1  0  0  0  0
 26 32  1  0  0  0  0
M  END
> <BCLConfClusterSize>
1

> <ConfClashScore>
0 

> <ConfOneFourInteractionScore>
-0.992391 

> <ConfScore>
0.54554 

> <ConfScorePBest>
0.00267882 

> <ConfTolerance>
1.1046 

> <RosettaParamsInstructions>
M  ROOT 3
M  POLY_N_BB 3
M  POLY_CA_BB 4
M  POLY_C_BB 2
M  POLY_O_BB 5
M  POLY_IGNORE 9 10 11 12 13 14 15 16 17 18 
M  POLY_UPPER 6
M  POLY_LOWER 8
M  POLY_CHG 0
M  POLY_PROPERTIES ALPHA_AA D_AA PROTEIN AROMATIC POLYMER 
M  END

$$$$



 32 32  0  0  0  0  0  0  0  0999 V2000
   -2.2714    3.9960    0.1318 H   0  0  0  1  0  0  0  0  0  0  0  0
   -0.9183    5.2003   -0.9180 C   0  0  0  1  0  0  0  0  0  0  0  0
   -0.3849    3.5579    0.8245 N   0  0  0  1  0  0  0  0  0  0  0  0
   -1.2926    3.8739   -0.2829 C   0  0  0  1  0  0  0  0  0  0  0  0
   -0.4316    6.0682   -0.1945 O   0  0  0  1  0  0  0  0  0  0  0  0
   -1.1354    5.3563   -2.2221 N   0  0  0  1  0  0  0  0  0  0  0  0
   -0.6905    3.7617    1.7331 H   0  0  0  1  0  0  0  0  0  0  0  0
    0.8255    3.0140    0.6884 C   0  0  0  1  0  0  0  0  0  0  0  0
   -0.8878    6.6157   -2.9056 C   0  0  0  1  0  0  0  0  0  0  0  0
    1.6744    2.9793    1.9391 C   0  0  0  1  0  0  0  0  0  0  0  0
    1.2417    2.5643   -0.3784 O   0  0  0  1  0  0  0  0  0  0  0  0
   -1.4738    4.5959   -2.7395 H   0  0  0  1  0  0  0  0  0  0  0  0
   -1.4972    7.3820   -2.4741 H   0  0  0  1  0  0  0  0  0  0  0  0
   -1.1277    6.5113   -3.9431 H   0  0  0  1  0  0  0  0  0  0  0  0
    0.1438    6.8804   -2.8024 H   0  0  0  1  0  0  0  0  0  0  0  0
    1.8695    3.9792    2.2662 H   0  0  0  1  0  0  0  0  0  0  0  0
    2.6003    2.4863    1.7278 H   0  0  0  1  0  0  0  0  0  0  0  0
    1.1541    2.4477    2.7083 H   0  0  0  1  0  0  0  0  0  0  0  0
   -6.5436    2.1603   -3.4973 F   0  0  0  1  0  0  0  0  0  0  0  0
   -5.3149    2.2961   -2.9625 C   0  0  0  1  0  0  0  0  0  0  0  0
   -4.2936    2.8641   -3.7080 C   0  0  0  1  0  0  0  0  0  0  0  0
   -3.0315    2.9985   -3.1610 C   0  0  0  1  0  0  0  0  0  0  0  0
   -2.7882    2.5704   -1.8653 C   0  0  0  1  0  0  0  0  0  0  0  0
   -3.8067    2.0042   -1.1220 C   0  0  0  1  0  0  0  0  0  0  0  0
   -5.0726    1.8692   -1.6705 C   0  0  0  1  0  0  0  0  0  0  0  0
   -1.3927    2.7464   -1.3147 C   0  0  0  1  0  0  0  0  0  0  0  0
   -4.4770    3.1890   -4.6788 H   0  0  0  1  0  0  0  0  0  0  0  0
   -2.2642    3.4210   -3.7217 H   0  0  0  1  0  0  0  0  0  0  0  0
   -3.6232    1.6793   -0.1513 H   0  0  0  1  0  0  0  0  0  0  0  0
   -5.8400    1.4467   -1.1098 H   0  0  0  1  0  0  0  0  0  0  0  0
   -1.0923    1.8311   -0.8491 H   0  0  0  1  0  0  0  0  0  0  0  0
   -0.7318    2.9680   -2.1264 H   0  0  0  1  0  0  0  0  0  0  0  0
  1  4  1  0  0  0  0
  2  4  1  0  0  0  0
  2  5  2  0  0  0  0
  2  6  1  0  0  0  0
  3  4  1  0  0  0  0
  3  7  1  0  0  0  0
  3  8  1  0  0  0  0
  4 26  1  0  0  0  0
  6  9  1  0  0  0  0
  6 12  1  0  0  0  0
  8 10  1  0  0  0  0
  8 11  2  0  0  0  0
  9 13  1  0  0  0  0
  9 14  1  0  0  0  0
  9 15  1  0  0  0  0
 10 16  1  0  0  0  0
 10 17  1  0  0  0  0
 10 18  1  0  0  0  0
 19 20  1  0  0  0  0
 20 21  4  0  0  0  0
 20 25  4  0  0  0  0
 21 22  4  0  0  0  0
 21 27  1  0  0  0  0
 22 23  4  0  0  0  0
 22 28  1  0  0  0  0
 23 24  4  0  0  0  0
 23 26  1  0  0  0  0
 24 25  4  0  0  0  0
 24 29  1  0  0  0  0
 25 30  1  0  0  0  0
 26 31  1  0  0  0  0
 26 32  1  0  0  0  0
M  END
> <BCLConfClusterSize>
1

> <ConfClashScore>
0 

> <ConfOneFourInteractionScore>
-0.925862 

> <ConfScore>
0.553375 

> <ConfScorePBest>
0.00265034 

> <ConfTolerance>
0.886147 

> <RosettaParamsInstructions>
M  ROOT 3
M  POLY_N_BB 3
M  POLY_CA_BB 4
M  POLY_C_BB 2
M  POLY_O_BB 5
M  POLY_IGNORE 9 10 11 12 13 14 15 16 17 18 
M  POLY_UPPER 6
M  POLY_LOWER 8
M  POLY_CHG 0
M  POLY_PROPERTIES ALPHA_AA D_AA PROTEIN AROMATIC POLYMER 
M  END

$$$$



 32 32  0  0  0  0  0  0  0  0999 V2000
   -1.3227    4.8389   -1.2968 H   0  0  0  1  0  0  0  0  0  0  0  0
    0.3130    4.1417   -0.1579 C   0  0  0  1  0  0  0  0  0  0  0  0
   -2.0448    4.2142    0.5377 N   0  0  0  1  0  0  0  0  0  0  0  0
   -1.1381    4.0573   -0.5897 C   0  0  0  1  0  0  0  0  0  0  0  0
    1.2135    4.3021   -0.9775 O   0  0  0  1  0  0  0  0  0  0  0  0
    0.5364    4.0302    1.1611 N   0  0  0  1  0  0  0  0  0  0  0  0
   -2.3964    3.4119    0.9771 H   0  0  0  1  0  0  0  0  0  0  0  0
   -2.4162    5.4191    0.9965 C   0  0  0  1  0  0  0  0  0  0  0  0
    1.8668    4.2702    1.6997 C   0  0  0  1  0  0  0  0  0  0  0  0
   -1.7242    6.6427    0.4279 C   0  0  0  1  0  0  0  0  0  0  0  0
   -3.2905    5.5304    1.8518 O   0  0  0  1  0  0  0  0  0  0  0  0
   -0.1981    3.7868    1.7625 H   0  0  0  1  0  0  0  0  0  0  0  0
    2.0350    3.6252    2.5367 H   0  0  0  1  0  0  0  0  0  0  0  0
    1.9455    5.2899    2.0141 H   0  0  0  1  0  0  0  0  0  0  0  0
    2.5983    4.0719    0.9443 H   0  0  0  1  0  0  0  0  0  0  0  0
   -1.9794    7.5015    1.0129 H   0  0  0  1  0  0  0  0  0  0  0  0
   -2.0405    6.7934   -0.5832 H   0  0  0  1  0  0  0  0  0  0  0  0
   -0.6646    6.4966    0.4526 H   0  0  0  1  0  0  0  0  0  0  0  0
   -6.5450    2.1585   -3.4937 F   0  0  0  1  0  0  0  0  0  0  0  0
   -5.3149    2.2962   -2.9627 C   0  0  0  1  0  0  0  0  0  0  0  0
   -4.2965    2.8647   -3.7117 C   0  0  0  1  0  0  0  0  0  0  0  0
   -3.0329    3.0011   -3.1686 C   0  0  0  1  0  0  0  0  0  0  0  0
   -2.7853    2.5743   -1.8732 C   0  0  0  1  0  0  0  0  0  0  0  0
   -3.8009    2.0075   -1.1265 C   0  0  0  1  0  0  0  0  0  0  0  0
   -5.0683    1.8706   -1.6711 C   0  0  0  1  0  0  0  0  0  0  0  0
   -1.4060    2.7284   -1.2772 C   0  0  0  1  0  0  0  0  0  0  0  0
   -4.4831    3.1886   -4.6822 H   0  0  0  1  0  0  0  0  0  0  0  0
   -2.2677    3.4239   -3.7319 H   0  0  0  1  0  0  0  0  0  0  0  0
   -3.6142    1.6836   -0.1560 H   0  0  0  1  0  0  0  0  0  0  0  0
   -5.8335    1.4478   -1.1078 H   0  0  0  1  0  0  0  0  0  0  0  0
   -1.2694    1.9501   -0.5557 H   0  0  0  1  0  0  0  0  0  0  0  0
   -0.6912    2.6144   -2.0652 H   0  0  0  1  0  0  0  0  0  0  0  0
  1  4  1  0  0  0  0
  2  4  1  0  0  0  0
  2  5  2  0  0  0  0
  2  6  1  0  0  0  0
  3  4  1  0  0  0  0
  3  7  1  0  0  0  0
  3  8  1  0  0  0  0
  4 26  1  0  0  0  0
  6  9  1  0  0  0  0
  6 12  1  0  0  0  0
  8 10  1  0  0  0  0
  8 11  2  0  0  0  0
  9 13  1  0  0  0  0
  9 14  1  0  0  0  0
  9 15  1  0  0  0  0
 10 16  1  0  0  0  0
 10 17  1  0  0  0  0
 10 18  1  0  0  0  0
 19 20  1  0  0  0  0
 20 21  4  0  0  0  0
 20 25  4  0  0  0  0
 21 22  4  0  0  0  0
 21 27  1  0  0  0  0
 22 23  4  0  0  0  0
 22 28  1  0  0  0  0
 23 24  4  0  0  0  0
 23 26  1  0  0  0  0
 24 25  4  0  0  0  0
 24 29  1  0  0  0  0
 25 30  1  0  0  0  0
 26 31  1  0  0  0  0
 26 32  1  0  0  0  0
M  END
> <BCLConfClusterSize>
1

> <ConfClashScore>
0 

> <ConfOneFourInteractionScore>
-0.960318 

> <ConfScore>
0.554226 

> <ConfScorePBest>
0.00262186 

> <ConfTolerance>
1.10624 

> <RosettaParamsInstructions>
M  ROOT 3
M  POLY_N_BB 3
M  POLY_CA_BB 4
M  POLY_C_BB 2
M  POLY_O_BB 5
M  POLY_IGNORE 9 10 11 12 13 14 15 16 17 18 
M  POLY_UPPER 6
M  POLY_LOWER 8
M  POLY_CHG 0
M  POLY_PROPERTIES ALPHA_AA D_AA PROTEIN AROMATIC POLYMER 
M  END

$$$$



 32 32  0  0  0  0  0  0  0  0999 V2000
   -1.7832    1.1860    0.1537 H   0  0  0  1  0  0  0  0  0  0  0  0
   -2.2598    2.9373    1.1765 C   0  0  0  1  0  0  0  0  0  0  0  0
   -0.0150    2.0555    0.7306 N   0  0  0  1  0  0  0  0  0  0  0  0
   -1.3848    2.1781    0.1982 C   0  0  0  1  0  0  0  0  0  0  0  0
   -3.1618    3.6737    0.7861 O   0  0  0  1  0  0  0  0  0  0  0  0
   -1.9811    2.7486    2.4760 N   0  0  0  1  0  0  0  0  0  0  0  0
    0.3796    1.1630    0.8200 H   0  0  0  1  0  0  0  0  0  0  0  0
    0.7067    3.1191    1.0954 C   0  0  0  1  0  0  0  0  0  0  0  0
   -2.8513    3.3077    3.4981 C   0  0  0  1  0  0  0  0  0  0  0  0
    2.1526    2.8411    1.4578 C   0  0  0  1  0  0  0  0  0  0  0  0
    0.2458    4.2566    1.1402 O   0  0  0  1  0  0  0  0  0  0  0  0
   -1.1894    2.2330    2.7365 H   0  0  0  1  0  0  0  0  0  0  0  0
   -3.6626    3.8265    3.0316 H   0  0  0  1  0  0  0  0  0  0  0  0
   -2.2946    3.9899    4.1060 H   0  0  0  1  0  0  0  0  0  0  0  0
   -3.2371    2.5182    4.1086 H   0  0  0  1  0  0  0  0  0  0  0  0
    2.7942    3.4640    0.8703 H   0  0  0  1  0  0  0  0  0  0  0  0
    2.3776    1.8133    1.2631 H   0  0  0  1  0  0  0  0  0  0  0  0
    2.3063    3.0499    2.4960 H   0  0  0  1  0  0  0  0  0  0  0  0
   -6.5463    2.1567   -3.4899 F   0  0  0  1  0  0  0  0  0  0  0  0
   -5.3147    2.2963   -2.9629 C   0  0  0  1  0  0  0  0  0  0  0  0
   -4.2994    2.8654   -3.7156 C   0  0  0  1  0  0  0  0  0  0  0  0
   -3.0342    3.0038   -3.1767 C   0  0  0  1  0  0  0  0  0  0  0  0
   -2.7820    2.5785   -1.8817 C   0  0  0  1  0  0  0  0  0  0  0  0
   -3.7945    2.0111   -1.1313 C   0  0  0  1  0  0  0  0  0  0  0  0
   -5.0635    1.8722   -1.6717 C   0  0  0  1  0  0  0  0  0  0  0  0
   -1.4219    2.7089   -1.2377 C   0  0  0  1  0  0  0  0  0  0  0  0
   -4.4895    3.1882   -4.6858 H   0  0  0  1  0  0  0  0  0  0  0  0
   -2.2714    3.4270   -3.7428 H   0  0  0  1  0  0  0  0  0  0  0  0
   -3.6043    1.6883   -0.1611 H   0  0  0  1  0  0  0  0  0  0  0  0
   -5.8264    1.4489   -1.1056 H   0  0  0  1  0  0  0  0  0  0  0  0
   -0.7141    2.1594   -1.8224 H   0  0  0  1  0  0  0  0  0  0  0  0
   -1.1487    3.7434   -1.2256 H   0  0  0  1  0  0  0  0  0  0  0  0
  1  4  1  0  0  0  0
  2  4  1  0  0  0  0
  2  5  2  0  0  0  0
  2  6  1  0  0  0  0
  3  4  1  0  0  0  0
  3  7  1  0  0  0  0
  3  8  1  0  0  0  0
  4 26  1  0  0  0  0
  6  9  1  0  0  0  0
  6 12  1  0  0  0  0
  8 10  1  0  0  0  0
  8 11  2  0  0  0  0
  9 13  1  0  0  0  0
  9 14  1  0  0  0  0
  9 15  1  0  0  0  0
 10 16  1  0  0  0  0
 10 17  1  0  0  0  0
 10 18  1  0  0  0  0
 19 20  1  0  0  0  0
 20 21  4  0  0  0  0
 20 25  4  0  0  0  0
 21 22  4  0  0  0  0
 21 27  1  0  0  0  0
 22 23  4  0  0  0  0
 22 28  1  0  0  0  0
 23 24  4  0  0  0  0
 23 26  1  0  0  0  0
 24 25  4  0  0  0  0
 24 29  1  0  0  0  0
 25 30  1  0  0  0  0
 26 31  1  0  0  0  0
 26 32  1  0  0  0  0
M  END
> <BCLConfClusterSize>
1

> <ConfClashScore>
0 

> <ConfOneFourInteractionScore>
-0.949923 

> <ConfScore>
0.554565 

> <ConfScorePBest>
0.00259338 

> <ConfTolerance>
0.972794 

> <RosettaParamsInstructions>
M  ROOT 3
M  POLY_N_BB 3
M  POLY_CA_BB 4
M  POLY_C_BB 2
M  POLY_O_BB 5
M  POLY_IGNORE 9 10 11 12 13 14 15 16 17 18 
M  POLY_UPPER 6
M  POLY_LOWER 8
M  POLY_CHG 0
M  POLY_PROPERTIES ALPHA_AA D_AA PROTEIN AROMATIC POLYMER 
M  END

$$$$



 32 32  0  0  0  0  0  0  0  0999 V2000
   -0.3409    1.6317   -2.7590 H   0  0  0  1  0  0  0  0  0  0  0  0
   -1.0406    0.2602   -1.3294 C   0  0  0  1  0  0  0  0  0  0  0  0
    0.8566    1.8166   -1.0962 N   0  0  0  1  0  0  0  0  0  0  0  0
   -0.4534    1.6095   -1.6952 C   0  0  0  1  0  0  0  0  0  0  0  0
   -0.8410   -0.2353   -0.2211 O   0  0  0  1  0  0  0  0  0  0  0  0
   -1.7830   -0.3755   -2.2496 N   0  0  0  1  0  0  0  0  0  0  0  0
    1.0211    2.6408   -0.5921 H   0  0  0  1  0  0  0  0  0  0  0  0
    1.8427    0.9224   -1.2096 C   0  0  0  1  0  0  0  0  0  0  0  0
   -1.9007    0.1028   -3.6190 C   0  0  0  1  0  0  0  0  0  0  0  0
    3.1963    1.3649   -0.6889 C   0  0  0  1  0  0  0  0  0  0  0  0
    1.6817   -0.1935   -1.7020 O   0  0  0  1  0  0  0  0  0  0  0  0
   -2.2624   -1.1899   -1.9902 H   0  0  0  1  0  0  0  0  0  0  0  0
   -0.9860    0.5739   -3.9127 H   0  0  0  1  0  0  0  0  0  0  0  0
   -2.7018    0.8093   -3.6822 H   0  0  0  1  0  0  0  0  0  0  0  0
   -2.1009   -0.7232   -4.2691 H   0  0  0  1  0  0  0  0  0  0  0  0
    3.5580    2.1792   -1.2813 H   0  0  0  1  0  0  0  0  0  0  0  0
    3.8851    0.5481   -0.7474 H   0  0  0  1  0  0  0  0  0  0  0  0
    3.1011    1.6795    0.3293 H   0  0  0  1  0  0  0  0  0  0  0  0
   -6.5436    2.1603   -3.4973 F   0  0  0  1  0  0  0  0  0  0  0  0
   -5.3149    2.2961   -2.9625 C   0  0  0  1  0  0  0  0  0  0  0  0
   -4.2936    2.8641   -3.7080 C   0  0  0  1  0  0  0  0  0  0  0  0
   -3.0315    2.9985   -3.1610 C   0  0  0  1  0  0  0  0  0  0  0  0
   -2.7882    2.5704   -1.8653 C   0  0  0  1  0  0  0  0  0  0  0  0
   -3.8067    2.0042   -1.1220 C   0  0  0  1  0  0  0  0  0  0  0  0
   -5.0726    1.8692   -1.6705 C   0  0  0  1  0  0  0  0  0  0  0  0
   -1.3927    2.7464   -1.3147 C   0  0  0  1  0  0  0  0  0  0  0  0
   -4.4770    3.1890   -4.6788 H   0  0  0  1  0  0  0  0  0  0  0  0
   -2.2642    3.4210   -3.7217 H   0  0  0  1  0  0  0  0  0  0  0  0
   -3.6232    1.6793   -0.1513 H   0  0  0  1  0  0  0  0  0  0  0  0
   -5.8400    1.4467   -1.1098 H   0  0  0  1  0  0  0  0  0  0  0  0
   -0.9900    3.6623   -1.6940 H   0  0  0  1  0  0  0  0  0  0  0  0
   -1.4515    2.7969   -0.2475 H   0  0  0  1  0  0  0  0  0  0  0  0
  1  4  1  0  0  0  0
  2  4  1  0  0  0  0
  2  5  2  0  0  0  0
  2  6  1  0  0  0  0
  3  4  1  0  0  0  0
  3  7  1  0  0  0  0
  3  8  1  0  0  0  0
  4 26  1  0  0  0  0
  6  9  1  0  0  0  0
  6 12  1  0  0  0  0
  8 10  1  0  0  0  0
  8 11  2  0  0  0  0
  9 13  1  0  0  0  0
  9 14  1  0  0  0  0
  9 15  1  0  0  0  0
 10 16  1  0  0  0  0
 10 17  1  0  0  0  0
 10 18  1  0  0  0  0
 19 20  1  0  0  0  0
 20 21  4  0  0  0  0
 20 25  4  0  0  0  0
 21 22  4  0  0  0  0
 21 27  1  0  0  0  0
 22 23  4  0  0  0  0
 22 28  1  0  0  0  0
 23 24  4  0  0  0  0
 23 26  1  0  0  0  0
 24 25  4  0  0  0  0
 24 29  1  0  0  0  0
 25 30  1  0  0  0  0
 26 31  1  0  0  0  0
 26 32  1  0  0  0  0
M  END
> <BCLConfClusterSize>
1

> <ConfClashScore>
0.000221222 

> <ConfOneFourInteractionScore>
-0.985807 

> <ConfScore>
0.556638 

> <ConfScorePBest>
0.0025649 

> <ConfTolerance>
1.08044 

> <RosettaParamsInstructions>
M  ROOT 3
M  POLY_N_BB 3
M  POLY_CA_BB 4
M  POLY_C_BB 2
M  POLY_O_BB 5
M  POLY_IGNORE 9 10 11 12 13 14 15 16 17 18 
M  POLY_UPPER 6
M  POLY_LOWER 8
M  POLY_CHG 0
M  POLY_PROPERTIES ALPHA_AA D_AA PROTEIN AROMATIC POLYMER 
M  END

$$$$



 32 32  0  0  0  0  0  0  0  0999 V2000
   -1.0493    0.8267   -2.1337 H   0  0  0  1  0  0  0  0  0  0  0  0
   -0.2046    0.8301   -0.1990 C   0  0  0  1  0  0  0  0  0  0  0  0
    0.6976    1.9289   -2.2047 N   0  0  0  1  0  0  0  0  0  0  0  0
   -0.5144    1.5168   -1.5151 C   0  0  0  1  0  0  0  0  0  0  0  0
   -1.0052    0.0448    0.3068 O   0  0  0  1  0  0  0  0  0  0  0  0
    0.9672    1.1049    0.3956 N   0  0  0  1  0  0  0  0  0  0  0  0
    1.5512    1.8902   -1.7249 H   0  0  0  1  0  0  0  0  0  0  0  0
    0.6878    2.3628   -3.4822 C   0  0  0  1  0  0  0  0  0  0  0  0
    1.4487    0.4777    1.6173 C   0  0  0  1  0  0  0  0  0  0  0  0
    1.9598    2.9736   -4.0373 C   0  0  0  1  0  0  0  0  0  0  0  0
   -0.3204    2.2670   -4.1771 O   0  0  0  1  0  0  0  0  0  0  0  0
    1.5416    1.7785   -0.0247 H   0  0  0  1  0  0  0  0  0  0  0  0
    2.1502    1.1263    2.0993 H   0  0  0  1  0  0  0  0  0  0  0  0
    1.9267   -0.4491    1.3777 H   0  0  0  1  0  0  0  0  0  0  0  0
    0.6234    0.2949    2.2733 H   0  0  0  1  0  0  0  0  0  0  0  0
    2.0935    2.6600   -5.0516 H   0  0  0  1  0  0  0  0  0  0  0  0
    2.7951    2.6513   -3.4515 H   0  0  0  1  0  0  0  0  0  0  0  0
    1.8883    4.0406   -4.0007 H   0  0  0  1  0  0  0  0  0  0  0  0
   -6.5332    2.1730   -3.5231 F   0  0  0  1  0  0  0  0  0  0  0  0
   -5.3173    2.2932   -2.9566 C   0  0  0  1  0  0  0  0  0  0  0  0
   -4.3009    2.8621   -3.7082 C   0  0  0  1  0  0  0  0  0  0  0  0
   -3.0363    2.9999   -3.1680 C   0  0  0  1  0  0  0  0  0  0  0  0
   -2.7855    2.5741   -1.8729 C   0  0  0  1  0  0  0  0  0  0  0  0
   -3.7989    2.0069   -1.1236 C   0  0  0  1  0  0  0  0  0  0  0  0
   -5.0674    1.8686   -1.6653 C   0  0  0  1  0  0  0  0  0  0  0  0
   -1.4050    2.7298   -1.2800 C   0  0  0  1  0  0  0  0  0  0  0  0
   -4.4900    3.1852   -4.6785 H   0  0  0  1  0  0  0  0  0  0  0  0
   -2.2727    3.4230   -3.7333 H   0  0  0  1  0  0  0  0  0  0  0  0
   -3.6098    1.6838   -0.1533 H   0  0  0  1  0  0  0  0  0  0  0  0
   -5.8310    1.4455   -1.1000 H   0  0  0  1  0  0  0  0  0  0  0  0
   -0.9389    3.5853   -1.7223 H   0  0  0  1  0  0  0  0  0  0  0  0
   -1.5025    2.8814   -0.2253 H   0  0  0  1  0  0  0  0  0  0  0  0
  1  4  1  0  0  0  0
  2  4  1  0  0  0  0
  2  5  2  0  0  0  0
  2  6  1  0  0  0  0
  3  4  1  0  0  0  0
  3  7  1  0  0  0  0
  3  8  1  0  0  0  0
  4 26  1  0  0  0  0
  6  9  1  0  0  0  0
  6 12  1  0  0  0  0
  8 10  1  0  0  0  0
  8 11  2  0  0  0  0
  9 13  1  0  0  0  0
  9 14  1  0  0  0  0
  9 15  1  0  0  0  0
 10 16  1  0  0  0  0
 10 17  1  0  0  0  0
 10 18  1  0  0  0  0
 19 20  1  0  0  0  0
 20 21  4  0  0  0  0
 20 25  4  0  0  0  0
 21 22  4  0  0  0  0
 21 27  1  0  0  0  0
 22 23  4  0  0  0  0
 22 28  1  0  0  0  0
 23 24  4  0  0  0  0
 23 26  1  0  0  0  0
 24 25  4  0  0  0  0
 24 29  1  0  0  0  0
 25 30  1  0  0  0  0
 26 31  1  0  0  0  0
 26 32  1  0  0  0  0
M  END
> <BCLConfClusterSize>
1

> <ConfClashScore>
0 

> <ConfOneFourInteractionScore>
-0.950863 

> <ConfScore>
0.558105 

> <ConfScorePBest>
0.00253641 

> <ConfTolerance>
1.28895 

> <RosettaParamsInstructions>
M  ROOT 3
M  POLY_N_BB 3
M  POLY_CA_BB 4
M  POLY_C_BB 2
M  POLY_O_BB 5
M  POLY_IGNORE 9 10 11 12 13 14 15 16 17 18 
M  POLY_UPPER 6
M  POLY_LOWER 8
M  POLY_CHG 0
M  POLY_PROPERTIES ALPHA_AA D_AA PROTEIN AROMATIC POLYMER 
M  END

$$$$



 32 32  0  0  0  0  0  0  0  0999 V2000
   -0.0955    2.2159    0.2344 H   0  0  0  1  0  0  0  0  0  0  0  0
   -1.2479    0.5100   -0.2428 C   0  0  0  1  0  0  0  0  0  0  0  0
   -1.9955    2.4598    1.0088 N   0  0  0  1  0  0  0  0  0  0  0  0
   -1.1061    2.0128   -0.0528 C   0  0  0  1  0  0  0  0  0  0  0  0
   -2.1698    0.0376   -0.8872 O   0  0  0  1  0  0  0  0  0  0  0  0
   -0.3023   -0.2430    0.3395 N   0  0  0  1  0  0  0  0  0  0  0  0
   -2.4324    3.3329    0.9235 H   0  0  0  1  0  0  0  0  0  0  0  0
   -2.2373    1.7213    2.0956 C   0  0  0  1  0  0  0  0  0  0  0  0
   -0.2823   -1.6981    0.3451 C   0  0  0  1  0  0  0  0  0  0  0  0
   -3.1919    2.3281    3.1054 C   0  0  0  1  0  0  0  0  0  0  0  0
   -1.7282    0.6192    2.2820 O   0  0  0  1  0  0  0  0  0  0  0  0
    0.4301    0.2220    0.7954 H   0  0  0  1  0  0  0  0  0  0  0  0
   -1.2482   -2.0676    0.6199 H   0  0  0  1  0  0  0  0  0  0  0  0
    0.4448   -2.0419    1.0508 H   0  0  0  1  0  0  0  0  0  0  0  0
   -0.0288   -2.0548   -0.6314 H   0  0  0  1  0  0  0  0  0  0  0  0
   -3.5288    3.2799    2.7513 H   0  0  0  1  0  0  0  0  0  0  0  0
   -2.6883    2.4538    4.0411 H   0  0  0  1  0  0  0  0  0  0  0  0
   -4.0322    1.6788    3.2364 H   0  0  0  1  0  0  0  0  0  0  0  0
   -6.5529    2.1476   -3.4709 F   0  0  0  1  0  0  0  0  0  0  0  0
   -5.3125    2.2990   -2.9683 C   0  0  0  1  0  0  0  0  0  0  0  0
   -4.2862    2.8660   -3.7078 C   0  0  0  1  0  0  0  0  0  0  0  0
   -3.0267    2.9972   -3.1541 C   0  0  0  1  0  0  0  0  0  0  0  0
   -2.7909    2.5668   -1.8577 C   0  0  0  1  0  0  0  0  0  0  0  0
   -3.8143    2.0015   -1.1206 C   0  0  0  1  0  0  0  0  0  0  0  0
   -5.0777    1.8698   -1.6757 C   0  0  0  1  0  0  0  0  0  0  0  0
   -1.3821    2.7627   -1.3494 C   0  0  0  1  0  0  0  0  0  0  0  0
   -4.4640    3.1927   -4.6790 H   0  0  0  1  0  0  0  0  0  0  0  0
   -2.2557    3.4190   -3.7103 H   0  0  0  1  0  0  0  0  0  0  0  0
   -3.6365    1.6749   -0.1494 H   0  0  0  1  0  0  0  0  0  0  0  0
   -5.8487    1.4481   -1.1196 H   0  0  0  1  0  0  0  0  0  0  0  0
   -0.6992    2.4147   -2.0961 H   0  0  0  1  0  0  0  0  0  0  0  0
   -1.2236    3.8071   -1.1792 H   0  0  0  1  0  0  0  0  0  0  0  0
  1  4  1  0  0  0  0
  2  4  1  0  0  0  0
  2  5  2  0  0  0  0
  2  6  1  0  0  0  0
  3  4  1  0  0  0  0
  3  7  1  0  0  0  0
  3  8  1  0  0  0  0
  4 26  1  0  0  0  0
  6  9  1  0  0  0  0
  6 12  1  0  0  0  0
  8 10  1  0  0  0  0
  8 11  2  0  0  0  0
  9 13  1  0  0  0  0
  9 14  1  0  0  0  0
  9 15  1  0  0  0  0
 10 16  1  0  0  0  0
 10 17  1  0  0  0  0
 10 18  1  0  0  0  0
 19 20  1  0  0  0  0
 20 21  4  0  0  0  0
 20 25  4  0  0  0  0
 21 22  4  0  0  0  0
 21 27  1  0  0  0  0
 22 23  4  0  0  0  0
 22 28  1  0  0  0  0
 23 24  4  0  0  0  0
 23 26  1  0  0  0  0
 24 25  4  0  0  0  0
 24 29  1  0  0  0  0
 25 30  1  0  0  0  0
 26 31  1  0  0  0  0
 26 32  1  0  0  0  0
M  END
> <BCLConfClusterSize>
1

> <ConfClashScore>
0.000111939 

> <ConfOneFourInteractionScore>
-0.954931 

> <ConfScore>
0.568982 

> <ConfScorePBest>
0.00250793 

> <ConfTolerance>
0.681309 

> <RosettaParamsInstructions>
M  ROOT 3
M  POLY_N_BB 3
M  POLY_CA_BB 4
M  POLY_C_BB 2
M  POLY_O_BB 5
M  POLY_IGNORE 9 10 11 12 13 14 15 16 17 18 
M  POLY_UPPER 6
M  POLY_LOWER 8
M  POLY_CHG 0
M  POLY_PROPERTIES ALPHA_AA D_AA PROTEIN AROMATIC POLYMER 
M  END

$$$$



 32 32  0  0  0  0  0  0  0  0999 V2000
   -0.3876    4.5521   -1.3801 H   0  0  0  1  0  0  0  0  0  0  0  0
   -0.5476    4.0931    0.6553 C   0  0  0  1  0  0  0  0  0  0  0  0
   -2.3197    4.9895   -0.8478 N   0  0  0  1  0  0  0  0  0  0  0  0
   -1.1390    4.1305   -0.7456 C   0  0  0  1  0  0  0  0  0  0  0  0
   -0.0406    3.0676    1.1069 O   0  0  0  1  0  0  0  0  0  0  0  0
   -0.6188    5.2430    1.3509 N   0  0  0  1  0  0  0  0  0  0  0  0
   -2.3241    5.7105   -1.5115 H   0  0  0  1  0  0  0  0  0  0  0  0
   -3.3917    4.8249   -0.0676 C   0  0  0  1  0  0  0  0  0  0  0  0
    0.0022    5.4008    2.6576 C   0  0  0  1  0  0  0  0  0  0  0  0
   -4.4866    5.8766   -0.1929 C   0  0  0  1  0  0  0  0  0  0  0  0
   -3.5356    3.8482    0.6501 O   0  0  0  1  0  0  0  0  0  0  0  0
   -1.1057    6.0004    0.9641 H   0  0  0  1  0  0  0  0  0  0  0  0
    1.0589    5.2576    2.5705 H   0  0  0  1  0  0  0  0  0  0  0  0
   -0.4012    4.6763    3.3338 H   0  0  0  1  0  0  0  0  0  0  0  0
   -0.1947    6.3847    3.0292 H   0  0  0  1  0  0  0  0  0  0  0  0
   -4.8329    5.9128   -1.2046 H   0  0  0  1  0  0  0  0  0  0  0  0
   -4.0954    6.8332    0.0844 H   0  0  0  1  0  0  0  0  0  0  0  0
   -5.3005    5.6225    0.4536 H   0  0  0  1  0  0  0  0  0  0  0  0
   -6.5450    2.1585   -3.4937 F   0  0  0  1  0  0  0  0  0  0  0  0
   -5.3149    2.2962   -2.9627 C   0  0  0  1  0  0  0  0  0  0  0  0
   -4.2965    2.8647   -3.7117 C   0  0  0  1  0  0  0  0  0  0  0  0
   -3.0329    3.0011   -3.1686 C   0  0  0  1  0  0  0  0  0  0  0  0
   -2.7853    2.5743   -1.8732 C   0  0  0  1  0  0  0  0  0  0  0  0
   -3.8009    2.0075   -1.1265 C   0  0  0  1  0  0  0  0  0  0  0  0
   -5.0683    1.8706   -1.6711 C   0  0  0  1  0  0  0  0  0  0  0  0
   -1.4060    2.7284   -1.2772 C   0  0  0  1  0  0  0  0  0  0  0  0
   -4.4831    3.1886   -4.6822 H   0  0  0  1  0  0  0  0  0  0  0  0
   -2.2677    3.4239   -3.7319 H   0  0  0  1  0  0  0  0  0  0  0  0
   -3.6142    1.6836   -0.1560 H   0  0  0  1  0  0  0  0  0  0  0  0
   -5.8335    1.4478   -1.1078 H   0  0  0  1  0  0  0  0  0  0  0  0
   -1.3041    2.0331   -0.4703 H   0  0  0  1  0  0  0  0  0  0  0  0
   -0.6817    2.5071   -2.0330 H   0  0  0  1  0  0  0  0  0  0  0  0
  1  4  1  0  0  0  0
  2  4  1  0  0  0  0
  2  5  2  0  0  0  0
  2  6  1  0  0  0  0
  3  4  1  0  0  0  0
  3  7  1  0  0  0  0
  3  8  1  0  0  0  0
  4 26  1  0  0  0  0
  6  9  1  0  0  0  0
  6 12  1  0  0  0  0
  8 10  1  0  0  0  0
  8 11  2  0  0  0  0
  9 13  1  0  0  0  0
  9 14  1  0  0  0  0
  9 15  1  0  0  0  0
 10 16  1  0  0  0  0
 10 17  1  0  0  0  0
 10 18  1  0  0  0  0
 19 20  1  0  0  0  0
 20 21  4  0  0  0  0
 20 25  4  0  0  0  0
 21 22  4  0  0  0  0
 21 27  1  0  0  0  0
 22 23  4  0  0  0  0
 22 28  1  0  0  0  0
 23 24  4  0  0  0  0
 23 26  1  0  0  0  0
 24 25  4  0  0  0  0
 24 29  1  0  0  0  0
 25 30  1  0  0  0  0
 26 31  1  0  0  0  0
 26 32  1  0  0  0  0
M  END
> <BCLConfClusterSize>
1

> <ConfClashScore>
0 

> <ConfOneFourInteractionScore>
-0.934113 

> <ConfScore>
0.571086 

> <ConfScorePBest>
0.00247945 

> <ConfTolerance>
0.854991 

> <RosettaParamsInstructions>
M  ROOT 3
M  POLY_N_BB 3
M  POLY_CA_BB 4
M  POLY_C_BB 2
M  POLY_O_BB 5
M  POLY_IGNORE 9 10 11 12 13 14 15 16 17 18 
M  POLY_UPPER 6
M  POLY_LOWER 8
M  POLY_CHG 0
M  POLY_PROPERTIES ALPHA_AA D_AA PROTEIN AROMATIC POLYMER 
M  END

$$$$



 32 32  0  0  0  0  0  0  0  0999 V2000
   -0.1316    4.1331   -0.3891 H   0  0  0  1  0  0  0  0  0  0  0  0
   -2.0601    4.7122    0.1800 C   0  0  0  1  0  0  0  0  0  0  0  0
   -0.9888    4.9907   -2.0433 N   0  0  0  1  0  0  0  0  0  0  0  0
   -1.0965    4.1575   -0.8510 C   0  0  0  1  0  0  0  0  0  0  0  0
   -3.2318    4.3410    0.2331 O   0  0  0  1  0  0  0  0  0  0  0  0
   -1.5090    5.6219    0.9991 N   0  0  0  1  0  0  0  0  0  0  0  0
   -0.1334    4.9891   -2.5215 H   0  0  0  1  0  0  0  0  0  0  0  0
   -2.0056    5.7850   -2.5512 C   0  0  0  1  0  0  0  0  0  0  0  0
   -2.2713    6.2916    2.0423 C   0  0  0  1  0  0  0  0  0  0  0  0
   -1.7585    6.5739   -3.8063 C   0  0  0  1  0  0  0  0  0  0  0  0
   -3.0697    5.8169   -1.9604 O   0  0  0  1  0  0  0  0  0  0  0  0
   -0.5603    5.8427    0.8908 H   0  0  0  1  0  0  0  0  0  0  0  0
   -1.7124    6.2826    2.9547 H   0  0  0  1  0  0  0  0  0  0  0  0
   -3.2003    5.7812    2.1884 H   0  0  0  1  0  0  0  0  0  0  0  0
   -2.4616    7.3034    1.7509 H   0  0  0  1  0  0  0  0  0  0  0  0
   -2.6920    6.9127   -4.2048 H   0  0  0  1  0  0  0  0  0  0  0  0
   -1.2678    5.9532   -4.5266 H   0  0  0  1  0  0  0  0  0  0  0  0
   -1.1399    7.4174   -3.5811 H   0  0  0  1  0  0  0  0  0  0  0  0
   -6.5450    2.1585   -3.4937 F   0  0  0  1  0  0  0  0  0  0  0  0
   -5.3149    2.2962   -2.9627 C   0  0  0  1  0  0  0  0  0  0  0  0
   -4.2965    2.8647   -3.7117 C   0  0  0  1  0  0  0  0  0  0  0  0
   -3.0329    3.0011   -3.1686 C   0  0  0  1  0  0  0  0  0  0  0  0
   -2.7853    2.5743   -1.8732 C   0  0  0  1  0  0  0  0  0  0  0  0
   -3.8009    2.0075   -1.1265 C   0  0  0  1  0  0  0  0  0  0  0  0
   -5.0683    1.8706   -1.6711 C   0  0  0  1  0  0  0  0  0  0  0  0
   -1.4060    2.7284   -1.2772 C   0  0  0  1  0  0  0  0  0  0  0  0
   -4.4831    3.1886   -4.6822 H   0  0  0  1  0  0  0  0  0  0  0  0
   -2.2677    3.4239   -3.7319 H   0  0  0  1  0  0  0  0  0  0  0  0
   -3.6142    1.6836   -0.1560 H   0  0  0  1  0  0  0  0  0  0  0  0
   -5.8335    1.4478   -1.1078 H   0  0  0  1  0  0  0  0  0  0  0  0
   -1.3330    2.0937   -0.4189 H   0  0  0  1  0  0  0  0  0  0  0  0
   -0.6840    2.4267   -2.0069 H   0  0  0  1  0  0  0  0  0  0  0  0
  1  4  1  0  0  0  0
  2  4  1  0  0  0  0
  2  5  2  0  0  0  0
  2  6  1  0  0  0  0
  3  4  1  0  0  0  0
  3  7  1  0  0  0  0
  3  8  1  0  0  0  0
  4 26  1  0  0  0  0
  6  9  1  0  0  0  0
  6 12  1  0  0  0  0
  8 10  1  0  0  0  0
  8 11  2  0  0  0  0
  9 13  1  0  0  0  0
  9 14  1  0  0  0  0
  9 15  1  0  0  0  0
 10 16  1  0  0  0  0
 10 17  1  0  0  0  0
 10 18  1  0  0  0  0
 19 20  1  0  0  0  0
 20 21  4  0  0  0  0
 20 25  4  0  0  0  0
 21 22  4  0  0  0  0
 21 27  1  0  0  0  0
 22 23  4  0  0  0  0
 22 28  1  0  0  0  0
 23 24  4  0  0  0  0
 23 26  1  0  0  0  0
 24 25  4  0  0  0  0
 24 29  1  0  0  0  0
 25 30  1  0  0  0  0
 26 31  1  0  0  0  0
 26 32  1  0  0  0  0
M  END
> <BCLConfClusterSize>
1

> <ConfClashScore>
0 

> <ConfOneFourInteractionScore>
-0.966825 

> <ConfScore>
0.588085 

> <ConfScorePBest>
0.00245097 

> <ConfTolerance>
0.690226 

> <RosettaParamsInstructions>
M  ROOT 3
M  POLY_N_BB 3
M  POLY_CA_BB 4
M  POLY_C_BB 2
M  POLY_O_BB 5
M  POLY_IGNORE 9 10 11 12 13 14 15 16 17 18 
M  POLY_UPPER 6
M  POLY_LOWER 8
M  POLY_CHG 0
M  POLY_PROPERTIES ALPHA_AA D_AA PROTEIN AROMATIC POLYMER 
M  END

$$$$



 32 32  0  0  0  0  0  0  0  0999 V2000
   -0.4187    3.6203    0.3638 H   0  0  0  1  0  0  0  0  0  0  0  0
   -2.4520    3.4938    0.8829 C   0  0  0  1  0  0  0  0  0  0  0  0
   -1.4070    5.1020   -0.6672 N   0  0  0  1  0  0  0  0  0  0  0  0
   -1.3563    3.7482   -0.1356 C   0  0  0  1  0  0  0  0  0  0  0  0
   -2.3455    2.6135    1.7209 O   0  0  0  1  0  0  0  0  0  0  0  0
   -3.5261    4.2931    0.7955 N   0  0  0  1  0  0  0  0  0  0  0  0
   -2.1999    5.3833   -1.1699 H   0  0  0  1  0  0  0  0  0  0  0  0
   -0.4104    5.9747   -0.4936 C   0  0  0  1  0  0  0  0  0  0  0  0
   -4.7233    4.1725    1.6141 C   0  0  0  1  0  0  0  0  0  0  0  0
   -0.6058    7.3341   -1.1362 C   0  0  0  1  0  0  0  0  0  0  0  0
    0.5997    5.7124    0.1382 O   0  0  0  1  0  0  0  0  0  0  0  0
   -3.5027    5.0123    0.1302 H   0  0  0  1  0  0  0  0  0  0  0  0
   -5.5523    3.8972    0.9962 H   0  0  0  1  0  0  0  0  0  0  0  0
   -4.9274    5.1102    2.0874 H   0  0  0  1  0  0  0  0  0  0  0  0
   -4.5703    3.4214    2.3607 H   0  0  0  1  0  0  0  0  0  0  0  0
   -0.5697    7.2344   -2.2010 H   0  0  0  1  0  0  0  0  0  0  0  0
    0.1707    7.9958   -0.8137 H   0  0  0  1  0  0  0  0  0  0  0  0
   -1.5565    7.7315   -0.8475 H   0  0  0  1  0  0  0  0  0  0  0  0
   -6.5450    2.1585   -3.4937 F   0  0  0  1  0  0  0  0  0  0  0  0
   -5.3149    2.2962   -2.9627 C   0  0  0  1  0  0  0  0  0  0  0  0
   -4.2965    2.8647   -3.7117 C   0  0  0  1  0  0  0  0  0  0  0  0
   -3.0329    3.0011   -3.1686 C   0  0  0  1  0  0  0  0  0  0  0  0
   -2.7853    2.5743   -1.8732 C   0  0  0  1  0  0  0  0  0  0  0  0
   -3.8009    2.0075   -1.1265 C   0  0  0  1  0  0  0  0  0  0  0  0
   -5.0683    1.8706   -1.6711 C   0  0  0  1  0  0  0  0  0  0  0  0
   -1.4060    2.7284   -1.2772 C   0  0  0  1  0  0  0  0  0  0  0  0
   -4.4831    3.1886   -4.6822 H   0  0  0  1  0  0  0  0  0  0  0  0
   -2.2677    3.4239   -3.7319 H   0  0  0  1  0  0  0  0  0  0  0  0
   -3.6142    1.6836   -0.1560 H   0  0  0  1  0  0  0  0  0  0  0  0
   -5.8335    1.4478   -1.1078 H   0  0  0  1  0  0  0  0  0  0  0  0
   -1.0902    1.7785   -0.8992 H   0  0  0  1  0  0  0  0  0  0  0  0
   -0.7356    3.0470   -2.0479 H   0  0  0  1  0  0  0  0  0  0  0  0
  1  4  1  0  0  0  0
  2  4  1  0  0  0  0
  2  5  2  0  0  0  0
  2  6  1  0  0  0  0
  3  4  1  0  0  0  0
  3  7  1  0  0  0  0
  3  8  1  0  0  0  0
  4 26  1  0  0  0  0
  6  9  1  0  0  0  0
  6 12  1  0  0  0  0
  8 10  1  0  0  0  0
  8 11  2  0  0  0  0
  9 13  1  0  0  0  0
  9 14  1  0  0  0  0
  9 15  1  0  0  0  0
 10 16  1  0  0  0  0
 10 17  1  0  0  0  0
 10 18  1  0  0  0  0
 19 20  1  0  0  0  0
 20 21  4  0  0  0  0
 20 25  4  0  0  0  0
 21 22  4  0  0  0  0
 21 27  1  0  0  0  0
 22 23  4  0  0  0  0
 22 28  1  0  0  0  0
 23 24  4  0  0  0  0
 23 26  1  0  0  0  0
 24 25  4  0  0  0  0
 24 29  1  0  0  0  0
 25 30  1  0  0  0  0
 26 31  1  0  0  0  0
 26 32  1  0  0  0  0
M  END
> <BCLConfClusterSize>
1

> <ConfClashScore>
0 

> <ConfOneFourInteractionScore>
-0.957074 

> <ConfScore>
0.593962 

> <ConfScorePBest>
0.00242249 

> <ConfTolerance>
0.894091 

> <RosettaParamsInstructions>
M  ROOT 3
M  POLY_N_BB 3
M  POLY_CA_BB 4
M  POLY_C_BB 2
M  POLY_O_BB 5
M  POLY_IGNORE 9 10 11 12 13 14 15 16 17 18 
M  POLY_UPPER 6
M  POLY_LOWER 8
M  POLY_CHG 0
M  POLY_PROPERTIES ALPHA_AA D_AA PROTEIN AROMATIC POLYMER 
M  END

$$$$



 32 32  0  0  0  0  0  0  0  0999 V2000
   -0.3397    4.3103   -0.4118 H   0  0  0  1  0  0  0  0  0  0  0  0
   -1.9917    5.2206   -1.3266 C   0  0  0  1  0  0  0  0  0  0  0  0
    0.0310    4.3531   -2.4404 N   0  0  0  1  0  0  0  0  0  0  0  0
   -0.8992    4.1610   -1.3115 C   0  0  0  1  0  0  0  0  0  0  0  0
   -2.6853    5.4078   -2.3243 O   0  0  0  1  0  0  0  0  0  0  0  0
   -2.1391    5.9225   -0.1915 N   0  0  0  1  0  0  0  0  0  0  0  0
   -0.2821    4.1615   -3.3490 H   0  0  0  1  0  0  0  0  0  0  0  0
    1.2976    4.7834   -2.2652 C   0  0  0  1  0  0  0  0  0  0  0  0
   -3.2991    6.7823   -0.0095 C   0  0  0  1  0  0  0  0  0  0  0  0
    2.1856    4.9024   -3.4886 C   0  0  0  1  0  0  0  0  0  0  0  0
    1.7214    5.0710   -1.1489 O   0  0  0  1  0  0  0  0  0  0  0  0
   -1.4642    5.8557    0.5159 H   0  0  0  1  0  0  0  0  0  0  0  0
   -3.6941    6.6453    0.9754 H   0  0  0  1  0  0  0  0  0  0  0  0
   -4.0469    6.5295   -0.7318 H   0  0  0  1  0  0  0  0  0  0  0  0
   -3.0091    7.8041   -0.1383 H   0  0  0  1  0  0  0  0  0  0  0  0
    2.0682    4.0330   -4.1011 H   0  0  0  1  0  0  0  0  0  0  0  0
    3.2070    4.9862   -3.1808 H   0  0  0  1  0  0  0  0  0  0  0  0
    1.9083    5.7720   -4.0470 H   0  0  0  1  0  0  0  0  0  0  0  0
   -6.5450    2.1585   -3.4937 F   0  0  0  1  0  0  0  0  0  0  0  0
   -5.3149    2.2962   -2.9627 C   0  0  0  1  0  0  0  0  0  0  0  0
   -4.2965    2.8647   -3.7117 C   0  0  0  1  0  0  0  0  0  0  0  0
   -3.0329    3.0011   -3.1686 C   0  0  0  1  0  0  0  0  0  0  0  0
   -2.7853    2.5743   -1.8732 C   0  0  0  1  0  0  0  0  0  0  0  0
   -3.8009    2.0075   -1.1265 C   0  0  0  1  0  0  0  0  0  0  0  0
   -5.0683    1.8706   -1.6711 C   0  0  0  1  0  0  0  0  0  0  0  0
   -1.4060    2.7284   -1.2772 C   0  0  0  1  0  0  0  0  0  0  0  0
   -4.4831    3.1886   -4.6822 H   0  0  0  1  0  0  0  0  0  0  0  0
   -2.2677    3.4239   -3.7319 H   0  0  0  1  0  0  0  0  0  0  0  0
   -3.6142    1.6836   -0.1560 H   0  0  0  1  0  0  0  0  0  0  0  0
   -5.8335    1.4478   -1.1078 H   0  0  0  1  0  0  0  0  0  0  0  0
   -1.4368    2.4024   -0.2585 H   0  0  0  1  0  0  0  0  0  0  0  0
   -0.7260    2.1133   -1.8286 H   0  0  0  1  0  0  0  0  0  0  0  0
  1  4  1  0  0  0  0
  2  4  1  0  0  0  0
  2  5  2  0  0  0  0
  2  6  1  0  0  0  0
  3  4  1  0  0  0  0
  3  7  1  0  0  0  0
  3  8  1  0  0  0  0
  4 26  1  0  0  0  0
  6  9  1  0  0  0  0
  6 12  1  0  0  0  0
  8 10  1  0  0  0  0
  8 11  2  0  0  0  0
  9 13  1  0  0  0  0
  9 14  1  0  0  0  0
  9 15  1  0  0  0  0
 10 16  1  0  0  0  0
 10 17  1  0  0  0  0
 10 18  1  0  0  0  0
 19 20  1  0  0  0  0
 20 21  4  0  0  0  0
 20 25  4  0  0  0  0
 21 22  4  0  0  0  0
 21 27  1  0  0  0  0
 22 23  4  0  0  0  0
 22 28  1  0  0  0  0
 23 24  4  0  0  0  0
 23 26  1  0  0  0  0
 24 25  4  0  0  0  0
 24 29  1  0  0  0  0
 25 30  1  0  0  0  0
 26 31  1  0  0  0  0
 26 32  1  0  0  0  0
M  END
> <BCLConfClusterSize>
1

> <ConfClashScore>
0 

> <ConfOneFourInteractionScore>
-0.967834 

> <ConfScore>
0.602492 

> <ConfScorePBest>
0.00239401 

> <ConfTolerance>
1.07859 

> <RosettaParamsInstructions>
M  ROOT 3
M  POLY_N_BB 3
M  POLY_CA_BB 4
M  POLY_C_BB 2
M  POLY_O_BB 5
M  POLY_IGNORE 9 10 11 12 13 14 15 16 17 18 
M  POLY_UPPER 6
M  POLY_LOWER 8
M  POLY_CHG 0
M  POLY_PROPERTIES ALPHA_AA D_AA PROTEIN AROMATIC POLYMER 
M  END

$$$$



 32 32  0  0  0  0  0  0  0  0999 V2000
    0.0878    3.9894   -0.6084 H   0  0  0  1  0  0  0  0  0  0  0  0
   -1.7097    4.7044    0.1815 C   0  0  0  1  0  0  0  0  0  0  0  0
   -0.8959    4.9170   -2.1592 N   0  0  0  1  0  0  0  0  0  0  0  0
   -0.9215    4.0854   -0.9505 C   0  0  0  1  0  0  0  0  0  0  0  0
   -1.3952    4.5025    1.3537 O   0  0  0  1  0  0  0  0  0  0  0  0
   -2.7605    5.4792   -0.1309 N   0  0  0  1  0  0  0  0  0  0  0  0
   -1.6362    5.5383   -2.3216 H   0  0  0  1  0  0  0  0  0  0  0  0
    0.1014    4.8566   -3.0461 C   0  0  0  1  0  0  0  0  0  0  0  0
   -3.5076    6.1554    0.9190 C   0  0  0  1  0  0  0  0  0  0  0  0
    1.1623    3.7719   -2.8205 C   0  0  0  1  0  0  0  0  0  0  0  0
    0.1539    5.5605   -4.0412 O   0  0  0  1  0  0  0  0  0  0  0  0
   -3.0251    5.5897   -1.0681 H   0  0  0  1  0  0  0  0  0  0  0  0
   -3.4340    5.5949    1.8275 H   0  0  0  1  0  0  0  0  0  0  0  0
   -4.5351    6.2343    0.6311 H   0  0  0  1  0  0  0  0  0  0  0  0
   -3.1030    7.1343    1.0705 H   0  0  0  1  0  0  0  0  0  0  0  0
    2.1052    4.2325   -2.6113 H   0  0  0  1  0  0  0  0  0  0  0  0
    1.2478    3.1685   -3.7000 H   0  0  0  1  0  0  0  0  0  0  0  0
    0.8741    3.1581   -1.9928 H   0  0  0  1  0  0  0  0  0  0  0  0
   -6.5386    2.1416   -3.5033 F   0  0  0  1  0  0  0  0  0  0  0  0
   -5.3132    2.2905   -2.9646 C   0  0  0  1  0  0  0  0  0  0  0  0
   -4.2943    2.8651   -3.7085 C   0  0  0  1  0  0  0  0  0  0  0  0
   -3.0355    3.0130   -3.1575 C   0  0  0  1  0  0  0  0  0  0  0  0
   -2.7930    2.5917   -1.8593 C   0  0  0  1  0  0  0  0  0  0  0  0
   -3.8090    2.0188   -1.1177 C   0  0  0  1  0  0  0  0  0  0  0  0
   -5.0717    1.8704   -1.6702 C   0  0  0  1  0  0  0  0  0  0  0  0
   -1.3824    2.6870   -1.3277 C   0  0  0  1  0  0  0  0  0  0  0  0
   -4.4772    3.1848   -4.6811 H   0  0  0  1  0  0  0  0  0  0  0  0
   -2.2700    3.4404   -3.7169 H   0  0  0  1  0  0  0  0  0  0  0  0
   -3.6261    1.6990   -0.1452 H   0  0  0  1  0  0  0  0  0  0  0  0
   -5.8372    1.4430   -1.1108 H   0  0  0  1  0  0  0  0  0  0  0  0
   -1.3161    2.0711   -0.4553 H   0  0  0  1  0  0  0  0  0  0  0  0
   -0.7201    2.3129   -2.0803 H   0  0  0  1  0  0  0  0  0  0  0  0
  1  4  1  0  0  0  0
  2  4  1  0  0  0  0
  2  5  2  0  0  0  0
  2  6  1  0  0  0  0
  3  4  1  0  0  0  0
  3  7  1  0  0  0  0
  3  8  1  0  0  0  0
  4 26  1  0  0  0  0
  6  9  1  0  0  0  0
  6 12  1  0  0  0  0
  8 10  1  0  0  0  0
  8 11  2  0  0  0  0
  9 13  1  0  0  0  0
  9 14  1  0  0  0  0
  9 15  1  0  0  0  0
 10 16  1  0  0  0  0
 10 17  1  0  0  0  0
 10 18  1  0  0  0  0
 19 20  1  0  0  0  0
 20 21  4  0  0  0  0
 20 25  4  0  0  0  0
 21 22  4  0  0  0  0
 21 27  1  0  0  0  0
 22 23  4  0  0  0  0
 22 28  1  0  0  0  0
 23 24  4  0  0  0  0
 23 26  1  0  0  0  0
 24 25  4  0  0  0  0
 24 29  1  0  0  0  0
 25 30  1  0  0  0  0
 26 31  1  0  0  0  0
 26 32  1  0  0  0  0
M  END
> <BCLConfClusterSize>
1

> <ConfClashScore>
0 

> <ConfOneFourInteractionScore>
-0.9553 

> <ConfScore>
0.605422 

> <ConfScorePBest>
0.00236553 

> <ConfTolerance>
1.09007 

> <RosettaParamsInstructions>
M  ROOT 3
M  POLY_N_BB 3
M  POLY_CA_BB 4
M  POLY_C_BB 2
M  POLY_O_BB 5
M  POLY_IGNORE 9 10 11 12 13 14 15 16 17 18 
M  POLY_UPPER 6
M  POLY_LOWER 8
M  POLY_CHG 0
M  POLY_PROPERTIES ALPHA_AA D_AA PROTEIN AROMATIC POLYMER 
M  END

$$$$



 32 32  0  0  0  0  0  0  0  0999 V2000
   -1.8594    0.9452   -0.2463 H   0  0  0  1  0  0  0  0  0  0  0  0
   -1.1659    2.3076    1.2077 C   0  0  0  1  0  0  0  0  0  0  0  0
    0.1876    1.0993   -0.4697 N   0  0  0  1  0  0  0  0  0  0  0  0
   -1.1089    1.7056   -0.1884 C   0  0  0  1  0  0  0  0  0  0  0  0
   -0.1765    2.8428    1.7047 O   0  0  0  1  0  0  0  0  0  0  0  0
   -2.3210    2.2370    1.8754 N   0  0  0  1  0  0  0  0  0  0  0  0
    0.7801    1.5304   -1.1204 H   0  0  0  1  0  0  0  0  0  0  0  0
    0.5953   -0.0234    0.1290 C   0  0  0  1  0  0  0  0  0  0  0  0
   -2.4877    2.8095    3.2016 C   0  0  0  1  0  0  0  0  0  0  0  0
    2.0020   -0.4769   -0.2097 C   0  0  0  1  0  0  0  0  0  0  0  0
   -0.1112   -0.6618    0.9080 O   0  0  0  1  0  0  0  0  0  0  0  0
   -3.0823    1.7836    1.4568 H   0  0  0  1  0  0  0  0  0  0  0  0
   -1.7971    3.6163    3.3318 H   0  0  0  1  0  0  0  0  0  0  0  0
   -2.3014    2.0581    3.9402 H   0  0  0  1  0  0  0  0  0  0  0  0
   -3.4875    3.1754    3.3087 H   0  0  0  1  0  0  0  0  0  0  0  0
    2.2864   -1.2761    0.4425 H   0  0  0  1  0  0  0  0  0  0  0  0
    2.6798    0.3418   -0.0866 H   0  0  0  1  0  0  0  0  0  0  0  0
    2.0326   -0.8165   -1.2239 H   0  0  0  1  0  0  0  0  0  0  0  0
   -6.5450    2.1585   -3.4937 F   0  0  0  1  0  0  0  0  0  0  0  0
   -5.3149    2.2962   -2.9627 C   0  0  0  1  0  0  0  0  0  0  0  0
   -4.2965    2.8647   -3.7117 C   0  0  0  1  0  0  0  0  0  0  0  0
   -3.0329    3.0011   -3.1686 C   0  0  0  1  0  0  0  0  0  0  0  0
   -2.7853    2.5743   -1.8732 C   0  0  0  1  0  0  0  0  0  0  0  0
   -3.8009    2.0075   -1.1265 C   0  0  0  1  0  0  0  0  0  0  0  0
   -5.0683    1.8706   -1.6711 C   0  0  0  1  0  0  0  0  0  0  0  0
   -1.4060    2.7284   -1.2772 C   0  0  0  1  0  0  0  0  0  0  0  0
   -4.4831    3.1886   -4.6822 H   0  0  0  1  0  0  0  0  0  0  0  0
   -2.2677    3.4239   -3.7319 H   0  0  0  1  0  0  0  0  0  0  0  0
   -3.6142    1.6836   -0.1560 H   0  0  0  1  0  0  0  0  0  0  0  0
   -5.8335    1.4478   -1.1078 H   0  0  0  1  0  0  0  0  0  0  0  0
   -0.6830    2.6147   -2.0577 H   0  0  0  1  0  0  0  0  0  0  0  0
   -1.3249    3.7083   -0.8552 H   0  0  0  1  0  0  0  0  0  0  0  0
  1  4  1  0  0  0  0
  2  4  1  0  0  0  0
  2  5  2  0  0  0  0
  2  6  1  0  0  0  0
  3  4  1  0  0  0  0
  3  7  1  0  0  0  0
  3  8  1  0  0  0  0
  4 26  1  0  0  0  0
  6  9  1  0  0  0  0
  6 12  1  0  0  0  0
  8 10  1  0  0  0  0
  8 11  2  0  0  0  0
  9 13  1  0  0  0  0
  9 14  1  0  0  0  0
  9 15  1  0  0  0  0
 10 16  1  0  0  0  0
 10 17  1  0  0  0  0
 10 18  1  0  0  0  0
 19 20  1  0  0  0  0
 20 21  4  0  0  0  0
 20 25  4  0  0  0  0
 21 22  4  0  0  0  0
 21 27  1  0  0  0  0
 22 23  4  0  0  0  0
 22 28  1  0  0  0  0
 23 24  4  0  0  0  0
 23 26  1  0  0  0  0
 24 25  4  0  0  0  0
 24 29  1  0  0  0  0
 25 30  1  0  0  0  0
 26 31  1  0  0  0  0
 26 32  1  0  0  0  0
M  END
> <BCLConfClusterSize>
1

> <ConfClashScore>
0 

> <ConfOneFourInteractionScore>
-0.966881 

> <ConfScore>
0.608938 

> <ConfScorePBest>
0.00233705 

> <ConfTolerance>
1.50303 

> <RosettaParamsInstructions>
M  ROOT 3
M  POLY_N_BB 3
M  POLY_CA_BB 4
M  POLY_C_BB 2
M  POLY_O_BB 5
M  POLY_IGNORE 9 10 11 12 13 14 15 16 17 18 
M  POLY_UPPER 6
M  POLY_LOWER 8
M  POLY_CHG 0
M  POLY_PROPERTIES ALPHA_AA D_AA PROTEIN AROMATIC POLYMER 
M  END

$$$$



 32 32  0  0  0  0  0  0  0  0999 V2000
   -0.5348    4.1972   -0.0487 H   0  0  0  1  0  0  0  0  0  0  0  0
   -0.7088    2.3705    1.0065 C   0  0  0  1  0  0  0  0  0  0  0  0
   -2.5329    3.9588    0.4382 N   0  0  0  1  0  0  0  0  0  0  0  0
   -1.2500    3.4057    0.0348 C   0  0  0  1  0  0  0  0  0  0  0  0
   -1.4590    1.6015    1.6017 O   0  0  0  1  0  0  0  0  0  0  0  0
    0.6180    2.3588    1.1627 N   0  0  0  1  0  0  0  0  0  0  0  0
   -3.2645    4.0206   -0.2108 H   0  0  0  1  0  0  0  0  0  0  0  0
   -2.7159    4.3822    1.6899 C   0  0  0  1  0  0  0  0  0  0  0  0
    1.2839    1.4544    2.0883 C   0  0  0  1  0  0  0  0  0  0  0  0
   -4.1053    4.8951    2.0152 C   0  0  0  1  0  0  0  0  0  0  0  0
   -1.8279    4.3653    2.5381 O   0  0  0  1  0  0  0  0  0  0  0  0
    1.1618    2.9807    0.6356 H   0  0  0  1  0  0  0  0  0  0  0  0
    2.1762    1.9149    2.4578 H   0  0  0  1  0  0  0  0  0  0  0  0
    1.5351    0.5465    1.5809 H   0  0  0  1  0  0  0  0  0  0  0  0
    0.6298    1.2370    2.9067 H   0  0  0  1  0  0  0  0  0  0  0  0
   -4.5654    5.2694    1.1247 H   0  0  0  1  0  0  0  0  0  0  0  0
   -4.0348    5.6813    2.7376 H   0  0  0  1  0  0  0  0  0  0  0  0
   -4.6959    4.0964    2.4129 H   0  0  0  1  0  0  0  0  0  0  0  0
   -6.5317    2.1748   -3.5266 F   0  0  0  1  0  0  0  0  0  0  0  0
   -5.3173    2.2931   -2.9564 C   0  0  0  1  0  0  0  0  0  0  0  0
   -4.2981    2.8615   -3.7045 C   0  0  0  1  0  0  0  0  0  0  0  0
   -3.0349    2.9974   -3.1604 C   0  0  0  1  0  0  0  0  0  0  0  0
   -2.7884    2.5703   -1.8649 C   0  0  0  1  0  0  0  0  0  0  0  0
   -3.8047    2.0036   -1.1191 C   0  0  0  1  0  0  0  0  0  0  0  0
   -5.0718    1.8672   -1.6646 C   0  0  0  1  0  0  0  0  0  0  0  0
   -1.3919    2.7478   -1.3175 C   0  0  0  1  0  0  0  0  0  0  0  0
   -4.4839    3.1856   -4.6751 H   0  0  0  1  0  0  0  0  0  0  0  0
   -2.2692    3.4201   -3.7231 H   0  0  0  1  0  0  0  0  0  0  0  0
   -3.6189    1.6794   -0.1485 H   0  0  0  1  0  0  0  0  0  0  0  0
   -5.8375    1.4445   -1.1020 H   0  0  0  1  0  0  0  0  0  0  0  0
   -0.9490    1.7761   -1.2489 H   0  0  0  1  0  0  0  0  0  0  0  0
   -0.8453    3.3406   -2.0209 H   0  0  0  1  0  0  0  0  0  0  0  0
  1  4  1  0  0  0  0
  2  4  1  0  0  0  0
  2  5  2  0  0  0  0
  2  6  1  0  0  0  0
  3  4  1  0  0  0  0
  3  7  1  0  0  0  0
  3  8  1  0  0  0  0
  4 26  1  0  0  0  0
  6  9  1  0  0  0  0
  6 12  1  0  0  0  0
  8 10  1  0  0  0  0
  8 11  2  0  0  0  0
  9 13  1  0  0  0  0
  9 14  1  0  0  0  0
  9 15  1  0  0  0  0
 10 16  1  0  0  0  0
 10 17  1  0  0  0  0
 10 18  1  0  0  0  0
 19 20  1  0  0  0  0
 20 21  4  0  0  0  0
 20 25  4  0  0  0  0
 21 22  4  0  0  0  0
 21 27  1  0  0  0  0
 22 23  4  0  0  0  0
 22 28  1  0  0  0  0
 23 24  4  0  0  0  0
 23 26  1  0  0  0  0
 24 25  4  0  0  0  0
 24 29  1  0  0  0  0
 25 30  1  0  0  0  0
 26 31  1  0  0  0  0
 26 32  1  0  0  0  0
M  END
> <BCLConfClusterSize>
1

> <ConfClashScore>
0.000598682 

> <ConfOneFourInteractionScore>
-0.962556 

> <ConfScore>
0.610915 

> <ConfScorePBest>
0.00230857 

> <ConfTolerance>
0.992122 

> <RosettaParamsInstructions>
M  ROOT 3
M  POLY_N_BB 3
M  POLY_CA_BB 4
M  POLY_C_BB 2
M  POLY_O_BB 5
M  POLY_IGNORE 9 10 11 12 13 14 15 16 17 18 
M  POLY_UPPER 6
M  POLY_LOWER 8
M  POLY_CHG 0
M  POLY_PROPERTIES ALPHA_AA D_AA PROTEIN AROMATIC POLYMER 
M  END

$$$$



 32 32  0  0  0  0  0  0  0  0999 V2000
    0.0978    1.4194   -0.6694 H   0  0  0  1  0  0  0  0  0  0  0  0
    0.6146    1.9279   -2.6224 C   0  0  0  1  0  0  0  0  0  0  0  0
   -1.1137    0.3345   -1.9227 N   0  0  0  1  0  0  0  0  0  0  0  0
   -0.4356    1.5983   -1.5795 C   0  0  0  1  0  0  0  0  0  0  0  0
    1.6699    1.3178   -2.6730 O   0  0  0  1  0  0  0  0  0  0  0  0
    0.3048    2.9167   -3.4658 N   0  0  0  1  0  0  0  0  0  0  0  0
   -1.9982    0.3713   -2.3430 H   0  0  0  1  0  0  0  0  0  0  0  0
   -0.5640   -0.8589   -1.6806 C   0  0  0  1  0  0  0  0  0  0  0  0
    1.2584    3.4423   -4.4313 C   0  0  0  1  0  0  0  0  0  0  0  0
   -1.2454   -2.0744   -2.3163 C   0  0  0  1  0  0  0  0  0  0  0  0
    0.4826   -1.0030   -1.0502 O   0  0  0  1  0  0  0  0  0  0  0  0
   -0.5959    3.3014   -3.4331 H   0  0  0  1  0  0  0  0  0  0  0  0
    1.8157    4.2394   -3.9853 H   0  0  0  1  0  0  0  0  0  0  0  0
    0.7326    3.8106   -5.2874 H   0  0  0  1  0  0  0  0  0  0  0  0
    1.9280    2.6635   -4.7312 H   0  0  0  1  0  0  0  0  0  0  0  0
   -2.1065   -1.7547   -2.8652 H   0  0  0  1  0  0  0  0  0  0  0  0
   -1.5452   -2.7569   -1.5487 H   0  0  0  1  0  0  0  0  0  0  0  0
   -0.5606   -2.5608   -2.9792 H   0  0  0  1  0  0  0  0  0  0  0  0
   -6.5450    2.1585   -3.4937 F   0  0  0  1  0  0  0  0  0  0  0  0
   -5.3149    2.2962   -2.9627 C   0  0  0  1  0  0  0  0  0  0  0  0
   -4.2965    2.8647   -3.7117 C   0  0  0  1  0  0  0  0  0  0  0  0
   -3.0329    3.0011   -3.1686 C   0  0  0  1  0  0  0  0  0  0  0  0
   -2.7853    2.5743   -1.8732 C   0  0  0  1  0  0  0  0  0  0  0  0
   -3.8009    2.0075   -1.1265 C   0  0  0  1  0  0  0  0  0  0  0  0
   -5.0683    1.8706   -1.6711 C   0  0  0  1  0  0  0  0  0  0  0  0
   -1.4060    2.7284   -1.2772 C   0  0  0  1  0  0  0  0  0  0  0  0
   -4.4831    3.1886   -4.6822 H   0  0  0  1  0  0  0  0  0  0  0  0
   -2.2677    3.4239   -3.7319 H   0  0  0  1  0  0  0  0  0  0  0  0
   -3.6142    1.6836   -0.1560 H   0  0  0  1  0  0  0  0  0  0  0  0
   -5.8335    1.4478   -1.1078 H   0  0  0  1  0  0  0  0  0  0  0  0
   -0.9831    3.6362   -1.6539 H   0  0  0  1  0  0  0  0  0  0  0  0
   -1.5114    2.7975   -0.2146 H   0  0  0  1  0  0  0  0  0  0  0  0
  1  4  1  0  0  0  0
  2  4  1  0  0  0  0
  2  5  2  0  0  0  0
  2  6  1  0  0  0  0
  3  4  1  0  0  0  0
  3  7  1  0  0  0  0
  3  8  1  0  0  0  0
  4 26  1  0  0  0  0
  6  9  1  0  0  0  0
  6 12  1  0  0  0  0
  8 10  1  0  0  0  0
  8 11  2  0  0  0  0
  9 13  1  0  0  0  0
  9 14  1  0  0  0  0
  9 15  1  0  0  0  0
 10 16  1  0  0  0  0
 10 17  1  0  0  0  0
 10 18  1  0  0  0  0
 19 20  1  0  0  0  0
 20 21  4  0  0  0  0
 20 25  4  0  0  0  0
 21 22  4  0  0  0  0
 21 27  1  0  0  0  0
 22 23  4  0  0  0  0
 22 28  1  0  0  0  0
 23 24  4  0  0  0  0
 23 26  1  0  0  0  0
 24 25  4  0  0  0  0
 24 29  1  0  0  0  0
 25 30  1  0  0  0  0
 26 31  1  0  0  0  0
 26 32  1  0  0  0  0
M  END
> <BCLConfClusterSize>
1

> <ConfClashScore>
0 

> <ConfOneFourInteractionScore>
-0.92929 

> <ConfScore>
0.630657 

> <ConfScorePBest>
0.00228009 

> <ConfTolerance>
0.880366 

> <RosettaParamsInstructions>
M  ROOT 3
M  POLY_N_BB 3
M  POLY_CA_BB 4
M  POLY_C_BB 2
M  POLY_O_BB 5
M  POLY_IGNORE 9 10 11 12 13 14 15 16 17 18 
M  POLY_UPPER 6
M  POLY_LOWER 8
M  POLY_CHG 0
M  POLY_PROPERTIES ALPHA_AA D_AA PROTEIN AROMATIC POLYMER 
M  END

$$$$



 32 32  0  0  0  0  0  0  0  0999 V2000
   -0.1424    4.1702   -0.3911 H   0  0  0  1  0  0  0  0  0  0  0  0
   -1.9917    4.3279    0.5956 C   0  0  0  1  0  0  0  0  0  0  0  0
   -1.4601    5.1847   -1.6215 N   0  0  0  1  0  0  0  0  0  0  0  0
   -1.1753    4.1074   -0.6631 C   0  0  0  1  0  0  0  0  0  0  0  0
   -2.9701    5.0737    0.5995 O   0  0  0  1  0  0  0  0  0  0  0  0
   -1.5759    3.6619    1.6845 N   0  0  0  1  0  0  0  0  0  0  0  0
   -2.0961    5.8924   -1.3869 H   0  0  0  1  0  0  0  0  0  0  0  0
   -0.8510    5.2012   -2.8169 C   0  0  0  1  0  0  0  0  0  0  0  0
   -0.3877    2.8227    1.7252 C   0  0  0  1  0  0  0  0  0  0  0  0
   -1.2562    6.3720   -3.6911 C   0  0  0  1  0  0  0  0  0  0  0  0
   -0.0379    4.3637   -3.1988 O   0  0  0  1  0  0  0  0  0  0  0  0
   -2.1063    3.7463    2.5042 H   0  0  0  1  0  0  0  0  0  0  0  0
   -0.2611    2.3366    0.7804 H   0  0  0  1  0  0  0  0  0  0  0  0
   -0.4980    2.0858    2.4931 H   0  0  0  1  0  0  0  0  0  0  0  0
    0.4697    3.4285    1.9320 H   0  0  0  1  0  0  0  0  0  0  0  0
   -2.3128    6.3449   -3.8574 H   0  0  0  1  0  0  0  0  0  0  0  0
   -0.7460    6.3094   -4.6296 H   0  0  0  1  0  0  0  0  0  0  0  0
   -0.9955    7.2880   -3.2033 H   0  0  0  1  0  0  0  0  0  0  0  0
   -6.5317    2.1748   -3.5266 F   0  0  0  1  0  0  0  0  0  0  0  0
   -5.3173    2.2931   -2.9564 C   0  0  0  1  0  0  0  0  0  0  0  0
   -4.2981    2.8615   -3.7045 C   0  0  0  1  0  0  0  0  0  0  0  0
   -3.0349    2.9974   -3.1604 C   0  0  0  1  0  0  0  0  0  0  0  0
   -2.7884    2.5703   -1.8649 C   0  0  0  1  0  0  0  0  0  0  0  0
   -3.8047    2.0036   -1.1191 C   0  0  0  1  0  0  0  0  0  0  0  0
   -5.0718    1.8672   -1.6646 C   0  0  0  1  0  0  0  0  0  0  0  0
   -1.3919    2.7478   -1.3175 C   0  0  0  1  0  0  0  0  0  0  0  0
   -4.4839    3.1856   -4.6751 H   0  0  0  1  0  0  0  0  0  0  0  0
   -2.2692    3.4201   -3.7231 H   0  0  0  1  0  0  0  0  0  0  0  0
   -3.6189    1.6794   -0.1485 H   0  0  0  1  0  0  0  0  0  0  0  0
   -5.8375    1.4445   -1.1020 H   0  0  0  1  0  0  0  0  0  0  0  0
   -1.2127    1.9861   -0.5877 H   0  0  0  1  0  0  0  0  0  0  0  0
   -0.6947    2.6423   -2.1223 H   0  0  0  1  0  0  0  0  0  0  0  0
  1  4  1  0  0  0  0
  2  4  1  0  0  0  0
  2  5  2  0  0  0  0
  2  6  1  0  0  0  0
  3  4  1  0  0  0  0
  3  7  1  0  0  0  0
  3  8  1  0  0  0  0
  4 26  1  0  0  0  0
  6  9  1  0  0  0  0
  6 12  1  0  0  0  0
  8 10  1  0  0  0  0
  8 11  2  0  0  0  0
  9 13  1  0  0  0  0
  9 14  1  0  0  0  0
  9 15  1  0  0  0  0
 10 16  1  0  0  0  0
 10 17  1  0  0  0  0
 10 18  1  0  0  0  0
 19 20  1  0  0  0  0
 20 21  4  0  0  0  0
 20 25  4  0  0  0  0
 21 22  4  0  0  0  0
 21 27  1  0  0  0  0
 22 23  4  0  0  0  0
 22 28  1  0  0  0  0
 23 24  4  0  0  0  0
 23 26  1  0  0  0  0
 24 25  4  0  0  0  0
 24 29  1  0  0  0  0
 25 30  1  0  0  0  0
 26 31  1  0  0  0  0
 26 32  1  0  0  0  0
M  END
> <BCLConfClusterSize>
1

> <ConfClashScore>
0 

> <ConfOneFourInteractionScore>
-0.980011 

> <ConfScore>
0.632864 

> <ConfScorePBest>
0.00225161 

> <ConfTolerance>
1.3922 

> <RosettaParamsInstructions>
M  ROOT 3
M  POLY_N_BB 3
M  POLY_CA_BB 4
M  POLY_C_BB 2
M  POLY_O_BB 5
M  POLY_IGNORE 9 10 11 12 13 14 15 16 17 18 
M  POLY_UPPER 6
M  POLY_LOWER 8
M  POLY_CHG 0
M  POLY_PROPERTIES ALPHA_AA D_AA PROTEIN AROMATIC POLYMER 
M  END

$$$$



 32 32  0  0  0  0  0  0  0  0999 V2000
   -1.6280    1.7993    0.6070 H   0  0  0  1  0  0  0  0  0  0  0  0
   -2.5161    3.6974    0.7648 C   0  0  0  1  0  0  0  0  0  0  0  0
   -0.1066    3.1775    0.7516 N   0  0  0  1  0  0  0  0  0  0  0  0
   -1.4169    2.7868    0.2532 C   0  0  0  1  0  0  0  0  0  0  0  0
   -3.0112    3.5343    1.8678 O   0  0  0  1  0  0  0  0  0  0  0  0
   -2.8970    4.6775   -0.0697 N   0  0  0  1  0  0  0  0  0  0  0  0
    0.3806    2.5598    1.3360 H   0  0  0  1  0  0  0  0  0  0  0  0
    0.4552    4.3490    0.4402 C   0  0  0  1  0  0  0  0  0  0  0  0
   -3.8935    5.6710    0.3015 C   0  0  0  1  0  0  0  0  0  0  0  0
    1.8526    4.5746    0.9839 C   0  0  0  1  0  0  0  0  0  0  0  0
   -0.1096    5.2023   -0.2428 O   0  0  0  1  0  0  0  0  0  0  0  0
   -2.4898    4.7257   -0.9598 H   0  0  0  1  0  0  0  0  0  0  0  0
   -4.5552    5.2571    1.0334 H   0  0  0  1  0  0  0  0  0  0  0  0
   -4.4534    5.9553   -0.5649 H   0  0  0  1  0  0  0  0  0  0  0  0
   -3.4047    6.5312    0.7089 H   0  0  0  1  0  0  0  0  0  0  0  0
    2.2615    5.4672    0.5586 H   0  0  0  1  0  0  0  0  0  0  0  0
    2.4733    3.7413    0.7284 H   0  0  0  1  0  0  0  0  0  0  0  0
    1.8091    4.6744    2.0483 H   0  0  0  1  0  0  0  0  0  0  0  0
   -6.5450    2.1585   -3.4937 F   0  0  0  1  0  0  0  0  0  0  0  0
   -5.3149    2.2962   -2.9627 C   0  0  0  1  0  0  0  0  0  0  0  0
   -4.2965    2.8647   -3.7117 C   0  0  0  1  0  0  0  0  0  0  0  0
   -3.0329    3.0011   -3.1686 C   0  0  0  1  0  0  0  0  0  0  0  0
   -2.7853    2.5743   -1.8732 C   0  0  0  1  0  0  0  0  0  0  0  0
   -3.8009    2.0075   -1.1265 C   0  0  0  1  0  0  0  0  0  0  0  0
   -5.0683    1.8706   -1.6711 C   0  0  0  1  0  0  0  0  0  0  0  0
   -1.4060    2.7284   -1.2772 C   0  0  0  1  0  0  0  0  0  0  0  0
   -4.4831    3.1886   -4.6822 H   0  0  0  1  0  0  0  0  0  0  0  0
   -2.2677    3.4239   -3.7319 H   0  0  0  1  0  0  0  0  0  0  0  0
   -3.6142    1.6836   -0.1560 H   0  0  0  1  0  0  0  0  0  0  0  0
   -5.8335    1.4478   -1.1078 H   0  0  0  1  0  0  0  0  0  0  0  0
   -0.8082    1.8950   -1.5819 H   0  0  0  1  0  0  0  0  0  0  0  0
   -0.9733    3.6334   -1.6494 H   0  0  0  1  0  0  0  0  0  0  0  0
  1  4  1  0  0  0  0
  2  4  1  0  0  0  0
  2  5  2  0  0  0  0
  2  6  1  0  0  0  0
  3  4  1  0  0  0  0
  3  7  1  0  0  0  0
  3  8  1  0  0  0  0
  4 26  1  0  0  0  0
  6  9  1  0  0  0  0
  6 12  1  0  0  0  0
  8 10  1  0  0  0  0
  8 11  2  0  0  0  0
  9 13  1  0  0  0  0
  9 14  1  0  0  0  0
  9 15  1  0  0  0  0
 10 16  1  0  0  0  0
 10 17  1  0  0  0  0
 10 18  1  0  0  0  0
 19 20  1  0  0  0  0
 20 21  4  0  0  0  0
 20 25  4  0  0  0  0
 21 22  4  0  0  0  0
 21 27  1  0  0  0  0
 22 23  4  0  0  0  0
 22 28  1  0  0  0  0
 23 24  4  0  0  0  0
 23 26  1  0  0  0  0
 24 25  4  0  0  0  0
 24 29  1  0  0  0  0
 25 30  1  0  0  0  0
 26 31  1  0  0  0  0
 26 32  1  0  0  0  0
M  END
> <BCLConfClusterSize>
1

> <ConfClashScore>
0 

> <ConfOneFourInteractionScore>
-0.915912 

> <ConfScore>
0.681067 

> <ConfScorePBest>
0.00222313 

> <ConfTolerance>
1.40022 

> <RosettaParamsInstructions>
M  ROOT 3
M  POLY_N_BB 3
M  POLY_CA_BB 4
M  POLY_C_BB 2
M  POLY_O_BB 5
M  POLY_IGNORE 9 10 11 12 13 14 15 16 17 18 
M  POLY_UPPER 6
M  POLY_LOWER 8
M  POLY_CHG 0
M  POLY_PROPERTIES ALPHA_AA D_AA PROTEIN AROMATIC POLYMER 
M  END

$$$$



 32 32  0  0  0  0  0  0  0  0999 V2000
    0.6067    2.3314   -1.7126 H   0  0  0  1  0  0  0  0  0  0  0  0
   -0.0514    3.6558   -3.1939 C   0  0  0  1  0  0  0  0  0  0  0  0
   -0.4991    1.2484   -3.0648 N   0  0  0  1  0  0  0  0  0  0  0  0
   -0.2900    2.4677   -2.2803 C   0  0  0  1  0  0  0  0  0  0  0  0
    0.7518    3.5957   -4.1211 O   0  0  0  1  0  0  0  0  0  0  0  0
   -0.7660    4.7510   -2.9203 N   0  0  0  1  0  0  0  0  0  0  0  0
   -0.4711    0.3925   -2.5882 H   0  0  0  1  0  0  0  0  0  0  0  0
   -0.7322    1.2141   -4.4229 C   0  0  0  1  0  0  0  0  0  0  0  0
   -0.4768    6.0403   -3.5302 C   0  0  0  1  0  0  0  0  0  0  0  0
   -0.7914   -0.1509   -5.0442 C   0  0  0  1  0  0  0  0  0  0  0  0
   -0.8757    2.2505   -5.0435 O   0  0  0  1  0  0  0  0  0  0  0  0
   -1.5108    4.6838   -2.2869 H   0  0  0  1  0  0  0  0  0  0  0  0
   -1.1998    6.7592   -3.2055 H   0  0  0  1  0  0  0  0  0  0  0  0
   -0.5191    5.9483   -4.5954 H   0  0  0  1  0  0  0  0  0  0  0  0
    0.5012    6.3615   -3.2380 H   0  0  0  1  0  0  0  0  0  0  0  0
    0.1444   -0.6495   -4.9009 H   0  0  0  1  0  0  0  0  0  0  0  0
   -0.9887   -0.0574   -6.0917 H   0  0  0  1  0  0  0  0  0  0  0  0
   -1.5722   -0.7189   -4.5830 H   0  0  0  1  0  0  0  0  0  0  0  0
   -6.5450    2.1585   -3.4937 F   0  0  0  1  0  0  0  0  0  0  0  0
   -5.3149    2.2962   -2.9627 C   0  0  0  1  0  0  0  0  0  0  0  0
   -4.2965    2.8647   -3.7117 C   0  0  0  1  0  0  0  0  0  0  0  0
   -3.0329    3.0011   -3.1686 C   0  0  0  1  0  0  0  0  0  0  0  0
   -2.7853    2.5743   -1.8732 C   0  0  0  1  0  0  0  0  0  0  0  0
   -3.8009    2.0075   -1.1265 C   0  0  0  1  0  0  0  0  0  0  0  0
   -5.0683    1.8706   -1.6711 C   0  0  0  1  0  0  0  0  0  0  0  0
   -1.4060    2.7284   -1.2772 C   0  0  0  1  0  0  0  0  0  0  0  0
   -4.4831    3.1886   -4.6822 H   0  0  0  1  0  0  0  0  0  0  0  0
   -2.2677    3.4239   -3.7319 H   0  0  0  1  0  0  0  0  0  0  0  0
   -3.6142    1.6836   -0.1560 H   0  0  0  1  0  0  0  0  0  0  0  0
   -5.8335    1.4478   -1.1078 H   0  0  0  1  0  0  0  0  0  0  0  0
   -1.3046    3.7272   -0.9069 H   0  0  0  1  0  0  0  0  0  0  0  0
   -1.3053    2.0356   -0.4680 H   0  0  0  1  0  0  0  0  0  0  0  0
  1  4  1  0  0  0  0
  2  4  1  0  0  0  0
  2  5  2  0  0  0  0
  2  6  1  0  0  0  0
  3  4  1  0  0  0  0
  3  7  1  0  0  0  0
  3  8  1  0  0  0  0
  4 26  1  0  0  0  0
  6  9  1  0  0  0  0
  6 12  1  0  0  0  0
  8 10  1  0  0  0  0
  8 11  2  0  0  0  0
  9 13  1  0  0  0  0
  9 14  1  0  0  0  0
  9 15  1  0  0  0  0
 10 16  1  0  0  0  0
 10 17  1  0  0  0  0
 10 18  1  0  0  0  0
 19 20  1  0  0  0  0
 20 21  4  0  0  0  0
 20 25  4  0  0  0  0
 21 22  4  0  0  0  0
 21 27  1  0  0  0  0
 22 23  4  0  0  0  0
 22 28  1  0  0  0  0
 23 24  4  0  0  0  0
 23 26  1  0  0  0  0
 24 25  4  0  0  0  0
 24 29  1  0  0  0  0
 25 30  1  0  0  0  0
 26 31  1  0  0  0  0
 26 32  1  0  0  0  0
M  END
> <BCLConfClusterSize>
1

> <ConfClashScore>
0.00562928 

> <ConfOneFourInteractionScore>
-0.910466 

> <ConfScore>
0.733675 

> <ConfScorePBest>
0.00219465 

> <ConfTolerance>
0.92192 

> <RosettaParamsInstructions>
M  ROOT 3
M  POLY_N_BB 3
M  POLY_CA_BB 4
M  POLY_C_BB 2
M  POLY_O_BB 5
M  POLY_IGNORE 9 10 11 12 13 14 15 16 17 18 
M  POLY_UPPER 6
M  POLY_LOWER 8
M  POLY_CHG 0
M  POLY_PROPERTIES ALPHA_AA D_AA PROTEIN AROMATIC POLYMER 
M  END

$$$$



 32 32  0  0  0  0  0  0  0  0999 V2000
   -0.0847    1.0739   -1.2733 H   0  0  0  1  0  0  0  0  0  0  0  0
    0.9114    2.6846   -2.1841 C   0  0  0  1  0  0  0  0  0  0  0  0
   -0.8733    1.2932   -3.1615 N   0  0  0  1  0  0  0  0  0  0  0  0
   -0.3450    1.8730   -1.9356 C   0  0  0  1  0  0  0  0  0  0  0  0
    1.7845    2.7863   -1.3263 O   0  0  0  1  0  0  0  0  0  0  0  0
    0.9973    3.2722   -3.3873 N   0  0  0  1  0  0  0  0  0  0  0  0
   -0.4812    1.5614   -4.0187 H   0  0  0  1  0  0  0  0  0  0  0  0
   -1.8825    0.4007   -3.1589 C   0  0  0  1  0  0  0  0  0  0  0  0
    2.1267    4.1350   -3.7001 C   0  0  0  1  0  0  0  0  0  0  0  0
   -2.2948   -0.0571   -4.5444 C   0  0  0  1  0  0  0  0  0  0  0  0
   -2.4393   -0.0237   -2.1472 O   0  0  0  1  0  0  0  0  0  0  0  0
    0.2980    3.1200   -4.0568 H   0  0  0  1  0  0  0  0  0  0  0  0
    2.1515    4.9544   -3.0125 H   0  0  0  1  0  0  0  0  0  0  0  0
    2.0237    4.5095   -4.6972 H   0  0  0  1  0  0  0  0  0  0  0  0
    3.0353    3.5756   -3.6208 H   0  0  0  1  0  0  0  0  0  0  0  0
   -1.8754   -1.0216   -4.7413 H   0  0  0  1  0  0  0  0  0  0  0  0
   -1.9379    0.6420   -5.2716 H   0  0  0  1  0  0  0  0  0  0  0  0
   -3.3619   -0.1147   -4.5979 H   0  0  0  1  0  0  0  0  0  0  0  0
   -6.5463    2.1567   -3.4899 F   0  0  0  1  0  0  0  0  0  0  0  0
   -5.3147    2.2963   -2.9629 C   0  0  0  1  0  0  0  0  0  0  0  0
   -4.2994    2.8654   -3.7156 C   0  0  0  1  0  0  0  0  0  0  0  0
   -3.0342    3.0038   -3.1767 C   0  0  0  1  0  0  0  0  0  0  0  0
   -2.7820    2.5785   -1.8817 C   0  0  0  1  0  0  0  0  0  0  0  0
   -3.7945    2.0111   -1.1313 C   0  0  0  1  0  0  0  0  0  0  0  0
   -5.0635    1.8722   -1.6717 C   0  0  0  1  0  0  0  0  0  0  0  0
   -1.4219    2.7089   -1.2377 C   0  0  0  1  0  0  0  0  0  0  0  0
   -4.4895    3.1882   -4.6858 H   0  0  0  1  0  0  0  0  0  0  0  0
   -2.2714    3.4270   -3.7428 H   0  0  0  1  0  0  0  0  0  0  0  0
   -3.6043    1.6883   -0.1611 H   0  0  0  1  0  0  0  0  0  0  0  0
   -5.8264    1.4489   -1.1056 H   0  0  0  1  0  0  0  0  0  0  0  0
   -1.1279    3.7373   -1.2683 H   0  0  0  1  0  0  0  0  0  0  0  0
   -1.4951    2.3885   -0.2194 H   0  0  0  1  0  0  0  0  0  0  0  0
  1  4  1  0  0  0  0
  2  4  1  0  0  0  0
  2  5  2  0  0  0  0
  2  6  1  0  0  0  0
  3  4  1  0  0  0  0
  3  7  1  0  0  0  0
  3  8  1  0  0  0  0
  4 26  1  0  0  0  0
  6  9  1  0  0  0  0
  6 12  1  0  0  0  0
  8 10  1  0  0  0  0
  8 11  2  0  0  0  0
  9 13  1  0  0  0  0
  9 14  1  0  0  0  0
  9 15  1  0  0  0  0
 10 16  1  0  0  0  0
 10 17  1  0  0  0  0
 10 18  1  0  0  0  0
 19 20  1  0  0  0  0
 20 21  4  0  0  0  0
 20 25  4  0  0  0  0
 21 22  4  0  0  0  0
 21 27  1  0  0  0  0
 22 23  4  0  0  0  0
 22 28  1  0  0  0  0
 23 24  4  0  0  0  0
 23 26  1  0  0  0  0
 24 25  4  0  0  0  0
 24 29  1  0  0  0  0
 25 30  1  0  0  0  0
 26 31  1  0  0  0  0
 26 32  1  0  0  0  0
M  END
> <BCLConfClusterSize>
1

> <ConfClashScore>
0.00499808 

> <ConfOneFourInteractionScore>
-0.939096 

> <ConfScore>
1.059 

> <ConfScorePBest>
0.00216617 

> <ConfTolerance>
2.04613 

> <RosettaParamsInstructions>
M  ROOT 3
M  POLY_N_BB 3
M  POLY_CA_BB 4
M  POLY_C_BB 2
M  POLY_O_BB 5
M  POLY_IGNORE 9 10 11 12 13 14 15 16 17 18 
M  POLY_UPPER 6
M  POLY_LOWER 8
M  POLY_CHG 0
M  POLY_PROPERTIES ALPHA_AA D_AA PROTEIN AROMATIC POLYMER 
M  END

$$$$
