


 35 35  0  0  0  0  0  0  0  0999 V2000
   -3.5603    4.6861    1.9133 H   0  0  0  1  0  0  0  0  0  0  0  0
   -1.8053    3.5255    1.9533 C   0  0  0  1  0  0  0  0  0  0  0  0
   -3.9374    3.0498    0.7184 N   0  0  0  1  0  0  0  0  0  0  0  0
   -3.0247    4.0618    1.2290 C   0  0  0  1  0  0  0  0  0  0  0  0
   -1.7575    2.3610    2.3473 O   0  0  0  1  0  0  0  0  0  0  0  0
   -0.8056    4.3944    2.1286 N   0  0  0  1  0  0  0  0  0  0  0  0
   -4.1287    3.0271   -0.2425 H   0  0  0  1  0  0  0  0  0  0  0  0
   -4.5294    2.1419    1.5218 C   0  0  0  1  0  0  0  0  0  0  0  0
    0.3832    4.0662    2.9011 C   0  0  0  1  0  0  0  0  0  0  0  0
   -5.5809    1.2379    0.9192 C   0  0  0  1  0  0  0  0  0  0  0  0
   -4.2245    2.0502    2.7102 O   0  0  0  1  0  0  0  0  0  0  0  0
   -0.8753    5.2838    1.7229 H   0  0  0  1  0  0  0  0  0  0  0  0
    0.8086    3.1561    2.5327 H   0  0  0  1  0  0  0  0  0  0  0  0
    0.1171    3.9442    3.9303 H   0  0  0  1  0  0  0  0  0  0  0  0
    1.0982    4.8569    2.8083 H   0  0  0  1  0  0  0  0  0  0  0  0
   -5.7557    1.5218   -0.0976 H   0  0  0  1  0  0  0  0  0  0  0  0
   -6.4902    1.3283    1.4758 H   0  0  0  1  0  0  0  0  0  0  0  0
   -5.2409    0.2240    0.9527 H   0  0  0  1  0  0  0  0  0  0  0  0
   -2.5700    4.9387    0.0783 C   0  0  0  1  0  0  0  0  0  0  0  0
   -1.7914    4.1797   -0.9882 C   0  0  0  1  0  0  0  0  0  0  0  0
   -1.3782    5.0525   -2.1551 C   0  0  0  1  0  0  0  0  0  0  0  0
   -2.3120    5.2832   -3.1532 C   0  0  0  1  0  0  0  0  0  0  0  0
   -1.9811    6.0686   -4.2412 C   0  0  0  1  0  0  0  0  0  0  0  0
   -0.7169    6.6300   -4.3316 C   0  0  0  1  0  0  0  0  0  0  0  0
    0.2143    6.4001   -3.3365 C   0  0  0  1  0  0  0  0  0  0  0  0
   -0.1178    5.6124   -2.2453 C   0  0  0  1  0  0  0  0  0  0  0  0
   -1.9434    5.7132    0.4690 H   0  0  0  1  0  0  0  0  0  0  0  0
   -3.4340    5.3745   -0.3782 H   0  0  0  1  0  0  0  0  0  0  0  0
   -2.4058    3.3854   -1.3578 H   0  0  0  1  0  0  0  0  0  0  0  0
   -0.9101    3.7706   -0.5401 H   0  0  0  1  0  0  0  0  0  0  0  0
   -3.2618    4.8652   -3.0833 H   0  0  0  1  0  0  0  0  0  0  0  0
   -2.6804    6.2384   -4.9920 H   0  0  0  1  0  0  0  0  0  0  0  0
   -0.4692    7.2243   -5.1483 H   0  0  0  1  0  0  0  0  0  0  0  0
    1.1641    6.8181   -3.4064 H   0  0  0  1  0  0  0  0  0  0  0  0
    0.5816    5.4426   -1.4945 H   0  0  0  1  0  0  0  0  0  0  0  0
  1  4  1  0  0  0  0
  2  4  1  0  0  0  0
  2  5  2  0  0  0  0
  2  6  1  0  0  0  0
  3  4  1  0  0  0  0
  3  7  1  0  0  0  0
  3  8  1  0  0  0  0
  4 19  1  0  0  0  0
  6  9  1  0  0  0  0
  6 12  1  0  0  0  0
  8 10  1  0  0  0  0
  8 11  2  0  0  0  0
  9 13  1  0  0  0  0
  9 14  1  0  0  0  0
  9 15  1  0  0  0  0
 10 16  1  0  0  0  0
 10 17  1  0  0  0  0
 10 18  1  0  0  0  0
 19 20  1  0  0  0  0
 19 27  1  0  0  0  0
 19 28  1  0  0  0  0
 20 21  1  0  0  0  0
 20 29  1  0  0  0  0
 20 30  1  0  0  0  0
 21 22  4  0  0  0  0
 21 26  4  0  0  0  0
 22 23  4  0  0  0  0
 22 31  1  0  0  0  0
 23 24  4  0  0  0  0
 23 32  1  0  0  0  0
 24 25  4  0  0  0  0
 24 33  1  0  0  0  0
 25 26  4  0  0  0  0
 25 34  1  0  0  0  0
 26 35  1  0  0  0  0
M  END
> <BCLConfClusterSize>
1

> <ConfClashScore>
0 

> <ConfOneFourInteractionScore>
-0.947531 

> <ConfScore>
-0.108525 

> <ConfScorePBest>
0.00783383 

> <ConfTolerance>
0.262368 

> <RosettaParamsInstructions>
M  ROOT 3
M  POLY_N_BB 3
M  POLY_CA_BB 4
M  POLY_C_BB 2
M  POLY_O_BB 5
M  POLY_IGNORE 9 10 11 12 13 14 15 16 17 18 
M  POLY_UPPER 6
M  POLY_LOWER 8
M  POLY_CHG 0
M  POLY_PROPERTIES ALPHA_AA D_AA PROTEIN AROMATIC POLYMER 
M  END

$$$$



 35 35  0  0  0  0  0  0  0  0999 V2000
   -1.6059    0.8327   -0.2523 H   0  0  0  1  0  0  0  0  0  0  0  0
   -3.1126    2.1237    0.5021 C   0  0  0  1  0  0  0  0  0  0  0  0
   -0.6823    2.1564    1.0456 N   0  0  0  1  0  0  0  0  0  0  0  0
   -1.6836    1.8609    0.0335 C   0  0  0  1  0  0  0  0  0  0  0  0
   -3.3898    2.0446    1.6981 O   0  0  0  1  0  0  0  0  0  0  0  0
   -3.9923    2.5191   -0.4316 N   0  0  0  1  0  0  0  0  0  0  0  0
   -0.0051    2.8389    0.8559 H   0  0  0  1  0  0  0  0  0  0  0  0
   -0.6532    1.5246    2.2352 C   0  0  0  1  0  0  0  0  0  0  0  0
   -5.3525    2.9160   -0.0996 C   0  0  0  1  0  0  0  0  0  0  0  0
    0.5487    1.8937    3.0953 C   0  0  0  1  0  0  0  0  0  0  0  0
   -1.5001    0.7203    2.6218 O   0  0  0  1  0  0  0  0  0  0  0  0
   -3.7087    2.5414   -1.3694 H   0  0  0  1  0  0  0  0  0  0  0  0
   -5.4699    2.9338    0.9638 H   0  0  0  1  0  0  0  0  0  0  0  0
   -6.0416    2.2151   -0.5226 H   0  0  0  1  0  0  0  0  0  0  0  0
   -5.5462    3.8908   -0.4960 H   0  0  0  1  0  0  0  0  0  0  0  0
    1.3359    1.1879    2.9307 H   0  0  0  1  0  0  0  0  0  0  0  0
    0.2665    1.8787    4.1273 H   0  0  0  1  0  0  0  0  0  0  0  0
    0.8878    2.8737    2.8319 H   0  0  0  1  0  0  0  0  0  0  0  0
   -1.4270    2.7170   -1.1918 C   0  0  0  1  0  0  0  0  0  0  0  0
   -1.7496    4.1900   -0.9776 C   0  0  0  1  0  0  0  0  0  0  0  0
   -1.3870    5.0508   -2.1581 C   0  0  0  1  0  0  0  0  0  0  0  0
   -2.3176    5.2842   -3.1585 C   0  0  0  1  0  0  0  0  0  0  0  0
   -1.9825    6.0702   -4.2447 C   0  0  0  1  0  0  0  0  0  0  0  0
   -0.7171    6.6296   -4.3311 C   0  0  0  1  0  0  0  0  0  0  0  0
    0.2110    6.3971   -3.3337 C   0  0  0  1  0  0  0  0  0  0  0  0
   -0.1254    5.6087   -2.2443 C   0  0  0  1  0  0  0  0  0  0  0  0
   -2.0322    2.3504   -1.9946 H   0  0  0  1  0  0  0  0  0  0  0  0
   -0.3936    2.6308   -1.4555 H   0  0  0  1  0  0  0  0  0  0  0  0
   -1.2064    4.5369   -0.1235 H   0  0  0  1  0  0  0  0  0  0  0  0
   -2.7997    4.2858   -0.7961 H   0  0  0  1  0  0  0  0  0  0  0  0
   -3.2683    4.8677   -3.0917 H   0  0  0  1  0  0  0  0  0  0  0  0
   -2.6795    6.2419   -4.9973 H   0  0  0  1  0  0  0  0  0  0  0  0
   -0.4662    7.2244   -5.1465 H   0  0  0  1  0  0  0  0  0  0  0  0
    1.1616    6.8136   -3.4006 H   0  0  0  1  0  0  0  0  0  0  0  0
    0.5716    5.4370   -1.4918 H   0  0  0  1  0  0  0  0  0  0  0  0
  1  4  1  0  0  0  0
  2  4  1  0  0  0  0
  2  5  2  0  0  0  0
  2  6  1  0  0  0  0
  3  4  1  0  0  0  0
  3  7  1  0  0  0  0
  3  8  1  0  0  0  0
  4 19  1  0  0  0  0
  6  9  1  0  0  0  0
  6 12  1  0  0  0  0
  8 10  1  0  0  0  0
  8 11  2  0  0  0  0
  9 13  1  0  0  0  0
  9 14  1  0  0  0  0
  9 15  1  0  0  0  0
 10 16  1  0  0  0  0
 10 17  1  0  0  0  0
 10 18  1  0  0  0  0
 19 20  1  0  0  0  0
 19 27  1  0  0  0  0
 19 28  1  0  0  0  0
 20 21  1  0  0  0  0
 20 29  1  0  0  0  0
 20 30  1  0  0  0  0
 21 22  4  0  0  0  0
 21 26  4  0  0  0  0
 22 23  4  0  0  0  0
 22 31  1  0  0  0  0
 23 24  4  0  0  0  0
 23 32  1  0  0  0  0
 24 25  4  0  0  0  0
 24 33  1  0  0  0  0
 25 26  4  0  0  0  0
 25 34  1  0  0  0  0
 26 35  1  0  0  0  0
M  END
> <BCLConfClusterSize>
1

> <ConfClashScore>
0 

> <ConfOneFourInteractionScore>
-0.967053 

> <ConfScore>
-0.073861 

> <ConfScorePBest>
0.00780535 

> <ConfTolerance>
0.279775 

> <RosettaParamsInstructions>
M  ROOT 3
M  POLY_N_BB 3
M  POLY_CA_BB 4
M  POLY_C_BB 2
M  POLY_O_BB 5
M  POLY_IGNORE 9 10 11 12 13 14 15 16 17 18 
M  POLY_UPPER 6
M  POLY_LOWER 8
M  POLY_CHG 0
M  POLY_PROPERTIES ALPHA_AA D_AA PROTEIN AROMATIC POLYMER 
M  END

$$$$



 35 35  0  0  0  0  0  0  0  0999 V2000
   -1.7825    2.2858    0.8817 H   0  0  0  1  0  0  0  0  0  0  0  0
   -1.5396    0.4601   -0.1621 C   0  0  0  1  0  0  0  0  0  0  0  0
   -3.5685    1.8922   -0.0892 N   0  0  0  1  0  0  0  0  0  0  0  0
   -2.1155    1.8611   -0.0422 C   0  0  0  1  0  0  0  0  0  0  0  0
   -0.5523    0.3028   -0.8784 O   0  0  0  1  0  0  0  0  0  0  0  0
   -2.1345   -0.5273    0.5157 N   0  0  0  1  0  0  0  0  0  0  0  0
   -4.0247    2.2358   -0.8856 H   0  0  0  1  0  0  0  0  0  0  0  0
   -4.2860    1.4515    0.9554 C   0  0  0  1  0  0  0  0  0  0  0  0
   -1.6784   -1.9002    0.3577 C   0  0  0  1  0  0  0  0  0  0  0  0
   -5.7942    1.3905    0.7250 C   0  0  0  1  0  0  0  0  0  0  0  0
   -3.8011    1.1817    2.0535 O   0  0  0  1  0  0  0  0  0  0  0  0
   -2.8791   -0.3260    1.1202 H   0  0  0  1  0  0  0  0  0  0  0  0
   -1.2527   -2.2433    1.2774 H   0  0  0  1  0  0  0  0  0  0  0  0
   -0.9396   -1.9436   -0.4151 H   0  0  0  1  0  0  0  0  0  0  0  0
   -2.5076   -2.5232    0.0945 H   0  0  0  1  0  0  0  0  0  0  0  0
   -5.9904    1.2180   -0.3126 H   0  0  0  1  0  0  0  0  0  0  0  0
   -6.2380    2.3177    1.0222 H   0  0  0  1  0  0  0  0  0  0  0  0
   -6.2113    0.5931    1.3039 H   0  0  0  1  0  0  0  0  0  0  0  0
   -1.5581    2.6961   -1.1789 C   0  0  0  1  0  0  0  0  0  0  0  0
   -1.7493    4.1907   -0.9786 C   0  0  0  1  0  0  0  0  0  0  0  0
   -1.3870    5.0507   -2.1580 C   0  0  0  1  0  0  0  0  0  0  0  0
   -2.3177    5.2841   -3.1584 C   0  0  0  1  0  0  0  0  0  0  0  0
   -1.9825    6.0701   -4.2447 C   0  0  0  1  0  0  0  0  0  0  0  0
   -0.7172    6.6296   -4.3310 C   0  0  0  1  0  0  0  0  0  0  0  0
    0.2110    6.3971   -3.3336 C   0  0  0  1  0  0  0  0  0  0  0  0
   -0.1254    5.6086   -2.2442 C   0  0  0  1  0  0  0  0  0  0  0  0
   -2.0514    2.4093   -2.0840 H   0  0  0  1  0  0  0  0  0  0  0  0
   -0.5104    2.4966   -1.2644 H   0  0  0  1  0  0  0  0  0  0  0  0
   -1.1425    4.4931   -0.1507 H   0  0  0  1  0  0  0  0  0  0  0  0
   -2.7798    4.3637   -0.7481 H   0  0  0  1  0  0  0  0  0  0  0  0
   -3.2683    4.8676   -3.0916 H   0  0  0  1  0  0  0  0  0  0  0  0
   -2.6795    6.2419   -4.9972 H   0  0  0  1  0  0  0  0  0  0  0  0
   -0.4662    7.2244   -5.1464 H   0  0  0  1  0  0  0  0  0  0  0  0
    1.1616    6.8135   -3.4005 H   0  0  0  1  0  0  0  0  0  0  0  0
    0.5716    5.4369   -1.4917 H   0  0  0  1  0  0  0  0  0  0  0  0
  1  4  1  0  0  0  0
  2  4  1  0  0  0  0
  2  5  2  0  0  0  0
  2  6  1  0  0  0  0
  3  4  1  0  0  0  0
  3  7  1  0  0  0  0
  3  8  1  0  0  0  0
  4 19  1  0  0  0  0
  6  9  1  0  0  0  0
  6 12  1  0  0  0  0
  8 10  1  0  0  0  0
  8 11  2  0  0  0  0
  9 13  1  0  0  0  0
  9 14  1  0  0  0  0
  9 15  1  0  0  0  0
 10 16  1  0  0  0  0
 10 17  1  0  0  0  0
 10 18  1  0  0  0  0
 19 20  1  0  0  0  0
 19 27  1  0  0  0  0
 19 28  1  0  0  0  0
 20 21  1  0  0  0  0
 20 29  1  0  0  0  0
 20 30  1  0  0  0  0
 21 22  4  0  0  0  0
 21 26  4  0  0  0  0
 22 23  4  0  0  0  0
 22 31  1  0  0  0  0
 23 24  4  0  0  0  0
 23 32  1  0  0  0  0
 24 25  4  0  0  0  0
 24 33  1  0  0  0  0
 25 26  4  0  0  0  0
 25 34  1  0  0  0  0
 26 35  1  0  0  0  0
M  END
> <BCLConfClusterSize>
1

> <ConfClashScore>
4.18841e-05 

> <ConfOneFourInteractionScore>
-0.98595 

> <ConfScore>
-0.0667523 

> <ConfScorePBest>
0.00777687 

> <ConfTolerance>
0.288251 

> <RosettaParamsInstructions>
M  ROOT 3
M  POLY_N_BB 3
M  POLY_CA_BB 4
M  POLY_C_BB 2
M  POLY_O_BB 5
M  POLY_IGNORE 9 10 11 12 13 14 15 16 17 18 
M  POLY_UPPER 6
M  POLY_LOWER 8
M  POLY_CHG 0
M  POLY_PROPERTIES ALPHA_AA D_AA PROTEIN AROMATIC POLYMER 
M  END

$$$$



 35 35  0  0  0  0  0  0  0  0999 V2000
   -1.9291    3.5671    1.6002 H   0  0  0  1  0  0  0  0  0  0  0  0
   -3.8731    3.0659    1.0208 C   0  0  0  1  0  0  0  0  0  0  0  0
   -3.1658    4.9754    2.4490 N   0  0  0  1  0  0  0  0  0  0  0  0
   -2.8140    4.1014    1.3240 C   0  0  0  1  0  0  0  0  0  0  0  0
   -4.0758    2.1188    1.7795 O   0  0  0  1  0  0  0  0  0  0  0  0
   -4.5595    3.2516   -0.1103 N   0  0  0  1  0  0  0  0  0  0  0  0
   -2.4563    5.4886    2.8890 H   0  0  0  1  0  0  0  0  0  0  0  0
   -4.4303    5.0968    2.8979 C   0  0  0  1  0  0  0  0  0  0  0  0
   -5.5342    2.3189   -0.6561 C   0  0  0  1  0  0  0  0  0  0  0  0
   -4.5512    5.9256    4.1703 C   0  0  0  1  0  0  0  0  0  0  0  0
   -5.4062    4.6041    2.3621 O   0  0  0  1  0  0  0  0  0  0  0  0
   -4.3942    4.0783   -0.6101 H   0  0  0  1  0  0  0  0  0  0  0  0
   -6.2727    2.8584   -1.2115 H   0  0  0  1  0  0  0  0  0  0  0  0
   -6.0069    1.7886    0.1440 H   0  0  0  1  0  0  0  0  0  0  0  0
   -5.0396    1.6240   -1.3022 H   0  0  0  1  0  0  0  0  0  0  0  0
   -5.0534    5.3539    4.9226 H   0  0  0  1  0  0  0  0  0  0  0  0
   -5.1108    6.8142    3.9651 H   0  0  0  1  0  0  0  0  0  0  0  0
   -3.5743    6.1908    4.5171 H   0  0  0  1  0  0  0  0  0  0  0  0
   -2.4406    4.9636    0.1335 C   0  0  0  1  0  0  0  0  0  0  0  0
   -1.7496    4.1900   -0.9776 C   0  0  0  1  0  0  0  0  0  0  0  0
   -1.3870    5.0508   -2.1581 C   0  0  0  1  0  0  0  0  0  0  0  0
   -2.3176    5.2842   -3.1585 C   0  0  0  1  0  0  0  0  0  0  0  0
   -1.9825    6.0702   -4.2447 C   0  0  0  1  0  0  0  0  0  0  0  0
   -0.7171    6.6296   -4.3311 C   0  0  0  1  0  0  0  0  0  0  0  0
    0.2110    6.3971   -3.3337 C   0  0  0  1  0  0  0  0  0  0  0  0
   -0.1254    5.6087   -2.2443 C   0  0  0  1  0  0  0  0  0  0  0  0
   -1.7820    5.7375    0.4683 H   0  0  0  1  0  0  0  0  0  0  0  0
   -3.3335    5.4008   -0.2621 H   0  0  0  1  0  0  0  0  0  0  0  0
   -2.4059    3.4136   -1.3111 H   0  0  0  1  0  0  0  0  0  0  0  0
   -0.8540    3.7562   -0.5845 H   0  0  0  1  0  0  0  0  0  0  0  0
   -3.2683    4.8677   -3.0917 H   0  0  0  1  0  0  0  0  0  0  0  0
   -2.6795    6.2419   -4.9973 H   0  0  0  1  0  0  0  0  0  0  0  0
   -0.4662    7.2244   -5.1465 H   0  0  0  1  0  0  0  0  0  0  0  0
    1.1616    6.8136   -3.4006 H   0  0  0  1  0  0  0  0  0  0  0  0
    0.5716    5.4370   -1.4918 H   0  0  0  1  0  0  0  0  0  0  0  0
  1  4  1  0  0  0  0
  2  4  1  0  0  0  0
  2  5  2  0  0  0  0
  2  6  1  0  0  0  0
  3  4  1  0  0  0  0
  3  7  1  0  0  0  0
  3  8  1  0  0  0  0
  4 19  1  0  0  0  0
  6  9  1  0  0  0  0
  6 12  1  0  0  0  0
  8 10  1  0  0  0  0
  8 11  2  0  0  0  0
  9 13  1  0  0  0  0
  9 14  1  0  0  0  0
  9 15  1  0  0  0  0
 10 16  1  0  0  0  0
 10 17  1  0  0  0  0
 10 18  1  0  0  0  0
 19 20  1  0  0  0  0
 19 27  1  0  0  0  0
 19 28  1  0  0  0  0
 20 21  1  0  0  0  0
 20 29  1  0  0  0  0
 20 30  1  0  0  0  0
 21 22  4  0  0  0  0
 21 26  4  0  0  0  0
 22 23  4  0  0  0  0
 22 31  1  0  0  0  0
 23 24  4  0  0  0  0
 23 32  1  0  0  0  0
 24 25  4  0  0  0  0
 24 33  1  0  0  0  0
 25 26  4  0  0  0  0
 25 34  1  0  0  0  0
 26 35  1  0  0  0  0
M  END
> <BCLConfClusterSize>
1

> <ConfClashScore>
0.000496718 

> <ConfOneFourInteractionScore>
-0.943527 

> <ConfScore>
-0.0450324 

> <ConfScorePBest>
0.00774839 

> <ConfTolerance>
0.260783 

> <RosettaParamsInstructions>
M  ROOT 3
M  POLY_N_BB 3
M  POLY_CA_BB 4
M  POLY_C_BB 2
M  POLY_O_BB 5
M  POLY_IGNORE 9 10 11 12 13 14 15 16 17 18 
M  POLY_UPPER 6
M  POLY_LOWER 8
M  POLY_CHG 0
M  POLY_PROPERTIES ALPHA_AA D_AA PROTEIN AROMATIC POLYMER 
M  END

$$$$



 35 35  0  0  0  0  0  0  0  0999 V2000
   -4.0984    4.3572    1.5236 H   0  0  0  1  0  0  0  0  0  0  0  0
   -2.1237    3.8350    2.0503 C   0  0  0  1  0  0  0  0  0  0  0  0
   -3.6611    2.5956    0.5232 N   0  0  0  1  0  0  0  0  0  0  0  0
   -3.2563    3.9039    1.0438 C   0  0  0  1  0  0  0  0  0  0  0  0
   -2.0070    2.8804    2.8142 O   0  0  0  1  0  0  0  0  0  0  0  0
   -1.2798    4.8680    2.0445 N   0  0  0  1  0  0  0  0  0  0  0  0
   -3.6825    2.4395   -0.4440 H   0  0  0  1  0  0  0  0  0  0  0  0
   -4.0011    1.6148    1.3644 C   0  0  0  1  0  0  0  0  0  0  0  0
   -0.1583    5.0124    2.9606 C   0  0  0  1  0  0  0  0  0  0  0  0
   -4.3865    0.3019    0.7211 C   0  0  0  1  0  0  0  0  0  0  0  0
   -4.0063    1.7527    2.5882 O   0  0  0  1  0  0  0  0  0  0  0  0
   -1.4243    5.5748    1.3812 H   0  0  0  1  0  0  0  0  0  0  0  0
    0.0845    4.0589    3.3811 H   0  0  0  1  0  0  0  0  0  0  0  0
   -0.4235    5.6906    3.7446 H   0  0  0  1  0  0  0  0  0  0  0  0
    0.6888    5.3939    2.4297 H   0  0  0  1  0  0  0  0  0  0  0  0
   -5.1331   -0.1816    1.3158 H   0  0  0  1  0  0  0  0  0  0  0  0
   -3.5239   -0.3274    0.6511 H   0  0  0  1  0  0  0  0  0  0  0  0
   -4.7751    0.4856   -0.2587 H   0  0  0  1  0  0  0  0  0  0  0  0
   -2.9013    4.7535   -0.1612 C   0  0  0  1  0  0  0  0  0  0  0  0
   -1.7496    4.1900   -0.9776 C   0  0  0  1  0  0  0  0  0  0  0  0
   -1.3870    5.0508   -2.1581 C   0  0  0  1  0  0  0  0  0  0  0  0
   -2.3176    5.2842   -3.1585 C   0  0  0  1  0  0  0  0  0  0  0  0
   -1.9825    6.0702   -4.2447 C   0  0  0  1  0  0  0  0  0  0  0  0
   -0.7171    6.6296   -4.3311 C   0  0  0  1  0  0  0  0  0  0  0  0
    0.2110    6.3971   -3.3337 C   0  0  0  1  0  0  0  0  0  0  0  0
   -0.1254    5.6087   -2.2443 C   0  0  0  1  0  0  0  0  0  0  0  0
   -2.6288    5.7301    0.1807 H   0  0  0  1  0  0  0  0  0  0  0  0
   -3.7623    4.8235   -0.7925 H   0  0  0  1  0  0  0  0  0  0  0  0
   -2.0281    3.2209   -1.3356 H   0  0  0  1  0  0  0  0  0  0  0  0
   -0.8925    4.1036   -0.3430 H   0  0  0  1  0  0  0  0  0  0  0  0
   -3.2683    4.8677   -3.0917 H   0  0  0  1  0  0  0  0  0  0  0  0
   -2.6795    6.2419   -4.9973 H   0  0  0  1  0  0  0  0  0  0  0  0
   -0.4662    7.2244   -5.1465 H   0  0  0  1  0  0  0  0  0  0  0  0
    1.1616    6.8136   -3.4006 H   0  0  0  1  0  0  0  0  0  0  0  0
    0.5716    5.4370   -1.4918 H   0  0  0  1  0  0  0  0  0  0  0  0
  1  4  1  0  0  0  0
  2  4  1  0  0  0  0
  2  5  2  0  0  0  0
  2  6  1  0  0  0  0
  3  4  1  0  0  0  0
  3  7  1  0  0  0  0
  3  8  1  0  0  0  0
  4 19  1  0  0  0  0
  6  9  1  0  0  0  0
  6 12  1  0  0  0  0
  8 10  1  0  0  0  0
  8 11  2  0  0  0  0
  9 13  1  0  0  0  0
  9 14  1  0  0  0  0
  9 15  1  0  0  0  0
 10 16  1  0  0  0  0
 10 17  1  0  0  0  0
 10 18  1  0  0  0  0
 19 20  1  0  0  0  0
 19 27  1  0  0  0  0
 19 28  1  0  0  0  0
 20 21  1  0  0  0  0
 20 29  1  0  0  0  0
 20 30  1  0  0  0  0
 21 22  4  0  0  0  0
 21 26  4  0  0  0  0
 22 23  4  0  0  0  0
 22 31  1  0  0  0  0
 23 24  4  0  0  0  0
 23 32  1  0  0  0  0
 24 25  4  0  0  0  0
 24 33  1  0  0  0  0
 25 26  4  0  0  0  0
 25 34  1  0  0  0  0
 26 35  1  0  0  0  0
M  END
> <BCLConfClusterSize>
1

> <ConfClashScore>
0 

> <ConfOneFourInteractionScore>
-0.947531 

> <ConfScore>
-0.024393 

> <ConfScorePBest>
0.00771991 

> <ConfTolerance>
0.326348 

> <RosettaParamsInstructions>
M  ROOT 3
M  POLY_N_BB 3
M  POLY_CA_BB 4
M  POLY_C_BB 2
M  POLY_O_BB 5
M  POLY_IGNORE 9 10 11 12 13 14 15 16 17 18 
M  POLY_UPPER 6
M  POLY_LOWER 8
M  POLY_CHG 0
M  POLY_PROPERTIES ALPHA_AA D_AA PROTEIN AROMATIC POLYMER 
M  END

$$$$



 35 35  0  0  0  0  0  0  0  0999 V2000
   -1.7306    0.8939   -0.0823 H   0  0  0  1  0  0  0  0  0  0  0  0
   -3.4567    1.9731    0.3572 C   0  0  0  1  0  0  0  0  0  0  0  0
   -1.1955    2.2712    1.3355 N   0  0  0  1  0  0  0  0  0  0  0  0
   -1.9574    1.9178    0.1298 C   0  0  0  1  0  0  0  0  0  0  0  0
   -3.9477    1.5986    1.4213 O   0  0  0  1  0  0  0  0  0  0  0  0
   -4.2284    2.4417   -0.6353 N   0  0  0  1  0  0  0  0  0  0  0  0
   -0.4723    1.6870    1.6456 H   0  0  0  1  0  0  0  0  0  0  0  0
   -1.4887    3.3955    2.0148 C   0  0  0  1  0  0  0  0  0  0  0  0
   -5.6806    2.4685   -0.5444 C   0  0  0  1  0  0  0  0  0  0  0  0
   -0.7830    3.5636    3.3463 C   0  0  0  1  0  0  0  0  0  0  0  0
   -2.2764    4.2438    1.5981 O   0  0  0  1  0  0  0  0  0  0  0  0
   -3.7992    2.7775   -1.4498 H   0  0  0  1  0  0  0  0  0  0  0  0
   -6.0118    1.6915    0.1124 H   0  0  0  1  0  0  0  0  0  0  0  0
   -6.1014    2.3170   -1.5164 H   0  0  0  1  0  0  0  0  0  0  0  0
   -5.9963    3.4168   -0.1624 H   0  0  0  1  0  0  0  0  0  0  0  0
    0.0690    2.9173    3.3831 H   0  0  0  1  0  0  0  0  0  0  0  0
   -1.4551    3.3127    4.1401 H   0  0  0  1  0  0  0  0  0  0  0  0
   -0.4647    4.5793    3.4553 H   0  0  0  1  0  0  0  0  0  0  0  0
   -1.4716    2.7101   -1.0785 C   0  0  0  1  0  0  0  0  0  0  0  0
   -1.7891    4.1846   -0.9948 C   0  0  0  1  0  0  0  0  0  0  0  0
   -1.3784    5.0520   -2.1545 C   0  0  0  1  0  0  0  0  0  0  0  0
   -2.3122    5.2828   -3.1526 C   0  0  0  1  0  0  0  0  0  0  0  0
   -1.9813    6.0682   -4.2406 C   0  0  0  1  0  0  0  0  0  0  0  0
   -0.7171    6.6296   -4.3310 C   0  0  0  1  0  0  0  0  0  0  0  0
    0.2141    6.3997   -3.3359 C   0  0  0  1  0  0  0  0  0  0  0  0
   -0.1180    5.6119   -2.2447 C   0  0  0  1  0  0  0  0  0  0  0  0
   -1.9382    2.3118   -1.9552 H   0  0  0  1  0  0  0  0  0  0  0  0
   -0.4105    2.5954   -1.1551 H   0  0  0  1  0  0  0  0  0  0  0  0
   -1.3042    4.5674   -0.1211 H   0  0  0  1  0  0  0  0  0  0  0  0
   -2.8493    4.2780   -0.8848 H   0  0  0  1  0  0  0  0  0  0  0  0
   -3.2620    4.8648   -3.0828 H   0  0  0  1  0  0  0  0  0  0  0  0
   -2.6806    6.2379   -4.9914 H   0  0  0  1  0  0  0  0  0  0  0  0
   -0.4693    7.2239   -5.1477 H   0  0  0  1  0  0  0  0  0  0  0  0
    1.1639    6.8177   -3.4058 H   0  0  0  1  0  0  0  0  0  0  0  0
    0.5813    5.4421   -1.4939 H   0  0  0  1  0  0  0  0  0  0  0  0
  1  4  1  0  0  0  0
  2  4  1  0  0  0  0
  2  5  2  0  0  0  0
  2  6  1  0  0  0  0
  3  4  1  0  0  0  0
  3  7  1  0  0  0  0
  3  8  1  0  0  0  0
  4 19  1  0  0  0  0
  6  9  1  0  0  0  0
  6 12  1  0  0  0  0
  8 10  1  0  0  0  0
  8 11  2  0  0  0  0
  9 13  1  0  0  0  0
  9 14  1  0  0  0  0
  9 15  1  0  0  0  0
 10 16  1  0  0  0  0
 10 17  1  0  0  0  0
 10 18  1  0  0  0  0
 19 20  1  0  0  0  0
 19 27  1  0  0  0  0
 19 28  1  0  0  0  0
 20 21  1  0  0  0  0
 20 29  1  0  0  0  0
 20 30  1  0  0  0  0
 21 22  4  0  0  0  0
 21 26  4  0  0  0  0
 22 23  4  0  0  0  0
 22 31  1  0  0  0  0
 23 24  4  0  0  0  0
 23 32  1  0  0  0  0
 24 25  4  0  0  0  0
 24 33  1  0  0  0  0
 25 26  4  0  0  0  0
 25 34  1  0  0  0  0
 26 35  1  0  0  0  0
M  END
> <BCLConfClusterSize>
1

> <ConfClashScore>
0 

> <ConfOneFourInteractionScore>
-0.921809 

> <ConfScore>
-0.000456379 

> <ConfScorePBest>
0.00769143 

> <ConfTolerance>
0.308173 

> <RosettaParamsInstructions>
M  ROOT 3
M  POLY_N_BB 3
M  POLY_CA_BB 4
M  POLY_C_BB 2
M  POLY_O_BB 5
M  POLY_IGNORE 9 10 11 12 13 14 15 16 17 18 
M  POLY_UPPER 6
M  POLY_LOWER 8
M  POLY_CHG 0
M  POLY_PROPERTIES ALPHA_AA D_AA PROTEIN AROMATIC POLYMER 
M  END

$$$$



 35 35  0  0  0  0  0  0  0  0999 V2000
   -4.6893    3.0524    0.3596 H   0  0  0  1  0  0  0  0  0  0  0  0
   -3.4272    4.0812    1.6736 C   0  0  0  1  0  0  0  0  0  0  0  0
   -2.9622    1.9407    0.5499 N   0  0  0  1  0  0  0  0  0  0  0  0
   -3.6390    3.2457    0.4261 C   0  0  0  1  0  0  0  0  0  0  0  0
   -3.3231    3.5583    2.7820 O   0  0  0  1  0  0  0  0  0  0  0  0
   -3.3628    5.4084    1.4825 N   0  0  0  1  0  0  0  0  0  0  0  0
   -2.2989    1.6860   -0.1251 H   0  0  0  1  0  0  0  0  0  0  0  0
   -3.2220    1.0940    1.5502 C   0  0  0  1  0  0  0  0  0  0  0  0
   -3.0278    6.3329    2.5554 C   0  0  0  1  0  0  0  0  0  0  0  0
   -2.5277   -0.2517    1.4712 C   0  0  0  1  0  0  0  0  0  0  0  0
   -3.9723    1.3704    2.4824 O   0  0  0  1  0  0  0  0  0  0  0  0
   -3.5479    5.7673    0.5896 H   0  0  0  1  0  0  0  0  0  0  0  0
   -2.3484    5.8612    3.2342 H   0  0  0  1  0  0  0  0  0  0  0  0
   -3.9192    6.6100    3.0784 H   0  0  0  1  0  0  0  0  0  0  0  0
   -2.5696    7.2072    2.1424 H   0  0  0  1  0  0  0  0  0  0  0  0
   -1.9714   -0.3137    0.5594 H   0  0  0  1  0  0  0  0  0  0  0  0
   -3.2593   -1.0322    1.4961 H   0  0  0  1  0  0  0  0  0  0  0  0
   -1.8627   -0.3590    2.3025 H   0  0  0  1  0  0  0  0  0  0  0  0
   -3.2420    3.9294   -0.8681 C   0  0  0  1  0  0  0  0  0  0  0  0
   -1.7494    4.1904   -0.9781 C   0  0  0  1  0  0  0  0  0  0  0  0
   -1.3870    5.0508   -2.1580 C   0  0  0  1  0  0  0  0  0  0  0  0
   -2.3177    5.2841   -3.1585 C   0  0  0  1  0  0  0  0  0  0  0  0
   -1.9825    6.0702   -4.2447 C   0  0  0  1  0  0  0  0  0  0  0  0
   -0.7172    6.6296   -4.3311 C   0  0  0  1  0  0  0  0  0  0  0  0
    0.2110    6.3971   -3.3337 C   0  0  0  1  0  0  0  0  0  0  0  0
   -0.1254    5.6087   -2.2442 C   0  0  0  1  0  0  0  0  0  0  0  0
   -3.7556    4.8661   -0.9283 H   0  0  0  1  0  0  0  0  0  0  0  0
   -3.5386    3.3063   -1.6858 H   0  0  0  1  0  0  0  0  0  0  0  0
   -1.2456    3.2513   -1.0739 H   0  0  0  1  0  0  0  0  0  0  0  0
   -1.4229    4.6815   -0.0854 H   0  0  0  1  0  0  0  0  0  0  0  0
   -3.2683    4.8677   -3.0916 H   0  0  0  1  0  0  0  0  0  0  0  0
   -2.6795    6.2419   -4.9972 H   0  0  0  1  0  0  0  0  0  0  0  0
   -0.4662    7.2244   -5.1464 H   0  0  0  1  0  0  0  0  0  0  0  0
    1.1616    6.8136   -3.4005 H   0  0  0  1  0  0  0  0  0  0  0  0
    0.5716    5.4369   -1.4917 H   0  0  0  1  0  0  0  0  0  0  0  0
  1  4  1  0  0  0  0
  2  4  1  0  0  0  0
  2  5  2  0  0  0  0
  2  6  1  0  0  0  0
  3  4  1  0  0  0  0
  3  7  1  0  0  0  0
  3  8  1  0  0  0  0
  4 19  1  0  0  0  0
  6  9  1  0  0  0  0
  6 12  1  0  0  0  0
  8 10  1  0  0  0  0
  8 11  2  0  0  0  0
  9 13  1  0  0  0  0
  9 14  1  0  0  0  0
  9 15  1  0  0  0  0
 10 16  1  0  0  0  0
 10 17  1  0  0  0  0
 10 18  1  0  0  0  0
 19 20  1  0  0  0  0
 19 27  1  0  0  0  0
 19 28  1  0  0  0  0
 20 21  1  0  0  0  0
 20 29  1  0  0  0  0
 20 30  1  0  0  0  0
 21 22  4  0  0  0  0
 21 26  4  0  0  0  0
 22 23  4  0  0  0  0
 22 31  1  0  0  0  0
 23 24  4  0  0  0  0
 23 32  1  0  0  0  0
 24 25  4  0  0  0  0
 24 33  1  0  0  0  0
 25 26  4  0  0  0  0
 25 34  1  0  0  0  0
 26 35  1  0  0  0  0
M  END
> <BCLConfClusterSize>
1

> <ConfClashScore>
0 

> <ConfOneFourInteractionScore>
-0.941403 

> <ConfScore>
0.0238025 

> <ConfScorePBest>
0.00766295 

> <ConfTolerance>
0.41144 

> <RosettaParamsInstructions>
M  ROOT 3
M  POLY_N_BB 3
M  POLY_CA_BB 4
M  POLY_C_BB 2
M  POLY_O_BB 5
M  POLY_IGNORE 9 10 11 12 13 14 15 16 17 18 
M  POLY_UPPER 6
M  POLY_LOWER 8
M  POLY_CHG 0
M  POLY_PROPERTIES ALPHA_AA D_AA PROTEIN AROMATIC POLYMER 
M  END

$$$$



 35 35  0  0  0  0  0  0  0  0999 V2000
   -0.8975    1.0502    0.0829 H   0  0  0  1  0  0  0  0  0  0  0  0
   -2.9406    1.2494   -0.3048 C   0  0  0  1  0  0  0  0  0  0  0  0
   -1.5812    2.5309    1.3262 N   0  0  0  1  0  0  0  0  0  0  0  0
   -1.5980    1.8574    0.0325 C   0  0  0  1  0  0  0  0  0  0  0  0
   -3.3258    0.2221    0.2519 O   0  0  0  1  0  0  0  0  0  0  0  0
   -3.6926    1.8596   -1.2221 N   0  0  0  1  0  0  0  0  0  0  0  0
   -0.7214    2.6716    1.7750 H   0  0  0  1  0  0  0  0  0  0  0  0
   -2.6953    2.9618    1.9198 C   0  0  0  1  0  0  0  0  0  0  0  0
   -5.0203    1.4275   -1.6326 C   0  0  0  1  0  0  0  0  0  0  0  0
   -2.5552    3.3554    3.3774 C   0  0  0  1  0  0  0  0  0  0  0  0
   -3.7765    3.0415    1.3380 O   0  0  0  1  0  0  0  0  0  0  0  0
   -3.3233    2.6591   -1.6519 H   0  0  0  1  0  0  0  0  0  0  0  0
   -4.9332    0.6761   -2.3894 H   0  0  0  1  0  0  0  0  0  0  0  0
   -5.5629    2.2637   -2.0214 H   0  0  0  1  0  0  0  0  0  0  0  0
   -5.5408    1.0249   -0.7888 H   0  0  0  1  0  0  0  0  0  0  0  0
   -2.0910    2.5583    3.9196 H   0  0  0  1  0  0  0  0  0  0  0  0
   -3.5237    3.5497    3.7887 H   0  0  0  1  0  0  0  0  0  0  0  0
   -1.9521    4.2361    3.4523 H   0  0  0  1  0  0  0  0  0  0  0  0
   -1.0750    2.8129   -1.0227 C   0  0  0  1  0  0  0  0  0  0  0  0
   -1.7087    4.1919   -0.9537 C   0  0  0  1  0  0  0  0  0  0  0  0
   -1.3960    5.0499   -2.1624 C   0  0  0  1  0  0  0  0  0  0  0  0
   -2.3233    5.2860   -3.1653 C   0  0  0  1  0  0  0  0  0  0  0  0
   -1.9836    6.0727   -4.2497 C   0  0  0  1  0  0  0  0  0  0  0  0
   -0.7170    6.6300   -4.3317 C   0  0  0  1  0  0  0  0  0  0  0  0
    0.2078    6.3947   -3.3319 C   0  0  0  1  0  0  0  0  0  0  0  0
   -0.1331    5.6056   -2.2443 C   0  0  0  1  0  0  0  0  0  0  0  0
   -1.2750    2.3955   -1.9874 H   0  0  0  1  0  0  0  0  0  0  0  0
   -0.0183    2.9182   -0.8912 H   0  0  0  1  0  0  0  0  0  0  0  0
   -1.3455    4.6903   -0.0792 H   0  0  0  1  0  0  0  0  0  0  0  0
   -2.7701    4.0759   -0.8838 H   0  0  0  1  0  0  0  0  0  0  0  0
   -3.2749    4.8712   -3.1018 H   0  0  0  1  0  0  0  0  0  0  0  0
   -2.6781    6.2466   -5.0040 H   0  0  0  1  0  0  0  0  0  0  0  0
   -0.4626    7.2253   -5.1456 H   0  0  0  1  0  0  0  0  0  0  0  0
    1.1593    6.8096   -3.3954 H   0  0  0  1  0  0  0  0  0  0  0  0
    0.5614    5.4318   -1.4900 H   0  0  0  1  0  0  0  0  0  0  0  0
  1  4  1  0  0  0  0
  2  4  1  0  0  0  0
  2  5  2  0  0  0  0
  2  6  1  0  0  0  0
  3  4  1  0  0  0  0
  3  7  1  0  0  0  0
  3  8  1  0  0  0  0
  4 19  1  0  0  0  0
  6  9  1  0  0  0  0
  6 12  1  0  0  0  0
  8 10  1  0  0  0  0
  8 11  2  0  0  0  0
  9 13  1  0  0  0  0
  9 14  1  0  0  0  0
  9 15  1  0  0  0  0
 10 16  1  0  0  0  0
 10 17  1  0  0  0  0
 10 18  1  0  0  0  0
 19 20  1  0  0  0  0
 19 27  1  0  0  0  0
 19 28  1  0  0  0  0
 20 21  1  0  0  0  0
 20 29  1  0  0  0  0
 20 30  1  0  0  0  0
 21 22  4  0  0  0  0
 21 26  4  0  0  0  0
 22 23  4  0  0  0  0
 22 31  1  0  0  0  0
 23 24  4  0  0  0  0
 23 32  1  0  0  0  0
 24 25  4  0  0  0  0
 24 33  1  0  0  0  0
 25 26  4  0  0  0  0
 25 34  1  0  0  0  0
 26 35  1  0  0  0  0
M  END
> <BCLConfClusterSize>
1

> <ConfClashScore>
0 

> <ConfOneFourInteractionScore>
-0.921809 

> <ConfScore>
0.0244834 

> <ConfScorePBest>
0.00763447 

> <ConfTolerance>
0.372796 

> <RosettaParamsInstructions>
M  ROOT 3
M  POLY_N_BB 3
M  POLY_CA_BB 4
M  POLY_C_BB 2
M  POLY_O_BB 5
M  POLY_IGNORE 9 10 11 12 13 14 15 16 17 18 
M  POLY_UPPER 6
M  POLY_LOWER 8
M  POLY_CHG 0
M  POLY_PROPERTIES ALPHA_AA D_AA PROTEIN AROMATIC POLYMER 
M  END

$$$$



 35 35  0  0  0  0  0  0  0  0999 V2000
   -0.8279    2.1108    0.6346 H   0  0  0  1  0  0  0  0  0  0  0  0
   -1.5531    0.3586   -0.2239 C   0  0  0  1  0  0  0  0  0  0  0  0
   -2.8681    2.2074    0.7794 N   0  0  0  1  0  0  0  0  0  0  0  0
   -1.6629    1.8515    0.0178 C   0  0  0  1  0  0  0  0  0  0  0  0
   -2.2001   -0.4444    0.4431 O   0  0  0  1  0  0  0  0  0  0  0  0
   -0.7128   -0.0132   -1.2016 N   0  0  0  1  0  0  0  0  0  0  0  0
   -2.7966    2.7918    1.5628 H   0  0  0  1  0  0  0  0  0  0  0  0
   -4.0662    1.7339    0.4046 C   0  0  0  1  0  0  0  0  0  0  0  0
   -0.4874   -1.3859   -1.6292 C   0  0  0  1  0  0  0  0  0  0  0  0
   -5.2236    2.0663    1.3261 C   0  0  0  1  0  0  0  0  0  0  0  0
   -4.2341    1.0719   -0.6162 O   0  0  0  1  0  0  0  0  0  0  0  0
   -0.2132    0.6927   -1.6625 H   0  0  0  1  0  0  0  0  0  0  0  0
   -1.2796   -2.0074   -1.2672 H   0  0  0  1  0  0  0  0  0  0  0  0
    0.4456   -1.7329   -1.2367 H   0  0  0  1  0  0  0  0  0  0  0  0
   -0.4624   -1.4267   -2.6981 H   0  0  0  1  0  0  0  0  0  0  0  0
   -4.9149    2.8063    2.0346 H   0  0  0  1  0  0  0  0  0  0  0  0
   -5.5311    1.1825    1.8450 H   0  0  0  1  0  0  0  0  0  0  0  0
   -6.0414    2.4445    0.7491 H   0  0  0  1  0  0  0  0  0  0  0  0
   -1.5347    2.7045   -1.2349 C   0  0  0  1  0  0  0  0  0  0  0  0
   -1.7494    4.1904   -0.9781 C   0  0  0  1  0  0  0  0  0  0  0  0
   -1.3870    5.0508   -2.1580 C   0  0  0  1  0  0  0  0  0  0  0  0
   -2.3177    5.2841   -3.1585 C   0  0  0  1  0  0  0  0  0  0  0  0
   -1.9825    6.0702   -4.2447 C   0  0  0  1  0  0  0  0  0  0  0  0
   -0.7172    6.6296   -4.3311 C   0  0  0  1  0  0  0  0  0  0  0  0
    0.2110    6.3971   -3.3337 C   0  0  0  1  0  0  0  0  0  0  0  0
   -0.1254    5.6087   -2.2442 C   0  0  0  1  0  0  0  0  0  0  0  0
   -2.2628    2.3744   -1.9461 H   0  0  0  1  0  0  0  0  0  0  0  0
   -0.5533    2.5684   -1.6390 H   0  0  0  1  0  0  0  0  0  0  0  0
   -1.1452    4.4829   -0.1449 H   0  0  0  1  0  0  0  0  0  0  0  0
   -2.7813    4.3500   -0.7445 H   0  0  0  1  0  0  0  0  0  0  0  0
   -3.2683    4.8677   -3.0916 H   0  0  0  1  0  0  0  0  0  0  0  0
   -2.6795    6.2419   -4.9972 H   0  0  0  1  0  0  0  0  0  0  0  0
   -0.4662    7.2244   -5.1464 H   0  0  0  1  0  0  0  0  0  0  0  0
    1.1616    6.8136   -3.4005 H   0  0  0  1  0  0  0  0  0  0  0  0
    0.5716    5.4369   -1.4917 H   0  0  0  1  0  0  0  0  0  0  0  0
  1  4  1  0  0  0  0
  2  4  1  0  0  0  0
  2  5  2  0  0  0  0
  2  6  1  0  0  0  0
  3  4  1  0  0  0  0
  3  7  1  0  0  0  0
  3  8  1  0  0  0  0
  4 19  1  0  0  0  0
  6  9  1  0  0  0  0
  6 12  1  0  0  0  0
  8 10  1  0  0  0  0
  8 11  2  0  0  0  0
  9 13  1  0  0  0  0
  9 14  1  0  0  0  0
  9 15  1  0  0  0  0
 10 16  1  0  0  0  0
 10 17  1  0  0  0  0
 10 18  1  0  0  0  0
 19 20  1  0  0  0  0
 19 27  1  0  0  0  0
 19 28  1  0  0  0  0
 20 21  1  0  0  0  0
 20 29  1  0  0  0  0
 20 30  1  0  0  0  0
 21 22  4  0  0  0  0
 21 26  4  0  0  0  0
 22 23  4  0  0  0  0
 22 31  1  0  0  0  0
 23 24  4  0  0  0  0
 23 32  1  0  0  0  0
 24 25  4  0  0  0  0
 24 33  1  0  0  0  0
 25 26  4  0  0  0  0
 25 34  1  0  0  0  0
 26 35  1  0  0  0  0
M  END
> <BCLConfClusterSize>
1

> <ConfClashScore>
0 

> <ConfOneFourInteractionScore>
-0.972477 

> <ConfScore>
0.0319095 

> <ConfScorePBest>
0.00760599 

> <ConfTolerance>
0.308598 

> <RosettaParamsInstructions>
M  ROOT 3
M  POLY_N_BB 3
M  POLY_CA_BB 4
M  POLY_C_BB 2
M  POLY_O_BB 5
M  POLY_IGNORE 9 10 11 12 13 14 15 16 17 18 
M  POLY_UPPER 6
M  POLY_LOWER 8
M  POLY_CHG 0
M  POLY_PROPERTIES ALPHA_AA D_AA PROTEIN AROMATIC POLYMER 
M  END

$$$$



 35 35  0  0  0  0  0  0  0  0999 V2000
   -2.7060    1.8540    0.1304 H   0  0  0  1  0  0  0  0  0  0  0  0
   -0.8905    2.1809    1.1487 C   0  0  0  1  0  0  0  0  0  0  0  0
   -1.3793    0.4136   -0.5115 N   0  0  0  1  0  0  0  0  0  0  0  0
   -1.6639    1.7844   -0.1023 C   0  0  0  1  0  0  0  0  0  0  0  0
    0.0716    2.9460    1.0965 O   0  0  0  1  0  0  0  0  0  0  0  0
   -1.3611    1.6208    2.2742 N   0  0  0  1  0  0  0  0  0  0  0  0
   -0.8689    0.2619   -1.3342 H   0  0  0  1  0  0  0  0  0  0  0  0
   -1.7896   -0.6407    0.1952 C   0  0  0  1  0  0  0  0  0  0  0  0
   -0.6116    1.7357    3.5163 C   0  0  0  1  0  0  0  0  0  0  0  0
   -1.3341   -1.9938   -0.3156 C   0  0  0  1  0  0  0  0  0  0  0  0
   -2.4926   -0.5413    1.1993 O   0  0  0  1  0  0  0  0  0  0  0  0
   -2.2112    1.1334    2.2594 H   0  0  0  1  0  0  0  0  0  0  0  0
   -0.8321    0.8986    4.1453 H   0  0  0  1  0  0  0  0  0  0  0  0
   -0.8879    2.6402    4.0169 H   0  0  0  1  0  0  0  0  0  0  0  0
    0.4361    1.7530    3.3001 H   0  0  0  1  0  0  0  0  0  0  0  0
   -0.2774   -1.9750   -0.4831 H   0  0  0  1  0  0  0  0  0  0  0  0
   -1.8366   -2.2158   -1.2337 H   0  0  0  1  0  0  0  0  0  0  0  0
   -1.5666   -2.7453    0.4097 H   0  0  0  1  0  0  0  0  0  0  0  0
   -1.3943    2.7359   -1.2416 C   0  0  0  1  0  0  0  0  0  0  0  0
   -1.7496    4.1900   -0.9776 C   0  0  0  1  0  0  0  0  0  0  0  0
   -1.3870    5.0508   -2.1581 C   0  0  0  1  0  0  0  0  0  0  0  0
   -2.3176    5.2842   -3.1585 C   0  0  0  1  0  0  0  0  0  0  0  0
   -1.9825    6.0702   -4.2447 C   0  0  0  1  0  0  0  0  0  0  0  0
   -0.7171    6.6296   -4.3311 C   0  0  0  1  0  0  0  0  0  0  0  0
    0.2110    6.3971   -3.3337 C   0  0  0  1  0  0  0  0  0  0  0  0
   -0.1254    5.6087   -2.2443 C   0  0  0  1  0  0  0  0  0  0  0  0
   -1.9609    2.4064   -2.0873 H   0  0  0  1  0  0  0  0  0  0  0  0
   -0.3502    2.6881   -1.4707 H   0  0  0  1  0  0  0  0  0  0  0  0
   -1.2137    4.5314   -0.1167 H   0  0  0  1  0  0  0  0  0  0  0  0
   -2.8015    4.2669   -0.7973 H   0  0  0  1  0  0  0  0  0  0  0  0
   -3.2683    4.8677   -3.0917 H   0  0  0  1  0  0  0  0  0  0  0  0
   -2.6795    6.2419   -4.9973 H   0  0  0  1  0  0  0  0  0  0  0  0
   -0.4662    7.2244   -5.1465 H   0  0  0  1  0  0  0  0  0  0  0  0
    1.1616    6.8136   -3.4006 H   0  0  0  1  0  0  0  0  0  0  0  0
    0.5716    5.4370   -1.4918 H   0  0  0  1  0  0  0  0  0  0  0  0
  1  4  1  0  0  0  0
  2  4  1  0  0  0  0
  2  5  2  0  0  0  0
  2  6  1  0  0  0  0
  3  4  1  0  0  0  0
  3  7  1  0  0  0  0
  3  8  1  0  0  0  0
  4 19  1  0  0  0  0
  6  9  1  0  0  0  0
  6 12  1  0  0  0  0
  8 10  1  0  0  0  0
  8 11  2  0  0  0  0
  9 13  1  0  0  0  0
  9 14  1  0  0  0  0
  9 15  1  0  0  0  0
 10 16  1  0  0  0  0
 10 17  1  0  0  0  0
 10 18  1  0  0  0  0
 19 20  1  0  0  0  0
 19 27  1  0  0  0  0
 19 28  1  0  0  0  0
 20 21  1  0  0  0  0
 20 29  1  0  0  0  0
 20 30  1  0  0  0  0
 21 22  4  0  0  0  0
 21 26  4  0  0  0  0
 22 23  4  0  0  0  0
 22 31  1  0  0  0  0
 23 24  4  0  0  0  0
 23 32  1  0  0  0  0
 24 25  4  0  0  0  0
 24 33  1  0  0  0  0
 25 26  4  0  0  0  0
 25 34  1  0  0  0  0
 26 35  1  0  0  0  0
M  END
> <BCLConfClusterSize>
1

> <ConfClashScore>
0 

> <ConfOneFourInteractionScore>
-0.98595 

> <ConfScore>
0.0334356 

> <ConfScorePBest>
0.00757751 

> <ConfTolerance>
0.238716 

> <RosettaParamsInstructions>
M  ROOT 3
M  POLY_N_BB 3
M  POLY_CA_BB 4
M  POLY_C_BB 2
M  POLY_O_BB 5
M  POLY_IGNORE 9 10 11 12 13 14 15 16 17 18 
M  POLY_UPPER 6
M  POLY_LOWER 8
M  POLY_CHG 0
M  POLY_PROPERTIES ALPHA_AA D_AA PROTEIN AROMATIC POLYMER 
M  END

$$$$



 35 35  0  0  0  0  0  0  0  0999 V2000
   -1.2594    2.3188    0.8756 H   0  0  0  1  0  0  0  0  0  0  0  0
   -1.1446    0.4570   -0.1024 C   0  0  0  1  0  0  0  0  0  0  0  0
   -3.1664    1.8422    0.2261 N   0  0  0  1  0  0  0  0  0  0  0  0
   -1.7144    1.8565    0.0247 C   0  0  0  1  0  0  0  0  0  0  0  0
    0.0685    0.2653   -0.1674 O   0  0  0  1  0  0  0  0  0  0  0  0
   -2.0405   -0.5334   -0.1380 N   0  0  0  1  0  0  0  0  0  0  0  0
   -3.7529    1.8452   -0.5591 H   0  0  0  1  0  0  0  0  0  0  0  0
   -3.7207    1.8253    1.4487 C   0  0  0  1  0  0  0  0  0  0  0  0
   -1.6508   -1.9354   -0.1162 C   0  0  0  1  0  0  0  0  0  0  0  0
   -5.2363    1.8503    1.4852 C   0  0  0  1  0  0  0  0  0  0  0  0
   -3.0587    1.7917    2.4826 O   0  0  0  1  0  0  0  0  0  0  0  0
   -2.9933   -0.3080   -0.1802 H   0  0  0  1  0  0  0  0  0  0  0  0
   -2.4460   -2.5333   -0.5098 H   0  0  0  1  0  0  0  0  0  0  0  0
   -1.4462   -2.2328    0.8911 H   0  0  0  1  0  0  0  0  0  0  0  0
   -0.7736   -2.0708   -0.7137 H   0  0  0  1  0  0  0  0  0  0  0  0
   -5.5948    2.6603    0.8849 H   0  0  0  1  0  0  0  0  0  0  0  0
   -5.5664    1.9814    2.4945 H   0  0  0  1  0  0  0  0  0  0  0  0
   -5.6174    0.9268    1.1019 H   0  0  0  1  0  0  0  0  0  0  0  0
   -1.4087    2.7200   -1.1840 C   0  0  0  1  0  0  0  0  0  0  0  0
   -1.7496    4.1900   -0.9776 C   0  0  0  1  0  0  0  0  0  0  0  0
   -1.3870    5.0508   -2.1581 C   0  0  0  1  0  0  0  0  0  0  0  0
   -2.3176    5.2842   -3.1585 C   0  0  0  1  0  0  0  0  0  0  0  0
   -1.9825    6.0702   -4.2447 C   0  0  0  1  0  0  0  0  0  0  0  0
   -0.7171    6.6296   -4.3311 C   0  0  0  1  0  0  0  0  0  0  0  0
    0.2110    6.3971   -3.3337 C   0  0  0  1  0  0  0  0  0  0  0  0
   -0.1254    5.6087   -2.2443 C   0  0  0  1  0  0  0  0  0  0  0  0
   -1.9751    2.3537   -2.0146 H   0  0  0  1  0  0  0  0  0  0  0  0
   -0.3640    2.6413   -1.4016 H   0  0  0  1  0  0  0  0  0  0  0  0
   -1.2174    4.5459   -0.1203 H   0  0  0  1  0  0  0  0  0  0  0  0
   -2.8022    4.2745   -0.8051 H   0  0  0  1  0  0  0  0  0  0  0  0
   -3.2683    4.8677   -3.0917 H   0  0  0  1  0  0  0  0  0  0  0  0
   -2.6795    6.2419   -4.9973 H   0  0  0  1  0  0  0  0  0  0  0  0
   -0.4662    7.2244   -5.1465 H   0  0  0  1  0  0  0  0  0  0  0  0
    1.1616    6.8136   -3.4006 H   0  0  0  1  0  0  0  0  0  0  0  0
    0.5716    5.4370   -1.4918 H   0  0  0  1  0  0  0  0  0  0  0  0
  1  4  1  0  0  0  0
  2  4  1  0  0  0  0
  2  5  2  0  0  0  0
  2  6  1  0  0  0  0
  3  4  1  0  0  0  0
  3  7  1  0  0  0  0
  3  8  1  0  0  0  0
  4 19  1  0  0  0  0
  6  9  1  0  0  0  0
  6 12  1  0  0  0  0
  8 10  1  0  0  0  0
  8 11  2  0  0  0  0
  9 13  1  0  0  0  0
  9 14  1  0  0  0  0
  9 15  1  0  0  0  0
 10 16  1  0  0  0  0
 10 17  1  0  0  0  0
 10 18  1  0  0  0  0
 19 20  1  0  0  0  0
 19 27  1  0  0  0  0
 19 28  1  0  0  0  0
 20 21  1  0  0  0  0
 20 29  1  0  0  0  0
 20 30  1  0  0  0  0
 21 22  4  0  0  0  0
 21 26  4  0  0  0  0
 22 23  4  0  0  0  0
 22 31  1  0  0  0  0
 23 24  4  0  0  0  0
 23 32  1  0  0  0  0
 24 25  4  0  0  0  0
 24 33  1  0  0  0  0
 25 26  4  0  0  0  0
 25 34  1  0  0  0  0
 26 35  1  0  0  0  0
M  END
> <BCLConfClusterSize>
1

> <ConfClashScore>
0 

> <ConfOneFourInteractionScore>
-0.970454 

> <ConfScore>
0.0335169 

> <ConfScorePBest>
0.00754903 

> <ConfTolerance>
0.249464 

> <RosettaParamsInstructions>
M  ROOT 3
M  POLY_N_BB 3
M  POLY_CA_BB 4
M  POLY_C_BB 2
M  POLY_O_BB 5
M  POLY_IGNORE 9 10 11 12 13 14 15 16 17 18 
M  POLY_UPPER 6
M  POLY_LOWER 8
M  POLY_CHG 0
M  POLY_PROPERTIES ALPHA_AA D_AA PROTEIN AROMATIC POLYMER 
M  END

$$$$



 35 35  0  0  0  0  0  0  0  0999 V2000
   -2.4551    3.7792    1.6396 H   0  0  0  1  0  0  0  0  0  0  0  0
   -3.7224    2.4490    0.6185 C   0  0  0  1  0  0  0  0  0  0  0  0
   -4.3943    4.4866    1.7705 N   0  0  0  1  0  0  0  0  0  0  0  0
   -3.3113    3.8571    1.0025 C   0  0  0  1  0  0  0  0  0  0  0  0
   -3.7817    1.5581    1.4494 O   0  0  0  1  0  0  0  0  0  0  0  0
   -4.0139    2.2569   -0.6932 N   0  0  0  1  0  0  0  0  0  0  0  0
   -4.1680    5.3164    2.2403 H   0  0  0  1  0  0  0  0  0  0  0  0
   -5.6540    4.0559    1.9013 C   0  0  0  1  0  0  0  0  0  0  0  0
   -4.4130    0.9901   -1.1485 C   0  0  0  1  0  0  0  0  0  0  0  0
   -6.5411    4.8812    2.8129 C   0  0  0  1  0  0  0  0  0  0  0  0
   -6.0830    3.0567    1.3268 O   0  0  0  1  0  0  0  0  0  0  0  0
   -3.9456    3.0039   -1.3238 H   0  0  0  1  0  0  0  0  0  0  0  0
   -4.8314    0.4339   -0.3357 H   0  0  0  1  0  0  0  0  0  0  0  0
   -3.5644    0.4678   -1.5383 H   0  0  0  1  0  0  0  0  0  0  0  0
   -5.1475    1.1032   -1.9184 H   0  0  0  1  0  0  0  0  0  0  0  0
   -6.6370    5.8709    2.4177 H   0  0  0  1  0  0  0  0  0  0  0  0
   -6.1043    4.9278    3.7886 H   0  0  0  1  0  0  0  0  0  0  0  0
   -7.5080    4.4273    2.8758 H   0  0  0  1  0  0  0  0  0  0  0  0
   -2.9210    4.7377   -0.1788 C   0  0  0  1  0  0  0  0  0  0  0  0
   -1.7496    4.1900   -0.9776 C   0  0  0  1  0  0  0  0  0  0  0  0
   -1.3870    5.0508   -2.1581 C   0  0  0  1  0  0  0  0  0  0  0  0
   -2.3176    5.2842   -3.1585 C   0  0  0  1  0  0  0  0  0  0  0  0
   -1.9825    6.0702   -4.2447 C   0  0  0  1  0  0  0  0  0  0  0  0
   -0.7171    6.6296   -4.3311 C   0  0  0  1  0  0  0  0  0  0  0  0
    0.2110    6.3971   -3.3337 C   0  0  0  1  0  0  0  0  0  0  0  0
   -0.1254    5.6087   -2.2443 C   0  0  0  1  0  0  0  0  0  0  0  0
   -2.6555    5.7054    0.1925 H   0  0  0  1  0  0  0  0  0  0  0  0
   -3.7651    4.8245   -0.8307 H   0  0  0  1  0  0  0  0  0  0  0  0
   -2.0067    3.2143   -1.3338 H   0  0  0  1  0  0  0  0  0  0  0  0
   -0.8992    4.1218   -0.3318 H   0  0  0  1  0  0  0  0  0  0  0  0
   -3.2683    4.8677   -3.0917 H   0  0  0  1  0  0  0  0  0  0  0  0
   -2.6795    6.2419   -4.9973 H   0  0  0  1  0  0  0  0  0  0  0  0
   -0.4662    7.2244   -5.1465 H   0  0  0  1  0  0  0  0  0  0  0  0
    1.1616    6.8136   -3.4006 H   0  0  0  1  0  0  0  0  0  0  0  0
    0.5716    5.4370   -1.4918 H   0  0  0  1  0  0  0  0  0  0  0  0
  1  4  1  0  0  0  0
  2  4  1  0  0  0  0
  2  5  2  0  0  0  0
  2  6  1  0  0  0  0
  3  4  1  0  0  0  0
  3  7  1  0  0  0  0
  3  8  1  0  0  0  0
  4 19  1  0  0  0  0
  6  9  1  0  0  0  0
  6 12  1  0  0  0  0
  8 10  1  0  0  0  0
  8 11  2  0  0  0  0
  9 13  1  0  0  0  0
  9 14  1  0  0  0  0
  9 15  1  0  0  0  0
 10 16  1  0  0  0  0
 10 17  1  0  0  0  0
 10 18  1  0  0  0  0
 19 20  1  0  0  0  0
 19 27  1  0  0  0  0
 19 28  1  0  0  0  0
 20 21  1  0  0  0  0
 20 29  1  0  0  0  0
 20 30  1  0  0  0  0
 21 22  4  0  0  0  0
 21 26  4  0  0  0  0
 22 23  4  0  0  0  0
 22 31  1  0  0  0  0
 23 24  4  0  0  0  0
 23 32  1  0  0  0  0
 24 25  4  0  0  0  0
 24 33  1  0  0  0  0
 25 26  4  0  0  0  0
 25 34  1  0  0  0  0
 26 35  1  0  0  0  0
M  END
> <BCLConfClusterSize>
1

> <ConfClashScore>
0.000901807 

> <ConfOneFourInteractionScore>
-0.943527 

> <ConfScore>
0.0371005 

> <ConfScorePBest>
0.00752055 

> <ConfTolerance>
0.408978 

> <RosettaParamsInstructions>
M  ROOT 3
M  POLY_N_BB 3
M  POLY_CA_BB 4
M  POLY_C_BB 2
M  POLY_O_BB 5
M  POLY_IGNORE 9 10 11 12 13 14 15 16 17 18 
M  POLY_UPPER 6
M  POLY_LOWER 8
M  POLY_CHG 0
M  POLY_PROPERTIES ALPHA_AA D_AA PROTEIN AROMATIC POLYMER 
M  END

$$$$



 35 35  0  0  0  0  0  0  0  0999 V2000
   -1.7874    3.6031    1.7790 H   0  0  0  1  0  0  0  0  0  0  0  0
   -3.5737    2.8749    0.9161 C   0  0  0  1  0  0  0  0  0  0  0  0
   -3.3064    4.8773    2.3958 N   0  0  0  1  0  0  0  0  0  0  0  0
   -2.6854    4.0217    1.3749 C   0  0  0  1  0  0  0  0  0  0  0  0
   -3.3783    2.2254   -0.0938 O   0  0  0  1  0  0  0  0  0  0  0  0
   -4.6249    2.5965    1.7021 N   0  0  0  1  0  0  0  0  0  0  0  0
   -3.5285    5.7912    2.1201 H   0  0  0  1  0  0  0  0  0  0  0  0
   -3.6120    4.5405    3.6970 C   0  0  0  1  0  0  0  0  0  0  0  0
   -5.5901    1.5843    1.3002 C   0  0  0  1  0  0  0  0  0  0  0  0
   -4.0925    5.6631    4.5698 C   0  0  0  1  0  0  0  0  0  0  0  0
   -3.4861    3.3912    4.0752 O   0  0  0  1  0  0  0  0  0  0  0  0
   -4.7429    3.0758    2.5487 H   0  0  0  1  0  0  0  0  0  0  0  0
   -5.3216    1.1961    0.3399 H   0  0  0  1  0  0  0  0  0  0  0  0
   -6.5649    2.0223    1.2477 H   0  0  0  1  0  0  0  0  0  0  0  0
   -5.5934    0.7902    2.0173 H   0  0  0  1  0  0  0  0  0  0  0  0
   -3.7831    5.4883    5.5791 H   0  0  0  1  0  0  0  0  0  0  0  0
   -5.1605    5.7148    4.5283 H   0  0  0  1  0  0  0  0  0  0  0  0
   -3.6765    6.5863    4.2242 H   0  0  0  1  0  0  0  0  0  0  0  0
   -2.2931    4.9359    0.2302 C   0  0  0  1  0  0  0  0  0  0  0  0
   -1.7496    4.1900   -0.9776 C   0  0  0  1  0  0  0  0  0  0  0  0
   -1.3870    5.0508   -2.1581 C   0  0  0  1  0  0  0  0  0  0  0  0
   -2.3176    5.2842   -3.1585 C   0  0  0  1  0  0  0  0  0  0  0  0
   -1.9825    6.0702   -4.2447 C   0  0  0  1  0  0  0  0  0  0  0  0
   -0.7171    6.6296   -4.3311 C   0  0  0  1  0  0  0  0  0  0  0  0
    0.2110    6.3971   -3.3337 C   0  0  0  1  0  0  0  0  0  0  0  0
   -0.1254    5.6087   -2.2443 C   0  0  0  1  0  0  0  0  0  0  0  0
   -1.5403    5.6118    0.5785 H   0  0  0  1  0  0  0  0  0  0  0  0
   -3.1571    5.4892   -0.0735 H   0  0  0  1  0  0  0  0  0  0  0  0
   -2.4938    3.4901   -1.2957 H   0  0  0  1  0  0  0  0  0  0  0  0
   -0.8706    3.6622   -0.6715 H   0  0  0  1  0  0  0  0  0  0  0  0
   -3.2683    4.8677   -3.0917 H   0  0  0  1  0  0  0  0  0  0  0  0
   -2.6795    6.2419   -4.9973 H   0  0  0  1  0  0  0  0  0  0  0  0
   -0.4662    7.2244   -5.1465 H   0  0  0  1  0  0  0  0  0  0  0  0
    1.1616    6.8136   -3.4006 H   0  0  0  1  0  0  0  0  0  0  0  0
    0.5716    5.4370   -1.4918 H   0  0  0  1  0  0  0  0  0  0  0  0
  1  4  1  0  0  0  0
  2  4  1  0  0  0  0
  2  5  2  0  0  0  0
  2  6  1  0  0  0  0
  3  4  1  0  0  0  0
  3  7  1  0  0  0  0
  3  8  1  0  0  0  0
  4 19  1  0  0  0  0
  6  9  1  0  0  0  0
  6 12  1  0  0  0  0
  8 10  1  0  0  0  0
  8 11  2  0  0  0  0
  9 13  1  0  0  0  0
  9 14  1  0  0  0  0
  9 15  1  0  0  0  0
 10 16  1  0  0  0  0
 10 17  1  0  0  0  0
 10 18  1  0  0  0  0
 19 20  1  0  0  0  0
 19 27  1  0  0  0  0
 19 28  1  0  0  0  0
 20 21  1  0  0  0  0
 20 29  1  0  0  0  0
 20 30  1  0  0  0  0
 21 22  4  0  0  0  0
 21 26  4  0  0  0  0
 22 23  4  0  0  0  0
 22 31  1  0  0  0  0
 23 24  4  0  0  0  0
 23 32  1  0  0  0  0
 24 25  4  0  0  0  0
 24 33  1  0  0  0  0
 25 26  4  0  0  0  0
 25 34  1  0  0  0  0
 26 35  1  0  0  0  0
M  END
> <BCLConfClusterSize>
1

> <ConfClashScore>
0.00388866 

> <ConfOneFourInteractionScore>
-0.970454 

> <ConfScore>
0.0390846 

> <ConfScorePBest>
0.00749207 

> <ConfTolerance>
0.204512 

> <RosettaParamsInstructions>
M  ROOT 3
M  POLY_N_BB 3
M  POLY_CA_BB 4
M  POLY_C_BB 2
M  POLY_O_BB 5
M  POLY_IGNORE 9 10 11 12 13 14 15 16 17 18 
M  POLY_UPPER 6
M  POLY_LOWER 8
M  POLY_CHG 0
M  POLY_PROPERTIES ALPHA_AA D_AA PROTEIN AROMATIC POLYMER 
M  END

$$$$



 35 35  0  0  0  0  0  0  0  0999 V2000
   -2.6423    4.6984    2.2635 H   0  0  0  1  0  0  0  0  0  0  0  0
   -1.3762    3.1266    1.6779 C   0  0  0  1  0  0  0  0  0  0  0  0
   -3.7758    3.3733    1.1706 N   0  0  0  1  0  0  0  0  0  0  0  0
   -2.5234    4.0783    1.3997 C   0  0  0  1  0  0  0  0  0  0  0  0
   -0.3036    3.5326    2.1233 O   0  0  0  1  0  0  0  0  0  0  0  0
   -1.6128    1.8332    1.4076 N   0  0  0  1  0  0  0  0  0  0  0  0
   -4.2472    3.5487    0.3295 H   0  0  0  1  0  0  0  0  0  0  0  0
   -4.3304    2.5065    2.0192 C   0  0  0  1  0  0  0  0  0  0  0  0
   -0.6091    0.7997    1.6133 C   0  0  0  1  0  0  0  0  0  0  0  0
   -5.6758    1.9452    1.6019 C   0  0  0  1  0  0  0  0  0  0  0  0
   -3.8039    2.1746    3.0685 O   0  0  0  1  0  0  0  0  0  0  0  0
   -2.4921    1.5759    1.0596 H   0  0  0  1  0  0  0  0  0  0  0  0
    0.0555    1.0982    2.3970 H   0  0  0  1  0  0  0  0  0  0  0  0
   -0.0536    0.6575    0.7099 H   0  0  0  1  0  0  0  0  0  0  0  0
   -1.0910   -0.1164    1.8843 H   0  0  0  1  0  0  0  0  0  0  0  0
   -6.3217    2.7463    1.3090 H   0  0  0  1  0  0  0  0  0  0  0  0
   -6.1125    1.4177    2.4242 H   0  0  0  1  0  0  0  0  0  0  0  0
   -5.5426    1.2753    0.7782 H   0  0  0  1  0  0  0  0  0  0  0  0
   -2.2129    4.9945    0.2260 C   0  0  0  1  0  0  0  0  0  0  0  0
   -1.7496    4.1900   -0.9776 C   0  0  0  1  0  0  0  0  0  0  0  0
   -1.3870    5.0508   -2.1581 C   0  0  0  1  0  0  0  0  0  0  0  0
   -2.3176    5.2842   -3.1585 C   0  0  0  1  0  0  0  0  0  0  0  0
   -1.9825    6.0702   -4.2447 C   0  0  0  1  0  0  0  0  0  0  0  0
   -0.7171    6.6296   -4.3311 C   0  0  0  1  0  0  0  0  0  0  0  0
    0.2110    6.3971   -3.3337 C   0  0  0  1  0  0  0  0  0  0  0  0
   -0.1254    5.6087   -2.2443 C   0  0  0  1  0  0  0  0  0  0  0  0
   -1.4402    5.6782    0.5095 H   0  0  0  1  0  0  0  0  0  0  0  0
   -3.0949    5.5408   -0.0356 H   0  0  0  1  0  0  0  0  0  0  0  0
   -2.5380    3.5277   -1.2685 H   0  0  0  1  0  0  0  0  0  0  0  0
   -0.8897    3.6193   -0.6953 H   0  0  0  1  0  0  0  0  0  0  0  0
   -3.2683    4.8677   -3.0917 H   0  0  0  1  0  0  0  0  0  0  0  0
   -2.6795    6.2419   -4.9973 H   0  0  0  1  0  0  0  0  0  0  0  0
   -0.4662    7.2244   -5.1465 H   0  0  0  1  0  0  0  0  0  0  0  0
    1.1616    6.8136   -3.4006 H   0  0  0  1  0  0  0  0  0  0  0  0
    0.5716    5.4370   -1.4918 H   0  0  0  1  0  0  0  0  0  0  0  0
  1  4  1  0  0  0  0
  2  4  1  0  0  0  0
  2  5  2  0  0  0  0
  2  6  1  0  0  0  0
  3  4  1  0  0  0  0
  3  7  1  0  0  0  0
  3  8  1  0  0  0  0
  4 19  1  0  0  0  0
  6  9  1  0  0  0  0
  6 12  1  0  0  0  0
  8 10  1  0  0  0  0
  8 11  2  0  0  0  0
  9 13  1  0  0  0  0
  9 14  1  0  0  0  0
  9 15  1  0  0  0  0
 10 16  1  0  0  0  0
 10 17  1  0  0  0  0
 10 18  1  0  0  0  0
 19 20  1  0  0  0  0
 19 27  1  0  0  0  0
 19 28  1  0  0  0  0
 20 21  1  0  0  0  0
 20 29  1  0  0  0  0
 20 30  1  0  0  0  0
 21 22  4  0  0  0  0
 21 26  4  0  0  0  0
 22 23  4  0  0  0  0
 22 31  1  0  0  0  0
 23 24  4  0  0  0  0
 23 32  1  0  0  0  0
 24 25  4  0  0  0  0
 24 33  1  0  0  0  0
 25 26  4  0  0  0  0
 25 34  1  0  0  0  0
 26 35  1  0  0  0  0
M  END
> <BCLConfClusterSize>
1

> <ConfClashScore>
0 

> <ConfOneFourInteractionScore>
-0.968258 

> <ConfScore>
0.0392237 

> <ConfScorePBest>
0.00746359 

> <ConfTolerance>
0.198648 

> <RosettaParamsInstructions>
M  ROOT 3
M  POLY_N_BB 3
M  POLY_CA_BB 4
M  POLY_C_BB 2
M  POLY_O_BB 5
M  POLY_IGNORE 9 10 11 12 13 14 15 16 17 18 
M  POLY_UPPER 6
M  POLY_LOWER 8
M  POLY_CHG 0
M  POLY_PROPERTIES ALPHA_AA D_AA PROTEIN AROMATIC POLYMER 
M  END

$$$$



 35 35  0  0  0  0  0  0  0  0999 V2000
   -1.8216    4.7454    2.3708 H   0  0  0  1  0  0  0  0  0  0  0  0
   -0.9347    2.9772    1.7604 C   0  0  0  1  0  0  0  0  0  0  0  0
   -3.3467    3.6137    1.6096 N   0  0  0  1  0  0  0  0  0  0  0  0
   -1.9431    4.0872    1.5360 C   0  0  0  1  0  0  0  0  0  0  0  0
   -1.1187    2.1115    2.6120 O   0  0  0  1  0  0  0  0  0  0  0  0
    0.1532    3.0100    0.9745 N   0  0  0  1  0  0  0  0  0  0  0  0
   -3.9437    3.7842    0.8513 H   0  0  0  1  0  0  0  0  0  0  0  0
   -3.8247    2.9638    2.6719 C   0  0  0  1  0  0  0  0  0  0  0  0
    1.2047    2.0003    1.1305 C   0  0  0  1  0  0  0  0  0  0  0  0
   -5.3049    2.6571    2.6429 C   0  0  0  1  0  0  0  0  0  0  0  0
   -3.1227    2.6279    3.6220 O   0  0  0  1  0  0  0  0  0  0  0  0
    0.2446    3.7103    0.2951 H   0  0  0  1  0  0  0  0  0  0  0  0
    2.0818    2.4581    1.5380 H   0  0  0  1  0  0  0  0  0  0  0  0
    1.4352    1.5753    0.1760 H   0  0  0  1  0  0  0  0  0  0  0  0
    0.8646    1.2307    1.7915 H   0  0  0  1  0  0  0  0  0  0  0  0
   -5.5892    2.1821    3.5586 H   0  0  0  1  0  0  0  0  0  0  0  0
   -5.5178    2.0048    1.8219 H   0  0  0  1  0  0  0  0  0  0  0  0
   -5.8553    3.5675    2.5278 H   0  0  0  1  0  0  0  0  0  0  0  0
   -1.6721    4.9458    0.3156 C   0  0  0  1  0  0  0  0  0  0  0  0
   -1.7891    4.1846   -0.9948 C   0  0  0  1  0  0  0  0  0  0  0  0
   -1.3784    5.0520   -2.1545 C   0  0  0  1  0  0  0  0  0  0  0  0
   -2.3122    5.2828   -3.1526 C   0  0  0  1  0  0  0  0  0  0  0  0
   -1.9813    6.0682   -4.2406 C   0  0  0  1  0  0  0  0  0  0  0  0
   -0.7171    6.6296   -4.3310 C   0  0  0  1  0  0  0  0  0  0  0  0
    0.2141    6.3997   -3.3359 C   0  0  0  1  0  0  0  0  0  0  0  0
   -0.1180    5.6119   -2.2447 C   0  0  0  1  0  0  0  0  0  0  0  0
   -0.6802    5.3399    0.3916 H   0  0  0  1  0  0  0  0  0  0  0  0
   -2.3765    5.7512    0.3042 H   0  0  0  1  0  0  0  0  0  0  0  0
   -2.8041    3.8744   -1.1309 H   0  0  0  1  0  0  0  0  0  0  0  0
   -1.1544    3.3239   -0.9584 H   0  0  0  1  0  0  0  0  0  0  0  0
   -3.2620    4.8648   -3.0828 H   0  0  0  1  0  0  0  0  0  0  0  0
   -2.6806    6.2379   -4.9914 H   0  0  0  1  0  0  0  0  0  0  0  0
   -0.4693    7.2239   -5.1477 H   0  0  0  1  0  0  0  0  0  0  0  0
    1.1639    6.8177   -3.4058 H   0  0  0  1  0  0  0  0  0  0  0  0
    0.5813    5.4421   -1.4939 H   0  0  0  1  0  0  0  0  0  0  0  0
  1  4  1  0  0  0  0
  2  4  1  0  0  0  0
  2  5  2  0  0  0  0
  2  6  1  0  0  0  0
  3  4  1  0  0  0  0
  3  7  1  0  0  0  0
  3  8  1  0  0  0  0
  4 19  1  0  0  0  0
  6  9  1  0  0  0  0
  6 12  1  0  0  0  0
  8 10  1  0  0  0  0
  8 11  2  0  0  0  0
  9 13  1  0  0  0  0
  9 14  1  0  0  0  0
  9 15  1  0  0  0  0
 10 16  1  0  0  0  0
 10 17  1  0  0  0  0
 10 18  1  0  0  0  0
 19 20  1  0  0  0  0
 19 27  1  0  0  0  0
 19 28  1  0  0  0  0
 20 21  1  0  0  0  0
 20 29  1  0  0  0  0
 20 30  1  0  0  0  0
 21 22  4  0  0  0  0
 21 26  4  0  0  0  0
 22 23  4  0  0  0  0
 22 31  1  0  0  0  0
 23 24  4  0  0  0  0
 23 32  1  0  0  0  0
 24 25  4  0  0  0  0
 24 33  1  0  0  0  0
 25 26  4  0  0  0  0
 25 34  1  0  0  0  0
 26 35  1  0  0  0  0
M  END
> <BCLConfClusterSize>
1

> <ConfClashScore>
0 

> <ConfOneFourInteractionScore>
-0.942331 

> <ConfScore>
0.0437697 

> <ConfScorePBest>
0.0074351 

> <ConfTolerance>
0.40745 

> <RosettaParamsInstructions>
M  ROOT 3
M  POLY_N_BB 3
M  POLY_CA_BB 4
M  POLY_C_BB 2
M  POLY_O_BB 5
M  POLY_IGNORE 9 10 11 12 13 14 15 16 17 18 
M  POLY_UPPER 6
M  POLY_LOWER 8
M  POLY_CHG 0
M  POLY_PROPERTIES ALPHA_AA D_AA PROTEIN AROMATIC POLYMER 
M  END

$$$$



 35 35  0  0  0  0  0  0  0  0999 V2000
   -3.4385    3.3982    0.8915 H   0  0  0  1  0  0  0  0  0  0  0  0
   -3.2357    4.6852    2.5362 C   0  0  0  1  0  0  0  0  0  0  0  0
   -1.5423    3.1626    1.6823 N   0  0  0  1  0  0  0  0  0  0  0  0
   -2.6714    4.0224    1.3000 C   0  0  0  1  0  0  0  0  0  0  0  0
   -3.3304    4.0674    3.5959 O   0  0  0  1  0  0  0  0  0  0  0  0
   -3.6272    5.9591    2.4426 N   0  0  0  1  0  0  0  0  0  0  0  0
   -0.6638    3.3294    1.2812 H   0  0  0  1  0  0  0  0  0  0  0  0
   -1.6725    2.1569    2.5619 C   0  0  0  1  0  0  0  0  0  0  0  0
   -4.1339    6.7027    3.5863 C   0  0  0  1  0  0  0  0  0  0  0  0
   -0.4166    1.3513    2.8321 C   0  0  0  1  0  0  0  0  0  0  0  0
   -2.7347    1.8909    3.1229 O   0  0  0  1  0  0  0  0  0  0  0  0
   -3.5713    6.4085    1.5735 H   0  0  0  1  0  0  0  0  0  0  0  0
   -4.8658    7.4102    3.2566 H   0  0  0  1  0  0  0  0  0  0  0  0
   -3.3265    7.2201    4.0611 H   0  0  0  1  0  0  0  0  0  0  0  0
   -4.5819    6.0246    4.2823 H   0  0  0  1  0  0  0  0  0  0  0  0
    0.1372    1.8084    3.6253 H   0  0  0  1  0  0  0  0  0  0  0  0
    0.1852    1.3222    1.9479 H   0  0  0  1  0  0  0  0  0  0  0  0
   -0.6861    0.3548    3.1137 H   0  0  0  1  0  0  0  0  0  0  0  0
   -2.2485    4.9921    0.2133 C   0  0  0  1  0  0  0  0  0  0  0  0
   -1.7496    4.1900   -0.9776 C   0  0  0  1  0  0  0  0  0  0  0  0
   -1.3870    5.0508   -2.1581 C   0  0  0  1  0  0  0  0  0  0  0  0
   -2.3176    5.2842   -3.1585 C   0  0  0  1  0  0  0  0  0  0  0  0
   -1.9825    6.0702   -4.2447 C   0  0  0  1  0  0  0  0  0  0  0  0
   -0.7171    6.6296   -4.3311 C   0  0  0  1  0  0  0  0  0  0  0  0
    0.2110    6.3971   -3.3337 C   0  0  0  1  0  0  0  0  0  0  0  0
   -0.1254    5.6087   -2.2443 C   0  0  0  1  0  0  0  0  0  0  0  0
   -1.4651    5.6235    0.5773 H   0  0  0  1  0  0  0  0  0  0  0  0
   -3.0841    5.5926   -0.0801 H   0  0  0  1  0  0  0  0  0  0  0  0
   -2.5192    3.5092   -1.2762 H   0  0  0  1  0  0  0  0  0  0  0  0
   -0.8822    3.6396   -0.6782 H   0  0  0  1  0  0  0  0  0  0  0  0
   -3.2683    4.8677   -3.0917 H   0  0  0  1  0  0  0  0  0  0  0  0
   -2.6795    6.2419   -4.9973 H   0  0  0  1  0  0  0  0  0  0  0  0
   -0.4662    7.2244   -5.1465 H   0  0  0  1  0  0  0  0  0  0  0  0
    1.1616    6.8136   -3.4006 H   0  0  0  1  0  0  0  0  0  0  0  0
    0.5716    5.4370   -1.4918 H   0  0  0  1  0  0  0  0  0  0  0  0
  1  4  1  0  0  0  0
  2  4  1  0  0  0  0
  2  5  2  0  0  0  0
  2  6  1  0  0  0  0
  3  4  1  0  0  0  0
  3  7  1  0  0  0  0
  3  8  1  0  0  0  0
  4 19  1  0  0  0  0
  6  9  1  0  0  0  0
  6 12  1  0  0  0  0
  8 10  1  0  0  0  0
  8 11  2  0  0  0  0
  9 13  1  0  0  0  0
  9 14  1  0  0  0  0
  9 15  1  0  0  0  0
 10 16  1  0  0  0  0
 10 17  1  0  0  0  0
 10 18  1  0  0  0  0
 19 20  1  0  0  0  0
 19 27  1  0  0  0  0
 19 28  1  0  0  0  0
 20 21  1  0  0  0  0
 20 29  1  0  0  0  0
 20 30  1  0  0  0  0
 21 22  4  0  0  0  0
 21 26  4  0  0  0  0
 22 23  4  0  0  0  0
 22 31  1  0  0  0  0
 23 24  4  0  0  0  0
 23 32  1  0  0  0  0
 24 25  4  0  0  0  0
 24 33  1  0  0  0  0
 25 26  4  0  0  0  0
 25 34  1  0  0  0  0
 26 35  1  0  0  0  0
M  END
> <BCLConfClusterSize>
1

> <ConfClashScore>
0 

> <ConfOneFourInteractionScore>
-0.969249 

> <ConfScore>
0.0505032 

> <ConfScorePBest>
0.00740662 

> <ConfTolerance>
0.29847 

> <RosettaParamsInstructions>
M  ROOT 3
M  POLY_N_BB 3
M  POLY_CA_BB 4
M  POLY_C_BB 2
M  POLY_O_BB 5
M  POLY_IGNORE 9 10 11 12 13 14 15 16 17 18 
M  POLY_UPPER 6
M  POLY_LOWER 8
M  POLY_CHG 0
M  POLY_PROPERTIES ALPHA_AA D_AA PROTEIN AROMATIC POLYMER 
M  END

$$$$



 35 35  0  0  0  0  0  0  0  0999 V2000
   -2.9267    4.7980    2.1896 H   0  0  0  1  0  0  0  0  0  0  0  0
   -1.8270    3.0400    1.8457 C   0  0  0  1  0  0  0  0  0  0  0  0
   -4.0211    3.5738    0.9321 N   0  0  0  1  0  0  0  0  0  0  0  0
   -2.7383    4.1504    1.3589 C   0  0  0  1  0  0  0  0  0  0  0  0
   -0.8801    3.2498    2.5817 O   0  0  0  1  0  0  0  0  0  0  0  0
   -2.0670    1.7869    1.4566 N   0  0  0  1  0  0  0  0  0  0  0  0
   -4.3837    3.8230    0.0564 H   0  0  0  1  0  0  0  0  0  0  0  0
   -4.7101    2.7217    1.6965 C   0  0  0  1  0  0  0  0  0  0  0  0
   -1.3325    0.6171    1.9149 C   0  0  0  1  0  0  0  0  0  0  0  0
   -6.0259    2.2360    1.1203 C   0  0  0  1  0  0  0  0  0  0  0  0
   -4.3180    2.3441    2.7998 O   0  0  0  1  0  0  0  0  0  0  0  0
   -2.7926    1.6432    0.8138 H   0  0  0  1  0  0  0  0  0  0  0  0
   -0.8470    0.8407    2.8418 H   0  0  0  1  0  0  0  0  0  0  0  0
   -0.5988    0.3481    1.1840 H   0  0  0  1  0  0  0  0  0  0  0  0
   -2.0117   -0.1976    2.0557 H   0  0  0  1  0  0  0  0  0  0  0  0
   -5.8513    1.7736    0.1713 H   0  0  0  1  0  0  0  0  0  0  0  0
   -6.6886    3.0667    0.9954 H   0  0  0  1  0  0  0  0  0  0  0  0
   -6.4663    1.5249    1.7876 H   0  0  0  1  0  0  0  0  0  0  0  0
   -2.1474    4.9967    0.2477 C   0  0  0  1  0  0  0  0  0  0  0  0
   -1.7496    4.1900   -0.9776 C   0  0  0  1  0  0  0  0  0  0  0  0
   -1.3870    5.0508   -2.1581 C   0  0  0  1  0  0  0  0  0  0  0  0
   -2.3176    5.2842   -3.1585 C   0  0  0  1  0  0  0  0  0  0  0  0
   -1.9825    6.0702   -4.2447 C   0  0  0  1  0  0  0  0  0  0  0  0
   -0.7171    6.6296   -4.3311 C   0  0  0  1  0  0  0  0  0  0  0  0
    0.2110    6.3971   -3.3337 C   0  0  0  1  0  0  0  0  0  0  0  0
   -0.1254    5.6087   -2.2443 C   0  0  0  1  0  0  0  0  0  0  0  0
   -1.2772    5.4922    0.6248 H   0  0  0  1  0  0  0  0  0  0  0  0
   -2.8738    5.7251   -0.0468 H   0  0  0  1  0  0  0  0  0  0  0  0
   -2.5710    3.5622   -1.2534 H   0  0  0  1  0  0  0  0  0  0  0  0
   -0.9049    3.5832   -0.7263 H   0  0  0  1  0  0  0  0  0  0  0  0
   -3.2683    4.8677   -3.0917 H   0  0  0  1  0  0  0  0  0  0  0  0
   -2.6795    6.2419   -4.9973 H   0  0  0  1  0  0  0  0  0  0  0  0
   -0.4662    7.2244   -5.1465 H   0  0  0  1  0  0  0  0  0  0  0  0
    1.1616    6.8136   -3.4006 H   0  0  0  1  0  0  0  0  0  0  0  0
    0.5716    5.4370   -1.4918 H   0  0  0  1  0  0  0  0  0  0  0  0
  1  4  1  0  0  0  0
  2  4  1  0  0  0  0
  2  5  2  0  0  0  0
  2  6  1  0  0  0  0
  3  4  1  0  0  0  0
  3  7  1  0  0  0  0
  3  8  1  0  0  0  0
  4 19  1  0  0  0  0
  6  9  1  0  0  0  0
  6 12  1  0  0  0  0
  8 10  1  0  0  0  0
  8 11  2  0  0  0  0
  9 13  1  0  0  0  0
  9 14  1  0  0  0  0
  9 15  1  0  0  0  0
 10 16  1  0  0  0  0
 10 17  1  0  0  0  0
 10 18  1  0  0  0  0
 19 20  1  0  0  0  0
 19 27  1  0  0  0  0
 19 28  1  0  0  0  0
 20 21  1  0  0  0  0
 20 29  1  0  0  0  0
 20 30  1  0  0  0  0
 21 22  4  0  0  0  0
 21 26  4  0  0  0  0
 22 23  4  0  0  0  0
 22 31  1  0  0  0  0
 23 24  4  0  0  0  0
 23 32  1  0  0  0  0
 24 25  4  0  0  0  0
 24 33  1  0  0  0  0
 25 26  4  0  0  0  0
 25 34  1  0  0  0  0
 26 35  1  0  0  0  0
M  END
> <BCLConfClusterSize>
1

> <ConfClashScore>
0 

> <ConfOneFourInteractionScore>
-0.948736 

> <ConfScore>
0.0530178 

> <ConfScorePBest>
0.00737814 

> <ConfTolerance>
0.251628 

> <RosettaParamsInstructions>
M  ROOT 3
M  POLY_N_BB 3
M  POLY_CA_BB 4
M  POLY_C_BB 2
M  POLY_O_BB 5
M  POLY_IGNORE 9 10 11 12 13 14 15 16 17 18 
M  POLY_UPPER 6
M  POLY_LOWER 8
M  POLY_CHG 0
M  POLY_PROPERTIES ALPHA_AA D_AA PROTEIN AROMATIC POLYMER 
M  END

$$$$



 35 35  0  0  0  0  0  0  0  0999 V2000
   -3.2554    3.4861    1.1704 H   0  0  0  1  0  0  0  0  0  0  0  0
   -2.7669    4.8165    2.7104 C   0  0  0  1  0  0  0  0  0  0  0  0
   -1.2674    3.1688    1.5963 N   0  0  0  1  0  0  0  0  0  0  0  0
   -2.4059    4.0805    1.4349 C   0  0  0  1  0  0  0  0  0  0  0  0
   -3.9360    5.1037    2.9638 O   0  0  0  1  0  0  0  0  0  0  0  0
   -1.7741    5.1444    3.5524 N   0  0  0  1  0  0  0  0  0  0  0  0
   -0.5097    3.2445    0.9794 H   0  0  0  1  0  0  0  0  0  0  0  0
   -1.2279    2.2392    2.5551 C   0  0  0  1  0  0  0  0  0  0  0  0
   -2.0248    5.7538    4.8500 C   0  0  0  1  0  0  0  0  0  0  0  0
   -0.0845    1.2475    2.4643 C   0  0  0  1  0  0  0  0  0  0  0  0
   -2.0559    2.1762    3.4600 O   0  0  0  1  0  0  0  0  0  0  0  0
   -0.8484    4.9672    3.2840 H   0  0  0  1  0  0  0  0  0  0  0  0
   -2.9670    5.4154    5.2276 H   0  0  0  1  0  0  0  0  0  0  0  0
   -2.0442    6.8186    4.7459 H   0  0  0  1  0  0  0  0  0  0  0  0
   -1.2474    5.4756    5.5306 H   0  0  0  1  0  0  0  0  0  0  0  0
    0.8357    1.7409    2.6981 H   0  0  0  1  0  0  0  0  0  0  0  0
   -0.0343    0.8513    1.4716 H   0  0  0  1  0  0  0  0  0  0  0  0
   -0.2481    0.4503    3.1591 H   0  0  0  1  0  0  0  0  0  0  0  0
   -2.1360    4.9968    0.2513 C   0  0  0  1  0  0  0  0  0  0  0  0
   -1.7496    4.1900   -0.9776 C   0  0  0  1  0  0  0  0  0  0  0  0
   -1.3870    5.0508   -2.1581 C   0  0  0  1  0  0  0  0  0  0  0  0
   -2.3176    5.2842   -3.1585 C   0  0  0  1  0  0  0  0  0  0  0  0
   -1.9825    6.0702   -4.2447 C   0  0  0  1  0  0  0  0  0  0  0  0
   -0.7171    6.6296   -4.3311 C   0  0  0  1  0  0  0  0  0  0  0  0
    0.2110    6.3971   -3.3337 C   0  0  0  1  0  0  0  0  0  0  0  0
   -0.1254    5.6087   -2.2443 C   0  0  0  1  0  0  0  0  0  0  0  0
   -1.3366    5.6635    0.4989 H   0  0  0  1  0  0  0  0  0  0  0  0
   -3.0189    5.5619    0.0366 H   0  0  0  1  0  0  0  0  0  0  0  0
   -2.5765    3.5683   -1.2507 H   0  0  0  1  0  0  0  0  0  0  0  0
   -0.9078    3.5770   -0.7317 H   0  0  0  1  0  0  0  0  0  0  0  0
   -3.2683    4.8677   -3.0917 H   0  0  0  1  0  0  0  0  0  0  0  0
   -2.6795    6.2419   -4.9973 H   0  0  0  1  0  0  0  0  0  0  0  0
   -0.4662    7.2244   -5.1465 H   0  0  0  1  0  0  0  0  0  0  0  0
    1.1616    6.8136   -3.4006 H   0  0  0  1  0  0  0  0  0  0  0  0
    0.5716    5.4370   -1.4918 H   0  0  0  1  0  0  0  0  0  0  0  0
  1  4  1  0  0  0  0
  2  4  1  0  0  0  0
  2  5  2  0  0  0  0
  2  6  1  0  0  0  0
  3  4  1  0  0  0  0
  3  7  1  0  0  0  0
  3  8  1  0  0  0  0
  4 19  1  0  0  0  0
  6  9  1  0  0  0  0
  6 12  1  0  0  0  0
  8 10  1  0  0  0  0
  8 11  2  0  0  0  0
  9 13  1  0  0  0  0
  9 14  1  0  0  0  0
  9 15  1  0  0  0  0
 10 16  1  0  0  0  0
 10 17  1  0  0  0  0
 10 18  1  0  0  0  0
 19 20  1  0  0  0  0
 19 27  1  0  0  0  0
 19 28  1  0  0  0  0
 20 21  1  0  0  0  0
 20 29  1  0  0  0  0
 20 30  1  0  0  0  0
 21 22  4  0  0  0  0
 21 26  4  0  0  0  0
 22 23  4  0  0  0  0
 22 31  1  0  0  0  0
 23 24  4  0  0  0  0
 23 32  1  0  0  0  0
 24 25  4  0  0  0  0
 24 33  1  0  0  0  0
 25 26  4  0  0  0  0
 25 34  1  0  0  0  0
 26 35  1  0  0  0  0
M  END
> <BCLConfClusterSize>
1

> <ConfClashScore>
0 

> <ConfOneFourInteractionScore>
-0.970454 

> <ConfScore>
0.0611472 

> <ConfScorePBest>
0.00734966 

> <ConfTolerance>
0.227744 

> <RosettaParamsInstructions>
M  ROOT 3
M  POLY_N_BB 3
M  POLY_CA_BB 4
M  POLY_C_BB 2
M  POLY_O_BB 5
M  POLY_IGNORE 9 10 11 12 13 14 15 16 17 18 
M  POLY_UPPER 6
M  POLY_LOWER 8
M  POLY_CHG 0
M  POLY_PROPERTIES ALPHA_AA D_AA PROTEIN AROMATIC POLYMER 
M  END

$$$$



 35 35  0  0  0  0  0  0  0  0999 V2000
   -1.2891    2.3232    0.9496 H   0  0  0  1  0  0  0  0  0  0  0  0
   -1.2748    0.4656   -0.0811 C   0  0  0  1  0  0  0  0  0  0  0  0
   -3.2173    1.8796    0.3285 N   0  0  0  1  0  0  0  0  0  0  0  0
   -1.7800    1.8946    0.1009 C   0  0  0  1  0  0  0  0  0  0  0  0
   -0.1107    0.1643    0.1690 O   0  0  0  1  0  0  0  0  0  0  0  0
   -2.1797   -0.4206   -0.5262 N   0  0  0  1  0  0  0  0  0  0  0  0
   -3.7932    2.4234   -0.2485 H   0  0  0  1  0  0  0  0  0  0  0  0
   -3.7790    1.1500    1.2966 C   0  0  0  1  0  0  0  0  0  0  0  0
   -1.8357   -1.8051   -0.8137 C   0  0  0  1  0  0  0  0  0  0  0  0
   -5.2792    1.3058    1.4527 C   0  0  0  1  0  0  0  0  0  0  0  0
   -3.1368    0.3953    2.0243 O   0  0  0  1  0  0  0  0  0  0  0  0
   -3.1040   -0.1248   -0.6623 H   0  0  0  1  0  0  0  0  0  0  0  0
   -1.1804   -2.1756   -0.0533 H   0  0  0  1  0  0  0  0  0  0  0  0
   -1.3468   -1.8610   -1.7638 H   0  0  0  1  0  0  0  0  0  0  0  0
   -2.7271   -2.3967   -0.8353 H   0  0  0  1  0  0  0  0  0  0  0  0
   -5.5067    2.3143    1.7286 H   0  0  0  1  0  0  0  0  0  0  0  0
   -5.6293    0.6404    2.2139 H   0  0  0  1  0  0  0  0  0  0  0  0
   -5.7601    1.0728    0.5257 H   0  0  0  1  0  0  0  0  0  0  0  0
   -1.4229    2.7134   -1.1247 C   0  0  0  1  0  0  0  0  0  0  0  0
   -1.7493    4.1907   -0.9786 C   0  0  0  1  0  0  0  0  0  0  0  0
   -1.3870    5.0507   -2.1580 C   0  0  0  1  0  0  0  0  0  0  0  0
   -2.3177    5.2841   -3.1584 C   0  0  0  1  0  0  0  0  0  0  0  0
   -1.9825    6.0701   -4.2447 C   0  0  0  1  0  0  0  0  0  0  0  0
   -0.7172    6.6296   -4.3310 C   0  0  0  1  0  0  0  0  0  0  0  0
    0.2110    6.3971   -3.3336 C   0  0  0  1  0  0  0  0  0  0  0  0
   -0.1254    5.6086   -2.2442 C   0  0  0  1  0  0  0  0  0  0  0  0
   -1.9669    2.3269   -1.9612 H   0  0  0  1  0  0  0  0  0  0  0  0
   -0.3728    2.6142   -1.3049 H   0  0  0  1  0  0  0  0  0  0  0  0
   -1.2222    4.5623   -0.1248 H   0  0  0  1  0  0  0  0  0  0  0  0
   -2.8029    4.2814   -0.8152 H   0  0  0  1  0  0  0  0  0  0  0  0
   -3.2683    4.8676   -3.0916 H   0  0  0  1  0  0  0  0  0  0  0  0
   -2.6795    6.2419   -4.9972 H   0  0  0  1  0  0  0  0  0  0  0  0
   -0.4662    7.2244   -5.1464 H   0  0  0  1  0  0  0  0  0  0  0  0
    1.1616    6.8135   -3.4005 H   0  0  0  1  0  0  0  0  0  0  0  0
    0.5716    5.4369   -1.4917 H   0  0  0  1  0  0  0  0  0  0  0  0
  1  4  1  0  0  0  0
  2  4  1  0  0  0  0
  2  5  2  0  0  0  0
  2  6  1  0  0  0  0
  3  4  1  0  0  0  0
  3  7  1  0  0  0  0
  3  8  1  0  0  0  0
  4 19  1  0  0  0  0
  6  9  1  0  0  0  0
  6 12  1  0  0  0  0
  8 10  1  0  0  0  0
  8 11  2  0  0  0  0
  9 13  1  0  0  0  0
  9 14  1  0  0  0  0
  9 15  1  0  0  0  0
 10 16  1  0  0  0  0
 10 17  1  0  0  0  0
 10 18  1  0  0  0  0
 19 20  1  0  0  0  0
 19 27  1  0  0  0  0
 19 28  1  0  0  0  0
 20 21  1  0  0  0  0
 20 29  1  0  0  0  0
 20 30  1  0  0  0  0
 21 22  4  0  0  0  0
 21 26  4  0  0  0  0
 22 23  4  0  0  0  0
 22 31  1  0  0  0  0
 23 24  4  0  0  0  0
 23 32  1  0  0  0  0
 24 25  4  0  0  0  0
 24 33  1  0  0  0  0
 25 26  4  0  0  0  0
 25 34  1  0  0  0  0
 26 35  1  0  0  0  0
M  END
> <BCLConfClusterSize>
1

> <ConfClashScore>
0 

> <ConfOneFourInteractionScore>
-0.970454 

> <ConfScore>
0.0622629 

> <ConfScorePBest>
0.00732118 

> <ConfTolerance>
0.220218 

> <RosettaParamsInstructions>
M  ROOT 3
M  POLY_N_BB 3
M  POLY_CA_BB 4
M  POLY_C_BB 2
M  POLY_O_BB 5
M  POLY_IGNORE 9 10 11 12 13 14 15 16 17 18 
M  POLY_UPPER 6
M  POLY_LOWER 8
M  POLY_CHG 0
M  POLY_PROPERTIES ALPHA_AA D_AA PROTEIN AROMATIC POLYMER 
M  END

$$$$



 35 35  0  0  0  0  0  0  0  0999 V2000
   -2.0830    2.0624    0.6179 H   0  0  0  1  0  0  0  0  0  0  0  0
   -0.4126    2.9132    1.5696 C   0  0  0  1  0  0  0  0  0  0  0  0
   -0.4785    0.8258    0.2601 N   0  0  0  1  0  0  0  0  0  0  0  0
   -1.0378    2.1596    0.4103 C   0  0  0  1  0  0  0  0  0  0  0  0
   -0.2719    2.4140    2.6712 O   0  0  0  1  0  0  0  0  0  0  0  0
    0.0016    4.1751    1.3795 N   0  0  0  1  0  0  0  0  0  0  0  0
   -0.0418    0.5885   -0.5845 H   0  0  0  1  0  0  0  0  0  0  0  0
   -0.5415   -0.1218    1.2704 C   0  0  0  1  0  0  0  0  0  0  0  0
    0.4769    4.9656    2.5051 C   0  0  0  1  0  0  0  0  0  0  0  0
    0.1102   -1.4595    1.0587 C   0  0  0  1  0  0  0  0  0  0  0  0
   -1.1254    0.1627    2.2997 O   0  0  0  1  0  0  0  0  0  0  0  0
   -0.0159    4.5654    0.4807 H   0  0  0  1  0  0  0  0  0  0  0  0
    0.7164    4.3167    3.3215 H   0  0  0  1  0  0  0  0  0  0  0  0
   -0.2871    5.6512    2.8071 H   0  0  0  1  0  0  0  0  0  0  0  0
    1.3509    5.5102    2.2145 H   0  0  0  1  0  0  0  0  0  0  0  0
    1.1728   -1.3378    1.0253 H   0  0  0  1  0  0  0  0  0  0  0  0
   -0.2297   -1.8794    0.1352 H   0  0  0  1  0  0  0  0  0  0  0  0
   -0.1484   -2.1135    1.8651 H   0  0  0  1  0  0  0  0  0  0  0  0
   -0.9077    2.9288   -0.8810 C   0  0  0  1  0  0  0  0  0  0  0  0
   -1.7493    4.1907   -0.9786 C   0  0  0  1  0  0  0  0  0  0  0  0
   -1.3870    5.0507   -2.1580 C   0  0  0  1  0  0  0  0  0  0  0  0
   -2.3177    5.2841   -3.1584 C   0  0  0  1  0  0  0  0  0  0  0  0
   -1.9825    6.0701   -4.2447 C   0  0  0  1  0  0  0  0  0  0  0  0
   -0.7172    6.6296   -4.3310 C   0  0  0  1  0  0  0  0  0  0  0  0
    0.2110    6.3971   -3.3336 C   0  0  0  1  0  0  0  0  0  0  0  0
   -0.1254    5.6086   -2.2442 C   0  0  0  1  0  0  0  0  0  0  0  0
   -1.1936    2.2792   -1.6817 H   0  0  0  1  0  0  0  0  0  0  0  0
    0.1189    3.2075   -0.9964 H   0  0  0  1  0  0  0  0  0  0  0  0
   -1.6108    4.7624   -0.0848 H   0  0  0  1  0  0  0  0  0  0  0  0
   -2.7776    3.9083   -1.0661 H   0  0  0  1  0  0  0  0  0  0  0  0
   -3.2683    4.8676   -3.0916 H   0  0  0  1  0  0  0  0  0  0  0  0
   -2.6795    6.2419   -4.9972 H   0  0  0  1  0  0  0  0  0  0  0  0
   -0.4662    7.2244   -5.1464 H   0  0  0  1  0  0  0  0  0  0  0  0
    1.1616    6.8135   -3.4005 H   0  0  0  1  0  0  0  0  0  0  0  0
    0.5716    5.4369   -1.4917 H   0  0  0  1  0  0  0  0  0  0  0  0
  1  4  1  0  0  0  0
  2  4  1  0  0  0  0
  2  5  2  0  0  0  0
  2  6  1  0  0  0  0
  3  4  1  0  0  0  0
  3  7  1  0  0  0  0
  3  8  1  0  0  0  0
  4 19  1  0  0  0  0
  6  9  1  0  0  0  0
  6 12  1  0  0  0  0
  8 10  1  0  0  0  0
  8 11  2  0  0  0  0
  9 13  1  0  0  0  0
  9 14  1  0  0  0  0
  9 15  1  0  0  0  0
 10 16  1  0  0  0  0
 10 17  1  0  0  0  0
 10 18  1  0  0  0  0
 19 20  1  0  0  0  0
 19 27  1  0  0  0  0
 19 28  1  0  0  0  0
 20 21  1  0  0  0  0
 20 29  1  0  0  0  0
 20 30  1  0  0  0  0
 21 22  4  0  0  0  0
 21 26  4  0  0  0  0
 22 23  4  0  0  0  0
 22 31  1  0  0  0  0
 23 24  4  0  0  0  0
 23 32  1  0  0  0  0
 24 25  4  0  0  0  0
 24 33  1  0  0  0  0
 25 26  4  0  0  0  0
 25 34  1  0  0  0  0
 26 35  1  0  0  0  0
M  END
> <BCLConfClusterSize>
1

> <ConfClashScore>
0 

> <ConfOneFourInteractionScore>
-0.96405 

> <ConfScore>
0.0708563 

> <ConfScorePBest>
0.0072927 

> <ConfTolerance>
0.343259 

> <RosettaParamsInstructions>
M  ROOT 3
M  POLY_N_BB 3
M  POLY_CA_BB 4
M  POLY_C_BB 2
M  POLY_O_BB 5
M  POLY_IGNORE 9 10 11 12 13 14 15 16 17 18 
M  POLY_UPPER 6
M  POLY_LOWER 8
M  POLY_CHG 0
M  POLY_PROPERTIES ALPHA_AA D_AA PROTEIN AROMATIC POLYMER 
M  END

$$$$



 35 35  0  0  0  0  0  0  0  0999 V2000
   -1.2112    2.3490    0.9509 H   0  0  0  1  0  0  0  0  0  0  0  0
   -0.9646    0.5147   -0.0931 C   0  0  0  1  0  0  0  0  0  0  0  0
   -3.0574    1.7266    0.2331 N   0  0  0  1  0  0  0  0  0  0  0  0
   -1.6161    1.8854    0.0756 C   0  0  0  1  0  0  0  0  0  0  0  0
   -1.5424   -0.5026    0.2527 O   0  0  0  1  0  0  0  0  0  0  0  0
    0.2926    0.5363   -0.5632 N   0  0  0  1  0  0  0  0  0  0  0  0
   -3.6536    2.1413   -0.4249 H   0  0  0  1  0  0  0  0  0  0  0  0
   -3.5931    1.0353    1.2432 C   0  0  0  1  0  0  0  0  0  0  0  0
    1.0736   -0.6773   -0.7501 C   0  0  0  1  0  0  0  0  0  0  0  0
   -5.0961    1.1585    1.4017 C   0  0  0  1  0  0  0  0  0  0  0  0
   -2.9258    0.3383    2.0060 O   0  0  0  1  0  0  0  0  0  0  0  0
    0.6986    1.3994   -0.7884 H   0  0  0  1  0  0  0  0  0  0  0  0
    1.6519   -0.8689    0.1296 H   0  0  0  1  0  0  0  0  0  0  0  0
    1.7285   -0.5544   -1.5873 H   0  0  0  1  0  0  0  0  0  0  0  0
    0.4148   -1.5010   -0.9299 H   0  0  0  1  0  0  0  0  0  0  0  0
   -5.3467    1.1587    2.4419 H   0  0  0  1  0  0  0  0  0  0  0  0
   -5.5742    0.3313    0.9200 H   0  0  0  1  0  0  0  0  0  0  0  0
   -5.4279    2.0725    0.9550 H   0  0  0  1  0  0  0  0  0  0  0  0
   -1.2832    2.7508   -1.1245 C   0  0  0  1  0  0  0  0  0  0  0  0
   -1.7496    4.1900   -0.9776 C   0  0  0  1  0  0  0  0  0  0  0  0
   -1.3870    5.0508   -2.1581 C   0  0  0  1  0  0  0  0  0  0  0  0
   -2.3176    5.2842   -3.1585 C   0  0  0  1  0  0  0  0  0  0  0  0
   -1.9825    6.0702   -4.2447 C   0  0  0  1  0  0  0  0  0  0  0  0
   -0.7171    6.6296   -4.3311 C   0  0  0  1  0  0  0  0  0  0  0  0
    0.2110    6.3971   -3.3337 C   0  0  0  1  0  0  0  0  0  0  0  0
   -0.1254    5.6087   -2.2443 C   0  0  0  1  0  0  0  0  0  0  0  0
   -1.7530    2.3284   -1.9881 H   0  0  0  1  0  0  0  0  0  0  0  0
   -0.2217    2.7503   -1.2592 H   0  0  0  1  0  0  0  0  0  0  0  0
   -1.2986    4.6064   -0.1011 H   0  0  0  1  0  0  0  0  0  0  0  0
   -2.8139    4.1935   -0.8677 H   0  0  0  1  0  0  0  0  0  0  0  0
   -3.2683    4.8677   -3.0917 H   0  0  0  1  0  0  0  0  0  0  0  0
   -2.6795    6.2419   -4.9973 H   0  0  0  1  0  0  0  0  0  0  0  0
   -0.4662    7.2244   -5.1465 H   0  0  0  1  0  0  0  0  0  0  0  0
    1.1616    6.8136   -3.4006 H   0  0  0  1  0  0  0  0  0  0  0  0
    0.5716    5.4370   -1.4918 H   0  0  0  1  0  0  0  0  0  0  0  0
  1  4  1  0  0  0  0
  2  4  1  0  0  0  0
  2  5  2  0  0  0  0
  2  6  1  0  0  0  0
  3  4  1  0  0  0  0
  3  7  1  0  0  0  0
  3  8  1  0  0  0  0
  4 19  1  0  0  0  0
  6  9  1  0  0  0  0
  6 12  1  0  0  0  0
  8 10  1  0  0  0  0
  8 11  2  0  0  0  0
  9 13  1  0  0  0  0
  9 14  1  0  0  0  0
  9 15  1  0  0  0  0
 10 16  1  0  0  0  0
 10 17  1  0  0  0  0
 10 18  1  0  0  0  0
 19 20  1  0  0  0  0
 19 27  1  0  0  0  0
 19 28  1  0  0  0  0
 20 21  1  0  0  0  0
 20 29  1  0  0  0  0
 20 30  1  0  0  0  0
 21 22  4  0  0  0  0
 21 26  4  0  0  0  0
 22 23  4  0  0  0  0
 22 31  1  0  0  0  0
 23 24  4  0  0  0  0
 23 32  1  0  0  0  0
 24 25  4  0  0  0  0
 24 33  1  0  0  0  0
 25 26  4  0  0  0  0
 25 34  1  0  0  0  0
 26 35  1  0  0  0  0
M  END
> <BCLConfClusterSize>
1

> <ConfClashScore>
0 

> <ConfOneFourInteractionScore>
-0.969249 

> <ConfScore>
0.0726801 

> <ConfScorePBest>
0.00726422 

> <ConfTolerance>
0.321883 

> <RosettaParamsInstructions>
M  ROOT 3
M  POLY_N_BB 3
M  POLY_CA_BB 4
M  POLY_C_BB 2
M  POLY_O_BB 5
M  POLY_IGNORE 9 10 11 12 13 14 15 16 17 18 
M  POLY_UPPER 6
M  POLY_LOWER 8
M  POLY_CHG 0
M  POLY_PROPERTIES ALPHA_AA D_AA PROTEIN AROMATIC POLYMER 
M  END

$$$$



 35 35  0  0  0  0  0  0  0  0999 V2000
   -3.3141    2.1305   -0.1804 H   0  0  0  1  0  0  0  0  0  0  0  0
   -1.6918    1.7717    1.0913 C   0  0  0  1  0  0  0  0  0  0  0  0
   -2.3884    0.4077   -0.8361 N   0  0  0  1  0  0  0  0  0  0  0  0
   -2.3105    1.7771   -0.2930 C   0  0  0  1  0  0  0  0  0  0  0  0
   -2.1771    1.1081    2.0037 O   0  0  0  1  0  0  0  0  0  0  0  0
   -0.5955    2.5314    1.2431 N   0  0  0  1  0  0  0  0  0  0  0  0
   -1.9674    0.2169   -1.7003 H   0  0  0  1  0  0  0  0  0  0  0  0
   -3.0137   -0.5828   -0.1899 C   0  0  0  1  0  0  0  0  0  0  0  0
    0.1959    2.5190    2.4643 C   0  0  0  1  0  0  0  0  0  0  0  0
   -3.0983   -1.9028   -0.9313 C   0  0  0  1  0  0  0  0  0  0  0  0
   -3.4946   -0.4502    0.9324 O   0  0  0  1  0  0  0  0  0  0  0  0
   -0.3184    3.1146    0.5059 H   0  0  0  1  0  0  0  0  0  0  0  0
   -0.2461    1.8465    3.1696 H   0  0  0  1  0  0  0  0  0  0  0  0
    0.2242    3.5042    2.8808 H   0  0  0  1  0  0  0  0  0  0  0  0
    1.1915    2.1971    2.2406 H   0  0  0  1  0  0  0  0  0  0  0  0
   -2.2702   -2.5214   -0.6549 H   0  0  0  1  0  0  0  0  0  0  0  0
   -3.0716   -1.7217   -1.9856 H   0  0  0  1  0  0  0  0  0  0  0  0
   -4.0128   -2.3966   -0.6767 H   0  0  0  1  0  0  0  0  0  0  0  0
   -1.6376    2.6992   -1.2793 C   0  0  0  1  0  0  0  0  0  0  0  0
   -1.7891    4.1846   -0.9948 C   0  0  0  1  0  0  0  0  0  0  0  0
   -1.3784    5.0520   -2.1545 C   0  0  0  1  0  0  0  0  0  0  0  0
   -2.3122    5.2828   -3.1526 C   0  0  0  1  0  0  0  0  0  0  0  0
   -1.9813    6.0682   -4.2406 C   0  0  0  1  0  0  0  0  0  0  0  0
   -0.7171    6.6296   -4.3310 C   0  0  0  1  0  0  0  0  0  0  0  0
    0.2141    6.3997   -3.3359 C   0  0  0  1  0  0  0  0  0  0  0  0
   -0.1180    5.6119   -2.2447 C   0  0  0  1  0  0  0  0  0  0  0  0
   -2.0511    2.5052   -2.2469 H   0  0  0  1  0  0  0  0  0  0  0  0
   -0.5925    2.4697   -1.2850 H   0  0  0  1  0  0  0  0  0  0  0  0
   -1.1802    4.4335   -0.1509 H   0  0  0  1  0  0  0  0  0  0  0  0
   -2.8151    4.3847   -0.7664 H   0  0  0  1  0  0  0  0  0  0  0  0
   -3.2620    4.8648   -3.0828 H   0  0  0  1  0  0  0  0  0  0  0  0
   -2.6806    6.2379   -4.9914 H   0  0  0  1  0  0  0  0  0  0  0  0
   -0.4693    7.2239   -5.1477 H   0  0  0  1  0  0  0  0  0  0  0  0
    1.1639    6.8177   -3.4058 H   0  0  0  1  0  0  0  0  0  0  0  0
    0.5813    5.4421   -1.4939 H   0  0  0  1  0  0  0  0  0  0  0  0
  1  4  1  0  0  0  0
  2  4  1  0  0  0  0
  2  5  2  0  0  0  0
  2  6  1  0  0  0  0
  3  4  1  0  0  0  0
  3  7  1  0  0  0  0
  3  8  1  0  0  0  0
  4 19  1  0  0  0  0
  6  9  1  0  0  0  0
  6 12  1  0  0  0  0
  8 10  1  0  0  0  0
  8 11  2  0  0  0  0
  9 13  1  0  0  0  0
  9 14  1  0  0  0  0
  9 15  1  0  0  0  0
 10 16  1  0  0  0  0
 10 17  1  0  0  0  0
 10 18  1  0  0  0  0
 19 20  1  0  0  0  0
 19 27  1  0  0  0  0
 19 28  1  0  0  0  0
 20 21  1  0  0  0  0
 20 29  1  0  0  0  0
 20 30  1  0  0  0  0
 21 22  4  0  0  0  0
 21 26  4  0  0  0  0
 22 23  4  0  0  0  0
 22 31  1  0  0  0  0
 23 24  4  0  0  0  0
 23 32  1  0  0  0  0
 24 25  4  0  0  0  0
 24 33  1  0  0  0  0
 25 26  4  0  0  0  0
 25 34  1  0  0  0  0
 26 35  1  0  0  0  0
M  END
> <BCLConfClusterSize>
1

> <ConfClashScore>
0.000335015 

> <ConfOneFourInteractionScore>
-0.96405 

> <ConfScore>
0.0730048 

> <ConfScorePBest>
0.00723574 

> <ConfTolerance>
0.40091 

> <RosettaParamsInstructions>
M  ROOT 3
M  POLY_N_BB 3
M  POLY_CA_BB 4
M  POLY_C_BB 2
M  POLY_O_BB 5
M  POLY_IGNORE 9 10 11 12 13 14 15 16 17 18 
M  POLY_UPPER 6
M  POLY_LOWER 8
M  POLY_CHG 0
M  POLY_PROPERTIES ALPHA_AA D_AA PROTEIN AROMATIC POLYMER 
M  END

$$$$



 35 35  0  0  0  0  0  0  0  0999 V2000
   -3.1811    6.5146    1.1873 H   0  0  0  1  0  0  0  0  0  0  0  0
   -4.3764    5.3580   -0.1061 C   0  0  0  1  0  0  0  0  0  0  0  0
   -2.7759    7.1328   -0.7337 N   0  0  0  1  0  0  0  0  0  0  0  0
   -3.0711    6.0729    0.2189 C   0  0  0  1  0  0  0  0  0  0  0  0
   -5.2716    5.9203   -0.7162 O   0  0  0  1  0  0  0  0  0  0  0  0
   -4.4671    4.0963    0.3172 N   0  0  0  1  0  0  0  0  0  0  0  0
   -1.9809    7.0509   -1.3009 H   0  0  0  1  0  0  0  0  0  0  0  0
   -3.5509    8.2135   -0.8618 C   0  0  0  1  0  0  0  0  0  0  0  0
   -5.6816    3.2949    0.2938 C   0  0  0  1  0  0  0  0  0  0  0  0
   -3.0161    9.3065   -1.7782 C   0  0  0  1  0  0  0  0  0  0  0  0
   -4.6286    8.3356   -0.2856 O   0  0  0  1  0  0  0  0  0  0  0  0
   -3.6546    3.6775    0.6707 H   0  0  0  1  0  0  0  0  0  0  0  0
   -5.6152    2.5240    1.0328 H   0  0  0  1  0  0  0  0  0  0  0  0
   -5.7980    2.8524   -0.6734 H   0  0  0  1  0  0  0  0  0  0  0  0
   -6.5247    3.9192    0.5047 H   0  0  0  1  0  0  0  0  0  0  0  0
   -2.4823    8.8611   -2.5916 H   0  0  0  1  0  0  0  0  0  0  0  0
   -2.3575    9.9438   -1.2261 H   0  0  0  1  0  0  0  0  0  0  0  0
   -3.8329    9.8822   -2.1607 H   0  0  0  1  0  0  0  0  0  0  0  0
   -1.9110    5.0993    0.2969 C   0  0  0  1  0  0  0  0  0  0  0  0
   -1.7611    4.2396   -0.9476 C   0  0  0  1  0  0  0  0  0  0  0  0
   -1.3812    5.0323   -2.1696 C   0  0  0  1  0  0  0  0  0  0  0  0
   -2.3138    5.2721   -3.1668 C   0  0  0  1  0  0  0  0  0  0  0  0
   -1.9826    6.0702   -4.2454 C   0  0  0  1  0  0  0  0  0  0  0  0
   -0.7195    6.6353   -4.3274 C   0  0  0  1  0  0  0  0  0  0  0  0
    0.2105    6.3963   -3.3333 C   0  0  0  1  0  0  0  0  0  0  0  0
   -0.1218    5.5958   -2.2515 C   0  0  0  1  0  0  0  0  0  0  0  0
   -2.0644    4.4553    1.1376 H   0  0  0  1  0  0  0  0  0  0  0  0
   -1.0084    5.6573    0.4345 H   0  0  0  1  0  0  0  0  0  0  0  0
   -2.6927    3.7483   -1.1364 H   0  0  0  1  0  0  0  0  0  0  0  0
   -1.0016    3.5079   -0.7667 H   0  0  0  1  0  0  0  0  0  0  0  0
   -3.2627    4.8514   -3.1032 H   0  0  0  1  0  0  0  0  0  0  0  0
   -2.6810    6.2468   -4.9955 H   0  0  0  1  0  0  0  0  0  0  0  0
   -0.4716    7.2392   -5.1371 H   0  0  0  1  0  0  0  0  0  0  0  0
    1.1595    6.8171   -3.3969 H   0  0  0  1  0  0  0  0  0  0  0  0
    0.5766    5.4192   -1.5014 H   0  0  0  1  0  0  0  0  0  0  0  0
  1  4  1  0  0  0  0
  2  4  1  0  0  0  0
  2  5  2  0  0  0  0
  2  6  1  0  0  0  0
  3  4  1  0  0  0  0
  3  7  1  0  0  0  0
  3  8  1  0  0  0  0
  4 19  1  0  0  0  0
  6  9  1  0  0  0  0
  6 12  1  0  0  0  0
  8 10  1  0  0  0  0
  8 11  2  0  0  0  0
  9 13  1  0  0  0  0
  9 14  1  0  0  0  0
  9 15  1  0  0  0  0
 10 16  1  0  0  0  0
 10 17  1  0  0  0  0
 10 18  1  0  0  0  0
 19 20  1  0  0  0  0
 19 27  1  0  0  0  0
 19 28  1  0  0  0  0
 20 21  1  0  0  0  0
 20 29  1  0  0  0  0
 20 30  1  0  0  0  0
 21 22  4  0  0  0  0
 21 26  4  0  0  0  0
 22 23  4  0  0  0  0
 22 31  1  0  0  0  0
 23 24  4  0  0  0  0
 23 32  1  0  0  0  0
 24 25  4  0  0  0  0
 24 33  1  0  0  0  0
 25 26  4  0  0  0  0
 25 34  1  0  0  0  0
 26 35  1  0  0  0  0
M  END
> <BCLConfClusterSize>
1

> <ConfClashScore>
0 

> <ConfOneFourInteractionScore>
-0.967053 

> <ConfScore>
0.0783989 

> <ConfScorePBest>
0.00720726 

> <ConfTolerance>
0.711407 

> <RosettaParamsInstructions>
M  ROOT 3
M  POLY_N_BB 3
M  POLY_CA_BB 4
M  POLY_C_BB 2
M  POLY_O_BB 5
M  POLY_IGNORE 9 10 11 12 13 14 15 16 17 18 
M  POLY_UPPER 6
M  POLY_LOWER 8
M  POLY_CHG 0
M  POLY_PROPERTIES ALPHA_AA D_AA PROTEIN AROMATIC POLYMER 
M  END

$$$$



 35 35  0  0  0  0  0  0  0  0999 V2000
   -3.9028    4.4843    1.6589 H   0  0  0  1  0  0  0  0  0  0  0  0
   -2.1987    3.2732    1.8429 C   0  0  0  1  0  0  0  0  0  0  0  0
   -4.1317    2.9687    0.2789 N   0  0  0  1  0  0  0  0  0  0  0  0
   -3.2789    3.9200    0.9977 C   0  0  0  1  0  0  0  0  0  0  0  0
   -1.5533    3.8976    2.6650 O   0  0  0  1  0  0  0  0  0  0  0  0
   -1.9424    1.9738    1.6840 N   0  0  0  1  0  0  0  0  0  0  0  0
   -4.2692    3.1181   -0.6799 H   0  0  0  1  0  0  0  0  0  0  0  0
   -4.7347    1.9149    0.8315 C   0  0  0  1  0  0  0  0  0  0  0  0
   -0.8672    1.2497    2.3455 C   0  0  0  1  0  0  0  0  0  0  0  0
   -5.4383    0.9826   -0.1286 C   0  0  0  1  0  0  0  0  0  0  0  0
   -4.7294    1.6995    2.0406 O   0  0  0  1  0  0  0  0  0  0  0  0
   -2.5217    1.4687    1.0760 H   0  0  0  1  0  0  0  0  0  0  0  0
   -1.0340    1.2497    3.4024 H   0  0  0  1  0  0  0  0  0  0  0  0
    0.0670    1.7257    2.1321 H   0  0  0  1  0  0  0  0  0  0  0  0
   -0.8441    0.2414    1.9883 H   0  0  0  1  0  0  0  0  0  0  0  0
   -4.7165    0.3624   -0.6177 H   0  0  0  1  0  0  0  0  0  0  0  0
   -5.9683    1.5571   -0.8594 H   0  0  0  1  0  0  0  0  0  0  0  0
   -6.1280    0.3686    0.4119 H   0  0  0  1  0  0  0  0  0  0  0  0
   -2.6942    4.9009   -0.0070 C   0  0  0  1  0  0  0  0  0  0  0  0
   -1.7891    4.1846   -0.9948 C   0  0  0  1  0  0  0  0  0  0  0  0
   -1.3784    5.0520   -2.1545 C   0  0  0  1  0  0  0  0  0  0  0  0
   -2.3122    5.2828   -3.1526 C   0  0  0  1  0  0  0  0  0  0  0  0
   -1.9813    6.0682   -4.2406 C   0  0  0  1  0  0  0  0  0  0  0  0
   -0.7171    6.6296   -4.3310 C   0  0  0  1  0  0  0  0  0  0  0  0
    0.2141    6.3997   -3.3359 C   0  0  0  1  0  0  0  0  0  0  0  0
   -0.1180    5.6119   -2.2447 C   0  0  0  1  0  0  0  0  0  0  0  0
   -2.1263    5.6418    0.5157 H   0  0  0  1  0  0  0  0  0  0  0  0
   -3.4920    5.3734   -0.5411 H   0  0  0  1  0  0  0  0  0  0  0  0
   -2.3091    3.3305   -1.3757 H   0  0  0  1  0  0  0  0  0  0  0  0
   -0.9075    3.8654   -0.4793 H   0  0  0  1  0  0  0  0  0  0  0  0
   -3.2620    4.8648   -3.0828 H   0  0  0  1  0  0  0  0  0  0  0  0
   -2.6806    6.2379   -4.9914 H   0  0  0  1  0  0  0  0  0  0  0  0
   -0.4693    7.2239   -5.1477 H   0  0  0  1  0  0  0  0  0  0  0  0
    1.1639    6.8177   -3.4058 H   0  0  0  1  0  0  0  0  0  0  0  0
    0.5813    5.4421   -1.4939 H   0  0  0  1  0  0  0  0  0  0  0  0
  1  4  1  0  0  0  0
  2  4  1  0  0  0  0
  2  5  2  0  0  0  0
  2  6  1  0  0  0  0
  3  4  1  0  0  0  0
  3  7  1  0  0  0  0
  3  8  1  0  0  0  0
  4 19  1  0  0  0  0
  6  9  1  0  0  0  0
  6 12  1  0  0  0  0
  8 10  1  0  0  0  0
  8 11  2  0  0  0  0
  9 13  1  0  0  0  0
  9 14  1  0  0  0  0
  9 15  1  0  0  0  0
 10 16  1  0  0  0  0
 10 17  1  0  0  0  0
 10 18  1  0  0  0  0
 19 20  1  0  0  0  0
 19 27  1  0  0  0  0
 19 28  1  0  0  0  0
 20 21  1  0  0  0  0
 20 29  1  0  0  0  0
 20 30  1  0  0  0  0
 21 22  4  0  0  0  0
 21 26  4  0  0  0  0
 22 23  4  0  0  0  0
 22 31  1  0  0  0  0
 23 24  4  0  0  0  0
 23 32  1  0  0  0  0
 24 25  4  0  0  0  0
 24 33  1  0  0  0  0
 25 26  4  0  0  0  0
 25 34  1  0  0  0  0
 26 35  1  0  0  0  0
M  END
> <BCLConfClusterSize>
1

> <ConfClashScore>
0 

> <ConfOneFourInteractionScore>
-0.948736 

> <ConfScore>
0.0786113 

> <ConfScorePBest>
0.00717878 

> <ConfTolerance>
0.246405 

> <RosettaParamsInstructions>
M  ROOT 3
M  POLY_N_BB 3
M  POLY_CA_BB 4
M  POLY_C_BB 2
M  POLY_O_BB 5
M  POLY_IGNORE 9 10 11 12 13 14 15 16 17 18 
M  POLY_UPPER 6
M  POLY_LOWER 8
M  POLY_CHG 0
M  POLY_PROPERTIES ALPHA_AA D_AA PROTEIN AROMATIC POLYMER 
M  END

$$$$



 35 35  0  0  0  0  0  0  0  0999 V2000
   -3.3927    4.4244    2.0239 H   0  0  0  1  0  0  0  0  0  0  0  0
   -1.4666    3.5417    1.9749 C   0  0  0  1  0  0  0  0  0  0  0  0
   -3.5098    2.7160    0.8588 N   0  0  0  1  0  0  0  0  0  0  0  0
   -2.7914    3.9029    1.3088 C   0  0  0  1  0  0  0  0  0  0  0  0
   -0.8543    4.3543    2.6491 O   0  0  0  1  0  0  0  0  0  0  0  0
   -1.0354    2.2962    1.7697 N   0  0  0  1  0  0  0  0  0  0  0  0
   -3.8590    2.6933   -0.0566 H   0  0  0  1  0  0  0  0  0  0  0  0
   -3.7084    1.6587    1.6511 C   0  0  0  1  0  0  0  0  0  0  0  0
    0.1051    1.7409    2.4830 C   0  0  0  1  0  0  0  0  0  0  0  0
   -4.5589    0.5479    1.0664 C   0  0  0  1  0  0  0  0  0  0  0  0
   -3.2400    1.5742    2.7833 O   0  0  0  1  0  0  0  0  0  0  0  0
   -1.5030    1.7355    1.1159 H   0  0  0  1  0  0  0  0  0  0  0  0
    0.6192    1.0480    1.8503 H   0  0  0  1  0  0  0  0  0  0  0  0
   -0.2362    1.2353    3.3621 H   0  0  0  1  0  0  0  0  0  0  0  0
    0.7707    2.5312    2.7611 H   0  0  0  1  0  0  0  0  0  0  0  0
   -4.5364    0.6054   -0.0018 H   0  0  0  1  0  0  0  0  0  0  0  0
   -5.5674    0.6539    1.4079 H   0  0  0  1  0  0  0  0  0  0  0  0
   -4.1732   -0.3993    1.3806 H   0  0  0  1  0  0  0  0  0  0  0  0
   -2.5518    4.8284    0.1314 C   0  0  0  1  0  0  0  0  0  0  0  0
   -1.7494    4.1904   -0.9781 C   0  0  0  1  0  0  0  0  0  0  0  0
   -1.3870    5.0508   -2.1580 C   0  0  0  1  0  0  0  0  0  0  0  0
   -2.3177    5.2841   -3.1585 C   0  0  0  1  0  0  0  0  0  0  0  0
   -1.9825    6.0702   -4.2447 C   0  0  0  1  0  0  0  0  0  0  0  0
   -0.7172    6.6296   -4.3311 C   0  0  0  1  0  0  0  0  0  0  0  0
    0.2110    6.3971   -3.3337 C   0  0  0  1  0  0  0  0  0  0  0  0
   -0.1254    5.6087   -2.2442 C   0  0  0  1  0  0  0  0  0  0  0  0
   -2.0229    5.6908    0.4799 H   0  0  0  1  0  0  0  0  0  0  0  0
   -3.5002    5.1267   -0.2640 H   0  0  0  1  0  0  0  0  0  0  0  0
   -2.3169    3.3622   -1.3482 H   0  0  0  1  0  0  0  0  0  0  0  0
   -0.8362    3.8344   -0.5489 H   0  0  0  1  0  0  0  0  0  0  0  0
   -3.2683    4.8677   -3.0916 H   0  0  0  1  0  0  0  0  0  0  0  0
   -2.6795    6.2419   -4.9972 H   0  0  0  1  0  0  0  0  0  0  0  0
   -0.4662    7.2244   -5.1464 H   0  0  0  1  0  0  0  0  0  0  0  0
    1.1616    6.8136   -3.4005 H   0  0  0  1  0  0  0  0  0  0  0  0
    0.5716    5.4369   -1.4917 H   0  0  0  1  0  0  0  0  0  0  0  0
  1  4  1  0  0  0  0
  2  4  1  0  0  0  0
  2  5  2  0  0  0  0
  2  6  1  0  0  0  0
  3  4  1  0  0  0  0
  3  7  1  0  0  0  0
  3  8  1  0  0  0  0
  4 19  1  0  0  0  0
  6  9  1  0  0  0  0
  6 12  1  0  0  0  0
  8 10  1  0  0  0  0
  8 11  2  0  0  0  0
  9 13  1  0  0  0  0
  9 14  1  0  0  0  0
  9 15  1  0  0  0  0
 10 16  1  0  0  0  0
 10 17  1  0  0  0  0
 10 18  1  0  0  0  0
 19 20  1  0  0  0  0
 19 27  1  0  0  0  0
 19 28  1  0  0  0  0
 20 21  1  0  0  0  0
 20 29  1  0  0  0  0
 20 30  1  0  0  0  0
 21 22  4  0  0  0  0
 21 26  4  0  0  0  0
 22 23  4  0  0  0  0
 22 31  1  0  0  0  0
 23 24  4  0  0  0  0
 23 32  1  0  0  0  0
 24 25  4  0  0  0  0
 24 33  1  0  0  0  0
 25 26  4  0  0  0  0
 25 34  1  0  0  0  0
 26 35  1  0  0  0  0
M  END
> <BCLConfClusterSize>
1

> <ConfClashScore>
0 

> <ConfOneFourInteractionScore>
-0.948736 

> <ConfScore>
0.0805938 

> <ConfScorePBest>
0.0071503 

> <ConfTolerance>
0.245336 

> <RosettaParamsInstructions>
M  ROOT 3
M  POLY_N_BB 3
M  POLY_CA_BB 4
M  POLY_C_BB 2
M  POLY_O_BB 5
M  POLY_IGNORE 9 10 11 12 13 14 15 16 17 18 
M  POLY_UPPER 6
M  POLY_LOWER 8
M  POLY_CHG 0
M  POLY_PROPERTIES ALPHA_AA D_AA PROTEIN AROMATIC POLYMER 
M  END

$$$$



 35 35  0  0  0  0  0  0  0  0999 V2000
   -2.9341    4.8963    2.1789 H   0  0  0  1  0  0  0  0  0  0  0  0
   -1.2901    3.5700    1.9623 C   0  0  0  1  0  0  0  0  0  0  0  0
   -3.5407    3.2358    1.0824 N   0  0  0  1  0  0  0  0  0  0  0  0
   -2.5441    4.2372    1.4317 C   0  0  0  1  0  0  0  0  0  0  0  0
   -0.6073    4.0991    2.8383 O   0  0  0  1  0  0  0  0  0  0  0  0
   -0.9858    2.3821    1.4161 N   0  0  0  1  0  0  0  0  0  0  0  0
   -3.8407    3.1716    0.1517 H   0  0  0  1  0  0  0  0  0  0  0  0
   -4.0609    2.4010    1.9866 C   0  0  0  1  0  0  0  0  0  0  0  0
    0.2456    1.7011    1.7873 C   0  0  0  1  0  0  0  0  0  0  0  0
   -5.0164    1.3556    1.4450 C   0  0  0  1  0  0  0  0  0  0  0  0
   -3.7957    2.4607    3.1759 O   0  0  0  1  0  0  0  0  0  0  0  0
   -1.5942    1.9726    0.7660 H   0  0  0  1  0  0  0  0  0  0  0  0
    0.5716    2.0494    2.7450 H   0  0  0  1  0  0  0  0  0  0  0  0
    1.0005    1.9067    1.0574 H   0  0  0  1  0  0  0  0  0  0  0  0
    0.0700    0.6466    1.8323 H   0  0  0  1  0  0  0  0  0  0  0  0
   -4.4665    0.4844    1.1562 H   0  0  0  1  0  0  0  0  0  0  0  0
   -5.5314    1.7503    0.5941 H   0  0  0  1  0  0  0  0  0  0  0  0
   -5.7257    1.0946    2.2024 H   0  0  0  1  0  0  0  0  0  0  0  0
   -2.1874    5.0462    0.1995 C   0  0  0  1  0  0  0  0  0  0  0  0
   -1.7496    4.1900   -0.9776 C   0  0  0  1  0  0  0  0  0  0  0  0
   -1.3870    5.0508   -2.1581 C   0  0  0  1  0  0  0  0  0  0  0  0
   -2.3176    5.2842   -3.1585 C   0  0  0  1  0  0  0  0  0  0  0  0
   -1.9825    6.0702   -4.2447 C   0  0  0  1  0  0  0  0  0  0  0  0
   -0.7171    6.6296   -4.3311 C   0  0  0  1  0  0  0  0  0  0  0  0
    0.2110    6.3971   -3.3337 C   0  0  0  1  0  0  0  0  0  0  0  0
   -0.1254    5.6087   -2.2443 C   0  0  0  1  0  0  0  0  0  0  0  0
   -1.3883    5.7121    0.4505 H   0  0  0  1  0  0  0  0  0  0  0  0
   -3.0459    5.6133   -0.0942 H   0  0  0  1  0  0  0  0  0  0  0  0
   -2.5506    3.5363   -1.2530 H   0  0  0  1  0  0  0  0  0  0  0  0
   -0.8973    3.6098   -0.6915 H   0  0  0  1  0  0  0  0  0  0  0  0
   -3.2683    4.8677   -3.0917 H   0  0  0  1  0  0  0  0  0  0  0  0
   -2.6795    6.2419   -4.9973 H   0  0  0  1  0  0  0  0  0  0  0  0
   -0.4662    7.2244   -5.1465 H   0  0  0  1  0  0  0  0  0  0  0  0
    1.1616    6.8136   -3.4006 H   0  0  0  1  0  0  0  0  0  0  0  0
    0.5716    5.4370   -1.4918 H   0  0  0  1  0  0  0  0  0  0  0  0
  1  4  1  0  0  0  0
  2  4  1  0  0  0  0
  2  5  2  0  0  0  0
  2  6  1  0  0  0  0
  3  4  1  0  0  0  0
  3  7  1  0  0  0  0
  3  8  1  0  0  0  0
  4 19  1  0  0  0  0
  6  9  1  0  0  0  0
  6 12  1  0  0  0  0
  8 10  1  0  0  0  0
  8 11  2  0  0  0  0
  9 13  1  0  0  0  0
  9 14  1  0  0  0  0
  9 15  1  0  0  0  0
 10 16  1  0  0  0  0
 10 17  1  0  0  0  0
 10 18  1  0  0  0  0
 19 20  1  0  0  0  0
 19 27  1  0  0  0  0
 19 28  1  0  0  0  0
 20 21  1  0  0  0  0
 20 29  1  0  0  0  0
 20 30  1  0  0  0  0
 21 22  4  0  0  0  0
 21 26  4  0  0  0  0
 22 23  4  0  0  0  0
 22 31  1  0  0  0  0
 23 24  4  0  0  0  0
 23 32  1  0  0  0  0
 24 25  4  0  0  0  0
 24 33  1  0  0  0  0
 25 26  4  0  0  0  0
 25 34  1  0  0  0  0
 26 35  1  0  0  0  0
M  END
> <BCLConfClusterSize>
1

> <ConfClashScore>
0 

> <ConfOneFourInteractionScore>
-0.948736 

> <ConfScore>
0.0832838 

> <ConfScorePBest>
0.00712182 

> <ConfTolerance>
0.328759 

> <RosettaParamsInstructions>
M  ROOT 3
M  POLY_N_BB 3
M  POLY_CA_BB 4
M  POLY_C_BB 2
M  POLY_O_BB 5
M  POLY_IGNORE 9 10 11 12 13 14 15 16 17 18 
M  POLY_UPPER 6
M  POLY_LOWER 8
M  POLY_CHG 0
M  POLY_PROPERTIES ALPHA_AA D_AA PROTEIN AROMATIC POLYMER 
M  END

$$$$



 35 35  0  0  0  0  0  0  0  0999 V2000
   -3.5129    4.6641    1.9434 H   0  0  0  1  0  0  0  0  0  0  0  0
   -1.9190    3.2535    1.8687 C   0  0  0  1  0  0  0  0  0  0  0  0
   -4.0169    3.1115    0.6406 N   0  0  0  1  0  0  0  0  0  0  0  0
   -3.0386    4.0535    1.2037 C   0  0  0  1  0  0  0  0  0  0  0  0
   -1.3121    3.6938    2.8414 O   0  0  0  1  0  0  0  0  0  0  0  0
   -1.6532    2.0575    1.3218 N   0  0  0  1  0  0  0  0  0  0  0  0
   -3.8261    2.1531    0.7144 H   0  0  0  1  0  0  0  0  0  0  0  0
   -5.1606    3.4825    0.0285 C   0  0  0  1  0  0  0  0  0  0  0  0
   -0.6535    1.1207    1.8126 C   0  0  0  1  0  0  0  0  0  0  0  0
   -6.0048    2.4051   -0.6137 C   0  0  0  1  0  0  0  0  0  0  0  0
   -5.5086    4.6620   -0.0073 O   0  0  0  1  0  0  0  0  0  0  0  0
   -2.1713    1.7950    0.5325 H   0  0  0  1  0  0  0  0  0  0  0  0
    0.3076    1.5910    1.8119 H   0  0  0  1  0  0  0  0  0  0  0  0
   -0.6295    0.2599    1.1774 H   0  0  0  1  0  0  0  0  0  0  0  0
   -0.9035    0.8223    2.8092 H   0  0  0  1  0  0  0  0  0  0  0  0
   -5.9756    1.5215   -0.0109 H   0  0  0  1  0  0  0  0  0  0  0  0
   -5.6209    2.1848   -1.5879 H   0  0  0  1  0  0  0  0  0  0  0  0
   -7.0155    2.7465   -0.6970 H   0  0  0  1  0  0  0  0  0  0  0  0
   -2.4998    4.9491    0.1047 C   0  0  0  1  0  0  0  0  0  0  0  0
   -1.7496    4.1900   -0.9776 C   0  0  0  1  0  0  0  0  0  0  0  0
   -1.3870    5.0508   -2.1581 C   0  0  0  1  0  0  0  0  0  0  0  0
   -2.3176    5.2842   -3.1585 C   0  0  0  1  0  0  0  0  0  0  0  0
   -1.9825    6.0702   -4.2447 C   0  0  0  1  0  0  0  0  0  0  0  0
   -0.7171    6.6296   -4.3311 C   0  0  0  1  0  0  0  0  0  0  0  0
    0.2110    6.3971   -3.3337 C   0  0  0  1  0  0  0  0  0  0  0  0
   -0.1254    5.6087   -2.2443 C   0  0  0  1  0  0  0  0  0  0  0  0
   -1.8329    5.6613    0.5439 H   0  0  0  1  0  0  0  0  0  0  0  0
   -3.3222    5.4620   -0.3486 H   0  0  0  1  0  0  0  0  0  0  0  0
   -2.3668    3.3856   -1.3195 H   0  0  0  1  0  0  0  0  0  0  0  0
   -0.8495    3.7949   -0.5549 H   0  0  0  1  0  0  0  0  0  0  0  0
   -3.2683    4.8677   -3.0917 H   0  0  0  1  0  0  0  0  0  0  0  0
   -2.6795    6.2419   -4.9973 H   0  0  0  1  0  0  0  0  0  0  0  0
   -0.4662    7.2244   -5.1465 H   0  0  0  1  0  0  0  0  0  0  0  0
    1.1616    6.8136   -3.4006 H   0  0  0  1  0  0  0  0  0  0  0  0
    0.5716    5.4370   -1.4918 H   0  0  0  1  0  0  0  0  0  0  0  0
  1  4  1  0  0  0  0
  2  4  1  0  0  0  0
  2  5  2  0  0  0  0
  2  6  1  0  0  0  0
  3  4  1  0  0  0  0
  3  7  1  0  0  0  0
  3  8  1  0  0  0  0
  4 19  1  0  0  0  0
  6  9  1  0  0  0  0
  6 12  1  0  0  0  0
  8 10  1  0  0  0  0
  8 11  2  0  0  0  0
  9 13  1  0  0  0  0
  9 14  1  0  0  0  0
  9 15  1  0  0  0  0
 10 16  1  0  0  0  0
 10 17  1  0  0  0  0
 10 18  1  0  0  0  0
 19 20  1  0  0  0  0
 19 27  1  0  0  0  0
 19 28  1  0  0  0  0
 20 21  1  0  0  0  0
 20 29  1  0  0  0  0
 20 30  1  0  0  0  0
 21 22  4  0  0  0  0
 21 26  4  0  0  0  0
 22 23  4  0  0  0  0
 22 31  1  0  0  0  0
 23 24  4  0  0  0  0
 23 32  1  0  0  0  0
 24 25  4  0  0  0  0
 24 33  1  0  0  0  0
 25 26  4  0  0  0  0
 25 34  1  0  0  0  0
 26 35  1  0  0  0  0
M  END
> <BCLConfClusterSize>
1

> <ConfClashScore>
0 

> <ConfOneFourInteractionScore>
-0.950407 

> <ConfScore>
0.0838575 

> <ConfScorePBest>
0.00709334 

> <ConfTolerance>
0.383475 

> <RosettaParamsInstructions>
M  ROOT 3
M  POLY_N_BB 3
M  POLY_CA_BB 4
M  POLY_C_BB 2
M  POLY_O_BB 5
M  POLY_IGNORE 9 10 11 12 13 14 15 16 17 18 
M  POLY_UPPER 6
M  POLY_LOWER 8
M  POLY_CHG 0
M  POLY_PROPERTIES ALPHA_AA D_AA PROTEIN AROMATIC POLYMER 
M  END

$$$$



 35 35  0  0  0  0  0  0  0  0999 V2000
   -1.7959    2.1461    0.8406 H   0  0  0  1  0  0  0  0  0  0  0  0
   -1.8883    0.3905   -0.3507 C   0  0  0  1  0  0  0  0  0  0  0  0
   -3.6572    2.0495   -0.0833 N   0  0  0  1  0  0  0  0  0  0  0  0
   -2.2158    1.8497   -0.0978 C   0  0  0  1  0  0  0  0  0  0  0  0
   -0.9534   -0.1633    0.2263 O   0  0  0  1  0  0  0  0  0  0  0  0
   -2.6751   -0.2371   -1.2294 N   0  0  0  1  0  0  0  0  0  0  0  0
   -4.0424    2.7559   -0.6428 H   0  0  0  1  0  0  0  0  0  0  0  0
   -4.4771    1.3002    0.6695 C   0  0  0  1  0  0  0  0  0  0  0  0
   -2.4626   -1.6256   -1.6100 C   0  0  0  1  0  0  0  0  0  0  0  0
   -5.9365    1.6898    0.7347 C   0  0  0  1  0  0  0  0  0  0  0  0
   -4.0562    0.3244    1.2894 O   0  0  0  1  0  0  0  0  0  0  0  0
   -3.4212    0.2547   -1.6317 H   0  0  0  1  0  0  0  0  0  0  0  0
   -2.7758   -1.7702   -2.6228 H   0  0  0  1  0  0  0  0  0  0  0  0
   -3.0322   -2.2627   -0.9663 H   0  0  0  1  0  0  0  0  0  0  0  0
   -1.4234   -1.8646   -1.5207 H   0  0  0  1  0  0  0  0  0  0  0  0
   -6.0242    2.6820    1.1255 H   0  0  0  1  0  0  0  0  0  0  0  0
   -6.4592    1.0080    1.3725 H   0  0  0  1  0  0  0  0  0  0  0  0
   -6.3589    1.6551   -0.2478 H   0  0  0  1  0  0  0  0  0  0  0  0
   -1.6003    2.6904   -1.1999 C   0  0  0  1  0  0  0  0  0  0  0  0
   -1.7891    4.1846   -0.9948 C   0  0  0  1  0  0  0  0  0  0  0  0
   -1.3784    5.0520   -2.1545 C   0  0  0  1  0  0  0  0  0  0  0  0
   -2.3122    5.2828   -3.1526 C   0  0  0  1  0  0  0  0  0  0  0  0
   -1.9813    6.0682   -4.2406 C   0  0  0  1  0  0  0  0  0  0  0  0
   -0.7171    6.6296   -4.3310 C   0  0  0  1  0  0  0  0  0  0  0  0
    0.2141    6.3997   -3.3359 C   0  0  0  1  0  0  0  0  0  0  0  0
   -0.1180    5.6119   -2.2447 C   0  0  0  1  0  0  0  0  0  0  0  0
   -2.0534    2.4156   -2.1294 H   0  0  0  1  0  0  0  0  0  0  0  0
   -0.5513    2.4832   -1.2389 H   0  0  0  1  0  0  0  0  0  0  0  0
   -1.2108    4.4765   -0.1432 H   0  0  0  1  0  0  0  0  0  0  0  0
   -2.8261    4.3626   -0.8004 H   0  0  0  1  0  0  0  0  0  0  0  0
   -3.2620    4.8648   -3.0828 H   0  0  0  1  0  0  0  0  0  0  0  0
   -2.6806    6.2379   -4.9914 H   0  0  0  1  0  0  0  0  0  0  0  0
   -0.4693    7.2239   -5.1477 H   0  0  0  1  0  0  0  0  0  0  0  0
    1.1639    6.8177   -3.4058 H   0  0  0  1  0  0  0  0  0  0  0  0
    0.5813    5.4421   -1.4939 H   0  0  0  1  0  0  0  0  0  0  0  0
  1  4  1  0  0  0  0
  2  4  1  0  0  0  0
  2  5  2  0  0  0  0
  2  6  1  0  0  0  0
  3  4  1  0  0  0  0
  3  7  1  0  0  0  0
  3  8  1  0  0  0  0
  4 19  1  0  0  0  0
  6  9  1  0  0  0  0
  6 12  1  0  0  0  0
  8 10  1  0  0  0  0
  8 11  2  0  0  0  0
  9 13  1  0  0  0  0
  9 14  1  0  0  0  0
  9 15  1  0  0  0  0
 10 16  1  0  0  0  0
 10 17  1  0  0  0  0
 10 18  1  0  0  0  0
 19 20  1  0  0  0  0
 19 27  1  0  0  0  0
 19 28  1  0  0  0  0
 20 21  1  0  0  0  0
 20 29  1  0  0  0  0
 20 30  1  0  0  0  0
 21 22  4  0  0  0  0
 21 26  4  0  0  0  0
 22 23  4  0  0  0  0
 22 31  1  0  0  0  0
 23 24  4  0  0  0  0
 23 32  1  0  0  0  0
 24 25  4  0  0  0  0
 24 33  1  0  0  0  0
 25 26  4  0  0  0  0
 25 34  1  0  0  0  0
 26 35  1  0  0  0  0
M  END
> <BCLConfClusterSize>
1

> <ConfClashScore>
0 

> <ConfOneFourInteractionScore>
-0.970454 

> <ConfScore>
0.0888283 

> <ConfScorePBest>
0.00706485 

> <ConfTolerance>
0.348542 

> <RosettaParamsInstructions>
M  ROOT 3
M  POLY_N_BB 3
M  POLY_CA_BB 4
M  POLY_C_BB 2
M  POLY_O_BB 5
M  POLY_IGNORE 9 10 11 12 13 14 15 16 17 18 
M  POLY_UPPER 6
M  POLY_LOWER 8
M  POLY_CHG 0
M  POLY_PROPERTIES ALPHA_AA D_AA PROTEIN AROMATIC POLYMER 
M  END

$$$$



 35 35  0  0  0  0  0  0  0  0999 V2000
   -3.5542    3.6223    0.9072 H   0  0  0  1  0  0  0  0  0  0  0  0
   -3.3450    4.9492    2.4995 C   0  0  0  1  0  0  0  0  0  0  0  0
   -1.8130    3.1367    1.8808 N   0  0  0  1  0  0  0  0  0  0  0  0
   -2.7425    4.1548    1.3572 C   0  0  0  1  0  0  0  0  0  0  0  0
   -4.3438    5.6483    2.3340 O   0  0  0  1  0  0  0  0  0  0  0  0
   -2.7201    4.8356    3.6822 N   0  0  0  1  0  0  0  0  0  0  0  0
   -0.8790    3.1519    1.5845 H   0  0  0  1  0  0  0  0  0  0  0  0
   -2.1999    2.1943    2.7453 C   0  0  0  1  0  0  0  0  0  0  0  0
   -3.1279    5.5974    4.8532 C   0  0  0  1  0  0  0  0  0  0  0  0
   -1.0960    1.3232    3.3581 C   0  0  0  1  0  0  0  0  0  0  0  0
   -3.3648    2.0573    3.1151 O   0  0  0  1  0  0  0  0  0  0  0  0
   -1.9630    4.2183    3.7597 H   0  0  0  1  0  0  0  0  0  0  0  0
   -3.6123    6.4992    4.5418 H   0  0  0  1  0  0  0  0  0  0  0  0
   -2.2658    5.8397    5.4387 H   0  0  0  1  0  0  0  0  0  0  0  0
   -3.8056    5.0133    5.4401 H   0  0  0  1  0  0  0  0  0  0  0  0
   -1.1295    1.4021    4.4247 H   0  0  0  1  0  0  0  0  0  0  0  0
   -0.1422    1.6565    3.0059 H   0  0  0  1  0  0  0  0  0  0  0  0
   -1.2462    0.3034    3.0713 H   0  0  0  1  0  0  0  0  0  0  0  0
   -2.1355    4.9968    0.2515 C   0  0  0  1  0  0  0  0  0  0  0  0
   -1.7496    4.1900   -0.9776 C   0  0  0  1  0  0  0  0  0  0  0  0
   -1.3870    5.0508   -2.1581 C   0  0  0  1  0  0  0  0  0  0  0  0
   -2.3176    5.2842   -3.1585 C   0  0  0  1  0  0  0  0  0  0  0  0
   -1.9825    6.0702   -4.2447 C   0  0  0  1  0  0  0  0  0  0  0  0
   -0.7171    6.6296   -4.3311 C   0  0  0  1  0  0  0  0  0  0  0  0
    0.2110    6.3971   -3.3337 C   0  0  0  1  0  0  0  0  0  0  0  0
   -0.1254    5.6087   -2.2443 C   0  0  0  1  0  0  0  0  0  0  0  0
   -1.2576    5.4753    0.6325 H   0  0  0  1  0  0  0  0  0  0  0  0
   -2.8488    5.7391   -0.0402 H   0  0  0  1  0  0  0  0  0  0  0  0
   -2.5768    3.5686   -1.2506 H   0  0  0  1  0  0  0  0  0  0  0  0
   -0.9079    3.5767   -0.7320 H   0  0  0  1  0  0  0  0  0  0  0  0
   -3.2683    4.8677   -3.0917 H   0  0  0  1  0  0  0  0  0  0  0  0
   -2.6795    6.2419   -4.9973 H   0  0  0  1  0  0  0  0  0  0  0  0
   -0.4662    7.2244   -5.1465 H   0  0  0  1  0  0  0  0  0  0  0  0
    1.1616    6.8136   -3.4006 H   0  0  0  1  0  0  0  0  0  0  0  0
    0.5716    5.4370   -1.4918 H   0  0  0  1  0  0  0  0  0  0  0  0
  1  4  1  0  0  0  0
  2  4  1  0  0  0  0
  2  5  2  0  0  0  0
  2  6  1  0  0  0  0
  3  4  1  0  0  0  0
  3  7  1  0  0  0  0
  3  8  1  0  0  0  0
  4 19  1  0  0  0  0
  6  9  1  0  0  0  0
  6 12  1  0  0  0  0
  8 10  1  0  0  0  0
  8 11  2  0  0  0  0
  9 13  1  0  0  0  0
  9 14  1  0  0  0  0
  9 15  1  0  0  0  0
 10 16  1  0  0  0  0
 10 17  1  0  0  0  0
 10 18  1  0  0  0  0
 19 20  1  0  0  0  0
 19 27  1  0  0  0  0
 19 28  1  0  0  0  0
 20 21  1  0  0  0  0
 20 29  1  0  0  0  0
 20 30  1  0  0  0  0
 21 22  4  0  0  0  0
 21 26  4  0  0  0  0
 22 23  4  0  0  0  0
 22 31  1  0  0  0  0
 23 24  4  0  0  0  0
 23 32  1  0  0  0  0
 24 25  4  0  0  0  0
 24 33  1  0  0  0  0
 25 26  4  0  0  0  0
 25 34  1  0  0  0  0
 26 35  1  0  0  0  0
M  END
> <BCLConfClusterSize>
1

> <ConfClashScore>
0 

> <ConfOneFourInteractionScore>
-0.95508 

> <ConfScore>
0.0946806 

> <ConfScorePBest>
0.00703637 

> <ConfTolerance>
0.298945 

> <RosettaParamsInstructions>
M  ROOT 3
M  POLY_N_BB 3
M  POLY_CA_BB 4
M  POLY_C_BB 2
M  POLY_O_BB 5
M  POLY_IGNORE 9 10 11 12 13 14 15 16 17 18 
M  POLY_UPPER 6
M  POLY_LOWER 8
M  POLY_CHG 0
M  POLY_PROPERTIES ALPHA_AA D_AA PROTEIN AROMATIC POLYMER 
M  END

$$$$



 35 35  0  0  0  0  0  0  0  0999 V2000
   -2.2689    3.5084    1.5452 H   0  0  0  1  0  0  0  0  0  0  0  0
   -4.1654    3.1862    0.6783 C   0  0  0  1  0  0  0  0  0  0  0  0
   -3.5843    4.9365    2.2745 N   0  0  0  1  0  0  0  0  0  0  0  0
   -3.0721    4.1114    1.1763 C   0  0  0  1  0  0  0  0  0  0  0  0
   -3.9080    2.0337    0.3332 O   0  0  0  1  0  0  0  0  0  0  0  0
   -5.4195    3.6621    0.6258 N   0  0  0  1  0  0  0  0  0  0  0  0
   -3.6342    5.9043    2.1289 H   0  0  0  1  0  0  0  0  0  0  0  0
   -3.9882    4.4684    3.4589 C   0  0  0  1  0  0  0  0  0  0  0  0
   -6.5336    2.8649    0.1347 C   0  0  0  1  0  0  0  0  0  0  0  0
   -4.2825    5.5154    4.5154 C   0  0  0  1  0  0  0  0  0  0  0  0
   -4.1177    3.2782    3.6937 O   0  0  0  1  0  0  0  0  0  0  0  0
   -5.5908    4.5783    0.9286 H   0  0  0  1  0  0  0  0  0  0  0  0
   -6.5154    1.9013    0.5995 H   0  0  0  1  0  0  0  0  0  0  0  0
   -6.4500    2.7507   -0.9258 H   0  0  0  1  0  0  0  0  0  0  0  0
   -7.4545    3.3566    0.3696 H   0  0  0  1  0  0  0  0  0  0  0  0
   -4.8857    6.2909    4.0915 H   0  0  0  1  0  0  0  0  0  0  0  0
   -3.3631    5.9325    4.8697 H   0  0  0  1  0  0  0  0  0  0  0  0
   -4.8065    5.0617    5.3306 H   0  0  0  1  0  0  0  0  0  0  0  0
   -2.5281    4.9749    0.0545 C   0  0  0  1  0  0  0  0  0  0  0  0
   -1.7068    4.1969   -0.9607 C   0  0  0  1  0  0  0  0  0  0  0  0
   -1.3961    5.0494   -2.1618 C   0  0  0  1  0  0  0  0  0  0  0  0
   -2.3235    5.2856   -3.1647 C   0  0  0  1  0  0  0  0  0  0  0  0
   -1.9838    6.0723   -4.2490 C   0  0  0  1  0  0  0  0  0  0  0  0
   -0.7172    6.6296   -4.3310 C   0  0  0  1  0  0  0  0  0  0  0  0
    0.2076    6.3943   -3.3312 C   0  0  0  1  0  0  0  0  0  0  0  0
   -0.1333    5.6052   -2.2437 C   0  0  0  1  0  0  0  0  0  0  0  0
   -1.9080    5.7350    0.4816 H   0  0  0  1  0  0  0  0  0  0  0  0
   -3.3525    5.4302   -0.4535 H   0  0  0  1  0  0  0  0  0  0  0  0
   -2.2604    3.3368   -1.2747 H   0  0  0  1  0  0  0  0  0  0  0  0
   -0.7902    3.8850   -0.5053 H   0  0  0  1  0  0  0  0  0  0  0  0
   -3.2750    4.8707   -3.1011 H   0  0  0  1  0  0  0  0  0  0  0  0
   -2.6783    6.2461   -5.0033 H   0  0  0  1  0  0  0  0  0  0  0  0
   -0.4628    7.2249   -5.1450 H   0  0  0  1  0  0  0  0  0  0  0  0
    1.1592    6.8091   -3.3948 H   0  0  0  1  0  0  0  0  0  0  0  0
    0.5612    5.4313   -1.4894 H   0  0  0  1  0  0  0  0  0  0  0  0
  1  4  1  0  0  0  0
  2  4  1  0  0  0  0
  2  5  2  0  0  0  0
  2  6  1  0  0  0  0
  3  4  1  0  0  0  0
  3  7  1  0  0  0  0
  3  8  1  0  0  0  0
  4 19  1  0  0  0  0
  6  9  1  0  0  0  0
  6 12  1  0  0  0  0
  8 10  1  0  0  0  0
  8 11  2  0  0  0  0
  9 13  1  0  0  0  0
  9 14  1  0  0  0  0
  9 15  1  0  0  0  0
 10 16  1  0  0  0  0
 10 17  1  0  0  0  0
 10 18  1  0  0  0  0
 19 20  1  0  0  0  0
 19 27  1  0  0  0  0
 19 28  1  0  0  0  0
 20 21  1  0  0  0  0
 20 29  1  0  0  0  0
 20 30  1  0  0  0  0
 21 22  4  0  0  0  0
 21 26  4  0  0  0  0
 22 23  4  0  0  0  0
 22 31  1  0  0  0  0
 23 24  4  0  0  0  0
 23 32  1  0  0  0  0
 24 25  4  0  0  0  0
 24 33  1  0  0  0  0
 25 26  4  0  0  0  0
 25 34  1  0  0  0  0
 26 35  1  0  0  0  0
M  END
> <BCLConfClusterSize>
1

> <ConfClashScore>
0 

> <ConfOneFourInteractionScore>
-0.970454 

> <ConfScore>
0.0955068 

> <ConfScorePBest>
0.00700789 

> <ConfTolerance>
0.288522 

> <RosettaParamsInstructions>
M  ROOT 3
M  POLY_N_BB 3
M  POLY_CA_BB 4
M  POLY_C_BB 2
M  POLY_O_BB 5
M  POLY_IGNORE 9 10 11 12 13 14 15 16 17 18 
M  POLY_UPPER 6
M  POLY_LOWER 8
M  POLY_CHG 0
M  POLY_PROPERTIES ALPHA_AA D_AA PROTEIN AROMATIC POLYMER 
M  END

$$$$



 35 35  0  0  0  0  0  0  0  0999 V2000
   -3.3970    4.7791    1.9705 H   0  0  0  1  0  0  0  0  0  0  0  0
   -2.1365    3.1107    1.8828 C   0  0  0  1  0  0  0  0  0  0  0  0
   -4.2297    3.5004    0.5901 N   0  0  0  1  0  0  0  0  0  0  0  0
   -3.0488    4.1155    1.2067 C   0  0  0  1  0  0  0  0  0  0  0  0
   -2.6534    2.1324    2.4159 O   0  0  0  1  0  0  0  0  0  0  0  0
   -0.8205    3.3408    1.8639 N   0  0  0  1  0  0  0  0  0  0  0  0
   -5.0861    3.9768    0.5912 H   0  0  0  1  0  0  0  0  0  0  0  0
   -4.1394    2.2870    0.0246 C   0  0  0  1  0  0  0  0  0  0  0  0
    0.1901    2.4428    2.4026 C   0  0  0  1  0  0  0  0  0  0  0  0
   -5.4087    1.7642   -0.6192 C   0  0  0  1  0  0  0  0  0  0  0  0
   -3.1018    1.6260    0.0191 O   0  0  0  1  0  0  0  0  0  0  0  0
   -0.5126    4.1772    1.4565 H   0  0  0  1  0  0  0  0  0  0  0  0
    0.3641    2.6773    3.4319 H   0  0  0  1  0  0  0  0  0  0  0  0
    1.1001    2.5589    1.8518 H   0  0  0  1  0  0  0  0  0  0  0  0
   -0.1508    1.4319    2.3200 H   0  0  0  1  0  0  0  0  0  0  0  0
   -5.2121    1.5068   -1.6390 H   0  0  0  1  0  0  0  0  0  0  0  0
   -6.1648    2.5205   -0.5819 H   0  0  0  1  0  0  0  0  0  0  0  0
   -5.7450    0.8966   -0.0910 H   0  0  0  1  0  0  0  0  0  0  0  0
   -2.3513    4.9787    0.1730 C   0  0  0  1  0  0  0  0  0  0  0  0
   -1.7891    4.1846   -0.9948 C   0  0  0  1  0  0  0  0  0  0  0  0
   -1.3784    5.0520   -2.1545 C   0  0  0  1  0  0  0  0  0  0  0  0
   -2.3122    5.2828   -3.1526 C   0  0  0  1  0  0  0  0  0  0  0  0
   -1.9813    6.0682   -4.2406 C   0  0  0  1  0  0  0  0  0  0  0  0
   -0.7171    6.6296   -4.3310 C   0  0  0  1  0  0  0  0  0  0  0  0
    0.2141    6.3997   -3.3359 C   0  0  0  1  0  0  0  0  0  0  0  0
   -0.1180    5.6119   -2.2447 C   0  0  0  1  0  0  0  0  0  0  0  0
   -1.5456    5.4959    0.6508 H   0  0  0  1  0  0  0  0  0  0  0  0
   -3.0558    5.6886   -0.2073 H   0  0  0  1  0  0  0  0  0  0  0  0
   -2.5375    3.4979   -1.3314 H   0  0  0  1  0  0  0  0  0  0  0  0
   -0.9321    3.6410   -0.6558 H   0  0  0  1  0  0  0  0  0  0  0  0
   -3.2620    4.8648   -3.0828 H   0  0  0  1  0  0  0  0  0  0  0  0
   -2.6806    6.2379   -4.9914 H   0  0  0  1  0  0  0  0  0  0  0  0
   -0.4693    7.2239   -5.1477 H   0  0  0  1  0  0  0  0  0  0  0  0
    1.1639    6.8177   -3.4058 H   0  0  0  1  0  0  0  0  0  0  0  0
    0.5813    5.4421   -1.4939 H   0  0  0  1  0  0  0  0  0  0  0  0
  1  4  1  0  0  0  0
  2  4  1  0  0  0  0
  2  5  2  0  0  0  0
  2  6  1  0  0  0  0
  3  4  1  0  0  0  0
  3  7  1  0  0  0  0
  3  8  1  0  0  0  0
  4 19  1  0  0  0  0
  6  9  1  0  0  0  0
  6 12  1  0  0  0  0
  8 10  1  0  0  0  0
  8 11  2  0  0  0  0
  9 13  1  0  0  0  0
  9 14  1  0  0  0  0
  9 15  1  0  0  0  0
 10 16  1  0  0  0  0
 10 17  1  0  0  0  0
 10 18  1  0  0  0  0
 19 20  1  0  0  0  0
 19 27  1  0  0  0  0
 19 28  1  0  0  0  0
 20 21  1  0  0  0  0
 20 29  1  0  0  0  0
 20 30  1  0  0  0  0
 21 22  4  0  0  0  0
 21 26  4  0  0  0  0
 22 23  4  0  0  0  0
 22 31  1  0  0  0  0
 23 24  4  0  0  0  0
 23 32  1  0  0  0  0
 24 25  4  0  0  0  0
 24 33  1  0  0  0  0
 25 26  4  0  0  0  0
 25 34  1  0  0  0  0
 26 35  1  0  0  0  0
M  END
> <BCLConfClusterSize>
1

> <ConfClashScore>
0 

> <ConfOneFourInteractionScore>
-0.927009 

> <ConfScore>
0.101658 

> <ConfScorePBest>
0.00697941 

> <ConfTolerance>
0.408308 

> <RosettaParamsInstructions>
M  ROOT 3
M  POLY_N_BB 3
M  POLY_CA_BB 4
M  POLY_C_BB 2
M  POLY_O_BB 5
M  POLY_IGNORE 9 10 11 12 13 14 15 16 17 18 
M  POLY_UPPER 6
M  POLY_LOWER 8
M  POLY_CHG 0
M  POLY_PROPERTIES ALPHA_AA D_AA PROTEIN AROMATIC POLYMER 
M  END

$$$$



 35 35  0  0  0  0  0  0  0  0999 V2000
   -3.0277    4.7351    2.1317 H   0  0  0  1  0  0  0  0  0  0  0  0
   -1.1498    3.8087    2.2146 C   0  0  0  1  0  0  0  0  0  0  0  0
   -3.2141    2.9655    1.0979 N   0  0  0  1  0  0  0  0  0  0  0  0
   -2.4285    4.1487    1.4669 C   0  0  0  1  0  0  0  0  0  0  0  0
   -0.3923    4.6887    2.6148 O   0  0  0  1  0  0  0  0  0  0  0  0
   -0.9151    2.5067    2.4010 N   0  0  0  1  0  0  0  0  0  0  0  0
   -3.3268    2.7284    0.1537 H   0  0  0  1  0  0  0  0  0  0  0  0
   -3.7762    2.2109    2.0464 C   0  0  0  1  0  0  0  0  0  0  0  0
    0.0936    2.0240    3.3323 C   0  0  0  1  0  0  0  0  0  0  0  0
   -4.7464    1.1273    1.6180 C   0  0  0  1  0  0  0  0  0  0  0  0
   -3.5542    2.3420    3.2473 O   0  0  0  1  0  0  0  0  0  0  0  0
   -1.4406    1.8539    1.8928 H   0  0  0  1  0  0  0  0  0  0  0  0
    0.9042    2.7213    3.3738 H   0  0  0  1  0  0  0  0  0  0  0  0
    0.4576    1.0735    3.0024 H   0  0  0  1  0  0  0  0  0  0  0  0
   -0.3393    1.9226    4.3056 H   0  0  0  1  0  0  0  0  0  0  0  0
   -5.4820    1.5452    0.9629 H   0  0  0  1  0  0  0  0  0  0  0  0
   -5.2287    0.7190    2.4814 H   0  0  0  1  0  0  0  0  0  0  0  0
   -4.2130    0.3530    1.1071 H   0  0  0  1  0  0  0  0  0  0  0  0
   -2.2079    4.9947    0.2277 C   0  0  0  1  0  0  0  0  0  0  0  0
   -1.7496    4.1900   -0.9776 C   0  0  0  1  0  0  0  0  0  0  0  0
   -1.3870    5.0508   -2.1581 C   0  0  0  1  0  0  0  0  0  0  0  0
   -2.3176    5.2842   -3.1585 C   0  0  0  1  0  0  0  0  0  0  0  0
   -1.9825    6.0702   -4.2447 C   0  0  0  1  0  0  0  0  0  0  0  0
   -0.7171    6.6296   -4.3311 C   0  0  0  1  0  0  0  0  0  0  0  0
    0.2110    6.3971   -3.3337 C   0  0  0  1  0  0  0  0  0  0  0  0
   -0.1254    5.6087   -2.2443 C   0  0  0  1  0  0  0  0  0  0  0  0
   -1.4628    5.7305    0.4476 H   0  0  0  1  0  0  0  0  0  0  0  0
   -3.1283    5.4812   -0.0192 H   0  0  0  1  0  0  0  0  0  0  0  0
   -2.5406    3.5303   -1.2674 H   0  0  0  1  0  0  0  0  0  0  0  0
   -0.8907    3.6165   -0.6976 H   0  0  0  1  0  0  0  0  0  0  0  0
   -3.2683    4.8677   -3.0917 H   0  0  0  1  0  0  0  0  0  0  0  0
   -2.6795    6.2419   -4.9973 H   0  0  0  1  0  0  0  0  0  0  0  0
   -0.4662    7.2244   -5.1465 H   0  0  0  1  0  0  0  0  0  0  0  0
    1.1616    6.8136   -3.4006 H   0  0  0  1  0  0  0  0  0  0  0  0
    0.5716    5.4370   -1.4918 H   0  0  0  1  0  0  0  0  0  0  0  0
  1  4  1  0  0  0  0
  2  4  1  0  0  0  0
  2  5  2  0  0  0  0
  2  6  1  0  0  0  0
  3  4  1  0  0  0  0
  3  7  1  0  0  0  0
  3  8  1  0  0  0  0
  4 19  1  0  0  0  0
  6  9  1  0  0  0  0
  6 12  1  0  0  0  0
  8 10  1  0  0  0  0
  8 11  2  0  0  0  0
  9 13  1  0  0  0  0
  9 14  1  0  0  0  0
  9 15  1  0  0  0  0
 10 16  1  0  0  0  0
 10 17  1  0  0  0  0
 10 18  1  0  0  0  0
 19 20  1  0  0  0  0
 19 27  1  0  0  0  0
 19 28  1  0  0  0  0
 20 21  1  0  0  0  0
 20 29  1  0  0  0  0
 20 30  1  0  0  0  0
 21 22  4  0  0  0  0
 21 26  4  0  0  0  0
 22 23  4  0  0  0  0
 22 31  1  0  0  0  0
 23 24  4  0  0  0  0
 23 32  1  0  0  0  0
 24 25  4  0  0  0  0
 24 33  1  0  0  0  0
 25 26  4  0  0  0  0
 25 34  1  0  0  0  0
 26 35  1  0  0  0  0
M  END
> <BCLConfClusterSize>
1

> <ConfClashScore>
0 

> <ConfOneFourInteractionScore>
-0.933362 

> <ConfScore>
0.10379 

> <ConfScorePBest>
0.00695093 

> <ConfTolerance>
0.254586 

> <RosettaParamsInstructions>
M  ROOT 3
M  POLY_N_BB 3
M  POLY_CA_BB 4
M  POLY_C_BB 2
M  POLY_O_BB 5
M  POLY_IGNORE 9 10 11 12 13 14 15 16 17 18 
M  POLY_UPPER 6
M  POLY_LOWER 8
M  POLY_CHG 0
M  POLY_PROPERTIES ALPHA_AA D_AA PROTEIN AROMATIC POLYMER 
M  END

$$$$



 35 35  0  0  0  0  0  0  0  0999 V2000
   -1.2478    1.7819    0.5070 H   0  0  0  1  0  0  0  0  0  0  0  0
   -2.0689    0.3447   -0.8230 C   0  0  0  1  0  0  0  0  0  0  0  0
   -3.2934    2.1141    0.3262 N   0  0  0  1  0  0  0  0  0  0  0  0
   -2.0071    1.7456   -0.2461 C   0  0  0  1  0  0  0  0  0  0  0  0
   -1.0942   -0.1610   -1.3772 O   0  0  0  1  0  0  0  0  0  0  0  0
   -3.2436   -0.2908   -0.6868 N   0  0  0  1  0  0  0  0  0  0  0  0
   -3.9875    2.4753   -0.2639 H   0  0  0  1  0  0  0  0  0  0  0  0
   -3.5609    1.9773    1.6280 C   0  0  0  1  0  0  0  0  0  0  0  0
   -3.5492   -1.5212   -1.4014 C   0  0  0  1  0  0  0  0  0  0  0  0
   -4.9073    2.4958    2.0800 C   0  0  0  1  0  0  0  0  0  0  0  0
   -2.7758    1.4656    2.4219 O   0  0  0  1  0  0  0  0  0  0  0  0
   -3.9188    0.0870   -0.0853 H   0  0  0  1  0  0  0  0  0  0  0  0
   -3.9754   -1.2846   -2.3539 H   0  0  0  1  0  0  0  0  0  0  0  0
   -4.2468   -2.0998   -0.8326 H   0  0  0  1  0  0  0  0  0  0  0  0
   -2.6502   -2.0838   -1.5431 H   0  0  0  1  0  0  0  0  0  0  0  0
   -5.6682    1.7909    1.8168 H   0  0  0  1  0  0  0  0  0  0  0  0
   -5.1077    3.4317    1.6017 H   0  0  0  1  0  0  0  0  0  0  0  0
   -4.8990    2.6316    3.1413 H   0  0  0  1  0  0  0  0  0  0  0  0
   -1.6511    2.7133   -1.3473 C   0  0  0  1  0  0  0  0  0  0  0  0
   -1.7891    4.1846   -0.9948 C   0  0  0  1  0  0  0  0  0  0  0  0
   -1.3784    5.0520   -2.1545 C   0  0  0  1  0  0  0  0  0  0  0  0
   -2.3122    5.2828   -3.1526 C   0  0  0  1  0  0  0  0  0  0  0  0
   -1.9813    6.0682   -4.2406 C   0  0  0  1  0  0  0  0  0  0  0  0
   -0.7171    6.6296   -4.3310 C   0  0  0  1  0  0  0  0  0  0  0  0
    0.2141    6.3997   -3.3359 C   0  0  0  1  0  0  0  0  0  0  0  0
   -0.1180    5.6119   -2.2447 C   0  0  0  1  0  0  0  0  0  0  0  0
   -2.2905    2.5129   -2.1815 H   0  0  0  1  0  0  0  0  0  0  0  0
   -0.6336    2.5353   -1.6263 H   0  0  0  1  0  0  0  0  0  0  0  0
   -1.1646    4.4040   -0.1541 H   0  0  0  1  0  0  0  0  0  0  0  0
   -2.8089    4.3915   -0.7458 H   0  0  0  1  0  0  0  0  0  0  0  0
   -3.2620    4.8648   -3.0828 H   0  0  0  1  0  0  0  0  0  0  0  0
   -2.6806    6.2379   -4.9914 H   0  0  0  1  0  0  0  0  0  0  0  0
   -0.4693    7.2239   -5.1477 H   0  0  0  1  0  0  0  0  0  0  0  0
    1.1639    6.8177   -3.4058 H   0  0  0  1  0  0  0  0  0  0  0  0
    0.5813    5.4421   -1.4939 H   0  0  0  1  0  0  0  0  0  0  0  0
  1  4  1  0  0  0  0
  2  4  1  0  0  0  0
  2  5  2  0  0  0  0
  2  6  1  0  0  0  0
  3  4  1  0  0  0  0
  3  7  1  0  0  0  0
  3  8  1  0  0  0  0
  4 19  1  0  0  0  0
  6  9  1  0  0  0  0
  6 12  1  0  0  0  0
  8 10  1  0  0  0  0
  8 11  2  0  0  0  0
  9 13  1  0  0  0  0
  9 14  1  0  0  0  0
  9 15  1  0  0  0  0
 10 16  1  0  0  0  0
 10 17  1  0  0  0  0
 10 18  1  0  0  0  0
 19 20  1  0  0  0  0
 19 27  1  0  0  0  0
 19 28  1  0  0  0  0
 20 21  1  0  0  0  0
 20 29  1  0  0  0  0
 20 30  1  0  0  0  0
 21 22  4  0  0  0  0
 21 26  4  0  0  0  0
 22 23  4  0  0  0  0
 22 31  1  0  0  0  0
 23 24  4  0  0  0  0
 23 32  1  0  0  0  0
 24 25  4  0  0  0  0
 24 33  1  0  0  0  0
 25 26  4  0  0  0  0
 25 34  1  0  0  0  0
 26 35  1  0  0  0  0
M  END
> <BCLConfClusterSize>
1

> <ConfClashScore>
0 

> <ConfOneFourInteractionScore>
-0.933362 

> <ConfScore>
0.106599 

> <ConfScorePBest>
0.00692245 

> <ConfTolerance>
0.327375 

> <RosettaParamsInstructions>
M  ROOT 3
M  POLY_N_BB 3
M  POLY_CA_BB 4
M  POLY_C_BB 2
M  POLY_O_BB 5
M  POLY_IGNORE 9 10 11 12 13 14 15 16 17 18 
M  POLY_UPPER 6
M  POLY_LOWER 8
M  POLY_CHG 0
M  POLY_PROPERTIES ALPHA_AA D_AA PROTEIN AROMATIC POLYMER 
M  END

$$$$



 35 35  0  0  0  0  0  0  0  0999 V2000
   -3.7056    4.5918    1.8244 H   0  0  0  1  0  0  0  0  0  0  0  0
   -1.7922    3.7173    2.0540 C   0  0  0  1  0  0  0  0  0  0  0  0
   -3.6821    2.8260    0.7401 N   0  0  0  1  0  0  0  0  0  0  0  0
   -3.0214    4.0384    1.2158 C   0  0  0  1  0  0  0  0  0  0  0  0
   -1.1749    4.5999    2.6442 O   0  0  0  1  0  0  0  0  0  0  0  0
   -1.4394    2.4229    2.0997 N   0  0  0  1  0  0  0  0  0  0  0  0
   -3.4433    2.4723   -0.1421 H   0  0  0  1  0  0  0  0  0  0  0  0
   -4.6053    2.1793    1.4692 C   0  0  0  1  0  0  0  0  0  0  0  0
   -0.2879    2.0543    2.9098 C   0  0  0  1  0  0  0  0  0  0  0  0
   -5.2481    0.9784    0.8029 C   0  0  0  1  0  0  0  0  0  0  0  0
   -4.9220    2.5235    2.6048 O   0  0  0  1  0  0  0  0  0  0  0  0
   -1.9429    1.7454    1.6018 H   0  0  0  1  0  0  0  0  0  0  0  0
    0.5690    2.6065    2.5847 H   0  0  0  1  0  0  0  0  0  0  0  0
   -0.0982    1.0066    2.8035 H   0  0  0  1  0  0  0  0  0  0  0  0
   -0.4880    2.2787    3.9366 H   0  0  0  1  0  0  0  0  0  0  0  0
   -6.1626    0.7388    1.3042 H   0  0  0  1  0  0  0  0  0  0  0  0
   -4.5826    0.1423    0.8566 H   0  0  0  1  0  0  0  0  0  0  0  0
   -5.4528    1.2067   -0.2222 H   0  0  0  1  0  0  0  0  0  0  0  0
   -2.6377    4.9054    0.0320 C   0  0  0  1  0  0  0  0  0  0  0  0
   -1.7496    4.1900   -0.9776 C   0  0  0  1  0  0  0  0  0  0  0  0
   -1.3870    5.0508   -2.1581 C   0  0  0  1  0  0  0  0  0  0  0  0
   -2.3176    5.2842   -3.1585 C   0  0  0  1  0  0  0  0  0  0  0  0
   -1.9825    6.0702   -4.2447 C   0  0  0  1  0  0  0  0  0  0  0  0
   -0.7171    6.6296   -4.3311 C   0  0  0  1  0  0  0  0  0  0  0  0
    0.2110    6.3971   -3.3337 C   0  0  0  1  0  0  0  0  0  0  0  0
   -0.1254    5.6087   -2.2443 C   0  0  0  1  0  0  0  0  0  0  0  0
   -2.1136    5.7642    0.3963 H   0  0  0  1  0  0  0  0  0  0  0  0
   -3.5328    5.2172   -0.4644 H   0  0  0  1  0  0  0  0  0  0  0  0
   -2.2678    3.3243   -1.3338 H   0  0  0  1  0  0  0  0  0  0  0  0
   -0.8482    3.8894   -0.4856 H   0  0  0  1  0  0  0  0  0  0  0  0
   -3.2683    4.8677   -3.0917 H   0  0  0  1  0  0  0  0  0  0  0  0
   -2.6795    6.2419   -4.9973 H   0  0  0  1  0  0  0  0  0  0  0  0
   -0.4662    7.2244   -5.1465 H   0  0  0  1  0  0  0  0  0  0  0  0
    1.1616    6.8136   -3.4006 H   0  0  0  1  0  0  0  0  0  0  0  0
    0.5716    5.4370   -1.4918 H   0  0  0  1  0  0  0  0  0  0  0  0
  1  4  1  0  0  0  0
  2  4  1  0  0  0  0
  2  5  2  0  0  0  0
  2  6  1  0  0  0  0
  3  4  1  0  0  0  0
  3  7  1  0  0  0  0
  3  8  1  0  0  0  0
  4 19  1  0  0  0  0
  6  9  1  0  0  0  0
  6 12  1  0  0  0  0
  8 10  1  0  0  0  0
  8 11  2  0  0  0  0
  9 13  1  0  0  0  0
  9 14  1  0  0  0  0
  9 15  1  0  0  0  0
 10 16  1  0  0  0  0
 10 17  1  0  0  0  0
 10 18  1  0  0  0  0
 19 20  1  0  0  0  0
 19 27  1  0  0  0  0
 19 28  1  0  0  0  0
 20 21  1  0  0  0  0
 20 29  1  0  0  0  0
 20 30  1  0  0  0  0
 21 22  4  0  0  0  0
 21 26  4  0  0  0  0
 22 23  4  0  0  0  0
 22 31  1  0  0  0  0
 23 24  4  0  0  0  0
 23 32  1  0  0  0  0
 24 25  4  0  0  0  0
 24 33  1  0  0  0  0
 25 26  4  0  0  0  0
 25 34  1  0  0  0  0
 26 35  1  0  0  0  0
M  END
> <BCLConfClusterSize>
1

> <ConfClashScore>
0 

> <ConfOneFourInteractionScore>
-0.933362 

> <ConfScore>
0.108099 

> <ConfScorePBest>
0.00689397 

> <ConfTolerance>
0.340046 

> <RosettaParamsInstructions>
M  ROOT 3
M  POLY_N_BB 3
M  POLY_CA_BB 4
M  POLY_C_BB 2
M  POLY_O_BB 5
M  POLY_IGNORE 9 10 11 12 13 14 15 16 17 18 
M  POLY_UPPER 6
M  POLY_LOWER 8
M  POLY_CHG 0
M  POLY_PROPERTIES ALPHA_AA D_AA PROTEIN AROMATIC POLYMER 
M  END

$$$$



 35 35  0  0  0  0  0  0  0  0999 V2000
   -2.6731    1.9834    0.3849 H   0  0  0  1  0  0  0  0  0  0  0  0
   -0.7787    2.4667    1.1612 C   0  0  0  1  0  0  0  0  0  0  0  0
   -1.3556    0.5109   -0.2326 N   0  0  0  1  0  0  0  0  0  0  0  0
   -1.6563    1.9158    0.0587 C   0  0  0  1  0  0  0  0  0  0  0  0
    0.4034    2.1468    1.2547 O   0  0  0  1  0  0  0  0  0  0  0  0
   -1.3732    3.3106    2.0093 N   0  0  0  1  0  0  0  0  0  0  0  0
   -0.9451    0.2837   -1.0929 H   0  0  0  1  0  0  0  0  0  0  0  0
   -1.6219   -0.4705    0.6340 C   0  0  0  1  0  0  0  0  0  0  0  0
   -0.6297    4.0536    3.0159 C   0  0  0  1  0  0  0  0  0  0  0  0
   -1.1351   -1.8572    0.2335 C   0  0  0  1  0  0  0  0  0  0  0  0
   -2.2197   -0.2855    1.6908 O   0  0  0  1  0  0  0  0  0  0  0  0
   -2.3438    3.4336    1.9516 H   0  0  0  1  0  0  0  0  0  0  0  0
    0.3399    4.2983    2.6353 H   0  0  0  1  0  0  0  0  0  0  0  0
   -0.5263    3.4549    3.8967 H   0  0  0  1  0  0  0  0  0  0  0  0
   -1.1562    4.9537    3.2556 H   0  0  0  1  0  0  0  0  0  0  0  0
   -0.0682   -1.8514    0.1518 H   0  0  0  1  0  0  0  0  0  0  0  0
   -1.5633   -2.1267   -0.7094 H   0  0  0  1  0  0  0  0  0  0  0  0
   -1.4318   -2.5675    0.9766 H   0  0  0  1  0  0  0  0  0  0  0  0
   -1.5352    2.7091   -1.2333 C   0  0  0  1  0  0  0  0  0  0  0  0
   -1.7496    4.1900   -0.9776 C   0  0  0  1  0  0  0  0  0  0  0  0
   -1.3870    5.0508   -2.1581 C   0  0  0  1  0  0  0  0  0  0  0  0
   -2.3176    5.2842   -3.1585 C   0  0  0  1  0  0  0  0  0  0  0  0
   -1.9825    6.0702   -4.2447 C   0  0  0  1  0  0  0  0  0  0  0  0
   -0.7171    6.6296   -4.3311 C   0  0  0  1  0  0  0  0  0  0  0  0
    0.2110    6.3971   -3.3337 C   0  0  0  1  0  0  0  0  0  0  0  0
   -0.1254    5.6087   -2.2443 C   0  0  0  1  0  0  0  0  0  0  0  0
   -2.2717    2.3628   -1.9280 H   0  0  0  1  0  0  0  0  0  0  0  0
   -0.5587    2.5620   -1.6452 H   0  0  0  1  0  0  0  0  0  0  0  0
   -1.1455    4.4827   -0.1443 H   0  0  0  1  0  0  0  0  0  0  0  0
   -2.7816    4.3494   -0.7441 H   0  0  0  1  0  0  0  0  0  0  0  0
   -3.2683    4.8677   -3.0917 H   0  0  0  1  0  0  0  0  0  0  0  0
   -2.6795    6.2419   -4.9973 H   0  0  0  1  0  0  0  0  0  0  0  0
   -0.4662    7.2244   -5.1465 H   0  0  0  1  0  0  0  0  0  0  0  0
    1.1616    6.8136   -3.4006 H   0  0  0  1  0  0  0  0  0  0  0  0
    0.5716    5.4370   -1.4918 H   0  0  0  1  0  0  0  0  0  0  0  0
  1  4  1  0  0  0  0
  2  4  1  0  0  0  0
  2  5  2  0  0  0  0
  2  6  1  0  0  0  0
  3  4  1  0  0  0  0
  3  7  1  0  0  0  0
  3  8  1  0  0  0  0
  4 19  1  0  0  0  0
  6  9  1  0  0  0  0
  6 12  1  0  0  0  0
  8 10  1  0  0  0  0
  8 11  2  0  0  0  0
  9 13  1  0  0  0  0
  9 14  1  0  0  0  0
  9 15  1  0  0  0  0
 10 16  1  0  0  0  0
 10 17  1  0  0  0  0
 10 18  1  0  0  0  0
 19 20  1  0  0  0  0
 19 27  1  0  0  0  0
 19 28  1  0  0  0  0
 20 21  1  0  0  0  0
 20 29  1  0  0  0  0
 20 30  1  0  0  0  0
 21 22  4  0  0  0  0
 21 26  4  0  0  0  0
 22 23  4  0  0  0  0
 22 31  1  0  0  0  0
 23 24  4  0  0  0  0
 23 32  1  0  0  0  0
 24 25  4  0  0  0  0
 24 33  1  0  0  0  0
 25 26  4  0  0  0  0
 25 34  1  0  0  0  0
 26 35  1  0  0  0  0
M  END
> <BCLConfClusterSize>
1

> <ConfClashScore>
0 

> <ConfOneFourInteractionScore>
-0.991445 

> <ConfScore>
0.109264 

> <ConfScorePBest>
0.00686549 

> <ConfTolerance>
0.345659 

> <RosettaParamsInstructions>
M  ROOT 3
M  POLY_N_BB 3
M  POLY_CA_BB 4
M  POLY_C_BB 2
M  POLY_O_BB 5
M  POLY_IGNORE 9 10 11 12 13 14 15 16 17 18 
M  POLY_UPPER 6
M  POLY_LOWER 8
M  POLY_CHG 0
M  POLY_PROPERTIES ALPHA_AA D_AA PROTEIN AROMATIC POLYMER 
M  END

$$$$



 35 35  0  0  0  0  0  0  0  0999 V2000
   -3.2084    4.7425    2.0747 H   0  0  0  1  0  0  0  0  0  0  0  0
   -1.4537    3.5764    2.1109 C   0  0  0  1  0  0  0  0  0  0  0  0
   -3.5454    3.0774    0.9298 N   0  0  0  1  0  0  0  0  0  0  0  0
   -2.6688    4.1260    1.3865 C   0  0  0  1  0  0  0  0  0  0  0  0
   -0.3937    4.2005    2.0907 O   0  0  0  1  0  0  0  0  0  0  0  0
   -1.6310    2.4519    2.8224 N   0  0  0  1  0  0  0  0  0  0  0  0
   -4.5061    3.1781    1.0949 H   0  0  0  1  0  0  0  0  0  0  0  0
   -3.1283    1.9673    0.2903 C   0  0  0  1  0  0  0  0  0  0  0  0
   -0.5308    1.8951    3.5953 C   0  0  0  1  0  0  0  0  0  0  0  0
   -4.2267    0.9476    0.0601 C   0  0  0  1  0  0  0  0  0  0  0  0
   -1.9739    1.7675   -0.0851 O   0  0  0  1  0  0  0  0  0  0  0  0
   -2.5032    2.0049    2.8213 H   0  0  0  1  0  0  0  0  0  0  0  0
    0.3994    2.2181    3.1764 H   0  0  0  1  0  0  0  0  0  0  0  0
   -0.5816    0.8266    3.5691 H   0  0  0  1  0  0  0  0  0  0  0  0
   -0.6011    2.2313    4.6087 H   0  0  0  1  0  0  0  0  0  0  0  0
   -5.0696    1.4266   -0.3925 H   0  0  0  1  0  0  0  0  0  0  0  0
   -4.5194    0.5215    0.9969 H   0  0  0  1  0  0  0  0  0  0  0  0
   -3.8660    0.1751   -0.5866 H   0  0  0  1  0  0  0  0  0  0  0  0
   -2.2946    4.9877    0.1959 C   0  0  0  1  0  0  0  0  0  0  0  0
   -1.7496    4.1900   -0.9776 C   0  0  0  1  0  0  0  0  0  0  0  0
   -1.3870    5.0508   -2.1581 C   0  0  0  1  0  0  0  0  0  0  0  0
   -2.3176    5.2842   -3.1585 C   0  0  0  1  0  0  0  0  0  0  0  0
   -1.9825    6.0702   -4.2447 C   0  0  0  1  0  0  0  0  0  0  0  0
   -0.7171    6.6296   -4.3311 C   0  0  0  1  0  0  0  0  0  0  0  0
    0.2110    6.3971   -3.3337 C   0  0  0  1  0  0  0  0  0  0  0  0
   -0.1254    5.6087   -2.2443 C   0  0  0  1  0  0  0  0  0  0  0  0
   -1.5478    5.6885    0.5057 H   0  0  0  1  0  0  0  0  0  0  0  0
   -3.1670    5.5154   -0.1285 H   0  0  0  1  0  0  0  0  0  0  0  0
   -2.4939    3.4857   -1.2856 H   0  0  0  1  0  0  0  0  0  0  0  0
   -0.8736    3.6664   -0.6560 H   0  0  0  1  0  0  0  0  0  0  0  0
   -3.2683    4.8677   -3.0917 H   0  0  0  1  0  0  0  0  0  0  0  0
   -2.6795    6.2419   -4.9973 H   0  0  0  1  0  0  0  0  0  0  0  0
   -0.4662    7.2244   -5.1465 H   0  0  0  1  0  0  0  0  0  0  0  0
    1.1616    6.8136   -3.4006 H   0  0  0  1  0  0  0  0  0  0  0  0
    0.5716    5.4370   -1.4918 H   0  0  0  1  0  0  0  0  0  0  0  0
  1  4  1  0  0  0  0
  2  4  1  0  0  0  0
  2  5  2  0  0  0  0
  2  6  1  0  0  0  0
  3  4  1  0  0  0  0
  3  7  1  0  0  0  0
  3  8  1  0  0  0  0
  4 19  1  0  0  0  0
  6  9  1  0  0  0  0
  6 12  1  0  0  0  0
  8 10  1  0  0  0  0
  8 11  2  0  0  0  0
  9 13  1  0  0  0  0
  9 14  1  0  0  0  0
  9 15  1  0  0  0  0
 10 16  1  0  0  0  0
 10 17  1  0  0  0  0
 10 18  1  0  0  0  0
 19 20  1  0  0  0  0
 19 27  1  0  0  0  0
 19 28  1  0  0  0  0
 20 21  1  0  0  0  0
 20 29  1  0  0  0  0
 20 30  1  0  0  0  0
 21 22  4  0  0  0  0
 21 26  4  0  0  0  0
 22 23  4  0  0  0  0
 22 31  1  0  0  0  0
 23 24  4  0  0  0  0
 23 32  1  0  0  0  0
 24 25  4  0  0  0  0
 24 33  1  0  0  0  0
 25 26  4  0  0  0  0
 25 34  1  0  0  0  0
 26 35  1  0  0  0  0
M  END
> <BCLConfClusterSize>
1

> <ConfClashScore>
0 

> <ConfOneFourInteractionScore>
-0.946303 

> <ConfScore>
0.109782 

> <ConfScorePBest>
0.00683701 

> <ConfTolerance>
0.207293 

> <RosettaParamsInstructions>
M  ROOT 3
M  POLY_N_BB 3
M  POLY_CA_BB 4
M  POLY_C_BB 2
M  POLY_O_BB 5
M  POLY_IGNORE 9 10 11 12 13 14 15 16 17 18 
M  POLY_UPPER 6
M  POLY_LOWER 8
M  POLY_CHG 0
M  POLY_PROPERTIES ALPHA_AA D_AA PROTEIN AROMATIC POLYMER 
M  END

$$$$



 35 35  0  0  0  0  0  0  0  0999 V2000
   -1.6940    0.8184   -0.3810 H   0  0  0  1  0  0  0  0  0  0  0  0
   -3.3858    1.9199    0.1542 C   0  0  0  1  0  0  0  0  0  0  0  0
   -1.1620    2.0369    1.1953 N   0  0  0  1  0  0  0  0  0  0  0  0
   -1.8934    1.8219   -0.0677 C   0  0  0  1  0  0  0  0  0  0  0  0
   -4.1197    2.4138   -0.7008 O   0  0  0  1  0  0  0  0  0  0  0  0
   -3.8841    1.4527    1.3099 N   0  0  0  1  0  0  0  0  0  0  0  0
   -0.4815    1.3766    1.4429 H   0  0  0  1  0  0  0  0  0  0  0  0
   -1.3589    3.0729    2.0339 C   0  0  0  1  0  0  0  0  0  0  0  0
   -5.2933    1.4601    1.6731 C   0  0  0  1  0  0  0  0  0  0  0  0
   -0.5799    2.9641    3.3303 C   0  0  0  1  0  0  0  0  0  0  0  0
   -2.0936    4.0317    1.8017 O   0  0  0  1  0  0  0  0  0  0  0  0
   -3.2512    1.0784    1.9577 H   0  0  0  1  0  0  0  0  0  0  0  0
   -5.8875    1.2755    0.8026 H   0  0  0  1  0  0  0  0  0  0  0  0
   -5.5503    2.4139    2.0843 H   0  0  0  1  0  0  0  0  0  0  0  0
   -5.4782    0.6964    2.3993 H   0  0  0  1  0  0  0  0  0  0  0  0
   -0.7357    1.9969    3.7605 H   0  0  0  1  0  0  0  0  0  0  0  0
   -0.9168    3.7162    4.0127 H   0  0  0  1  0  0  0  0  0  0  0  0
    0.4625    3.1024    3.1324 H   0  0  0  1  0  0  0  0  0  0  0  0
   -1.3530    2.7338   -1.1583 C   0  0  0  1  0  0  0  0  0  0  0  0
   -1.7496    4.1900   -0.9776 C   0  0  0  1  0  0  0  0  0  0  0  0
   -1.3870    5.0508   -2.1581 C   0  0  0  1  0  0  0  0  0  0  0  0
   -2.3176    5.2842   -3.1585 C   0  0  0  1  0  0  0  0  0  0  0  0
   -1.9825    6.0702   -4.2447 C   0  0  0  1  0  0  0  0  0  0  0  0
   -0.7171    6.6296   -4.3311 C   0  0  0  1  0  0  0  0  0  0  0  0
    0.2110    6.3971   -3.3337 C   0  0  0  1  0  0  0  0  0  0  0  0
   -0.1254    5.6087   -2.2443 C   0  0  0  1  0  0  0  0  0  0  0  0
   -1.7283    2.3945   -2.1011 H   0  0  0  1  0  0  0  0  0  0  0  0
   -0.2849    2.6703   -1.1553 H   0  0  0  1  0  0  0  0  0  0  0  0
   -1.2525    4.5733   -0.1111 H   0  0  0  1  0  0  0  0  0  0  0  0
   -2.8086    4.2391   -0.8329 H   0  0  0  1  0  0  0  0  0  0  0  0
   -3.2683    4.8677   -3.0917 H   0  0  0  1  0  0  0  0  0  0  0  0
   -2.6795    6.2419   -4.9973 H   0  0  0  1  0  0  0  0  0  0  0  0
   -0.4662    7.2244   -5.1465 H   0  0  0  1  0  0  0  0  0  0  0  0
    1.1616    6.8136   -3.4006 H   0  0  0  1  0  0  0  0  0  0  0  0
    0.5716    5.4370   -1.4918 H   0  0  0  1  0  0  0  0  0  0  0  0
  1  4  1  0  0  0  0
  2  4  1  0  0  0  0
  2  5  2  0  0  0  0
  2  6  1  0  0  0  0
  3  4  1  0  0  0  0
  3  7  1  0  0  0  0
  3  8  1  0  0  0  0
  4 19  1  0  0  0  0
  6  9  1  0  0  0  0
  6 12  1  0  0  0  0
  8 10  1  0  0  0  0
  8 11  2  0  0  0  0
  9 13  1  0  0  0  0
  9 14  1  0  0  0  0
  9 15  1  0  0  0  0
 10 16  1  0  0  0  0
 10 17  1  0  0  0  0
 10 18  1  0  0  0  0
 19 20  1  0  0  0  0
 19 27  1  0  0  0  0
 19 28  1  0  0  0  0
 20 21  1  0  0  0  0
 20 29  1  0  0  0  0
 20 30  1  0  0  0  0
 21 22  4  0  0  0  0
 21 26  4  0  0  0  0
 22 23  4  0  0  0  0
 22 31  1  0  0  0  0
 23 24  4  0  0  0  0
 23 32  1  0  0  0  0
 24 25  4  0  0  0  0
 24 33  1  0  0  0  0
 25 26  4  0  0  0  0
 25 34  1  0  0  0  0
 26 35  1  0  0  0  0
M  END
> <BCLConfClusterSize>
1

> <ConfClashScore>
0 

> <ConfOneFourInteractionScore>
-0.965825 

> <ConfScore>
0.110087 

> <ConfScorePBest>
0.00680853 

> <ConfTolerance>
0.281811 

> <RosettaParamsInstructions>
M  ROOT 3
M  POLY_N_BB 3
M  POLY_CA_BB 4
M  POLY_C_BB 2
M  POLY_O_BB 5
M  POLY_IGNORE 9 10 11 12 13 14 15 16 17 18 
M  POLY_UPPER 6
M  POLY_LOWER 8
M  POLY_CHG 0
M  POLY_PROPERTIES ALPHA_AA D_AA PROTEIN AROMATIC POLYMER 
M  END

$$$$



 35 35  0  0  0  0  0  0  0  0999 V2000
   -3.6657    3.3251    0.6756 H   0  0  0  1  0  0  0  0  0  0  0  0
   -3.6863    4.6932    2.2839 C   0  0  0  1  0  0  0  0  0  0  0  0
   -1.8640    3.1572    1.6770 N   0  0  0  1  0  0  0  0  0  0  0  0
   -2.9630    3.9642    1.1682 C   0  0  0  1  0  0  0  0  0  0  0  0
   -3.1334    4.9463    3.3534 O   0  0  0  1  0  0  0  0  0  0  0  0
   -4.9452    5.0172    1.9846 N   0  0  0  1  0  0  0  0  0  0  0  0
   -0.9920    3.5814    1.8191 H   0  0  0  1  0  0  0  0  0  0  0  0
   -2.0023    1.8582    1.9569 C   0  0  0  1  0  0  0  0  0  0  0  0
   -5.8880    5.6344    2.9055 C   0  0  0  1  0  0  0  0  0  0  0  0
   -0.7696    1.1682    2.5079 C   0  0  0  1  0  0  0  0  0  0  0  0
   -3.0546    1.2443    1.7853 O   0  0  0  1  0  0  0  0  0  0  0  0
   -5.2587    4.8253    1.0761 H   0  0  0  1  0  0  0  0  0  0  0  0
   -6.0022    5.0133    3.7692 H   0  0  0  1  0  0  0  0  0  0  0  0
   -6.8354    5.7495    2.4216 H   0  0  0  1  0  0  0  0  0  0  0  0
   -5.5198    6.5940    3.2026 H   0  0  0  1  0  0  0  0  0  0  0  0
   -0.0186    1.1179    1.7474 H   0  0  0  1  0  0  0  0  0  0  0  0
   -1.0259    0.1778    2.8218 H   0  0  0  1  0  0  0  0  0  0  0  0
   -0.3946    1.7218    3.3432 H   0  0  0  1  0  0  0  0  0  0  0  0
   -2.4302    4.9658    0.1383 C   0  0  0  1  0  0  0  0  0  0  0  0
   -1.7496    4.1900   -0.9776 C   0  0  0  1  0  0  0  0  0  0  0  0
   -1.3870    5.0508   -2.1581 C   0  0  0  1  0  0  0  0  0  0  0  0
   -2.3176    5.2842   -3.1585 C   0  0  0  1  0  0  0  0  0  0  0  0
   -1.9825    6.0702   -4.2447 C   0  0  0  1  0  0  0  0  0  0  0  0
   -0.7171    6.6296   -4.3311 C   0  0  0  1  0  0  0  0  0  0  0  0
    0.2110    6.3971   -3.3337 C   0  0  0  1  0  0  0  0  0  0  0  0
   -0.1254    5.6087   -2.2443 C   0  0  0  1  0  0  0  0  0  0  0  0
   -1.7251    5.6223    0.6040 H   0  0  0  1  0  0  0  0  0  0  0  0
   -3.2408    5.5382   -0.2619 H   0  0  0  1  0  0  0  0  0  0  0  0
   -2.4126    3.4186   -1.3095 H   0  0  0  1  0  0  0  0  0  0  0  0
   -0.8550    3.7496   -0.5896 H   0  0  0  1  0  0  0  0  0  0  0  0
   -3.2683    4.8677   -3.0917 H   0  0  0  1  0  0  0  0  0  0  0  0
   -2.6795    6.2419   -4.9973 H   0  0  0  1  0  0  0  0  0  0  0  0
   -0.4662    7.2244   -5.1465 H   0  0  0  1  0  0  0  0  0  0  0  0
    1.1616    6.8136   -3.4006 H   0  0  0  1  0  0  0  0  0  0  0  0
    0.5716    5.4370   -1.4918 H   0  0  0  1  0  0  0  0  0  0  0  0
  1  4  1  0  0  0  0
  2  4  1  0  0  0  0
  2  5  2  0  0  0  0
  2  6  1  0  0  0  0
  3  4  1  0  0  0  0
  3  7  1  0  0  0  0
  3  8  1  0  0  0  0
  4 19  1  0  0  0  0
  6  9  1  0  0  0  0
  6 12  1  0  0  0  0
  8 10  1  0  0  0  0
  8 11  2  0  0  0  0
  9 13  1  0  0  0  0
  9 14  1  0  0  0  0
  9 15  1  0  0  0  0
 10 16  1  0  0  0  0
 10 17  1  0  0  0  0
 10 18  1  0  0  0  0
 19 20  1  0  0  0  0
 19 27  1  0  0  0  0
 19 28  1  0  0  0  0
 20 21  1  0  0  0  0
 20 29  1  0  0  0  0
 20 30  1  0  0  0  0
 21 22  4  0  0  0  0
 21 26  4  0  0  0  0
 22 23  4  0  0  0  0
 22 31  1  0  0  0  0
 23 24  4  0  0  0  0
 23 32  1  0  0  0  0
 24 25  4  0  0  0  0
 24 33  1  0  0  0  0
 25 26  4  0  0  0  0
 25 34  1  0  0  0  0
 26 35  1  0  0  0  0
M  END
> <BCLConfClusterSize>
1

> <ConfClashScore>
0 

> <ConfOneFourInteractionScore>
-0.991445 

> <ConfScore>
0.110416 

> <ConfScorePBest>
0.00678005 

> <ConfTolerance>
0.301596 

> <RosettaParamsInstructions>
M  ROOT 3
M  POLY_N_BB 3
M  POLY_CA_BB 4
M  POLY_C_BB 2
M  POLY_O_BB 5
M  POLY_IGNORE 9 10 11 12 13 14 15 16 17 18 
M  POLY_UPPER 6
M  POLY_LOWER 8
M  POLY_CHG 0
M  POLY_PROPERTIES ALPHA_AA D_AA PROTEIN AROMATIC POLYMER 
M  END

$$$$



 35 35  0  0  0  0  0  0  0  0999 V2000
   -1.7678    3.2078    1.5700 H   0  0  0  1  0  0  0  0  0  0  0  0
   -3.7908    3.5445    1.1261 C   0  0  0  1  0  0  0  0  0  0  0  0
   -2.3951    4.7915    2.7288 N   0  0  0  1  0  0  0  0  0  0  0  0
   -2.4103    4.0574    1.4686 C   0  0  0  1  0  0  0  0  0  0  0  0
   -4.4556    4.0694    0.2339 O   0  0  0  1  0  0  0  0  0  0  0  0
   -4.2652    2.5063    1.8205 N   0  0  0  1  0  0  0  0  0  0  0  0
   -2.1650    5.7435    2.6959 H   0  0  0  1  0  0  0  0  0  0  0  0
   -2.6708    4.2646    3.9229 C   0  0  0  1  0  0  0  0  0  0  0  0
   -5.5643    1.9128    1.5413 C   0  0  0  1  0  0  0  0  0  0  0  0
   -2.7383    5.2465    5.0764 C   0  0  0  1  0  0  0  0  0  0  0  0
   -2.8611    3.0616    4.0965 O   0  0  0  1  0  0  0  0  0  0  0  0
   -3.7194    2.1314    2.5430 H   0  0  0  1  0  0  0  0  0  0  0  0
   -6.0644    2.4857    0.7886 H   0  0  0  1  0  0  0  0  0  0  0  0
   -6.1530    1.9071    2.4347 H   0  0  0  1  0  0  0  0  0  0  0  0
   -5.4306    0.9092    1.1952 H   0  0  0  1  0  0  0  0  0  0  0  0
   -3.6364    5.8234    5.0023 H   0  0  0  1  0  0  0  0  0  0  0  0
   -1.8913    5.8992    5.0389 H   0  0  0  1  0  0  0  0  0  0  0  0
   -2.7349    4.7097    6.0020 H   0  0  0  1  0  0  0  0  0  0  0  0
   -1.8466    4.9171    0.3536 C   0  0  0  1  0  0  0  0  0  0  0  0
   -1.7496    4.1900   -0.9776 C   0  0  0  1  0  0  0  0  0  0  0  0
   -1.3870    5.0508   -2.1581 C   0  0  0  1  0  0  0  0  0  0  0  0
   -2.3176    5.2842   -3.1585 C   0  0  0  1  0  0  0  0  0  0  0  0
   -1.9825    6.0702   -4.2447 C   0  0  0  1  0  0  0  0  0  0  0  0
   -0.7171    6.6296   -4.3311 C   0  0  0  1  0  0  0  0  0  0  0  0
    0.2110    6.3971   -3.3337 C   0  0  0  1  0  0  0  0  0  0  0  0
   -0.1254    5.6087   -2.2443 C   0  0  0  1  0  0  0  0  0  0  0  0
   -0.8662    5.2394    0.6363 H   0  0  0  1  0  0  0  0  0  0  0  0
   -2.4808    5.7698    0.2290 H   0  0  0  1  0  0  0  0  0  0  0  0
   -2.6991    3.7390   -1.1773 H   0  0  0  1  0  0  0  0  0  0  0  0
   -1.0047    3.4276   -0.8838 H   0  0  0  1  0  0  0  0  0  0  0  0
   -3.2683    4.8677   -3.0917 H   0  0  0  1  0  0  0  0  0  0  0  0
   -2.6795    6.2419   -4.9973 H   0  0  0  1  0  0  0  0  0  0  0  0
   -0.4662    7.2244   -5.1465 H   0  0  0  1  0  0  0  0  0  0  0  0
    1.1616    6.8136   -3.4006 H   0  0  0  1  0  0  0  0  0  0  0  0
    0.5716    5.4370   -1.4918 H   0  0  0  1  0  0  0  0  0  0  0  0
  1  4  1  0  0  0  0
  2  4  1  0  0  0  0
  2  5  2  0  0  0  0
  2  6  1  0  0  0  0
  3  4  1  0  0  0  0
  3  7  1  0  0  0  0
  3  8  1  0  0  0  0
  4 19  1  0  0  0  0
  6  9  1  0  0  0  0
  6 12  1  0  0  0  0
  8 10  1  0  0  0  0
  8 11  2  0  0  0  0
  9 13  1  0  0  0  0
  9 14  1  0  0  0  0
  9 15  1  0  0  0  0
 10 16  1  0  0  0  0
 10 17  1  0  0  0  0
 10 18  1  0  0  0  0
 19 20  1  0  0  0  0
 19 27  1  0  0  0  0
 19 28  1  0  0  0  0
 20 21  1  0  0  0  0
 20 29  1  0  0  0  0
 20 30  1  0  0  0  0
 21 22  4  0  0  0  0
 21 26  4  0  0  0  0
 22 23  4  0  0  0  0
 22 31  1  0  0  0  0
 23 24  4  0  0  0  0
 23 32  1  0  0  0  0
 24 25  4  0  0  0  0
 24 33  1  0  0  0  0
 25 26  4  0  0  0  0
 25 34  1  0  0  0  0
 26 35  1  0  0  0  0
M  END
> <BCLConfClusterSize>
1

> <ConfClashScore>
0 

> <ConfOneFourInteractionScore>
-0.98595 

> <ConfScore>
0.11264 

> <ConfScorePBest>
0.00675157 

> <ConfTolerance>
0.407987 

> <RosettaParamsInstructions>
M  ROOT 3
M  POLY_N_BB 3
M  POLY_CA_BB 4
M  POLY_C_BB 2
M  POLY_O_BB 5
M  POLY_IGNORE 9 10 11 12 13 14 15 16 17 18 
M  POLY_UPPER 6
M  POLY_LOWER 8
M  POLY_CHG 0
M  POLY_PROPERTIES ALPHA_AA D_AA PROTEIN AROMATIC POLYMER 
M  END

$$$$



 35 35  0  0  0  0  0  0  0  0999 V2000
   -3.4064    2.9804    0.8055 H   0  0  0  1  0  0  0  0  0  0  0  0
   -4.5160    4.5394    1.7175 C   0  0  0  1  0  0  0  0  0  0  0  0
   -2.1260    4.0219    2.0527 N   0  0  0  1  0  0  0  0  0  0  0  0
   -3.2291    3.9925    1.1039 C   0  0  0  1  0  0  0  0  0  0  0  0
   -5.5810    4.4918    1.1034 O   0  0  0  1  0  0  0  0  0  0  0  0
   -4.3691    5.1325    2.9128 N   0  0  0  1  0  0  0  0  0  0  0  0
   -1.4266    4.6997    1.9440 H   0  0  0  1  0  0  0  0  0  0  0  0
   -2.0307    3.1295    3.0989 C   0  0  0  1  0  0  0  0  0  0  0  0
   -5.4865    5.7359    3.6237 C   0  0  0  1  0  0  0  0  0  0  0  0
   -0.8947    3.3561    4.0533 C   0  0  0  1  0  0  0  0  0  0  0  0
   -2.8389    2.2266    3.2060 O   0  0  0  1  0  0  0  0  0  0  0  0
   -3.4786    5.1601    3.3209 H   0  0  0  1  0  0  0  0  0  0  0  0
   -5.8625    6.5644    3.0606 H   0  0  0  1  0  0  0  0  0  0  0  0
   -5.1563    6.0771    4.5826 H   0  0  0  1  0  0  0  0  0  0  0  0
   -6.2621    5.0098    3.7505 H   0  0  0  1  0  0  0  0  0  0  0  0
    0.0309    3.3410    3.5168 H   0  0  0  1  0  0  0  0  0  0  0  0
   -0.8908    2.5828    4.7927 H   0  0  0  1  0  0  0  0  0  0  0  0
   -1.0145    4.3062    4.5307 H   0  0  0  1  0  0  0  0  0  0  0  0
   -2.8590    4.7846   -0.1255 C   0  0  0  1  0  0  0  0  0  0  0  0
   -1.7496    4.1900   -0.9776 C   0  0  0  1  0  0  0  0  0  0  0  0
   -1.3870    5.0508   -2.1581 C   0  0  0  1  0  0  0  0  0  0  0  0
   -2.3176    5.2842   -3.1585 C   0  0  0  1  0  0  0  0  0  0  0  0
   -1.9825    6.0702   -4.2447 C   0  0  0  1  0  0  0  0  0  0  0  0
   -0.7171    6.6296   -4.3311 C   0  0  0  1  0  0  0  0  0  0  0  0
    0.2110    6.3971   -3.3337 C   0  0  0  1  0  0  0  0  0  0  0  0
   -0.1254    5.6087   -2.2443 C   0  0  0  1  0  0  0  0  0  0  0  0
   -2.5458    5.7575    0.1912 H   0  0  0  1  0  0  0  0  0  0  0  0
   -3.7330    4.8721   -0.7366 H   0  0  0  1  0  0  0  0  0  0  0  0
   -2.0716    3.2355   -1.3383 H   0  0  0  1  0  0  0  0  0  0  0  0
   -0.8801    4.0661   -0.3665 H   0  0  0  1  0  0  0  0  0  0  0  0
   -3.2683    4.8677   -3.0917 H   0  0  0  1  0  0  0  0  0  0  0  0
   -2.6795    6.2419   -4.9973 H   0  0  0  1  0  0  0  0  0  0  0  0
   -0.4662    7.2244   -5.1465 H   0  0  0  1  0  0  0  0  0  0  0  0
    1.1616    6.8136   -3.4006 H   0  0  0  1  0  0  0  0  0  0  0  0
    0.5716    5.4370   -1.4918 H   0  0  0  1  0  0  0  0  0  0  0  0
  1  4  1  0  0  0  0
  2  4  1  0  0  0  0
  2  5  2  0  0  0  0
  2  6  1  0  0  0  0
  3  4  1  0  0  0  0
  3  7  1  0  0  0  0
  3  8  1  0  0  0  0
  4 19  1  0  0  0  0
  6  9  1  0  0  0  0
  6 12  1  0  0  0  0
  8 10  1  0  0  0  0
  8 11  2  0  0  0  0
  9 13  1  0  0  0  0
  9 14  1  0  0  0  0
  9 15  1  0  0  0  0
 10 16  1  0  0  0  0
 10 17  1  0  0  0  0
 10 18  1  0  0  0  0
 19 20  1  0  0  0  0
 19 27  1  0  0  0  0
 19 28  1  0  0  0  0
 20 21  1  0  0  0  0
 20 29  1  0  0  0  0
 20 30  1  0  0  0  0
 21 22  4  0  0  0  0
 21 26  4  0  0  0  0
 22 23  4  0  0  0  0
 22 31  1  0  0  0  0
 23 24  4  0  0  0  0
 23 32  1  0  0  0  0
 24 25  4  0  0  0  0
 24 33  1  0  0  0  0
 25 26  4  0  0  0  0
 25 34  1  0  0  0  0
 26 35  1  0  0  0  0
M  END
> <BCLConfClusterSize>
1

> <ConfClashScore>
0 

> <ConfOneFourInteractionScore>
-0.970454 

> <ConfScore>
0.117421 

> <ConfScorePBest>
0.00672309 

> <ConfTolerance>
0.313011 

> <RosettaParamsInstructions>
M  ROOT 3
M  POLY_N_BB 3
M  POLY_CA_BB 4
M  POLY_C_BB 2
M  POLY_O_BB 5
M  POLY_IGNORE 9 10 11 12 13 14 15 16 17 18 
M  POLY_UPPER 6
M  POLY_LOWER 8
M  POLY_CHG 0
M  POLY_PROPERTIES ALPHA_AA D_AA PROTEIN AROMATIC POLYMER 
M  END

$$$$



 35 35  0  0  0  0  0  0  0  0999 V2000
   -1.4627    1.6306    0.1196 H   0  0  0  1  0  0  0  0  0  0  0  0
   -2.6185    0.3783   -1.1241 C   0  0  0  1  0  0  0  0  0  0  0  0
   -3.4369    2.1317    0.4173 N   0  0  0  1  0  0  0  0  0  0  0  0
   -2.3525    1.7303   -0.4663 C   0  0  0  1  0  0  0  0  0  0  0  0
   -3.4358   -0.4084   -0.6480 O   0  0  0  1  0  0  0  0  0  0  0  0
   -1.8452    0.1001   -2.1857 N   0  0  0  1  0  0  0  0  0  0  0  0
   -3.9176    2.9737    0.2749 H   0  0  0  1  0  0  0  0  0  0  0  0
   -3.7585    1.3195    1.4283 C   0  0  0  1  0  0  0  0  0  0  0  0
   -1.8256   -1.1724   -2.8915 C   0  0  0  1  0  0  0  0  0  0  0  0
   -4.8233    1.8368    2.3758 C   0  0  0  1  0  0  0  0  0  0  0  0
   -3.2350    0.2188    1.5958 O   0  0  0  1  0  0  0  0  0  0  0  0
   -1.2491    0.8072   -2.5097 H   0  0  0  1  0  0  0  0  0  0  0  0
   -1.1216   -1.8291   -2.4244 H   0  0  0  1  0  0  0  0  0  0  0  0
   -1.5407   -1.0107   -3.9101 H   0  0  0  1  0  0  0  0  0  0  0  0
   -2.8001   -1.6132   -2.8589 H   0  0  0  1  0  0  0  0  0  0  0  0
   -5.6993    2.0987    1.8200 H   0  0  0  1  0  0  0  0  0  0  0  0
   -4.4549    2.7008    2.8884 H   0  0  0  1  0  0  0  0  0  0  0  0
   -5.0670    1.0761    3.0876 H   0  0  0  1  0  0  0  0  0  0  0  0
   -2.0969    2.7897   -1.4833 C   0  0  0  1  0  0  0  0  0  0  0  0
   -1.7496    4.1900   -0.9776 C   0  0  0  1  0  0  0  0  0  0  0  0
   -1.3870    5.0508   -2.1581 C   0  0  0  1  0  0  0  0  0  0  0  0
   -2.3176    5.2842   -3.1585 C   0  0  0  1  0  0  0  0  0  0  0  0
   -1.9825    6.0702   -4.2447 C   0  0  0  1  0  0  0  0  0  0  0  0
   -0.7171    6.6296   -4.3311 C   0  0  0  1  0  0  0  0  0  0  0  0
    0.2110    6.3971   -3.3337 C   0  0  0  1  0  0  0  0  0  0  0  0
   -0.1254    5.6087   -2.2443 C   0  0  0  1  0  0  0  0  0  0  0  0
   -2.9787    2.8761   -2.0833 H   0  0  0  1  0  0  0  0  0  0  0  0
   -1.2818    2.4584   -2.0921 H   0  0  0  1  0  0  0  0  0  0  0  0
   -0.9202    4.1344   -0.3039 H   0  0  0  1  0  0  0  0  0  0  0  0
   -2.5935    4.6099   -0.4712 H   0  0  0  1  0  0  0  0  0  0  0  0
   -3.2683    4.8677   -3.0917 H   0  0  0  1  0  0  0  0  0  0  0  0
   -2.6795    6.2419   -4.9973 H   0  0  0  1  0  0  0  0  0  0  0  0
   -0.4662    7.2244   -5.1465 H   0  0  0  1  0  0  0  0  0  0  0  0
    1.1616    6.8136   -3.4006 H   0  0  0  1  0  0  0  0  0  0  0  0
    0.5716    5.4370   -1.4918 H   0  0  0  1  0  0  0  0  0  0  0  0
  1  4  1  0  0  0  0
  2  4  1  0  0  0  0
  2  5  2  0  0  0  0
  2  6  1  0  0  0  0
  3  4  1  0  0  0  0
  3  7  1  0  0  0  0
  3  8  1  0  0  0  0
  4 19  1  0  0  0  0
  6  9  1  0  0  0  0
  6 12  1  0  0  0  0
  8 10  1  0  0  0  0
  8 11  2  0  0  0  0
  9 13  1  0  0  0  0
  9 14  1  0  0  0  0
  9 15  1  0  0  0  0
 10 16  1  0  0  0  0
 10 17  1  0  0  0  0
 10 18  1  0  0  0  0
 19 20  1  0  0  0  0
 19 27  1  0  0  0  0
 19 28  1  0  0  0  0
 20 21  1  0  0  0  0
 20 29  1  0  0  0  0
 20 30  1  0  0  0  0
 21 22  4  0  0  0  0
 21 26  4  0  0  0  0
 22 23  4  0  0  0  0
 22 31  1  0  0  0  0
 23 24  4  0  0  0  0
 23 32  1  0  0  0  0
 24 25  4  0  0  0  0
 24 33  1  0  0  0  0
 25 26  4  0  0  0  0
 25 34  1  0  0  0  0
 26 35  1  0  0  0  0
M  END
> <BCLConfClusterSize>
1

> <ConfClashScore>
0 

> <ConfOneFourInteractionScore>
-0.969249 

> <ConfScore>
0.12134 

> <ConfScorePBest>
0.0066946 

> <ConfTolerance>
0.510438 

> <RosettaParamsInstructions>
M  ROOT 3
M  POLY_N_BB 3
M  POLY_CA_BB 4
M  POLY_C_BB 2
M  POLY_O_BB 5
M  POLY_IGNORE 9 10 11 12 13 14 15 16 17 18 
M  POLY_UPPER 6
M  POLY_LOWER 8
M  POLY_CHG 0
M  POLY_PROPERTIES ALPHA_AA D_AA PROTEIN AROMATIC POLYMER 
M  END

$$$$



 35 35  0  0  0  0  0  0  0  0999 V2000
   -2.2656    3.7208    1.7322 H   0  0  0  1  0  0  0  0  0  0  0  0
   -4.0165    2.9920    0.7739 C   0  0  0  1  0  0  0  0  0  0  0  0
   -3.8620    5.0102    2.1184 N   0  0  0  1  0  0  0  0  0  0  0  0
   -3.1072    4.1305    1.2139 C   0  0  0  1  0  0  0  0  0  0  0  0
   -3.8631    2.4648   -0.3271 O   0  0  0  1  0  0  0  0  0  0  0  0
   -5.0234    2.6670    1.5897 N   0  0  0  1  0  0  0  0  0  0  0  0
   -3.4548    5.3159    2.9557 H   0  0  0  1  0  0  0  0  0  0  0  0
   -5.1071    5.3955    1.7997 C   0  0  0  1  0  0  0  0  0  0  0  0
   -6.0575    1.7168    1.2081 C   0  0  0  1  0  0  0  0  0  0  0  0
   -5.8527    6.2572    2.7797 C   0  0  0  1  0  0  0  0  0  0  0  0
   -5.6213    5.0575    0.7457 O   0  0  0  1  0  0  0  0  0  0  0  0
   -5.0671    3.0829    2.4760 H   0  0  0  1  0  0  0  0  0  0  0  0
   -5.6079    0.8747    0.7246 H   0  0  0  1  0  0  0  0  0  0  0  0
   -6.7445    2.1882    0.5368 H   0  0  0  1  0  0  0  0  0  0  0  0
   -6.5803    1.3888    2.0821 H   0  0  0  1  0  0  0  0  0  0  0  0
   -5.1983    7.0135    3.1603 H   0  0  0  1  0  0  0  0  0  0  0  0
   -6.2070    5.6527    3.5883 H   0  0  0  1  0  0  0  0  0  0  0  0
   -6.6834    6.7190    2.2882 H   0  0  0  1  0  0  0  0  0  0  0  0
   -2.6146    4.9143    0.0456 C   0  0  0  1  0  0  0  0  0  0  0  0
   -1.7496    4.1900   -0.9776 C   0  0  0  1  0  0  0  0  0  0  0  0
   -1.3870    5.0508   -2.1581 C   0  0  0  1  0  0  0  0  0  0  0  0
   -2.3176    5.2842   -3.1585 C   0  0  0  1  0  0  0  0  0  0  0  0
   -1.9825    6.0702   -4.2447 C   0  0  0  1  0  0  0  0  0  0  0  0
   -0.7171    6.6296   -4.3311 C   0  0  0  1  0  0  0  0  0  0  0  0
    0.2110    6.3971   -3.3337 C   0  0  0  1  0  0  0  0  0  0  0  0
   -0.1254    5.6087   -2.2443 C   0  0  0  1  0  0  0  0  0  0  0  0
   -2.0400    5.7317    0.4285 H   0  0  0  1  0  0  0  0  0  0  0  0
   -3.4724    5.2916   -0.4708 H   0  0  0  1  0  0  0  0  0  0  0  0
   -2.2855    3.3343   -1.3319 H   0  0  0  1  0  0  0  0  0  0  0  0
   -0.8475    3.8728   -0.4975 H   0  0  0  1  0  0  0  0  0  0  0  0
   -3.2683    4.8677   -3.0917 H   0  0  0  1  0  0  0  0  0  0  0  0
   -2.6795    6.2419   -4.9973 H   0  0  0  1  0  0  0  0  0  0  0  0
   -0.4662    7.2244   -5.1465 H   0  0  0  1  0  0  0  0  0  0  0  0
    1.1616    6.8136   -3.4006 H   0  0  0  1  0  0  0  0  0  0  0  0
    0.5716    5.4370   -1.4918 H   0  0  0  1  0  0  0  0  0  0  0  0
  1  4  1  0  0  0  0
  2  4  1  0  0  0  0
  2  5  2  0  0  0  0
  2  6  1  0  0  0  0
  3  4  1  0  0  0  0
  3  7  1  0  0  0  0
  3  8  1  0  0  0  0
  4 19  1  0  0  0  0
  6  9  1  0  0  0  0
  6 12  1  0  0  0  0
  8 10  1  0  0  0  0
  8 11  2  0  0  0  0
  9 13  1  0  0  0  0
  9 14  1  0  0  0  0
  9 15  1  0  0  0  0
 10 16  1  0  0  0  0
 10 17  1  0  0  0  0
 10 18  1  0  0  0  0
 19 20  1  0  0  0  0
 19 27  1  0  0  0  0
 19 28  1  0  0  0  0
 20 21  1  0  0  0  0
 20 29  1  0  0  0  0
 20 30  1  0  0  0  0
 21 22  4  0  0  0  0
 21 26  4  0  0  0  0
 22 23  4  0  0  0  0
 22 31  1  0  0  0  0
 23 24  4  0  0  0  0
 23 32  1  0  0  0  0
 24 25  4  0  0  0  0
 24 33  1  0  0  0  0
 25 26  4  0  0  0  0
 25 34  1  0  0  0  0
 26 35  1  0  0  0  0
M  END
> <BCLConfClusterSize>
1

> <ConfClashScore>
0 

> <ConfOneFourInteractionScore>
-0.968021 

> <ConfScore>
0.127294 

> <ConfScorePBest>
0.00666612 

> <ConfTolerance>
0.280669 

> <RosettaParamsInstructions>
M  ROOT 3
M  POLY_N_BB 3
M  POLY_CA_BB 4
M  POLY_C_BB 2
M  POLY_O_BB 5
M  POLY_IGNORE 9 10 11 12 13 14 15 16 17 18 
M  POLY_UPPER 6
M  POLY_LOWER 8
M  POLY_CHG 0
M  POLY_PROPERTIES ALPHA_AA D_AA PROTEIN AROMATIC POLYMER 
M  END

$$$$



 35 35  0  0  0  0  0  0  0  0999 V2000
   -3.3142    4.7928    2.0410 H   0  0  0  1  0  0  0  0  0  0  0  0
   -1.5750    3.5938    2.0389 C   0  0  0  1  0  0  0  0  0  0  0  0
   -3.7202    3.0854    0.9468 N   0  0  0  1  0  0  0  0  0  0  0  0
   -2.8107    4.1463    1.3529 C   0  0  0  1  0  0  0  0  0  0  0  0
   -0.4889    3.5556    1.4635 O   0  0  0  1  0  0  0  0  0  0  0  0
   -1.7509    3.1602    3.2904 N   0  0  0  1  0  0  0  0  0  0  0  0
   -3.8120    2.9099   -0.0130 H   0  0  0  1  0  0  0  0  0  0  0  0
   -4.4396    2.3325    1.7839 C   0  0  0  1  0  0  0  0  0  0  0  0
   -0.6701    2.5746    4.0693 C   0  0  0  1  0  0  0  0  0  0  0  0
   -5.4634    1.4210    1.1356 C   0  0  0  1  0  0  0  0  0  0  0  0
   -4.2959    2.3629    2.9950 O   0  0  0  1  0  0  0  0  0  0  0  0
   -2.6386    3.2393    3.6979 H   0  0  0  1  0  0  0  0  0  0  0  0
   -0.2494    1.7499    3.5329 H   0  0  0  1  0  0  0  0  0  0  0  0
   -1.0526    2.2314    5.0079 H   0  0  0  1  0  0  0  0  0  0  0  0
    0.0863    3.3119    4.2400 H   0  0  0  1  0  0  0  0  0  0  0  0
   -6.3912    1.4935    1.6637 H   0  0  0  1  0  0  0  0  0  0  0  0
   -5.1126    0.4107    1.1684 H   0  0  0  1  0  0  0  0  0  0  0  0
   -5.6089    1.7157    0.1174 H   0  0  0  1  0  0  0  0  0  0  0  0
   -2.4172    4.9634    0.1473 C   0  0  0  1  0  0  0  0  0  0  0  0
   -1.7068    4.1969   -0.9607 C   0  0  0  1  0  0  0  0  0  0  0  0
   -1.3961    5.0494   -2.1618 C   0  0  0  1  0  0  0  0  0  0  0  0
   -2.3235    5.2856   -3.1647 C   0  0  0  1  0  0  0  0  0  0  0  0
   -1.9838    6.0723   -4.2490 C   0  0  0  1  0  0  0  0  0  0  0  0
   -0.7172    6.6296   -4.3310 C   0  0  0  1  0  0  0  0  0  0  0  0
    0.2076    6.3943   -3.3312 C   0  0  0  1  0  0  0  0  0  0  0  0
   -0.1333    5.6052   -2.2437 C   0  0  0  1  0  0  0  0  0  0  0  0
   -1.7655    5.7451    0.4774 H   0  0  0  1  0  0  0  0  0  0  0  0
   -3.3070    5.3907   -0.2658 H   0  0  0  1  0  0  0  0  0  0  0  0
   -2.3338    3.3872   -1.2707 H   0  0  0  1  0  0  0  0  0  0  0  0
   -0.7886    3.8089   -0.5717 H   0  0  0  1  0  0  0  0  0  0  0  0
   -3.2750    4.8707   -3.1011 H   0  0  0  1  0  0  0  0  0  0  0  0
   -2.6783    6.2461   -5.0033 H   0  0  0  1  0  0  0  0  0  0  0  0
   -0.4628    7.2249   -5.1450 H   0  0  0  1  0  0  0  0  0  0  0  0
    1.1592    6.8091   -3.3948 H   0  0  0  1  0  0  0  0  0  0  0  0
    0.5612    5.4313   -1.4894 H   0  0  0  1  0  0  0  0  0  0  0  0
  1  4  1  0  0  0  0
  2  4  1  0  0  0  0
  2  5  2  0  0  0  0
  2  6  1  0  0  0  0
  3  4  1  0  0  0  0
  3  7  1  0  0  0  0
  3  8  1  0  0  0  0
  4 19  1  0  0  0  0
  6  9  1  0  0  0  0
  6 12  1  0  0  0  0
  8 10  1  0  0  0  0
  8 11  2  0  0  0  0
  9 13  1  0  0  0  0
  9 14  1  0  0  0  0
  9 15  1  0  0  0  0
 10 16  1  0  0  0  0
 10 17  1  0  0  0  0
 10 18  1  0  0  0  0
 19 20  1  0  0  0  0
 19 27  1  0  0  0  0
 19 28  1  0  0  0  0
 20 21  1  0  0  0  0
 20 29  1  0  0  0  0
 20 30  1  0  0  0  0
 21 22  4  0  0  0  0
 21 26  4  0  0  0  0
 22 23  4  0  0  0  0
 22 31  1  0  0  0  0
 23 24  4  0  0  0  0
 23 32  1  0  0  0  0
 24 25  4  0  0  0  0
 24 33  1  0  0  0  0
 25 26  4  0  0  0  0
 25 34  1  0  0  0  0
 26 35  1  0  0  0  0
M  END
> <BCLConfClusterSize>
1

> <ConfClashScore>
0 

> <ConfOneFourInteractionScore>
-0.964232 

> <ConfScore>
0.129405 

> <ConfScorePBest>
0.00663764 

> <ConfTolerance>
0.35968 

> <RosettaParamsInstructions>
M  ROOT 3
M  POLY_N_BB 3
M  POLY_CA_BB 4
M  POLY_C_BB 2
M  POLY_O_BB 5
M  POLY_IGNORE 9 10 11 12 13 14 15 16 17 18 
M  POLY_UPPER 6
M  POLY_LOWER 8
M  POLY_CHG 0
M  POLY_PROPERTIES ALPHA_AA D_AA PROTEIN AROMATIC POLYMER 
M  END

$$$$



 35 35  0  0  0  0  0  0  0  0999 V2000
   -1.6271    3.7015    1.7649 H   0  0  0  1  0  0  0  0  0  0  0  0
   -3.3094    2.6409    1.0210 C   0  0  0  1  0  0  0  0  0  0  0  0
   -3.3649    4.6505    2.4027 N   0  0  0  1  0  0  0  0  0  0  0  0
   -2.6038    3.9304    1.3927 C   0  0  0  1  0  0  0  0  0  0  0  0
   -2.6926    1.6907    0.5466 O   0  0  0  1  0  0  0  0  0  0  0  0
   -4.6329    2.6149    1.2444 N   0  0  0  1  0  0  0  0  0  0  0  0
   -3.7147    5.5400    2.1864 H   0  0  0  1  0  0  0  0  0  0  0  0
   -3.6033    4.1410    3.6146 C   0  0  0  1  0  0  0  0  0  0  0  0
   -5.4757    1.4349    1.1212 C   0  0  0  1  0  0  0  0  0  0  0  0
   -4.2383    5.0881    4.6141 C   0  0  0  1  0  0  0  0  0  0  0  0
   -3.3323    2.9822    3.9180 O   0  0  0  1  0  0  0  0  0  0  0  0
   -5.0640    3.4538    1.5105 H   0  0  0  1  0  0  0  0  0  0  0  0
   -5.5301    1.1406    0.0939 H   0  0  0  1  0  0  0  0  0  0  0  0
   -6.4583    1.6597    1.4801 H   0  0  0  1  0  0  0  0  0  0  0  0
   -5.0582    0.6369    1.6990 H   0  0  0  1  0  0  0  0  0  0  0  0
   -3.5224    5.3464    5.3661 H   0  0  0  1  0  0  0  0  0  0  0  0
   -5.0798    4.6115    5.0718 H   0  0  0  1  0  0  0  0  0  0  0  0
   -4.5609    5.9749    4.1095 H   0  0  0  1  0  0  0  0  0  0  0  0
   -2.4689    4.7880    0.1589 C   0  0  0  1  0  0  0  0  0  0  0  0
   -1.7381    4.1427   -1.0113 C   0  0  0  1  0  0  0  0  0  0  0  0
   -1.3926    5.0693   -2.1462 C   0  0  0  1  0  0  0  0  0  0  0  0
   -2.3215    5.2960   -3.1498 C   0  0  0  1  0  0  0  0  0  0  0  0
   -1.9824    6.0699   -4.2436 C   0  0  0  1  0  0  0  0  0  0  0  0
   -0.7149    6.6237   -4.3344 C   0  0  0  1  0  0  0  0  0  0  0  0
    0.2115    6.3977   -3.3339 C   0  0  0  1  0  0  0  0  0  0  0  0
   -0.1288    5.6215   -2.2369 C   0  0  0  1  0  0  0  0  0  0  0  0
   -1.9365    5.6754    0.4309 H   0  0  0  1  0  0  0  0  0  0  0  0
   -3.4530    5.0487   -0.1705 H   0  0  0  1  0  0  0  0  0  0  0  0
   -2.3599    3.3631   -1.3993 H   0  0  0  1  0  0  0  0  0  0  0  0
   -0.8272    3.7216   -0.6399 H   0  0  0  1  0  0  0  0  0  0  0  0
   -3.2737    4.8838   -3.0797 H   0  0  0  1  0  0  0  0  0  0  0  0
   -2.6781    6.2366   -4.9985 H   0  0  0  1  0  0  0  0  0  0  0  0
   -0.4610    7.2093   -5.1555 H   0  0  0  1  0  0  0  0  0  0  0  0
    1.1637    6.8099   -3.4040 H   0  0  0  1  0  0  0  0  0  0  0  0
    0.5669    5.4547   -1.4820 H   0  0  0  1  0  0  0  0  0  0  0  0
  1  4  1  0  0  0  0
  2  4  1  0  0  0  0
  2  5  2  0  0  0  0
  2  6  1  0  0  0  0
  3  4  1  0  0  0  0
  3  7  1  0  0  0  0
  3  8  1  0  0  0  0
  4 19  1  0  0  0  0
  6  9  1  0  0  0  0
  6 12  1  0  0  0  0
  8 10  1  0  0  0  0
  8 11  2  0  0  0  0
  9 13  1  0  0  0  0
  9 14  1  0  0  0  0
  9 15  1  0  0  0  0
 10 16  1  0  0  0  0
 10 17  1  0  0  0  0
 10 18  1  0  0  0  0
 19 20  1  0  0  0  0
 19 27  1  0  0  0  0
 19 28  1  0  0  0  0
 20 21  1  0  0  0  0
 20 29  1  0  0  0  0
 20 30  1  0  0  0  0
 21 22  4  0  0  0  0
 21 26  4  0  0  0  0
 22 23  4  0  0  0  0
 22 31  1  0  0  0  0
 23 24  4  0  0  0  0
 23 32  1  0  0  0  0
 24 25  4  0  0  0  0
 24 33  1  0  0  0  0
 25 26  4  0  0  0  0
 25 34  1  0  0  0  0
 26 35  1  0  0  0  0
M  END
> <BCLConfClusterSize>
1

> <ConfClashScore>
0 

> <ConfOneFourInteractionScore>
-0.970454 

> <ConfScore>
0.134291 

> <ConfScorePBest>
0.00660916 

> <ConfTolerance>
0.251157 

> <RosettaParamsInstructions>
M  ROOT 3
M  POLY_N_BB 3
M  POLY_CA_BB 4
M  POLY_C_BB 2
M  POLY_O_BB 5
M  POLY_IGNORE 9 10 11 12 13 14 15 16 17 18 
M  POLY_UPPER 6
M  POLY_LOWER 8
M  POLY_CHG 0
M  POLY_PROPERTIES ALPHA_AA D_AA PROTEIN AROMATIC POLYMER 
M  END

$$$$



 35 35  0  0  0  0  0  0  0  0999 V2000
   -3.0033    3.2819    1.2291 H   0  0  0  1  0  0  0  0  0  0  0  0
   -3.2795    4.9340    2.5000 C   0  0  0  1  0  0  0  0  0  0  0  0
   -1.1460    3.8279    1.9348 N   0  0  0  1  0  0  0  0  0  0  0  0
   -2.4755    4.1853    1.4531 C   0  0  0  1  0  0  0  0  0  0  0  0
   -2.7430    5.7791    3.2153 O   0  0  0  1  0  0  0  0  0  0  0  0
   -4.5869    4.6592    2.5024 N   0  0  0  1  0  0  0  0  0  0  0  0
   -0.4495    4.5162    1.8951 H   0  0  0  1  0  0  0  0  0  0  0  0
   -0.8067    2.6348    2.4253 C   0  0  0  1  0  0  0  0  0  0  0  0
   -5.5512    5.4742    3.2261 C   0  0  0  1  0  0  0  0  0  0  0  0
    0.6583    2.4585    2.7745 C   0  0  0  1  0  0  0  0  0  0  0  0
   -1.6166    1.7236    2.5909 O   0  0  0  1  0  0  0  0  0  0  0  0
   -4.9078    3.8818    1.9993 H   0  0  0  1  0  0  0  0  0  0  0  0
   -6.3855    4.8692    3.5141 H   0  0  0  1  0  0  0  0  0  0  0  0
   -5.8890    6.2705    2.5962 H   0  0  0  1  0  0  0  0  0  0  0  0
   -5.0882    5.8822    4.1003 H   0  0  0  1  0  0  0  0  0  0  0  0
    1.2525    3.0975    2.1552 H   0  0  0  1  0  0  0  0  0  0  0  0
    0.9432    1.4399    2.6127 H   0  0  0  1  0  0  0  0  0  0  0  0
    0.8130    2.7137    3.8021 H   0  0  0  1  0  0  0  0  0  0  0  0
   -2.3713    4.9774    0.1640 C   0  0  0  1  0  0  0  0  0  0  0  0
   -1.7494    4.1904   -0.9781 C   0  0  0  1  0  0  0  0  0  0  0  0
   -1.3870    5.0508   -2.1580 C   0  0  0  1  0  0  0  0  0  0  0  0
   -2.3177    5.2841   -3.1585 C   0  0  0  1  0  0  0  0  0  0  0  0
   -1.9825    6.0702   -4.2447 C   0  0  0  1  0  0  0  0  0  0  0  0
   -0.7172    6.6296   -4.3311 C   0  0  0  1  0  0  0  0  0  0  0  0
    0.2110    6.3971   -3.3337 C   0  0  0  1  0  0  0  0  0  0  0  0
   -0.1254    5.6087   -2.2442 C   0  0  0  1  0  0  0  0  0  0  0  0
   -1.7702    5.8437    0.3458 H   0  0  0  1  0  0  0  0  0  0  0  0
   -3.3549    5.2801   -0.1287 H   0  0  0  1  0  0  0  0  0  0  0  0
   -2.4489    3.4476   -1.3004 H   0  0  0  1  0  0  0  0  0  0  0  0
   -0.8616    3.7131   -0.6191 H   0  0  0  1  0  0  0  0  0  0  0  0
   -3.2683    4.8677   -3.0916 H   0  0  0  1  0  0  0  0  0  0  0  0
   -2.6795    6.2419   -4.9972 H   0  0  0  1  0  0  0  0  0  0  0  0
   -0.4662    7.2244   -5.1464 H   0  0  0  1  0  0  0  0  0  0  0  0
    1.1616    6.8136   -3.4005 H   0  0  0  1  0  0  0  0  0  0  0  0
    0.5716    5.4369   -1.4917 H   0  0  0  1  0  0  0  0  0  0  0  0
  1  4  1  0  0  0  0
  2  4  1  0  0  0  0
  2  5  2  0  0  0  0
  2  6  1  0  0  0  0
  3  4  1  0  0  0  0
  3  7  1  0  0  0  0
  3  8  1  0  0  0  0
  4 19  1  0  0  0  0
  6  9  1  0  0  0  0
  6 12  1  0  0  0  0
  8 10  1  0  0  0  0
  8 11  2  0  0  0  0
  9 13  1  0  0  0  0
  9 14  1  0  0  0  0
  9 15  1  0  0  0  0
 10 16  1  0  0  0  0
 10 17  1  0  0  0  0
 10 18  1  0  0  0  0
 19 20  1  0  0  0  0
 19 27  1  0  0  0  0
 19 28  1  0  0  0  0
 20 21  1  0  0  0  0
 20 29  1  0  0  0  0
 20 30  1  0  0  0  0
 21 22  4  0  0  0  0
 21 26  4  0  0  0  0
 22 23  4  0  0  0  0
 22 31  1  0  0  0  0
 23 24  4  0  0  0  0
 23 32  1  0  0  0  0
 24 25  4  0  0  0  0
 24 33  1  0  0  0  0
 25 26  4  0  0  0  0
 25 34  1  0  0  0  0
 26 35  1  0  0  0  0
M  END
> <BCLConfClusterSize>
1

> <ConfClashScore>
0 

> <ConfOneFourInteractionScore>
-0.991445 

> <ConfScore>
0.134313 

> <ConfScorePBest>
0.00658068 

> <ConfTolerance>
0.378834 

> <RosettaParamsInstructions>
M  ROOT 3
M  POLY_N_BB 3
M  POLY_CA_BB 4
M  POLY_C_BB 2
M  POLY_O_BB 5
M  POLY_IGNORE 9 10 11 12 13 14 15 16 17 18 
M  POLY_UPPER 6
M  POLY_LOWER 8
M  POLY_CHG 0
M  POLY_PROPERTIES ALPHA_AA D_AA PROTEIN AROMATIC POLYMER 
M  END

$$$$



 35 35  0  0  0  0  0  0  0  0999 V2000
   -1.4440    3.5728    1.6031 H   0  0  0  1  0  0  0  0  0  0  0  0
   -3.4930    3.1908    1.3583 C   0  0  0  1  0  0  0  0  0  0  0  0
   -2.4678    5.0156    2.6686 N   0  0  0  1  0  0  0  0  0  0  0  0
   -2.3353    4.1541    1.4910 C   0  0  0  1  0  0  0  0  0  0  0  0
   -3.5856    2.4328    0.3937 O   0  0  0  1  0  0  0  0  0  0  0  0
   -4.3896    3.2229    2.3455 N   0  0  0  1  0  0  0  0  0  0  0  0
   -2.8092    5.9268    2.5520 H   0  0  0  1  0  0  0  0  0  0  0  0
   -2.1393    4.6023    3.8959 C   0  0  0  1  0  0  0  0  0  0  0  0
   -5.6355    2.4710    2.3642 C   0  0  0  1  0  0  0  0  0  0  0  0
   -2.0711    5.6868    4.9633 C   0  0  0  1  0  0  0  0  0  0  0  0
   -1.9054    3.4346    4.1634 O   0  0  0  1  0  0  0  0  0  0  0  0
   -4.1947    3.7960    3.1161 H   0  0  0  1  0  0  0  0  0  0  0  0
   -5.4936    1.5324    1.8704 H   0  0  0  1  0  0  0  0  0  0  0  0
   -6.3959    3.0285    1.8583 H   0  0  0  1  0  0  0  0  0  0  0  0
   -5.9329    2.2993    3.3775 H   0  0  0  1  0  0  0  0  0  0  0  0
   -1.5143    6.5208    4.5901 H   0  0  0  1  0  0  0  0  0  0  0  0
   -1.5891    5.2982    5.8360 H   0  0  0  1  0  0  0  0  0  0  0  0
   -3.0621    6.0033    5.2137 H   0  0  0  1  0  0  0  0  0  0  0  0
   -2.1695    4.9963    0.2406 C   0  0  0  1  0  0  0  0  0  0  0  0
   -1.7496    4.1900   -0.9776 C   0  0  0  1  0  0  0  0  0  0  0  0
   -1.3870    5.0508   -2.1581 C   0  0  0  1  0  0  0  0  0  0  0  0
   -2.3176    5.2842   -3.1585 C   0  0  0  1  0  0  0  0  0  0  0  0
   -1.9825    6.0702   -4.2447 C   0  0  0  1  0  0  0  0  0  0  0  0
   -0.7171    6.6296   -4.3311 C   0  0  0  1  0  0  0  0  0  0  0  0
    0.2110    6.3971   -3.3337 C   0  0  0  1  0  0  0  0  0  0  0  0
   -0.1254    5.6087   -2.2443 C   0  0  0  1  0  0  0  0  0  0  0  0
   -1.4235    5.7399    0.4289 H   0  0  0  1  0  0  0  0  0  0  0  0
   -3.1031    5.4732    0.0265 H   0  0  0  1  0  0  0  0  0  0  0  0
   -2.5601    3.5505   -1.2586 H   0  0  0  1  0  0  0  0  0  0  0  0
   -0.8995    3.5952   -0.7159 H   0  0  0  1  0  0  0  0  0  0  0  0
   -3.2683    4.8677   -3.0917 H   0  0  0  1  0  0  0  0  0  0  0  0
   -2.6795    6.2419   -4.9973 H   0  0  0  1  0  0  0  0  0  0  0  0
   -0.4662    7.2244   -5.1465 H   0  0  0  1  0  0  0  0  0  0  0  0
    1.1616    6.8136   -3.4006 H   0  0  0  1  0  0  0  0  0  0  0  0
    0.5716    5.4370   -1.4918 H   0  0  0  1  0  0  0  0  0  0  0  0
  1  4  1  0  0  0  0
  2  4  1  0  0  0  0
  2  5  2  0  0  0  0
  2  6  1  0  0  0  0
  3  4  1  0  0  0  0
  3  7  1  0  0  0  0
  3  8  1  0  0  0  0
  4 19  1  0  0  0  0
  6  9  1  0  0  0  0
  6 12  1  0  0  0  0
  8 10  1  0  0  0  0
  8 11  2  0  0  0  0
  9 13  1  0  0  0  0
  9 14  1  0  0  0  0
  9 15  1  0  0  0  0
 10 16  1  0  0  0  0
 10 17  1  0  0  0  0
 10 18  1  0  0  0  0
 19 20  1  0  0  0  0
 19 27  1  0  0  0  0
 19 28  1  0  0  0  0
 20 21  1  0  0  0  0
 20 29  1  0  0  0  0
 20 30  1  0  0  0  0
 21 22  4  0  0  0  0
 21 26  4  0  0  0  0
 22 23  4  0  0  0  0
 22 31  1  0  0  0  0
 23 24  4  0  0  0  0
 23 32  1  0  0  0  0
 24 25  4  0  0  0  0
 24 33  1  0  0  0  0
 25 26  4  0  0  0  0
 25 34  1  0  0  0  0
 26 35  1  0  0  0  0
M  END
> <BCLConfClusterSize>
1

> <ConfClashScore>
0 

> <ConfOneFourInteractionScore>
-0.970454 

> <ConfScore>
0.135532 

> <ConfScorePBest>
0.0065522 

> <ConfTolerance>
0.309777 

> <RosettaParamsInstructions>
M  ROOT 3
M  POLY_N_BB 3
M  POLY_CA_BB 4
M  POLY_C_BB 2
M  POLY_O_BB 5
M  POLY_IGNORE 9 10 11 12 13 14 15 16 17 18 
M  POLY_UPPER 6
M  POLY_LOWER 8
M  POLY_CHG 0
M  POLY_PROPERTIES ALPHA_AA D_AA PROTEIN AROMATIC POLYMER 
M  END

$$$$



 35 35  0  0  0  0  0  0  0  0999 V2000
   -1.3221    6.6921   -0.0598 H   0  0  0  1  0  0  0  0  0  0  0  0
   -0.3282    5.5464    1.3829 C   0  0  0  1  0  0  0  0  0  0  0  0
   -2.3991    6.8428    1.6931 N   0  0  0  1  0  0  0  0  0  0  0  0
   -1.6102    6.0408    0.7388 C   0  0  0  1  0  0  0  0  0  0  0  0
    0.5403    6.3299    1.7572 O   0  0  0  1  0  0  0  0  0  0  0  0
   -0.2164    4.2233    1.5101 N   0  0  0  1  0  0  0  0  0  0  0  0
   -3.3541    6.6492    1.7974 H   0  0  0  1  0  0  0  0  0  0  0  0
   -1.8578    7.8222    2.4190 C   0  0  0  1  0  0  0  0  0  0  0  0
    1.0137    3.5855    1.9655 C   0  0  0  1  0  0  0  0  0  0  0  0
   -2.7266    8.5107    3.4536 C   0  0  0  1  0  0  0  0  0  0  0  0
   -0.6956    8.2012    2.3000 O   0  0  0  1  0  0  0  0  0  0  0  0
   -0.9876    3.6601    1.2898 H   0  0  0  1  0  0  0  0  0  0  0  0
    1.5197    4.2335    2.6503 H   0  0  0  1  0  0  0  0  0  0  0  0
    1.6467    3.3910    1.1250 H   0  0  0  1  0  0  0  0  0  0  0  0
    0.7772    2.6641    2.4554 H   0  0  0  1  0  0  0  0  0  0  0  0
   -2.5743    8.0536    4.4091 H   0  0  0  1  0  0  0  0  0  0  0  0
   -3.7552    8.4179    3.1740 H   0  0  0  1  0  0  0  0  0  0  0  0
   -2.4632    9.5463    3.5079 H   0  0  0  1  0  0  0  0  0  0  0  0
   -2.4757    4.9439    0.1169 C   0  0  0  1  0  0  0  0  0  0  0  0
   -1.7068    4.1969   -0.9607 C   0  0  0  1  0  0  0  0  0  0  0  0
   -1.3961    5.0494   -2.1618 C   0  0  0  1  0  0  0  0  0  0  0  0
   -2.3235    5.2856   -3.1647 C   0  0  0  1  0  0  0  0  0  0  0  0
   -1.9838    6.0723   -4.2490 C   0  0  0  1  0  0  0  0  0  0  0  0
   -0.7172    6.6296   -4.3310 C   0  0  0  1  0  0  0  0  0  0  0  0
    0.2076    6.3943   -3.3312 C   0  0  0  1  0  0  0  0  0  0  0  0
   -0.1333    5.6052   -2.2437 C   0  0  0  1  0  0  0  0  0  0  0  0
   -3.3466    5.3884   -0.3178 H   0  0  0  1  0  0  0  0  0  0  0  0
   -2.7699    4.2541    0.8801 H   0  0  0  1  0  0  0  0  0  0  0  0
   -2.2928    3.3603   -1.2793 H   0  0  0  1  0  0  0  0  0  0  0  0
   -0.7854    3.8490   -0.5424 H   0  0  0  1  0  0  0  0  0  0  0  0
   -3.2750    4.8707   -3.1011 H   0  0  0  1  0  0  0  0  0  0  0  0
   -2.6783    6.2461   -5.0033 H   0  0  0  1  0  0  0  0  0  0  0  0
   -0.4628    7.2249   -5.1450 H   0  0  0  1  0  0  0  0  0  0  0  0
    1.1592    6.8091   -3.3948 H   0  0  0  1  0  0  0  0  0  0  0  0
    0.5612    5.4313   -1.4894 H   0  0  0  1  0  0  0  0  0  0  0  0
  1  4  1  0  0  0  0
  2  4  1  0  0  0  0
  2  5  2  0  0  0  0
  2  6  1  0  0  0  0
  3  4  1  0  0  0  0
  3  7  1  0  0  0  0
  3  8  1  0  0  0  0
  4 19  1  0  0  0  0
  6  9  1  0  0  0  0
  6 12  1  0  0  0  0
  8 10  1  0  0  0  0
  8 11  2  0  0  0  0
  9 13  1  0  0  0  0
  9 14  1  0  0  0  0
  9 15  1  0  0  0  0
 10 16  1  0  0  0  0
 10 17  1  0  0  0  0
 10 18  1  0  0  0  0
 19 20  1  0  0  0  0
 19 27  1  0  0  0  0
 19 28  1  0  0  0  0
 20 21  1  0  0  0  0
 20 29  1  0  0  0  0
 20 30  1  0  0  0  0
 21 22  4  0  0  0  0
 21 26  4  0  0  0  0
 22 23  4  0  0  0  0
 22 31  1  0  0  0  0
 23 24  4  0  0  0  0
 23 32  1  0  0  0  0
 24 25  4  0  0  0  0
 24 33  1  0  0  0  0
 25 26  4  0  0  0  0
 25 34  1  0  0  0  0
 26 35  1  0  0  0  0
M  END
> <BCLConfClusterSize>
1

> <ConfClashScore>
0 

> <ConfOneFourInteractionScore>
-0.96405 

> <ConfScore>
0.138384 

> <ConfScorePBest>
0.00652372 

> <ConfTolerance>
0.67854 

> <RosettaParamsInstructions>
M  ROOT 3
M  POLY_N_BB 3
M  POLY_CA_BB 4
M  POLY_C_BB 2
M  POLY_O_BB 5
M  POLY_IGNORE 9 10 11 12 13 14 15 16 17 18 
M  POLY_UPPER 6
M  POLY_LOWER 8
M  POLY_CHG 0
M  POLY_PROPERTIES ALPHA_AA D_AA PROTEIN AROMATIC POLYMER 
M  END

$$$$



 35 35  0  0  0  0  0  0  0  0999 V2000
   -1.9591    0.8820   -0.2016 H   0  0  0  1  0  0  0  0  0  0  0  0
   -3.4994    2.1367    0.4836 C   0  0  0  1  0  0  0  0  0  0  0  0
   -1.1217    2.2091    1.1297 N   0  0  0  1  0  0  0  0  0  0  0  0
   -2.0611    1.9150    0.0578 C   0  0  0  1  0  0  0  0  0  0  0  0
   -3.7215    2.9927    1.3389 O   0  0  0  1  0  0  0  0  0  0  0  0
   -4.4457    1.3953   -0.0884 N   0  0  0  1  0  0  0  0  0  0  0  0
   -0.4398    2.8980    0.9852 H   0  0  0  1  0  0  0  0  0  0  0  0
   -1.1569    1.5664    2.3154 C   0  0  0  1  0  0  0  0  0  0  0  0
   -5.8667    1.4796    0.2140 C   0  0  0  1  0  0  0  0  0  0  0  0
   -0.1704    1.9908    3.3859 C   0  0  0  1  0  0  0  0  0  0  0  0
   -1.9646    0.6622    2.5245 O   0  0  0  1  0  0  0  0  0  0  0  0
   -4.1641    0.7437   -0.7641 H   0  0  0  1  0  0  0  0  0  0  0  0
   -6.0072    1.4712    1.2747 H   0  0  0  1  0  0  0  0  0  0  0  0
   -6.3736    0.6429   -0.2193 H   0  0  0  1  0  0  0  0  0  0  0  0
   -6.2641    2.3868   -0.1909 H   0  0  0  1  0  0  0  0  0  0  0  0
    0.0177    3.0408    3.3022 H   0  0  0  1  0  0  0  0  0  0  0  0
    0.7461    1.4533    3.2592 H   0  0  0  1  0  0  0  0  0  0  0  0
   -0.5789    1.7777    4.3516 H   0  0  0  1  0  0  0  0  0  0  0  0
   -1.7181    2.7251   -1.1775 C   0  0  0  1  0  0  0  0  0  0  0  0
   -1.8014    4.2296   -0.9553 C   0  0  0  1  0  0  0  0  0  0  0  0
   -1.3727    5.0336   -2.1672 C   0  0  0  1  0  0  0  0  0  0  0  0
   -2.3083    5.2711   -3.1621 C   0  0  0  1  0  0  0  0  0  0  0  0
   -1.9813    6.0688   -4.2423 C   0  0  0  1  0  0  0  0  0  0  0  0
   -0.7193    6.6359   -4.3280 C   0  0  0  1  0  0  0  0  0  0  0  0
    0.2137    6.3993   -3.3361 C   0  0  0  1  0  0  0  0  0  0  0  0
   -0.1145    5.5991   -2.2528 C   0  0  0  1  0  0  0  0  0  0  0  0
   -2.4003    2.4592   -1.9578 H   0  0  0  1  0  0  0  0  0  0  0  0
   -0.7203    2.4811   -1.4770 H   0  0  0  1  0  0  0  0  0  0  0  0
   -1.1669    4.4881   -0.1334 H   0  0  0  1  0  0  0  0  0  0  0  0
   -2.8136    4.4835   -0.7188 H   0  0  0  1  0  0  0  0  0  0  0  0
   -3.2564    4.8488   -3.0957 H   0  0  0  1  0  0  0  0  0  0  0  0
   -2.6819    6.2437   -4.9907 H   0  0  0  1  0  0  0  0  0  0  0  0
   -0.4745    7.2395   -5.1388 H   0  0  0  1  0  0  0  0  0  0  0  0
    1.1618    6.8215   -3.4025 H   0  0  0  1  0  0  0  0  0  0  0  0
    0.5861    5.4243   -1.5044 H   0  0  0  1  0  0  0  0  0  0  0  0
  1  4  1  0  0  0  0
  2  4  1  0  0  0  0
  2  5  2  0  0  0  0
  2  6  1  0  0  0  0
  3  4  1  0  0  0  0
  3  7  1  0  0  0  0
  3  8  1  0  0  0  0
  4 19  1  0  0  0  0
  6  9  1  0  0  0  0
  6 12  1  0  0  0  0
  8 10  1  0  0  0  0
  8 11  2  0  0  0  0
  9 13  1  0  0  0  0
  9 14  1  0  0  0  0
  9 15  1  0  0  0  0
 10 16  1  0  0  0  0
 10 17  1  0  0  0  0
 10 18  1  0  0  0  0
 19 20  1  0  0  0  0
 19 27  1  0  0  0  0
 19 28  1  0  0  0  0
 20 21  1  0  0  0  0
 20 29  1  0  0  0  0
 20 30  1  0  0  0  0
 21 22  4  0  0  0  0
 21 26  4  0  0  0  0
 22 23  4  0  0  0  0
 22 31  1  0  0  0  0
 23 24  4  0  0  0  0
 23 32  1  0  0  0  0
 24 25  4  0  0  0  0
 24 33  1  0  0  0  0
 25 26  4  0  0  0  0
 25 34  1  0  0  0  0
 26 35  1  0  0  0  0
M  END
> <BCLConfClusterSize>
1

> <ConfClashScore>
0 

> <ConfOneFourInteractionScore>
-0.969727 

> <ConfScore>
0.140231 

> <ConfScorePBest>
0.00649524 

> <ConfTolerance>
0.336685 

> <RosettaParamsInstructions>
M  ROOT 3
M  POLY_N_BB 3
M  POLY_CA_BB 4
M  POLY_C_BB 2
M  POLY_O_BB 5
M  POLY_IGNORE 9 10 11 12 13 14 15 16 17 18 
M  POLY_UPPER 6
M  POLY_LOWER 8
M  POLY_CHG 0
M  POLY_PROPERTIES ALPHA_AA D_AA PROTEIN AROMATIC POLYMER 
M  END

$$$$



 35 35  0  0  0  0  0  0  0  0999 V2000
    0.2906    2.9948   -2.3171 H   0  0  0  1  0  0  0  0  0  0  0  0
    0.1412    0.9395   -1.9235 C   0  0  0  1  0  0  0  0  0  0  0  0
    0.8160    2.7066   -0.3487 N   0  0  0  1  0  0  0  0  0  0  0  0
   -0.0174    2.3811   -1.4964 C   0  0  0  1  0  0  0  0  0  0  0  0
   -0.5011    0.4784   -2.8660 O   0  0  0  1  0  0  0  0  0  0  0  0
    1.0139    0.2170   -1.2153 N   0  0  0  1  0  0  0  0  0  0  0  0
    0.3936    2.8035    0.5303 H   0  0  0  1  0  0  0  0  0  0  0  0
    2.1349    2.8776   -0.4514 C   0  0  0  1  0  0  0  0  0  0  0  0
    1.2182   -1.2045   -1.4507 C   0  0  0  1  0  0  0  0  0  0  0  0
    2.8691    3.1352    0.8500 C   0  0  0  1  0  0  0  0  0  0  0  0
    2.7336    2.8327   -1.5228 O   0  0  0  1  0  0  0  0  0  0  0  0
    1.5345    0.6597   -0.5129 H   0  0  0  1  0  0  0  0  0  0  0  0
    0.2968   -1.6513   -1.7609 H   0  0  0  1  0  0  0  0  0  0  0  0
    1.5542   -1.6706   -0.5480 H   0  0  0  1  0  0  0  0  0  0  0  0
    1.9540   -1.3369   -2.2163 H   0  0  0  1  0  0  0  0  0  0  0  0
    2.5238    2.4507    1.5965 H   0  0  0  1  0  0  0  0  0  0  0  0
    2.6819    4.1382    1.1723 H   0  0  0  1  0  0  0  0  0  0  0  0
    3.9196    2.9985    0.6997 H   0  0  0  1  0  0  0  0  0  0  0  0
   -1.4674    2.7157   -1.2038 C   0  0  0  1  0  0  0  0  0  0  0  0
   -1.7068    4.1969   -0.9607 C   0  0  0  1  0  0  0  0  0  0  0  0
   -1.3961    5.0494   -2.1618 C   0  0  0  1  0  0  0  0  0  0  0  0
   -2.3235    5.2856   -3.1647 C   0  0  0  1  0  0  0  0  0  0  0  0
   -1.9838    6.0723   -4.2490 C   0  0  0  1  0  0  0  0  0  0  0  0
   -0.7172    6.6296   -4.3310 C   0  0  0  1  0  0  0  0  0  0  0  0
    0.2076    6.3943   -3.3312 C   0  0  0  1  0  0  0  0  0  0  0  0
   -0.1333    5.6052   -2.2437 C   0  0  0  1  0  0  0  0  0  0  0  0
   -1.7709    2.1753   -0.3316 H   0  0  0  1  0  0  0  0  0  0  0  0
   -2.0616    2.4086   -2.0390 H   0  0  0  1  0  0  0  0  0  0  0  0
   -1.0861    4.5134   -0.1486 H   0  0  0  1  0  0  0  0  0  0  0  0
   -2.7350    4.3374   -0.7001 H   0  0  0  1  0  0  0  0  0  0  0  0
   -3.2750    4.8707   -3.1011 H   0  0  0  1  0  0  0  0  0  0  0  0
   -2.6783    6.2461   -5.0033 H   0  0  0  1  0  0  0  0  0  0  0  0
   -0.4628    7.2249   -5.1450 H   0  0  0  1  0  0  0  0  0  0  0  0
    1.1592    6.8091   -3.3948 H   0  0  0  1  0  0  0  0  0  0  0  0
    0.5612    5.4313   -1.4894 H   0  0  0  1  0  0  0  0  0  0  0  0
  1  4  1  0  0  0  0
  2  4  1  0  0  0  0
  2  5  2  0  0  0  0
  2  6  1  0  0  0  0
  3  4  1  0  0  0  0
  3  7  1  0  0  0  0
  3  8  1  0  0  0  0
  4 19  1  0  0  0  0
  6  9  1  0  0  0  0
  6 12  1  0  0  0  0
  8 10  1  0  0  0  0
  8 11  2  0  0  0  0
  9 13  1  0  0  0  0
  9 14  1  0  0  0  0
  9 15  1  0  0  0  0
 10 16  1  0  0  0  0
 10 17  1  0  0  0  0
 10 18  1  0  0  0  0
 19 20  1  0  0  0  0
 19 27  1  0  0  0  0
 19 28  1  0  0  0  0
 20 21  1  0  0  0  0
 20 29  1  0  0  0  0
 20 30  1  0  0  0  0
 21 22  4  0  0  0  0
 21 26  4  0  0  0  0
 22 23  4  0  0  0  0
 22 31  1  0  0  0  0
 23 24  4  0  0  0  0
 23 32  1  0  0  0  0
 24 25  4  0  0  0  0
 24 33  1  0  0  0  0
 25 26  4  0  0  0  0
 25 34  1  0  0  0  0
 26 35  1  0  0  0  0
M  END
> <BCLConfClusterSize>
1

> <ConfClashScore>
0 

> <ConfOneFourInteractionScore>
-0.970454 

> <ConfScore>
0.140431 

> <ConfScorePBest>
0.00646676 

> <ConfTolerance>
0.356443 

> <RosettaParamsInstructions>
M  ROOT 3
M  POLY_N_BB 3
M  POLY_CA_BB 4
M  POLY_C_BB 2
M  POLY_O_BB 5
M  POLY_IGNORE 9 10 11 12 13 14 15 16 17 18 
M  POLY_UPPER 6
M  POLY_LOWER 8
M  POLY_CHG 0
M  POLY_PROPERTIES ALPHA_AA D_AA PROTEIN AROMATIC POLYMER 
M  END

$$$$



 35 35  0  0  0  0  0  0  0  0999 V2000
   -2.8569    0.9841   -0.4570 H   0  0  0  1  0  0  0  0  0  0  0  0
   -3.0994    2.3443    1.1202 C   0  0  0  1  0  0  0  0  0  0  0  0
   -0.9741    1.4446    0.2497 N   0  0  0  1  0  0  0  0  0  0  0  0
   -2.3447    1.8564   -0.1083 C   0  0  0  1  0  0  0  0  0  0  0  0
   -4.2993    2.5614    1.0812 O   0  0  0  1  0  0  0  0  0  0  0  0
   -2.3617    2.5147    2.2279 N   0  0  0  1  0  0  0  0  0  0  0  0
   -0.2181    1.8700   -0.2063 H   0  0  0  1  0  0  0  0  0  0  0  0
   -0.7252    0.5026    1.1830 C   0  0  0  1  0  0  0  0  0  0  0  0
   -2.9594    2.8003    3.5237 C   0  0  0  1  0  0  0  0  0  0  0  0
    0.7211    0.1535    1.4754 C   0  0  0  1  0  0  0  0  0  0  0  0
   -1.6429   -0.0581    1.7805 O   0  0  0  1  0  0  0  0  0  0  0  0
   -1.3864    2.4444    2.1621 H   0  0  0  1  0  0  0  0  0  0  0  0
   -3.7107    2.0695    3.7393 H   0  0  0  1  0  0  0  0  0  0  0  0
   -3.4039    3.7734    3.5045 H   0  0  0  1  0  0  0  0  0  0  0  0
   -2.2032    2.7679    4.2799 H   0  0  0  1  0  0  0  0  0  0  0  0
    1.3016    0.2593    0.5828 H   0  0  0  1  0  0  0  0  0  0  0  0
    0.7809   -0.8571    1.8217 H   0  0  0  1  0  0  0  0  0  0  0  0
    1.1015    0.8121    2.2281 H   0  0  0  1  0  0  0  0  0  0  0  0
   -2.3200    2.8309   -1.2597 C   0  0  0  1  0  0  0  0  0  0  0  0
   -1.7087    4.1919   -0.9537 C   0  0  0  1  0  0  0  0  0  0  0  0
   -1.3960    5.0499   -2.1624 C   0  0  0  1  0  0  0  0  0  0  0  0
   -2.3233    5.2860   -3.1653 C   0  0  0  1  0  0  0  0  0  0  0  0
   -1.9836    6.0727   -4.2497 C   0  0  0  1  0  0  0  0  0  0  0  0
   -0.7170    6.6300   -4.3317 C   0  0  0  1  0  0  0  0  0  0  0  0
    0.2078    6.3947   -3.3319 C   0  0  0  1  0  0  0  0  0  0  0  0
   -0.1331    5.6056   -2.2443 C   0  0  0  1  0  0  0  0  0  0  0  0
   -3.3286    2.9873   -1.5807 H   0  0  0  1  0  0  0  0  0  0  0  0
   -1.7569    2.3878   -2.0543 H   0  0  0  1  0  0  0  0  0  0  0  0
   -0.7964    4.0311   -0.4181 H   0  0  0  1  0  0  0  0  0  0  0  0
   -2.3957    4.7308   -0.3353 H   0  0  0  1  0  0  0  0  0  0  0  0
   -3.2749    4.8712   -3.1018 H   0  0  0  1  0  0  0  0  0  0  0  0
   -2.6781    6.2466   -5.0040 H   0  0  0  1  0  0  0  0  0  0  0  0
   -0.4626    7.2253   -5.1456 H   0  0  0  1  0  0  0  0  0  0  0  0
    1.1593    6.8096   -3.3954 H   0  0  0  1  0  0  0  0  0  0  0  0
    0.5614    5.4318   -1.4900 H   0  0  0  1  0  0  0  0  0  0  0  0
  1  4  1  0  0  0  0
  2  4  1  0  0  0  0
  2  5  2  0  0  0  0
  2  6  1  0  0  0  0
  3  4  1  0  0  0  0
  3  7  1  0  0  0  0
  3  8  1  0  0  0  0
  4 19  1  0  0  0  0
  6  9  1  0  0  0  0
  6 12  1  0  0  0  0
  8 10  1  0  0  0  0
  8 11  2  0  0  0  0
  9 13  1  0  0  0  0
  9 14  1  0  0  0  0
  9 15  1  0  0  0  0
 10 16  1  0  0  0  0
 10 17  1  0  0  0  0
 10 18  1  0  0  0  0
 19 20  1  0  0  0  0
 19 27  1  0  0  0  0
 19 28  1  0  0  0  0
 20 21  1  0  0  0  0
 20 29  1  0  0  0  0
 20 30  1  0  0  0  0
 21 22  4  0  0  0  0
 21 26  4  0  0  0  0
 22 23  4  0  0  0  0
 22 31  1  0  0  0  0
 23 24  4  0  0  0  0
 23 32  1  0  0  0  0
 24 25  4  0  0  0  0
 24 33  1  0  0  0  0
 25 26  4  0  0  0  0
 25 34  1  0  0  0  0
 26 35  1  0  0  0  0
M  END
> <BCLConfClusterSize>
1

> <ConfClashScore>
0 

> <ConfOneFourInteractionScore>
-0.945603 

> <ConfScore>
0.146585 

> <ConfScorePBest>
0.00643828 

> <ConfTolerance>
0.340779 

> <RosettaParamsInstructions>
M  ROOT 3
M  POLY_N_BB 3
M  POLY_CA_BB 4
M  POLY_C_BB 2
M  POLY_O_BB 5
M  POLY_IGNORE 9 10 11 12 13 14 15 16 17 18 
M  POLY_UPPER 6
M  POLY_LOWER 8
M  POLY_CHG 0
M  POLY_PROPERTIES ALPHA_AA D_AA PROTEIN AROMATIC POLYMER 
M  END

$$$$



 35 35  0  0  0  0  0  0  0  0999 V2000
   -0.8596    2.4633    0.9285 H   0  0  0  1  0  0  0  0  0  0  0  0
   -0.7910    0.5489    0.0869 C   0  0  0  1  0  0  0  0  0  0  0  0
   -2.8046    1.8842    0.5591 N   0  0  0  1  0  0  0  0  0  0  0  0
   -1.3864    1.9417    0.1570 C   0  0  0  1  0  0  0  0  0  0  0  0
   -0.9898   -0.2747    0.9760 O   0  0  0  1  0  0  0  0  0  0  0  0
   -0.0448    0.2876   -0.9980 N   0  0  0  1  0  0  0  0  0  0  0  0
   -3.2267    2.7188    0.8520 H   0  0  0  1  0  0  0  0  0  0  0  0
   -3.5606    0.7749    0.5540 C   0  0  0  1  0  0  0  0  0  0  0  0
    0.5713   -1.0115   -1.2232 C   0  0  0  1  0  0  0  0  0  0  0  0
   -4.8764    0.8673    1.3160 C   0  0  0  1  0  0  0  0  0  0  0  0
   -3.2284   -0.2594   -0.0234 O   0  0  0  1  0  0  0  0  0  0  0  0
    0.0898    0.9962   -1.6614 H   0  0  0  1  0  0  0  0  0  0  0  0
    1.2653   -1.2191   -0.4357 H   0  0  0  1  0  0  0  0  0  0  0  0
    1.0877   -1.0034   -2.1604 H   0  0  0  1  0  0  0  0  0  0  0  0
   -0.1861   -1.7672   -1.2392 H   0  0  0  1  0  0  0  0  0  0  0  0
   -5.0476   -0.0468    1.8451 H   0  0  0  1  0  0  0  0  0  0  0  0
   -5.6768    1.0350    0.6259 H   0  0  0  1  0  0  0  0  0  0  0  0
   -4.8290    1.6786    2.0120 H   0  0  0  1  0  0  0  0  0  0  0  0
   -1.2257    2.7627   -1.1080 C   0  0  0  1  0  0  0  0  0  0  0  0
   -1.7068    4.1969   -0.9607 C   0  0  0  1  0  0  0  0  0  0  0  0
   -1.3961    5.0494   -2.1618 C   0  0  0  1  0  0  0  0  0  0  0  0
   -2.3235    5.2856   -3.1647 C   0  0  0  1  0  0  0  0  0  0  0  0
   -1.9838    6.0723   -4.2490 C   0  0  0  1  0  0  0  0  0  0  0  0
   -0.7172    6.6296   -4.3310 C   0  0  0  1  0  0  0  0  0  0  0  0
    0.2076    6.3943   -3.3312 C   0  0  0  1  0  0  0  0  0  0  0  0
   -0.1333    5.6052   -2.2437 C   0  0  0  1  0  0  0  0  0  0  0  0
   -1.7873    2.2950   -1.8896 H   0  0  0  1  0  0  0  0  0  0  0  0
   -0.1892    2.7780   -1.3731 H   0  0  0  1  0  0  0  0  0  0  0  0
   -1.2324    4.6290   -0.1045 H   0  0  0  1  0  0  0  0  0  0  0  0
   -2.7668    4.1873   -0.8149 H   0  0  0  1  0  0  0  0  0  0  0  0
   -3.2750    4.8707   -3.1011 H   0  0  0  1  0  0  0  0  0  0  0  0
   -2.6783    6.2461   -5.0033 H   0  0  0  1  0  0  0  0  0  0  0  0
   -0.4628    7.2249   -5.1450 H   0  0  0  1  0  0  0  0  0  0  0  0
    1.1592    6.8091   -3.3948 H   0  0  0  1  0  0  0  0  0  0  0  0
    0.5612    5.4313   -1.4894 H   0  0  0  1  0  0  0  0  0  0  0  0
  1  4  1  0  0  0  0
  2  4  1  0  0  0  0
  2  5  2  0  0  0  0
  2  6  1  0  0  0  0
  3  4  1  0  0  0  0
  3  7  1  0  0  0  0
  3  8  1  0  0  0  0
  4 19  1  0  0  0  0
  6  9  1  0  0  0  0
  6 12  1  0  0  0  0
  8 10  1  0  0  0  0
  8 11  2  0  0  0  0
  9 13  1  0  0  0  0
  9 14  1  0  0  0  0
  9 15  1  0  0  0  0
 10 16  1  0  0  0  0
 10 17  1  0  0  0  0
 10 18  1  0  0  0  0
 19 20  1  0  0  0  0
 19 27  1  0  0  0  0
 19 28  1  0  0  0  0
 20 21  1  0  0  0  0
 20 29  1  0  0  0  0
 20 30  1  0  0  0  0
 21 22  4  0  0  0  0
 21 26  4  0  0  0  0
 22 23  4  0  0  0  0
 22 31  1  0  0  0  0
 23 24  4  0  0  0  0
 23 32  1  0  0  0  0
 24 25  4  0  0  0  0
 24 33  1  0  0  0  0
 25 26  4  0  0  0  0
 25 34  1  0  0  0  0
 26 35  1  0  0  0  0
M  END
> <BCLConfClusterSize>
1

> <ConfClashScore>
0 

> <ConfOneFourInteractionScore>
-0.943527 

> <ConfScore>
0.146908 

> <ConfScorePBest>
0.0064098 

> <ConfTolerance>
0.389689 

> <RosettaParamsInstructions>
M  ROOT 3
M  POLY_N_BB 3
M  POLY_CA_BB 4
M  POLY_C_BB 2
M  POLY_O_BB 5
M  POLY_IGNORE 9 10 11 12 13 14 15 16 17 18 
M  POLY_UPPER 6
M  POLY_LOWER 8
M  POLY_CHG 0
M  POLY_PROPERTIES ALPHA_AA D_AA PROTEIN AROMATIC POLYMER 
M  END

$$$$



 35 35  0  0  0  0  0  0  0  0999 V2000
   -2.9461    4.6630    2.1881 H   0  0  0  1  0  0  0  0  0  0  0  0
   -1.4761    3.1769    1.8211 C   0  0  0  1  0  0  0  0  0  0  0  0
   -3.8430    3.3086    0.9103 N   0  0  0  1  0  0  0  0  0  0  0  0
   -2.6614    4.0488    1.3595 C   0  0  0  1  0  0  0  0  0  0  0  0
   -0.4109    3.1764    1.1661 O   0  0  0  1  0  0  0  0  0  0  0  0
   -1.6242    2.5289    2.9511 N   0  0  0  1  0  0  0  0  0  0  0  0
   -4.4923    3.8105    0.3746 H   0  0  0  1  0  0  0  0  0  0  0  0
   -4.1429    1.9972    1.1533 C   0  0  0  1  0  0  0  0  0  0  0  0
   -0.5955    1.6042    3.4034 C   0  0  0  1  0  0  0  0  0  0  0  0
   -5.4195    1.5155    0.5881 C   0  0  0  1  0  0  0  0  0  0  0  0
   -3.4167    1.2589    1.7924 O   0  0  0  1  0  0  0  0  0  0  0  0
   -2.4293    2.6675    3.4924 H   0  0  0  1  0  0  0  0  0  0  0  0
    0.3700    2.0035    3.1729 H   0  0  0  1  0  0  0  0  0  0  0  0
   -0.7195    0.6635    2.9088 H   0  0  0  1  0  0  0  0  0  0  0  0
   -0.6808    1.4657    4.4610 H   0  0  0  1  0  0  0  0  0  0  0  0
   -5.3981    1.6136   -0.4772 H   0  0  0  1  0  0  0  0  0  0  0  0
   -6.2262    2.0970    0.9833 H   0  0  0  1  0  0  0  0  0  0  0  0
   -5.5593    0.4872    0.8487 H   0  0  0  1  0  0  0  0  0  0  0  0
   -2.2067    4.9424    0.2615 C   0  0  0  1  0  0  0  0  0  0  0  0
   -1.7496    4.1900   -0.9776 C   0  0  0  1  0  0  0  0  0  0  0  0
   -1.3870    5.0508   -2.1581 C   0  0  0  1  0  0  0  0  0  0  0  0
   -2.3176    5.2842   -3.1585 C   0  0  0  1  0  0  0  0  0  0  0  0
   -1.9825    6.0702   -4.2447 C   0  0  0  1  0  0  0  0  0  0  0  0
   -0.7171    6.6296   -4.3311 C   0  0  0  1  0  0  0  0  0  0  0  0
    0.2110    6.3971   -3.3337 C   0  0  0  1  0  0  0  0  0  0  0  0
   -0.1254    5.6087   -2.2443 C   0  0  0  1  0  0  0  0  0  0  0  0
   -1.3896    5.5325    0.6207 H   0  0  0  1  0  0  0  0  0  0  0  0
   -3.0180    5.5844   -0.0115 H   0  0  0  1  0  0  0  0  0  0  0  0
   -2.5414    3.5356   -1.2772 H   0  0  0  1  0  0  0  0  0  0  0  0
   -0.8888    3.6118   -0.7139 H   0  0  0  1  0  0  0  0  0  0  0  0
   -3.2683    4.8677   -3.0917 H   0  0  0  1  0  0  0  0  0  0  0  0
   -2.6795    6.2419   -4.9973 H   0  0  0  1  0  0  0  0  0  0  0  0
   -0.4662    7.2244   -5.1465 H   0  0  0  1  0  0  0  0  0  0  0  0
    1.1616    6.8136   -3.4006 H   0  0  0  1  0  0  0  0  0  0  0  0
    0.5716    5.4370   -1.4918 H   0  0  0  1  0  0  0  0  0  0  0  0
  1  4  1  0  0  0  0
  2  4  1  0  0  0  0
  2  5  2  0  0  0  0
  2  6  1  0  0  0  0
  3  4  1  0  0  0  0
  3  7  1  0  0  0  0
  3  8  1  0  0  0  0
  4 19  1  0  0  0  0
  6  9  1  0  0  0  0
  6 12  1  0  0  0  0
  8 10  1  0  0  0  0
  8 11  2  0  0  0  0
  9 13  1  0  0  0  0
  9 14  1  0  0  0  0
  9 15  1  0  0  0  0
 10 16  1  0  0  0  0
 10 17  1  0  0  0  0
 10 18  1  0  0  0  0
 19 20  1  0  0  0  0
 19 27  1  0  0  0  0
 19 28  1  0  0  0  0
 20 21  1  0  0  0  0
 20 29  1  0  0  0  0
 20 30  1  0  0  0  0
 21 22  4  0  0  0  0
 21 26  4  0  0  0  0
 22 23  4  0  0  0  0
 22 31  1  0  0  0  0
 23 24  4  0  0  0  0
 23 32  1  0  0  0  0
 24 25  4  0  0  0  0
 24 33  1  0  0  0  0
 25 26  4  0  0  0  0
 25 34  1  0  0  0  0
 26 35  1  0  0  0  0
M  END
> <BCLConfClusterSize>
1

> <ConfClashScore>
0.000340853 

> <ConfOneFourInteractionScore>
-0.965427 

> <ConfScore>
0.150503 

> <ConfScorePBest>
0.00638132 

> <ConfTolerance>
0.380418 

> <RosettaParamsInstructions>
M  ROOT 3
M  POLY_N_BB 3
M  POLY_CA_BB 4
M  POLY_C_BB 2
M  POLY_O_BB 5
M  POLY_IGNORE 9 10 11 12 13 14 15 16 17 18 
M  POLY_UPPER 6
M  POLY_LOWER 8
M  POLY_CHG 0
M  POLY_PROPERTIES ALPHA_AA D_AA PROTEIN AROMATIC POLYMER 
M  END

$$$$



 35 35  0  0  0  0  0  0  0  0999 V2000
   -3.7019    3.5418    0.8121 H   0  0  0  1  0  0  0  0  0  0  0  0
   -3.9095    5.1781    2.1213 C   0  0  0  1  0  0  0  0  0  0  0  0
   -2.0233    3.5389    2.0003 N   0  0  0  1  0  0  0  0  0  0  0  0
   -3.0470    4.2628    1.2550 C   0  0  0  1  0  0  0  0  0  0  0  0
   -4.2576    6.2963    1.7919 O   0  0  0  1  0  0  0  0  0  0  0  0
   -4.2823    4.6817    3.3043 N   0  0  0  1  0  0  0  0  0  0  0  0
   -1.9376    2.5767    1.8349 H   0  0  0  1  0  0  0  0  0  0  0  0
   -1.1900    4.0910    2.8953 C   0  0  0  1  0  0  0  0  0  0  0  0
   -5.0123    5.4724    4.2840 C   0  0  0  1  0  0  0  0  0  0  0  0
   -0.2060    3.1459    3.5469 C   0  0  0  1  0  0  0  0  0  0  0  0
   -1.2106    5.2876    3.1805 O   0  0  0  1  0  0  0  0  0  0  0  0
   -4.0562    3.7528    3.5199 H   0  0  0  1  0  0  0  0  0  0  0  0
   -5.1718    4.8889    5.1666 H   0  0  0  1  0  0  0  0  0  0  0  0
   -5.9567    5.7641    3.8741 H   0  0  0  1  0  0  0  0  0  0  0  0
   -4.4453    6.3454    4.5314 H   0  0  0  1  0  0  0  0  0  0  0  0
   -0.7132    2.2526    3.8460 H   0  0  0  1  0  0  0  0  0  0  0  0
    0.2243    3.6162    4.4063 H   0  0  0  1  0  0  0  0  0  0  0  0
    0.5674    2.9002    2.8494 H   0  0  0  1  0  0  0  0  0  0  0  0
   -2.4563    5.0792    0.1216 C   0  0  0  1  0  0  0  0  0  0  0  0
   -1.8014    4.2296   -0.9553 C   0  0  0  1  0  0  0  0  0  0  0  0
   -1.3727    5.0336   -2.1672 C   0  0  0  1  0  0  0  0  0  0  0  0
   -2.3083    5.2711   -3.1621 C   0  0  0  1  0  0  0  0  0  0  0  0
   -1.9813    6.0688   -4.2423 C   0  0  0  1  0  0  0  0  0  0  0  0
   -0.7193    6.6359   -4.3280 C   0  0  0  1  0  0  0  0  0  0  0  0
    0.2137    6.3993   -3.3361 C   0  0  0  1  0  0  0  0  0  0  0  0
   -0.1145    5.5991   -2.2528 C   0  0  0  1  0  0  0  0  0  0  0  0
   -1.7191    5.7398    0.5277 H   0  0  0  1  0  0  0  0  0  0  0  0
   -3.2402    5.6520   -0.3282 H   0  0  0  1  0  0  0  0  0  0  0  0
   -2.4994    3.4829   -1.2715 H   0  0  0  1  0  0  0  0  0  0  0  0
   -0.9373    3.7567   -0.5374 H   0  0  0  1  0  0  0  0  0  0  0  0
   -3.2564    4.8488   -3.0957 H   0  0  0  1  0  0  0  0  0  0  0  0
   -2.6819    6.2437   -4.9907 H   0  0  0  1  0  0  0  0  0  0  0  0
   -0.4745    7.2395   -5.1388 H   0  0  0  1  0  0  0  0  0  0  0  0
    1.1618    6.8215   -3.4025 H   0  0  0  1  0  0  0  0  0  0  0  0
    0.5861    5.4243   -1.5044 H   0  0  0  1  0  0  0  0  0  0  0  0
  1  4  1  0  0  0  0
  2  4  1  0  0  0  0
  2  5  2  0  0  0  0
  2  6  1  0  0  0  0
  3  4  1  0  0  0  0
  3  7  1  0  0  0  0
  3  8  1  0  0  0  0
  4 19  1  0  0  0  0
  6  9  1  0  0  0  0
  6 12  1  0  0  0  0
  8 10  1  0  0  0  0
  8 11  2  0  0  0  0
  9 13  1  0  0  0  0
  9 14  1  0  0  0  0
  9 15  1  0  0  0  0
 10 16  1  0  0  0  0
 10 17  1  0  0  0  0
 10 18  1  0  0  0  0
 19 20  1  0  0  0  0
 19 27  1  0  0  0  0
 19 28  1  0  0  0  0
 20 21  1  0  0  0  0
 20 29  1  0  0  0  0
 20 30  1  0  0  0  0
 21 22  4  0  0  0  0
 21 26  4  0  0  0  0
 22 23  4  0  0  0  0
 22 31  1  0  0  0  0
 23 24  4  0  0  0  0
 23 32  1  0  0  0  0
 24 25  4  0  0  0  0
 24 33  1  0  0  0  0
 25 26  4  0  0  0  0
 25 34  1  0  0  0  0
 26 35  1  0  0  0  0
M  END
> <BCLConfClusterSize>
1

> <ConfClashScore>
0 

> <ConfOneFourInteractionScore>
-0.983812 

> <ConfScore>
0.158005 

> <ConfScorePBest>
0.00635284 

> <ConfTolerance>
0.239987 

> <RosettaParamsInstructions>
M  ROOT 3
M  POLY_N_BB 3
M  POLY_CA_BB 4
M  POLY_C_BB 2
M  POLY_O_BB 5
M  POLY_IGNORE 9 10 11 12 13 14 15 16 17 18 
M  POLY_UPPER 6
M  POLY_LOWER 8
M  POLY_CHG 0
M  POLY_PROPERTIES ALPHA_AA D_AA PROTEIN AROMATIC POLYMER 
M  END

$$$$



 35 35  0  0  0  0  0  0  0  0999 V2000
   -2.6953    1.1010   -1.9479 H   0  0  0  1  0  0  0  0  0  0  0  0
   -2.4888    2.4602   -3.5413 C   0  0  0  1  0  0  0  0  0  0  0  0
   -4.0362    2.6508   -1.6664 N   0  0  0  1  0  0  0  0  0  0  0  0
   -2.7084    2.1643   -2.0668 C   0  0  0  1  0  0  0  0  0  0  0  0
   -3.3951    2.3285   -4.3596 O   0  0  0  1  0  0  0  0  0  0  0  0
   -1.2625    2.8657   -3.8746 N   0  0  0  1  0  0  0  0  0  0  0  0
   -4.0970    3.3553   -0.9879 H   0  0  0  1  0  0  0  0  0  0  0  0
   -5.1890    2.1548   -2.2072 C   0  0  0  1  0  0  0  0  0  0  0  0
   -0.7904    3.0011   -5.2445 C   0  0  0  1  0  0  0  0  0  0  0  0
   -6.4420    2.8344   -1.6901 C   0  0  0  1  0  0  0  0  0  0  0  0
   -5.1828    1.2529   -3.0246 O   0  0  0  1  0  0  0  0  0  0  0  0
   -0.6397    3.0865   -3.1508 H   0  0  0  1  0  0  0  0  0  0  0  0
   -0.8168    2.0466   -5.7273 H   0  0  0  1  0  0  0  0  0  0  0  0
    0.2136    3.3709   -5.2406 H   0  0  0  1  0  0  0  0  0  0  0  0
   -1.4211    3.6853   -5.7728 H   0  0  0  1  0  0  0  0  0  0  0  0
   -6.6166    2.5384   -0.6768 H   0  0  0  1  0  0  0  0  0  0  0  0
   -7.2777    2.5483   -2.2940 H   0  0  0  1  0  0  0  0  0  0  0  0
   -6.3159    3.8960   -1.7346 H   0  0  0  1  0  0  0  0  0  0  0  0
   -1.6388    2.7381   -1.1502 C   0  0  0  1  0  0  0  0  0  0  0  0
   -1.7611    4.2396   -0.9476 C   0  0  0  1  0  0  0  0  0  0  0  0
   -1.3812    5.0323   -2.1696 C   0  0  0  1  0  0  0  0  0  0  0  0
   -2.3138    5.2721   -3.1668 C   0  0  0  1  0  0  0  0  0  0  0  0
   -1.9826    6.0702   -4.2454 C   0  0  0  1  0  0  0  0  0  0  0  0
   -0.7195    6.6353   -4.3274 C   0  0  0  1  0  0  0  0  0  0  0  0
    0.2105    6.3963   -3.3333 C   0  0  0  1  0  0  0  0  0  0  0  0
   -0.1218    5.5958   -2.2515 C   0  0  0  1  0  0  0  0  0  0  0  0
   -0.6796    2.5302   -1.5764 H   0  0  0  1  0  0  0  0  0  0  0  0
   -1.7172    2.2596   -0.1963 H   0  0  0  1  0  0  0  0  0  0  0  0
   -1.1192    4.5279   -0.1415 H   0  0  0  1  0  0  0  0  0  0  0  0
   -2.7756    4.4677   -0.6955 H   0  0  0  1  0  0  0  0  0  0  0  0
   -3.2627    4.8514   -3.1032 H   0  0  0  1  0  0  0  0  0  0  0  0
   -2.6810    6.2468   -4.9955 H   0  0  0  1  0  0  0  0  0  0  0  0
   -0.4716    7.2392   -5.1371 H   0  0  0  1  0  0  0  0  0  0  0  0
    1.1595    6.8171   -3.3969 H   0  0  0  1  0  0  0  0  0  0  0  0
    0.5766    5.4192   -1.5014 H   0  0  0  1  0  0  0  0  0  0  0  0
  1  4  1  0  0  0  0
  2  4  1  0  0  0  0
  2  5  2  0  0  0  0
  2  6  1  0  0  0  0
  3  4  1  0  0  0  0
  3  7  1  0  0  0  0
  3  8  1  0  0  0  0
  4 19  1  0  0  0  0
  6  9  1  0  0  0  0
  6 12  1  0  0  0  0
  8 10  1  0  0  0  0
  8 11  2  0  0  0  0
  9 13  1  0  0  0  0
  9 14  1  0  0  0  0
  9 15  1  0  0  0  0
 10 16  1  0  0  0  0
 10 17  1  0  0  0  0
 10 18  1  0  0  0  0
 19 20  1  0  0  0  0
 19 27  1  0  0  0  0
 19 28  1  0  0  0  0
 20 21  1  0  0  0  0
 20 29  1  0  0  0  0
 20 30  1  0  0  0  0
 21 22  4  0  0  0  0
 21 26  4  0  0  0  0
 22 23  4  0  0  0  0
 22 31  1  0  0  0  0
 23 24  4  0  0  0  0
 23 32  1  0  0  0  0
 24 25  4  0  0  0  0
 24 33  1  0  0  0  0
 25 26  4  0  0  0  0
 25 34  1  0  0  0  0
 26 35  1  0  0  0  0
M  END
> <BCLConfClusterSize>
1

> <ConfClashScore>
0.00133788 

> <ConfOneFourInteractionScore>
-0.947531 

> <ConfScore>
0.158144 

> <ConfScorePBest>
0.00632436 

> <ConfTolerance>
0.722454 

> <RosettaParamsInstructions>
M  ROOT 3
M  POLY_N_BB 3
M  POLY_CA_BB 4
M  POLY_C_BB 2
M  POLY_O_BB 5
M  POLY_IGNORE 9 10 11 12 13 14 15 16 17 18 
M  POLY_UPPER 6
M  POLY_LOWER 8
M  POLY_CHG 0
M  POLY_PROPERTIES ALPHA_AA D_AA PROTEIN AROMATIC POLYMER 
M  END

$$$$



 35 35  0  0  0  0  0  0  0  0999 V2000
   -0.5526    5.3556    1.1665 H   0  0  0  1  0  0  0  0  0  0  0  0
   -2.0590    6.3690    2.2182 C   0  0  0  1  0  0  0  0  0  0  0  0
   -1.0512    7.0240    0.0703 N   0  0  0  1  0  0  0  0  0  0  0  0
   -1.4358    5.9072    0.9204 C   0  0  0  1  0  0  0  0  0  0  0  0
   -1.9038    7.5223    2.6174 O   0  0  0  1  0  0  0  0  0  0  0  0
   -2.7850    5.4841    2.9196 N   0  0  0  1  0  0  0  0  0  0  0  0
   -1.4041    7.0667   -0.8430 H   0  0  0  1  0  0  0  0  0  0  0  0
   -0.2257    8.0027    0.4958 C   0  0  0  1  0  0  0  0  0  0  0  0
   -3.3810    5.8133    4.2058 C   0  0  0  1  0  0  0  0  0  0  0  0
    0.2015    9.0558   -0.5015 C   0  0  0  1  0  0  0  0  0  0  0  0
    0.1691    8.0394    1.6599 O   0  0  0  1  0  0  0  0  0  0  0  0
   -2.9184    4.5852    2.5527 H   0  0  0  1  0  0  0  0  0  0  0  0
   -3.9879    6.6887    4.1047 H   0  0  0  1  0  0  0  0  0  0  0  0
   -2.6065    5.9971    4.9209 H   0  0  0  1  0  0  0  0  0  0  0  0
   -3.9867    4.9960    4.5376 H   0  0  0  1  0  0  0  0  0  0  0  0
    1.2583    8.9931   -0.6565 H   0  0  0  1  0  0  0  0  0  0  0  0
   -0.0464   10.0257   -0.1237 H   0  0  0  1  0  0  0  0  0  0  0  0
   -0.3052    8.8939   -1.4299 H   0  0  0  1  0  0  0  0  0  0  0  0
   -2.3415    4.9834    0.1799 C   0  0  0  1  0  0  0  0  0  0  0  0
   -1.7496    4.1900   -0.9776 C   0  0  0  1  0  0  0  0  0  0  0  0
   -1.3870    5.0508   -2.1581 C   0  0  0  1  0  0  0  0  0  0  0  0
   -2.3176    5.2842   -3.1585 C   0  0  0  1  0  0  0  0  0  0  0  0
   -1.9825    6.0702   -4.2447 C   0  0  0  1  0  0  0  0  0  0  0  0
   -0.7171    6.6296   -4.3311 C   0  0  0  1  0  0  0  0  0  0  0  0
    0.2110    6.3971   -3.3337 C   0  0  0  1  0  0  0  0  0  0  0  0
   -0.1254    5.6087   -2.2443 C   0  0  0  1  0  0  0  0  0  0  0  0
   -3.1452    5.5705   -0.2129 H   0  0  0  1  0  0  0  0  0  0  0  0
   -2.7265    4.2785    0.8869 H   0  0  0  1  0  0  0  0  0  0  0  0
   -2.4676    3.4626   -1.2943 H   0  0  0  1  0  0  0  0  0  0  0  0
   -0.8662    3.6937   -0.6338 H   0  0  0  1  0  0  0  0  0  0  0  0
   -3.2683    4.8677   -3.0917 H   0  0  0  1  0  0  0  0  0  0  0  0
   -2.6795    6.2419   -4.9973 H   0  0  0  1  0  0  0  0  0  0  0  0
   -0.4662    7.2244   -5.1465 H   0  0  0  1  0  0  0  0  0  0  0  0
    1.1616    6.8136   -3.4006 H   0  0  0  1  0  0  0  0  0  0  0  0
    0.5716    5.4370   -1.4918 H   0  0  0  1  0  0  0  0  0  0  0  0
  1  4  1  0  0  0  0
  2  4  1  0  0  0  0
  2  5  2  0  0  0  0
  2  6  1  0  0  0  0
  3  4  1  0  0  0  0
  3  7  1  0  0  0  0
  3  8  1  0  0  0  0
  4 19  1  0  0  0  0
  6  9  1  0  0  0  0
  6 12  1  0  0  0  0
  8 10  1  0  0  0  0
  8 11  2  0  0  0  0
  9 13  1  0  0  0  0
  9 14  1  0  0  0  0
  9 15  1  0  0  0  0
 10 16  1  0  0  0  0
 10 17  1  0  0  0  0
 10 18  1  0  0  0  0
 19 20  1  0  0  0  0
 19 27  1  0  0  0  0
 19 28  1  0  0  0  0
 20 21  1  0  0  0  0
 20 29  1  0  0  0  0
 20 30  1  0  0  0  0
 21 22  4  0  0  0  0
 21 26  4  0  0  0  0
 22 23  4  0  0  0  0
 22 31  1  0  0  0  0
 23 24  4  0  0  0  0
 23 32  1  0  0  0  0
 24 25  4  0  0  0  0
 24 33  1  0  0  0  0
 25 26  4  0  0  0  0
 25 34  1  0  0  0  0
 26 35  1  0  0  0  0
M  END
> <BCLConfClusterSize>
1

> <ConfClashScore>
0 

> <ConfOneFourInteractionScore>
-0.969249 

> <ConfScore>
0.159684 

> <ConfScorePBest>
0.00629587 

> <ConfTolerance>
0.834531 

> <RosettaParamsInstructions>
M  ROOT 3
M  POLY_N_BB 3
M  POLY_CA_BB 4
M  POLY_C_BB 2
M  POLY_O_BB 5
M  POLY_IGNORE 9 10 11 12 13 14 15 16 17 18 
M  POLY_UPPER 6
M  POLY_LOWER 8
M  POLY_CHG 0
M  POLY_PROPERTIES ALPHA_AA D_AA PROTEIN AROMATIC POLYMER 
M  END

$$$$



 35 35  0  0  0  0  0  0  0  0999 V2000
   -0.8727    2.2121    0.7012 H   0  0  0  1  0  0  0  0  0  0  0  0
   -1.2255    0.3759   -0.2533 C   0  0  0  1  0  0  0  0  0  0  0  0
   -2.9177    2.0006    0.6050 N   0  0  0  1  0  0  0  0  0  0  0  0
   -1.5899    1.8340    0.0030 C   0  0  0  1  0  0  0  0  0  0  0  0
   -2.0936   -0.3615   -0.7127 O   0  0  0  1  0  0  0  0  0  0  0  0
    0.0120   -0.0225    0.0333 N   0  0  0  1  0  0  0  0  0  0  0  0
   -3.5537    2.6377    0.2177 H   0  0  0  1  0  0  0  0  0  0  0  0
   -3.2628    1.2825    1.6845 C   0  0  0  1  0  0  0  0  0  0  0  0
    0.4490   -1.3978   -0.1547 C   0  0  0  1  0  0  0  0  0  0  0  0
   -4.6226    1.5966    2.2775 C   0  0  0  1  0  0  0  0  0  0  0  0
   -2.5357    0.4202    2.1759 O   0  0  0  1  0  0  0  0  0  0  0  0
    0.6508    0.6331    0.3831 H   0  0  0  1  0  0  0  0  0  0  0  0
    1.4681   -1.4074   -0.4806 H   0  0  0  1  0  0  0  0  0  0  0  0
   -0.1656   -1.8694   -0.8927 H   0  0  0  1  0  0  0  0  0  0  0  0
    0.3659   -1.9280    0.7711 H   0  0  0  1  0  0  0  0  0  0  0  0
   -5.3554    0.9391    1.8585 H   0  0  0  1  0  0  0  0  0  0  0  0
   -4.8834    2.6099    2.0538 H   0  0  0  1  0  0  0  0  0  0  0  0
   -4.5883    1.4624    3.3385 H   0  0  0  1  0  0  0  0  0  0  0  0
   -1.4980    2.7101   -1.2218 C   0  0  0  1  0  0  0  0  0  0  0  0
   -1.7891    4.1846   -0.9948 C   0  0  0  1  0  0  0  0  0  0  0  0
   -1.3784    5.0520   -2.1545 C   0  0  0  1  0  0  0  0  0  0  0  0
   -2.3122    5.2828   -3.1526 C   0  0  0  1  0  0  0  0  0  0  0  0
   -1.9813    6.0682   -4.2406 C   0  0  0  1  0  0  0  0  0  0  0  0
   -0.7171    6.6296   -4.3310 C   0  0  0  1  0  0  0  0  0  0  0  0
    0.2141    6.3997   -3.3359 C   0  0  0  1  0  0  0  0  0  0  0  0
   -0.1180    5.6119   -2.2447 C   0  0  0  1  0  0  0  0  0  0  0  0
   -2.1983    2.3431   -1.9428 H   0  0  0  1  0  0  0  0  0  0  0  0
   -0.5056    2.6265   -1.6130 H   0  0  0  1  0  0  0  0  0  0  0  0
   -1.2576    4.5065   -0.1237 H   0  0  0  1  0  0  0  0  0  0  0  0
   -2.8405    4.3036   -0.8360 H   0  0  0  1  0  0  0  0  0  0  0  0
   -3.2620    4.8648   -3.0828 H   0  0  0  1  0  0  0  0  0  0  0  0
   -2.6806    6.2379   -4.9914 H   0  0  0  1  0  0  0  0  0  0  0  0
   -0.4693    7.2239   -5.1477 H   0  0  0  1  0  0  0  0  0  0  0  0
    1.1639    6.8177   -3.4058 H   0  0  0  1  0  0  0  0  0  0  0  0
    0.5813    5.4421   -1.4939 H   0  0  0  1  0  0  0  0  0  0  0  0
  1  4  1  0  0  0  0
  2  4  1  0  0  0  0
  2  5  2  0  0  0  0
  2  6  1  0  0  0  0
  3  4  1  0  0  0  0
  3  7  1  0  0  0  0
  3  8  1  0  0  0  0
  4 19  1  0  0  0  0
  6  9  1  0  0  0  0
  6 12  1  0  0  0  0
  8 10  1  0  0  0  0
  8 11  2  0  0  0  0
  9 13  1  0  0  0  0
  9 14  1  0  0  0  0
  9 15  1  0  0  0  0
 10 16  1  0  0  0  0
 10 17  1  0  0  0  0
 10 18  1  0  0  0  0
 19 20  1  0  0  0  0
 19 27  1  0  0  0  0
 19 28  1  0  0  0  0
 20 21  1  0  0  0  0
 20 29  1  0  0  0  0
 20 30  1  0  0  0  0
 21 22  4  0  0  0  0
 21 26  4  0  0  0  0
 22 23  4  0  0  0  0
 22 31  1  0  0  0  0
 23 24  4  0  0  0  0
 23 32  1  0  0  0  0
 24 25  4  0  0  0  0
 24 33  1  0  0  0  0
 25 26  4  0  0  0  0
 25 34  1  0  0  0  0
 26 35  1  0  0  0  0
M  END
> <BCLConfClusterSize>
1

> <ConfClashScore>
0 

> <ConfOneFourInteractionScore>
-0.991445 

> <ConfScore>
0.160571 

> <ConfScorePBest>
0.00626739 

> <ConfTolerance>
0.420998 

> <RosettaParamsInstructions>
M  ROOT 3
M  POLY_N_BB 3
M  POLY_CA_BB 4
M  POLY_C_BB 2
M  POLY_O_BB 5
M  POLY_IGNORE 9 10 11 12 13 14 15 16 17 18 
M  POLY_UPPER 6
M  POLY_LOWER 8
M  POLY_CHG 0
M  POLY_PROPERTIES ALPHA_AA D_AA PROTEIN AROMATIC POLYMER 
M  END

$$$$



 35 35  0  0  0  0  0  0  0  0999 V2000
   -1.1461    0.9700   -0.0601 H   0  0  0  1  0  0  0  0  0  0  0  0
   -2.7619    1.9573    0.8265 C   0  0  0  1  0  0  0  0  0  0  0  0
   -0.3707    2.4486    1.1359 N   0  0  0  1  0  0  0  0  0  0  0  0
   -1.3848    1.9875    0.1695 C   0  0  0  1  0  0  0  0  0  0  0  0
   -3.7807    1.8209    0.1503 O   0  0  0  1  0  0  0  0  0  0  0  0
   -2.8273    2.0838    2.1613 N   0  0  0  1  0  0  0  0  0  0  0  0
   -0.1261    3.3974    1.1482 H   0  0  0  1  0  0  0  0  0  0  0  0
    0.2261    1.6176    1.9952 C   0  0  0  1  0  0  0  0  0  0  0  0
   -4.0877    2.0278    2.8867 C   0  0  0  1  0  0  0  0  0  0  0  0
    1.2546    2.2690    2.9169 C   0  0  0  1  0  0  0  0  0  0  0  0
    0.0390    0.4122    2.0146 O   0  0  0  1  0  0  0  0  0  0  0  0
   -1.9974    2.2185    2.6648 H   0  0  0  1  0  0  0  0  0  0  0  0
   -4.2145    2.9271    3.4524 H   0  0  0  1  0  0  0  0  0  0  0  0
   -4.0805    1.1878    3.5495 H   0  0  0  1  0  0  0  0  0  0  0  0
   -4.8949    1.9273    2.1915 H   0  0  0  1  0  0  0  0  0  0  0  0
    2.1927    1.7638    2.8188 H   0  0  0  1  0  0  0  0  0  0  0  0
    0.9180    2.2019    3.9304 H   0  0  0  1  0  0  0  0  0  0  0  0
    1.3738    3.2976    2.6475 H   0  0  0  1  0  0  0  0  0  0  0  0
   -1.3284    2.7373   -1.1525 C   0  0  0  1  0  0  0  0  0  0  0  0
   -1.7068    4.1969   -0.9607 C   0  0  0  1  0  0  0  0  0  0  0  0
   -1.3961    5.0494   -2.1618 C   0  0  0  1  0  0  0  0  0  0  0  0
   -2.3235    5.2856   -3.1647 C   0  0  0  1  0  0  0  0  0  0  0  0
   -1.9838    6.0723   -4.2490 C   0  0  0  1  0  0  0  0  0  0  0  0
   -0.7172    6.6296   -4.3310 C   0  0  0  1  0  0  0  0  0  0  0  0
    0.2076    6.3943   -3.3312 C   0  0  0  1  0  0  0  0  0  0  0  0
   -0.1333    5.6052   -2.2437 C   0  0  0  1  0  0  0  0  0  0  0  0
   -2.0111    2.2855   -1.8415 H   0  0  0  1  0  0  0  0  0  0  0  0
   -0.3348    2.6812   -1.5456 H   0  0  0  1  0  0  0  0  0  0  0  0
   -1.1662    4.5814   -0.1211 H   0  0  0  1  0  0  0  0  0  0  0  0
   -2.7573    4.2535   -0.7654 H   0  0  0  1  0  0  0  0  0  0  0  0
   -3.2750    4.8707   -3.1011 H   0  0  0  1  0  0  0  0  0  0  0  0
   -2.6783    6.2461   -5.0033 H   0  0  0  1  0  0  0  0  0  0  0  0
   -0.4628    7.2249   -5.1450 H   0  0  0  1  0  0  0  0  0  0  0  0
    1.1592    6.8091   -3.3948 H   0  0  0  1  0  0  0  0  0  0  0  0
    0.5612    5.4313   -1.4894 H   0  0  0  1  0  0  0  0  0  0  0  0
  1  4  1  0  0  0  0
  2  4  1  0  0  0  0
  2  5  2  0  0  0  0
  2  6  1  0  0  0  0
  3  4  1  0  0  0  0
  3  7  1  0  0  0  0
  3  8  1  0  0  0  0
  4 19  1  0  0  0  0
  6  9  1  0  0  0  0
  6 12  1  0  0  0  0
  8 10  1  0  0  0  0
  8 11  2  0  0  0  0
  9 13  1  0  0  0  0
  9 14  1  0  0  0  0
  9 15  1  0  0  0  0
 10 16  1  0  0  0  0
 10 17  1  0  0  0  0
 10 18  1  0  0  0  0
 19 20  1  0  0  0  0
 19 27  1  0  0  0  0
 19 28  1  0  0  0  0
 20 21  1  0  0  0  0
 20 29  1  0  0  0  0
 20 30  1  0  0  0  0
 21 22  4  0  0  0  0
 21 26  4  0  0  0  0
 22 23  4  0  0  0  0
 22 31  1  0  0  0  0
 23 24  4  0  0  0  0
 23 32  1  0  0  0  0
 24 25  4  0  0  0  0
 24 33  1  0  0  0  0
 25 26  4  0  0  0  0
 25 34  1  0  0  0  0
 26 35  1  0  0  0  0
M  END
> <BCLConfClusterSize>
1

> <ConfClashScore>
0 

> <ConfOneFourInteractionScore>
-0.933362 

> <ConfScore>
0.161597 

> <ConfScorePBest>
0.00623891 

> <ConfTolerance>
0.403761 

> <RosettaParamsInstructions>
M  ROOT 3
M  POLY_N_BB 3
M  POLY_CA_BB 4
M  POLY_C_BB 2
M  POLY_O_BB 5
M  POLY_IGNORE 9 10 11 12 13 14 15 16 17 18 
M  POLY_UPPER 6
M  POLY_LOWER 8
M  POLY_CHG 0
M  POLY_PROPERTIES ALPHA_AA D_AA PROTEIN AROMATIC POLYMER 
M  END

$$$$



 35 35  0  0  0  0  0  0  0  0999 V2000
   -1.9486    4.5562    2.4283 H   0  0  0  1  0  0  0  0  0  0  0  0
   -0.7795    2.9890    1.6555 C   0  0  0  1  0  0  0  0  0  0  0  0
   -3.2203    3.2709    1.4455 N   0  0  0  1  0  0  0  0  0  0  0  0
   -1.9412    3.9585    1.5408 C   0  0  0  1  0  0  0  0  0  0  0  0
    0.1814    3.2052    2.3712 O   0  0  0  1  0  0  0  0  0  0  0  0
   -0.8069    1.8579    0.9489 N   0  0  0  1  0  0  0  0  0  0  0  0
   -3.2277    2.3113    1.2467 H   0  0  0  1  0  0  0  0  0  0  0  0
   -4.3847    3.9024    1.6195 C   0  0  0  1  0  0  0  0  0  0  0  0
    0.2809    0.8938    0.8772 C   0  0  0  1  0  0  0  0  0  0  0  0
   -5.6326    3.0403    1.4779 C   0  0  0  1  0  0  0  0  0  0  0  0
   -4.4637    5.1005    1.8776 O   0  0  0  1  0  0  0  0  0  0  0  0
   -1.6208    1.6614    0.4398 H   0  0  0  1  0  0  0  0  0  0  0  0
    0.0584    0.1591    0.1318 H   0  0  0  1  0  0  0  0  0  0  0  0
    0.3955    0.4145    1.8269 H   0  0  0  1  0  0  0  0  0  0  0  0
    1.1884    1.3989    0.6202 H   0  0  0  1  0  0  0  0  0  0  0  0
   -5.5732    2.2122    2.1529 H   0  0  0  1  0  0  0  0  0  0  0  0
   -5.7030    2.6773    0.4738 H   0  0  0  1  0  0  0  0  0  0  0  0
   -6.4983    3.6259    1.7075 H   0  0  0  1  0  0  0  0  0  0  0  0
   -1.7628    4.9003    0.3656 C   0  0  0  1  0  0  0  0  0  0  0  0
   -1.7493    4.1907   -0.9786 C   0  0  0  1  0  0  0  0  0  0  0  0
   -1.3870    5.0507   -2.1580 C   0  0  0  1  0  0  0  0  0  0  0  0
   -2.3177    5.2841   -3.1584 C   0  0  0  1  0  0  0  0  0  0  0  0
   -1.9825    6.0701   -4.2447 C   0  0  0  1  0  0  0  0  0  0  0  0
   -0.7172    6.6296   -4.3310 C   0  0  0  1  0  0  0  0  0  0  0  0
    0.2110    6.3971   -3.3336 C   0  0  0  1  0  0  0  0  0  0  0  0
   -0.1254    5.6086   -2.2442 C   0  0  0  1  0  0  0  0  0  0  0  0
   -0.8346    5.4192    0.4846 H   0  0  0  1  0  0  0  0  0  0  0  0
   -2.5686    5.6042    0.3695 H   0  0  0  1  0  0  0  0  0  0  0  0
   -2.7265    3.7900   -1.1501 H   0  0  0  1  0  0  0  0  0  0  0  0
   -1.0402    3.3913   -0.9227 H   0  0  0  1  0  0  0  0  0  0  0  0
   -3.2683    4.8676   -3.0916 H   0  0  0  1  0  0  0  0  0  0  0  0
   -2.6795    6.2419   -4.9972 H   0  0  0  1  0  0  0  0  0  0  0  0
   -0.4662    7.2244   -5.1464 H   0  0  0  1  0  0  0  0  0  0  0  0
    1.1616    6.8135   -3.4005 H   0  0  0  1  0  0  0  0  0  0  0  0
    0.5716    5.4369   -1.4917 H   0  0  0  1  0  0  0  0  0  0  0  0
  1  4  1  0  0  0  0
  2  4  1  0  0  0  0
  2  5  2  0  0  0  0
  2  6  1  0  0  0  0
  3  4  1  0  0  0  0
  3  7  1  0  0  0  0
  3  8  1  0  0  0  0
  4 19  1  0  0  0  0
  6  9  1  0  0  0  0
  6 12  1  0  0  0  0
  8 10  1  0  0  0  0
  8 11  2  0  0  0  0
  9 13  1  0  0  0  0
  9 14  1  0  0  0  0
  9 15  1  0  0  0  0
 10 16  1  0  0  0  0
 10 17  1  0  0  0  0
 10 18  1  0  0  0  0
 19 20  1  0  0  0  0
 19 27  1  0  0  0  0
 19 28  1  0  0  0  0
 20 21  1  0  0  0  0
 20 29  1  0  0  0  0
 20 30  1  0  0  0  0
 21 22  4  0  0  0  0
 21 26  4  0  0  0  0
 22 23  4  0  0  0  0
 22 31  1  0  0  0  0
 23 24  4  0  0  0  0
 23 32  1  0  0  0  0
 24 25  4  0  0  0  0
 24 33  1  0  0  0  0
 25 26  4  0  0  0  0
 25 34  1  0  0  0  0
 26 35  1  0  0  0  0
M  END
> <BCLConfClusterSize>
1

> <ConfClashScore>
0 

> <ConfOneFourInteractionScore>
-0.950407 

> <ConfScore>
0.162464 

> <ConfScorePBest>
0.00621043 

> <ConfTolerance>
0.580042 

> <RosettaParamsInstructions>
M  ROOT 3
M  POLY_N_BB 3
M  POLY_CA_BB 4
M  POLY_C_BB 2
M  POLY_O_BB 5
M  POLY_IGNORE 9 10 11 12 13 14 15 16 17 18 
M  POLY_UPPER 6
M  POLY_LOWER 8
M  POLY_CHG 0
M  POLY_PROPERTIES ALPHA_AA D_AA PROTEIN AROMATIC POLYMER 
M  END

$$$$



 35 35  0  0  0  0  0  0  0  0999 V2000
   -1.6944    2.0646    0.6449 H   0  0  0  1  0  0  0  0  0  0  0  0
   -1.8145    0.3352   -0.5486 C   0  0  0  1  0  0  0  0  0  0  0  0
   -3.6225    1.9514   -0.0723 N   0  0  0  1  0  0  0  0  0  0  0  0
   -2.1863    1.7817   -0.2622 C   0  0  0  1  0  0  0  0  0  0  0  0
   -0.8335    0.0525   -1.2314 O   0  0  0  1  0  0  0  0  0  0  0  0
   -2.6222   -0.5921   -0.0103 N   0  0  0  1  0  0  0  0  0  0  0  0
   -3.9387    2.6134    0.5775 H   0  0  0  1  0  0  0  0  0  0  0  0
   -4.5258    1.2327   -0.7562 C   0  0  0  1  0  0  0  0  0  0  0  0
   -2.3771   -2.0218   -0.1624 C   0  0  0  1  0  0  0  0  0  0  0  0
   -5.9772    1.4865   -0.3983 C   0  0  0  1  0  0  0  0  0  0  0  0
   -4.2157    0.4169   -1.6203 O   0  0  0  1  0  0  0  0  0  0  0  0
   -3.4038   -0.2982    0.5026 H   0  0  0  1  0  0  0  0  0  0  0  0
   -1.3345   -2.1890   -0.3358 H   0  0  0  1  0  0  0  0  0  0  0  0
   -2.9405   -2.3938   -0.9925 H   0  0  0  1  0  0  0  0  0  0  0  0
   -2.6763   -2.5316    0.7295 H   0  0  0  1  0  0  0  0  0  0  0  0
   -6.2126    2.5161   -0.5697 H   0  0  0  1  0  0  0  0  0  0  0  0
   -6.1362    1.2516    0.6335 H   0  0  0  1  0  0  0  0  0  0  0  0
   -6.6071    0.8710   -1.0059 H   0  0  0  1  0  0  0  0  0  0  0  0
   -1.6860    2.7127   -1.3597 C   0  0  0  1  0  0  0  0  0  0  0  0
   -1.7891    4.1846   -0.9948 C   0  0  0  1  0  0  0  0  0  0  0  0
   -1.3784    5.0520   -2.1545 C   0  0  0  1  0  0  0  0  0  0  0  0
   -2.3122    5.2828   -3.1526 C   0  0  0  1  0  0  0  0  0  0  0  0
   -1.9813    6.0682   -4.2406 C   0  0  0  1  0  0  0  0  0  0  0  0
   -0.7171    6.6296   -4.3310 C   0  0  0  1  0  0  0  0  0  0  0  0
    0.2141    6.3997   -3.3359 C   0  0  0  1  0  0  0  0  0  0  0  0
   -0.1180    5.6119   -2.2447 C   0  0  0  1  0  0  0  0  0  0  0  0
   -2.2669    2.5403   -2.2417 H   0  0  0  1  0  0  0  0  0  0  0  0
   -0.6598    2.4832   -1.5575 H   0  0  0  1  0  0  0  0  0  0  0  0
   -1.1478    4.3853   -0.1621 H   0  0  0  1  0  0  0  0  0  0  0  0
   -2.8007    4.4101   -0.7290 H   0  0  0  1  0  0  0  0  0  0  0  0
   -3.2620    4.8648   -3.0828 H   0  0  0  1  0  0  0  0  0  0  0  0
   -2.6806    6.2379   -4.9914 H   0  0  0  1  0  0  0  0  0  0  0  0
   -0.4693    7.2239   -5.1477 H   0  0  0  1  0  0  0  0  0  0  0  0
    1.1639    6.8177   -3.4058 H   0  0  0  1  0  0  0  0  0  0  0  0
    0.5813    5.4421   -1.4939 H   0  0  0  1  0  0  0  0  0  0  0  0
  1  4  1  0  0  0  0
  2  4  1  0  0  0  0
  2  5  2  0  0  0  0
  2  6  1  0  0  0  0
  3  4  1  0  0  0  0
  3  7  1  0  0  0  0
  3  8  1  0  0  0  0
  4 19  1  0  0  0  0
  6  9  1  0  0  0  0
  6 12  1  0  0  0  0
  8 10  1  0  0  0  0
  8 11  2  0  0  0  0
  9 13  1  0  0  0  0
  9 14  1  0  0  0  0
  9 15  1  0  0  0  0
 10 16  1  0  0  0  0
 10 17  1  0  0  0  0
 10 18  1  0  0  0  0
 19 20  1  0  0  0  0
 19 27  1  0  0  0  0
 19 28  1  0  0  0  0
 20 21  1  0  0  0  0
 20 29  1  0  0  0  0
 20 30  1  0  0  0  0
 21 22  4  0  0  0  0
 21 26  4  0  0  0  0
 22 23  4  0  0  0  0
 22 31  1  0  0  0  0
 23 24  4  0  0  0  0
 23 32  1  0  0  0  0
 24 25  4  0  0  0  0
 24 33  1  0  0  0  0
 25 26  4  0  0  0  0
 25 34  1  0  0  0  0
 26 35  1  0  0  0  0
M  END
> <BCLConfClusterSize>
1

> <ConfClashScore>
0 

> <ConfOneFourInteractionScore>
-0.968021 

> <ConfScore>
0.164267 

> <ConfScorePBest>
0.00618195 

> <ConfTolerance>
0.263399 

> <RosettaParamsInstructions>
M  ROOT 3
M  POLY_N_BB 3
M  POLY_CA_BB 4
M  POLY_C_BB 2
M  POLY_O_BB 5
M  POLY_IGNORE 9 10 11 12 13 14 15 16 17 18 
M  POLY_UPPER 6
M  POLY_LOWER 8
M  POLY_CHG 0
M  POLY_PROPERTIES ALPHA_AA D_AA PROTEIN AROMATIC POLYMER 
M  END

$$$$



 35 35  0  0  0  0  0  0  0  0999 V2000
   -2.1494    3.2313    1.4238 H   0  0  0  1  0  0  0  0  0  0  0  0
   -4.1310    3.6809    0.8107 C   0  0  0  1  0  0  0  0  0  0  0  0
   -2.8017    4.8201    2.5829 N   0  0  0  1  0  0  0  0  0  0  0  0
   -2.7551    4.1067    1.3153 C   0  0  0  1  0  0  0  0  0  0  0  0
   -4.3868    3.5750   -0.3780 O   0  0  0  1  0  0  0  0  0  0  0  0
   -5.0936    3.4131    1.6976 N   0  0  0  1  0  0  0  0  0  0  0  0
   -2.8895    5.7961    2.5733 H   0  0  0  1  0  0  0  0  0  0  0  0
   -2.7282    4.1855    3.7691 C   0  0  0  1  0  0  0  0  0  0  0  0
   -6.4368    3.0249    1.2937 C   0  0  0  1  0  0  0  0  0  0  0  0
   -2.7015    5.1315    4.9725 C   0  0  0  1  0  0  0  0  0  0  0  0
   -2.6851    2.9659    3.9078 O   0  0  0  1  0  0  0  0  0  0  0  0
   -4.8881    3.4806    2.6535 H   0  0  0  1  0  0  0  0  0  0  0  0
   -6.3916    2.4975    0.3638 H   0  0  0  1  0  0  0  0  0  0  0  0
   -7.0412    3.9002    1.1781 H   0  0  0  1  0  0  0  0  0  0  0  0
   -6.8650    2.3914    2.0422 H   0  0  0  1  0  0  0  0  0  0  0  0
   -3.5424    5.7916    4.9266 H   0  0  0  1  0  0  0  0  0  0  0  0
   -1.7977    5.7040    4.9559 H   0  0  0  1  0  0  0  0  0  0  0  0
   -2.7459    4.5601    5.8761 H   0  0  0  1  0  0  0  0  0  0  0  0
   -2.1217    4.9984    0.2584 C   0  0  0  1  0  0  0  0  0  0  0  0
   -1.7496    4.1900   -0.9776 C   0  0  0  1  0  0  0  0  0  0  0  0
   -1.3870    5.0508   -2.1581 C   0  0  0  1  0  0  0  0  0  0  0  0
   -2.3176    5.2842   -3.1585 C   0  0  0  1  0  0  0  0  0  0  0  0
   -1.9825    6.0702   -4.2447 C   0  0  0  1  0  0  0  0  0  0  0  0
   -0.7171    6.6296   -4.3311 C   0  0  0  1  0  0  0  0  0  0  0  0
    0.2110    6.3971   -3.3337 C   0  0  0  1  0  0  0  0  0  0  0  0
   -0.1254    5.6087   -2.2443 C   0  0  0  1  0  0  0  0  0  0  0  0
   -1.2389    5.4485    0.6622 H   0  0  0  1  0  0  0  0  0  0  0  0
   -2.8175    5.7627   -0.0186 H   0  0  0  1  0  0  0  0  0  0  0  0
   -2.5837    3.5764   -1.2470 H   0  0  0  1  0  0  0  0  0  0  0  0
   -0.9117    3.5690   -0.7388 H   0  0  0  1  0  0  0  0  0  0  0  0
   -3.2683    4.8677   -3.0917 H   0  0  0  1  0  0  0  0  0  0  0  0
   -2.6795    6.2419   -4.9973 H   0  0  0  1  0  0  0  0  0  0  0  0
   -0.4662    7.2244   -5.1465 H   0  0  0  1  0  0  0  0  0  0  0  0
    1.1616    6.8136   -3.4006 H   0  0  0  1  0  0  0  0  0  0  0  0
    0.5716    5.4370   -1.4918 H   0  0  0  1  0  0  0  0  0  0  0  0
  1  4  1  0  0  0  0
  2  4  1  0  0  0  0
  2  5  2  0  0  0  0
  2  6  1  0  0  0  0
  3  4  1  0  0  0  0
  3  7  1  0  0  0  0
  3  8  1  0  0  0  0
  4 19  1  0  0  0  0
  6  9  1  0  0  0  0
  6 12  1  0  0  0  0
  8 10  1  0  0  0  0
  8 11  2  0  0  0  0
  9 13  1  0  0  0  0
  9 14  1  0  0  0  0
  9 15  1  0  0  0  0
 10 16  1  0  0  0  0
 10 17  1  0  0  0  0
 10 18  1  0  0  0  0
 19 20  1  0  0  0  0
 19 27  1  0  0  0  0
 19 28  1  0  0  0  0
 20 21  1  0  0  0  0
 20 29  1  0  0  0  0
 20 30  1  0  0  0  0
 21 22  4  0  0  0  0
 21 26  4  0  0  0  0
 22 23  4  0  0  0  0
 22 31  1  0  0  0  0
 23 24  4  0  0  0  0
 23 32  1  0  0  0  0
 24 25  4  0  0  0  0
 24 33  1  0  0  0  0
 25 26  4  0  0  0  0
 25 34  1  0  0  0  0
 26 35  1  0  0  0  0
M  END
> <BCLConfClusterSize>
1

> <ConfClashScore>
0 

> <ConfOneFourInteractionScore>
-0.970159 

> <ConfScore>
0.165577 

> <ConfScorePBest>
0.00615347 

> <ConfTolerance>
0.447211 

> <RosettaParamsInstructions>
M  ROOT 3
M  POLY_N_BB 3
M  POLY_CA_BB 4
M  POLY_C_BB 2
M  POLY_O_BB 5
M  POLY_IGNORE 9 10 11 12 13 14 15 16 17 18 
M  POLY_UPPER 6
M  POLY_LOWER 8
M  POLY_CHG 0
M  POLY_PROPERTIES ALPHA_AA D_AA PROTEIN AROMATIC POLYMER 
M  END

$$$$



 35 35  0  0  0  0  0  0  0  0999 V2000
   -3.3780    4.3769    1.9657 H   0  0  0  1  0  0  0  0  0  0  0  0
   -1.4461    3.6023    2.1144 C   0  0  0  1  0  0  0  0  0  0  0  0
   -3.3262    2.6539    0.8499 N   0  0  0  1  0  0  0  0  0  0  0  0
   -2.6896    3.9078    1.2941 C   0  0  0  1  0  0  0  0  0  0  0  0
   -0.4585    4.3312    2.0703 O   0  0  0  1  0  0  0  0  0  0  0  0
   -1.5060    2.5035    2.8721 N   0  0  0  1  0  0  0  0  0  0  0  0
   -4.3045    2.6039    0.8227 H   0  0  0  1  0  0  0  0  0  0  0  0
   -2.6124    1.5790    0.4818 C   0  0  0  1  0  0  0  0  0  0  0  0
   -0.4182    2.1069    3.7538 C   0  0  0  1  0  0  0  0  0  0  0  0
   -3.3848    0.4551   -0.1970 C   0  0  0  1  0  0  0  0  0  0  0  0
   -1.3895    1.5250    0.6047 O   0  0  0  1  0  0  0  0  0  0  0  0
   -2.3104    1.9451    2.8327 H   0  0  0  1  0  0  0  0  0  0  0  0
    0.5167    2.3905    3.3174 H   0  0  0  1  0  0  0  0  0  0  0  0
   -0.4400    1.0461    3.8917 H   0  0  0  1  0  0  0  0  0  0  0  0
   -0.5316    2.5926    4.7004 H   0  0  0  1  0  0  0  0  0  0  0  0
   -4.1660    0.1165    0.4510 H   0  0  0  1  0  0  0  0  0  0  0  0
   -2.7205   -0.3565   -0.4089 H   0  0  0  1  0  0  0  0  0  0  0  0
   -3.8104    0.8160   -1.1100 H   0  0  0  1  0  0  0  0  0  0  0  0
   -2.4731    4.9047    0.1521 C   0  0  0  1  0  0  0  0  0  0  0  0
   -1.7496    4.1900   -0.9776 C   0  0  0  1  0  0  0  0  0  0  0  0
   -1.3870    5.0508   -2.1581 C   0  0  0  1  0  0  0  0  0  0  0  0
   -2.3176    5.2842   -3.1585 C   0  0  0  1  0  0  0  0  0  0  0  0
   -1.9825    6.0702   -4.2447 C   0  0  0  1  0  0  0  0  0  0  0  0
   -0.7171    6.6296   -4.3311 C   0  0  0  1  0  0  0  0  0  0  0  0
    0.2110    6.3971   -3.3337 C   0  0  0  1  0  0  0  0  0  0  0  0
   -0.1254    5.6087   -2.2443 C   0  0  0  1  0  0  0  0  0  0  0  0
   -1.8813    5.7265    0.4973 H   0  0  0  1  0  0  0  0  0  0  0  0
   -3.4181    5.2663   -0.1958 H   0  0  0  1  0  0  0  0  0  0  0  0
   -2.3814    3.4002   -1.3267 H   0  0  0  1  0  0  0  0  0  0  0  0
   -0.8462    3.7759   -0.5811 H   0  0  0  1  0  0  0  0  0  0  0  0
   -3.2683    4.8677   -3.0917 H   0  0  0  1  0  0  0  0  0  0  0  0
   -2.6795    6.2419   -4.9973 H   0  0  0  1  0  0  0  0  0  0  0  0
   -0.4662    7.2244   -5.1465 H   0  0  0  1  0  0  0  0  0  0  0  0
    1.1616    6.8136   -3.4006 H   0  0  0  1  0  0  0  0  0  0  0  0
    0.5716    5.4370   -1.4918 H   0  0  0  1  0  0  0  0  0  0  0  0
  1  4  1  0  0  0  0
  2  4  1  0  0  0  0
  2  5  2  0  0  0  0
  2  6  1  0  0  0  0
  3  4  1  0  0  0  0
  3  7  1  0  0  0  0
  3  8  1  0  0  0  0
  4 19  1  0  0  0  0
  6  9  1  0  0  0  0
  6 12  1  0  0  0  0
  8 10  1  0  0  0  0
  8 11  2  0  0  0  0
  9 13  1  0  0  0  0
  9 14  1  0  0  0  0
  9 15  1  0  0  0  0
 10 16  1  0  0  0  0
 10 17  1  0  0  0  0
 10 18  1  0  0  0  0
 19 20  1  0  0  0  0
 19 27  1  0  0  0  0
 19 28  1  0  0  0  0
 20 21  1  0  0  0  0
 20 29  1  0  0  0  0
 20 30  1  0  0  0  0
 21 22  4  0  0  0  0
 21 26  4  0  0  0  0
 22 23  4  0  0  0  0
 22 31  1  0  0  0  0
 23 24  4  0  0  0  0
 23 32  1  0  0  0  0
 24 25  4  0  0  0  0
 24 33  1  0  0  0  0
 25 26  4  0  0  0  0
 25 34  1  0  0  0  0
 26 35  1  0  0  0  0
M  END
> <BCLConfClusterSize>
1

> <ConfClashScore>
4.21469e-05 

> <ConfOneFourInteractionScore>
-0.93093 

> <ConfScore>
0.171794 

> <ConfScorePBest>
0.00612499 

> <ConfTolerance>
0.320858 

> <RosettaParamsInstructions>
M  ROOT 3
M  POLY_N_BB 3
M  POLY_CA_BB 4
M  POLY_C_BB 2
M  POLY_O_BB 5
M  POLY_IGNORE 9 10 11 12 13 14 15 16 17 18 
M  POLY_UPPER 6
M  POLY_LOWER 8
M  POLY_CHG 0
M  POLY_PROPERTIES ALPHA_AA D_AA PROTEIN AROMATIC POLYMER 
M  END

$$$$



 35 35  0  0  0  0  0  0  0  0999 V2000
   -0.1611    1.6303    0.6171 H   0  0  0  1  0  0  0  0  0  0  0  0
   -2.2333    1.3673    0.5868 C   0  0  0  1  0  0  0  0  0  0  0  0
   -1.0001    3.2306    1.6117 N   0  0  0  1  0  0  0  0  0  0  0  0
   -1.0171    2.2614    0.4996 C   0  0  0  1  0  0  0  0  0  0  0  0
   -2.5757    0.6748   -0.3680 O   0  0  0  1  0  0  0  0  0  0  0  0
   -2.9221    1.3538    1.7315 N   0  0  0  1  0  0  0  0  0  0  0  0
   -1.5127    4.0611    1.5232 H   0  0  0  1  0  0  0  0  0  0  0  0
   -0.3100    3.0154    2.7354 C   0  0  0  1  0  0  0  0  0  0  0  0
   -4.1567    0.5990    1.8870 C   0  0  0  1  0  0  0  0  0  0  0  0
   -0.2890    4.1636    3.7256 C   0  0  0  1  0  0  0  0  0  0  0  0
    0.2761    1.9617    2.9688 O   0  0  0  1  0  0  0  0  0  0  0  0
   -2.5844    1.8701    2.4929 H   0  0  0  1  0  0  0  0  0  0  0  0
   -4.0963   -0.3055    1.3185 H   0  0  0  1  0  0  0  0  0  0  0  0
   -4.9798    1.1859    1.5365 H   0  0  0  1  0  0  0  0  0  0  0  0
   -4.3016    0.3616    2.9202 H   0  0  0  1  0  0  0  0  0  0  0  0
   -1.2912    4.4785    3.9286 H   0  0  0  1  0  0  0  0  0  0  0  0
    0.2645    4.9807    3.3122 H   0  0  0  1  0  0  0  0  0  0  0  0
    0.1746    3.8418    4.6347 H   0  0  0  1  0  0  0  0  0  0  0  0
   -0.8498    2.9740   -0.8286 C   0  0  0  1  0  0  0  0  0  0  0  0
   -1.7496    4.1900   -0.9776 C   0  0  0  1  0  0  0  0  0  0  0  0
   -1.3870    5.0508   -2.1581 C   0  0  0  1  0  0  0  0  0  0  0  0
   -2.3176    5.2842   -3.1585 C   0  0  0  1  0  0  0  0  0  0  0  0
   -1.9825    6.0702   -4.2447 C   0  0  0  1  0  0  0  0  0  0  0  0
   -0.7171    6.6296   -4.3311 C   0  0  0  1  0  0  0  0  0  0  0  0
    0.2110    6.3971   -3.3337 C   0  0  0  1  0  0  0  0  0  0  0  0
   -0.1254    5.6087   -2.2443 C   0  0  0  1  0  0  0  0  0  0  0  0
   -1.0782    2.2847   -1.6145 H   0  0  0  1  0  0  0  0  0  0  0  0
    0.1679    3.2922   -0.9171 H   0  0  0  1  0  0  0  0  0  0  0  0
   -1.6733    4.7810   -0.0889 H   0  0  0  1  0  0  0  0  0  0  0  0
   -2.7585    3.8545   -1.0979 H   0  0  0  1  0  0  0  0  0  0  0  0
   -3.2683    4.8677   -3.0917 H   0  0  0  1  0  0  0  0  0  0  0  0
   -2.6795    6.2419   -4.9973 H   0  0  0  1  0  0  0  0  0  0  0  0
   -0.4662    7.2244   -5.1465 H   0  0  0  1  0  0  0  0  0  0  0  0
    1.1616    6.8136   -3.4006 H   0  0  0  1  0  0  0  0  0  0  0  0
    0.5716    5.4370   -1.4918 H   0  0  0  1  0  0  0  0  0  0  0  0
  1  4  1  0  0  0  0
  2  4  1  0  0  0  0
  2  5  2  0  0  0  0
  2  6  1  0  0  0  0
  3  4  1  0  0  0  0
  3  7  1  0  0  0  0
  3  8  1  0  0  0  0
  4 19  1  0  0  0  0
  6  9  1  0  0  0  0
  6 12  1  0  0  0  0
  8 10  1  0  0  0  0
  8 11  2  0  0  0  0
  9 13  1  0  0  0  0
  9 14  1  0  0  0  0
  9 15  1  0  0  0  0
 10 16  1  0  0  0  0
 10 17  1  0  0  0  0
 10 18  1  0  0  0  0
 19 20  1  0  0  0  0
 19 27  1  0  0  0  0
 19 28  1  0  0  0  0
 20 21  1  0  0  0  0
 20 29  1  0  0  0  0
 20 30  1  0  0  0  0
 21 22  4  0  0  0  0
 21 26  4  0  0  0  0
 22 23  4  0  0  0  0
 22 31  1  0  0  0  0
 23 24  4  0  0  0  0
 23 32  1  0  0  0  0
 24 25  4  0  0  0  0
 24 33  1  0  0  0  0
 25 26  4  0  0  0  0
 25 34  1  0  0  0  0
 26 35  1  0  0  0  0
M  END
> <BCLConfClusterSize>
1

> <ConfClashScore>
0 

> <ConfOneFourInteractionScore>
-0.933362 

> <ConfScore>
0.172884 

> <ConfScorePBest>
0.00609651 

> <ConfTolerance>
0.539117 

> <RosettaParamsInstructions>
M  ROOT 3
M  POLY_N_BB 3
M  POLY_CA_BB 4
M  POLY_C_BB 2
M  POLY_O_BB 5
M  POLY_IGNORE 9 10 11 12 13 14 15 16 17 18 
M  POLY_UPPER 6
M  POLY_LOWER 8
M  POLY_CHG 0
M  POLY_PROPERTIES ALPHA_AA D_AA PROTEIN AROMATIC POLYMER 
M  END

$$$$



 35 35  0  0  0  0  0  0  0  0999 V2000
   -3.3587    3.1729    0.9226 H   0  0  0  1  0  0  0  0  0  0  0  0
   -3.9099    4.7196    2.2203 C   0  0  0  1  0  0  0  0  0  0  0  0
   -1.6477    3.7194    1.9266 N   0  0  0  1  0  0  0  0  0  0  0  0
   -2.9122    4.0792    1.2750 C   0  0  0  1  0  0  0  0  0  0  0  0
   -5.1216    4.6264    2.0287 O   0  0  0  1  0  0  0  0  0  0  0  0
   -3.3835    5.3831    3.2619 N   0  0  0  1  0  0  0  0  0  0  0  0
   -1.4382    4.1920    2.7591 H   0  0  0  1  0  0  0  0  0  0  0  0
   -0.7509    2.8220    1.5145 C   0  0  0  1  0  0  0  0  0  0  0  0
   -4.2525    5.9422    4.2867 C   0  0  0  1  0  0  0  0  0  0  0  0
    0.4542    2.5778    2.4316 C   0  0  0  1  0  0  0  0  0  0  0  0
   -0.8912    2.1530    0.5040 O   0  0  0  1  0  0  0  0  0  0  0  0
   -2.4121    5.4912    3.3323 H   0  0  0  1  0  0  0  0  0  0  0  0
   -5.1215    5.3270    4.3927 H   0  0  0  1  0  0  0  0  0  0  0  0
   -4.5480    6.9306    4.0030 H   0  0  0  1  0  0  0  0  0  0  0  0
   -3.7268    5.9800    5.2179 H   0  0  0  1  0  0  0  0  0  0  0  0
    1.1257    3.4084    2.3679 H   0  0  0  1  0  0  0  0  0  0  0  0
    0.9603    1.6862    2.1252 H   0  0  0  1  0  0  0  0  0  0  0  0
    0.1174    2.4683    3.4412 H   0  0  0  1  0  0  0  0  0  0  0  0
   -2.6084    4.9145    0.0461 C   0  0  0  1  0  0  0  0  0  0  0  0
   -1.7496    4.1900   -0.9776 C   0  0  0  1  0  0  0  0  0  0  0  0
   -1.3870    5.0508   -2.1581 C   0  0  0  1  0  0  0  0  0  0  0  0
   -2.3176    5.2842   -3.1585 C   0  0  0  1  0  0  0  0  0  0  0  0
   -1.9825    6.0702   -4.2447 C   0  0  0  1  0  0  0  0  0  0  0  0
   -0.7171    6.6296   -4.3311 C   0  0  0  1  0  0  0  0  0  0  0  0
    0.2110    6.3971   -3.3337 C   0  0  0  1  0  0  0  0  0  0  0  0
   -0.1254    5.6087   -2.2443 C   0  0  0  1  0  0  0  0  0  0  0  0
   -2.0928    5.7993    0.3562 H   0  0  0  1  0  0  0  0  0  0  0  0
   -3.5340    5.1845   -0.4178 H   0  0  0  1  0  0  0  0  0  0  0  0
   -2.2889    3.3363   -1.3315 H   0  0  0  1  0  0  0  0  0  0  0  0
   -0.8474    3.8697   -0.4997 H   0  0  0  1  0  0  0  0  0  0  0  0
   -3.2683    4.8677   -3.0917 H   0  0  0  1  0  0  0  0  0  0  0  0
   -2.6795    6.2419   -4.9973 H   0  0  0  1  0  0  0  0  0  0  0  0
   -0.4662    7.2244   -5.1465 H   0  0  0  1  0  0  0  0  0  0  0  0
    1.1616    6.8136   -3.4006 H   0  0  0  1  0  0  0  0  0  0  0  0
    0.5716    5.4370   -1.4918 H   0  0  0  1  0  0  0  0  0  0  0  0
  1  4  1  0  0  0  0
  2  4  1  0  0  0  0
  2  5  2  0  0  0  0
  2  6  1  0  0  0  0
  3  4  1  0  0  0  0
  3  7  1  0  0  0  0
  3  8  1  0  0  0  0
  4 19  1  0  0  0  0
  6  9  1  0  0  0  0
  6 12  1  0  0  0  0
  8 10  1  0  0  0  0
  8 11  2  0  0  0  0
  9 13  1  0  0  0  0
  9 14  1  0  0  0  0
  9 15  1  0  0  0  0
 10 16  1  0  0  0  0
 10 17  1  0  0  0  0
 10 18  1  0  0  0  0
 19 20  1  0  0  0  0
 19 27  1  0  0  0  0
 19 28  1  0  0  0  0
 20 21  1  0  0  0  0
 20 29  1  0  0  0  0
 20 30  1  0  0  0  0
 21 22  4  0  0  0  0
 21 26  4  0  0  0  0
 22 23  4  0  0  0  0
 22 31  1  0  0  0  0
 23 24  4  0  0  0  0
 23 32  1  0  0  0  0
 24 25  4  0  0  0  0
 24 33  1  0  0  0  0
 25 26  4  0  0  0  0
 25 34  1  0  0  0  0
 26 35  1  0  0  0  0
M  END
> <BCLConfClusterSize>
1

> <ConfClashScore>
0.000313246 

> <ConfOneFourInteractionScore>
-0.974321 

> <ConfScore>
0.175097 

> <ConfScorePBest>
0.00606803 

> <ConfTolerance>
0.37358 

> <RosettaParamsInstructions>
M  ROOT 3
M  POLY_N_BB 3
M  POLY_CA_BB 4
M  POLY_C_BB 2
M  POLY_O_BB 5
M  POLY_IGNORE 9 10 11 12 13 14 15 16 17 18 
M  POLY_UPPER 6
M  POLY_LOWER 8
M  POLY_CHG 0
M  POLY_PROPERTIES ALPHA_AA D_AA PROTEIN AROMATIC POLYMER 
M  END

$$$$



 35 35  0  0  0  0  0  0  0  0999 V2000
   -1.9246    4.3277    1.8590 H   0  0  0  1  0  0  0  0  0  0  0  0
   -3.1924    2.8386    1.0782 C   0  0  0  1  0  0  0  0  0  0  0  0
   -3.8459    4.9885    2.1783 N   0  0  0  1  0  0  0  0  0  0  0  0
   -2.8627    4.3057    1.3448 C   0  0  0  1  0  0  0  0  0  0  0  0
   -3.5613    2.4677   -0.0330 O   0  0  0  1  0  0  0  0  0  0  0  0
   -3.0668    1.9690    2.0932 N   0  0  0  1  0  0  0  0  0  0  0  0
   -4.1781    5.8567    1.8680 H   0  0  0  1  0  0  0  0  0  0  0  0
   -4.3385    4.5089    3.3592 C   0  0  0  1  0  0  0  0  0  0  0  0
   -3.5545    0.6004    2.0092 C   0  0  0  1  0  0  0  0  0  0  0  0
   -5.3840    5.4038    3.9854 C   0  0  0  1  0  0  0  0  0  0  0  0
   -3.9550    3.4584    3.8396 O   0  0  0  1  0  0  0  0  0  0  0  0
   -2.6316    2.2661    2.9194 H   0  0  0  1  0  0  0  0  0  0  0  0
   -4.1024    0.3614    2.8966 H   0  0  0  1  0  0  0  0  0  0  0  0
   -2.7249   -0.0682    1.9115 H   0  0  0  1  0  0  0  0  0  0  0  0
   -4.1949    0.5019    1.1576 H   0  0  0  1  0  0  0  0  0  0  0  0
   -5.2878    5.3743    5.0506 H   0  0  0  1  0  0  0  0  0  0  0  0
   -6.3588    5.0626    3.7059 H   0  0  0  1  0  0  0  0  0  0  0  0
   -5.2452    6.4079    3.6427 H   0  0  0  1  0  0  0  0  0  0  0  0
   -2.6558    5.0077    0.0165 C   0  0  0  1  0  0  0  0  0  0  0  0
   -1.7632    4.2350   -0.9408 C   0  0  0  1  0  0  0  0  0  0  0  0
   -1.3810    5.0326   -2.1703 C   0  0  0  1  0  0  0  0  0  0  0  0
   -2.3135    5.2725   -3.1674 C   0  0  0  1  0  0  0  0  0  0  0  0
   -1.9824    6.0707   -4.2461 C   0  0  0  1  0  0  0  0  0  0  0  0
   -0.7194    6.6358   -4.3280 C   0  0  0  1  0  0  0  0  0  0  0  0
    0.2107    6.3968   -3.3339 C   0  0  0  1  0  0  0  0  0  0  0  0
   -0.1216    5.5962   -2.2521 C   0  0  0  1  0  0  0  0  0  0  0  0
   -2.2079    5.9614    0.2030 H   0  0  0  1  0  0  0  0  0  0  0  0
   -3.6105    5.1459   -0.4465 H   0  0  0  1  0  0  0  0  0  0  0  0
   -2.2826    3.3537   -1.2545 H   0  0  0  1  0  0  0  0  0  0  0  0
   -0.8687    3.9572   -0.4234 H   0  0  0  1  0  0  0  0  0  0  0  0
   -3.2625    4.8517   -3.1039 H   0  0  0  1  0  0  0  0  0  0  0  0
   -2.6809    6.2473   -4.9961 H   0  0  0  1  0  0  0  0  0  0  0  0
   -0.4715    7.2397   -5.1376 H   0  0  0  1  0  0  0  0  0  0  0  0
    1.1596    6.8175   -3.3975 H   0  0  0  1  0  0  0  0  0  0  0  0
    0.5768    5.4195   -1.5021 H   0  0  0  1  0  0  0  0  0  0  0  0
  1  4  1  0  0  0  0
  2  4  1  0  0  0  0
  2  5  2  0  0  0  0
  2  6  1  0  0  0  0
  3  4  1  0  0  0  0
  3  7  1  0  0  0  0
  3  8  1  0  0  0  0
  4 19  1  0  0  0  0
  6  9  1  0  0  0  0
  6 12  1  0  0  0  0
  8 10  1  0  0  0  0
  8 11  2  0  0  0  0
  9 13  1  0  0  0  0
  9 14  1  0  0  0  0
  9 15  1  0  0  0  0
 10 16  1  0  0  0  0
 10 17  1  0  0  0  0
 10 18  1  0  0  0  0
 19 20  1  0  0  0  0
 19 27  1  0  0  0  0
 19 28  1  0  0  0  0
 20 21  1  0  0  0  0
 20 29  1  0  0  0  0
 20 30  1  0  0  0  0
 21 22  4  0  0  0  0
 21 26  4  0  0  0  0
 22 23  4  0  0  0  0
 22 31  1  0  0  0  0
 23 24  4  0  0  0  0
 23 32  1  0  0  0  0
 24 25  4  0  0  0  0
 24 33  1  0  0  0  0
 25 26  4  0  0  0  0
 25 34  1  0  0  0  0
 26 35  1  0  0  0  0
M  END
> <BCLConfClusterSize>
1

> <ConfClashScore>
0.000631801 

> <ConfOneFourInteractionScore>
-0.98595 

> <ConfScore>
0.175136 

> <ConfScorePBest>
0.00603955 

> <ConfTolerance>
0.43546 

> <RosettaParamsInstructions>
M  ROOT 3
M  POLY_N_BB 3
M  POLY_CA_BB 4
M  POLY_C_BB 2
M  POLY_O_BB 5
M  POLY_IGNORE 9 10 11 12 13 14 15 16 17 18 
M  POLY_UPPER 6
M  POLY_LOWER 8
M  POLY_CHG 0
M  POLY_PROPERTIES ALPHA_AA D_AA PROTEIN AROMATIC POLYMER 
M  END

$$$$



 35 35  0  0  0  0  0  0  0  0999 V2000
   -1.4466    2.3191    0.9255 H   0  0  0  1  0  0  0  0  0  0  0  0
   -1.8911    3.9707    2.1322 C   0  0  0  1  0  0  0  0  0  0  0  0
    0.2857    2.7749    1.9381 N   0  0  0  1  0  0  0  0  0  0  0  0
   -0.9329    3.2028    1.2418 C   0  0  0  1  0  0  0  0  0  0  0  0
   -2.5113    3.4109    3.0352 O   0  0  0  1  0  0  0  0  0  0  0  0
   -2.0096    5.2751    1.8683 N   0  0  0  1  0  0  0  0  0  0  0  0
    1.1566    3.0213    1.5622 H   0  0  0  1  0  0  0  0  0  0  0  0
    0.2481    2.0338    3.1095 C   0  0  0  1  0  0  0  0  0  0  0  0
   -2.8757    6.1497    2.6447 C   0  0  0  1  0  0  0  0  0  0  0  0
    1.5407    1.4970    3.6813 C   0  0  0  1  0  0  0  0  0  0  0  0
   -0.8300    1.8394    3.6409 O   0  0  0  1  0  0  0  0  0  0  0  0
   -1.4954    5.6562    1.1262 H   0  0  0  1  0  0  0  0  0  0  0  0
   -3.3445    6.8578    1.9936 H   0  0  0  1  0  0  0  0  0  0  0  0
   -2.2936    6.6695    3.3767 H   0  0  0  1  0  0  0  0  0  0  0  0
   -3.6260    5.5649    3.1346 H   0  0  0  1  0  0  0  0  0  0  0  0
    1.3534    0.5668    4.1758 H   0  0  0  1  0  0  0  0  0  0  0  0
    1.9391    2.1998    4.3829 H   0  0  0  1  0  0  0  0  0  0  0  0
    2.2443    1.3445    2.8898 H   0  0  0  1  0  0  0  0  0  0  0  0
   -0.5393    3.9459   -0.0203 C   0  0  0  1  0  0  0  0  0  0  0  0
   -1.7068    4.1969   -0.9607 C   0  0  0  1  0  0  0  0  0  0  0  0
   -1.3961    5.0494   -2.1618 C   0  0  0  1  0  0  0  0  0  0  0  0
   -2.3235    5.2856   -3.1647 C   0  0  0  1  0  0  0  0  0  0  0  0
   -1.9838    6.0723   -4.2490 C   0  0  0  1  0  0  0  0  0  0  0  0
   -0.7172    6.6296   -4.3310 C   0  0  0  1  0  0  0  0  0  0  0  0
    0.2076    6.3943   -3.3312 C   0  0  0  1  0  0  0  0  0  0  0  0
   -0.1333    5.6052   -2.2437 C   0  0  0  1  0  0  0  0  0  0  0  0
    0.1960    3.3673   -0.5393 H   0  0  0  1  0  0  0  0  0  0  0  0
   -0.1194    4.8897    0.2587 H   0  0  0  1  0  0  0  0  0  0  0  0
   -2.4812    4.6814   -0.4035 H   0  0  0  1  0  0  0  0  0  0  0  0
   -2.0583    3.2489   -1.3108 H   0  0  0  1  0  0  0  0  0  0  0  0
   -3.2750    4.8707   -3.1011 H   0  0  0  1  0  0  0  0  0  0  0  0
   -2.6783    6.2461   -5.0033 H   0  0  0  1  0  0  0  0  0  0  0  0
   -0.4628    7.2249   -5.1450 H   0  0  0  1  0  0  0  0  0  0  0  0
    1.1592    6.8091   -3.3948 H   0  0  0  1  0  0  0  0  0  0  0  0
    0.5612    5.4313   -1.4894 H   0  0  0  1  0  0  0  0  0  0  0  0
  1  4  1  0  0  0  0
  2  4  1  0  0  0  0
  2  5  2  0  0  0  0
  2  6  1  0  0  0  0
  3  4  1  0  0  0  0
  3  7  1  0  0  0  0
  3  8  1  0  0  0  0
  4 19  1  0  0  0  0
  6  9  1  0  0  0  0
  6 12  1  0  0  0  0
  8 10  1  0  0  0  0
  8 11  2  0  0  0  0
  9 13  1  0  0  0  0
  9 14  1  0  0  0  0
  9 15  1  0  0  0  0
 10 16  1  0  0  0  0
 10 17  1  0  0  0  0
 10 18  1  0  0  0  0
 19 20  1  0  0  0  0
 19 27  1  0  0  0  0
 19 28  1  0  0  0  0
 20 21  1  0  0  0  0
 20 29  1  0  0  0  0
 20 30  1  0  0  0  0
 21 22  4  0  0  0  0
 21 26  4  0  0  0  0
 22 23  4  0  0  0  0
 22 31  1  0  0  0  0
 23 24  4  0  0  0  0
 23 32  1  0  0  0  0
 24 25  4  0  0  0  0
 24 33  1  0  0  0  0
 25 26  4  0  0  0  0
 25 34  1  0  0  0  0
 26 35  1  0  0  0  0
M  END
> <BCLConfClusterSize>
1

> <ConfClashScore>
0 

> <ConfOneFourInteractionScore>
-0.957921 

> <ConfScore>
0.176498 

> <ConfScorePBest>
0.00601107 

> <ConfTolerance>
0.552544 

> <RosettaParamsInstructions>
M  ROOT 3
M  POLY_N_BB 3
M  POLY_CA_BB 4
M  POLY_C_BB 2
M  POLY_O_BB 5
M  POLY_IGNORE 9 10 11 12 13 14 15 16 17 18 
M  POLY_UPPER 6
M  POLY_LOWER 8
M  POLY_CHG 0
M  POLY_PROPERTIES ALPHA_AA D_AA PROTEIN AROMATIC POLYMER 
M  END

$$$$



 35 35  0  0  0  0  0  0  0  0999 V2000
   -1.0652    2.4674    0.9394 H   0  0  0  1  0  0  0  0  0  0  0  0
   -0.8061    0.5629    0.1136 C   0  0  0  1  0  0  0  0  0  0  0  0
   -2.9327    1.7656    0.4167 N   0  0  0  1  0  0  0  0  0  0  0  0
   -1.4933    1.9144    0.1296 C   0  0  0  1  0  0  0  0  0  0  0  0
    0.3193    0.4146    0.5826 O   0  0  0  1  0  0  0  0  0  0  0  0
   -1.5018   -0.4356   -0.4377 N   0  0  0  1  0  0  0  0  0  0  0  0
   -3.5608    1.7051   -0.3331 H   0  0  0  1  0  0  0  0  0  0  0  0
   -3.4137    1.7099    1.6740 C   0  0  0  1  0  0  0  0  0  0  0  0
   -0.9154   -1.7424   -0.6951 C   0  0  0  1  0  0  0  0  0  0  0  0
   -4.9253    1.5346    1.7439 C   0  0  0  1  0  0  0  0  0  0  0  0
   -2.7332    1.7889    2.6805 O   0  0  0  1  0  0  0  0  0  0  0  0
   -2.4398   -0.2827   -0.6771 H   0  0  0  1  0  0  0  0  0  0  0  0
   -1.1158   -2.3927    0.1306 H   0  0  0  1  0  0  0  0  0  0  0  0
    0.1424   -1.6400   -0.8196 H   0  0  0  1  0  0  0  0  0  0  0  0
   -1.3415   -2.1552   -1.5855 H   0  0  0  1  0  0  0  0  0  0  0  0
   -5.3349    1.5682    0.7560 H   0  0  0  1  0  0  0  0  0  0  0  0
   -5.3486    2.3219    2.3321 H   0  0  0  1  0  0  0  0  0  0  0  0
   -5.1543    0.5907    2.1928 H   0  0  0  1  0  0  0  0  0  0  0  0
   -1.2838    2.7475   -1.1256 C   0  0  0  1  0  0  0  0  0  0  0  0
   -1.7496    4.1900   -0.9776 C   0  0  0  1  0  0  0  0  0  0  0  0
   -1.3870    5.0508   -2.1581 C   0  0  0  1  0  0  0  0  0  0  0  0
   -2.3176    5.2842   -3.1585 C   0  0  0  1  0  0  0  0  0  0  0  0
   -1.9825    6.0702   -4.2447 C   0  0  0  1  0  0  0  0  0  0  0  0
   -0.7171    6.6296   -4.3311 C   0  0  0  1  0  0  0  0  0  0  0  0
    0.2110    6.3971   -3.3337 C   0  0  0  1  0  0  0  0  0  0  0  0
   -0.1254    5.6087   -2.2443 C   0  0  0  1  0  0  0  0  0  0  0  0
   -1.8291    2.2955   -1.9277 H   0  0  0  1  0  0  0  0  0  0  0  0
   -0.2399    2.7505   -1.3605 H   0  0  0  1  0  0  0  0  0  0  0  0
   -1.2976    4.6056   -0.1014 H   0  0  0  1  0  0  0  0  0  0  0  0
   -2.8139    4.1946   -0.8669 H   0  0  0  1  0  0  0  0  0  0  0  0
   -3.2683    4.8677   -3.0917 H   0  0  0  1  0  0  0  0  0  0  0  0
   -2.6795    6.2419   -4.9973 H   0  0  0  1  0  0  0  0  0  0  0  0
   -0.4662    7.2244   -5.1465 H   0  0  0  1  0  0  0  0  0  0  0  0
    1.1616    6.8136   -3.4006 H   0  0  0  1  0  0  0  0  0  0  0  0
    0.5716    5.4370   -1.4918 H   0  0  0  1  0  0  0  0  0  0  0  0
  1  4  1  0  0  0  0
  2  4  1  0  0  0  0
  2  5  2  0  0  0  0
  2  6  1  0  0  0  0
  3  4  1  0  0  0  0
  3  7  1  0  0  0  0
  3  8  1  0  0  0  0
  4 19  1  0  0  0  0
  6  9  1  0  0  0  0
  6 12  1  0  0  0  0
  8 10  1  0  0  0  0
  8 11  2  0  0  0  0
  9 13  1  0  0  0  0
  9 14  1  0  0  0  0
  9 15  1  0  0  0  0
 10 16  1  0  0  0  0
 10 17  1  0  0  0  0
 10 18  1  0  0  0  0
 19 20  1  0  0  0  0
 19 27  1  0  0  0  0
 19 28  1  0  0  0  0
 20 21  1  0  0  0  0
 20 29  1  0  0  0  0
 20 30  1  0  0  0  0
 21 22  4  0  0  0  0
 21 26  4  0  0  0  0
 22 23  4  0  0  0  0
 22 31  1  0  0  0  0
 23 24  4  0  0  0  0
 23 32  1  0  0  0  0
 24 25  4  0  0  0  0
 24 33  1  0  0  0  0
 25 26  4  0  0  0  0
 25 34  1  0  0  0  0
 26 35  1  0  0  0  0
M  END
> <BCLConfClusterSize>
1

> <ConfClashScore>
0 

> <ConfOneFourInteractionScore>
-0.970454 

> <ConfScore>
0.177242 

> <ConfScorePBest>
0.00598259 

> <ConfTolerance>
0.460688 

> <RosettaParamsInstructions>
M  ROOT 3
M  POLY_N_BB 3
M  POLY_CA_BB 4
M  POLY_C_BB 2
M  POLY_O_BB 5
M  POLY_IGNORE 9 10 11 12 13 14 15 16 17 18 
M  POLY_UPPER 6
M  POLY_LOWER 8
M  POLY_CHG 0
M  POLY_PROPERTIES ALPHA_AA D_AA PROTEIN AROMATIC POLYMER 
M  END

$$$$



 35 35  0  0  0  0  0  0  0  0999 V2000
   -3.1455    3.5477    1.3149 H   0  0  0  1  0  0  0  0  0  0  0  0
   -2.5136    4.9028    2.7869 C   0  0  0  1  0  0  0  0  0  0  0  0
   -1.1549    3.1977    1.7243 N   0  0  0  1  0  0  0  0  0  0  0  0
   -2.2662    4.1237    1.5150 C   0  0  0  1  0  0  0  0  0  0  0  0
   -2.7219    6.1024    2.7862 O   0  0  0  1  0  0  0  0  0  0  0  0
   -2.5046    4.2566    3.9563 N   0  0  0  1  0  0  0  0  0  0  0  0
   -0.2505    3.4799    1.4738 H   0  0  0  1  0  0  0  0  0  0  0  0
   -1.3309    1.9679    2.2505 C   0  0  0  1  0  0  0  0  0  0  0  0
   -2.6919    4.9436    5.2255 C   0  0  0  1  0  0  0  0  0  0  0  0
   -0.1018    1.1375    2.5433 C   0  0  0  1  0  0  0  0  0  0  0  0
   -2.4629    1.5304    2.4871 O   0  0  0  1  0  0  0  0  0  0  0  0
   -2.3670    3.2863    3.9595 H   0  0  0  1  0  0  0  0  0  0  0  0
   -3.2164    5.8615    5.0608 H   0  0  0  1  0  0  0  0  0  0  0  0
   -1.7375    5.1518    5.6623 H   0  0  0  1  0  0  0  0  0  0  0  0
   -3.2594    4.3224    5.8866 H   0  0  0  1  0  0  0  0  0  0  0  0
   -0.2762    0.1243    2.2467 H   0  0  0  1  0  0  0  0  0  0  0  0
    0.1092    1.1706    3.5918 H   0  0  0  1  0  0  0  0  0  0  0  0
    0.7315    1.5299    1.9987 H   0  0  0  1  0  0  0  0  0  0  0  0
   -2.0049    4.9936    0.2908 C   0  0  0  1  0  0  0  0  0  0  0  0
   -1.7496    4.1900   -0.9776 C   0  0  0  1  0  0  0  0  0  0  0  0
   -1.3870    5.0508   -2.1581 C   0  0  0  1  0  0  0  0  0  0  0  0
   -2.3176    5.2842   -3.1585 C   0  0  0  1  0  0  0  0  0  0  0  0
   -1.9825    6.0702   -4.2447 C   0  0  0  1  0  0  0  0  0  0  0  0
   -0.7171    6.6296   -4.3311 C   0  0  0  1  0  0  0  0  0  0  0  0
    0.2110    6.3971   -3.3337 C   0  0  0  1  0  0  0  0  0  0  0  0
   -0.1254    5.6087   -2.2443 C   0  0  0  1  0  0  0  0  0  0  0  0
   -1.1472    5.6032    0.4846 H   0  0  0  1  0  0  0  0  0  0  0  0
   -2.8585    5.6186    0.1303 H   0  0  0  1  0  0  0  0  0  0  0  0
   -2.6358    3.6401   -1.2166 H   0  0  0  1  0  0  0  0  0  0  0  0
   -0.9454    3.5087   -0.7930 H   0  0  0  1  0  0  0  0  0  0  0  0
   -3.2683    4.8677   -3.0917 H   0  0  0  1  0  0  0  0  0  0  0  0
   -2.6795    6.2419   -4.9973 H   0  0  0  1  0  0  0  0  0  0  0  0
   -0.4662    7.2244   -5.1465 H   0  0  0  1  0  0  0  0  0  0  0  0
    1.1616    6.8136   -3.4006 H   0  0  0  1  0  0  0  0  0  0  0  0
    0.5716    5.4370   -1.4918 H   0  0  0  1  0  0  0  0  0  0  0  0
  1  4  1  0  0  0  0
  2  4  1  0  0  0  0
  2  5  2  0  0  0  0
  2  6  1  0  0  0  0
  3  4  1  0  0  0  0
  3  7  1  0  0  0  0
  3  8  1  0  0  0  0
  4 19  1  0  0  0  0
  6  9  1  0  0  0  0
  6 12  1  0  0  0  0
  8 10  1  0  0  0  0
  8 11  2  0  0  0  0
  9 13  1  0  0  0  0
  9 14  1  0  0  0  0
  9 15  1  0  0  0  0
 10 16  1  0  0  0  0
 10 17  1  0  0  0  0
 10 18  1  0  0  0  0
 19 20  1  0  0  0  0
 19 27  1  0  0  0  0
 19 28  1  0  0  0  0
 20 21  1  0  0  0  0
 20 29  1  0  0  0  0
 20 30  1  0  0  0  0
 21 22  4  0  0  0  0
 21 26  4  0  0  0  0
 22 23  4  0  0  0  0
 22 31  1  0  0  0  0
 23 24  4  0  0  0  0
 23 32  1  0  0  0  0
 24 25  4  0  0  0  0
 24 33  1  0  0  0  0
 25 26  4  0  0  0  0
 25 34  1  0  0  0  0
 26 35  1  0  0  0  0
M  END
> <BCLConfClusterSize>
1

> <ConfClashScore>
0 

> <ConfOneFourInteractionScore>
-0.98595 

> <ConfScore>
0.178187 

> <ConfScorePBest>
0.00595411 

> <ConfTolerance>
0.325701 

> <RosettaParamsInstructions>
M  ROOT 3
M  POLY_N_BB 3
M  POLY_CA_BB 4
M  POLY_C_BB 2
M  POLY_O_BB 5
M  POLY_IGNORE 9 10 11 12 13 14 15 16 17 18 
M  POLY_UPPER 6
M  POLY_LOWER 8
M  POLY_CHG 0
M  POLY_PROPERTIES ALPHA_AA D_AA PROTEIN AROMATIC POLYMER 
M  END

$$$$



 35 35  0  0  0  0  0  0  0  0999 V2000
   -3.0514    2.2419    0.2926 H   0  0  0  1  0  0  0  0  0  0  0  0
   -1.2446    2.3613    1.3822 C   0  0  0  1  0  0  0  0  0  0  0  0
   -1.9618    0.5146   -0.0371 N   0  0  0  1  0  0  0  0  0  0  0  0
   -2.0300    1.9605    0.1427 C   0  0  0  1  0  0  0  0  0  0  0  0
   -0.7927    3.4971    1.5016 O   0  0  0  1  0  0  0  0  0  0  0  0
   -1.0617    1.4411    2.3357 N   0  0  0  1  0  0  0  0  0  0  0  0
   -2.7925    0.0465   -0.2635 H   0  0  0  1  0  0  0  0  0  0  0  0
   -0.8508   -0.2206    0.0837 C   0  0  0  1  0  0  0  0  0  0  0  0
   -0.4035    1.6195    3.6213 C   0  0  0  1  0  0  0  0  0  0  0  0
   -0.9935   -1.6909   -0.2581 C   0  0  0  1  0  0  0  0  0  0  0  0
    0.2249    0.2479    0.4468 O   0  0  0  1  0  0  0  0  0  0  0  0
   -1.4107    0.5449    2.1471 H   0  0  0  1  0  0  0  0  0  0  0  0
   -0.8077    0.9259    4.3288 H   0  0  0  1  0  0  0  0  0  0  0  0
   -0.5655    2.6184    3.9690 H   0  0  0  1  0  0  0  0  0  0  0  0
    0.6464    1.4454    3.5114 H   0  0  0  1  0  0  0  0  0  0  0  0
   -1.3925   -1.7909   -1.2459 H   0  0  0  1  0  0  0  0  0  0  0  0
   -1.6546   -2.1571    0.4422 H   0  0  0  1  0  0  0  0  0  0  0  0
   -0.0340   -2.1623   -0.2118 H   0  0  0  1  0  0  0  0  0  0  0  0
   -1.5224    2.6889   -1.0922 C   0  0  0  1  0  0  0  0  0  0  0  0
   -1.8303    4.1748   -1.0060 C   0  0  0  1  0  0  0  0  0  0  0  0
   -1.3698    5.0537   -2.1514 C   0  0  0  1  0  0  0  0  0  0  0  0
   -2.3066    5.2818   -3.1473 C   0  0  0  1  0  0  0  0  0  0  0  0
   -1.9799    6.0666   -4.2371 C   0  0  0  1  0  0  0  0  0  0  0  0
   -0.7169    6.6300   -4.3315 C   0  0  0  1  0  0  0  0  0  0  0  0
    0.2174    6.4026   -3.3386 C   0  0  0  1  0  0  0  0  0  0  0  0
   -0.1105    5.6155   -2.2457 C   0  0  0  1  0  0  0  0  0  0  0  0
   -1.9980    2.2818   -1.9600 H   0  0  0  1  0  0  0  0  0  0  0  0
   -0.4637    2.5538   -1.1688 H   0  0  0  1  0  0  0  0  0  0  0  0
   -1.3713    4.5456   -0.1134 H   0  0  0  1  0  0  0  0  0  0  0  0
   -2.8927    4.2778   -0.9305 H   0  0  0  1  0  0  0  0  0  0  0  0
   -3.2555    4.8624   -3.0745 H   0  0  0  1  0  0  0  0  0  0  0  0
   -2.6815    6.2344   -4.9862 H   0  0  0  1  0  0  0  0  0  0  0  0
   -0.4723    7.2238   -5.1495 H   0  0  0  1  0  0  0  0  0  0  0  0
    1.1662    6.8221   -3.4115 H   0  0  0  1  0  0  0  0  0  0  0  0
    0.5911    5.4477   -1.4966 H   0  0  0  1  0  0  0  0  0  0  0  0
  1  4  1  0  0  0  0
  2  4  1  0  0  0  0
  2  5  2  0  0  0  0
  2  6  1  0  0  0  0
  3  4  1  0  0  0  0
  3  7  1  0  0  0  0
  3  8  1  0  0  0  0
  4 19  1  0  0  0  0
  6  9  1  0  0  0  0
  6 12  1  0  0  0  0
  8 10  1  0  0  0  0
  8 11  2  0  0  0  0
  9 13  1  0  0  0  0
  9 14  1  0  0  0  0
  9 15  1  0  0  0  0
 10 16  1  0  0  0  0
 10 17  1  0  0  0  0
 10 18  1  0  0  0  0
 19 20  1  0  0  0  0
 19 27  1  0  0  0  0
 19 28  1  0  0  0  0
 20 21  1  0  0  0  0
 20 29  1  0  0  0  0
 20 30  1  0  0  0  0
 21 22  4  0  0  0  0
 21 26  4  0  0  0  0
 22 23  4  0  0  0  0
 22 31  1  0  0  0  0
 23 24  4  0  0  0  0
 23 32  1  0  0  0  0
 24 25  4  0  0  0  0
 24 33  1  0  0  0  0
 25 26  4  0  0  0  0
 25 34  1  0  0  0  0
 26 35  1  0  0  0  0
M  END
> <BCLConfClusterSize>
1

> <ConfClashScore>
0 

> <ConfOneFourInteractionScore>
-0.968021 

> <ConfScore>
0.180756 

> <ConfScorePBest>
0.00592562 

> <ConfTolerance>
0.309397 

> <RosettaParamsInstructions>
M  ROOT 3
M  POLY_N_BB 3
M  POLY_CA_BB 4
M  POLY_C_BB 2
M  POLY_O_BB 5
M  POLY_IGNORE 9 10 11 12 13 14 15 16 17 18 
M  POLY_UPPER 6
M  POLY_LOWER 8
M  POLY_CHG 0
M  POLY_PROPERTIES ALPHA_AA D_AA PROTEIN AROMATIC POLYMER 
M  END

$$$$



 35 35  0  0  0  0  0  0  0  0999 V2000
   -1.0375    2.1605    0.7261 H   0  0  0  1  0  0  0  0  0  0  0  0
   -1.6967    0.4084   -0.2309 C   0  0  0  1  0  0  0  0  0  0  0  0
   -3.0910    2.2568    0.6197 N   0  0  0  1  0  0  0  0  0  0  0  0
   -1.8081    1.8989    0.0314 C   0  0  0  1  0  0  0  0  0  0  0  0
   -1.7589   -0.0623   -1.3520 O   0  0  0  1  0  0  0  0  0  0  0  0
   -1.5233   -0.4250    0.8062 N   0  0  0  1  0  0  0  0  0  0  0  0
   -3.7050    2.8020    0.0846 H   0  0  0  1  0  0  0  0  0  0  0  0
   -3.4863    1.8876    1.8476 C   0  0  0  1  0  0  0  0  0  0  0  0
   -1.4338   -1.8603    0.5832 C   0  0  0  1  0  0  0  0  0  0  0  0
   -4.8450    2.3476    2.3252 C   0  0  0  1  0  0  0  0  0  0  0  0
   -2.7661    1.1953    2.5657 O   0  0  0  1  0  0  0  0  0  0  0  0
   -1.4568   -0.0665    1.7159 H   0  0  0  1  0  0  0  0  0  0  0  0
   -1.7638   -2.3791    1.4589 H   0  0  0  1  0  0  0  0  0  0  0  0
   -0.4188   -2.1257    0.3729 H   0  0  0  1  0  0  0  0  0  0  0  0
   -2.0530   -2.1314   -0.2463 H   0  0  0  1  0  0  0  0  0  0  0  0
   -5.6013    1.7081    1.9202 H   0  0  0  1  0  0  0  0  0  0  0  0
   -5.0160    3.3524    1.9995 H   0  0  0  1  0  0  0  0  0  0  0  0
   -4.8794    2.3079    3.3939 H   0  0  0  1  0  0  0  0  0  0  0  0
   -1.5667    2.7054   -1.2353 C   0  0  0  1  0  0  0  0  0  0  0  0
   -1.7068    4.1969   -0.9607 C   0  0  0  1  0  0  0  0  0  0  0  0
   -1.3961    5.0494   -2.1618 C   0  0  0  1  0  0  0  0  0  0  0  0
   -2.3235    5.2856   -3.1647 C   0  0  0  1  0  0  0  0  0  0  0  0
   -1.9838    6.0723   -4.2490 C   0  0  0  1  0  0  0  0  0  0  0  0
   -0.7172    6.6296   -4.3310 C   0  0  0  1  0  0  0  0  0  0  0  0
    0.2076    6.3943   -3.3312 C   0  0  0  1  0  0  0  0  0  0  0  0
   -0.1333    5.6052   -2.2437 C   0  0  0  1  0  0  0  0  0  0  0  0
   -2.2819    2.4164   -1.9769 H   0  0  0  1  0  0  0  0  0  0  0  0
   -0.5789    2.5061   -1.5951 H   0  0  0  1  0  0  0  0  0  0  0  0
   -1.0348    4.4625   -0.1715 H   0  0  0  1  0  0  0  0  0  0  0  0
   -2.7130    4.3937   -0.6544 H   0  0  0  1  0  0  0  0  0  0  0  0
   -3.2750    4.8707   -3.1011 H   0  0  0  1  0  0  0  0  0  0  0  0
   -2.6783    6.2461   -5.0033 H   0  0  0  1  0  0  0  0  0  0  0  0
   -0.4628    7.2249   -5.1450 H   0  0  0  1  0  0  0  0  0  0  0  0
    1.1592    6.8091   -3.3948 H   0  0  0  1  0  0  0  0  0  0  0  0
    0.5612    5.4313   -1.4894 H   0  0  0  1  0  0  0  0  0  0  0  0
  1  4  1  0  0  0  0
  2  4  1  0  0  0  0
  2  5  2  0  0  0  0
  2  6  1  0  0  0  0
  3  4  1  0  0  0  0
  3  7  1  0  0  0  0
  3  8  1  0  0  0  0
  4 19  1  0  0  0  0
  6  9  1  0  0  0  0
  6 12  1  0  0  0  0
  8 10  1  0  0  0  0
  8 11  2  0  0  0  0
  9 13  1  0  0  0  0
  9 14  1  0  0  0  0
  9 15  1  0  0  0  0
 10 16  1  0  0  0  0
 10 17  1  0  0  0  0
 10 18  1  0  0  0  0
 19 20  1  0  0  0  0
 19 27  1  0  0  0  0
 19 28  1  0  0  0  0
 20 21  1  0  0  0  0
 20 29  1  0  0  0  0
 20 30  1  0  0  0  0
 21 22  4  0  0  0  0
 21 26  4  0  0  0  0
 22 23  4  0  0  0  0
 22 31  1  0  0  0  0
 23 24  4  0  0  0  0
 23 32  1  0  0  0  0
 24 25  4  0  0  0  0
 24 33  1  0  0  0  0
 25 26  4  0  0  0  0
 25 34  1  0  0  0  0
 26 35  1  0  0  0  0
M  END
> <BCLConfClusterSize>
1

> <ConfClashScore>
0 

> <ConfOneFourInteractionScore>
-0.98595 

> <ConfScore>
0.183761 

> <ConfScorePBest>
0.00589714 

> <ConfTolerance>
0.353437 

> <RosettaParamsInstructions>
M  ROOT 3
M  POLY_N_BB 3
M  POLY_CA_BB 4
M  POLY_C_BB 2
M  POLY_O_BB 5
M  POLY_IGNORE 9 10 11 12 13 14 15 16 17 18 
M  POLY_UPPER 6
M  POLY_LOWER 8
M  POLY_CHG 0
M  POLY_PROPERTIES ALPHA_AA D_AA PROTEIN AROMATIC POLYMER 
M  END

$$$$



 35 35  0  0  0  0  0  0  0  0999 V2000
   -2.7679    1.7518   -0.1842 H   0  0  0  1  0  0  0  0  0  0  0  0
   -4.8414    2.0799    0.0250 C   0  0  0  1  0  0  0  0  0  0  0  0
   -3.0819    3.0412    1.3992 N   0  0  0  1  0  0  0  0  0  0  0  0
   -3.4078    2.5739    0.0601 C   0  0  0  1  0  0  0  0  0  0  0  0
   -5.4180    1.8688   -1.0411 O   0  0  0  1  0  0  0  0  0  0  0  0
   -5.4207    1.8945    1.2145 N   0  0  0  1  0  0  0  0  0  0  0  0
   -3.3374    3.9512    1.6578 H   0  0  0  1  0  0  0  0  0  0  0  0
   -2.4487    2.2754    2.2852 C   0  0  0  1  0  0  0  0  0  0  0  0
   -6.8108    1.4847    1.3468 C   0  0  0  1  0  0  0  0  0  0  0  0
   -2.1915    2.8466    3.6799 C   0  0  0  1  0  0  0  0  0  0  0  0
   -2.0571    1.1332    2.0493 O   0  0  0  1  0  0  0  0  0  0  0  0
   -4.8910    2.0394    2.0262 H   0  0  0  1  0  0  0  0  0  0  0  0
   -6.9919    0.6307    0.7280 H   0  0  0  1  0  0  0  0  0  0  0  0
   -7.4495    2.2873    1.0423 H   0  0  0  1  0  0  0  0  0  0  0  0
   -7.0131    1.2346    2.3673 H   0  0  0  1  0  0  0  0  0  0  0  0
   -2.8844    2.4193    4.3743 H   0  0  0  1  0  0  0  0  0  0  0  0
   -2.3175    3.9089    3.6587 H   0  0  0  1  0  0  0  0  0  0  0  0
   -1.1926    2.6113    3.9827 H   0  0  0  1  0  0  0  0  0  0  0  0
   -3.1756    3.6639   -0.9685 C   0  0  0  1  0  0  0  0  0  0  0  0
   -1.7496    4.1900   -0.9776 C   0  0  0  1  0  0  0  0  0  0  0  0
   -1.3870    5.0508   -2.1581 C   0  0  0  1  0  0  0  0  0  0  0  0
   -2.3176    5.2842   -3.1585 C   0  0  0  1  0  0  0  0  0  0  0  0
   -1.9825    6.0702   -4.2447 C   0  0  0  1  0  0  0  0  0  0  0  0
   -0.7171    6.6296   -4.3311 C   0  0  0  1  0  0  0  0  0  0  0  0
    0.2110    6.3971   -3.3337 C   0  0  0  1  0  0  0  0  0  0  0  0
   -0.1254    5.6087   -2.2443 C   0  0  0  1  0  0  0  0  0  0  0  0
   -3.8362    4.4781   -0.7549 H   0  0  0  1  0  0  0  0  0  0  0  0
   -3.3976    3.2687   -1.9377 H   0  0  0  1  0  0  0  0  0  0  0  0
   -1.0876    3.3494   -0.9663 H   0  0  0  1  0  0  0  0  0  0  0  0
   -1.6060    4.7697   -0.0898 H   0  0  0  1  0  0  0  0  0  0  0  0
   -3.2683    4.8677   -3.0917 H   0  0  0  1  0  0  0  0  0  0  0  0
   -2.6795    6.2419   -4.9973 H   0  0  0  1  0  0  0  0  0  0  0  0
   -0.4662    7.2244   -5.1465 H   0  0  0  1  0  0  0  0  0  0  0  0
    1.1616    6.8136   -3.4006 H   0  0  0  1  0  0  0  0  0  0  0  0
    0.5716    5.4370   -1.4918 H   0  0  0  1  0  0  0  0  0  0  0  0
  1  4  1  0  0  0  0
  2  4  1  0  0  0  0
  2  5  2  0  0  0  0
  2  6  1  0  0  0  0
  3  4  1  0  0  0  0
  3  7  1  0  0  0  0
  3  8  1  0  0  0  0
  4 19  1  0  0  0  0
  6  9  1  0  0  0  0
  6 12  1  0  0  0  0
  8 10  1  0  0  0  0
  8 11  2  0  0  0  0
  9 13  1  0  0  0  0
  9 14  1  0  0  0  0
  9 15  1  0  0  0  0
 10 16  1  0  0  0  0
 10 17  1  0  0  0  0
 10 18  1  0  0  0  0
 19 20  1  0  0  0  0
 19 27  1  0  0  0  0
 19 28  1  0  0  0  0
 20 21  1  0  0  0  0
 20 29  1  0  0  0  0
 20 30  1  0  0  0  0
 21 22  4  0  0  0  0
 21 26  4  0  0  0  0
 22 23  4  0  0  0  0
 22 31  1  0  0  0  0
 23 24  4  0  0  0  0
 23 32  1  0  0  0  0
 24 25  4  0  0  0  0
 24 33  1  0  0  0  0
 25 26  4  0  0  0  0
 25 34  1  0  0  0  0
 26 35  1  0  0  0  0
M  END
> <BCLConfClusterSize>
1

> <ConfClashScore>
0 

> <ConfOneFourInteractionScore>
-0.948952 

> <ConfScore>
0.187931 

> <ConfScorePBest>
0.00586866 

> <ConfTolerance>
0.447608 

> <RosettaParamsInstructions>
M  ROOT 3
M  POLY_N_BB 3
M  POLY_CA_BB 4
M  POLY_C_BB 2
M  POLY_O_BB 5
M  POLY_IGNORE 9 10 11 12 13 14 15 16 17 18 
M  POLY_UPPER 6
M  POLY_LOWER 8
M  POLY_CHG 0
M  POLY_PROPERTIES ALPHA_AA D_AA PROTEIN AROMATIC POLYMER 
M  END

$$$$



 35 35  0  0  0  0  0  0  0  0999 V2000
   -2.7873    3.5913    1.5470 H   0  0  0  1  0  0  0  0  0  0  0  0
   -1.6769    4.8849    2.7983 C   0  0  0  1  0  0  0  0  0  0  0  0
   -0.8111    2.9749    1.4691 N   0  0  0  1  0  0  0  0  0  0  0  0
   -1.8109    4.0290    1.5539 C   0  0  0  1  0  0  0  0  0  0  0  0
   -2.2317    5.9805    2.8734 O   0  0  0  1  0  0  0  0  0  0  0  0
   -0.9360    4.4118    3.8129 N   0  0  0  1  0  0  0  0  0  0  0  0
   -0.1068    3.0446    0.7913 H   0  0  0  1  0  0  0  0  0  0  0  0
   -0.8201    1.9156    2.2832 C   0  0  0  1  0  0  0  0  0  0  0  0
   -0.7660    5.1442    5.0589 C   0  0  0  1  0  0  0  0  0  0  0  0
    0.0806    0.7653    1.8774 C   0  0  0  1  0  0  0  0  0  0  0  0
   -1.5084    1.8590    3.3014 O   0  0  0  1  0  0  0  0  0  0  0  0
   -0.4943    3.5429    3.7110 H   0  0  0  1  0  0  0  0  0  0  0  0
   -0.1497    4.5775    5.7252 H   0  0  0  1  0  0  0  0  0  0  0  0
   -1.7226    5.3071    5.5100 H   0  0  0  1  0  0  0  0  0  0  0  0
   -0.3009    6.0866    4.8578 H   0  0  0  1  0  0  0  0  0  0  0  0
    1.0917    1.1092    1.8119 H   0  0  0  1  0  0  0  0  0  0  0  0
   -0.2300    0.3882    0.9254 H   0  0  0  1  0  0  0  0  0  0  0  0
    0.0156   -0.0133    2.6084 H   0  0  0  1  0  0  0  0  0  0  0  0
   -1.6877    4.9365    0.3450 C   0  0  0  1  0  0  0  0  0  0  0  0
   -1.7496    4.1900   -0.9776 C   0  0  0  1  0  0  0  0  0  0  0  0
   -1.3870    5.0508   -2.1581 C   0  0  0  1  0  0  0  0  0  0  0  0
   -2.3176    5.2842   -3.1585 C   0  0  0  1  0  0  0  0  0  0  0  0
   -1.9825    6.0702   -4.2447 C   0  0  0  1  0  0  0  0  0  0  0  0
   -0.7171    6.6296   -4.3311 C   0  0  0  1  0  0  0  0  0  0  0  0
    0.2110    6.3971   -3.3337 C   0  0  0  1  0  0  0  0  0  0  0  0
   -0.1254    5.6087   -2.2443 C   0  0  0  1  0  0  0  0  0  0  0  0
   -0.7511    5.4507    0.4009 H   0  0  0  1  0  0  0  0  0  0  0  0
   -2.4874    5.6470    0.3713 H   0  0  0  1  0  0  0  0  0  0  0  0
   -2.7456    3.8243   -1.1160 H   0  0  0  1  0  0  0  0  0  0  0  0
   -1.0690    3.3655   -0.9355 H   0  0  0  1  0  0  0  0  0  0  0  0
   -3.2683    4.8677   -3.0917 H   0  0  0  1  0  0  0  0  0  0  0  0
   -2.6795    6.2419   -4.9973 H   0  0  0  1  0  0  0  0  0  0  0  0
   -0.4662    7.2244   -5.1465 H   0  0  0  1  0  0  0  0  0  0  0  0
    1.1616    6.8136   -3.4006 H   0  0  0  1  0  0  0  0  0  0  0  0
    0.5716    5.4370   -1.4918 H   0  0  0  1  0  0  0  0  0  0  0  0
  1  4  1  0  0  0  0
  2  4  1  0  0  0  0
  2  5  2  0  0  0  0
  2  6  1  0  0  0  0
  3  4  1  0  0  0  0
  3  7  1  0  0  0  0
  3  8  1  0  0  0  0
  4 19  1  0  0  0  0
  6  9  1  0  0  0  0
  6 12  1  0  0  0  0
  8 10  1  0  0  0  0
  8 11  2  0  0  0  0
  9 13  1  0  0  0  0
  9 14  1  0  0  0  0
  9 15  1  0  0  0  0
 10 16  1  0  0  0  0
 10 17  1  0  0  0  0
 10 18  1  0  0  0  0
 19 20  1  0  0  0  0
 19 27  1  0  0  0  0
 19 28  1  0  0  0  0
 20 21  1  0  0  0  0
 20 29  1  0  0  0  0
 20 30  1  0  0  0  0
 21 22  4  0  0  0  0
 21 26  4  0  0  0  0
 22 23  4  0  0  0  0
 22 31  1  0  0  0  0
 23 24  4  0  0  0  0
 23 32  1  0  0  0  0
 24 25  4  0  0  0  0
 24 33  1  0  0  0  0
 25 26  4  0  0  0  0
 25 34  1  0  0  0  0
 26 35  1  0  0  0  0
M  END
> <BCLConfClusterSize>
1

> <ConfClashScore>
0.00230739 

> <ConfOneFourInteractionScore>
-0.970454 

> <ConfScore>
0.187934 

> <ConfScorePBest>
0.00584018 

> <ConfTolerance>
0.38142 

> <RosettaParamsInstructions>
M  ROOT 3
M  POLY_N_BB 3
M  POLY_CA_BB 4
M  POLY_C_BB 2
M  POLY_O_BB 5
M  POLY_IGNORE 9 10 11 12 13 14 15 16 17 18 
M  POLY_UPPER 6
M  POLY_LOWER 8
M  POLY_CHG 0
M  POLY_PROPERTIES ALPHA_AA D_AA PROTEIN AROMATIC POLYMER 
M  END

$$$$



 35 35  0  0  0  0  0  0  0  0999 V2000
   -4.6062    2.6526    0.2005 H   0  0  0  1  0  0  0  0  0  0  0  0
   -3.4964    3.8298    1.5642 C   0  0  0  1  0  0  0  0  0  0  0  0
   -2.7392    1.7895    0.4105 N   0  0  0  1  0  0  0  0  0  0  0  0
   -3.5893    2.9654    0.3149 C   0  0  0  1  0  0  0  0  0  0  0  0
   -3.1980    3.3374    2.6515 O   0  0  0  1  0  0  0  0  0  0  0  0
   -3.7494    5.1419    1.4436 N   0  0  0  1  0  0  0  0  0  0  0  0
   -3.0633    0.9240    0.0847 H   0  0  0  1  0  0  0  0  0  0  0  0
   -1.5067    1.8875    0.9460 C   0  0  0  1  0  0  0  0  0  0  0  0
   -3.6951    6.0516    2.5782 C   0  0  0  1  0  0  0  0  0  0  0  0
   -0.7954    0.5487    1.0943 C   0  0  0  1  0  0  0  0  0  0  0  0
   -0.9760    2.9417    1.2933 O   0  0  0  1  0  0  0  0  0  0  0  0
   -3.9788    5.5002    0.5607 H   0  0  0  1  0  0  0  0  0  0  0  0
   -3.4660    5.5012    3.4667 H   0  0  0  1  0  0  0  0  0  0  0  0
   -4.6427    6.5353    2.6929 H   0  0  0  1  0  0  0  0  0  0  0  0
   -2.9367    6.7873    2.4092 H   0  0  0  1  0  0  0  0  0  0  0  0
   -0.8068    0.0325    0.1571 H   0  0  0  1  0  0  0  0  0  0  0  0
   -1.2970   -0.0416    1.8324 H   0  0  0  1  0  0  0  0  0  0  0  0
    0.2172    0.7148    1.3974 H   0  0  0  1  0  0  0  0  0  0  0  0
   -3.2072    3.7672   -0.9045 C   0  0  0  1  0  0  0  0  0  0  0  0
   -1.7493    4.1907   -0.9786 C   0  0  0  1  0  0  0  0  0  0  0  0
   -1.3870    5.0507   -2.1580 C   0  0  0  1  0  0  0  0  0  0  0  0
   -2.3177    5.2841   -3.1584 C   0  0  0  1  0  0  0  0  0  0  0  0
   -1.9825    6.0701   -4.2447 C   0  0  0  1  0  0  0  0  0  0  0  0
   -0.7172    6.6296   -4.3310 C   0  0  0  1  0  0  0  0  0  0  0  0
    0.2110    6.3971   -3.3336 C   0  0  0  1  0  0  0  0  0  0  0  0
   -0.1254    5.6086   -2.2442 C   0  0  0  1  0  0  0  0  0  0  0  0
   -3.8085    4.6521   -0.9188 H   0  0  0  1  0  0  0  0  0  0  0  0
   -3.4226    3.1749   -1.7692 H   0  0  0  1  0  0  0  0  0  0  0  0
   -1.1500    3.3052   -1.0192 H   0  0  0  1  0  0  0  0  0  0  0  0
   -1.5188    4.7374   -0.0881 H   0  0  0  1  0  0  0  0  0  0  0  0
   -3.2683    4.8676   -3.0916 H   0  0  0  1  0  0  0  0  0  0  0  0
   -2.6795    6.2419   -4.9972 H   0  0  0  1  0  0  0  0  0  0  0  0
   -0.4662    7.2244   -5.1464 H   0  0  0  1  0  0  0  0  0  0  0  0
    1.1616    6.8135   -3.4005 H   0  0  0  1  0  0  0  0  0  0  0  0
    0.5716    5.4369   -1.4917 H   0  0  0  1  0  0  0  0  0  0  0  0
  1  4  1  0  0  0  0
  2  4  1  0  0  0  0
  2  5  2  0  0  0  0
  2  6  1  0  0  0  0
  3  4  1  0  0  0  0
  3  7  1  0  0  0  0
  3  8  1  0  0  0  0
  4 19  1  0  0  0  0
  6  9  1  0  0  0  0
  6 12  1  0  0  0  0
  8 10  1  0  0  0  0
  8 11  2  0  0  0  0
  9 13  1  0  0  0  0
  9 14  1  0  0  0  0
  9 15  1  0  0  0  0
 10 16  1  0  0  0  0
 10 17  1  0  0  0  0
 10 18  1  0  0  0  0
 19 20  1  0  0  0  0
 19 27  1  0  0  0  0
 19 28  1  0  0  0  0
 20 21  1  0  0  0  0
 20 29  1  0  0  0  0
 20 30  1  0  0  0  0
 21 22  4  0  0  0  0
 21 26  4  0  0  0  0
 22 23  4  0  0  0  0
 22 31  1  0  0  0  0
 23 24  4  0  0  0  0
 23 32  1  0  0  0  0
 24 25  4  0  0  0  0
 24 33  1  0  0  0  0
 25 26  4  0  0  0  0
 25 34  1  0  0  0  0
 26 35  1  0  0  0  0
M  END
> <BCLConfClusterSize>
1

> <ConfClashScore>
0 

> <ConfOneFourInteractionScore>
-0.92088 

> <ConfScore>
0.188371 

> <ConfScorePBest>
0.0058117 

> <ConfTolerance>
0.430883 

> <RosettaParamsInstructions>
M  ROOT 3
M  POLY_N_BB 3
M  POLY_CA_BB 4
M  POLY_C_BB 2
M  POLY_O_BB 5
M  POLY_IGNORE 9 10 11 12 13 14 15 16 17 18 
M  POLY_UPPER 6
M  POLY_LOWER 8
M  POLY_CHG 0
M  POLY_PROPERTIES ALPHA_AA D_AA PROTEIN AROMATIC POLYMER 
M  END

$$$$



 35 35  0  0  0  0  0  0  0  0999 V2000
   -1.8064    0.8078   -0.3611 H   0  0  0  1  0  0  0  0  0  0  0  0
   -3.4697    1.9379    0.2541 C   0  0  0  1  0  0  0  0  0  0  0  0
   -1.1997    2.1166    1.1217 N   0  0  0  1  0  0  0  0  0  0  0  0
   -1.9938    1.8230   -0.0798 C   0  0  0  1  0  0  0  0  0  0  0  0
   -4.3060    2.1657   -0.6190 O   0  0  0  1  0  0  0  0  0  0  0  0
   -3.7893    1.7757    1.5478 N   0  0  0  1  0  0  0  0  0  0  0  0
   -1.5188    2.8039    1.7432 H   0  0  0  1  0  0  0  0  0  0  0  0
   -0.0581    1.4790    1.3960 C   0  0  0  1  0  0  0  0  0  0  0  0
   -5.1657    1.8125    2.0191 C   0  0  0  1  0  0  0  0  0  0  0  0
    0.6320    1.8881    2.6827 C   0  0  0  1  0  0  0  0  0  0  0  0
    0.4173    0.6143    0.6648 O   0  0  0  1  0  0  0  0  0  0  0  0
   -3.0708    1.6273    2.1975 H   0  0  0  1  0  0  0  0  0  0  0  0
   -5.8054    1.3625    1.2889 H   0  0  0  1  0  0  0  0  0  0  0  0
   -5.4621    2.8288    2.1748 H   0  0  0  1  0  0  0  0  0  0  0  0
   -5.2416    1.2732    2.9402 H   0  0  0  1  0  0  0  0  0  0  0  0
    0.5943    2.9524    2.7855 H   0  0  0  1  0  0  0  0  0  0  0  0
    1.6528    1.5684    2.6569 H   0  0  0  1  0  0  0  0  0  0  0  0
    0.1358    1.4320    3.5138 H   0  0  0  1  0  0  0  0  0  0  0  0
   -1.5452    2.7064   -1.2374 C   0  0  0  1  0  0  0  0  0  0  0  0
   -1.7496    4.1900   -0.9776 C   0  0  0  1  0  0  0  0  0  0  0  0
   -1.3870    5.0508   -2.1581 C   0  0  0  1  0  0  0  0  0  0  0  0
   -2.3176    5.2842   -3.1585 C   0  0  0  1  0  0  0  0  0  0  0  0
   -1.9825    6.0702   -4.2447 C   0  0  0  1  0  0  0  0  0  0  0  0
   -0.7171    6.6296   -4.3311 C   0  0  0  1  0  0  0  0  0  0  0  0
    0.2110    6.3971   -3.3337 C   0  0  0  1  0  0  0  0  0  0  0  0
   -0.1254    5.6087   -2.2443 C   0  0  0  1  0  0  0  0  0  0  0  0
   -2.1043    2.4343   -2.1082 H   0  0  0  1  0  0  0  0  0  0  0  0
   -0.5041    2.5330   -1.4128 H   0  0  0  1  0  0  0  0  0  0  0  0
   -1.1400    4.4774   -0.1465 H   0  0  0  1  0  0  0  0  0  0  0  0
   -2.7795    4.3553   -0.7392 H   0  0  0  1  0  0  0  0  0  0  0  0
   -3.2683    4.8677   -3.0917 H   0  0  0  1  0  0  0  0  0  0  0  0
   -2.6795    6.2419   -4.9973 H   0  0  0  1  0  0  0  0  0  0  0  0
   -0.4662    7.2244   -5.1465 H   0  0  0  1  0  0  0  0  0  0  0  0
    1.1616    6.8136   -3.4006 H   0  0  0  1  0  0  0  0  0  0  0  0
    0.5716    5.4370   -1.4918 H   0  0  0  1  0  0  0  0  0  0  0  0
  1  4  1  0  0  0  0
  2  4  1  0  0  0  0
  2  5  2  0  0  0  0
  2  6  1  0  0  0  0
  3  4  1  0  0  0  0
  3  7  1  0  0  0  0
  3  8  1  0  0  0  0
  4 19  1  0  0  0  0
  6  9  1  0  0  0  0
  6 12  1  0  0  0  0
  8 10  1  0  0  0  0
  8 11  2  0  0  0  0
  9 13  1  0  0  0  0
  9 14  1  0  0  0  0
  9 15  1  0  0  0  0
 10 16  1  0  0  0  0
 10 17  1  0  0  0  0
 10 18  1  0  0  0  0
 19 20  1  0  0  0  0
 19 27  1  0  0  0  0
 19 28  1  0  0  0  0
 20 21  1  0  0  0  0
 20 29  1  0  0  0  0
 20 30  1  0  0  0  0
 21 22  4  0  0  0  0
 21 26  4  0  0  0  0
 22 23  4  0  0  0  0
 22 31  1  0  0  0  0
 23 24  4  0  0  0  0
 23 32  1  0  0  0  0
 24 25  4  0  0  0  0
 24 33  1  0  0  0  0
 25 26  4  0  0  0  0
 25 34  1  0  0  0  0
 26 35  1  0  0  0  0
M  END
> <BCLConfClusterSize>
1

> <ConfClashScore>
0 

> <ConfOneFourInteractionScore>
-0.933897 

> <ConfScore>
0.190464 

> <ConfScorePBest>
0.00578322 

> <ConfTolerance>
0.493173 

> <RosettaParamsInstructions>
M  ROOT 3
M  POLY_N_BB 3
M  POLY_CA_BB 4
M  POLY_C_BB 2
M  POLY_O_BB 5
M  POLY_IGNORE 9 10 11 12 13 14 15 16 17 18 
M  POLY_UPPER 6
M  POLY_LOWER 8
M  POLY_CHG 0
M  POLY_PROPERTIES ALPHA_AA D_AA PROTEIN AROMATIC POLYMER 
M  END

$$$$



 35 35  0  0  0  0  0  0  0  0999 V2000
   -1.2570    0.8897   -0.2000 H   0  0  0  1  0  0  0  0  0  0  0  0
   -3.2359    1.5704   -0.2466 C   0  0  0  1  0  0  0  0  0  0  0  0
   -1.4719    2.2585    1.3283 N   0  0  0  1  0  0  0  0  0  0  0  0
   -1.7527    1.8267   -0.0541 C   0  0  0  1  0  0  0  0  0  0  0  0
   -4.0316    1.7064    0.6791 O   0  0  0  1  0  0  0  0  0  0  0  0
   -3.6053    1.1932   -1.4739 N   0  0  0  1  0  0  0  0  0  0  0  0
   -0.7794    1.8034    1.8516 H   0  0  0  1  0  0  0  0  0  0  0  0
   -2.1629    3.2735    1.8710 C   0  0  0  1  0  0  0  0  0  0  0  0
   -4.9779    0.9545   -1.8943 C   0  0  0  1  0  0  0  0  0  0  0  0
   -1.8415    3.5894    3.3187 C   0  0  0  1  0  0  0  0  0  0  0  0
   -3.0067    3.9175    1.2490 O   0  0  0  1  0  0  0  0  0  0  0  0
   -2.8987    1.0679   -2.1413 H   0  0  0  1  0  0  0  0  0  0  0  0
   -5.4963    0.4130   -1.1308 H   0  0  0  1  0  0  0  0  0  0  0  0
   -4.9793    0.3838   -2.7994 H   0  0  0  1  0  0  0  0  0  0  0  0
   -5.4674    1.8911   -2.0619 H   0  0  0  1  0  0  0  0  0  0  0  0
   -0.8600    3.2333    3.5527 H   0  0  0  1  0  0  0  0  0  0  0  0
   -2.5557    3.1101    3.9552 H   0  0  0  1  0  0  0  0  0  0  0  0
   -1.8820    4.6479    3.4700 H   0  0  0  1  0  0  0  0  0  0  0  0
   -1.1443    2.7975   -1.0478 C   0  0  0  1  0  0  0  0  0  0  0  0
   -1.7496    4.1900   -0.9776 C   0  0  0  1  0  0  0  0  0  0  0  0
   -1.3870    5.0508   -2.1581 C   0  0  0  1  0  0  0  0  0  0  0  0
   -2.3176    5.2842   -3.1585 C   0  0  0  1  0  0  0  0  0  0  0  0
   -1.9825    6.0702   -4.2447 C   0  0  0  1  0  0  0  0  0  0  0  0
   -0.7171    6.6296   -4.3311 C   0  0  0  1  0  0  0  0  0  0  0  0
    0.2110    6.3971   -3.3337 C   0  0  0  1  0  0  0  0  0  0  0  0
   -0.1254    5.6087   -2.2443 C   0  0  0  1  0  0  0  0  0  0  0  0
   -1.2945    2.4116   -2.0345 H   0  0  0  1  0  0  0  0  0  0  0  0
   -0.0955    2.8731   -0.8497 H   0  0  0  1  0  0  0  0  0  0  0  0
   -1.4001    4.6688   -0.0868 H   0  0  0  1  0  0  0  0  0  0  0  0
   -2.8148    4.0968   -0.9385 H   0  0  0  1  0  0  0  0  0  0  0  0
   -3.2683    4.8677   -3.0917 H   0  0  0  1  0  0  0  0  0  0  0  0
   -2.6795    6.2419   -4.9973 H   0  0  0  1  0  0  0  0  0  0  0  0
   -0.4662    7.2244   -5.1465 H   0  0  0  1  0  0  0  0  0  0  0  0
    1.1616    6.8136   -3.4006 H   0  0  0  1  0  0  0  0  0  0  0  0
    0.5716    5.4370   -1.4918 H   0  0  0  1  0  0  0  0  0  0  0  0
  1  4  1  0  0  0  0
  2  4  1  0  0  0  0
  2  5  2  0  0  0  0
  2  6  1  0  0  0  0
  3  4  1  0  0  0  0
  3  7  1  0  0  0  0
  3  8  1  0  0  0  0
  4 19  1  0  0  0  0
  6  9  1  0  0  0  0
  6 12  1  0  0  0  0
  8 10  1  0  0  0  0
  8 11  2  0  0  0  0
  9 13  1  0  0  0  0
  9 14  1  0  0  0  0
  9 15  1  0  0  0  0
 10 16  1  0  0  0  0
 10 17  1  0  0  0  0
 10 18  1  0  0  0  0
 19 20  1  0  0  0  0
 19 27  1  0  0  0  0
 19 28  1  0  0  0  0
 20 21  1  0  0  0  0
 20 29  1  0  0  0  0
 20 30  1  0  0  0  0
 21 22  4  0  0  0  0
 21 26  4  0  0  0  0
 22 23  4  0  0  0  0
 22 31  1  0  0  0  0
 23 24  4  0  0  0  0
 23 32  1  0  0  0  0
 24 25  4  0  0  0  0
 24 33  1  0  0  0  0
 25 26  4  0  0  0  0
 25 34  1  0  0  0  0
 26 35  1  0  0  0  0
M  END
> <BCLConfClusterSize>
1

> <ConfClashScore>
0 

> <ConfOneFourInteractionScore>
-0.949204 

> <ConfScore>
0.191961 

> <ConfScorePBest>
0.00575474 

> <ConfTolerance>
0.487331 

> <RosettaParamsInstructions>
M  ROOT 3
M  POLY_N_BB 3
M  POLY_CA_BB 4
M  POLY_C_BB 2
M  POLY_O_BB 5
M  POLY_IGNORE 9 10 11 12 13 14 15 16 17 18 
M  POLY_UPPER 6
M  POLY_LOWER 8
M  POLY_CHG 0
M  POLY_PROPERTIES ALPHA_AA D_AA PROTEIN AROMATIC POLYMER 
M  END

$$$$



 35 35  0  0  0  0  0  0  0  0999 V2000
   -3.0241    1.8990   -0.0085 H   0  0  0  1  0  0  0  0  0  0  0  0
   -5.0383    2.4997    0.0960 C   0  0  0  1  0  0  0  0  0  0  0  0
   -3.0941    3.3987    1.4034 N   0  0  0  1  0  0  0  0  0  0  0  0
   -3.5559    2.8132    0.1537 C   0  0  0  1  0  0  0  0  0  0  0  0
   -5.6835    2.2743    1.1190 O   0  0  0  1  0  0  0  0  0  0  0  0
   -5.5844    2.4863   -1.1303 N   0  0  0  1  0  0  0  0  0  0  0  0
   -2.7465    4.3149    1.3965 H   0  0  0  1  0  0  0  0  0  0  0  0
   -3.1278    2.7277    2.5648 C   0  0  0  1  0  0  0  0  0  0  0  0
   -6.9596    2.0721   -1.3644 C   0  0  0  1  0  0  0  0  0  0  0  0
   -2.7739    3.5318    3.8007 C   0  0  0  1  0  0  0  0  0  0  0  0
   -3.4241    1.5383    2.6416 O   0  0  0  1  0  0  0  0  0  0  0  0
   -5.0378    2.7653   -1.8944 H   0  0  0  1  0  0  0  0  0  0  0  0
   -7.0942    1.8508   -2.4026 H   0  0  0  1  0  0  0  0  0  0  0  0
   -7.6231    2.8616   -1.0794 H   0  0  0  1  0  0  0  0  0  0  0  0
   -7.1728    1.1992   -0.7835 H   0  0  0  1  0  0  0  0  0  0  0  0
   -3.6710    3.8706    4.2754 H   0  0  0  1  0  0  0  0  0  0  0  0
   -2.1794    4.3756    3.5187 H   0  0  0  1  0  0  0  0  0  0  0  0
   -2.2216    2.9167    4.4800 H   0  0  0  1  0  0  0  0  0  0  0  0
   -3.2042    3.7491   -0.9867 C   0  0  0  1  0  0  0  0  0  0  0  0
   -1.7496    4.1900   -0.9776 C   0  0  0  1  0  0  0  0  0  0  0  0
   -1.3870    5.0508   -2.1581 C   0  0  0  1  0  0  0  0  0  0  0  0
   -2.3176    5.2842   -3.1585 C   0  0  0  1  0  0  0  0  0  0  0  0
   -1.9825    6.0702   -4.2447 C   0  0  0  1  0  0  0  0  0  0  0  0
   -0.7171    6.6296   -4.3311 C   0  0  0  1  0  0  0  0  0  0  0  0
    0.2110    6.3971   -3.3337 C   0  0  0  1  0  0  0  0  0  0  0  0
   -0.1254    5.6087   -2.2443 C   0  0  0  1  0  0  0  0  0  0  0  0
   -3.8229    4.6191   -0.9148 H   0  0  0  1  0  0  0  0  0  0  0  0
   -3.4006    3.2466   -1.9108 H   0  0  0  1  0  0  0  0  0  0  0  0
   -1.1294    3.3182   -0.9885 H   0  0  0  1  0  0  0  0  0  0  0  0
   -1.5680    4.7463   -0.0818 H   0  0  0  1  0  0  0  0  0  0  0  0
   -3.2683    4.8677   -3.0917 H   0  0  0  1  0  0  0  0  0  0  0  0
   -2.6795    6.2419   -4.9973 H   0  0  0  1  0  0  0  0  0  0  0  0
   -0.4662    7.2244   -5.1465 H   0  0  0  1  0  0  0  0  0  0  0  0
    1.1616    6.8136   -3.4006 H   0  0  0  1  0  0  0  0  0  0  0  0
    0.5716    5.4370   -1.4918 H   0  0  0  1  0  0  0  0  0  0  0  0
  1  4  1  0  0  0  0
  2  4  1  0  0  0  0
  2  5  2  0  0  0  0
  2  6  1  0  0  0  0
  3  4  1  0  0  0  0
  3  7  1  0  0  0  0
  3  8  1  0  0  0  0
  4 19  1  0  0  0  0
  6  9  1  0  0  0  0
  6 12  1  0  0  0  0
  8 10  1  0  0  0  0
  8 11  2  0  0  0  0
  9 13  1  0  0  0  0
  9 14  1  0  0  0  0
  9 15  1  0  0  0  0
 10 16  1  0  0  0  0
 10 17  1  0  0  0  0
 10 18  1  0  0  0  0
 19 20  1  0  0  0  0
 19 27  1  0  0  0  0
 19 28  1  0  0  0  0
 20 21  1  0  0  0  0
 20 29  1  0  0  0  0
 20 30  1  0  0  0  0
 21 22  4  0  0  0  0
 21 26  4  0  0  0  0
 22 23  4  0  0  0  0
 22 31  1  0  0  0  0
 23 24  4  0  0  0  0
 23 32  1  0  0  0  0
 24 25  4  0  0  0  0
 24 33  1  0  0  0  0
 25 26  4  0  0  0  0
 25 34  1  0  0  0  0
 26 35  1  0  0  0  0
M  END
> <BCLConfClusterSize>
1

> <ConfClashScore>
0 

> <ConfOneFourInteractionScore>
-0.963121 

> <ConfScore>
0.193068 

> <ConfScorePBest>
0.00572626 

> <ConfTolerance>
0.554432 

> <RosettaParamsInstructions>
M  ROOT 3
M  POLY_N_BB 3
M  POLY_CA_BB 4
M  POLY_C_BB 2
M  POLY_O_BB 5
M  POLY_IGNORE 9 10 11 12 13 14 15 16 17 18 
M  POLY_UPPER 6
M  POLY_LOWER 8
M  POLY_CHG 0
M  POLY_PROPERTIES ALPHA_AA D_AA PROTEIN AROMATIC POLYMER 
M  END

$$$$



 35 35  0  0  0  0  0  0  0  0999 V2000
    0.7303    3.1872   -1.7560 H   0  0  0  1  0  0  0  0  0  0  0  0
    0.7823    1.1921   -1.0964 C   0  0  0  1  0  0  0  0  0  0  0  0
    0.7467    3.1792    0.3122 N   0  0  0  1  0  0  0  0  0  0  0  0
    0.2853    2.6191   -0.9659 C   0  0  0  1  0  0  0  0  0  0  0  0
    1.8583    0.8440   -0.6119 O   0  0  0  1  0  0  0  0  0  0  0  0
   -0.0231    0.3530   -1.7668 N   0  0  0  1  0  0  0  0  0  0  0  0
    0.0807    3.4938    0.9587 H   0  0  0  1  0  0  0  0  0  0  0  0
    2.0425    3.2743    0.6234 C   0  0  0  1  0  0  0  0  0  0  0  0
    0.4382   -0.9835   -2.1113 C   0  0  0  1  0  0  0  0  0  0  0  0
    2.3578    4.0003    1.9167 C   0  0  0  1  0  0  0  0  0  0  0  0
    2.9352    2.8098   -0.0807 O   0  0  0  1  0  0  0  0  0  0  0  0
   -0.9236    0.6411   -2.0247 H   0  0  0  1  0  0  0  0  0  0  0  0
    0.2385   -1.6508   -1.2990 H   0  0  0  1  0  0  0  0  0  0  0  0
    1.4908   -0.9592   -2.3019 H   0  0  0  1  0  0  0  0  0  0  0  0
   -0.0754   -1.3234   -2.9863 H   0  0  0  1  0  0  0  0  0  0  0  0
    2.4172    5.0523    1.7305 H   0  0  0  1  0  0  0  0  0  0  0  0
    3.2940    3.6530    2.3013 H   0  0  0  1  0  0  0  0  0  0  0  0
    1.5848    3.8078    2.6310 H   0  0  0  1  0  0  0  0  0  0  0  0
   -1.2189    2.7669   -1.0915 C   0  0  0  1  0  0  0  0  0  0  0  0
   -1.7496    4.1900   -0.9776 C   0  0  0  1  0  0  0  0  0  0  0  0
   -1.3870    5.0508   -2.1581 C   0  0  0  1  0  0  0  0  0  0  0  0
   -2.3176    5.2842   -3.1585 C   0  0  0  1  0  0  0  0  0  0  0  0
   -1.9825    6.0702   -4.2447 C   0  0  0  1  0  0  0  0  0  0  0  0
   -0.7171    6.6296   -4.3311 C   0  0  0  1  0  0  0  0  0  0  0  0
    0.2110    6.3971   -3.3337 C   0  0  0  1  0  0  0  0  0  0  0  0
   -0.1254    5.6087   -2.2443 C   0  0  0  1  0  0  0  0  0  0  0  0
   -1.6731    2.1830   -0.3184 H   0  0  0  1  0  0  0  0  0  0  0  0
   -1.5092    2.3824   -2.0469 H   0  0  0  1  0  0  0  0  0  0  0  0
   -1.3431    4.6354   -0.0937 H   0  0  0  1  0  0  0  0  0  0  0  0
   -2.8160    4.1506   -0.8997 H   0  0  0  1  0  0  0  0  0  0  0  0
   -3.2683    4.8677   -3.0917 H   0  0  0  1  0  0  0  0  0  0  0  0
   -2.6795    6.2419   -4.9973 H   0  0  0  1  0  0  0  0  0  0  0  0
   -0.4662    7.2244   -5.1465 H   0  0  0  1  0  0  0  0  0  0  0  0
    1.1616    6.8136   -3.4006 H   0  0  0  1  0  0  0  0  0  0  0  0
    0.5716    5.4370   -1.4918 H   0  0  0  1  0  0  0  0  0  0  0  0
  1  4  1  0  0  0  0
  2  4  1  0  0  0  0
  2  5  2  0  0  0  0
  2  6  1  0  0  0  0
  3  4  1  0  0  0  0
  3  7  1  0  0  0  0
  3  8  1  0  0  0  0
  4 19  1  0  0  0  0
  6  9  1  0  0  0  0
  6 12  1  0  0  0  0
  8 10  1  0  0  0  0
  8 11  2  0  0  0  0
  9 13  1  0  0  0  0
  9 14  1  0  0  0  0
  9 15  1  0  0  0  0
 10 16  1  0  0  0  0
 10 17  1  0  0  0  0
 10 18  1  0  0  0  0
 19 20  1  0  0  0  0
 19 27  1  0  0  0  0
 19 28  1  0  0  0  0
 20 21  1  0  0  0  0
 20 29  1  0  0  0  0
 20 30  1  0  0  0  0
 21 22  4  0  0  0  0
 21 26  4  0  0  0  0
 22 23  4  0  0  0  0
 22 31  1  0  0  0  0
 23 24  4  0  0  0  0
 23 32  1  0  0  0  0
 24 25  4  0  0  0  0
 24 33  1  0  0  0  0
 25 26  4  0  0  0  0
 25 34  1  0  0  0  0
 26 35  1  0  0  0  0
M  END
> <BCLConfClusterSize>
1

> <ConfClashScore>
0 

> <ConfOneFourInteractionScore>
-0.969249 

> <ConfScore>
0.195734 

> <ConfScorePBest>
0.00569778 

> <ConfTolerance>
0.588174 

> <RosettaParamsInstructions>
M  ROOT 3
M  POLY_N_BB 3
M  POLY_CA_BB 4
M  POLY_C_BB 2
M  POLY_O_BB 5
M  POLY_IGNORE 9 10 11 12 13 14 15 16 17 18 
M  POLY_UPPER 6
M  POLY_LOWER 8
M  POLY_CHG 0
M  POLY_PROPERTIES ALPHA_AA D_AA PROTEIN AROMATIC POLYMER 
M  END

$$$$



 35 35  0  0  0  0  0  0  0  0999 V2000
   -2.7322    0.9713   -0.3539 H   0  0  0  1  0  0  0  0  0  0  0  0
   -3.7341    2.5533    0.6000 C   0  0  0  1  0  0  0  0  0  0  0  0
   -1.3872    1.8699    0.9183 N   0  0  0  1  0  0  0  0  0  0  0  0
   -2.4880    1.9612   -0.0292 C   0  0  0  1  0  0  0  0  0  0  0  0
   -4.8295    2.4621    0.0523 O   0  0  0  1  0  0  0  0  0  0  0  0
   -3.5549    3.1728    1.7774 N   0  0  0  1  0  0  0  0  0  0  0  0
   -0.8295    2.6608    1.0730 H   0  0  0  1  0  0  0  0  0  0  0  0
   -1.1104    0.7455    1.5847 C   0  0  0  1  0  0  0  0  0  0  0  0
   -4.6632    3.8701    2.4124 C   0  0  0  1  0  0  0  0  0  0  0  0
    0.0006    0.8472    2.6218 C   0  0  0  1  0  0  0  0  0  0  0  0
   -1.7042   -0.3138    1.3870 O   0  0  0  1  0  0  0  0  0  0  0  0
   -2.6758    3.1553    2.2103 H   0  0  0  1  0  0  0  0  0  0  0  0
   -4.2877    4.6964    2.9791 H   0  0  0  1  0  0  0  0  0  0  0  0
   -5.1814    3.1975    3.0635 H   0  0  0  1  0  0  0  0  0  0  0  0
   -5.3354    4.2292    1.6613 H   0  0  0  1  0  0  0  0  0  0  0  0
   -0.3816    1.3032    3.5111 H   0  0  0  1  0  0  0  0  0  0  0  0
    0.7994    1.4424    2.2312 H   0  0  0  1  0  0  0  0  0  0  0  0
    0.3645   -0.1324    2.8516 H   0  0  0  1  0  0  0  0  0  0  0  0
   -2.0611    2.7445   -1.2557 C   0  0  0  1  0  0  0  0  0  0  0  0
   -1.7087    4.1919   -0.9537 C   0  0  0  1  0  0  0  0  0  0  0  0
   -1.3960    5.0499   -2.1624 C   0  0  0  1  0  0  0  0  0  0  0  0
   -2.3233    5.2860   -3.1653 C   0  0  0  1  0  0  0  0  0  0  0  0
   -1.9836    6.0727   -4.2497 C   0  0  0  1  0  0  0  0  0  0  0  0
   -0.7170    6.6300   -4.3317 C   0  0  0  1  0  0  0  0  0  0  0  0
    0.2078    6.3947   -3.3319 C   0  0  0  1  0  0  0  0  0  0  0  0
   -0.1331    5.6056   -2.2443 C   0  0  0  1  0  0  0  0  0  0  0  0
   -2.8639    2.7313   -1.9630 H   0  0  0  1  0  0  0  0  0  0  0  0
   -1.2026    2.2679   -1.6808 H   0  0  0  1  0  0  0  0  0  0  0  0
   -0.8503    4.1963   -0.3149 H   0  0  0  1  0  0  0  0  0  0  0  0
   -2.5376    4.6335   -0.4411 H   0  0  0  1  0  0  0  0  0  0  0  0
   -3.2749    4.8712   -3.1018 H   0  0  0  1  0  0  0  0  0  0  0  0
   -2.6781    6.2466   -5.0040 H   0  0  0  1  0  0  0  0  0  0  0  0
   -0.4626    7.2253   -5.1456 H   0  0  0  1  0  0  0  0  0  0  0  0
    1.1593    6.8096   -3.3954 H   0  0  0  1  0  0  0  0  0  0  0  0
    0.5614    5.4318   -1.4900 H   0  0  0  1  0  0  0  0  0  0  0  0
  1  4  1  0  0  0  0
  2  4  1  0  0  0  0
  2  5  2  0  0  0  0
  2  6  1  0  0  0  0
  3  4  1  0  0  0  0
  3  7  1  0  0  0  0
  3  8  1  0  0  0  0
  4 19  1  0  0  0  0
  6  9  1  0  0  0  0
  6 12  1  0  0  0  0
  8 10  1  0  0  0  0
  8 11  2  0  0  0  0
  9 13  1  0  0  0  0
  9 14  1  0  0  0  0
  9 15  1  0  0  0  0
 10 16  1  0  0  0  0
 10 17  1  0  0  0  0
 10 18  1  0  0  0  0
 19 20  1  0  0  0  0
 19 27  1  0  0  0  0
 19 28  1  0  0  0  0
 20 21  1  0  0  0  0
 20 29  1  0  0  0  0
 20 30  1  0  0  0  0
 21 22  4  0  0  0  0
 21 26  4  0  0  0  0
 22 23  4  0  0  0  0
 22 31  1  0  0  0  0
 23 24  4  0  0  0  0
 23 32  1  0  0  0  0
 24 25  4  0  0  0  0
 24 33  1  0  0  0  0
 25 26  4  0  0  0  0
 25 34  1  0  0  0  0
 26 35  1  0  0  0  0
M  END
> <BCLConfClusterSize>
1

> <ConfClashScore>
0 

> <ConfOneFourInteractionScore>
-0.948736 

> <ConfScore>
0.196065 

> <ConfScorePBest>
0.0056693 

> <ConfTolerance>
0.55858 

> <RosettaParamsInstructions>
M  ROOT 3
M  POLY_N_BB 3
M  POLY_CA_BB 4
M  POLY_C_BB 2
M  POLY_O_BB 5
M  POLY_IGNORE 9 10 11 12 13 14 15 16 17 18 
M  POLY_UPPER 6
M  POLY_LOWER 8
M  POLY_CHG 0
M  POLY_PROPERTIES ALPHA_AA D_AA PROTEIN AROMATIC POLYMER 
M  END

$$$$



 35 35  0  0  0  0  0  0  0  0999 V2000
   -1.7079    3.5909    1.6719 H   0  0  0  1  0  0  0  0  0  0  0  0
   -3.7469    3.2528    1.2535 C   0  0  0  1  0  0  0  0  0  0  0  0
   -2.7827    5.1207    2.5595 N   0  0  0  1  0  0  0  0  0  0  0  0
   -2.5663    4.1896    1.4494 C   0  0  0  1  0  0  0  0  0  0  0  0
   -4.0214    2.7962    0.1468 O   0  0  0  1  0  0  0  0  0  0  0  0
   -4.4495    2.9684    2.3511 N   0  0  0  1  0  0  0  0  0  0  0  0
   -2.2022    5.0074    3.3409 H   0  0  0  1  0  0  0  0  0  0  0  0
   -3.6827    6.1081    2.6277 C   0  0  0  1  0  0  0  0  0  0  0  0
   -5.6700    2.1769    2.3096 C   0  0  0  1  0  0  0  0  0  0  0  0
   -3.7003    6.8949    3.9238 C   0  0  0  1  0  0  0  0  0  0  0  0
   -4.4535    6.3750    1.7096 O   0  0  0  1  0  0  0  0  0  0  0  0
   -4.1328    3.3043    3.2156 H   0  0  0  1  0  0  0  0  0  0  0  0
   -5.6084    1.4671    1.5113 H   0  0  0  1  0  0  0  0  0  0  0  0
   -6.5081    2.8223    2.1488 H   0  0  0  1  0  0  0  0  0  0  0  0
   -5.7909    1.6592    3.2382 H   0  0  0  1  0  0  0  0  0  0  0  0
   -2.7707    6.7600    4.4362 H   0  0  0  1  0  0  0  0  0  0  0  0
   -4.5016    6.5464    4.5414 H   0  0  0  1  0  0  0  0  0  0  0  0
   -3.8411    7.9335    3.7084 H   0  0  0  1  0  0  0  0  0  0  0  0
   -2.2538    4.9920    0.2108 C   0  0  0  1  0  0  0  0  0  0  0  0
   -1.7494    4.1904   -0.9781 C   0  0  0  1  0  0  0  0  0  0  0  0
   -1.3870    5.0508   -2.1580 C   0  0  0  1  0  0  0  0  0  0  0  0
   -2.3177    5.2841   -3.1585 C   0  0  0  1  0  0  0  0  0  0  0  0
   -1.9825    6.0702   -4.2447 C   0  0  0  1  0  0  0  0  0  0  0  0
   -0.7172    6.6296   -4.3311 C   0  0  0  1  0  0  0  0  0  0  0  0
    0.2110    6.3971   -3.3337 C   0  0  0  1  0  0  0  0  0  0  0  0
   -0.1254    5.6087   -2.2442 C   0  0  0  1  0  0  0  0  0  0  0  0
   -1.5039    5.7118    0.4649 H   0  0  0  1  0  0  0  0  0  0  0  0
   -3.1478    5.4981   -0.0884 H   0  0  0  1  0  0  0  0  0  0  0  0
   -2.5161    3.5068   -1.2778 H   0  0  0  1  0  0  0  0  0  0  0  0
   -0.8810    3.6431   -0.6762 H   0  0  0  1  0  0  0  0  0  0  0  0
   -3.2683    4.8677   -3.0916 H   0  0  0  1  0  0  0  0  0  0  0  0
   -2.6795    6.2419   -4.9972 H   0  0  0  1  0  0  0  0  0  0  0  0
   -0.4662    7.2244   -5.1464 H   0  0  0  1  0  0  0  0  0  0  0  0
    1.1616    6.8136   -3.4005 H   0  0  0  1  0  0  0  0  0  0  0  0
    0.5716    5.4369   -1.4917 H   0  0  0  1  0  0  0  0  0  0  0  0
  1  4  1  0  0  0  0
  2  4  1  0  0  0  0
  2  5  2  0  0  0  0
  2  6  1  0  0  0  0
  3  4  1  0  0  0  0
  3  7  1  0  0  0  0
  3  8  1  0  0  0  0
  4 19  1  0  0  0  0
  6  9  1  0  0  0  0
  6 12  1  0  0  0  0
  8 10  1  0  0  0  0
  8 11  2  0  0  0  0
  9 13  1  0  0  0  0
  9 14  1  0  0  0  0
  9 15  1  0  0  0  0
 10 16  1  0  0  0  0
 10 17  1  0  0  0  0
 10 18  1  0  0  0  0
 19 20  1  0  0  0  0
 19 27  1  0  0  0  0
 19 28  1  0  0  0  0
 20 21  1  0  0  0  0
 20 29  1  0  0  0  0
 20 30  1  0  0  0  0
 21 22  4  0  0  0  0
 21 26  4  0  0  0  0
 22 23  4  0  0  0  0
 22 31  1  0  0  0  0
 23 24  4  0  0  0  0
 23 32  1  0  0  0  0
 24 25  4  0  0  0  0
 24 33  1  0  0  0  0
 25 26  4  0  0  0  0
 25 34  1  0  0  0  0
 26 35  1  0  0  0  0
M  END
> <BCLConfClusterSize>
1

> <ConfClashScore>
0 

> <ConfOneFourInteractionScore>
-0.967698 

> <ConfScore>
0.19679 

> <ConfScorePBest>
0.00564082 

> <ConfTolerance>
0.288851 

> <RosettaParamsInstructions>
M  ROOT 3
M  POLY_N_BB 3
M  POLY_CA_BB 4
M  POLY_C_BB 2
M  POLY_O_BB 5
M  POLY_IGNORE 9 10 11 12 13 14 15 16 17 18 
M  POLY_UPPER 6
M  POLY_LOWER 8
M  POLY_CHG 0
M  POLY_PROPERTIES ALPHA_AA D_AA PROTEIN AROMATIC POLYMER 
M  END

$$$$



 35 35  0  0  0  0  0  0  0  0999 V2000
   -2.8728    2.1025    0.3317 H   0  0  0  1  0  0  0  0  0  0  0  0
   -0.8557    2.0739    1.0185 C   0  0  0  1  0  0  0  0  0  0  0  0
   -1.9137    0.4333   -0.4580 N   0  0  0  1  0  0  0  0  0  0  0  0
   -1.9127    1.8318   -0.0555 C   0  0  0  1  0  0  0  0  0  0  0  0
   -0.9302    2.9482    1.8610 O   0  0  0  1  0  0  0  0  0  0  0  0
    0.1985    1.2534    0.9959 N   0  0  0  1  0  0  0  0  0  0  0  0
   -1.2813   -0.1821   -0.0316 H   0  0  0  1  0  0  0  0  0  0  0  0
   -2.7550   -0.0455   -1.3979 C   0  0  0  1  0  0  0  0  0  0  0  0
    1.3176    1.4002    1.9145 C   0  0  0  1  0  0  0  0  0  0  0  0
   -2.5226   -1.4485   -1.9115 C   0  0  0  1  0  0  0  0  0  0  0  0
   -3.6845    0.6373   -1.8260 O   0  0  0  1  0  0  0  0  0  0  0  0
    0.2188    0.5275    0.3379 H   0  0  0  1  0  0  0  0  0  0  0  0
    1.8961    0.5000    1.9195 H   0  0  0  1  0  0  0  0  0  0  0  0
    0.9472    1.5912    2.9000 H   0  0  0  1  0  0  0  0  0  0  0  0
    1.9325    2.2172    1.5995 H   0  0  0  1  0  0  0  0  0  0  0  0
   -2.6033   -2.1432   -1.1017 H   0  0  0  1  0  0  0  0  0  0  0  0
   -1.5447   -1.5134   -2.3407 H   0  0  0  1  0  0  0  0  0  0  0  0
   -3.2555   -1.6816   -2.6555 H   0  0  0  1  0  0  0  0  0  0  0  0
   -1.6020    2.7032   -1.2571 C   0  0  0  1  0  0  0  0  0  0  0  0
   -1.7496    4.1900   -0.9776 C   0  0  0  1  0  0  0  0  0  0  0  0
   -1.3870    5.0508   -2.1581 C   0  0  0  1  0  0  0  0  0  0  0  0
   -2.3176    5.2842   -3.1585 C   0  0  0  1  0  0  0  0  0  0  0  0
   -1.9825    6.0702   -4.2447 C   0  0  0  1  0  0  0  0  0  0  0  0
   -0.7171    6.6296   -4.3311 C   0  0  0  1  0  0  0  0  0  0  0  0
    0.2110    6.3971   -3.3337 C   0  0  0  1  0  0  0  0  0  0  0  0
   -0.1254    5.6087   -2.2443 C   0  0  0  1  0  0  0  0  0  0  0  0
   -2.2705    2.4391   -2.0497 H   0  0  0  1  0  0  0  0  0  0  0  0
   -0.5940    2.5138   -1.5620 H   0  0  0  1  0  0  0  0  0  0  0  0
   -1.1105    4.4477   -0.1590 H   0  0  0  1  0  0  0  0  0  0  0  0
   -2.7672    4.3872   -0.7121 H   0  0  0  1  0  0  0  0  0  0  0  0
   -3.2683    4.8677   -3.0917 H   0  0  0  1  0  0  0  0  0  0  0  0
   -2.6795    6.2419   -4.9973 H   0  0  0  1  0  0  0  0  0  0  0  0
   -0.4662    7.2244   -5.1465 H   0  0  0  1  0  0  0  0  0  0  0  0
    1.1616    6.8136   -3.4006 H   0  0  0  1  0  0  0  0  0  0  0  0
    0.5716    5.4370   -1.4918 H   0  0  0  1  0  0  0  0  0  0  0  0
  1  4  1  0  0  0  0
  2  4  1  0  0  0  0
  2  5  2  0  0  0  0
  2  6  1  0  0  0  0
  3  4  1  0  0  0  0
  3  7  1  0  0  0  0
  3  8  1  0  0  0  0
  4 19  1  0  0  0  0
  6  9  1  0  0  0  0
  6 12  1  0  0  0  0
  8 10  1  0  0  0  0
  8 11  2  0  0  0  0
  9 13  1  0  0  0  0
  9 14  1  0  0  0  0
  9 15  1  0  0  0  0
 10 16  1  0  0  0  0
 10 17  1  0  0  0  0
 10 18  1  0  0  0  0
 19 20  1  0  0  0  0
 19 27  1  0  0  0  0
 19 28  1  0  0  0  0
 20 21  1  0  0  0  0
 20 29  1  0  0  0  0
 20 30  1  0  0  0  0
 21 22  4  0  0  0  0
 21 26  4  0  0  0  0
 22 23  4  0  0  0  0
 22 31  1  0  0  0  0
 23 24  4  0  0  0  0
 23 32  1  0  0  0  0
 24 25  4  0  0  0  0
 24 33  1  0  0  0  0
 25 26  4  0  0  0  0
 25 34  1  0  0  0  0
 26 35  1  0  0  0  0
M  END
> <BCLConfClusterSize>
1

> <ConfClashScore>
0 

> <ConfOneFourInteractionScore>
-0.972125 

> <ConfScore>
0.197407 

> <ConfScorePBest>
0.00561234 

> <ConfTolerance>
0.44282 

> <RosettaParamsInstructions>
M  ROOT 3
M  POLY_N_BB 3
M  POLY_CA_BB 4
M  POLY_C_BB 2
M  POLY_O_BB 5
M  POLY_IGNORE 9 10 11 12 13 14 15 16 17 18 
M  POLY_UPPER 6
M  POLY_LOWER 8
M  POLY_CHG 0
M  POLY_PROPERTIES ALPHA_AA D_AA PROTEIN AROMATIC POLYMER 
M  END

$$$$



 35 35  0  0  0  0  0  0  0  0999 V2000
   -3.6349    3.7444    0.9661 H   0  0  0  1  0  0  0  0  0  0  0  0
   -2.6929    1.8725    0.6656 C   0  0  0  1  0  0  0  0  0  0  0  0
   -4.9994    2.4902    0.0419 N   0  0  0  1  0  0  0  0  0  0  0  0
   -3.6369    2.9806    0.2169 C   0  0  0  1  0  0  0  0  0  0  0  0
   -1.8844    1.3637   -0.1064 O   0  0  0  1  0  0  0  0  0  0  0  0
   -2.8392    1.5291    1.9485 N   0  0  0  1  0  0  0  0  0  0  0  0
   -5.3769    2.5140   -0.8622 H   0  0  0  1  0  0  0  0  0  0  0  0
   -5.7715    2.0110    1.0213 C   0  0  0  1  0  0  0  0  0  0  0  0
   -2.1608    0.3793    2.5277 C   0  0  0  1  0  0  0  0  0  0  0  0
   -7.1793    1.6182    0.6178 C   0  0  0  1  0  0  0  0  0  0  0  0
   -5.3858    1.8901    2.1724 O   0  0  0  1  0  0  0  0  0  0  0  0
   -3.4237    2.0704    2.5192 H   0  0  0  1  0  0  0  0  0  0  0  0
   -1.1782    0.6648    2.8409 H   0  0  0  1  0  0  0  0  0  0  0  0
   -2.0898   -0.3984    1.7963 H   0  0  0  1  0  0  0  0  0  0  0  0
   -2.7154    0.0263    3.3719 H   0  0  0  1  0  0  0  0  0  0  0  0
   -7.7498    2.4989    0.4084 H   0  0  0  1  0  0  0  0  0  0  0  0
   -7.6409    1.0761    1.4165 H   0  0  0  1  0  0  0  0  0  0  0  0
   -7.1408    1.0023   -0.2564 H   0  0  0  1  0  0  0  0  0  0  0  0
   -3.1473    3.5937   -1.0810 C   0  0  0  1  0  0  0  0  0  0  0  0
   -1.7496    4.1900   -0.9776 C   0  0  0  1  0  0  0  0  0  0  0  0
   -1.3870    5.0508   -2.1581 C   0  0  0  1  0  0  0  0  0  0  0  0
   -2.3176    5.2842   -3.1585 C   0  0  0  1  0  0  0  0  0  0  0  0
   -1.9825    6.0702   -4.2447 C   0  0  0  1  0  0  0  0  0  0  0  0
   -0.7171    6.6296   -4.3311 C   0  0  0  1  0  0  0  0  0  0  0  0
    0.2110    6.3971   -3.3337 C   0  0  0  1  0  0  0  0  0  0  0  0
   -0.1254    5.6087   -2.2443 C   0  0  0  1  0  0  0  0  0  0  0  0
   -3.8266    4.3692   -1.3673 H   0  0  0  1  0  0  0  0  0  0  0  0
   -3.1366    2.8326   -1.8330 H   0  0  0  1  0  0  0  0  0  0  0  0
   -1.0423    3.3901   -0.9093 H   0  0  0  1  0  0  0  0  0  0  0  0
   -1.6991    4.7880   -0.0917 H   0  0  0  1  0  0  0  0  0  0  0  0
   -3.2683    4.8677   -3.0917 H   0  0  0  1  0  0  0  0  0  0  0  0
   -2.6795    6.2419   -4.9973 H   0  0  0  1  0  0  0  0  0  0  0  0
   -0.4662    7.2244   -5.1465 H   0  0  0  1  0  0  0  0  0  0  0  0
    1.1616    6.8136   -3.4006 H   0  0  0  1  0  0  0  0  0  0  0  0
    0.5716    5.4370   -1.4918 H   0  0  0  1  0  0  0  0  0  0  0  0
  1  4  1  0  0  0  0
  2  4  1  0  0  0  0
  2  5  2  0  0  0  0
  2  6  1  0  0  0  0
  3  4  1  0  0  0  0
  3  7  1  0  0  0  0
  3  8  1  0  0  0  0
  4 19  1  0  0  0  0
  6  9  1  0  0  0  0
  6 12  1  0  0  0  0
  8 10  1  0  0  0  0
  8 11  2  0  0  0  0
  9 13  1  0  0  0  0
  9 14  1  0  0  0  0
  9 15  1  0  0  0  0
 10 16  1  0  0  0  0
 10 17  1  0  0  0  0
 10 18  1  0  0  0  0
 19 20  1  0  0  0  0
 19 27  1  0  0  0  0
 19 28  1  0  0  0  0
 20 21  1  0  0  0  0
 20 29  1  0  0  0  0
 20 30  1  0  0  0  0
 21 22  4  0  0  0  0
 21 26  4  0  0  0  0
 22 23  4  0  0  0  0
 22 31  1  0  0  0  0
 23 24  4  0  0  0  0
 23 32  1  0  0  0  0
 24 25  4  0  0  0  0
 24 33  1  0  0  0  0
 25 26  4  0  0  0  0
 25 34  1  0  0  0  0
 26 35  1  0  0  0  0
M  END
> <BCLConfClusterSize>
1

> <ConfClashScore>
0 

> <ConfOneFourInteractionScore>
-0.979822 

> <ConfScore>
0.197525 

> <ConfScorePBest>
0.00558386 

> <ConfTolerance>
0.562939 

> <RosettaParamsInstructions>
M  ROOT 3
M  POLY_N_BB 3
M  POLY_CA_BB 4
M  POLY_C_BB 2
M  POLY_O_BB 5
M  POLY_IGNORE 9 10 11 12 13 14 15 16 17 18 
M  POLY_UPPER 6
M  POLY_LOWER 8
M  POLY_CHG 0
M  POLY_PROPERTIES ALPHA_AA D_AA PROTEIN AROMATIC POLYMER 
M  END

$$$$



 35 35  0  0  0  0  0  0  0  0999 V2000
   -1.9079    3.5349    1.7839 H   0  0  0  1  0  0  0  0  0  0  0  0
   -3.6347    2.8103    0.7988 C   0  0  0  1  0  0  0  0  0  0  0  0
   -3.5078    4.7126    2.3599 N   0  0  0  1  0  0  0  0  0  0  0  0
   -2.7910    3.9523    1.3470 C   0  0  0  1  0  0  0  0  0  0  0  0
   -3.0953    1.7826    0.4210 O   0  0  0  1  0  0  0  0  0  0  0  0
   -4.9608    2.9676    0.8405 N   0  0  0  1  0  0  0  0  0  0  0  0
   -4.1587    5.3867    2.0728 H   0  0  0  1  0  0  0  0  0  0  0  0
   -3.3077    4.5222    3.6785 C   0  0  0  1  0  0  0  0  0  0  0  0
   -5.8795    1.9597    0.3326 C   0  0  0  1  0  0  0  0  0  0  0  0
   -4.1314    5.4416    4.5590 C   0  0  0  1  0  0  0  0  0  0  0  0
   -2.5375    3.6905    4.1569 O   0  0  0  1  0  0  0  0  0  0  0  0
   -5.3276    3.7903    1.2264 H   0  0  0  1  0  0  0  0  0  0  0  0
   -5.4802    1.5312   -0.5628 H   0  0  0  1  0  0  0  0  0  0  0  0
   -6.8246    2.4139    0.1197 H   0  0  0  1  0  0  0  0  0  0  0  0
   -6.0092    1.1929    1.0676 H   0  0  0  1  0  0  0  0  0  0  0  0
   -5.1703    5.3115    4.3380 H   0  0  0  1  0  0  0  0  0  0  0  0
   -3.8520    6.4576    4.3733 H   0  0  0  1  0  0  0  0  0  0  0  0
   -3.9534    5.2044    5.5871 H   0  0  0  1  0  0  0  0  0  0  0  0
   -2.3688    4.8730    0.2289 C   0  0  0  1  0  0  0  0  0  0  0  0
   -1.7068    4.1969   -0.9607 C   0  0  0  1  0  0  0  0  0  0  0  0
   -1.3961    5.0494   -2.1618 C   0  0  0  1  0  0  0  0  0  0  0  0
   -2.3235    5.2856   -3.1647 C   0  0  0  1  0  0  0  0  0  0  0  0
   -1.9838    6.0723   -4.2490 C   0  0  0  1  0  0  0  0  0  0  0  0
   -0.7172    6.6296   -4.3310 C   0  0  0  1  0  0  0  0  0  0  0  0
    0.2076    6.3943   -3.3312 C   0  0  0  1  0  0  0  0  0  0  0  0
   -0.1333    5.6052   -2.2437 C   0  0  0  1  0  0  0  0  0  0  0  0
   -1.6774    5.5839    0.6307 H   0  0  0  1  0  0  0  0  0  0  0  0
   -3.2404    5.3830   -0.1249 H   0  0  0  1  0  0  0  0  0  0  0  0
   -2.3569    3.4114   -1.2851 H   0  0  0  1  0  0  0  0  0  0  0  0
   -0.7838    3.7780   -0.6180 H   0  0  0  1  0  0  0  0  0  0  0  0
   -3.2750    4.8707   -3.1011 H   0  0  0  1  0  0  0  0  0  0  0  0
   -2.6783    6.2461   -5.0033 H   0  0  0  1  0  0  0  0  0  0  0  0
   -0.4628    7.2249   -5.1450 H   0  0  0  1  0  0  0  0  0  0  0  0
    1.1592    6.8091   -3.3948 H   0  0  0  1  0  0  0  0  0  0  0  0
    0.5612    5.4313   -1.4894 H   0  0  0  1  0  0  0  0  0  0  0  0
  1  4  1  0  0  0  0
  2  4  1  0  0  0  0
  2  5  2  0  0  0  0
  2  6  1  0  0  0  0
  3  4  1  0  0  0  0
  3  7  1  0  0  0  0
  3  8  1  0  0  0  0
  4 19  1  0  0  0  0
  6  9  1  0  0  0  0
  6 12  1  0  0  0  0
  8 10  1  0  0  0  0
  8 11  2  0  0  0  0
  9 13  1  0  0  0  0
  9 14  1  0  0  0  0
  9 15  1  0  0  0  0
 10 16  1  0  0  0  0
 10 17  1  0  0  0  0
 10 18  1  0  0  0  0
 19 20  1  0  0  0  0
 19 27  1  0  0  0  0
 19 28  1  0  0  0  0
 20 21  1  0  0  0  0
 20 29  1  0  0  0  0
 20 30  1  0  0  0  0
 21 22  4  0  0  0  0
 21 26  4  0  0  0  0
 22 23  4  0  0  0  0
 22 31  1  0  0  0  0
 23 24  4  0  0  0  0
 23 32  1  0  0  0  0
 24 25  4  0  0  0  0
 24 33  1  0  0  0  0
 25 26  4  0  0  0  0
 25 34  1  0  0  0  0
 26 35  1  0  0  0  0
M  END
> <BCLConfClusterSize>
1

> <ConfClashScore>
0 

> <ConfOneFourInteractionScore>
-0.970454 

> <ConfScore>
0.198258 

> <ConfScorePBest>
0.00555537 

> <ConfTolerance>
0.496214 

> <RosettaParamsInstructions>
M  ROOT 3
M  POLY_N_BB 3
M  POLY_CA_BB 4
M  POLY_C_BB 2
M  POLY_O_BB 5
M  POLY_IGNORE 9 10 11 12 13 14 15 16 17 18 
M  POLY_UPPER 6
M  POLY_LOWER 8
M  POLY_CHG 0
M  POLY_PROPERTIES ALPHA_AA D_AA PROTEIN AROMATIC POLYMER 
M  END

$$$$



 35 35  0  0  0  0  0  0  0  0999 V2000
   -1.9913    3.8569    1.6638 H   0  0  0  1  0  0  0  0  0  0  0  0
   -3.6686    2.8286    0.9111 C   0  0  0  1  0  0  0  0  0  0  0  0
   -3.6714    4.9491    2.1838 N   0  0  0  1  0  0  0  0  0  0  0  0
   -2.9336    4.1168    1.2288 C   0  0  0  1  0  0  0  0  0  0  0  0
   -3.5999    2.3224   -0.2081 O   0  0  0  1  0  0  0  0  0  0  0  0
   -4.3945    2.2592    1.8863 N   0  0  0  1  0  0  0  0  0  0  0  0
   -4.1224    5.7466    1.8359 H   0  0  0  1  0  0  0  0  0  0  0  0
   -3.7756    4.7013    3.4983 C   0  0  0  1  0  0  0  0  0  0  0  0
   -5.2306    1.1041    1.5955 C   0  0  0  1  0  0  0  0  0  0  0  0
   -4.5130    5.7379    4.3464 C   0  0  0  1  0  0  0  0  0  0  0  0
   -3.2368    3.7323    4.0317 O   0  0  0  1  0  0  0  0  0  0  0  0
   -4.3613    2.6222    2.7960 H   0  0  0  1  0  0  0  0  0  0  0  0
   -4.9512    0.6902    0.6492 H   0  0  0  1  0  0  0  0  0  0  0  0
   -6.2567    1.4059    1.5635 H   0  0  0  1  0  0  0  0  0  0  0  0
   -5.0986    0.3671    2.3598 H   0  0  0  1  0  0  0  0  0  0  0  0
   -5.2804    5.2544    4.9141 H   0  0  0  1  0  0  0  0  0  0  0  0
   -4.9532    6.4739    3.7066 H   0  0  0  1  0  0  0  0  0  0  0  0
   -3.8216    6.2109    5.0121 H   0  0  0  1  0  0  0  0  0  0  0  0
   -2.6523    4.9483   -0.0133 C   0  0  0  1  0  0  0  0  0  0  0  0
   -1.7496    4.1900   -0.9776 C   0  0  0  1  0  0  0  0  0  0  0  0
   -1.3870    5.0508   -2.1581 C   0  0  0  1  0  0  0  0  0  0  0  0
   -2.3176    5.2842   -3.1585 C   0  0  0  1  0  0  0  0  0  0  0  0
   -1.9825    6.0702   -4.2447 C   0  0  0  1  0  0  0  0  0  0  0  0
   -0.7171    6.6296   -4.3311 C   0  0  0  1  0  0  0  0  0  0  0  0
    0.2110    6.3971   -3.3337 C   0  0  0  1  0  0  0  0  0  0  0  0
   -0.1254    5.6087   -2.2443 C   0  0  0  1  0  0  0  0  0  0  0  0
   -2.1705    5.8589    0.2758 H   0  0  0  1  0  0  0  0  0  0  0  0
   -3.5773    5.1732   -0.5019 H   0  0  0  1  0  0  0  0  0  0  0  0
   -2.2616    3.3168   -1.3243 H   0  0  0  1  0  0  0  0  0  0  0  0
   -0.8552    3.9004   -0.4667 H   0  0  0  1  0  0  0  0  0  0  0  0
   -3.2683    4.8677   -3.0917 H   0  0  0  1  0  0  0  0  0  0  0  0
   -2.6795    6.2419   -4.9973 H   0  0  0  1  0  0  0  0  0  0  0  0
   -0.4662    7.2244   -5.1465 H   0  0  0  1  0  0  0  0  0  0  0  0
    1.1616    6.8136   -3.4006 H   0  0  0  1  0  0  0  0  0  0  0  0
    0.5716    5.4370   -1.4918 H   0  0  0  1  0  0  0  0  0  0  0  0
  1  4  1  0  0  0  0
  2  4  1  0  0  0  0
  2  5  2  0  0  0  0
  2  6  1  0  0  0  0
  3  4  1  0  0  0  0
  3  7  1  0  0  0  0
  3  8  1  0  0  0  0
  4 19  1  0  0  0  0
  6  9  1  0  0  0  0
  6 12  1  0  0  0  0
  8 10  1  0  0  0  0
  8 11  2  0  0  0  0
  9 13  1  0  0  0  0
  9 14  1  0  0  0  0
  9 15  1  0  0  0  0
 10 16  1  0  0  0  0
 10 17  1  0  0  0  0
 10 18  1  0  0  0  0
 19 20  1  0  0  0  0
 19 27  1  0  0  0  0
 19 28  1  0  0  0  0
 20 21  1  0  0  0  0
 20 29  1  0  0  0  0
 20 30  1  0  0  0  0
 21 22  4  0  0  0  0
 21 26  4  0  0  0  0
 22 23  4  0  0  0  0
 22 31  1  0  0  0  0
 23 24  4  0  0  0  0
 23 32  1  0  0  0  0
 24 25  4  0  0  0  0
 24 33  1  0  0  0  0
 25 26  4  0  0  0  0
 25 34  1  0  0  0  0
 26 35  1  0  0  0  0
M  END
> <BCLConfClusterSize>
1

> <ConfClashScore>
0 

> <ConfOneFourInteractionScore>
-0.970159 

> <ConfScore>
0.200066 

> <ConfScorePBest>
0.00552689 

> <ConfTolerance>
0.402851 

> <RosettaParamsInstructions>
M  ROOT 3
M  POLY_N_BB 3
M  POLY_CA_BB 4
M  POLY_C_BB 2
M  POLY_O_BB 5
M  POLY_IGNORE 9 10 11 12 13 14 15 16 17 18 
M  POLY_UPPER 6
M  POLY_LOWER 8
M  POLY_CHG 0
M  POLY_PROPERTIES ALPHA_AA D_AA PROTEIN AROMATIC POLYMER 
M  END

$$$$



 35 35  0  0  0  0  0  0  0  0999 V2000
   -3.3328    3.8584    1.3673 H   0  0  0  1  0  0  0  0  0  0  0  0
   -2.0183    4.6615    2.8303 C   0  0  0  1  0  0  0  0  0  0  0  0
   -1.6344    2.6733    1.4739 N   0  0  0  1  0  0  0  0  0  0  0  0
   -2.2767    3.9791    1.4894 C   0  0  0  1  0  0  0  0  0  0  0  0
   -0.9292    4.5922    3.3768 O   0  0  0  1  0  0  0  0  0  0  0  0
   -3.0526    5.3275    3.3515 N   0  0  0  1  0  0  0  0  0  0  0  0
   -0.6949    2.5936    1.2069 H   0  0  0  1  0  0  0  0  0  0  0  0
   -2.3297    1.5721    1.8264 C   0  0  0  1  0  0  0  0  0  0  0  0
   -2.8738    5.9677    4.6461 C   0  0  0  1  0  0  0  0  0  0  0  0
   -1.5255    0.2822    1.7268 C   0  0  0  1  0  0  0  0  0  0  0  0
   -3.5007    1.5737    2.1970 O   0  0  0  1  0  0  0  0  0  0  0  0
   -3.9074    5.3834    2.8755 H   0  0  0  1  0  0  0  0  0  0  0  0
   -2.2417    5.3609    5.2603 H   0  0  0  1  0  0  0  0  0  0  0  0
   -3.8257    6.0847    5.1204 H   0  0  0  1  0  0  0  0  0  0  0  0
   -2.4223    6.9281    4.5094 H   0  0  0  1  0  0  0  0  0  0  0  0
   -1.9693   -0.3597    0.9947 H   0  0  0  1  0  0  0  0  0  0  0  0
   -1.5218   -0.2098    2.6769 H   0  0  0  1  0  0  0  0  0  0  0  0
   -0.5206    0.5102    1.4387 H   0  0  0  1  0  0  0  0  0  0  0  0
   -1.7613    4.8619    0.3691 C   0  0  0  1  0  0  0  0  0  0  0  0
   -1.7891    4.1846   -0.9948 C   0  0  0  1  0  0  0  0  0  0  0  0
   -1.3784    5.0520   -2.1545 C   0  0  0  1  0  0  0  0  0  0  0  0
   -2.3122    5.2828   -3.1526 C   0  0  0  1  0  0  0  0  0  0  0  0
   -1.9813    6.0682   -4.2406 C   0  0  0  1  0  0  0  0  0  0  0  0
   -0.7171    6.6296   -4.3310 C   0  0  0  1  0  0  0  0  0  0  0  0
    0.2141    6.3997   -3.3359 C   0  0  0  1  0  0  0  0  0  0  0  0
   -0.1180    5.6119   -2.2447 C   0  0  0  1  0  0  0  0  0  0  0  0
   -0.7513    5.1366    0.5910 H   0  0  0  1  0  0  0  0  0  0  0  0
   -2.3689    5.7415    0.3235 H   0  0  0  1  0  0  0  0  0  0  0  0
   -2.7877    3.8446   -1.1742 H   0  0  0  1  0  0  0  0  0  0  0  0
   -1.1268    3.3449   -0.9599 H   0  0  0  1  0  0  0  0  0  0  0  0
   -3.2620    4.8648   -3.0828 H   0  0  0  1  0  0  0  0  0  0  0  0
   -2.6806    6.2379   -4.9914 H   0  0  0  1  0  0  0  0  0  0  0  0
   -0.4693    7.2239   -5.1477 H   0  0  0  1  0  0  0  0  0  0  0  0
    1.1639    6.8177   -3.4058 H   0  0  0  1  0  0  0  0  0  0  0  0
    0.5813    5.4421   -1.4939 H   0  0  0  1  0  0  0  0  0  0  0  0
  1  4  1  0  0  0  0
  2  4  1  0  0  0  0
  2  5  2  0  0  0  0
  2  6  1  0  0  0  0
  3  4  1  0  0  0  0
  3  7  1  0  0  0  0
  3  8  1  0  0  0  0
  4 19  1  0  0  0  0
  6  9  1  0  0  0  0
  6 12  1  0  0  0  0
  8 10  1  0  0  0  0
  8 11  2  0  0  0  0
  9 13  1  0  0  0  0
  9 14  1  0  0  0  0
  9 15  1  0  0  0  0
 10 16  1  0  0  0  0
 10 17  1  0  0  0  0
 10 18  1  0  0  0  0
 19 20  1  0  0  0  0
 19 27  1  0  0  0  0
 19 28  1  0  0  0  0
 20 21  1  0  0  0  0
 20 29  1  0  0  0  0
 20 30  1  0  0  0  0
 21 22  4  0  0  0  0
 21 26  4  0  0  0  0
 22 23  4  0  0  0  0
 22 31  1  0  0  0  0
 23 24  4  0  0  0  0
 23 32  1  0  0  0  0
 24 25  4  0  0  0  0
 24 33  1  0  0  0  0
 25 26  4  0  0  0  0
 25 34  1  0  0  0  0
 26 35  1  0  0  0  0
M  END
> <BCLConfClusterSize>
1

> <ConfClashScore>
0 

> <ConfOneFourInteractionScore>
-0.991445 

> <ConfScore>
0.202453 

> <ConfScorePBest>
0.00549841 

> <ConfTolerance>
0.472767 

> <RosettaParamsInstructions>
M  ROOT 3
M  POLY_N_BB 3
M  POLY_CA_BB 4
M  POLY_C_BB 2
M  POLY_O_BB 5
M  POLY_IGNORE 9 10 11 12 13 14 15 16 17 18 
M  POLY_UPPER 6
M  POLY_LOWER 8
M  POLY_CHG 0
M  POLY_PROPERTIES ALPHA_AA D_AA PROTEIN AROMATIC POLYMER 
M  END

$$$$



 35 35  0  0  0  0  0  0  0  0999 V2000
   -1.2995    2.1573    0.8092 H   0  0  0  1  0  0  0  0  0  0  0  0
   -1.2579    0.3801   -0.2733 C   0  0  0  1  0  0  0  0  0  0  0  0
   -3.1934    1.8914    0.0781 N   0  0  0  1  0  0  0  0  0  0  0  0
   -1.7375    1.8083   -0.1026 C   0  0  0  1  0  0  0  0  0  0  0  0
   -1.8339   -0.5571    0.2776 O   0  0  0  1  0  0  0  0  0  0  0  0
   -0.1789    0.2168   -1.0552 N   0  0  0  1  0  0  0  0  0  0  0  0
   -3.5460    2.3192    0.8862 H   0  0  0  1  0  0  0  0  0  0  0  0
   -4.0531    1.4041   -0.8210 C   0  0  0  1  0  0  0  0  0  0  0  0
    0.3338   -1.0988   -1.4077 C   0  0  0  1  0  0  0  0  0  0  0  0
   -5.5182    1.5814   -0.4923 C   0  0  0  1  0  0  0  0  0  0  0  0
   -3.6942    0.8439   -1.8559 O   0  0  0  1  0  0  0  0  0  0  0  0
    0.2796    1.0112   -1.4005 H   0  0  0  1  0  0  0  0  0  0  0  0
   -0.4724   -1.8019   -1.4305 H   0  0  0  1  0  0  0  0  0  0  0  0
    1.0551   -1.4070   -0.6800 H   0  0  0  1  0  0  0  0  0  0  0  0
    0.7956   -1.0547   -2.3719 H   0  0  0  1  0  0  0  0  0  0  0  0
   -5.7105    1.2109    0.4930 H   0  0  0  1  0  0  0  0  0  0  0  0
   -6.1103    1.0386   -1.1991 H   0  0  0  1  0  0  0  0  0  0  0  0
   -5.7705    2.6202   -0.5380 H   0  0  0  1  0  0  0  0  0  0  0  0
   -1.2656    2.7637   -1.1818 C   0  0  0  1  0  0  0  0  0  0  0  0
   -1.7496    4.1900   -0.9776 C   0  0  0  1  0  0  0  0  0  0  0  0
   -1.3870    5.0508   -2.1581 C   0  0  0  1  0  0  0  0  0  0  0  0
   -2.3176    5.2842   -3.1585 C   0  0  0  1  0  0  0  0  0  0  0  0
   -1.9825    6.0702   -4.2447 C   0  0  0  1  0  0  0  0  0  0  0  0
   -0.7171    6.6296   -4.3311 C   0  0  0  1  0  0  0  0  0  0  0  0
    0.2110    6.3971   -3.3337 C   0  0  0  1  0  0  0  0  0  0  0  0
   -0.1254    5.6087   -2.2443 C   0  0  0  1  0  0  0  0  0  0  0  0
   -1.6278    2.4144   -2.1261 H   0  0  0  1  0  0  0  0  0  0  0  0
   -0.1956    2.7662   -1.1884 H   0  0  0  1  0  0  0  0  0  0  0  0
   -1.2942    4.5924   -0.0969 H   0  0  0  1  0  0  0  0  0  0  0  0
   -2.8131    4.1861   -0.8598 H   0  0  0  1  0  0  0  0  0  0  0  0
   -3.2683    4.8677   -3.0917 H   0  0  0  1  0  0  0  0  0  0  0  0
   -2.6795    6.2419   -4.9973 H   0  0  0  1  0  0  0  0  0  0  0  0
   -0.4662    7.2244   -5.1465 H   0  0  0  1  0  0  0  0  0  0  0  0
    1.1616    6.8136   -3.4006 H   0  0  0  1  0  0  0  0  0  0  0  0
    0.5716    5.4370   -1.4918 H   0  0  0  1  0  0  0  0  0  0  0  0
  1  4  1  0  0  0  0
  2  4  1  0  0  0  0
  2  5  2  0  0  0  0
  2  6  1  0  0  0  0
  3  4  1  0  0  0  0
  3  7  1  0  0  0  0
  3  8  1  0  0  0  0
  4 19  1  0  0  0  0
  6  9  1  0  0  0  0
  6 12  1  0  0  0  0
  8 10  1  0  0  0  0
  8 11  2  0  0  0  0
  9 13  1  0  0  0  0
  9 14  1  0  0  0  0
  9 15  1  0  0  0  0
 10 16  1  0  0  0  0
 10 17  1  0  0  0  0
 10 18  1  0  0  0  0
 19 20  1  0  0  0  0
 19 27  1  0  0  0  0
 19 28  1  0  0  0  0
 20 21  1  0  0  0  0
 20 29  1  0  0  0  0
 20 30  1  0  0  0  0
 21 22  4  0  0  0  0
 21 26  4  0  0  0  0
 22 23  4  0  0  0  0
 22 31  1  0  0  0  0
 23 24  4  0  0  0  0
 23 32  1  0  0  0  0
 24 25  4  0  0  0  0
 24 33  1  0  0  0  0
 25 26  4  0  0  0  0
 25 34  1  0  0  0  0
 26 35  1  0  0  0  0
M  END
> <BCLConfClusterSize>
1

> <ConfClashScore>
0 

> <ConfOneFourInteractionScore>
-0.948727 

> <ConfScore>
0.203768 

> <ConfScorePBest>
0.00546993 

> <ConfTolerance>
0.392959 

> <RosettaParamsInstructions>
M  ROOT 3
M  POLY_N_BB 3
M  POLY_CA_BB 4
M  POLY_C_BB 2
M  POLY_O_BB 5
M  POLY_IGNORE 9 10 11 12 13 14 15 16 17 18 
M  POLY_UPPER 6
M  POLY_LOWER 8
M  POLY_CHG 0
M  POLY_PROPERTIES ALPHA_AA D_AA PROTEIN AROMATIC POLYMER 
M  END

$$$$



 35 35  0  0  0  0  0  0  0  0999 V2000
   -3.3506    3.1406    0.8579 H   0  0  0  1  0  0  0  0  0  0  0  0
   -3.8484    4.5767    2.2798 C   0  0  0  1  0  0  0  0  0  0  0  0
   -1.6540    3.4658    1.9568 N   0  0  0  1  0  0  0  0  0  0  0  0
   -2.8590    3.9845    1.2951 C   0  0  0  1  0  0  0  0  0  0  0  0
   -4.5050    5.5786    2.0088 O   0  0  0  1  0  0  0  0  0  0  0  0
   -3.9223    3.9055    3.4400 N   0  0  0  1  0  0  0  0  0  0  0  0
   -1.0356    4.0991    2.3773 H   0  0  0  1  0  0  0  0  0  0  0  0
   -1.3708    2.1552    2.0052 C   0  0  0  1  0  0  0  0  0  0  0  0
   -4.6159    4.3737    4.6306 C   0  0  0  1  0  0  0  0  0  0  0  0
   -0.0724    1.7869    2.6963 C   0  0  0  1  0  0  0  0  0  0  0  0
   -2.1042    1.2944    1.5260 O   0  0  0  1  0  0  0  0  0  0  0  0
   -3.4756    3.0346    3.4889 H   0  0  0  1  0  0  0  0  0  0  0  0
   -4.6891    5.4409    4.6049 H   0  0  0  1  0  0  0  0  0  0  0  0
   -4.0707    4.0747    5.5014 H   0  0  0  1  0  0  0  0  0  0  0  0
   -5.5978    3.9497    4.6610 H   0  0  0  1  0  0  0  0  0  0  0  0
   -0.1170    2.0855    3.7229 H   0  0  0  1  0  0  0  0  0  0  0  0
    0.7419    2.2868    2.2148 H   0  0  0  1  0  0  0  0  0  0  0  0
    0.0741    0.7285    2.6390 H   0  0  0  1  0  0  0  0  0  0  0  0
   -2.4975    4.8984    0.1400 C   0  0  0  1  0  0  0  0  0  0  0  0
   -1.7496    4.1900   -0.9776 C   0  0  0  1  0  0  0  0  0  0  0  0
   -1.3870    5.0508   -2.1581 C   0  0  0  1  0  0  0  0  0  0  0  0
   -2.3176    5.2842   -3.1585 C   0  0  0  1  0  0  0  0  0  0  0  0
   -1.9825    6.0702   -4.2447 C   0  0  0  1  0  0  0  0  0  0  0  0
   -0.7171    6.6296   -4.3311 C   0  0  0  1  0  0  0  0  0  0  0  0
    0.2110    6.3971   -3.3337 C   0  0  0  1  0  0  0  0  0  0  0  0
   -0.1254    5.6087   -2.2443 C   0  0  0  1  0  0  0  0  0  0  0  0
   -1.8805    5.6890    0.5132 H   0  0  0  1  0  0  0  0  0  0  0  0
   -3.3997    5.3093   -0.2627 H   0  0  0  1  0  0  0  0  0  0  0  0
   -2.3647    3.3885   -1.3301 H   0  0  0  1  0  0  0  0  0  0  0  0
   -0.8444    3.7923   -0.5686 H   0  0  0  1  0  0  0  0  0  0  0  0
   -3.2683    4.8677   -3.0917 H   0  0  0  1  0  0  0  0  0  0  0  0
   -2.6795    6.2419   -4.9973 H   0  0  0  1  0  0  0  0  0  0  0  0
   -0.4662    7.2244   -5.1465 H   0  0  0  1  0  0  0  0  0  0  0  0
    1.1616    6.8136   -3.4006 H   0  0  0  1  0  0  0  0  0  0  0  0
    0.5716    5.4370   -1.4918 H   0  0  0  1  0  0  0  0  0  0  0  0
  1  4  1  0  0  0  0
  2  4  1  0  0  0  0
  2  5  2  0  0  0  0
  2  6  1  0  0  0  0
  3  4  1  0  0  0  0
  3  7  1  0  0  0  0
  3  8  1  0  0  0  0
  4 19  1  0  0  0  0
  6  9  1  0  0  0  0
  6 12  1  0  0  0  0
  8 10  1  0  0  0  0
  8 11  2  0  0  0  0
  9 13  1  0  0  0  0
  9 14  1  0  0  0  0
  9 15  1  0  0  0  0
 10 16  1  0  0  0  0
 10 17  1  0  0  0  0
 10 18  1  0  0  0  0
 19 20  1  0  0  0  0
 19 27  1  0  0  0  0
 19 28  1  0  0  0  0
 20 21  1  0  0  0  0
 20 29  1  0  0  0  0
 20 30  1  0  0  0  0
 21 22  4  0  0  0  0
 21 26  4  0  0  0  0
 22 23  4  0  0  0  0
 22 31  1  0  0  0  0
 23 24  4  0  0  0  0
 23 32  1  0  0  0  0
 24 25  4  0  0  0  0
 24 33  1  0  0  0  0
 25 26  4  0  0  0  0
 25 34  1  0  0  0  0
 26 35  1  0  0  0  0
M  END
> <BCLConfClusterSize>
1

> <ConfClashScore>
0 

> <ConfOneFourInteractionScore>
-0.970159 

> <ConfScore>
0.204071 

> <ConfScorePBest>
0.00544145 

> <ConfTolerance>
0.296687 

> <RosettaParamsInstructions>
M  ROOT 3
M  POLY_N_BB 3
M  POLY_CA_BB 4
M  POLY_C_BB 2
M  POLY_O_BB 5
M  POLY_IGNORE 9 10 11 12 13 14 15 16 17 18 
M  POLY_UPPER 6
M  POLY_LOWER 8
M  POLY_CHG 0
M  POLY_PROPERTIES ALPHA_AA D_AA PROTEIN AROMATIC POLYMER 
M  END

$$$$



 35 35  0  0  0  0  0  0  0  0999 V2000
   -3.0976    1.8421   -0.2248 H   0  0  0  1  0  0  0  0  0  0  0  0
   -1.5501    2.0660    1.1858 C   0  0  0  1  0  0  0  0  0  0  0  0
   -1.7030    0.3785   -0.6110 N   0  0  0  1  0  0  0  0  0  0  0  0
   -2.0324    1.7412   -0.2207 C   0  0  0  1  0  0  0  0  0  0  0  0
   -1.2942    3.2194    1.5214 O   0  0  0  1  0  0  0  0  0  0  0  0
   -1.4279    1.0237    2.0127 N   0  0  0  1  0  0  0  0  0  0  0  0
   -0.7762    0.0839   -0.4900 H   0  0  0  1  0  0  0  0  0  0  0  0
   -2.5691   -0.5014   -1.1218 C   0  0  0  1  0  0  0  0  0  0  0  0
   -0.9617    1.1694    3.3836 C   0  0  0  1  0  0  0  0  0  0  0  0
   -2.0638   -1.9254   -1.2485 C   0  0  0  1  0  0  0  0  0  0  0  0
   -3.7057   -0.1949   -1.4719 O   0  0  0  1  0  0  0  0  0  0  0  0
   -1.6604    0.1300    1.6847 H   0  0  0  1  0  0  0  0  0  0  0  0
   -0.3284    0.3444    3.6350 H   0  0  0  1  0  0  0  0  0  0  0  0
   -1.8020    1.1884    4.0457 H   0  0  0  1  0  0  0  0  0  0  0  0
   -0.4119    2.0825    3.4779 H   0  0  0  1  0  0  0  0  0  0  0  0
   -1.1830   -1.9392   -1.8557 H   0  0  0  1  0  0  0  0  0  0  0  0
   -2.8191   -2.5325   -1.7022 H   0  0  0  1  0  0  0  0  0  0  0  0
   -1.8329   -2.3094   -0.2768 H   0  0  0  1  0  0  0  0  0  0  0  0
   -1.4923    2.7082   -1.2183 C   0  0  0  1  0  0  0  0  0  0  0  0
   -1.7496    4.1900   -0.9776 C   0  0  0  1  0  0  0  0  0  0  0  0
   -1.3870    5.0508   -2.1581 C   0  0  0  1  0  0  0  0  0  0  0  0
   -2.3176    5.2842   -3.1585 C   0  0  0  1  0  0  0  0  0  0  0  0
   -1.9825    6.0702   -4.2447 C   0  0  0  1  0  0  0  0  0  0  0  0
   -0.7171    6.6296   -4.3311 C   0  0  0  1  0  0  0  0  0  0  0  0
    0.2110    6.3971   -3.3337 C   0  0  0  1  0  0  0  0  0  0  0  0
   -0.1254    5.6087   -2.2443 C   0  0  0  1  0  0  0  0  0  0  0  0
   -1.9189    2.4598   -2.1676 H   0  0  0  1  0  0  0  0  0  0  0  0
   -0.4320    2.5699   -1.2559 H   0  0  0  1  0  0  0  0  0  0  0  0
   -1.1687    4.5042   -0.1357 H   0  0  0  1  0  0  0  0  0  0  0  0
   -2.7894    4.3249   -0.7644 H   0  0  0  1  0  0  0  0  0  0  0  0
   -3.2683    4.8677   -3.0917 H   0  0  0  1  0  0  0  0  0  0  0  0
   -2.6795    6.2419   -4.9973 H   0  0  0  1  0  0  0  0  0  0  0  0
   -0.4662    7.2244   -5.1465 H   0  0  0  1  0  0  0  0  0  0  0  0
    1.1616    6.8136   -3.4006 H   0  0  0  1  0  0  0  0  0  0  0  0
    0.5716    5.4370   -1.4918 H   0  0  0  1  0  0  0  0  0  0  0  0
  1  4  1  0  0  0  0
  2  4  1  0  0  0  0
  2  5  2  0  0  0  0
  2  6  1  0  0  0  0
  3  4  1  0  0  0  0
  3  7  1  0  0  0  0
  3  8  1  0  0  0  0
  4 19  1  0  0  0  0
  6  9  1  0  0  0  0
  6 12  1  0  0  0  0
  8 10  1  0  0  0  0
  8 11  2  0  0  0  0
  9 13  1  0  0  0  0
  9 14  1  0  0  0  0
  9 15  1  0  0  0  0
 10 16  1  0  0  0  0
 10 17  1  0  0  0  0
 10 18  1  0  0  0  0
 19 20  1  0  0  0  0
 19 27  1  0  0  0  0
 19 28  1  0  0  0  0
 20 21  1  0  0  0  0
 20 29  1  0  0  0  0
 20 30  1  0  0  0  0
 21 22  4  0  0  0  0
 21 26  4  0  0  0  0
 22 23  4  0  0  0  0
 22 31  1  0  0  0  0
 23 24  4  0  0  0  0
 23 32  1  0  0  0  0
 24 25  4  0  0  0  0
 24 33  1  0  0  0  0
 25 26  4  0  0  0  0
 25 34  1  0  0  0  0
 26 35  1  0  0  0  0
M  END
> <BCLConfClusterSize>
1

> <ConfClashScore>
0 

> <ConfOneFourInteractionScore>
-0.970693 

> <ConfScore>
0.204707 

> <ConfScorePBest>
0.00541297 

> <ConfTolerance>
0.618396 

> <RosettaParamsInstructions>
M  ROOT 3
M  POLY_N_BB 3
M  POLY_CA_BB 4
M  POLY_C_BB 2
M  POLY_O_BB 5
M  POLY_IGNORE 9 10 11 12 13 14 15 16 17 18 
M  POLY_UPPER 6
M  POLY_LOWER 8
M  POLY_CHG 0
M  POLY_PROPERTIES ALPHA_AA D_AA PROTEIN AROMATIC POLYMER 
M  END

$$$$



 35 35  0  0  0  0  0  0  0  0999 V2000
   -3.5934    3.6435    1.1048 H   0  0  0  1  0  0  0  0  0  0  0  0
   -2.9548    4.9427    2.6400 C   0  0  0  1  0  0  0  0  0  0  0  0
   -1.6574    3.1046    1.6036 N   0  0  0  1  0  0  0  0  0  0  0  0
   -2.6819    4.1298    1.3832 C   0  0  0  1  0  0  0  0  0  0  0  0
   -3.1891    6.1434    2.5098 O   0  0  0  1  0  0  0  0  0  0  0  0
   -2.9259    4.3123    3.8176 N   0  0  0  1  0  0  0  0  0  0  0  0
   -1.8315    2.1892    1.3003 H   0  0  0  1  0  0  0  0  0  0  0  0
   -0.4947    3.3750    2.2036 C   0  0  0  1  0  0  0  0  0  0  0  0
   -3.1091    4.9707    5.1011 C   0  0  0  1  0  0  0  0  0  0  0  0
    0.4889    2.2237    2.2830 C   0  0  0  1  0  0  0  0  0  0  0  0
   -0.2218    4.4811    2.6679 O   0  0  0  1  0  0  0  0  0  0  0  0
   -2.7714    3.3446    3.8163 H   0  0  0  1  0  0  0  0  0  0  0  0
   -2.1663    5.3330    5.4545 H   0  0  0  1  0  0  0  0  0  0  0  0
   -3.5094    4.2723    5.8060 H   0  0  0  1  0  0  0  0  0  0  0  0
   -3.7862    5.7913    4.9873 H   0  0  0  1  0  0  0  0  0  0  0  0
    1.1216    2.2343    1.4201 H   0  0  0  1  0  0  0  0  0  0  0  0
   -0.0474    1.2986    2.3203 H   0  0  0  1  0  0  0  0  0  0  0  0
    1.0867    2.3259    3.1645 H   0  0  0  1  0  0  0  0  0  0  0  0
   -2.2483    4.9945    0.2151 C   0  0  0  1  0  0  0  0  0  0  0  0
   -1.7493    4.1907   -0.9786 C   0  0  0  1  0  0  0  0  0  0  0  0
   -1.3870    5.0507   -2.1580 C   0  0  0  1  0  0  0  0  0  0  0  0
   -2.3177    5.2841   -3.1584 C   0  0  0  1  0  0  0  0  0  0  0  0
   -1.9825    6.0701   -4.2447 C   0  0  0  1  0  0  0  0  0  0  0  0
   -0.7172    6.6296   -4.3310 C   0  0  0  1  0  0  0  0  0  0  0  0
    0.2110    6.3971   -3.3336 C   0  0  0  1  0  0  0  0  0  0  0  0
   -0.1254    5.6086   -2.2442 C   0  0  0  1  0  0  0  0  0  0  0  0
   -1.4597    5.6385    0.5440 H   0  0  0  1  0  0  0  0  0  0  0  0
   -3.0839    5.5845   -0.0988 H   0  0  0  1  0  0  0  0  0  0  0  0
   -2.5194    3.5104   -1.2770 H   0  0  0  1  0  0  0  0  0  0  0  0
   -0.8821    3.6398   -0.6796 H   0  0  0  1  0  0  0  0  0  0  0  0
   -3.2683    4.8676   -3.0916 H   0  0  0  1  0  0  0  0  0  0  0  0
   -2.6795    6.2419   -4.9972 H   0  0  0  1  0  0  0  0  0  0  0  0
   -0.4662    7.2244   -5.1464 H   0  0  0  1  0  0  0  0  0  0  0  0
    1.1616    6.8135   -3.4005 H   0  0  0  1  0  0  0  0  0  0  0  0
    0.5716    5.4369   -1.4917 H   0  0  0  1  0  0  0  0  0  0  0  0
  1  4  1  0  0  0  0
  2  4  1  0  0  0  0
  2  5  2  0  0  0  0
  2  6  1  0  0  0  0
  3  4  1  0  0  0  0
  3  7  1  0  0  0  0
  3  8  1  0  0  0  0
  4 19  1  0  0  0  0
  6  9  1  0  0  0  0
  6 12  1  0  0  0  0
  8 10  1  0  0  0  0
  8 11  2  0  0  0  0
  9 13  1  0  0  0  0
  9 14  1  0  0  0  0
  9 15  1  0  0  0  0
 10 16  1  0  0  0  0
 10 17  1  0  0  0  0
 10 18  1  0  0  0  0
 19 20  1  0  0  0  0
 19 27  1  0  0  0  0
 19 28  1  0  0  0  0
 20 21  1  0  0  0  0
 20 29  1  0  0  0  0
 20 30  1  0  0  0  0
 21 22  4  0  0  0  0
 21 26  4  0  0  0  0
 22 23  4  0  0  0  0
 22 31  1  0  0  0  0
 23 24  4  0  0  0  0
 23 32  1  0  0  0  0
 24 25  4  0  0  0  0
 24 33  1  0  0  0  0
 25 26  4  0  0  0  0
 25 34  1  0  0  0  0
 26 35  1  0  0  0  0
M  END
> <BCLConfClusterSize>
1

> <ConfClashScore>
0 

> <ConfOneFourInteractionScore>
-0.946303 

> <ConfScore>
0.206213 

> <ConfScorePBest>
0.00538449 

> <ConfTolerance>
0.231046 

> <RosettaParamsInstructions>
M  ROOT 3
M  POLY_N_BB 3
M  POLY_CA_BB 4
M  POLY_C_BB 2
M  POLY_O_BB 5
M  POLY_IGNORE 9 10 11 12 13 14 15 16 17 18 
M  POLY_UPPER 6
M  POLY_LOWER 8
M  POLY_CHG 0
M  POLY_PROPERTIES ALPHA_AA D_AA PROTEIN AROMATIC POLYMER 
M  END

$$$$



 35 35  0  0  0  0  0  0  0  0999 V2000
   -1.5259    3.8578    1.7517 H   0  0  0  1  0  0  0  0  0  0  0  0
   -3.2994    2.7915    1.2646 C   0  0  0  1  0  0  0  0  0  0  0  0
   -3.1845    4.8810    2.5018 N   0  0  0  1  0  0  0  0  0  0  0  0
   -2.5261    4.0906    1.4513 C   0  0  0  1  0  0  0  0  0  0  0  0
   -4.3708    2.5929    1.8313 O   0  0  0  1  0  0  0  0  0  0  0  0
   -2.6961    1.9165    0.4367 N   0  0  0  1  0  0  0  0  0  0  0  0
   -3.4197    5.8137    2.3146 H   0  0  0  1  0  0  0  0  0  0  0  0
   -3.4843    4.3526    3.7482 C   0  0  0  1  0  0  0  0  0  0  0  0
   -3.3438    0.6341    0.2042 C   0  0  0  1  0  0  0  0  0  0  0  0
   -4.0338    5.2657    4.8207 C   0  0  0  1  0  0  0  0  0  0  0  0
   -3.2936    3.1622    3.9386 O   0  0  0  1  0  0  0  0  0  0  0  0
   -1.8453    2.1372    0.0033 H   0  0  0  1  0  0  0  0  0  0  0  0
   -3.2619    0.3750   -0.8307 H   0  0  0  1  0  0  0  0  0  0  0  0
   -4.3770    0.7027    0.4738 H   0  0  0  1  0  0  0  0  0  0  0  0
   -2.8687   -0.1181    0.7987 H   0  0  0  1  0  0  0  0  0  0  0  0
   -3.3425    6.0626    4.9999 H   0  0  0  1  0  0  0  0  0  0  0  0
   -4.1779    4.7092    5.7231 H   0  0  0  1  0  0  0  0  0  0  0  0
   -4.9697    5.6716    4.4980 H   0  0  0  1  0  0  0  0  0  0  0  0
   -2.4742    4.8923    0.1650 C   0  0  0  1  0  0  0  0  0  0  0  0
   -1.7087    4.1919   -0.9537 C   0  0  0  1  0  0  0  0  0  0  0  0
   -1.3960    5.0499   -2.1624 C   0  0  0  1  0  0  0  0  0  0  0  0
   -2.3233    5.2860   -3.1653 C   0  0  0  1  0  0  0  0  0  0  0  0
   -1.9836    6.0727   -4.2497 C   0  0  0  1  0  0  0  0  0  0  0  0
   -0.7170    6.6300   -4.3317 C   0  0  0  1  0  0  0  0  0  0  0  0
    0.2078    6.3947   -3.3319 C   0  0  0  1  0  0  0  0  0  0  0  0
   -0.1331    5.6056   -2.2443 C   0  0  0  1  0  0  0  0  0  0  0  0
   -1.9975    5.8285    0.3678 H   0  0  0  1  0  0  0  0  0  0  0  0
   -3.4764    5.0662   -0.1670 H   0  0  0  1  0  0  0  0  0  0  0  0
   -2.2939    3.3588   -1.2828 H   0  0  0  1  0  0  0  0  0  0  0  0
   -0.7823    3.8404   -0.5499 H   0  0  0  1  0  0  0  0  0  0  0  0
   -3.2749    4.8712   -3.1018 H   0  0  0  1  0  0  0  0  0  0  0  0
   -2.6781    6.2466   -5.0040 H   0  0  0  1  0  0  0  0  0  0  0  0
   -0.4626    7.2253   -5.1456 H   0  0  0  1  0  0  0  0  0  0  0  0
    1.1593    6.8096   -3.3954 H   0  0  0  1  0  0  0  0  0  0  0  0
    0.5614    5.4318   -1.4900 H   0  0  0  1  0  0  0  0  0  0  0  0
  1  4  1  0  0  0  0
  2  4  1  0  0  0  0
  2  5  2  0  0  0  0
  2  6  1  0  0  0  0
  3  4  1  0  0  0  0
  3  7  1  0  0  0  0
  3  8  1  0  0  0  0
  4 19  1  0  0  0  0
  6  9  1  0  0  0  0
  6 12  1  0  0  0  0
  8 10  1  0  0  0  0
  8 11  2  0  0  0  0
  9 13  1  0  0  0  0
  9 14  1  0  0  0  0
  9 15  1  0  0  0  0
 10 16  1  0  0  0  0
 10 17  1  0  0  0  0
 10 18  1  0  0  0  0
 19 20  1  0  0  0  0
 19 27  1  0  0  0  0
 19 28  1  0  0  0  0
 20 21  1  0  0  0  0
 20 29  1  0  0  0  0
 20 30  1  0  0  0  0
 21 22  4  0  0  0  0
 21 26  4  0  0  0  0
 22 23  4  0  0  0  0
 22 31  1  0  0  0  0
 23 24  4  0  0  0  0
 23 32  1  0  0  0  0
 24 25  4  0  0  0  0
 24 33  1  0  0  0  0
 25 26  4  0  0  0  0
 25 34  1  0  0  0  0
 26 35  1  0  0  0  0
M  END
> <BCLConfClusterSize>
1

> <ConfClashScore>
0 

> <ConfOneFourInteractionScore>
-0.991445 

> <ConfScore>
0.209139 

> <ConfScorePBest>
0.00535601 

> <ConfTolerance>
0.471427 

> <RosettaParamsInstructions>
M  ROOT 3
M  POLY_N_BB 3
M  POLY_CA_BB 4
M  POLY_C_BB 2
M  POLY_O_BB 5
M  POLY_IGNORE 9 10 11 12 13 14 15 16 17 18 
M  POLY_UPPER 6
M  POLY_LOWER 8
M  POLY_CHG 0
M  POLY_PROPERTIES ALPHA_AA D_AA PROTEIN AROMATIC POLYMER 
M  END

$$$$



 35 35  0  0  0  0  0  0  0  0999 V2000
   -3.3367    3.5843    1.2573 H   0  0  0  1  0  0  0  0  0  0  0  0
   -2.7212    5.0696    2.6565 C   0  0  0  1  0  0  0  0  0  0  0  0
   -1.3258    3.2537    1.7500 N   0  0  0  1  0  0  0  0  0  0  0  0
   -2.4559    4.1559    1.4632 C   0  0  0  1  0  0  0  0  0  0  0  0
   -3.2733    6.1506    2.5757 O   0  0  0  1  0  0  0  0  0  0  0  0
   -2.3042    4.6146    3.8478 N   0  0  0  1  0  0  0  0  0  0  0  0
   -0.7400    3.4560    2.5092 H   0  0  0  1  0  0  0  0  0  0  0  0
   -1.0605    2.1193    0.9763 C   0  0  0  1  0  0  0  0  0  0  0  0
   -2.5016    5.4165    5.0461 C   0  0  0  1  0  0  0  0  0  0  0  0
    0.1227    1.2739    1.4057 C   0  0  0  1  0  0  0  0  0  0  0  0
   -1.7867    1.7698    0.0467 O   0  0  0  1  0  0  0  0  0  0  0  0
   -1.8657    3.7405    3.9112 H   0  0  0  1  0  0  0  0  0  0  0  0
   -2.4786    6.4548    4.7889 H   0  0  0  1  0  0  0  0  0  0  0  0
   -1.7222    5.2059    5.7483 H   0  0  0  1  0  0  0  0  0  0  0  0
   -3.4492    5.1782    5.4823 H   0  0  0  1  0  0  0  0  0  0  0  0
   -0.0527    0.8866    2.3876 H   0  0  0  1  0  0  0  0  0  0  0  0
    1.0071    1.8761    1.4129 H   0  0  0  1  0  0  0  0  0  0  0  0
    0.2487    0.4625    0.7197 H   0  0  0  1  0  0  0  0  0  0  0  0
   -2.1268    5.0092    0.2534 C   0  0  0  1  0  0  0  0  0  0  0  0
   -1.7068    4.1969   -0.9607 C   0  0  0  1  0  0  0  0  0  0  0  0
   -1.3961    5.0494   -2.1618 C   0  0  0  1  0  0  0  0  0  0  0  0
   -2.3235    5.2856   -3.1647 C   0  0  0  1  0  0  0  0  0  0  0  0
   -1.9838    6.0723   -4.2490 C   0  0  0  1  0  0  0  0  0  0  0  0
   -0.7172    6.6296   -4.3310 C   0  0  0  1  0  0  0  0  0  0  0  0
    0.2076    6.3943   -3.3312 C   0  0  0  1  0  0  0  0  0  0  0  0
   -0.1333    5.6052   -2.2437 C   0  0  0  1  0  0  0  0  0  0  0  0
   -1.3267    5.6707    0.5124 H   0  0  0  1  0  0  0  0  0  0  0  0
   -2.9937    5.5810   -0.0043 H   0  0  0  1  0  0  0  0  0  0  0  0
   -2.5022    3.5278   -1.2145 H   0  0  0  1  0  0  0  0  0  0  0  0
   -0.8331    3.6334   -0.7078 H   0  0  0  1  0  0  0  0  0  0  0  0
   -3.2750    4.8707   -3.1011 H   0  0  0  1  0  0  0  0  0  0  0  0
   -2.6783    6.2461   -5.0033 H   0  0  0  1  0  0  0  0  0  0  0  0
   -0.4628    7.2249   -5.1450 H   0  0  0  1  0  0  0  0  0  0  0  0
    1.1592    6.8091   -3.3948 H   0  0  0  1  0  0  0  0  0  0  0  0
    0.5612    5.4313   -1.4894 H   0  0  0  1  0  0  0  0  0  0  0  0
  1  4  1  0  0  0  0
  2  4  1  0  0  0  0
  2  5  2  0  0  0  0
  2  6  1  0  0  0  0
  3  4  1  0  0  0  0
  3  7  1  0  0  0  0
  3  8  1  0  0  0  0
  4 19  1  0  0  0  0
  6  9  1  0  0  0  0
  6 12  1  0  0  0  0
  8 10  1  0  0  0  0
  8 11  2  0  0  0  0
  9 13  1  0  0  0  0
  9 14  1  0  0  0  0
  9 15  1  0  0  0  0
 10 16  1  0  0  0  0
 10 17  1  0  0  0  0
 10 18  1  0  0  0  0
 19 20  1  0  0  0  0
 19 27  1  0  0  0  0
 19 28  1  0  0  0  0
 20 21  1  0  0  0  0
 20 29  1  0  0  0  0
 20 30  1  0  0  0  0
 21 22  4  0  0  0  0
 21 26  4  0  0  0  0
 22 23  4  0  0  0  0
 22 31  1  0  0  0  0
 23 24  4  0  0  0  0
 23 32  1  0  0  0  0
 24 25  4  0  0  0  0
 24 33  1  0  0  0  0
 25 26  4  0  0  0  0
 25 34  1  0  0  0  0
 26 35  1  0  0  0  0
M  END
> <BCLConfClusterSize>
1

> <ConfClashScore>
0 

> <ConfOneFourInteractionScore>
-0.955319 

> <ConfScore>
0.211493 

> <ConfScorePBest>
0.00532753 

> <ConfTolerance>
0.436459 

> <RosettaParamsInstructions>
M  ROOT 3
M  POLY_N_BB 3
M  POLY_CA_BB 4
M  POLY_C_BB 2
M  POLY_O_BB 5
M  POLY_IGNORE 9 10 11 12 13 14 15 16 17 18 
M  POLY_UPPER 6
M  POLY_LOWER 8
M  POLY_CHG 0
M  POLY_PROPERTIES ALPHA_AA D_AA PROTEIN AROMATIC POLYMER 
M  END

$$$$



 35 35  0  0  0  0  0  0  0  0999 V2000
   -2.3845    4.7169    2.3714 H   0  0  0  1  0  0  0  0  0  0  0  0
   -2.1363    2.8184    1.4358 C   0  0  0  1  0  0  0  0  0  0  0  0
   -4.0024    4.3684    1.1102 N   0  0  0  1  0  0  0  0  0  0  0  0
   -2.5825    4.2778    1.4159 C   0  0  0  1  0  0  0  0  0  0  0  0
   -2.9035    1.9058    1.6826 O   0  0  0  1  0  0  0  0  0  0  0  0
   -0.8497    2.5241    1.1719 N   0  0  0  1  0  0  0  0  0  0  0  0
   -4.2822    5.0380    0.4516 H   0  0  0  1  0  0  0  0  0  0  0  0
   -4.9833    3.5835    1.6773 C   0  0  0  1  0  0  0  0  0  0  0  0
   -0.3965    1.1609    1.4047 C   0  0  0  1  0  0  0  0  0  0  0  0
   -6.3290    3.6341    1.0145 C   0  0  0  1  0  0  0  0  0  0  0  0
   -4.7323    2.9052    2.6555 O   0  0  0  1  0  0  0  0  0  0  0  0
   -0.2356    3.2083    0.8326 H   0  0  0  1  0  0  0  0  0  0  0  0
   -0.8119    0.7982    2.3217 H   0  0  0  1  0  0  0  0  0  0  0  0
    0.6716    1.1462    1.4668 H   0  0  0  1  0  0  0  0  0  0  0  0
   -0.7160    0.5362    0.5969 H   0  0  0  1  0  0  0  0  0  0  0  0
   -6.4782    4.6016    0.5825 H   0  0  0  1  0  0  0  0  0  0  0  0
   -7.0916    3.4469    1.7414 H   0  0  0  1  0  0  0  0  0  0  0  0
   -6.3766    2.8900    0.2471 H   0  0  0  1  0  0  0  0  0  0  0  0
   -1.7872    5.0227    0.3548 C   0  0  0  1  0  0  0  0  0  0  0  0
   -1.7611    4.2396   -0.9476 C   0  0  0  1  0  0  0  0  0  0  0  0
   -1.3812    5.0323   -2.1696 C   0  0  0  1  0  0  0  0  0  0  0  0
   -2.3138    5.2721   -3.1668 C   0  0  0  1  0  0  0  0  0  0  0  0
   -1.9826    6.0702   -4.2454 C   0  0  0  1  0  0  0  0  0  0  0  0
   -0.7195    6.6353   -4.3274 C   0  0  0  1  0  0  0  0  0  0  0  0
    0.2105    6.3963   -3.3333 C   0  0  0  1  0  0  0  0  0  0  0  0
   -0.1218    5.5958   -2.2515 C   0  0  0  1  0  0  0  0  0  0  0  0
   -0.7843    5.1614    0.7010 H   0  0  0  1  0  0  0  0  0  0  0  0
   -2.2404    5.9764    0.1818 H   0  0  0  1  0  0  0  0  0  0  0  0
   -2.7379    3.8334   -1.1082 H   0  0  0  1  0  0  0  0  0  0  0  0
   -1.0560    3.4421   -0.8392 H   0  0  0  1  0  0  0  0  0  0  0  0
   -3.2627    4.8514   -3.1032 H   0  0  0  1  0  0  0  0  0  0  0  0
   -2.6810    6.2468   -4.9955 H   0  0  0  1  0  0  0  0  0  0  0  0
   -0.4716    7.2392   -5.1371 H   0  0  0  1  0  0  0  0  0  0  0  0
    1.1595    6.8171   -3.3969 H   0  0  0  1  0  0  0  0  0  0  0  0
    0.5766    5.4192   -1.5014 H   0  0  0  1  0  0  0  0  0  0  0  0
  1  4  1  0  0  0  0
  2  4  1  0  0  0  0
  2  5  2  0  0  0  0
  2  6  1  0  0  0  0
  3  4  1  0  0  0  0
  3  7  1  0  0  0  0
  3  8  1  0  0  0  0
  4 19  1  0  0  0  0
  6  9  1  0  0  0  0
  6 12  1  0  0  0  0
  8 10  1  0  0  0  0
  8 11  2  0  0  0  0
  9 13  1  0  0  0  0
  9 14  1  0  0  0  0
  9 15  1  0  0  0  0
 10 16  1  0  0  0  0
 10 17  1  0  0  0  0
 10 18  1  0  0  0  0
 19 20  1  0  0  0  0
 19 27  1  0  0  0  0
 19 28  1  0  0  0  0
 20 21  1  0  0  0  0
 20 29  1  0  0  0  0
 20 30  1  0  0  0  0
 21 22  4  0  0  0  0
 21 26  4  0  0  0  0
 22 23  4  0  0  0  0
 22 31  1  0  0  0  0
 23 24  4  0  0  0  0
 23 32  1  0  0  0  0
 24 25  4  0  0  0  0
 24 33  1  0  0  0  0
 25 26  4  0  0  0  0
 25 34  1  0  0  0  0
 26 35  1  0  0  0  0
M  END
> <BCLConfClusterSize>
1

> <ConfClashScore>
0 

> <ConfOneFourInteractionScore>
-0.957792 

> <ConfScore>
0.212442 

> <ConfScorePBest>
0.00529905 

> <ConfTolerance>
0.590593 

> <RosettaParamsInstructions>
M  ROOT 3
M  POLY_N_BB 3
M  POLY_CA_BB 4
M  POLY_C_BB 2
M  POLY_O_BB 5
M  POLY_IGNORE 9 10 11 12 13 14 15 16 17 18 
M  POLY_UPPER 6
M  POLY_LOWER 8
M  POLY_CHG 0
M  POLY_PROPERTIES ALPHA_AA D_AA PROTEIN AROMATIC POLYMER 
M  END

$$$$



 35 35  0  0  0  0  0  0  0  0999 V2000
   -2.2875    1.6086    0.0974 H   0  0  0  1  0  0  0  0  0  0  0  0
   -1.1508    2.7316    1.4697 C   0  0  0  1  0  0  0  0  0  0  0  0
   -0.3697    0.8261    0.0989 N   0  0  0  1  0  0  0  0  0  0  0  0
   -1.2834    1.9724    0.1638 C   0  0  0  1  0  0  0  0  0  0  0  0
   -2.0431    3.4758    1.8677 O   0  0  0  1  0  0  0  0  0  0  0  0
   -0.0079    2.5341    2.1456 N   0  0  0  1  0  0  0  0  0  0  0  0
    0.1528    0.7091   -0.7219 H   0  0  0  1  0  0  0  0  0  0  0  0
   -0.1956   -0.0744    1.0792 C   0  0  0  1  0  0  0  0  0  0  0  0
    0.2728    3.1993    3.4092 C   0  0  0  1  0  0  0  0  0  0  0  0
    0.6584   -1.2843    0.7224 C   0  0  0  1  0  0  0  0  0  0  0  0
   -0.6864    0.0524    2.2002 O   0  0  0  1  0  0  0  0  0  0  0  0
    0.6606    1.9207    1.7753 H   0  0  0  1  0  0  0  0  0  0  0  0
    1.0013    2.6367    3.9548 H   0  0  0  1  0  0  0  0  0  0  0  0
   -0.6274    3.2683    3.9833 H   0  0  0  1  0  0  0  0  0  0  0  0
    0.6510    4.1819    3.2184 H   0  0  0  1  0  0  0  0  0  0  0  0
    1.5270   -0.9629    0.1865 H   0  0  0  1  0  0  0  0  0  0  0  0
    0.0900   -1.9538    0.1111 H   0  0  0  1  0  0  0  0  0  0  0  0
    0.9579   -1.7860    1.6187 H   0  0  0  1  0  0  0  0  0  0  0  0
   -1.0336    2.8511   -1.0468 C   0  0  0  1  0  0  0  0  0  0  0  0
   -1.7496    4.1900   -0.9776 C   0  0  0  1  0  0  0  0  0  0  0  0
   -1.3870    5.0508   -2.1581 C   0  0  0  1  0  0  0  0  0  0  0  0
   -2.3176    5.2842   -3.1585 C   0  0  0  1  0  0  0  0  0  0  0  0
   -1.9825    6.0702   -4.2447 C   0  0  0  1  0  0  0  0  0  0  0  0
   -0.7171    6.6296   -4.3311 C   0  0  0  1  0  0  0  0  0  0  0  0
    0.2110    6.3971   -3.3337 C   0  0  0  1  0  0  0  0  0  0  0  0
   -0.1254    5.6087   -2.2443 C   0  0  0  1  0  0  0  0  0  0  0  0
   -1.3706    2.3308   -1.9189 H   0  0  0  1  0  0  0  0  0  0  0  0
    0.0182    3.0323   -1.1231 H   0  0  0  1  0  0  0  0  0  0  0  0
   -1.4667    4.6930   -0.0766 H   0  0  0  1  0  0  0  0  0  0  0  0
   -2.8065    4.0230   -0.9767 H   0  0  0  1  0  0  0  0  0  0  0  0
   -3.2683    4.8677   -3.0917 H   0  0  0  1  0  0  0  0  0  0  0  0
   -2.6795    6.2419   -4.9973 H   0  0  0  1  0  0  0  0  0  0  0  0
   -0.4662    7.2244   -5.1465 H   0  0  0  1  0  0  0  0  0  0  0  0
    1.1616    6.8136   -3.4006 H   0  0  0  1  0  0  0  0  0  0  0  0
    0.5716    5.4370   -1.4918 H   0  0  0  1  0  0  0  0  0  0  0  0
  1  4  1  0  0  0  0
  2  4  1  0  0  0  0
  2  5  2  0  0  0  0
  2  6  1  0  0  0  0
  3  4  1  0  0  0  0
  3  7  1  0  0  0  0
  3  8  1  0  0  0  0
  4 19  1  0  0  0  0
  6  9  1  0  0  0  0
  6 12  1  0  0  0  0
  8 10  1  0  0  0  0
  8 11  2  0  0  0  0
  9 13  1  0  0  0  0
  9 14  1  0  0  0  0
  9 15  1  0  0  0  0
 10 16  1  0  0  0  0
 10 17  1  0  0  0  0
 10 18  1  0  0  0  0
 19 20  1  0  0  0  0
 19 27  1  0  0  0  0
 19 28  1  0  0  0  0
 20 21  1  0  0  0  0
 20 29  1  0  0  0  0
 20 30  1  0  0  0  0
 21 22  4  0  0  0  0
 21 26  4  0  0  0  0
 22 23  4  0  0  0  0
 22 31  1  0  0  0  0
 23 24  4  0  0  0  0
 23 32  1  0  0  0  0
 24 25  4  0  0  0  0
 24 33  1  0  0  0  0
 25 26  4  0  0  0  0
 25 34  1  0  0  0  0
 26 35  1  0  0  0  0
M  END
> <BCLConfClusterSize>
1

> <ConfClashScore>
0 

> <ConfOneFourInteractionScore>
-0.970454 

> <ConfScore>
0.214274 

> <ConfScorePBest>
0.00527057 

> <ConfTolerance>
0.31828 

> <RosettaParamsInstructions>
M  ROOT 3
M  POLY_N_BB 3
M  POLY_CA_BB 4
M  POLY_C_BB 2
M  POLY_O_BB 5
M  POLY_IGNORE 9 10 11 12 13 14 15 16 17 18 
M  POLY_UPPER 6
M  POLY_LOWER 8
M  POLY_CHG 0
M  POLY_PROPERTIES ALPHA_AA D_AA PROTEIN AROMATIC POLYMER 
M  END

$$$$



 35 35  0  0  0  0  0  0  0  0999 V2000
   -2.2393    1.6762    0.0959 H   0  0  0  1  0  0  0  0  0  0  0  0
   -3.7473    0.7689   -1.0317 C   0  0  0  1  0  0  0  0  0  0  0  0
   -3.9500    2.7669    0.4371 N   0  0  0  1  0  0  0  0  0  0  0  0
   -3.0835    2.0078   -0.4718 C   0  0  0  1  0  0  0  0  0  0  0  0
   -3.3439    0.2414   -2.0648 O   0  0  0  1  0  0  0  0  0  0  0  0
   -4.7937    0.2961   -0.3268 N   0  0  0  1  0  0  0  0  0  0  0  0
   -3.5976    3.0903    1.2924 H   0  0  0  1  0  0  0  0  0  0  0  0
   -5.2292    3.0203    0.0982 C   0  0  0  1  0  0  0  0  0  0  0  0
   -5.4557   -0.9332   -0.7372 C   0  0  0  1  0  0  0  0  0  0  0  0
   -5.9874    3.9572    1.0297 C   0  0  0  1  0  0  0  0  0  0  0  0
   -5.7665    2.5360   -0.8944 O   0  0  0  1  0  0  0  0  0  0  0  0
   -5.1097    0.7811    0.4640 H   0  0  0  1  0  0  0  0  0  0  0  0
   -4.7437   -1.5855   -1.1981 H   0  0  0  1  0  0  0  0  0  0  0  0
   -6.2329   -0.7034   -1.4357 H   0  0  0  1  0  0  0  0  0  0  0  0
   -5.8771   -1.4145    0.1205 H   0  0  0  1  0  0  0  0  0  0  0  0
   -5.3775    4.1882    1.8779 H   0  0  0  1  0  0  0  0  0  0  0  0
   -6.8883    3.4818    1.3573 H   0  0  0  1  0  0  0  0  0  0  0  0
   -6.2291    4.8596    0.5081 H   0  0  0  1  0  0  0  0  0  0  0  0
   -2.5482    2.9432   -1.5275 C   0  0  0  1  0  0  0  0  0  0  0  0
   -1.8303    4.1748   -1.0060 C   0  0  0  1  0  0  0  0  0  0  0  0
   -1.3698    5.0537   -2.1514 C   0  0  0  1  0  0  0  0  0  0  0  0
   -2.3066    5.2818   -3.1473 C   0  0  0  1  0  0  0  0  0  0  0  0
   -1.9799    6.0666   -4.2371 C   0  0  0  1  0  0  0  0  0  0  0  0
   -0.7169    6.6300   -4.3315 C   0  0  0  1  0  0  0  0  0  0  0  0
    0.2174    6.4026   -3.3386 C   0  0  0  1  0  0  0  0  0  0  0  0
   -0.1105    5.6155   -2.2457 C   0  0  0  1  0  0  0  0  0  0  0  0
   -3.3723    3.2708   -2.1261 H   0  0  0  1  0  0  0  0  0  0  0  0
   -1.8606    2.3940   -2.1362 H   0  0  0  1  0  0  0  0  0  0  0  0
   -0.9791    3.8690   -0.4342 H   0  0  0  1  0  0  0  0  0  0  0  0
   -2.4978    4.7323   -0.3825 H   0  0  0  1  0  0  0  0  0  0  0  0
   -3.2555    4.8624   -3.0745 H   0  0  0  1  0  0  0  0  0  0  0  0
   -2.6815    6.2344   -4.9862 H   0  0  0  1  0  0  0  0  0  0  0  0
   -0.4723    7.2238   -5.1495 H   0  0  0  1  0  0  0  0  0  0  0  0
    1.1662    6.8221   -3.4115 H   0  0  0  1  0  0  0  0  0  0  0  0
    0.5911    5.4477   -1.4966 H   0  0  0  1  0  0  0  0  0  0  0  0
  1  4  1  0  0  0  0
  2  4  1  0  0  0  0
  2  5  2  0  0  0  0
  2  6  1  0  0  0  0
  3  4  1  0  0  0  0
  3  7  1  0  0  0  0
  3  8  1  0  0  0  0
  4 19  1  0  0  0  0
  6  9  1  0  0  0  0
  6 12  1  0  0  0  0
  8 10  1  0  0  0  0
  8 11  2  0  0  0  0
  9 13  1  0  0  0  0
  9 14  1  0  0  0  0
  9 15  1  0  0  0  0
 10 16  1  0  0  0  0
 10 17  1  0  0  0  0
 10 18  1  0  0  0  0
 19 20  1  0  0  0  0
 19 27  1  0  0  0  0
 19 28  1  0  0  0  0
 20 21  1  0  0  0  0
 20 29  1  0  0  0  0
 20 30  1  0  0  0  0
 21 22  4  0  0  0  0
 21 26  4  0  0  0  0
 22 23  4  0  0  0  0
 22 31  1  0  0  0  0
 23 24  4  0  0  0  0
 23 32  1  0  0  0  0
 24 25  4  0  0  0  0
 24 33  1  0  0  0  0
 25 26  4  0  0  0  0
 25 34  1  0  0  0  0
 26 35  1  0  0  0  0
M  END
> <BCLConfClusterSize>
1

> <ConfClashScore>
0 

> <ConfOneFourInteractionScore>
-0.969453 

> <ConfScore>
0.221827 

> <ConfScorePBest>
0.00524209 

> <ConfTolerance>
0.376815 

> <RosettaParamsInstructions>
M  ROOT 3
M  POLY_N_BB 3
M  POLY_CA_BB 4
M  POLY_C_BB 2
M  POLY_O_BB 5
M  POLY_IGNORE 9 10 11 12 13 14 15 16 17 18 
M  POLY_UPPER 6
M  POLY_LOWER 8
M  POLY_CHG 0
M  POLY_PROPERTIES ALPHA_AA D_AA PROTEIN AROMATIC POLYMER 
M  END

$$$$



 35 35  0  0  0  0  0  0  0  0999 V2000
   -0.0809    3.1353    1.8273 H   0  0  0  1  0  0  0  0  0  0  0  0
   -1.3944    1.7563    0.9868 C   0  0  0  1  0  0  0  0  0  0  0  0
   -1.9543    3.9375    2.0273 N   0  0  0  1  0  0  0  0  0  0  0  0
   -0.9691    3.1907    1.2332 C   0  0  0  1  0  0  0  0  0  0  0  0
   -0.5589    0.8587    0.8867 O   0  0  0  1  0  0  0  0  0  0  0  0
   -2.7073    1.4965    0.8816 N   0  0  0  1  0  0  0  0  0  0  0  0
   -2.8088    3.5096    2.2448 H   0  0  0  1  0  0  0  0  0  0  0  0
   -1.7258    5.1796    2.4633 C   0  0  0  1  0  0  0  0  0  0  0  0
   -3.2155    0.1626    0.5983 C   0  0  0  1  0  0  0  0  0  0  0  0
   -2.8483    5.8148    3.2607 C   0  0  0  1  0  0  0  0  0  0  0  0
   -0.6769    5.7857    2.2416 O   0  0  0  1  0  0  0  0  0  0  0  0
   -3.3456    2.2306    0.9998 H   0  0  0  1  0  0  0  0  0  0  0  0
   -2.5033   -0.5673    0.9222 H   0  0  0  1  0  0  0  0  0  0  0  0
   -3.3782    0.0593   -0.4542 H   0  0  0  1  0  0  0  0  0  0  0  0
   -4.1388    0.0150    1.1186 H   0  0  0  1  0  0  0  0  0  0  0  0
   -2.6975    6.8730    3.3092 H   0  0  0  1  0  0  0  0  0  0  0  0
   -2.8552    5.4100    4.2511 H   0  0  0  1  0  0  0  0  0  0  0  0
   -3.7842    5.6096    2.7844 H   0  0  0  1  0  0  0  0  0  0  0  0
   -0.5808    3.9598   -0.0242 C   0  0  0  1  0  0  0  0  0  0  0  0
   -1.7496    4.1900   -0.9776 C   0  0  0  1  0  0  0  0  0  0  0  0
   -1.3870    5.0508   -2.1581 C   0  0  0  1  0  0  0  0  0  0  0  0
   -2.3176    5.2842   -3.1585 C   0  0  0  1  0  0  0  0  0  0  0  0
   -1.9825    6.0702   -4.2447 C   0  0  0  1  0  0  0  0  0  0  0  0
   -0.7171    6.6296   -4.3311 C   0  0  0  1  0  0  0  0  0  0  0  0
    0.2110    6.3971   -3.3337 C   0  0  0  1  0  0  0  0  0  0  0  0
   -0.1254    5.6087   -2.2443 C   0  0  0  1  0  0  0  0  0  0  0  0
    0.1746    3.4056   -0.5412 H   0  0  0  1  0  0  0  0  0  0  0  0
   -0.1887    4.9116    0.2678 H   0  0  0  1  0  0  0  0  0  0  0  0
   -2.5404    4.6678   -0.4378 H   0  0  0  1  0  0  0  0  0  0  0  0
   -2.0864    3.2408   -1.3389 H   0  0  0  1  0  0  0  0  0  0  0  0
   -3.2683    4.8677   -3.0917 H   0  0  0  1  0  0  0  0  0  0  0  0
   -2.6795    6.2419   -4.9973 H   0  0  0  1  0  0  0  0  0  0  0  0
   -0.4662    7.2244   -5.1465 H   0  0  0  1  0  0  0  0  0  0  0  0
    1.1616    6.8136   -3.4006 H   0  0  0  1  0  0  0  0  0  0  0  0
    0.5716    5.4370   -1.4918 H   0  0  0  1  0  0  0  0  0  0  0  0
  1  4  1  0  0  0  0
  2  4  1  0  0  0  0
  2  5  2  0  0  0  0
  2  6  1  0  0  0  0
  3  4  1  0  0  0  0
  3  7  1  0  0  0  0
  3  8  1  0  0  0  0
  4 19  1  0  0  0  0
  6  9  1  0  0  0  0
  6 12  1  0  0  0  0
  8 10  1  0  0  0  0
  8 11  2  0  0  0  0
  9 13  1  0  0  0  0
  9 14  1  0  0  0  0
  9 15  1  0  0  0  0
 10 16  1  0  0  0  0
 10 17  1  0  0  0  0
 10 18  1  0  0  0  0
 19 20  1  0  0  0  0
 19 27  1  0  0  0  0
 19 28  1  0  0  0  0
 20 21  1  0  0  0  0
 20 29  1  0  0  0  0
 20 30  1  0  0  0  0
 21 22  4  0  0  0  0
 21 26  4  0  0  0  0
 22 23  4  0  0  0  0
 22 31  1  0  0  0  0
 23 24  4  0  0  0  0
 23 32  1  0  0  0  0
 24 25  4  0  0  0  0
 24 33  1  0  0  0  0
 25 26  4  0  0  0  0
 25 34  1  0  0  0  0
 26 35  1  0  0  0  0
M  END
> <BCLConfClusterSize>
1

> <ConfClashScore>
0 

> <ConfOneFourInteractionScore>
-0.944279 

> <ConfScore>
0.222688 

> <ConfScorePBest>
0.00521361 

> <ConfTolerance>
0.598554 

> <RosettaParamsInstructions>
M  ROOT 3
M  POLY_N_BB 3
M  POLY_CA_BB 4
M  POLY_C_BB 2
M  POLY_O_BB 5
M  POLY_IGNORE 9 10 11 12 13 14 15 16 17 18 
M  POLY_UPPER 6
M  POLY_LOWER 8
M  POLY_CHG 0
M  POLY_PROPERTIES ALPHA_AA D_AA PROTEIN AROMATIC POLYMER 
M  END

$$$$



 35 35  0  0  0  0  0  0  0  0999 V2000
   -3.3722    2.6507    0.4288 H   0  0  0  1  0  0  0  0  0  0  0  0
   -1.6153    1.5130    0.6282 C   0  0  0  1  0  0  0  0  0  0  0  0
   -3.6392    0.9182   -0.6542 N   0  0  0  1  0  0  0  0  0  0  0  0
   -2.7871    2.0105   -0.1978 C   0  0  0  1  0  0  0  0  0  0  0  0
   -1.7939    0.7755    1.5966 O   0  0  0  1  0  0  0  0  0  0  0  0
   -0.3810    1.9013    0.2706 N   0  0  0  1  0  0  0  0  0  0  0  0
   -4.5201    1.1707   -1.0015 H   0  0  0  1  0  0  0  0  0  0  0  0
   -3.3528   -0.3983   -0.6526 C   0  0  0  1  0  0  0  0  0  0  0  0
    0.7671    1.5251    1.0818 C   0  0  0  1  0  0  0  0  0  0  0  0
   -4.5073   -1.3239   -0.9836 C   0  0  0  1  0  0  0  0  0  0  0  0
   -2.2413   -0.8363   -0.4032 O   0  0  0  1  0  0  0  0  0  0  0  0
   -0.2529    2.4394   -0.5385 H   0  0  0  1  0  0  0  0  0  0  0  0
    0.4834    1.5017    2.1132 H   0  0  0  1  0  0  0  0  0  0  0  0
    1.5508    2.2405    0.9438 H   0  0  0  1  0  0  0  0  0  0  0  0
    1.1114    0.5565    0.7847 H   0  0  0  1  0  0  0  0  0  0  0  0
   -5.1084   -0.8846   -1.7521 H   0  0  0  1  0  0  0  0  0  0  0  0
   -5.1037   -1.4769   -0.1084 H   0  0  0  1  0  0  0  0  0  0  0  0
   -4.1246   -2.2635   -1.3237 H   0  0  0  1  0  0  0  0  0  0  0  0
   -2.3199    2.8401   -1.3783 C   0  0  0  1  0  0  0  0  0  0  0  0
   -1.7496    4.1900   -0.9776 C   0  0  0  1  0  0  0  0  0  0  0  0
   -1.3870    5.0508   -2.1581 C   0  0  0  1  0  0  0  0  0  0  0  0
   -2.3176    5.2842   -3.1585 C   0  0  0  1  0  0  0  0  0  0  0  0
   -1.9825    6.0702   -4.2447 C   0  0  0  1  0  0  0  0  0  0  0  0
   -0.7171    6.6296   -4.3311 C   0  0  0  1  0  0  0  0  0  0  0  0
    0.2110    6.3971   -3.3337 C   0  0  0  1  0  0  0  0  0  0  0  0
   -0.1254    5.6087   -2.2443 C   0  0  0  1  0  0  0  0  0  0  0  0
   -3.1534    3.0037   -2.0290 H   0  0  0  1  0  0  0  0  0  0  0  0
   -1.5622    2.2928   -1.8990 H   0  0  0  1  0  0  0  0  0  0  0  0
   -0.8693    4.0274   -0.3915 H   0  0  0  1  0  0  0  0  0  0  0  0
   -2.4793    4.7073   -0.3903 H   0  0  0  1  0  0  0  0  0  0  0  0
   -3.2683    4.8677   -3.0917 H   0  0  0  1  0  0  0  0  0  0  0  0
   -2.6795    6.2419   -4.9973 H   0  0  0  1  0  0  0  0  0  0  0  0
   -0.4662    7.2244   -5.1465 H   0  0  0  1  0  0  0  0  0  0  0  0
    1.1616    6.8136   -3.4006 H   0  0  0  1  0  0  0  0  0  0  0  0
    0.5716    5.4370   -1.4918 H   0  0  0  1  0  0  0  0  0  0  0  0
  1  4  1  0  0  0  0
  2  4  1  0  0  0  0
  2  5  2  0  0  0  0
  2  6  1  0  0  0  0
  3  4  1  0  0  0  0
  3  7  1  0  0  0  0
  3  8  1  0  0  0  0
  4 19  1  0  0  0  0
  6  9  1  0  0  0  0
  6 12  1  0  0  0  0
  8 10  1  0  0  0  0
  8 11  2  0  0  0  0
  9 13  1  0  0  0  0
  9 14  1  0  0  0  0
  9 15  1  0  0  0  0
 10 16  1  0  0  0  0
 10 17  1  0  0  0  0
 10 18  1  0  0  0  0
 19 20  1  0  0  0  0
 19 27  1  0  0  0  0
 19 28  1  0  0  0  0
 20 21  1  0  0  0  0
 20 29  1  0  0  0  0
 20 30  1  0  0  0  0
 21 22  4  0  0  0  0
 21 26  4  0  0  0  0
 22 23  4  0  0  0  0
 22 31  1  0  0  0  0
 23 24  4  0  0  0  0
 23 32  1  0  0  0  0
 24 25  4  0  0  0  0
 24 33  1  0  0  0  0
 25 26  4  0  0  0  0
 25 34  1  0  0  0  0
 26 35  1  0  0  0  0
M  END
> <BCLConfClusterSize>
1

> <ConfClashScore>
9.01526e-05 

> <ConfOneFourInteractionScore>
-0.943527 

> <ConfScore>
0.224064 

> <ConfScorePBest>
0.00518512 

> <ConfTolerance>
0.345578 

> <RosettaParamsInstructions>
M  ROOT 3
M  POLY_N_BB 3
M  POLY_CA_BB 4
M  POLY_C_BB 2
M  POLY_O_BB 5
M  POLY_IGNORE 9 10 11 12 13 14 15 16 17 18 
M  POLY_UPPER 6
M  POLY_LOWER 8
M  POLY_CHG 0
M  POLY_PROPERTIES ALPHA_AA D_AA PROTEIN AROMATIC POLYMER 
M  END

$$$$



 35 35  0  0  0  0  0  0  0  0999 V2000
   -2.4617    3.8065    1.6164 H   0  0  0  1  0  0  0  0  0  0  0  0
   -3.3384    2.1815    0.5986 C   0  0  0  1  0  0  0  0  0  0  0  0
   -4.5156    4.0556    1.6318 N   0  0  0  1  0  0  0  0  0  0  0  0
   -3.2787    3.6662    0.9399 C   0  0  0  1  0  0  0  0  0  0  0  0
   -2.3519    1.5847    0.1754 O   0  0  0  1  0  0  0  0  0  0  0  0
   -4.5261    1.5861    0.7910 N   0  0  0  1  0  0  0  0  0  0  0  0
   -5.1046    4.7166    1.2116 H   0  0  0  1  0  0  0  0  0  0  0  0
   -4.8665    3.5375    2.8187 C   0  0  0  1  0  0  0  0  0  0  0  0
   -4.7002    0.1454    0.6820 C   0  0  0  1  0  0  0  0  0  0  0  0
   -6.1274    4.1006    3.4343 C   0  0  0  1  0  0  0  0  0  0  0  0
   -4.2164    2.6598    3.3850 O   0  0  0  1  0  0  0  0  0  0  0  0
   -5.3029    2.1410    1.0127 H   0  0  0  1  0  0  0  0  0  0  0  0
   -5.6513   -0.0670    0.2402 H   0  0  0  1  0  0  0  0  0  0  0  0
   -4.6538   -0.2940    1.6565 H   0  0  0  1  0  0  0  0  0  0  0  0
   -3.9235   -0.2621    0.0691 H   0  0  0  1  0  0  0  0  0  0  0  0
   -6.7869    4.4305    2.6589 H   0  0  0  1  0  0  0  0  0  0  0  0
   -5.8773    4.9278    4.0652 H   0  0  0  1  0  0  0  0  0  0  0  0
   -6.6103    3.3422    4.0143 H   0  0  0  1  0  0  0  0  0  0  0  0
   -3.0375    4.5738   -0.2609 C   0  0  0  1  0  0  0  0  0  0  0  0
   -1.7496    4.1900   -0.9776 C   0  0  0  1  0  0  0  0  0  0  0  0
   -1.3870    5.0508   -2.1581 C   0  0  0  1  0  0  0  0  0  0  0  0
   -2.3176    5.2842   -3.1585 C   0  0  0  1  0  0  0  0  0  0  0  0
   -1.9825    6.0702   -4.2447 C   0  0  0  1  0  0  0  0  0  0  0  0
   -0.7171    6.6296   -4.3311 C   0  0  0  1  0  0  0  0  0  0  0  0
    0.2110    6.3971   -3.3337 C   0  0  0  1  0  0  0  0  0  0  0  0
   -0.1254    5.6087   -2.2443 C   0  0  0  1  0  0  0  0  0  0  0  0
   -2.9638    5.5872    0.0745 H   0  0  0  1  0  0  0  0  0  0  0  0
   -3.8584    4.4815   -0.9409 H   0  0  0  1  0  0  0  0  0  0  0  0
   -1.8517    3.1824   -1.3228 H   0  0  0  1  0  0  0  0  0  0  0  0
   -0.9489    4.2458   -0.2700 H   0  0  0  1  0  0  0  0  0  0  0  0
   -3.2683    4.8677   -3.0917 H   0  0  0  1  0  0  0  0  0  0  0  0
   -2.6795    6.2419   -4.9973 H   0  0  0  1  0  0  0  0  0  0  0  0
   -0.4662    7.2244   -5.1465 H   0  0  0  1  0  0  0  0  0  0  0  0
    1.1616    6.8136   -3.4006 H   0  0  0  1  0  0  0  0  0  0  0  0
    0.5716    5.4370   -1.4918 H   0  0  0  1  0  0  0  0  0  0  0  0
  1  4  1  0  0  0  0
  2  4  1  0  0  0  0
  2  5  2  0  0  0  0
  2  6  1  0  0  0  0
  3  4  1  0  0  0  0
  3  7  1  0  0  0  0
  3  8  1  0  0  0  0
  4 19  1  0  0  0  0
  6  9  1  0  0  0  0
  6 12  1  0  0  0  0
  8 10  1  0  0  0  0
  8 11  2  0  0  0  0
  9 13  1  0  0  0  0
  9 14  1  0  0  0  0
  9 15  1  0  0  0  0
 10 16  1  0  0  0  0
 10 17  1  0  0  0  0
 10 18  1  0  0  0  0
 19 20  1  0  0  0  0
 19 27  1  0  0  0  0
 19 28  1  0  0  0  0
 20 21  1  0  0  0  0
 20 29  1  0  0  0  0
 20 30  1  0  0  0  0
 21 22  4  0  0  0  0
 21 26  4  0  0  0  0
 22 23  4  0  0  0  0
 22 31  1  0  0  0  0
 23 24  4  0  0  0  0
 23 32  1  0  0  0  0
 24 25  4  0  0  0  0
 24 33  1  0  0  0  0
 25 26  4  0  0  0  0
 25 34  1  0  0  0  0
 26 35  1  0  0  0  0
M  END
> <BCLConfClusterSize>
1

> <ConfClashScore>
0 

> <ConfOneFourInteractionScore>
-0.95508 

> <ConfScore>
0.224253 

> <ConfScorePBest>
0.00515664 

> <ConfTolerance>
0.440528 

> <RosettaParamsInstructions>
M  ROOT 3
M  POLY_N_BB 3
M  POLY_CA_BB 4
M  POLY_C_BB 2
M  POLY_O_BB 5
M  POLY_IGNORE 9 10 11 12 13 14 15 16 17 18 
M  POLY_UPPER 6
M  POLY_LOWER 8
M  POLY_CHG 0
M  POLY_PROPERTIES ALPHA_AA D_AA PROTEIN AROMATIC POLYMER 
M  END

$$$$



 35 35  0  0  0  0  0  0  0  0999 V2000
   -3.7202    3.0685    0.5937 H   0  0  0  1  0  0  0  0  0  0  0  0
   -4.1714    4.5173    2.0480 C   0  0  0  1  0  0  0  0  0  0  0  0
   -2.0678    3.2538    1.8076 N   0  0  0  1  0  0  0  0  0  0  0  0
   -3.1933    3.8493    1.1013 C   0  0  0  1  0  0  0  0  0  0  0  0
   -4.9357    3.8488    2.7390 O   0  0  0  1  0  0  0  0  0  0  0  0
   -4.1763    5.8584    2.1074 N   0  0  0  1  0  0  0  0  0  0  0  0
   -1.1578    3.5035    1.5431 H   0  0  0  1  0  0  0  0  0  0  0  0
   -2.2326    2.3789    2.8038 C   0  0  0  1  0  0  0  0  0  0  0  0
   -4.9973    6.6493    3.0121 C   0  0  0  1  0  0  0  0  0  0  0  0
   -0.9624    1.8194    3.4034 C   0  0  0  1  0  0  0  0  0  0  0  0
   -3.3391    2.0383    3.2201 O   0  0  0  1  0  0  0  0  0  0  0  0
   -3.5824    6.3412    1.4954 H   0  0  0  1  0  0  0  0  0  0  0  0
   -4.4696    7.5381    3.2885 H   0  0  0  1  0  0  0  0  0  0  0  0
   -5.2144    6.0763    3.8893 H   0  0  0  1  0  0  0  0  0  0  0  0
   -5.9115    6.9149    2.5236 H   0  0  0  1  0  0  0  0  0  0  0  0
   -0.1156    2.2384    2.9012 H   0  0  0  1  0  0  0  0  0  0  0  0
   -0.9534    0.7554    3.2901 H   0  0  0  1  0  0  0  0  0  0  0  0
   -0.9193    2.0683    4.4431 H   0  0  0  1  0  0  0  0  0  0  0  0
   -2.6904    4.8295    0.0305 C   0  0  0  1  0  0  0  0  0  0  0  0
   -1.7496    4.1900   -0.9776 C   0  0  0  1  0  0  0  0  0  0  0  0
   -1.3870    5.0508   -2.1581 C   0  0  0  1  0  0  0  0  0  0  0  0
   -2.3176    5.2842   -3.1585 C   0  0  0  1  0  0  0  0  0  0  0  0
   -1.9825    6.0702   -4.2447 C   0  0  0  1  0  0  0  0  0  0  0  0
   -0.7171    6.6296   -4.3311 C   0  0  0  1  0  0  0  0  0  0  0  0
    0.2110    6.3971   -3.3337 C   0  0  0  1  0  0  0  0  0  0  0  0
   -0.1254    5.6087   -2.2443 C   0  0  0  1  0  0  0  0  0  0  0  0
   -2.1725    5.6286    0.5185 H   0  0  0  1  0  0  0  0  0  0  0  0
   -3.5362    5.2206   -0.4954 H   0  0  0  1  0  0  0  0  0  0  0  0
   -2.2171    3.3017   -1.3481 H   0  0  0  1  0  0  0  0  0  0  0  0
   -0.8453    3.9315   -0.4674 H   0  0  0  1  0  0  0  0  0  0  0  0
   -3.2683    4.8677   -3.0917 H   0  0  0  1  0  0  0  0  0  0  0  0
   -2.6795    6.2419   -4.9973 H   0  0  0  1  0  0  0  0  0  0  0  0
   -0.4662    7.2244   -5.1465 H   0  0  0  1  0  0  0  0  0  0  0  0
    1.1616    6.8136   -3.4006 H   0  0  0  1  0  0  0  0  0  0  0  0
    0.5716    5.4370   -1.4918 H   0  0  0  1  0  0  0  0  0  0  0  0
  1  4  1  0  0  0  0
  2  4  1  0  0  0  0
  2  5  2  0  0  0  0
  2  6  1  0  0  0  0
  3  4  1  0  0  0  0
  3  7  1  0  0  0  0
  3  8  1  0  0  0  0
  4 19  1  0  0  0  0
  6  9  1  0  0  0  0
  6 12  1  0  0  0  0
  8 10  1  0  0  0  0
  8 11  2  0  0  0  0
  9 13  1  0  0  0  0
  9 14  1  0  0  0  0
  9 15  1  0  0  0  0
 10 16  1  0  0  0  0
 10 17  1  0  0  0  0
 10 18  1  0  0  0  0
 19 20  1  0  0  0  0
 19 27  1  0  0  0  0
 19 28  1  0  0  0  0
 20 21  1  0  0  0  0
 20 29  1  0  0  0  0
 20 30  1  0  0  0  0
 21 22  4  0  0  0  0
 21 26  4  0  0  0  0
 22 23  4  0  0  0  0
 22 31  1  0  0  0  0
 23 24  4  0  0  0  0
 23 32  1  0  0  0  0
 24 25  4  0  0  0  0
 24 33  1  0  0  0  0
 25 26  4  0  0  0  0
 25 34  1  0  0  0  0
 26 35  1  0  0  0  0
M  END
> <BCLConfClusterSize>
1

> <ConfClashScore>
0 

> <ConfOneFourInteractionScore>
-0.96405 

> <ConfScore>
0.224774 

> <ConfScorePBest>
0.00512816 

> <ConfTolerance>
0.627182 

> <RosettaParamsInstructions>
M  ROOT 3
M  POLY_N_BB 3
M  POLY_CA_BB 4
M  POLY_C_BB 2
M  POLY_O_BB 5
M  POLY_IGNORE 9 10 11 12 13 14 15 16 17 18 
M  POLY_UPPER 6
M  POLY_LOWER 8
M  POLY_CHG 0
M  POLY_PROPERTIES ALPHA_AA D_AA PROTEIN AROMATIC POLYMER 
M  END

$$$$



 35 35  0  0  0  0  0  0  0  0999 V2000
   -2.5738    1.9720    0.4091 H   0  0  0  1  0  0  0  0  0  0  0  0
   -0.6511    2.3673    1.1791 C   0  0  0  1  0  0  0  0  0  0  0  0
   -1.3130    0.4824   -0.2824 N   0  0  0  1  0  0  0  0  0  0  0  0
   -1.5644    1.8842    0.0651 C   0  0  0  1  0  0  0  0  0  0  0  0
   -0.9765    2.2661    2.3591 O   0  0  0  1  0  0  0  0  0  0  0  0
    0.5155    2.9027    0.7859 N   0  0  0  1  0  0  0  0  0  0  0  0
   -1.2269    0.2195   -1.2226 H   0  0  0  1  0  0  0  0  0  0  0  0
   -1.2005   -0.4415    0.6840 C   0  0  0  1  0  0  0  0  0  0  0  0
    1.4796    3.3585    1.7744 C   0  0  0  1  0  0  0  0  0  0  0  0
   -1.0186   -1.8527    0.1598 C   0  0  0  1  0  0  0  0  0  0  0  0
   -1.2371   -0.2018    1.8880 O   0  0  0  1  0  0  0  0  0  0  0  0
    0.7177    2.9866   -0.1693 H   0  0  0  1  0  0  0  0  0  0  0  0
    1.0028    4.0342    2.4534 H   0  0  0  1  0  0  0  0  0  0  0  0
    2.2864    3.8592    1.2810 H   0  0  0  1  0  0  0  0  0  0  0  0
    1.8592    2.5176    2.3163 H   0  0  0  1  0  0  0  0  0  0  0  0
   -1.8821   -2.1385   -0.4038 H   0  0  0  1  0  0  0  0  0  0  0  0
   -0.8914   -2.5249    0.9825 H   0  0  0  1  0  0  0  0  0  0  0  0
   -0.1539   -1.8905   -0.4692 H   0  0  0  1  0  0  0  0  0  0  0  0
   -1.4354    2.7188   -1.1947 C   0  0  0  1  0  0  0  0  0  0  0  0
   -1.7496    4.1900   -0.9776 C   0  0  0  1  0  0  0  0  0  0  0  0
   -1.3870    5.0508   -2.1581 C   0  0  0  1  0  0  0  0  0  0  0  0
   -2.3176    5.2842   -3.1585 C   0  0  0  1  0  0  0  0  0  0  0  0
   -1.9825    6.0702   -4.2447 C   0  0  0  1  0  0  0  0  0  0  0  0
   -0.7171    6.6296   -4.3311 C   0  0  0  1  0  0  0  0  0  0  0  0
    0.2110    6.3971   -3.3337 C   0  0  0  1  0  0  0  0  0  0  0  0
   -0.1254    5.6087   -2.2443 C   0  0  0  1  0  0  0  0  0  0  0  0
   -2.1115    2.3322   -1.9284 H   0  0  0  1  0  0  0  0  0  0  0  0
   -0.4314    2.6358   -1.5552 H   0  0  0  1  0  0  0  0  0  0  0  0
   -1.2018    4.5330   -0.1249 H   0  0  0  1  0  0  0  0  0  0  0  0
   -2.7986    4.2905   -0.7923 H   0  0  0  1  0  0  0  0  0  0  0  0
   -3.2683    4.8677   -3.0917 H   0  0  0  1  0  0  0  0  0  0  0  0
   -2.6795    6.2419   -4.9973 H   0  0  0  1  0  0  0  0  0  0  0  0
   -0.4662    7.2244   -5.1465 H   0  0  0  1  0  0  0  0  0  0  0  0
    1.1616    6.8136   -3.4006 H   0  0  0  1  0  0  0  0  0  0  0  0
    0.5716    5.4370   -1.4918 H   0  0  0  1  0  0  0  0  0  0  0  0
  1  4  1  0  0  0  0
  2  4  1  0  0  0  0
  2  5  2  0  0  0  0
  2  6  1  0  0  0  0
  3  4  1  0  0  0  0
  3  7  1  0  0  0  0
  3  8  1  0  0  0  0
  4 19  1  0  0  0  0
  6  9  1  0  0  0  0
  6 12  1  0  0  0  0
  8 10  1  0  0  0  0
  8 11  2  0  0  0  0
  9 13  1  0  0  0  0
  9 14  1  0  0  0  0
  9 15  1  0  0  0  0
 10 16  1  0  0  0  0
 10 17  1  0  0  0  0
 10 18  1  0  0  0  0
 19 20  1  0  0  0  0
 19 27  1  0  0  0  0
 19 28  1  0  0  0  0
 20 21  1  0  0  0  0
 20 29  1  0  0  0  0
 20 30  1  0  0  0  0
 21 22  4  0  0  0  0
 21 26  4  0  0  0  0
 22 23  4  0  0  0  0
 22 31  1  0  0  0  0
 23 24  4  0  0  0  0
 23 32  1  0  0  0  0
 24 25  4  0  0  0  0
 24 33  1  0  0  0  0
 25 26  4  0  0  0  0
 25 34  1  0  0  0  0
 26 35  1  0  0  0  0
M  END
> <BCLConfClusterSize>
1

> <ConfClashScore>
0 

> <ConfOneFourInteractionScore>
-0.96405 

> <ConfScore>
0.226099 

> <ConfScorePBest>
0.00509968 

> <ConfTolerance>
0.568377 

> <RosettaParamsInstructions>
M  ROOT 3
M  POLY_N_BB 3
M  POLY_CA_BB 4
M  POLY_C_BB 2
M  POLY_O_BB 5
M  POLY_IGNORE 9 10 11 12 13 14 15 16 17 18 
M  POLY_UPPER 6
M  POLY_LOWER 8
M  POLY_CHG 0
M  POLY_PROPERTIES ALPHA_AA D_AA PROTEIN AROMATIC POLYMER 
M  END

$$$$



 35 35  0  0  0  0  0  0  0  0999 V2000
   -0.1232    2.4872    1.5123 H   0  0  0  1  0  0  0  0  0  0  0  0
   -1.6366    1.5606    0.3860 C   0  0  0  1  0  0  0  0  0  0  0  0
   -1.9236    3.4078    1.9474 N   0  0  0  1  0  0  0  0  0  0  0  0
   -0.9976    2.8003    0.9811 C   0  0  0  1  0  0  0  0  0  0  0  0
   -0.9844    0.5383    0.1914 O   0  0  0  1  0  0  0  0  0  0  0  0
   -2.9428    1.6611    0.0933 N   0  0  0  1  0  0  0  0  0  0  0  0
   -2.2322    4.3203    1.7672 H   0  0  0  1  0  0  0  0  0  0  0  0
   -2.3783    2.8072    3.0575 C   0  0  0  1  0  0  0  0  0  0  0  0
   -3.6756    0.4990   -0.3867 C   0  0  0  1  0  0  0  0  0  0  0  0
   -3.4143    3.5779    3.8855 C   0  0  0  1  0  0  0  0  0  0  0  0
   -2.0631    1.6652    3.3812 O   0  0  0  1  0  0  0  0  0  0  0  0
   -3.4039    2.5189    0.2030 H   0  0  0  1  0  0  0  0  0  0  0  0
   -3.0505   -0.0723   -1.0408 H   0  0  0  1  0  0  0  0  0  0  0  0
   -4.5468    0.8214   -0.9178 H   0  0  0  1  0  0  0  0  0  0  0  0
   -3.9683   -0.1065    0.4455 H   0  0  0  1  0  0  0  0  0  0  0  0
   -4.3926    3.1979    3.6768 H   0  0  0  1  0  0  0  0  0  0  0  0
   -3.3734    4.6163    3.6304 H   0  0  0  1  0  0  0  0  0  0  0  0
   -3.1996    3.4572    4.9268 H   0  0  0  1  0  0  0  0  0  0  0  0
   -0.5599    3.8309   -0.0483 C   0  0  0  1  0  0  0  0  0  0  0  0
   -1.7068    4.1969   -0.9607 C   0  0  0  1  0  0  0  0  0  0  0  0
   -1.3961    5.0494   -2.1618 C   0  0  0  1  0  0  0  0  0  0  0  0
   -2.3235    5.2856   -3.1647 C   0  0  0  1  0  0  0  0  0  0  0  0
   -1.9838    6.0723   -4.2490 C   0  0  0  1  0  0  0  0  0  0  0  0
   -0.7172    6.6296   -4.3310 C   0  0  0  1  0  0  0  0  0  0  0  0
    0.2076    6.3943   -3.3312 C   0  0  0  1  0  0  0  0  0  0  0  0
   -0.1333    5.6052   -2.2437 C   0  0  0  1  0  0  0  0  0  0  0  0
    0.2384    3.4248   -0.6338 H   0  0  0  1  0  0  0  0  0  0  0  0
   -0.2200    4.7101    0.4581 H   0  0  0  1  0  0  0  0  0  0  0  0
   -2.4285    4.7238   -0.3721 H   0  0  0  1  0  0  0  0  0  0  0  0
   -2.1354    3.2840   -1.3182 H   0  0  0  1  0  0  0  0  0  0  0  0
   -3.2750    4.8707   -3.1011 H   0  0  0  1  0  0  0  0  0  0  0  0
   -2.6783    6.2461   -5.0033 H   0  0  0  1  0  0  0  0  0  0  0  0
   -0.4628    7.2249   -5.1450 H   0  0  0  1  0  0  0  0  0  0  0  0
    1.1592    6.8091   -3.3948 H   0  0  0  1  0  0  0  0  0  0  0  0
    0.5612    5.4313   -1.4894 H   0  0  0  1  0  0  0  0  0  0  0  0
  1  4  1  0  0  0  0
  2  4  1  0  0  0  0
  2  5  2  0  0  0  0
  2  6  1  0  0  0  0
  3  4  1  0  0  0  0
  3  7  1  0  0  0  0
  3  8  1  0  0  0  0
  4 19  1  0  0  0  0
  6  9  1  0  0  0  0
  6 12  1  0  0  0  0
  8 10  1  0  0  0  0
  8 11  2  0  0  0  0
  9 13  1  0  0  0  0
  9 14  1  0  0  0  0
  9 15  1  0  0  0  0
 10 16  1  0  0  0  0
 10 17  1  0  0  0  0
 10 18  1  0  0  0  0
 19 20  1  0  0  0  0
 19 27  1  0  0  0  0
 19 28  1  0  0  0  0
 20 21  1  0  0  0  0
 20 29  1  0  0  0  0
 20 30  1  0  0  0  0
 21 22  4  0  0  0  0
 21 26  4  0  0  0  0
 22 23  4  0  0  0  0
 22 31  1  0  0  0  0
 23 24  4  0  0  0  0
 23 32  1  0  0  0  0
 24 25  4  0  0  0  0
 24 33  1  0  0  0  0
 25 26  4  0  0  0  0
 25 34  1  0  0  0  0
 26 35  1  0  0  0  0
M  END
> <BCLConfClusterSize>
1

> <ConfClashScore>
0 

> <ConfOneFourInteractionScore>
-0.96213 

> <ConfScore>
0.22666 

> <ConfScorePBest>
0.0050712 

> <ConfTolerance>
0.412257 

> <RosettaParamsInstructions>
M  ROOT 3
M  POLY_N_BB 3
M  POLY_CA_BB 4
M  POLY_C_BB 2
M  POLY_O_BB 5
M  POLY_IGNORE 9 10 11 12 13 14 15 16 17 18 
M  POLY_UPPER 6
M  POLY_LOWER 8
M  POLY_CHG 0
M  POLY_PROPERTIES ALPHA_AA D_AA PROTEIN AROMATIC POLYMER 
M  END

$$$$



 35 35  0  0  0  0  0  0  0  0999 V2000
   -2.6724    2.4340    0.6191 H   0  0  0  1  0  0  0  0  0  0  0  0
   -0.9231    1.2378    0.4838 C   0  0  0  1  0  0  0  0  0  0  0  0
   -3.1402    0.7937   -0.5371 N   0  0  0  1  0  0  0  0  0  0  0  0
   -2.2063    1.8280   -0.1295 C   0  0  0  1  0  0  0  0  0  0  0  0
   -0.9154    0.1195    0.9915 O   0  0  0  1  0  0  0  0  0  0  0  0
    0.1656    2.0208    0.4238 N   0  0  0  1  0  0  0  0  0  0  0  0
   -3.5411    0.8961   -1.4254 H   0  0  0  1  0  0  0  0  0  0  0  0
   -3.5181   -0.2909    0.1672 C   0  0  0  1  0  0  0  0  0  0  0  0
    1.4483    1.6125    0.9767 C   0  0  0  1  0  0  0  0  0  0  0  0
   -4.4494   -1.2467   -0.5807 C   0  0  0  1  0  0  0  0  0  0  0  0
   -3.1060   -0.5704    1.2922 O   0  0  0  1  0  0  0  0  0  0  0  0
    0.0941    2.8980   -0.0073 H   0  0  0  1  0  0  0  0  0  0  0  0
    1.4653    0.5489    1.0918 H   0  0  0  1  0  0  0  0  0  0  0  0
    1.5892    2.0765    1.9306 H   0  0  0  1  0  0  0  0  0  0  0  0
    2.2335    1.9120    0.3144 H   0  0  0  1  0  0  0  0  0  0  0  0
   -5.0476   -1.7865    0.1234 H   0  0  0  1  0  0  0  0  0  0  0  0
   -3.8663   -1.9358   -1.1552 H   0  0  0  1  0  0  0  0  0  0  0  0
   -5.0857   -0.6864   -1.2334 H   0  0  0  1  0  0  0  0  0  0  0  0
   -1.9201    2.7237   -1.3400 C   0  0  0  1  0  0  0  0  0  0  0  0
   -1.7496    4.1900   -0.9776 C   0  0  0  1  0  0  0  0  0  0  0  0
   -1.3870    5.0508   -2.1581 C   0  0  0  1  0  0  0  0  0  0  0  0
   -2.3176    5.2842   -3.1585 C   0  0  0  1  0  0  0  0  0  0  0  0
   -1.9825    6.0702   -4.2447 C   0  0  0  1  0  0  0  0  0  0  0  0
   -0.7171    6.6296   -4.3311 C   0  0  0  1  0  0  0  0  0  0  0  0
    0.2110    6.3971   -3.3337 C   0  0  0  1  0  0  0  0  0  0  0  0
   -0.1254    5.6087   -2.2443 C   0  0  0  1  0  0  0  0  0  0  0  0
   -2.7359    2.6366   -2.0269 H   0  0  0  1  0  0  0  0  0  0  0  0
   -1.0205    2.3833   -1.8088 H   0  0  0  1  0  0  0  0  0  0  0  0
   -0.9738    4.2719   -0.2453 H   0  0  0  1  0  0  0  0  0  0  0  0
   -2.6696    4.5480   -0.5649 H   0  0  0  1  0  0  0  0  0  0  0  0
   -3.2683    4.8677   -3.0917 H   0  0  0  1  0  0  0  0  0  0  0  0
   -2.6795    6.2419   -4.9973 H   0  0  0  1  0  0  0  0  0  0  0  0
   -0.4662    7.2244   -5.1465 H   0  0  0  1  0  0  0  0  0  0  0  0
    1.1616    6.8136   -3.4006 H   0  0  0  1  0  0  0  0  0  0  0  0
    0.5716    5.4370   -1.4918 H   0  0  0  1  0  0  0  0  0  0  0  0
  1  4  1  0  0  0  0
  2  4  1  0  0  0  0
  2  5  2  0  0  0  0
  2  6  1  0  0  0  0
  3  4  1  0  0  0  0
  3  7  1  0  0  0  0
  3  8  1  0  0  0  0
  4 19  1  0  0  0  0
  6  9  1  0  0  0  0
  6 12  1  0  0  0  0
  8 10  1  0  0  0  0
  8 11  2  0  0  0  0
  9 13  1  0  0  0  0
  9 14  1  0  0  0  0
  9 15  1  0  0  0  0
 10 16  1  0  0  0  0
 10 17  1  0  0  0  0
 10 18  1  0  0  0  0
 19 20  1  0  0  0  0
 19 27  1  0  0  0  0
 19 28  1  0  0  0  0
 20 21  1  0  0  0  0
 20 29  1  0  0  0  0
 20 30  1  0  0  0  0
 21 22  4  0  0  0  0
 21 26  4  0  0  0  0
 22 23  4  0  0  0  0
 22 31  1  0  0  0  0
 23 24  4  0  0  0  0
 23 32  1  0  0  0  0
 24 25  4  0  0  0  0
 24 33  1  0  0  0  0
 25 26  4  0  0  0  0
 25 34  1  0  0  0  0
 26 35  1  0  0  0  0
M  END
> <BCLConfClusterSize>
1

> <ConfClashScore>
0 

> <ConfOneFourInteractionScore>
-0.955924 

> <ConfScore>
0.227359 

> <ConfScorePBest>
0.00504272 

> <ConfTolerance>
0.656214 

> <RosettaParamsInstructions>
M  ROOT 3
M  POLY_N_BB 3
M  POLY_CA_BB 4
M  POLY_C_BB 2
M  POLY_O_BB 5
M  POLY_IGNORE 9 10 11 12 13 14 15 16 17 18 
M  POLY_UPPER 6
M  POLY_LOWER 8
M  POLY_CHG 0
M  POLY_PROPERTIES ALPHA_AA D_AA PROTEIN AROMATIC POLYMER 
M  END

$$$$



 35 35  0  0  0  0  0  0  0  0999 V2000
    0.4031    2.9507   -2.2620 H   0  0  0  1  0  0  0  0  0  0  0  0
    0.5937    1.1251   -1.1733 C   0  0  0  1  0  0  0  0  0  0  0  0
    0.8558    3.3752   -0.2675 N   0  0  0  1  0  0  0  0  0  0  0  0
    0.1480    2.5883   -1.2881 C   0  0  0  1  0  0  0  0  0  0  0  0
    0.5905    0.4036   -2.1693 O   0  0  0  1  0  0  0  0  0  0  0  0
    1.0519    0.7277    0.0148 N   0  0  0  1  0  0  0  0  0  0  0  0
    0.2963    3.9090    0.3346 H   0  0  0  1  0  0  0  0  0  0  0  0
    2.1860    3.4458   -0.0659 C   0  0  0  1  0  0  0  0  0  0  0  0
    1.7495   -0.5253    0.2620 C   0  0  0  1  0  0  0  0  0  0  0  0
    2.5926    4.4855    0.9602 C   0  0  0  1  0  0  0  0  0  0  0  0
    3.0181    2.7495   -0.6413 O   0  0  0  1  0  0  0  0  0  0  0  0
    0.9080    1.3245    0.7786 H   0  0  0  1  0  0  0  0  0  0  0  0
    1.0382   -1.3210    0.3390 H   0  0  0  1  0  0  0  0  0  0  0  0
    2.3019   -0.4515    1.1754 H   0  0  0  1  0  0  0  0  0  0  0  0
    2.4213   -0.7248   -0.5465 H   0  0  0  1  0  0  0  0  0  0  0  0
    2.4010    5.4641    0.5724 H   0  0  0  1  0  0  0  0  0  0  0  0
    3.6360    4.3852    1.1751 H   0  0  0  1  0  0  0  0  0  0  0  0
    2.0277    4.3408    1.8573 H   0  0  0  1  0  0  0  0  0  0  0  0
   -1.3539    2.7269   -1.0921 C   0  0  0  1  0  0  0  0  0  0  0  0
   -1.7496    4.1900   -0.9776 C   0  0  0  1  0  0  0  0  0  0  0  0
   -1.3870    5.0508   -2.1581 C   0  0  0  1  0  0  0  0  0  0  0  0
   -2.3176    5.2842   -3.1585 C   0  0  0  1  0  0  0  0  0  0  0  0
   -1.9825    6.0702   -4.2447 C   0  0  0  1  0  0  0  0  0  0  0  0
   -0.7171    6.6296   -4.3311 C   0  0  0  1  0  0  0  0  0  0  0  0
    0.2110    6.3971   -3.3337 C   0  0  0  1  0  0  0  0  0  0  0  0
   -0.1254    5.6087   -2.2443 C   0  0  0  1  0  0  0  0  0  0  0  0
   -1.6397    2.2150   -0.1970 H   0  0  0  1  0  0  0  0  0  0  0  0
   -1.8586    2.2914   -1.9292 H   0  0  0  1  0  0  0  0  0  0  0  0
   -1.2674    4.5956   -0.1128 H   0  0  0  1  0  0  0  0  0  0  0  0
   -2.8109    4.2358   -0.8493 H   0  0  0  1  0  0  0  0  0  0  0  0
   -3.2683    4.8677   -3.0917 H   0  0  0  1  0  0  0  0  0  0  0  0
   -2.6795    6.2419   -4.9973 H   0  0  0  1  0  0  0  0  0  0  0  0
   -0.4662    7.2244   -5.1465 H   0  0  0  1  0  0  0  0  0  0  0  0
    1.1616    6.8136   -3.4006 H   0  0  0  1  0  0  0  0  0  0  0  0
    0.5716    5.4370   -1.4918 H   0  0  0  1  0  0  0  0  0  0  0  0
  1  4  1  0  0  0  0
  2  4  1  0  0  0  0
  2  5  2  0  0  0  0
  2  6  1  0  0  0  0
  3  4  1  0  0  0  0
  3  7  1  0  0  0  0
  3  8  1  0  0  0  0
  4 19  1  0  0  0  0
  6  9  1  0  0  0  0
  6 12  1  0  0  0  0
  8 10  1  0  0  0  0
  8 11  2  0  0  0  0
  9 13  1  0  0  0  0
  9 14  1  0  0  0  0
  9 15  1  0  0  0  0
 10 16  1  0  0  0  0
 10 17  1  0  0  0  0
 10 18  1  0  0  0  0
 19 20  1  0  0  0  0
 19 27  1  0  0  0  0
 19 28  1  0  0  0  0
 20 21  1  0  0  0  0
 20 29  1  0  0  0  0
 20 30  1  0  0  0  0
 21 22  4  0  0  0  0
 21 26  4  0  0  0  0
 22 23  4  0  0  0  0
 22 31  1  0  0  0  0
 23 24  4  0  0  0  0
 23 32  1  0  0  0  0
 24 25  4  0  0  0  0
 24 33  1  0  0  0  0
 25 26  4  0  0  0  0
 25 34  1  0  0  0  0
 26 35  1  0  0  0  0
M  END
> <BCLConfClusterSize>
1

> <ConfClashScore>
0 

> <ConfOneFourInteractionScore>
-0.95508 

> <ConfScore>
0.228555 

> <ConfScorePBest>
0.00501424 

> <ConfTolerance>
0.512837 

> <RosettaParamsInstructions>
M  ROOT 3
M  POLY_N_BB 3
M  POLY_CA_BB 4
M  POLY_C_BB 2
M  POLY_O_BB 5
M  POLY_IGNORE 9 10 11 12 13 14 15 16 17 18 
M  POLY_UPPER 6
M  POLY_LOWER 8
M  POLY_CHG 0
M  POLY_PROPERTIES ALPHA_AA D_AA PROTEIN AROMATIC POLYMER 
M  END

$$$$



 35 35  0  0  0  0  0  0  0  0999 V2000
   -2.5701    3.4086    1.4541 H   0  0  0  1  0  0  0  0  0  0  0  0
   -4.4809    3.4745    0.5159 C   0  0  0  1  0  0  0  0  0  0  0  0
   -3.6681    5.0110    2.2212 N   0  0  0  1  0  0  0  0  0  0  0  0
   -3.2456    4.1590    1.1000 C   0  0  0  1  0  0  0  0  0  0  0  0
   -4.6361    3.3219   -0.6820 O   0  0  0  1  0  0  0  0  0  0  0  0
   -5.4275    3.0255    1.3450 N   0  0  0  1  0  0  0  0  0  0  0  0
   -3.5137    4.7176    3.1435 H   0  0  0  1  0  0  0  0  0  0  0  0
   -4.2647    6.1892    1.9845 C   0  0  0  1  0  0  0  0  0  0  0  0
   -6.6632    2.4270    0.8628 C   0  0  0  1  0  0  0  0  0  0  0  0
   -4.7524    6.9431    3.2151 C   0  0  0  1  0  0  0  0  0  0  0  0
   -4.4171    6.6476    0.8530 O   0  0  0  1  0  0  0  0  0  0  0  0
   -5.2846    3.1019    2.3115 H   0  0  0  1  0  0  0  0  0  0  0  0
   -7.4381    3.1648    0.8549 H   0  0  0  1  0  0  0  0  0  0  0  0
   -6.9447    1.6214    1.5083 H   0  0  0  1  0  0  0  0  0  0  0  0
   -6.5154    2.0547   -0.1294 H   0  0  0  1  0  0  0  0  0  0  0  0
   -5.6309    6.4686    3.5998 H   0  0  0  1  0  0  0  0  0  0  0  0
   -4.9814    7.9532    2.9467 H   0  0  0  1  0  0  0  0  0  0  0  0
   -3.9874    6.9370    3.9632 H   0  0  0  1  0  0  0  0  0  0  0  0
   -2.5358    5.0009    0.0572 C   0  0  0  1  0  0  0  0  0  0  0  0
   -1.8303    4.1748   -1.0060 C   0  0  0  1  0  0  0  0  0  0  0  0
   -1.3698    5.0537   -2.1514 C   0  0  0  1  0  0  0  0  0  0  0  0
   -2.3066    5.2818   -3.1473 C   0  0  0  1  0  0  0  0  0  0  0  0
   -1.9799    6.0666   -4.2371 C   0  0  0  1  0  0  0  0  0  0  0  0
   -0.7169    6.6300   -4.3315 C   0  0  0  1  0  0  0  0  0  0  0  0
    0.2174    6.4026   -3.3386 C   0  0  0  1  0  0  0  0  0  0  0  0
   -0.1105    5.6155   -2.2457 C   0  0  0  1  0  0  0  0  0  0  0  0
   -1.8083    5.6106    0.5512 H   0  0  0  1  0  0  0  0  0  0  0  0
   -3.2588    5.6263   -0.4235 H   0  0  0  1  0  0  0  0  0  0  0  0
   -2.5062    3.4350   -1.3811 H   0  0  0  1  0  0  0  0  0  0  0  0
   -0.9803    3.6935   -0.5694 H   0  0  0  1  0  0  0  0  0  0  0  0
   -3.2555    4.8624   -3.0745 H   0  0  0  1  0  0  0  0  0  0  0  0
   -2.6815    6.2344   -4.9862 H   0  0  0  1  0  0  0  0  0  0  0  0
   -0.4723    7.2238   -5.1495 H   0  0  0  1  0  0  0  0  0  0  0  0
    1.1662    6.8221   -3.4115 H   0  0  0  1  0  0  0  0  0  0  0  0
    0.5911    5.4477   -1.4966 H   0  0  0  1  0  0  0  0  0  0  0  0
  1  4  1  0  0  0  0
  2  4  1  0  0  0  0
  2  5  2  0  0  0  0
  2  6  1  0  0  0  0
  3  4  1  0  0  0  0
  3  7  1  0  0  0  0
  3  8  1  0  0  0  0
  4 19  1  0  0  0  0
  6  9  1  0  0  0  0
  6 12  1  0  0  0  0
  8 10  1  0  0  0  0
  8 11  2  0  0  0  0
  9 13  1  0  0  0  0
  9 14  1  0  0  0  0
  9 15  1  0  0  0  0
 10 16  1  0  0  0  0
 10 17  1  0  0  0  0
 10 18  1  0  0  0  0
 19 20  1  0  0  0  0
 19 27  1  0  0  0  0
 19 28  1  0  0  0  0
 20 21  1  0  0  0  0
 20 29  1  0  0  0  0
 20 30  1  0  0  0  0
 21 22  4  0  0  0  0
 21 26  4  0  0  0  0
 22 23  4  0  0  0  0
 22 31  1  0  0  0  0
 23 24  4  0  0  0  0
 23 32  1  0  0  0  0
 24 25  4  0  0  0  0
 24 33  1  0  0  0  0
 25 26  4  0  0  0  0
 25 34  1  0  0  0  0
 26 35  1  0  0  0  0
M  END
> <BCLConfClusterSize>
1

> <ConfClashScore>
0 

> <ConfOneFourInteractionScore>
-0.967698 

> <ConfScore>
0.22891 

> <ConfScorePBest>
0.00498576 

> <ConfTolerance>
0.441627 

> <RosettaParamsInstructions>
M  ROOT 3
M  POLY_N_BB 3
M  POLY_CA_BB 4
M  POLY_C_BB 2
M  POLY_O_BB 5
M  POLY_IGNORE 9 10 11 12 13 14 15 16 17 18 
M  POLY_UPPER 6
M  POLY_LOWER 8
M  POLY_CHG 0
M  POLY_PROPERTIES ALPHA_AA D_AA PROTEIN AROMATIC POLYMER 
M  END

$$$$



 35 35  0  0  0  0  0  0  0  0999 V2000
   -3.4950    4.5887    1.9425 H   0  0  0  1  0  0  0  0  0  0  0  0
   -2.0616    3.0548    1.8721 C   0  0  0  1  0  0  0  0  0  0  0  0
   -4.1653    3.2438    0.5360 N   0  0  0  1  0  0  0  0  0  0  0  0
   -3.0664    3.9720    1.1804 C   0  0  0  1  0  0  0  0  0  0  0  0
   -1.9305    1.8797    1.5320 O   0  0  0  1  0  0  0  0  0  0  0  0
   -1.3498    3.6106    2.8538 N   0  0  0  1  0  0  0  0  0  0  0  0
   -4.0613    2.9585   -0.3958 H   0  0  0  1  0  0  0  0  0  0  0  0
   -5.3026    2.9562    1.1754 C   0  0  0  1  0  0  0  0  0  0  0  0
   -0.4338    2.8405    3.6818 C   0  0  0  1  0  0  0  0  0  0  0  0
   -6.3827    2.3090    0.3365 C   0  0  0  1  0  0  0  0  0  0  0  0
   -5.4783    3.1946    2.3673 O   0  0  0  1  0  0  0  0  0  0  0  0
   -1.4471    4.5709    3.0233 H   0  0  0  1  0  0  0  0  0  0  0  0
   -0.0292    2.0317    3.1099 H   0  0  0  1  0  0  0  0  0  0  0  0
   -0.9602    2.4505    4.5278 H   0  0  0  1  0  0  0  0  0  0  0  0
    0.3616    3.4731    4.0166 H   0  0  0  1  0  0  0  0  0  0  0  0
   -5.9919    2.0777   -0.6323 H   0  0  0  1  0  0  0  0  0  0  0  0
   -7.2079    2.9827    0.2364 H   0  0  0  1  0  0  0  0  0  0  0  0
   -6.7120    1.4089    0.8122 H   0  0  0  1  0  0  0  0  0  0  0  0
   -2.4422    4.9118    0.1668 C   0  0  0  1  0  0  0  0  0  0  0  0
   -1.7496    4.1900   -0.9776 C   0  0  0  1  0  0  0  0  0  0  0  0
   -1.3870    5.0508   -2.1581 C   0  0  0  1  0  0  0  0  0  0  0  0
   -2.3176    5.2842   -3.1585 C   0  0  0  1  0  0  0  0  0  0  0  0
   -1.9825    6.0702   -4.2447 C   0  0  0  1  0  0  0  0  0  0  0  0
   -0.7171    6.6296   -4.3311 C   0  0  0  1  0  0  0  0  0  0  0  0
    0.2110    6.3971   -3.3337 C   0  0  0  1  0  0  0  0  0  0  0  0
   -0.1254    5.6087   -2.2443 C   0  0  0  1  0  0  0  0  0  0  0  0
   -1.7209    5.5220    0.6691 H   0  0  0  1  0  0  0  0  0  0  0  0
   -3.2131    5.5321   -0.2404 H   0  0  0  1  0  0  0  0  0  0  0  0
   -2.4021    3.4152   -1.3222 H   0  0  0  1  0  0  0  0  0  0  0  0
   -0.8490    3.7555   -0.5969 H   0  0  0  1  0  0  0  0  0  0  0  0
   -3.2683    4.8677   -3.0917 H   0  0  0  1  0  0  0  0  0  0  0  0
   -2.6795    6.2419   -4.9973 H   0  0  0  1  0  0  0  0  0  0  0  0
   -0.4662    7.2244   -5.1465 H   0  0  0  1  0  0  0  0  0  0  0  0
    1.1616    6.8136   -3.4006 H   0  0  0  1  0  0  0  0  0  0  0  0
    0.5716    5.4370   -1.4918 H   0  0  0  1  0  0  0  0  0  0  0  0
  1  4  1  0  0  0  0
  2  4  1  0  0  0  0
  2  5  2  0  0  0  0
  2  6  1  0  0  0  0
  3  4  1  0  0  0  0
  3  7  1  0  0  0  0
  3  8  1  0  0  0  0
  4 19  1  0  0  0  0
  6  9  1  0  0  0  0
  6 12  1  0  0  0  0
  8 10  1  0  0  0  0
  8 11  2  0  0  0  0
  9 13  1  0  0  0  0
  9 14  1  0  0  0  0
  9 15  1  0  0  0  0
 10 16  1  0  0  0  0
 10 17  1  0  0  0  0
 10 18  1  0  0  0  0
 19 20  1  0  0  0  0
 19 27  1  0  0  0  0
 19 28  1  0  0  0  0
 20 21  1  0  0  0  0
 20 29  1  0  0  0  0
 20 30  1  0  0  0  0
 21 22  4  0  0  0  0
 21 26  4  0  0  0  0
 22 23  4  0  0  0  0
 22 31  1  0  0  0  0
 23 24  4  0  0  0  0
 23 32  1  0  0  0  0
 24 25  4  0  0  0  0
 24 33  1  0  0  0  0
 25 26  4  0  0  0  0
 25 34  1  0  0  0  0
 26 35  1  0  0  0  0
M  END
> <BCLConfClusterSize>
1

> <ConfClashScore>
0 

> <ConfOneFourInteractionScore>
-0.969727 

> <ConfScore>
0.230229 

> <ConfScorePBest>
0.00495728 

> <ConfTolerance>
0.555072 

> <RosettaParamsInstructions>
M  ROOT 3
M  POLY_N_BB 3
M  POLY_CA_BB 4
M  POLY_C_BB 2
M  POLY_O_BB 5
M  POLY_IGNORE 9 10 11 12 13 14 15 16 17 18 
M  POLY_UPPER 6
M  POLY_LOWER 8
M  POLY_CHG 0
M  POLY_PROPERTIES ALPHA_AA D_AA PROTEIN AROMATIC POLYMER 
M  END

$$$$



 35 35  0  0  0  0  0  0  0  0999 V2000
   -2.9388    3.0763    1.1305 H   0  0  0  1  0  0  0  0  0  0  0  0
   -3.7248    4.6378    2.3107 C   0  0  0  1  0  0  0  0  0  0  0  0
   -1.3793    4.0452    2.0777 N   0  0  0  1  0  0  0  0  0  0  0  0
   -2.6604    4.0768    1.3879 C   0  0  0  1  0  0  0  0  0  0  0  0
   -4.7563    5.1346    1.8662 O   0  0  0  1  0  0  0  0  0  0  0  0
   -3.4614    4.5531    3.6243 N   0  0  0  1  0  0  0  0  0  0  0  0
   -0.9076    3.1942    2.1942 H   0  0  0  1  0  0  0  0  0  0  0  0
   -0.8424    5.1795    2.5545 C   0  0  0  1  0  0  0  0  0  0  0  0
   -4.3207    5.2262    4.5868 C   0  0  0  1  0  0  0  0  0  0  0  0
    0.4948    5.0295    3.2685 C   0  0  0  1  0  0  0  0  0  0  0  0
   -1.3811    6.2788    2.4322 O   0  0  0  1  0  0  0  0  0  0  0  0
   -2.6888    4.0369    3.9358 H   0  0  0  1  0  0  0  0  0  0  0  0
   -4.7390    6.1038    4.1397 H   0  0  0  1  0  0  0  0  0  0  0  0
   -3.7455    5.5033    5.4455 H   0  0  0  1  0  0  0  0  0  0  0  0
   -5.1094    4.5666    4.8829 H   0  0  0  1  0  0  0  0  0  0  0  0
    1.2880    5.2930    2.6004 H   0  0  0  1  0  0  0  0  0  0  0  0
    0.6179    4.0149    3.5852 H   0  0  0  1  0  0  0  0  0  0  0  0
    0.5179    5.6752    4.1214 H   0  0  0  1  0  0  0  0  0  0  0  0
   -2.5676    4.8776    0.1034 C   0  0  0  1  0  0  0  0  0  0  0  0
   -1.7496    4.1900   -0.9776 C   0  0  0  1  0  0  0  0  0  0  0  0
   -1.3870    5.0508   -2.1581 C   0  0  0  1  0  0  0  0  0  0  0  0
   -2.3176    5.2842   -3.1585 C   0  0  0  1  0  0  0  0  0  0  0  0
   -1.9825    6.0702   -4.2447 C   0  0  0  1  0  0  0  0  0  0  0  0
   -0.7171    6.6296   -4.3311 C   0  0  0  1  0  0  0  0  0  0  0  0
    0.2110    6.3971   -3.3337 C   0  0  0  1  0  0  0  0  0  0  0  0
   -0.1254    5.6087   -2.2443 C   0  0  0  1  0  0  0  0  0  0  0  0
   -2.1135    5.8211    0.3238 H   0  0  0  1  0  0  0  0  0  0  0  0
   -3.5577    5.0363   -0.2698 H   0  0  0  1  0  0  0  0  0  0  0  0
   -2.3143    3.3559   -1.3384 H   0  0  0  1  0  0  0  0  0  0  0  0
   -0.8415    3.8407   -0.5324 H   0  0  0  1  0  0  0  0  0  0  0  0
   -3.2683    4.8677   -3.0917 H   0  0  0  1  0  0  0  0  0  0  0  0
   -2.6795    6.2419   -4.9973 H   0  0  0  1  0  0  0  0  0  0  0  0
   -0.4662    7.2244   -5.1465 H   0  0  0  1  0  0  0  0  0  0  0  0
    1.1616    6.8136   -3.4006 H   0  0  0  1  0  0  0  0  0  0  0  0
    0.5716    5.4370   -1.4918 H   0  0  0  1  0  0  0  0  0  0  0  0
  1  4  1  0  0  0  0
  2  4  1  0  0  0  0
  2  5  2  0  0  0  0
  2  6  1  0  0  0  0
  3  4  1  0  0  0  0
  3  7  1  0  0  0  0
  3  8  1  0  0  0  0
  4 19  1  0  0  0  0
  6  9  1  0  0  0  0
  6 12  1  0  0  0  0
  8 10  1  0  0  0  0
  8 11  2  0  0  0  0
  9 13  1  0  0  0  0
  9 14  1  0  0  0  0
  9 15  1  0  0  0  0
 10 16  1  0  0  0  0
 10 17  1  0  0  0  0
 10 18  1  0  0  0  0
 19 20  1  0  0  0  0
 19 27  1  0  0  0  0
 19 28  1  0  0  0  0
 20 21  1  0  0  0  0
 20 29  1  0  0  0  0
 20 30  1  0  0  0  0
 21 22  4  0  0  0  0
 21 26  4  0  0  0  0
 22 23  4  0  0  0  0
 22 31  1  0  0  0  0
 23 24  4  0  0  0  0
 23 32  1  0  0  0  0
 24 25  4  0  0  0  0
 24 33  1  0  0  0  0
 25 26  4  0  0  0  0
 25 34  1  0  0  0  0
 26 35  1  0  0  0  0
M  END
> <BCLConfClusterSize>
1

> <ConfClashScore>
0 

> <ConfOneFourInteractionScore>
-0.968021 

> <ConfScore>
0.230454 

> <ConfScorePBest>
0.0049288 

> <ConfTolerance>
0.311378 

> <RosettaParamsInstructions>
M  ROOT 3
M  POLY_N_BB 3
M  POLY_CA_BB 4
M  POLY_C_BB 2
M  POLY_O_BB 5
M  POLY_IGNORE 9 10 11 12 13 14 15 16 17 18 
M  POLY_UPPER 6
M  POLY_LOWER 8
M  POLY_CHG 0
M  POLY_PROPERTIES ALPHA_AA D_AA PROTEIN AROMATIC POLYMER 
M  END

$$$$



 35 35  0  0  0  0  0  0  0  0999 V2000
   -3.0021    3.1087    1.0356 H   0  0  0  1  0  0  0  0  0  0  0  0
   -2.9162    4.5548    2.5764 C   0  0  0  1  0  0  0  0  0  0  0  0
   -1.0347    3.2076    1.6765 N   0  0  0  1  0  0  0  0  0  0  0  0
   -2.3085    3.8465    1.3812 C   0  0  0  1  0  0  0  0  0  0  0  0
   -3.8395    5.3535    2.4422 O   0  0  0  1  0  0  0  0  0  0  0  0
   -2.3809    4.2503    3.7685 N   0  0  0  1  0  0  0  0  0  0  0  0
   -1.0045    2.2322    1.7663 H   0  0  0  1  0  0  0  0  0  0  0  0
    0.0948    3.9046    1.8293 C   0  0  0  1  0  0  0  0  0  0  0  0
   -2.8994    4.7937    5.0150 C   0  0  0  1  0  0  0  0  0  0  0  0
    1.3809    3.1022    1.8635 C   0  0  0  1  0  0  0  0  0  0  0  0
    0.1126    5.1323    1.8593 O   0  0  0  1  0  0  0  0  0  0  0  0
   -1.6142    3.6409    3.8009 H   0  0  0  1  0  0  0  0  0  0  0  0
   -2.7622    5.8548    5.0265 H   0  0  0  1  0  0  0  0  0  0  0  0
   -2.3749    4.3575    5.8393 H   0  0  0  1  0  0  0  0  0  0  0  0
   -3.9423    4.5683    5.0956 H   0  0  0  1  0  0  0  0  0  0  0  0
    1.7376    2.9563    0.8653 H   0  0  0  1  0  0  0  0  0  0  0  0
    1.1959    2.1515    2.3183 H   0  0  0  1  0  0  0  0  0  0  0  0
    2.1169    3.6324    2.4310 H   0  0  0  1  0  0  0  0  0  0  0  0
   -2.1117    4.8799    0.2681 C   0  0  0  1  0  0  0  0  0  0  0  0
   -1.7381    4.1427   -1.0113 C   0  0  0  1  0  0  0  0  0  0  0  0
   -1.3926    5.0693   -2.1462 C   0  0  0  1  0  0  0  0  0  0  0  0
   -2.3215    5.2960   -3.1498 C   0  0  0  1  0  0  0  0  0  0  0  0
   -1.9824    6.0699   -4.2436 C   0  0  0  1  0  0  0  0  0  0  0  0
   -0.7149    6.6237   -4.3344 C   0  0  0  1  0  0  0  0  0  0  0  0
    0.2115    6.3977   -3.3339 C   0  0  0  1  0  0  0  0  0  0  0  0
   -0.1288    5.6215   -2.2369 C   0  0  0  1  0  0  0  0  0  0  0  0
   -1.3275    5.5562    0.5375 H   0  0  0  1  0  0  0  0  0  0  0  0
   -3.0191    5.4267    0.1181 H   0  0  0  1  0  0  0  0  0  0  0  0
   -2.5669    3.5346   -1.3084 H   0  0  0  1  0  0  0  0  0  0  0  0
   -0.8917    3.5196   -0.8106 H   0  0  0  1  0  0  0  0  0  0  0  0
   -3.2737    4.8838   -3.0797 H   0  0  0  1  0  0  0  0  0  0  0  0
   -2.6781    6.2366   -4.9985 H   0  0  0  1  0  0  0  0  0  0  0  0
   -0.4610    7.2093   -5.1555 H   0  0  0  1  0  0  0  0  0  0  0  0
    1.1637    6.8099   -3.4040 H   0  0  0  1  0  0  0  0  0  0  0  0
    0.5669    5.4547   -1.4820 H   0  0  0  1  0  0  0  0  0  0  0  0
  1  4  1  0  0  0  0
  2  4  1  0  0  0  0
  2  5  2  0  0  0  0
  2  6  1  0  0  0  0
  3  4  1  0  0  0  0
  3  7  1  0  0  0  0
  3  8  1  0  0  0  0
  4 19  1  0  0  0  0
  6  9  1  0  0  0  0
  6 12  1  0  0  0  0
  8 10  1  0  0  0  0
  8 11  2  0  0  0  0
  9 13  1  0  0  0  0
  9 14  1  0  0  0  0
  9 15  1  0  0  0  0
 10 16  1  0  0  0  0
 10 17  1  0  0  0  0
 10 18  1  0  0  0  0
 19 20  1  0  0  0  0
 19 27  1  0  0  0  0
 19 28  1  0  0  0  0
 20 21  1  0  0  0  0
 20 29  1  0  0  0  0
 20 30  1  0  0  0  0
 21 22  4  0  0  0  0
 21 26  4  0  0  0  0
 22 23  4  0  0  0  0
 22 31  1  0  0  0  0
 23 24  4  0  0  0  0
 23 32  1  0  0  0  0
 24 25  4  0  0  0  0
 24 33  1  0  0  0  0
 25 26  4  0  0  0  0
 25 34  1  0  0  0  0
 26 35  1  0  0  0  0
M  END
> <BCLConfClusterSize>
1

> <ConfClashScore>
0 

> <ConfOneFourInteractionScore>
-0.967993 

> <ConfScore>
0.23142 

> <ConfScorePBest>
0.00490032 

> <ConfTolerance>
0.366314 

> <RosettaParamsInstructions>
M  ROOT 3
M  POLY_N_BB 3
M  POLY_CA_BB 4
M  POLY_C_BB 2
M  POLY_O_BB 5
M  POLY_IGNORE 9 10 11 12 13 14 15 16 17 18 
M  POLY_UPPER 6
M  POLY_LOWER 8
M  POLY_CHG 0
M  POLY_PROPERTIES ALPHA_AA D_AA PROTEIN AROMATIC POLYMER 
M  END

$$$$



 35 35  0  0  0  0  0  0  0  0999 V2000
   -0.6931    0.9633   -0.1223 H   0  0  0  1  0  0  0  0  0  0  0  0
   -2.7600    1.3674   -0.4071 C   0  0  0  1  0  0  0  0  0  0  0  0
   -1.3996    2.2783    1.3291 N   0  0  0  1  0  0  0  0  0  0  0  0
   -1.3531    1.8020   -0.0452 C   0  0  0  1  0  0  0  0  0  0  0  0
   -3.7381    2.0285   -0.0686 O   0  0  0  1  0  0  0  0  0  0  0  0
   -2.8556    0.2286   -1.1113 N   0  0  0  1  0  0  0  0  0  0  0  0
   -0.9529    3.1214    1.5529 H   0  0  0  1  0  0  0  0  0  0  0  0
   -2.0318    1.6044    2.2990 C   0  0  0  1  0  0  0  0  0  0  0  0
   -4.1161   -0.2357   -1.6712 C   0  0  0  1  0  0  0  0  0  0  0  0
   -1.9540    2.1467    3.7082 C   0  0  0  1  0  0  0  0  0  0  0  0
   -2.6579    0.5744    2.0529 O   0  0  0  1  0  0  0  0  0  0  0  0
   -2.0485   -0.3089   -1.2533 H   0  0  0  1  0  0  0  0  0  0  0  0
   -4.0663   -1.2918   -1.8360 H   0  0  0  1  0  0  0  0  0  0  0  0
   -4.2979    0.2619   -2.6009 H   0  0  0  1  0  0  0  0  0  0  0  0
   -4.9108   -0.0186   -0.9885 H   0  0  0  1  0  0  0  0  0  0  0  0
   -1.7380    3.1942    3.6764 H   0  0  0  1  0  0  0  0  0  0  0  0
   -1.1788    1.6390    4.2431 H   0  0  0  1  0  0  0  0  0  0  0  0
   -2.8901    1.9906    4.2023 H   0  0  0  1  0  0  0  0  0  0  0  0
   -0.8927    2.8796   -0.9954 C   0  0  0  1  0  0  0  0  0  0  0  0
   -1.7381    4.1427   -1.0113 C   0  0  0  1  0  0  0  0  0  0  0  0
   -1.3926    5.0693   -2.1462 C   0  0  0  1  0  0  0  0  0  0  0  0
   -2.3215    5.2960   -3.1498 C   0  0  0  1  0  0  0  0  0  0  0  0
   -1.9824    6.0699   -4.2436 C   0  0  0  1  0  0  0  0  0  0  0  0
   -0.7149    6.6237   -4.3344 C   0  0  0  1  0  0  0  0  0  0  0  0
    0.2115    6.3977   -3.3339 C   0  0  0  1  0  0  0  0  0  0  0  0
   -0.1288    5.6215   -2.2369 C   0  0  0  1  0  0  0  0  0  0  0  0
   -0.8937    2.4699   -1.9838 H   0  0  0  1  0  0  0  0  0  0  0  0
    0.1051    3.1543   -0.7236 H   0  0  0  1  0  0  0  0  0  0  0  0
   -1.5892    4.6639   -0.0888 H   0  0  0  1  0  0  0  0  0  0  0  0
   -2.7669    3.8628   -1.1013 H   0  0  0  1  0  0  0  0  0  0  0  0
   -3.2737    4.8838   -3.0797 H   0  0  0  1  0  0  0  0  0  0  0  0
   -2.6781    6.2366   -4.9985 H   0  0  0  1  0  0  0  0  0  0  0  0
   -0.4610    7.2093   -5.1555 H   0  0  0  1  0  0  0  0  0  0  0  0
    1.1637    6.8099   -3.4040 H   0  0  0  1  0  0  0  0  0  0  0  0
    0.5669    5.4547   -1.4820 H   0  0  0  1  0  0  0  0  0  0  0  0
  1  4  1  0  0  0  0
  2  4  1  0  0  0  0
  2  5  2  0  0  0  0
  2  6  1  0  0  0  0
  3  4  1  0  0  0  0
  3  7  1  0  0  0  0
  3  8  1  0  0  0  0
  4 19  1  0  0  0  0
  6  9  1  0  0  0  0
  6 12  1  0  0  0  0
  8 10  1  0  0  0  0
  8 11  2  0  0  0  0
  9 13  1  0  0  0  0
  9 14  1  0  0  0  0
  9 15  1  0  0  0  0
 10 16  1  0  0  0  0
 10 17  1  0  0  0  0
 10 18  1  0  0  0  0
 19 20  1  0  0  0  0
 19 27  1  0  0  0  0
 19 28  1  0  0  0  0
 20 21  1  0  0  0  0
 20 29  1  0  0  0  0
 20 30  1  0  0  0  0
 21 22  4  0  0  0  0
 21 26  4  0  0  0  0
 22 23  4  0  0  0  0
 22 31  1  0  0  0  0
 23 24  4  0  0  0  0
 23 32  1  0  0  0  0
 24 25  4  0  0  0  0
 24 33  1  0  0  0  0
 25 26  4  0  0  0  0
 25 34  1  0  0  0  0
 26 35  1  0  0  0  0
M  END
> <BCLConfClusterSize>
1

> <ConfClashScore>
0 

> <ConfOneFourInteractionScore>
-0.963922 

> <ConfScore>
0.234231 

> <ConfScorePBest>
0.00487184 

> <ConfTolerance>
0.578251 

> <RosettaParamsInstructions>
M  ROOT 3
M  POLY_N_BB 3
M  POLY_CA_BB 4
M  POLY_C_BB 2
M  POLY_O_BB 5
M  POLY_IGNORE 9 10 11 12 13 14 15 16 17 18 
M  POLY_UPPER 6
M  POLY_LOWER 8
M  POLY_CHG 0
M  POLY_PROPERTIES ALPHA_AA D_AA PROTEIN AROMATIC POLYMER 
M  END

$$$$



 35 35  0  0  0  0  0  0  0  0999 V2000
   -3.3607    4.8583    1.9838 H   0  0  0  1  0  0  0  0  0  0  0  0
   -2.1468    3.1593    1.8419 C   0  0  0  1  0  0  0  0  0  0  0  0
   -4.3497    3.5461    0.7452 N   0  0  0  1  0  0  0  0  0  0  0  0
   -3.1022    4.1576    1.2176 C   0  0  0  1  0  0  0  0  0  0  0  0
   -0.9293    3.3319    1.8053 O   0  0  0  1  0  0  0  0  0  0  0  0
   -2.7168    2.0935    2.4262 N   0  0  0  1  0  0  0  0  0  0  0  0
   -5.2036    3.9395    1.0217 H   0  0  0  1  0  0  0  0  0  0  0  0
   -4.3618    2.4715   -0.0486 C   0  0  0  1  0  0  0  0  0  0  0  0
   -1.9915    1.0174    3.0849 C   0  0  0  1  0  0  0  0  0  0  0  0
   -5.7316    1.9943   -0.4903 C   0  0  0  1  0  0  0  0  0  0  0  0
   -3.3381    1.8935   -0.4085 O   0  0  0  1  0  0  0  0  0  0  0  0
   -3.6949    2.0359    2.4080 H   0  0  0  1  0  0  0  0  0  0  0  0
   -1.2753    1.4321    3.7631 H   0  0  0  1  0  0  0  0  0  0  0  0
   -1.4859    0.4264    2.3500 H   0  0  0  1  0  0  0  0  0  0  0  0
   -2.6801    0.4024    3.6257 H   0  0  0  1  0  0  0  0  0  0  0  0
   -6.4851    2.6087   -0.0436 H   0  0  0  1  0  0  0  0  0  0  0  0
   -5.8714    0.9789   -0.1831 H   0  0  0  1  0  0  0  0  0  0  0  0
   -5.8049    2.0584   -1.5558 H   0  0  0  1  0  0  0  0  0  0  0  0
   -2.5044    4.9498    0.1054 C   0  0  0  1  0  0  0  0  0  0  0  0
   -1.7496    4.1900   -0.9776 C   0  0  0  1  0  0  0  0  0  0  0  0
   -1.3870    5.0508   -2.1581 C   0  0  0  1  0  0  0  0  0  0  0  0
   -2.3176    5.2842   -3.1585 C   0  0  0  1  0  0  0  0  0  0  0  0
   -1.9825    6.0702   -4.2447 C   0  0  0  1  0  0  0  0  0  0  0  0
   -0.7171    6.6296   -4.3311 C   0  0  0  1  0  0  0  0  0  0  0  0
    0.2110    6.3971   -3.3337 C   0  0  0  1  0  0  0  0  0  0  0  0
   -0.1254    5.6087   -2.2443 C   0  0  0  1  0  0  0  0  0  0  0  0
   -1.8208    5.6478    0.5416 H   0  0  0  1  0  0  0  0  0  0  0  0
   -3.3007    5.4809   -0.3728 H   0  0  0  1  0  0  0  0  0  0  0  0
   -2.3647    3.3841   -1.3199 H   0  0  0  1  0  0  0  0  0  0  0  0
   -0.8494    3.7969   -0.5534 H   0  0  0  1  0  0  0  0  0  0  0  0
   -3.2683    4.8677   -3.0917 H   0  0  0  1  0  0  0  0  0  0  0  0
   -2.6795    6.2419   -4.9973 H   0  0  0  1  0  0  0  0  0  0  0  0
   -0.4662    7.2244   -5.1465 H   0  0  0  1  0  0  0  0  0  0  0  0
    1.1616    6.8136   -3.4006 H   0  0  0  1  0  0  0  0  0  0  0  0
    0.5716    5.4370   -1.4918 H   0  0  0  1  0  0  0  0  0  0  0  0
  1  4  1  0  0  0  0
  2  4  1  0  0  0  0
  2  5  2  0  0  0  0
  2  6  1  0  0  0  0
  3  4  1  0  0  0  0
  3  7  1  0  0  0  0
  3  8  1  0  0  0  0
  4 19  1  0  0  0  0
  6  9  1  0  0  0  0
  6 12  1  0  0  0  0
  8 10  1  0  0  0  0
  8 11  2  0  0  0  0
  9 13  1  0  0  0  0
  9 14  1  0  0  0  0
  9 15  1  0  0  0  0
 10 16  1  0  0  0  0
 10 17  1  0  0  0  0
 10 18  1  0  0  0  0
 19 20  1  0  0  0  0
 19 27  1  0  0  0  0
 19 28  1  0  0  0  0
 20 21  1  0  0  0  0
 20 29  1  0  0  0  0
 20 30  1  0  0  0  0
 21 22  4  0  0  0  0
 21 26  4  0  0  0  0
 22 23  4  0  0  0  0
 22 31  1  0  0  0  0
 23 24  4  0  0  0  0
 23 32  1  0  0  0  0
 24 25  4  0  0  0  0
 24 33  1  0  0  0  0
 25 26  4  0  0  0  0
 25 34  1  0  0  0  0
 26 35  1  0  0  0  0
M  END
> <BCLConfClusterSize>
1

> <ConfClashScore>
0 

> <ConfOneFourInteractionScore>
-0.965825 

> <ConfScore>
0.23833 

> <ConfScorePBest>
0.00484336 

> <ConfTolerance>
0.326279 

> <RosettaParamsInstructions>
M  ROOT 3
M  POLY_N_BB 3
M  POLY_CA_BB 4
M  POLY_C_BB 2
M  POLY_O_BB 5
M  POLY_IGNORE 9 10 11 12 13 14 15 16 17 18 
M  POLY_UPPER 6
M  POLY_LOWER 8
M  POLY_CHG 0
M  POLY_PROPERTIES ALPHA_AA D_AA PROTEIN AROMATIC POLYMER 
M  END

$$$$



 35 35  0  0  0  0  0  0  0  0999 V2000
   -1.4680    3.9853    2.4116 H   0  0  0  1  0  0  0  0  0  0  0  0
   -0.8492    2.3163    1.2938 C   0  0  0  1  0  0  0  0  0  0  0  0
   -3.1119    3.2079    1.4253 N   0  0  0  1  0  0  0  0  0  0  0  0
   -1.6876    3.5699    1.4503 C   0  0  0  1  0  0  0  0  0  0  0  0
    0.2738    2.3583    0.7983 O   0  0  0  1  0  0  0  0  0  0  0  0
   -1.4173    1.1726    1.7308 N   0  0  0  1  0  0  0  0  0  0  0  0
   -3.7205    3.6385    2.0614 H   0  0  0  1  0  0  0  0  0  0  0  0
   -3.6105    2.3035    0.5572 C   0  0  0  1  0  0  0  0  0  0  0  0
   -0.6657   -0.0652    1.5862 C   0  0  0  1  0  0  0  0  0  0  0  0
   -5.0814    1.9660    0.6491 C   0  0  0  1  0  0  0  0  0  0  0  0
   -2.8916    1.7678   -0.2853 O   0  0  0  1  0  0  0  0  0  0  0  0
   -2.3105    1.1756    2.1341 H   0  0  0  1  0  0  0  0  0  0  0  0
   -0.5563   -0.2973    0.5474 H   0  0  0  1  0  0  0  0  0  0  0  0
   -1.1896   -0.8595    2.0756 H   0  0  0  1  0  0  0  0  0  0  0  0
    0.3013    0.0511    2.0292 H   0  0  0  1  0  0  0  0  0  0  0  0
   -5.3150    1.6553    1.6460 H   0  0  0  1  0  0  0  0  0  0  0  0
   -5.3087    1.1739   -0.0335 H   0  0  0  1  0  0  0  0  0  0  0  0
   -5.6616    2.8298    0.3998 H   0  0  0  1  0  0  0  0  0  0  0  0
   -1.3987    4.6480    0.4119 C   0  0  0  1  0  0  0  0  0  0  0  0
   -1.7024    4.1419   -0.9889 C   0  0  0  1  0  0  0  0  0  0  0  0
   -1.4006    5.0689   -2.1500 C   0  0  0  1  0  0  0  0  0  0  0  0
   -2.3265    5.2981   -3.1559 C   0  0  0  1  0  0  0  0  0  0  0  0
   -1.9833    6.0722   -4.2481 C   0  0  0  1  0  0  0  0  0  0  0  0
   -0.7147    6.6240   -4.3351 C   0  0  0  1  0  0  0  0  0  0  0  0
    0.2087    6.3957   -3.3324 C   0  0  0  1  0  0  0  0  0  0  0  0
   -0.1357    5.6192   -2.2370 C   0  0  0  1  0  0  0  0  0  0  0  0
   -0.3663    4.9229    0.4695 H   0  0  0  1  0  0  0  0  0  0  0  0
   -2.0081    5.5036    0.6156 H   0  0  0  1  0  0  0  0  0  0  0  0
   -2.7465    3.9110   -1.0265 H   0  0  0  1  0  0  0  0  0  0  0  0
   -1.1333    3.2479   -1.1367 H   0  0  0  1  0  0  0  0  0  0  0  0
   -3.2796    4.8873   -3.0886 H   0  0  0  1  0  0  0  0  0  0  0  0
   -2.6767    6.2408   -5.0046 H   0  0  0  1  0  0  0  0  0  0  0  0
   -0.4577    7.2099   -5.1551 H   0  0  0  1  0  0  0  0  0  0  0  0
    1.1618    6.8064   -3.3997 H   0  0  0  1  0  0  0  0  0  0  0  0
    0.5578    5.4507   -1.4804 H   0  0  0  1  0  0  0  0  0  0  0  0
  1  4  1  0  0  0  0
  2  4  1  0  0  0  0
  2  5  2  0  0  0  0
  2  6  1  0  0  0  0
  3  4  1  0  0  0  0
  3  7  1  0  0  0  0
  3  8  1  0  0  0  0
  4 19  1  0  0  0  0
  6  9  1  0  0  0  0
  6 12  1  0  0  0  0
  8 10  1  0  0  0  0
  8 11  2  0  0  0  0
  9 13  1  0  0  0  0
  9 14  1  0  0  0  0
  9 15  1  0  0  0  0
 10 16  1  0  0  0  0
 10 17  1  0  0  0  0
 10 18  1  0  0  0  0
 19 20  1  0  0  0  0
 19 27  1  0  0  0  0
 19 28  1  0  0  0  0
 20 21  1  0  0  0  0
 20 29  1  0  0  0  0
 20 30  1  0  0  0  0
 21 22  4  0  0  0  0
 21 26  4  0  0  0  0
 22 23  4  0  0  0  0
 22 31  1  0  0  0  0
 23 24  4  0  0  0  0
 23 32  1  0  0  0  0
 24 25  4  0  0  0  0
 24 33  1  0  0  0  0
 25 26  4  0  0  0  0
 25 34  1  0  0  0  0
 26 35  1  0  0  0  0
M  END
> <BCLConfClusterSize>
1

> <ConfClashScore>
0 

> <ConfOneFourInteractionScore>
-0.93093 

> <ConfScore>
0.243649 

> <ConfScorePBest>
0.00481488 

> <ConfTolerance>
0.361554 

> <RosettaParamsInstructions>
M  ROOT 3
M  POLY_N_BB 3
M  POLY_CA_BB 4
M  POLY_C_BB 2
M  POLY_O_BB 5
M  POLY_IGNORE 9 10 11 12 13 14 15 16 17 18 
M  POLY_UPPER 6
M  POLY_LOWER 8
M  POLY_CHG 0
M  POLY_PROPERTIES ALPHA_AA D_AA PROTEIN AROMATIC POLYMER 
M  END

$$$$



 35 35  0  0  0  0  0  0  0  0999 V2000
   -2.7151    1.7673   -0.2296 H   0  0  0  1  0  0  0  0  0  0  0  0
   -1.6522    2.4195    1.4625 C   0  0  0  1  0  0  0  0  0  0  0  0
   -1.0355    0.5798   -0.0097 N   0  0  0  1  0  0  0  0  0  0  0  0
   -1.6876    1.8961    0.0399 C   0  0  0  1  0  0  0  0  0  0  0  0
   -1.4971    3.6170    1.6986 O   0  0  0  1  0  0  0  0  0  0  0  0
   -1.7992    1.5019    2.4224 N   0  0  0  1  0  0  0  0  0  0  0  0
   -1.4745   -0.1664   -0.4689 H   0  0  0  1  0  0  0  0  0  0  0  0
    0.1544    0.3984    0.5701 C   0  0  0  1  0  0  0  0  0  0  0  0
   -1.7790    1.8459    3.8363 C   0  0  0  1  0  0  0  0  0  0  0  0
    0.7652   -0.9743    0.4007 C   0  0  0  1  0  0  0  0  0  0  0  0
    0.7315    1.2800    1.2052 O   0  0  0  1  0  0  0  0  0  0  0  0
   -1.9249    0.5646    2.1654 H   0  0  0  1  0  0  0  0  0  0  0  0
   -2.7751    1.8149    4.2257 H   0  0  0  1  0  0  0  0  0  0  0  0
   -1.3793    2.8310    3.9578 H   0  0  0  1  0  0  0  0  0  0  0  0
   -1.1677    1.1447    4.3650 H   0  0  0  1  0  0  0  0  0  0  0  0
    0.2168   -1.6838    0.9844 H   0  0  0  1  0  0  0  0  0  0  0  0
    1.7835   -0.9542    0.7285 H   0  0  0  1  0  0  0  0  0  0  0  0
    0.7275   -1.2563   -0.6308 H   0  0  0  1  0  0  0  0  0  0  0  0
   -1.0620    2.8339   -0.9863 C   0  0  0  1  0  0  0  0  0  0  0  0
   -1.7517    4.1850   -0.9707 C   0  0  0  1  0  0  0  0  0  0  0  0
   -1.3868    5.0513   -2.1587 C   0  0  0  1  0  0  0  0  0  0  0  0
   -2.3175    5.2846   -3.1591 C   0  0  0  1  0  0  0  0  0  0  0  0
   -1.9823    6.0706   -4.2454 C   0  0  0  1  0  0  0  0  0  0  0  0
   -0.7170    6.6301   -4.3317 C   0  0  0  1  0  0  0  0  0  0  0  0
    0.2112    6.3976   -3.3343 C   0  0  0  1  0  0  0  0  0  0  0  0
   -0.1252    5.6092   -2.2449 C   0  0  0  1  0  0  0  0  0  0  0  0
   -1.1580    2.4022   -1.9606 H   0  0  0  1  0  0  0  0  0  0  0  0
   -0.0258    2.9663   -0.7548 H   0  0  0  1  0  0  0  0  0  0  0  0
   -1.4723    4.6997   -0.0752 H   0  0  0  1  0  0  0  0  0  0  0  0
   -2.8100    4.0272   -0.9766 H   0  0  0  1  0  0  0  0  0  0  0  0
   -3.2681    4.8681   -3.0923 H   0  0  0  1  0  0  0  0  0  0  0  0
   -2.6793    6.2424   -4.9979 H   0  0  0  1  0  0  0  0  0  0  0  0
   -0.4660    7.2249   -5.1471 H   0  0  0  1  0  0  0  0  0  0  0  0
    1.1618    6.8141   -3.4012 H   0  0  0  1  0  0  0  0  0  0  0  0
    0.5718    5.4374   -1.4924 H   0  0  0  1  0  0  0  0  0  0  0  0
  1  4  1  0  0  0  0
  2  4  1  0  0  0  0
  2  5  2  0  0  0  0
  2  6  1  0  0  0  0
  3  4  1  0  0  0  0
  3  7  1  0  0  0  0
  3  8  1  0  0  0  0
  4 19  1  0  0  0  0
  6  9  1  0  0  0  0
  6 12  1  0  0  0  0
  8 10  1  0  0  0  0
  8 11  2  0  0  0  0
  9 13  1  0  0  0  0
  9 14  1  0  0  0  0
  9 15  1  0  0  0  0
 10 16  1  0  0  0  0
 10 17  1  0  0  0  0
 10 18  1  0  0  0  0
 19 20  1  0  0  0  0
 19 27  1  0  0  0  0
 19 28  1  0  0  0  0
 20 21  1  0  0  0  0
 20 29  1  0  0  0  0
 20 30  1  0  0  0  0
 21 22  4  0  0  0  0
 21 26  4  0  0  0  0
 22 23  4  0  0  0  0
 22 31  1  0  0  0  0
 23 24  4  0  0  0  0
 23 32  1  0  0  0  0
 24 25  4  0  0  0  0
 24 33  1  0  0  0  0
 25 26  4  0  0  0  0
 25 34  1  0  0  0  0
 26 35  1  0  0  0  0
M  END
> <BCLConfClusterSize>
1

> <ConfClashScore>
0 

> <ConfOneFourInteractionScore>
-0.968021 

> <ConfScore>
0.244471 

> <ConfScorePBest>
0.00478639 

> <ConfTolerance>
0.355748 

> <RosettaParamsInstructions>
M  ROOT 3
M  POLY_N_BB 3
M  POLY_CA_BB 4
M  POLY_C_BB 2
M  POLY_O_BB 5
M  POLY_IGNORE 9 10 11 12 13 14 15 16 17 18 
M  POLY_UPPER 6
M  POLY_LOWER 8
M  POLY_CHG 0
M  POLY_PROPERTIES ALPHA_AA D_AA PROTEIN AROMATIC POLYMER 
M  END

$$$$



 35 35  0  0  0  0  0  0  0  0999 V2000
   -0.3266    6.1081    0.1386 H   0  0  0  1  0  0  0  0  0  0  0  0
    0.2952    4.4839    1.3048 C   0  0  0  1  0  0  0  0  0  0  0  0
   -1.1631    6.3818    1.9986 N   0  0  0  1  0  0  0  0  0  0  0  0
   -0.7615    5.4954    0.9004 C   0  0  0  1  0  0  0  0  0  0  0  0
    1.4591    4.8247    1.5115 O   0  0  0  1  0  0  0  0  0  0  0  0
   -0.1259    3.2143    1.4180 N   0  0  0  1  0  0  0  0  0  0  0  0
   -1.3796    7.3161    1.7972 H   0  0  0  1  0  0  0  0  0  0  0  0
   -1.2445    5.9559    3.2742 C   0  0  0  1  0  0  0  0  0  0  0  0
    0.7204    2.0842    1.7709 C   0  0  0  1  0  0  0  0  0  0  0  0
   -1.5685    7.0572    4.2649 C   0  0  0  1  0  0  0  0  0  0  0  0
   -1.0776    4.7918    3.6358 O   0  0  0  1  0  0  0  0  0  0  0  0
   -1.0746    3.0349    1.2504 H   0  0  0  1  0  0  0  0  0  0  0  0
    1.6191    2.4405    2.2295 H   0  0  0  1  0  0  0  0  0  0  0  0
    0.9656    1.5328    0.8873 H   0  0  0  1  0  0  0  0  0  0  0  0
    0.1988    1.4484    2.4555 H   0  0  0  1  0  0  0  0  0  0  0  0
   -2.5894    6.9710    4.5735 H   0  0  0  1  0  0  0  0  0  0  0  0
   -1.4153    8.0095    3.8019 H   0  0  0  1  0  0  0  0  0  0  0  0
   -0.9295    6.9681    5.1185 H   0  0  0  1  0  0  0  0  0  0  0  0
   -2.0051    4.8740    0.2942 C   0  0  0  1  0  0  0  0  0  0  0  0
   -1.7381    4.1427   -1.0113 C   0  0  0  1  0  0  0  0  0  0  0  0
   -1.3926    5.0693   -2.1462 C   0  0  0  1  0  0  0  0  0  0  0  0
   -2.3215    5.2960   -3.1498 C   0  0  0  1  0  0  0  0  0  0  0  0
   -1.9824    6.0699   -4.2436 C   0  0  0  1  0  0  0  0  0  0  0  0
   -0.7149    6.6237   -4.3344 C   0  0  0  1  0  0  0  0  0  0  0  0
    0.2115    6.3977   -3.3339 C   0  0  0  1  0  0  0  0  0  0  0  0
   -0.1288    5.6215   -2.2369 C   0  0  0  1  0  0  0  0  0  0  0  0
   -2.7165    5.6513    0.1083 H   0  0  0  1  0  0  0  0  0  0  0  0
   -2.4128    4.1771    0.9962 H   0  0  0  1  0  0  0  0  0  0  0  0
   -2.6149    3.5902   -1.2776 H   0  0  0  1  0  0  0  0  0  0  0  0
   -0.9217    3.4672   -0.8625 H   0  0  0  1  0  0  0  0  0  0  0  0
   -3.2737    4.8838   -3.0797 H   0  0  0  1  0  0  0  0  0  0  0  0
   -2.6781    6.2366   -4.9985 H   0  0  0  1  0  0  0  0  0  0  0  0
   -0.4610    7.2093   -5.1555 H   0  0  0  1  0  0  0  0  0  0  0  0
    1.1637    6.8099   -3.4040 H   0  0  0  1  0  0  0  0  0  0  0  0
    0.5669    5.4547   -1.4820 H   0  0  0  1  0  0  0  0  0  0  0  0
  1  4  1  0  0  0  0
  2  4  1  0  0  0  0
  2  5  2  0  0  0  0
  2  6  1  0  0  0  0
  3  4  1  0  0  0  0
  3  7  1  0  0  0  0
  3  8  1  0  0  0  0
  4 19  1  0  0  0  0
  6  9  1  0  0  0  0
  6 12  1  0  0  0  0
  8 10  1  0  0  0  0
  8 11  2  0  0  0  0
  9 13  1  0  0  0  0
  9 14  1  0  0  0  0
  9 15  1  0  0  0  0
 10 16  1  0  0  0  0
 10 17  1  0  0  0  0
 10 18  1  0  0  0  0
 19 20  1  0  0  0  0
 19 27  1  0  0  0  0
 19 28  1  0  0  0  0
 20 21  1  0  0  0  0
 20 29  1  0  0  0  0
 20 30  1  0  0  0  0
 21 22  4  0  0  0  0
 21 26  4  0  0  0  0
 22 23  4  0  0  0  0
 22 31  1  0  0  0  0
 23 24  4  0  0  0  0
 23 32  1  0  0  0  0
 24 25  4  0  0  0  0
 24 33  1  0  0  0  0
 25 26  4  0  0  0  0
 25 34  1  0  0  0  0
 26 35  1  0  0  0  0
M  END
> <BCLConfClusterSize>
1

> <ConfClashScore>
0 

> <ConfOneFourInteractionScore>
-0.943527 

> <ConfScore>
0.248431 

> <ConfScorePBest>
0.00475791 

> <ConfTolerance>
0.765419 

> <RosettaParamsInstructions>
M  ROOT 3
M  POLY_N_BB 3
M  POLY_CA_BB 4
M  POLY_C_BB 2
M  POLY_O_BB 5
M  POLY_IGNORE 9 10 11 12 13 14 15 16 17 18 
M  POLY_UPPER 6
M  POLY_LOWER 8
M  POLY_CHG 0
M  POLY_PROPERTIES ALPHA_AA D_AA PROTEIN AROMATIC POLYMER 
M  END

$$$$



 35 35  0  0  0  0  0  0  0  0999 V2000
   -3.2524    2.5026    0.4700 H   0  0  0  1  0  0  0  0  0  0  0  0
   -1.3242    1.7050    0.7387 C   0  0  0  1  0  0  0  0  0  0  0  0
   -3.1828    0.7151   -0.5477 N   0  0  0  1  0  0  0  0  0  0  0  0
   -2.5502    1.9551   -0.1233 C   0  0  0  1  0  0  0  0  0  0  0  0
   -0.3417    2.4362    0.6462 O   0  0  0  1  0  0  0  0  0  0  0  0
   -1.3379    0.6139    1.5194 N   0  0  0  1  0  0  0  0  0  0  0  0
   -4.1562    0.6306   -0.4716 H   0  0  0  1  0  0  0  0  0  0  0  0
   -2.4827   -0.3121   -1.0374 C   0  0  0  1  0  0  0  0  0  0  0  0
   -0.2231    0.1610    2.3380 C   0  0  0  1  0  0  0  0  0  0  0  0
   -3.2871   -1.5465   -1.3953 C   0  0  0  1  0  0  0  0  0  0  0  0
   -1.2651   -0.2770   -1.1946 O   0  0  0  1  0  0  0  0  0  0  0  0
   -2.1607    0.0819    1.5400 H   0  0  0  1  0  0  0  0  0  0  0  0
   -0.2610   -0.9038    2.4353 H   0  0  0  1  0  0  0  0  0  0  0  0
   -0.2871    0.6101    3.3071 H   0  0  0  1  0  0  0  0  0  0  0  0
    0.6982    0.4439    1.8733 H   0  0  0  1  0  0  0  0  0  0  0  0
   -2.6267   -2.3177   -1.7330 H   0  0  0  1  0  0  0  0  0  0  0  0
   -3.9816   -1.3062   -2.1731 H   0  0  0  1  0  0  0  0  0  0  0  0
   -3.8208   -1.8867   -0.5325 H   0  0  0  1  0  0  0  0  0  0  0  0
   -2.2144    2.8122   -1.3286 C   0  0  0  1  0  0  0  0  0  0  0  0
   -1.7068    4.1969   -0.9607 C   0  0  0  1  0  0  0  0  0  0  0  0
   -1.3961    5.0494   -2.1618 C   0  0  0  1  0  0  0  0  0  0  0  0
   -2.3235    5.2856   -3.1647 C   0  0  0  1  0  0  0  0  0  0  0  0
   -1.9838    6.0723   -4.2490 C   0  0  0  1  0  0  0  0  0  0  0  0
   -0.7172    6.6296   -4.3310 C   0  0  0  1  0  0  0  0  0  0  0  0
    0.2076    6.3943   -3.3312 C   0  0  0  1  0  0  0  0  0  0  0  0
   -0.1333    5.6052   -2.2437 C   0  0  0  1  0  0  0  0  0  0  0  0
   -3.0969    2.9214   -1.9237 H   0  0  0  1  0  0  0  0  0  0  0  0
   -1.4583    2.3142   -1.8989 H   0  0  0  1  0  0  0  0  0  0  0  0
   -0.8149    4.0894   -0.3794 H   0  0  0  1  0  0  0  0  0  0  0  0
   -2.4559    4.6904   -0.3774 H   0  0  0  1  0  0  0  0  0  0  0  0
   -3.2750    4.8707   -3.1011 H   0  0  0  1  0  0  0  0  0  0  0  0
   -2.6783    6.2461   -5.0033 H   0  0  0  1  0  0  0  0  0  0  0  0
   -0.4628    7.2249   -5.1450 H   0  0  0  1  0  0  0  0  0  0  0  0
    1.1592    6.8091   -3.3948 H   0  0  0  1  0  0  0  0  0  0  0  0
    0.5612    5.4313   -1.4894 H   0  0  0  1  0  0  0  0  0  0  0  0
  1  4  1  0  0  0  0
  2  4  1  0  0  0  0
  2  5  2  0  0  0  0
  2  6  1  0  0  0  0
  3  4  1  0  0  0  0
  3  7  1  0  0  0  0
  3  8  1  0  0  0  0
  4 19  1  0  0  0  0
  6  9  1  0  0  0  0
  6 12  1  0  0  0  0
  8 10  1  0  0  0  0
  8 11  2  0  0  0  0
  9 13  1  0  0  0  0
  9 14  1  0  0  0  0
  9 15  1  0  0  0  0
 10 16  1  0  0  0  0
 10 17  1  0  0  0  0
 10 18  1  0  0  0  0
 19 20  1  0  0  0  0
 19 27  1  0  0  0  0
 19 28  1  0  0  0  0
 20 21  1  0  0  0  0
 20 29  1  0  0  0  0
 20 30  1  0  0  0  0
 21 22  4  0  0  0  0
 21 26  4  0  0  0  0
 22 23  4  0  0  0  0
 22 31  1  0  0  0  0
 23 24  4  0  0  0  0
 23 32  1  0  0  0  0
 24 25  4  0  0  0  0
 24 33  1  0  0  0  0
 25 26  4  0  0  0  0
 25 34  1  0  0  0  0
 26 35  1  0  0  0  0
M  END
> <BCLConfClusterSize>
1

> <ConfClashScore>
0 

> <ConfOneFourInteractionScore>
-0.968021 

> <ConfScore>
0.249642 

> <ConfScorePBest>
0.00472943 

> <ConfTolerance>
0.450662 

> <RosettaParamsInstructions>
M  ROOT 3
M  POLY_N_BB 3
M  POLY_CA_BB 4
M  POLY_C_BB 2
M  POLY_O_BB 5
M  POLY_IGNORE 9 10 11 12 13 14 15 16 17 18 
M  POLY_UPPER 6
M  POLY_LOWER 8
M  POLY_CHG 0
M  POLY_PROPERTIES ALPHA_AA D_AA PROTEIN AROMATIC POLYMER 
M  END

$$$$



 35 35  0  0  0  0  0  0  0  0999 V2000
   -2.7465    2.2986    0.3560 H   0  0  0  1  0  0  0  0  0  0  0  0
   -0.8895    1.6863    1.1007 C   0  0  0  1  0  0  0  0  0  0  0  0
   -2.2729    0.5146   -0.5649 N   0  0  0  1  0  0  0  0  0  0  0  0
   -1.8698    1.8356   -0.0464 C   0  0  0  1  0  0  0  0  0  0  0  0
   -0.8954    0.6879    1.8197 O   0  0  0  1  0  0  0  0  0  0  0  0
   -0.0311    2.7043    1.2706 N   0  0  0  1  0  0  0  0  0  0  0  0
   -3.2266    0.3258   -0.6880 H   0  0  0  1  0  0  0  0  0  0  0  0
   -1.3830   -0.4333   -0.8724 C   0  0  0  1  0  0  0  0  0  0  0  0
    0.9579    2.7914    2.3346 C   0  0  0  1  0  0  0  0  0  0  0  0
   -1.9620   -1.7828   -1.2502 C   0  0  0  1  0  0  0  0  0  0  0  0
   -0.1779   -0.2436   -0.8558 O   0  0  0  1  0  0  0  0  0  0  0  0
   -0.0738    3.4447    0.6299 H   0  0  0  1  0  0  0  0  0  0  0  0
    1.9404    2.7361    1.9143 H   0  0  0  1  0  0  0  0  0  0  0  0
    0.8171    1.9814    3.0193 H   0  0  0  1  0  0  0  0  0  0  0  0
    0.8436    3.7208    2.8523 H   0  0  0  1  0  0  0  0  0  0  0  0
   -1.2743   -2.5557   -0.9771 H   0  0  0  1  0  0  0  0  0  0  0  0
   -2.1328   -1.8144   -2.3060 H   0  0  0  1  0  0  0  0  0  0  0  0
   -2.8876   -1.9307   -0.7341 H   0  0  0  1  0  0  0  0  0  0  0  0
   -1.3901    2.7260   -1.1765 C   0  0  0  1  0  0  0  0  0  0  0  0
   -1.7068    4.1969   -0.9607 C   0  0  0  1  0  0  0  0  0  0  0  0
   -1.3961    5.0494   -2.1618 C   0  0  0  1  0  0  0  0  0  0  0  0
   -2.3235    5.2856   -3.1647 C   0  0  0  1  0  0  0  0  0  0  0  0
   -1.9838    6.0723   -4.2490 C   0  0  0  1  0  0  0  0  0  0  0  0
   -0.7172    6.6296   -4.3310 C   0  0  0  1  0  0  0  0  0  0  0  0
    0.2076    6.3943   -3.3312 C   0  0  0  1  0  0  0  0  0  0  0  0
   -0.1333    5.6052   -2.2437 C   0  0  0  1  0  0  0  0  0  0  0  0
   -1.8609    2.4071   -2.0829 H   0  0  0  1  0  0  0  0  0  0  0  0
   -0.3296    2.6171   -1.2674 H   0  0  0  1  0  0  0  0  0  0  0  0
   -1.1293    4.5517   -0.1327 H   0  0  0  1  0  0  0  0  0  0  0  0
   -2.7487    4.2916   -0.7362 H   0  0  0  1  0  0  0  0  0  0  0  0
   -3.2750    4.8707   -3.1011 H   0  0  0  1  0  0  0  0  0  0  0  0
   -2.6783    6.2461   -5.0033 H   0  0  0  1  0  0  0  0  0  0  0  0
   -0.4628    7.2249   -5.1450 H   0  0  0  1  0  0  0  0  0  0  0  0
    1.1592    6.8091   -3.3948 H   0  0  0  1  0  0  0  0  0  0  0  0
    0.5612    5.4313   -1.4894 H   0  0  0  1  0  0  0  0  0  0  0  0
  1  4  1  0  0  0  0
  2  4  1  0  0  0  0
  2  5  2  0  0  0  0
  2  6  1  0  0  0  0
  3  4  1  0  0  0  0
  3  7  1  0  0  0  0
  3  8  1  0  0  0  0
  4 19  1  0  0  0  0
  6  9  1  0  0  0  0
  6 12  1  0  0  0  0
  8 10  1  0  0  0  0
  8 11  2  0  0  0  0
  9 13  1  0  0  0  0
  9 14  1  0  0  0  0
  9 15  1  0  0  0  0
 10 16  1  0  0  0  0
 10 17  1  0  0  0  0
 10 18  1  0  0  0  0
 19 20  1  0  0  0  0
 19 27  1  0  0  0  0
 19 28  1  0  0  0  0
 20 21  1  0  0  0  0
 20 29  1  0  0  0  0
 20 30  1  0  0  0  0
 21 22  4  0  0  0  0
 21 26  4  0  0  0  0
 22 23  4  0  0  0  0
 22 31  1  0  0  0  0
 23 24  4  0  0  0  0
 23 32  1  0  0  0  0
 24 25  4  0  0  0  0
 24 33  1  0  0  0  0
 25 26  4  0  0  0  0
 25 34  1  0  0  0  0
 26 35  1  0  0  0  0
M  END
> <BCLConfClusterSize>
1

> <ConfClashScore>
0 

> <ConfOneFourInteractionScore>
-0.942402 

> <ConfScore>
0.251555 

> <ConfScorePBest>
0.00470095 

> <ConfTolerance>
0.479701 

> <RosettaParamsInstructions>
M  ROOT 3
M  POLY_N_BB 3
M  POLY_CA_BB 4
M  POLY_C_BB 2
M  POLY_O_BB 5
M  POLY_IGNORE 9 10 11 12 13 14 15 16 17 18 
M  POLY_UPPER 6
M  POLY_LOWER 8
M  POLY_CHG 0
M  POLY_PROPERTIES ALPHA_AA D_AA PROTEIN AROMATIC POLYMER 
M  END

$$$$



 35 35  0  0  0  0  0  0  0  0999 V2000
    0.1193    2.6962   -2.3026 H   0  0  0  1  0  0  0  0  0  0  0  0
   -0.3997    0.6872   -1.9912 C   0  0  0  1  0  0  0  0  0  0  0  0
    0.4599    2.3227   -0.3089 N   0  0  0  1  0  0  0  0  0  0  0  0
   -0.3322    2.1261   -1.5177 C   0  0  0  1  0  0  0  0  0  0  0  0
    0.5620    0.1494   -2.5384 O   0  0  0  1  0  0  0  0  0  0  0  0
   -1.5641    0.0556   -1.7733 N   0  0  0  1  0  0  0  0  0  0  0  0
    0.6991    3.2421   -0.0684 H   0  0  0  1  0  0  0  0  0  0  0  0
    0.8839    1.3437    0.4954 C   0  0  0  1  0  0  0  0  0  0  0  0
   -1.7684   -1.2933   -2.2766 C   0  0  0  1  0  0  0  0  0  0  0  0
    1.7061    1.7832    1.6912 C   0  0  0  1  0  0  0  0  0  0  0  0
    0.6332    0.1560    0.2947 O   0  0  0  1  0  0  0  0  0  0  0  0
   -2.2779    0.5045   -1.2740 H   0  0  0  1  0  0  0  0  0  0  0  0
   -2.0161   -1.2527   -3.3167 H   0  0  0  1  0  0  0  0  0  0  0  0
   -2.5677   -1.7575   -1.7377 H   0  0  0  1  0  0  0  0  0  0  0  0
   -0.8716   -1.8621   -2.1457 H   0  0  0  1  0  0  0  0  0  0  0  0
    1.4214    2.7747    1.9755 H   0  0  0  1  0  0  0  0  0  0  0  0
    2.7446    1.7705    1.4338 H   0  0  0  1  0  0  0  0  0  0  0  0
    1.5325    1.1145    2.5083 H   0  0  0  1  0  0  0  0  0  0  0  0
   -1.7074    2.7030   -1.2897 C   0  0  0  1  0  0  0  0  0  0  0  0
   -1.7496    4.1900   -0.9776 C   0  0  0  1  0  0  0  0  0  0  0  0
   -1.3870    5.0508   -2.1581 C   0  0  0  1  0  0  0  0  0  0  0  0
   -2.3176    5.2842   -3.1585 C   0  0  0  1  0  0  0  0  0  0  0  0
   -1.9825    6.0702   -4.2447 C   0  0  0  1  0  0  0  0  0  0  0  0
   -0.7171    6.6296   -4.3311 C   0  0  0  1  0  0  0  0  0  0  0  0
    0.2110    6.3971   -3.3337 C   0  0  0  1  0  0  0  0  0  0  0  0
   -0.1254    5.6087   -2.2443 C   0  0  0  1  0  0  0  0  0  0  0  0
   -2.1516    2.1811   -0.4680 H   0  0  0  1  0  0  0  0  0  0  0  0
   -2.2859    2.5353   -2.1741 H   0  0  0  1  0  0  0  0  0  0  0  0
   -1.0599    4.3913   -0.1847 H   0  0  0  1  0  0  0  0  0  0  0  0
   -2.7401    4.4439   -0.6625 H   0  0  0  1  0  0  0  0  0  0  0  0
   -3.2683    4.8677   -3.0917 H   0  0  0  1  0  0  0  0  0  0  0  0
   -2.6795    6.2419   -4.9973 H   0  0  0  1  0  0  0  0  0  0  0  0
   -0.4662    7.2244   -5.1465 H   0  0  0  1  0  0  0  0  0  0  0  0
    1.1616    6.8136   -3.4006 H   0  0  0  1  0  0  0  0  0  0  0  0
    0.5716    5.4370   -1.4918 H   0  0  0  1  0  0  0  0  0  0  0  0
  1  4  1  0  0  0  0
  2  4  1  0  0  0  0
  2  5  2  0  0  0  0
  2  6  1  0  0  0  0
  3  4  1  0  0  0  0
  3  7  1  0  0  0  0
  3  8  1  0  0  0  0
  4 19  1  0  0  0  0
  6  9  1  0  0  0  0
  6 12  1  0  0  0  0
  8 10  1  0  0  0  0
  8 11  2  0  0  0  0
  9 13  1  0  0  0  0
  9 14  1  0  0  0  0
  9 15  1  0  0  0  0
 10 16  1  0  0  0  0
 10 17  1  0  0  0  0
 10 18  1  0  0  0  0
 19 20  1  0  0  0  0
 19 27  1  0  0  0  0
 19 28  1  0  0  0  0
 20 21  1  0  0  0  0
 20 29  1  0  0  0  0
 20 30  1  0  0  0  0
 21 22  4  0  0  0  0
 21 26  4  0  0  0  0
 22 23  4  0  0  0  0
 22 31  1  0  0  0  0
 23 24  4  0  0  0  0
 23 32  1  0  0  0  0
 24 25  4  0  0  0  0
 24 33  1  0  0  0  0
 25 26  4  0  0  0  0
 25 34  1  0  0  0  0
 26 35  1  0  0  0  0
M  END
> <BCLConfClusterSize>
1

> <ConfClashScore>
0.000170057 

> <ConfOneFourInteractionScore>
-0.943527 

> <ConfScore>
0.251657 

> <ConfScorePBest>
0.00467247 

> <ConfTolerance>
0.646691 

> <RosettaParamsInstructions>
M  ROOT 3
M  POLY_N_BB 3
M  POLY_CA_BB 4
M  POLY_C_BB 2
M  POLY_O_BB 5
M  POLY_IGNORE 9 10 11 12 13 14 15 16 17 18 
M  POLY_UPPER 6
M  POLY_LOWER 8
M  POLY_CHG 0
M  POLY_PROPERTIES ALPHA_AA D_AA PROTEIN AROMATIC POLYMER 
M  END

$$$$



 35 35  0  0  0  0  0  0  0  0999 V2000
   -0.0757    1.5322    0.4689 H   0  0  0  1  0  0  0  0  0  0  0  0
   -2.1714    1.5967    0.6315 C   0  0  0  1  0  0  0  0  0  0  0  0
   -0.5439    3.1297    1.6932 N   0  0  0  1  0  0  0  0  0  0  0  0
   -0.8270    2.2921    0.5233 C   0  0  0  1  0  0  0  0  0  0  0  0
   -2.3523    0.4620    0.2286 O   0  0  0  1  0  0  0  0  0  0  0  0
   -3.2041    2.2530    1.1919 N   0  0  0  1  0  0  0  0  0  0  0  0
    0.0123    3.9250    1.5571 H   0  0  0  1  0  0  0  0  0  0  0  0
   -0.9864    2.8907    2.9286 C   0  0  0  1  0  0  0  0  0  0  0  0
   -4.5120    1.6149    1.1758 C   0  0  0  1  0  0  0  0  0  0  0  0
   -0.3308    3.7282    4.0243 C   0  0  0  1  0  0  0  0  0  0  0  0
   -1.7985    2.0224    3.2024 O   0  0  0  1  0  0  0  0  0  0  0  0
   -3.0790    3.1356    1.5991 H   0  0  0  1  0  0  0  0  0  0  0  0
   -4.3907    0.5531    1.1232 H   0  0  0  1  0  0  0  0  0  0  0  0
   -5.0632    1.9533    0.3235 H   0  0  0  1  0  0  0  0  0  0  0  0
   -5.0436    1.8691    2.0690 H   0  0  0  1  0  0  0  0  0  0  0  0
    0.3165    4.4548    3.5793 H   0  0  0  1  0  0  0  0  0  0  0  0
    0.2384    3.0904    4.6679 H   0  0  0  1  0  0  0  0  0  0  0  0
   -1.0878    4.2262    4.5933 H   0  0  0  1  0  0  0  0  0  0  0  0
   -0.7326    3.0889   -0.7073 C   0  0  0  1  0  0  0  0  0  0  0  0
   -1.7496    4.1900   -0.9776 C   0  0  0  1  0  0  0  0  0  0  0  0
   -1.3870    5.0508   -2.1581 C   0  0  0  1  0  0  0  0  0  0  0  0
   -2.3176    5.2842   -3.1585 C   0  0  0  1  0  0  0  0  0  0  0  0
   -1.9825    6.0702   -4.2447 C   0  0  0  1  0  0  0  0  0  0  0  0
   -0.7171    6.6296   -4.3311 C   0  0  0  1  0  0  0  0  0  0  0  0
    0.2110    6.3971   -3.3337 C   0  0  0  1  0  0  0  0  0  0  0  0
   -0.1254    5.6087   -2.2443 C   0  0  0  1  0  0  0  0  0  0  0  0
   -0.7947    2.4026   -1.5258 H   0  0  0  1  0  0  0  0  0  0  0  0
    0.2316    3.5527   -0.7024 H   0  0  0  1  0  0  0  0  0  0  0  0
   -1.8163    4.8125   -0.1099 H   0  0  0  1  0  0  0  0  0  0  0  0
   -2.7004    3.7367   -1.1659 H   0  0  0  1  0  0  0  0  0  0  0  0
   -3.2683    4.8677   -3.0917 H   0  0  0  1  0  0  0  0  0  0  0  0
   -2.6795    6.2419   -4.9973 H   0  0  0  1  0  0  0  0  0  0  0  0
   -0.4662    7.2244   -5.1465 H   0  0  0  1  0  0  0  0  0  0  0  0
    1.1616    6.8136   -3.4006 H   0  0  0  1  0  0  0  0  0  0  0  0
    0.5716    5.4370   -1.4918 H   0  0  0  1  0  0  0  0  0  0  0  0
  1  4  1  0  0  0  0
  2  4  1  0  0  0  0
  2  5  2  0  0  0  0
  2  6  1  0  0  0  0
  3  4  1  0  0  0  0
  3  7  1  0  0  0  0
  3  8  1  0  0  0  0
  4 19  1  0  0  0  0
  6  9  1  0  0  0  0
  6 12  1  0  0  0  0
  8 10  1  0  0  0  0
  8 11  2  0  0  0  0
  9 13  1  0  0  0  0
  9 14  1  0  0  0  0
  9 15  1  0  0  0  0
 10 16  1  0  0  0  0
 10 17  1  0  0  0  0
 10 18  1  0  0  0  0
 19 20  1  0  0  0  0
 19 27  1  0  0  0  0
 19 28  1  0  0  0  0
 20 21  1  0  0  0  0
 20 29  1  0  0  0  0
 20 30  1  0  0  0  0
 21 22  4  0  0  0  0
 21 26  4  0  0  0  0
 22 23  4  0  0  0  0
 22 31  1  0  0  0  0
 23 24  4  0  0  0  0
 23 32  1  0  0  0  0
 24 25  4  0  0  0  0
 24 33  1  0  0  0  0
 25 26  4  0  0  0  0
 25 34  1  0  0  0  0
 26 35  1  0  0  0  0
M  END
> <BCLConfClusterSize>
1

> <ConfClashScore>
0 

> <ConfOneFourInteractionScore>
-0.962453 

> <ConfScore>
0.253354 

> <ConfScorePBest>
0.00464399 

> <ConfTolerance>
0.486636 

> <RosettaParamsInstructions>
M  ROOT 3
M  POLY_N_BB 3
M  POLY_CA_BB 4
M  POLY_C_BB 2
M  POLY_O_BB 5
M  POLY_IGNORE 9 10 11 12 13 14 15 16 17 18 
M  POLY_UPPER 6
M  POLY_LOWER 8
M  POLY_CHG 0
M  POLY_PROPERTIES ALPHA_AA D_AA PROTEIN AROMATIC POLYMER 
M  END

$$$$



 35 35  0  0  0  0  0  0  0  0999 V2000
   -1.1966    2.1769    0.6409 H   0  0  0  1  0  0  0  0  0  0  0  0
   -1.3535    0.3615   -0.3420 C   0  0  0  1  0  0  0  0  0  0  0  0
   -3.2048    1.8673    0.4001 N   0  0  0  1  0  0  0  0  0  0  0  0
   -1.8235    1.7881   -0.1341 C   0  0  0  1  0  0  0  0  0  0  0  0
   -1.8881   -0.5708    0.2525 O   0  0  0  1  0  0  0  0  0  0  0  0
   -0.3378    0.1495   -1.1937 N   0  0  0  1  0  0  0  0  0  0  0  0
   -3.9216    1.4688   -0.1363 H   0  0  0  1  0  0  0  0  0  0  0  0
   -3.5450    2.4402    1.5557 C   0  0  0  1  0  0  0  0  0  0  0  0
    0.2494   -1.1674   -1.3909 C   0  0  0  1  0  0  0  0  0  0  0  0
   -4.9833    2.2399    1.9920 C   0  0  0  1  0  0  0  0  0  0  0  0
   -2.7573    3.0917    2.2365 O   0  0  0  1  0  0  0  0  0  0  0  0
    0.0208    0.9079   -1.7003 H   0  0  0  1  0  0  0  0  0  0  0  0
   -0.5044   -1.9167   -1.2676 H   0  0  0  1  0  0  0  0  0  0  0  0
    1.0268   -1.3223   -0.6721 H   0  0  0  1  0  0  0  0  0  0  0  0
    0.6576   -1.2315   -2.3779 H   0  0  0  1  0  0  0  0  0  0  0  0
   -5.5092    1.6838    1.2443 H   0  0  0  1  0  0  0  0  0  0  0  0
   -5.4520    3.1929    2.1229 H   0  0  0  1  0  0  0  0  0  0  0  0
   -5.0037    1.7018    2.9166 H   0  0  0  1  0  0  0  0  0  0  0  0
   -1.5944    2.7073   -1.3240 C   0  0  0  1  0  0  0  0  0  0  0  0
   -1.8303    4.1748   -1.0060 C   0  0  0  1  0  0  0  0  0  0  0  0
   -1.3698    5.0537   -2.1514 C   0  0  0  1  0  0  0  0  0  0  0  0
   -2.3066    5.2818   -3.1473 C   0  0  0  1  0  0  0  0  0  0  0  0
   -1.9799    6.0666   -4.2371 C   0  0  0  1  0  0  0  0  0  0  0  0
   -0.7169    6.6300   -4.3315 C   0  0  0  1  0  0  0  0  0  0  0  0
    0.2174    6.4026   -3.3386 C   0  0  0  1  0  0  0  0  0  0  0  0
   -0.1105    5.6155   -2.2457 C   0  0  0  1  0  0  0  0  0  0  0  0
   -2.2618    2.4188   -2.1090 H   0  0  0  1  0  0  0  0  0  0  0  0
   -0.5833    2.5899   -1.6537 H   0  0  0  1  0  0  0  0  0  0  0  0
   -1.2844    4.4346   -0.1231 H   0  0  0  1  0  0  0  0  0  0  0  0
   -2.8752    4.3342   -0.8396 H   0  0  0  1  0  0  0  0  0  0  0  0
   -3.2555    4.8624   -3.0745 H   0  0  0  1  0  0  0  0  0  0  0  0
   -2.6815    6.2344   -4.9862 H   0  0  0  1  0  0  0  0  0  0  0  0
   -0.4723    7.2238   -5.1495 H   0  0  0  1  0  0  0  0  0  0  0  0
    1.1662    6.8221   -3.4115 H   0  0  0  1  0  0  0  0  0  0  0  0
    0.5911    5.4477   -1.4966 H   0  0  0  1  0  0  0  0  0  0  0  0
  1  4  1  0  0  0  0
  2  4  1  0  0  0  0
  2  5  2  0  0  0  0
  2  6  1  0  0  0  0
  3  4  1  0  0  0  0
  3  7  1  0  0  0  0
  3  8  1  0  0  0  0
  4 19  1  0  0  0  0
  6  9  1  0  0  0  0
  6 12  1  0  0  0  0
  8 10  1  0  0  0  0
  8 11  2  0  0  0  0
  9 13  1  0  0  0  0
  9 14  1  0  0  0  0
  9 15  1  0  0  0  0
 10 16  1  0  0  0  0
 10 17  1  0  0  0  0
 10 18  1  0  0  0  0
 19 20  1  0  0  0  0
 19 27  1  0  0  0  0
 19 28  1  0  0  0  0
 20 21  1  0  0  0  0
 20 29  1  0  0  0  0
 20 30  1  0  0  0  0
 21 22  4  0  0  0  0
 21 26  4  0  0  0  0
 22 23  4  0  0  0  0
 22 31  1  0  0  0  0
 23 24  4  0  0  0  0
 23 32  1  0  0  0  0
 24 25  4  0  0  0  0
 24 33  1  0  0  0  0
 25 26  4  0  0  0  0
 25 34  1  0  0  0  0
 26 35  1  0  0  0  0
M  END
> <BCLConfClusterSize>
1

> <ConfClashScore>
0 

> <ConfOneFourInteractionScore>
-0.951398 

> <ConfScore>
0.25404 

> <ConfScorePBest>
0.00461551 

> <ConfTolerance>
0.558685 

> <RosettaParamsInstructions>
M  ROOT 3
M  POLY_N_BB 3
M  POLY_CA_BB 4
M  POLY_C_BB 2
M  POLY_O_BB 5
M  POLY_IGNORE 9 10 11 12 13 14 15 16 17 18 
M  POLY_UPPER 6
M  POLY_LOWER 8
M  POLY_CHG 0
M  POLY_PROPERTIES ALPHA_AA D_AA PROTEIN AROMATIC POLYMER 
M  END

$$$$



 35 35  0  0  0  0  0  0  0  0999 V2000
   -3.1396    4.7492    2.1206 H   0  0  0  1  0  0  0  0  0  0  0  0
   -1.5303    3.4039    1.8781 C   0  0  0  1  0  0  0  0  0  0  0  0
   -3.8073    3.1570    0.9820 N   0  0  0  1  0  0  0  0  0  0  0  0
   -2.7671    4.1054    1.3514 C   0  0  0  1  0  0  0  0  0  0  0  0
   -1.6892    2.4279    2.6066 O   0  0  0  1  0  0  0  0  0  0  0  0
   -0.3344    3.8824    1.5234 N   0  0  0  1  0  0  0  0  0  0  0  0
   -3.5995    2.1994    0.9924 H   0  0  0  1  0  0  0  0  0  0  0  0
   -5.0477    3.5503    0.6258 C   0  0  0  1  0  0  0  0  0  0  0  0
    0.8732    3.3734    2.1561 C   0  0  0  1  0  0  0  0  0  0  0  0
   -6.0523    2.4834    0.2538 C   0  0  0  1  0  0  0  0  0  0  0  0
   -5.3548    4.7410    0.6035 O   0  0  0  1  0  0  0  0  0  0  0  0
   -0.2703    4.5777    0.8358 H   0  0  0  1  0  0  0  0  0  0  0  0
    0.9737    2.3291    1.9457 H   0  0  0  1  0  0  0  0  0  0  0  0
    0.8099    3.5193    3.2142 H   0  0  0  1  0  0  0  0  0  0  0  0
    1.7241    3.8974    1.7736 H   0  0  0  1  0  0  0  0  0  0  0  0
   -5.8496    2.1316   -0.7362 H   0  0  0  1  0  0  0  0  0  0  0  0
   -7.0394    2.8948    0.2907 H   0  0  0  1  0  0  0  0  0  0  0  0
   -5.9789    1.6687    0.9435 H   0  0  0  1  0  0  0  0  0  0  0  0
   -2.4132    4.9635    0.1521 C   0  0  0  1  0  0  0  0  0  0  0  0
   -1.7517    4.1850   -0.9707 C   0  0  0  1  0  0  0  0  0  0  0  0
   -1.3868    5.0513   -2.1587 C   0  0  0  1  0  0  0  0  0  0  0  0
   -2.3175    5.2846   -3.1591 C   0  0  0  1  0  0  0  0  0  0  0  0
   -1.9823    6.0706   -4.2454 C   0  0  0  1  0  0  0  0  0  0  0  0
   -0.7170    6.6301   -4.3317 C   0  0  0  1  0  0  0  0  0  0  0  0
    0.2112    6.3976   -3.3343 C   0  0  0  1  0  0  0  0  0  0  0  0
   -0.1252    5.6092   -2.2449 C   0  0  0  1  0  0  0  0  0  0  0  0
   -1.7426    5.7335    0.4719 H   0  0  0  1  0  0  0  0  0  0  0  0
   -3.3113    5.4061   -0.2253 H   0  0  0  1  0  0  0  0  0  0  0  0
   -2.4263    3.4224   -1.2998 H   0  0  0  1  0  0  0  0  0  0  0  0
   -0.8590    3.7330   -0.5918 H   0  0  0  1  0  0  0  0  0  0  0  0
   -3.2681    4.8681   -3.0923 H   0  0  0  1  0  0  0  0  0  0  0  0
   -2.6793    6.2424   -4.9979 H   0  0  0  1  0  0  0  0  0  0  0  0
   -0.4660    7.2249   -5.1471 H   0  0  0  1  0  0  0  0  0  0  0  0
    1.1618    6.8141   -3.4012 H   0  0  0  1  0  0  0  0  0  0  0  0
    0.5718    5.4374   -1.4924 H   0  0  0  1  0  0  0  0  0  0  0  0
  1  4  1  0  0  0  0
  2  4  1  0  0  0  0
  2  5  2  0  0  0  0
  2  6  1  0  0  0  0
  3  4  1  0  0  0  0
  3  7  1  0  0  0  0
  3  8  1  0  0  0  0
  4 19  1  0  0  0  0
  6  9  1  0  0  0  0
  6 12  1  0  0  0  0
  8 10  1  0  0  0  0
  8 11  2  0  0  0  0
  9 13  1  0  0  0  0
  9 14  1  0  0  0  0
  9 15  1  0  0  0  0
 10 16  1  0  0  0  0
 10 17  1  0  0  0  0
 10 18  1  0  0  0  0
 19 20  1  0  0  0  0
 19 27  1  0  0  0  0
 19 28  1  0  0  0  0
 20 21  1  0  0  0  0
 20 29  1  0  0  0  0
 20 30  1  0  0  0  0
 21 22  4  0  0  0  0
 21 26  4  0  0  0  0
 22 23  4  0  0  0  0
 22 31  1  0  0  0  0
 23 24  4  0  0  0  0
 23 32  1  0  0  0  0
 24 25  4  0  0  0  0
 24 33  1  0  0  0  0
 25 26  4  0  0  0  0
 25 34  1  0  0  0  0
 26 35  1  0  0  0  0
M  END
> <BCLConfClusterSize>
1

> <ConfClashScore>
0 

> <ConfOneFourInteractionScore>
-0.949202 

> <ConfScore>
0.255478 

> <ConfScorePBest>
0.00458703 

> <ConfTolerance>
0.486365 

> <RosettaParamsInstructions>
M  ROOT 3
M  POLY_N_BB 3
M  POLY_CA_BB 4
M  POLY_C_BB 2
M  POLY_O_BB 5
M  POLY_IGNORE 9 10 11 12 13 14 15 16 17 18 
M  POLY_UPPER 6
M  POLY_LOWER 8
M  POLY_CHG 0
M  POLY_PROPERTIES ALPHA_AA D_AA PROTEIN AROMATIC POLYMER 
M  END

$$$$



 35 35  0  0  0  0  0  0  0  0999 V2000
   -2.0101    2.5034   -3.0170 H   0  0  0  1  0  0  0  0  0  0  0  0
   -3.7550    2.1341   -1.9203 C   0  0  0  1  0  0  0  0  0  0  0  0
   -1.7758    0.6414   -2.1728 N   0  0  0  1  0  0  0  0  0  0  0  0
   -2.2508    2.0272   -2.0895 C   0  0  0  1  0  0  0  0  0  0  0  0
   -4.2643    3.0844   -1.3321 O   0  0  0  1  0  0  0  0  0  0  0  0
   -4.4708    1.1372   -2.4484 N   0  0  0  1  0  0  0  0  0  0  0  0
   -1.1653    0.3935   -2.8983 H   0  0  0  1  0  0  0  0  0  0  0  0
   -2.1483   -0.2987   -1.2899 C   0  0  0  1  0  0  0  0  0  0  0  0
   -5.9114    0.9463   -2.3709 C   0  0  0  1  0  0  0  0  0  0  0  0
   -1.6125   -1.6936   -1.5475 C   0  0  0  1  0  0  0  0  0  0  0  0
   -2.8772   -0.0624   -0.3274 O   0  0  0  1  0  0  0  0  0  0  0  0
   -3.9686    0.4572   -2.9442 H   0  0  0  1  0  0  0  0  0  0  0  0
   -6.4037    1.8883   -2.4945 H   0  0  0  1  0  0  0  0  0  0  0  0
   -6.1656    0.5338   -1.4169 H   0  0  0  1  0  0  0  0  0  0  0  0
   -6.2243    0.2765   -3.1445 H   0  0  0  1  0  0  0  0  0  0  0  0
   -1.4340   -1.8199   -2.5949 H   0  0  0  1  0  0  0  0  0  0  0  0
   -2.3288   -2.4170   -1.2182 H   0  0  0  1  0  0  0  0  0  0  0  0
   -0.6965   -1.8282   -1.0111 H   0  0  0  1  0  0  0  0  0  0  0  0
   -1.4600    2.7513   -1.0169 C   0  0  0  1  0  0  0  0  0  0  0  0
   -1.7611    4.2396   -0.9476 C   0  0  0  1  0  0  0  0  0  0  0  0
   -1.3812    5.0323   -2.1696 C   0  0  0  1  0  0  0  0  0  0  0  0
   -2.3138    5.2721   -3.1668 C   0  0  0  1  0  0  0  0  0  0  0  0
   -1.9826    6.0702   -4.2454 C   0  0  0  1  0  0  0  0  0  0  0  0
   -0.7195    6.6353   -4.3274 C   0  0  0  1  0  0  0  0  0  0  0  0
    0.2105    6.3963   -3.3333 C   0  0  0  1  0  0  0  0  0  0  0  0
   -0.1218    5.5958   -2.2515 C   0  0  0  1  0  0  0  0  0  0  0  0
   -0.4173    2.6252   -1.2209 H   0  0  0  1  0  0  0  0  0  0  0  0
   -1.6940    2.3134   -0.0691 H   0  0  0  1  0  0  0  0  0  0  0  0
   -1.2293    4.6454   -0.1125 H   0  0  0  1  0  0  0  0  0  0  0  0
   -2.8132    4.3566   -0.7922 H   0  0  0  1  0  0  0  0  0  0  0  0
   -3.2627    4.8514   -3.1032 H   0  0  0  1  0  0  0  0  0  0  0  0
   -2.6810    6.2468   -4.9955 H   0  0  0  1  0  0  0  0  0  0  0  0
   -0.4716    7.2392   -5.1371 H   0  0  0  1  0  0  0  0  0  0  0  0
    1.1595    6.8171   -3.3969 H   0  0  0  1  0  0  0  0  0  0  0  0
    0.5766    5.4192   -1.5014 H   0  0  0  1  0  0  0  0  0  0  0  0
  1  4  1  0  0  0  0
  2  4  1  0  0  0  0
  2  5  2  0  0  0  0
  2  6  1  0  0  0  0
  3  4  1  0  0  0  0
  3  7  1  0  0  0  0
  3  8  1  0  0  0  0
  4 19  1  0  0  0  0
  6  9  1  0  0  0  0
  6 12  1  0  0  0  0
  8 10  1  0  0  0  0
  8 11  2  0  0  0  0
  9 13  1  0  0  0  0
  9 14  1  0  0  0  0
  9 15  1  0  0  0  0
 10 16  1  0  0  0  0
 10 17  1  0  0  0  0
 10 18  1  0  0  0  0
 19 20  1  0  0  0  0
 19 27  1  0  0  0  0
 19 28  1  0  0  0  0
 20 21  1  0  0  0  0
 20 29  1  0  0  0  0
 20 30  1  0  0  0  0
 21 22  4  0  0  0  0
 21 26  4  0  0  0  0
 22 23  4  0  0  0  0
 22 31  1  0  0  0  0
 23 24  4  0  0  0  0
 23 32  1  0  0  0  0
 24 25  4  0  0  0  0
 24 33  1  0  0  0  0
 25 26  4  0  0  0  0
 25 34  1  0  0  0  0
 26 35  1  0  0  0  0
M  END
> <BCLConfClusterSize>
1

> <ConfClashScore>
0 

> <ConfOneFourInteractionScore>
-0.968021 

> <ConfScore>
0.255508 

> <ConfScorePBest>
0.00455855 

> <ConfTolerance>
0.43399 

> <RosettaParamsInstructions>
M  ROOT 3
M  POLY_N_BB 3
M  POLY_CA_BB 4
M  POLY_C_BB 2
M  POLY_O_BB 5
M  POLY_IGNORE 9 10 11 12 13 14 15 16 17 18 
M  POLY_UPPER 6
M  POLY_LOWER 8
M  POLY_CHG 0
M  POLY_PROPERTIES ALPHA_AA D_AA PROTEIN AROMATIC POLYMER 
M  END

$$$$



 35 35  0  0  0  0  0  0  0  0999 V2000
   -1.5519    2.0959    0.7422 H   0  0  0  1  0  0  0  0  0  0  0  0
   -1.8920    0.3512   -0.3894 C   0  0  0  1  0  0  0  0  0  0  0  0
   -3.5293    2.1315    0.1300 N   0  0  0  1  0  0  0  0  0  0  0  0
   -2.1179    1.8285   -0.1255 C   0  0  0  1  0  0  0  0  0  0  0  0
   -2.6573   -0.3150   -1.0624 O   0  0  0  1  0  0  0  0  0  0  0  0
   -0.8165   -0.2447    0.1333 N   0  0  0  1  0  0  0  0  0  0  0  0
   -3.7590    2.7148    0.8832 H   0  0  0  1  0  0  0  0  0  0  0  0
   -4.5358    1.6289   -0.6457 C   0  0  0  1  0  0  0  0  0  0  0  0
   -0.4555   -1.6175   -0.1877 C   0  0  0  1  0  0  0  0  0  0  0  0
   -5.9054    1.7633   -0.0196 C   0  0  0  1  0  0  0  0  0  0  0  0
   -4.3229    1.1259   -1.7335 O   0  0  0  1  0  0  0  0  0  0  0  0
   -0.2510    0.2602    0.7543 H   0  0  0  1  0  0  0  0  0  0  0  0
   -0.0983   -2.1082    0.6935 H   0  0  0  1  0  0  0  0  0  0  0  0
    0.3125   -1.6192   -0.9327 H   0  0  0  1  0  0  0  0  0  0  0  0
   -1.3152   -2.1344   -0.5598 H   0  0  0  1  0  0  0  0  0  0  0  0
   -5.9716    1.1236    0.8355 H   0  0  0  1  0  0  0  0  0  0  0  0
   -6.6524    1.4835   -0.7328 H   0  0  0  1  0  0  0  0  0  0  0  0
   -6.0616    2.7781    0.2816 H   0  0  0  1  0  0  0  0  0  0  0  0
   -1.6418    2.7023   -1.2701 C   0  0  0  1  0  0  0  0  0  0  0  0
   -1.7496    4.1900   -0.9776 C   0  0  0  1  0  0  0  0  0  0  0  0
   -1.3870    5.0508   -2.1581 C   0  0  0  1  0  0  0  0  0  0  0  0
   -2.3176    5.2842   -3.1585 C   0  0  0  1  0  0  0  0  0  0  0  0
   -1.9825    6.0702   -4.2447 C   0  0  0  1  0  0  0  0  0  0  0  0
   -0.7171    6.6296   -4.3311 C   0  0  0  1  0  0  0  0  0  0  0  0
    0.2110    6.3971   -3.3337 C   0  0  0  1  0  0  0  0  0  0  0  0
   -0.1254    5.6087   -2.2443 C   0  0  0  1  0  0  0  0  0  0  0  0
   -2.2340    2.4826   -2.1337 H   0  0  0  1  0  0  0  0  0  0  0  0
   -0.6170    2.4695   -1.4710 H   0  0  0  1  0  0  0  0  0  0  0  0
   -1.0908    4.4266   -0.1684 H   0  0  0  1  0  0  0  0  0  0  0  0
   -2.7576    4.4090   -0.6933 H   0  0  0  1  0  0  0  0  0  0  0  0
   -3.2683    4.8677   -3.0917 H   0  0  0  1  0  0  0  0  0  0  0  0
   -2.6795    6.2419   -4.9973 H   0  0  0  1  0  0  0  0  0  0  0  0
   -0.4662    7.2244   -5.1465 H   0  0  0  1  0  0  0  0  0  0  0  0
    1.1616    6.8136   -3.4006 H   0  0  0  1  0  0  0  0  0  0  0  0
    0.5716    5.4370   -1.4918 H   0  0  0  1  0  0  0  0  0  0  0  0
  1  4  1  0  0  0  0
  2  4  1  0  0  0  0
  2  5  2  0  0  0  0
  2  6  1  0  0  0  0
  3  4  1  0  0  0  0
  3  7  1  0  0  0  0
  3  8  1  0  0  0  0
  4 19  1  0  0  0  0
  6  9  1  0  0  0  0
  6 12  1  0  0  0  0
  8 10  1  0  0  0  0
  8 11  2  0  0  0  0
  9 13  1  0  0  0  0
  9 14  1  0  0  0  0
  9 15  1  0  0  0  0
 10 16  1  0  0  0  0
 10 17  1  0  0  0  0
 10 18  1  0  0  0  0
 19 20  1  0  0  0  0
 19 27  1  0  0  0  0
 19 28  1  0  0  0  0
 20 21  1  0  0  0  0
 20 29  1  0  0  0  0
 20 30  1  0  0  0  0
 21 22  4  0  0  0  0
 21 26  4  0  0  0  0
 22 23  4  0  0  0  0
 22 31  1  0  0  0  0
 23 24  4  0  0  0  0
 23 32  1  0  0  0  0
 24 25  4  0  0  0  0
 24 33  1  0  0  0  0
 25 26  4  0  0  0  0
 25 34  1  0  0  0  0
 26 35  1  0  0  0  0
M  END
> <BCLConfClusterSize>
1

> <ConfClashScore>
0 

> <ConfOneFourInteractionScore>
-0.99264 

> <ConfScore>
0.257182 

> <ConfScorePBest>
0.00453007 

> <ConfTolerance>
0.36237 

> <RosettaParamsInstructions>
M  ROOT 3
M  POLY_N_BB 3
M  POLY_CA_BB 4
M  POLY_C_BB 2
M  POLY_O_BB 5
M  POLY_IGNORE 9 10 11 12 13 14 15 16 17 18 
M  POLY_UPPER 6
M  POLY_LOWER 8
M  POLY_CHG 0
M  POLY_PROPERTIES ALPHA_AA D_AA PROTEIN AROMATIC POLYMER 
M  END

$$$$



 35 35  0  0  0  0  0  0  0  0999 V2000
   -1.2719    2.3679    1.0504 H   0  0  0  1  0  0  0  0  0  0  0  0
   -0.3418    0.7201    0.0850 C   0  0  0  1  0  0  0  0  0  0  0  0
   -2.6535    1.4128   -0.1896 N   0  0  0  1  0  0  0  0  0  0  0  0
   -1.2962    1.9046    0.0862 C   0  0  0  1  0  0  0  0  0  0  0  0
   -0.6980   -0.3861   -0.3172 O   0  0  0  1  0  0  0  0  0  0  0  0
    0.8897    0.9659    0.5447 N   0  0  0  1  0  0  0  0  0  0  0  0
   -3.3661    1.7574    0.3881 H   0  0  0  1  0  0  0  0  0  0  0  0
   -3.0266    0.5481   -1.1398 C   0  0  0  1  0  0  0  0  0  0  0  0
    1.8898   -0.0817    0.6872 C   0  0  0  1  0  0  0  0  0  0  0  0
   -4.4955    0.1719   -1.1479 C   0  0  0  1  0  0  0  0  0  0  0  0
   -2.2439    0.0786   -1.9615 O   0  0  0  1  0  0  0  0  0  0  0  0
    1.1270    1.8834    0.7944 H   0  0  0  1  0  0  0  0  0  0  0  0
    1.5169   -0.8454    1.3372 H   0  0  0  1  0  0  0  0  0  0  0  0
    2.7845    0.3337    1.1017 H   0  0  0  1  0  0  0  0  0  0  0  0
    2.1033   -0.5035   -0.2727 H   0  0  0  1  0  0  0  0  0  0  0  0
   -5.0073    0.7140   -0.3804 H   0  0  0  1  0  0  0  0  0  0  0  0
   -4.5954   -0.8784   -0.9696 H   0  0  0  1  0  0  0  0  0  0  0  0
   -4.9203    0.4146   -2.0995 H   0  0  0  1  0  0  0  0  0  0  0  0
   -0.9048    2.9267   -0.9520 C   0  0  0  1  0  0  0  0  0  0  0  0
   -1.7496    4.1900   -0.9776 C   0  0  0  1  0  0  0  0  0  0  0  0
   -1.3870    5.0508   -2.1581 C   0  0  0  1  0  0  0  0  0  0  0  0
   -2.3176    5.2842   -3.1585 C   0  0  0  1  0  0  0  0  0  0  0  0
   -1.9825    6.0702   -4.2447 C   0  0  0  1  0  0  0  0  0  0  0  0
   -0.7171    6.6296   -4.3311 C   0  0  0  1  0  0  0  0  0  0  0  0
    0.2110    6.3971   -3.3337 C   0  0  0  1  0  0  0  0  0  0  0  0
   -0.1254    5.6087   -2.2443 C   0  0  0  1  0  0  0  0  0  0  0  0
   -0.9757    2.4633   -1.9139 H   0  0  0  1  0  0  0  0  0  0  0  0
    0.1097    3.2123   -0.7672 H   0  0  0  1  0  0  0  0  0  0  0  0
   -1.5826    4.7421   -0.0764 H   0  0  0  1  0  0  0  0  0  0  0  0
   -2.7828    3.9198   -1.0447 H   0  0  0  1  0  0  0  0  0  0  0  0
   -3.2683    4.8677   -3.0917 H   0  0  0  1  0  0  0  0  0  0  0  0
   -2.6795    6.2419   -4.9973 H   0  0  0  1  0  0  0  0  0  0  0  0
   -0.4662    7.2244   -5.1465 H   0  0  0  1  0  0  0  0  0  0  0  0
    1.1616    6.8136   -3.4006 H   0  0  0  1  0  0  0  0  0  0  0  0
    0.5716    5.4370   -1.4918 H   0  0  0  1  0  0  0  0  0  0  0  0
  1  4  1  0  0  0  0
  2  4  1  0  0  0  0
  2  5  2  0  0  0  0
  2  6  1  0  0  0  0
  3  4  1  0  0  0  0
  3  7  1  0  0  0  0
  3  8  1  0  0  0  0
  4 19  1  0  0  0  0
  6  9  1  0  0  0  0
  6 12  1  0  0  0  0
  8 10  1  0  0  0  0
  8 11  2  0  0  0  0
  9 13  1  0  0  0  0
  9 14  1  0  0  0  0
  9 15  1  0  0  0  0
 10 16  1  0  0  0  0
 10 17  1  0  0  0  0
 10 18  1  0  0  0  0
 19 20  1  0  0  0  0
 19 27  1  0  0  0  0
 19 28  1  0  0  0  0
 20 21  1  0  0  0  0
 20 29  1  0  0  0  0
 20 30  1  0  0  0  0
 21 22  4  0  0  0  0
 21 26  4  0  0  0  0
 22 23  4  0  0  0  0
 22 31  1  0  0  0  0
 23 24  4  0  0  0  0
 23 32  1  0  0  0  0
 24 25  4  0  0  0  0
 24 33  1  0  0  0  0
 25 26  4  0  0  0  0
 25 34  1  0  0  0  0
 26 35  1  0  0  0  0
M  END
> <BCLConfClusterSize>
1

> <ConfClashScore>
0 

> <ConfOneFourInteractionScore>
-0.99264 

> <ConfScore>
0.259428 

> <ConfScorePBest>
0.00450159 

> <ConfTolerance>
0.596725 

> <RosettaParamsInstructions>
M  ROOT 3
M  POLY_N_BB 3
M  POLY_CA_BB 4
M  POLY_C_BB 2
M  POLY_O_BB 5
M  POLY_IGNORE 9 10 11 12 13 14 15 16 17 18 
M  POLY_UPPER 6
M  POLY_LOWER 8
M  POLY_CHG 0
M  POLY_PROPERTIES ALPHA_AA D_AA PROTEIN AROMATIC POLYMER 
M  END

$$$$



 35 35  0  0  0  0  0  0  0  0999 V2000
   -3.0331    4.2871    1.6760 H   0  0  0  1  0  0  0  0  0  0  0  0
   -3.5311    2.4826    0.7108 C   0  0  0  1  0  0  0  0  0  0  0  0
   -5.0124    4.4267    1.0855 N   0  0  0  1  0  0  0  0  0  0  0  0
   -3.6344    3.9896    0.8424 C   0  0  0  1  0  0  0  0  0  0  0  0
   -4.3520    1.8411    0.0565 O   0  0  0  1  0  0  0  0  0  0  0  0
   -2.4975    1.9109    1.3488 N   0  0  0  1  0  0  0  0  0  0  0  0
   -5.4211    5.1014    0.5040 H   0  0  0  1  0  0  0  0  0  0  0  0
   -5.7098    3.9090    2.0944 C   0  0  0  1  0  0  0  0  0  0  0  0
   -2.2706    0.4770    1.4495 C   0  0  0  1  0  0  0  0  0  0  0  0
   -7.1252    4.4294    2.3344 C   0  0  0  1  0  0  0  0  0  0  0  0
   -5.2822    3.0347    2.8469 O   0  0  0  1  0  0  0  0  0  0  0  0
   -1.8467    2.5039    1.7792 H   0  0  0  1  0  0  0  0  0  0  0  0
   -3.1963   -0.0173    1.6583 H   0  0  0  1  0  0  0  0  0  0  0  0
   -1.5757    0.2806    2.2391 H   0  0  0  1  0  0  0  0  0  0  0  0
   -1.8729    0.1133    0.5251 H   0  0  0  1  0  0  0  0  0  0  0  0
   -7.1123    5.1463    3.1286 H   0  0  0  1  0  0  0  0  0  0  0  0
   -7.7644    3.6137    2.6009 H   0  0  0  1  0  0  0  0  0  0  0  0
   -7.4907    4.8927    1.4419 H   0  0  0  1  0  0  0  0  0  0  0  0
   -3.1208    4.7042   -0.3607 C   0  0  0  1  0  0  0  0  0  0  0  0
   -1.8014    4.2296   -0.9553 C   0  0  0  1  0  0  0  0  0  0  0  0
   -1.3727    5.0336   -2.1672 C   0  0  0  1  0  0  0  0  0  0  0  0
   -2.3083    5.2711   -3.1621 C   0  0  0  1  0  0  0  0  0  0  0  0
   -1.9813    6.0688   -4.2423 C   0  0  0  1  0  0  0  0  0  0  0  0
   -0.7193    6.6359   -4.3280 C   0  0  0  1  0  0  0  0  0  0  0  0
    0.2137    6.3993   -3.3361 C   0  0  0  1  0  0  0  0  0  0  0  0
   -0.1145    5.5991   -2.2528 C   0  0  0  1  0  0  0  0  0  0  0  0
   -2.9994    5.7332   -0.0937 H   0  0  0  1  0  0  0  0  0  0  0  0
   -3.8649    4.6189   -1.1249 H   0  0  0  1  0  0  0  0  0  0  0  0
   -1.9077    3.2055   -1.2463 H   0  0  0  1  0  0  0  0  0  0  0  0
   -1.0415    4.3111   -0.2064 H   0  0  0  1  0  0  0  0  0  0  0  0
   -3.2564    4.8488   -3.0957 H   0  0  0  1  0  0  0  0  0  0  0  0
   -2.6819    6.2437   -4.9907 H   0  0  0  1  0  0  0  0  0  0  0  0
   -0.4745    7.2395   -5.1388 H   0  0  0  1  0  0  0  0  0  0  0  0
    1.1618    6.8215   -3.4025 H   0  0  0  1  0  0  0  0  0  0  0  0
    0.5861    5.4243   -1.5044 H   0  0  0  1  0  0  0  0  0  0  0  0
  1  4  1  0  0  0  0
  2  4  1  0  0  0  0
  2  5  2  0  0  0  0
  2  6  1  0  0  0  0
  3  4  1  0  0  0  0
  3  7  1  0  0  0  0
  3  8  1  0  0  0  0
  4 19  1  0  0  0  0
  6  9  1  0  0  0  0
  6 12  1  0  0  0  0
  8 10  1  0  0  0  0
  8 11  2  0  0  0  0
  9 13  1  0  0  0  0
  9 14  1  0  0  0  0
  9 15  1  0  0  0  0
 10 16  1  0  0  0  0
 10 17  1  0  0  0  0
 10 18  1  0  0  0  0
 19 20  1  0  0  0  0
 19 27  1  0  0  0  0
 19 28  1  0  0  0  0
 20 21  1  0  0  0  0
 20 29  1  0  0  0  0
 20 30  1  0  0  0  0
 21 22  4  0  0  0  0
 21 26  4  0  0  0  0
 22 23  4  0  0  0  0
 22 31  1  0  0  0  0
 23 24  4  0  0  0  0
 23 32  1  0  0  0  0
 24 25  4  0  0  0  0
 24 33  1  0  0  0  0
 25 26  4  0  0  0  0
 25 34  1  0  0  0  0
 26 35  1  0  0  0  0
M  END
> <BCLConfClusterSize>
1

> <ConfClashScore>
0 

> <ConfOneFourInteractionScore>
-0.991445 

> <ConfScore>
0.259941 

> <ConfScorePBest>
0.00447311 

> <ConfTolerance>
0.680458 

> <RosettaParamsInstructions>
M  ROOT 3
M  POLY_N_BB 3
M  POLY_CA_BB 4
M  POLY_C_BB 2
M  POLY_O_BB 5
M  POLY_IGNORE 9 10 11 12 13 14 15 16 17 18 
M  POLY_UPPER 6
M  POLY_LOWER 8
M  POLY_CHG 0
M  POLY_PROPERTIES ALPHA_AA D_AA PROTEIN AROMATIC POLYMER 
M  END

$$$$



 35 35  0  0  0  0  0  0  0  0999 V2000
   -3.4078    3.6757    1.1588 H   0  0  0  1  0  0  0  0  0  0  0  0
   -2.4296    4.4416    2.8419 C   0  0  0  1  0  0  0  0  0  0  0  0
   -1.6519    2.6293    1.3804 N   0  0  0  1  0  0  0  0  0  0  0  0
   -2.3954    3.8923    1.4290 C   0  0  0  1  0  0  0  0  0  0  0  0
   -3.0255    5.4823    3.1069 O   0  0  0  1  0  0  0  0  0  0  0  0
   -1.7776    3.7250    3.7579 N   0  0  0  1  0  0  0  0  0  0  0  0
   -0.6732    2.6790    1.3889 H   0  0  0  1  0  0  0  0  0  0  0  0
   -2.2138    1.4039    1.3249 C   0  0  0  1  0  0  0  0  0  0  0  0
   -1.8494    4.0964    5.1632 C   0  0  0  1  0  0  0  0  0  0  0  0
   -1.2999    0.2091    1.1730 C   0  0  0  1  0  0  0  0  0  0  0  0
   -3.4315    1.2606    1.3955 O   0  0  0  1  0  0  0  0  0  0  0  0
   -1.2488    2.9466    3.4843 H   0  0  0  1  0  0  0  0  0  0  0  0
   -2.8546    4.3675    5.4101 H   0  0  0  1  0  0  0  0  0  0  0  0
   -1.2009    4.9277    5.3457 H   0  0  0  1  0  0  0  0  0  0  0  0
   -1.5454    3.2670    5.7670 H   0  0  0  1  0  0  0  0  0  0  0  0
   -0.6927    0.3325    0.3006 H   0  0  0  1  0  0  0  0  0  0  0  0
   -1.8880   -0.6793    1.0752 H   0  0  0  1  0  0  0  0  0  0  0  0
   -0.6721    0.1286    2.0357 H   0  0  0  1  0  0  0  0  0  0  0  0
   -1.8634    4.8679    0.3781 C   0  0  0  1  0  0  0  0  0  0  0  0
   -1.7496    4.1900   -0.9776 C   0  0  0  1  0  0  0  0  0  0  0  0
   -1.3870    5.0508   -2.1581 C   0  0  0  1  0  0  0  0  0  0  0  0
   -2.3176    5.2842   -3.1585 C   0  0  0  1  0  0  0  0  0  0  0  0
   -1.9825    6.0702   -4.2447 C   0  0  0  1  0  0  0  0  0  0  0  0
   -0.7171    6.6296   -4.3311 C   0  0  0  1  0  0  0  0  0  0  0  0
    0.2110    6.3971   -3.3337 C   0  0  0  1  0  0  0  0  0  0  0  0
   -0.1254    5.6087   -2.2443 C   0  0  0  1  0  0  0  0  0  0  0  0
   -0.8970    5.2150    0.6790 H   0  0  0  1  0  0  0  0  0  0  0  0
   -2.5330    5.6987    0.2998 H   0  0  0  1  0  0  0  0  0  0  0  0
   -2.6958    3.7377   -1.1898 H   0  0  0  1  0  0  0  0  0  0  0  0
   -1.0012    3.4299   -0.8937 H   0  0  0  1  0  0  0  0  0  0  0  0
   -3.2683    4.8677   -3.0917 H   0  0  0  1  0  0  0  0  0  0  0  0
   -2.6795    6.2419   -4.9973 H   0  0  0  1  0  0  0  0  0  0  0  0
   -0.4662    7.2244   -5.1465 H   0  0  0  1  0  0  0  0  0  0  0  0
    1.1616    6.8136   -3.4006 H   0  0  0  1  0  0  0  0  0  0  0  0
    0.5716    5.4370   -1.4918 H   0  0  0  1  0  0  0  0  0  0  0  0
  1  4  1  0  0  0  0
  2  4  1  0  0  0  0
  2  5  2  0  0  0  0
  2  6  1  0  0  0  0
  3  4  1  0  0  0  0
  3  7  1  0  0  0  0
  3  8  1  0  0  0  0
  4 19  1  0  0  0  0
  6  9  1  0  0  0  0
  6 12  1  0  0  0  0
  8 10  1  0  0  0  0
  8 11  2  0  0  0  0
  9 13  1  0  0  0  0
  9 14  1  0  0  0  0
  9 15  1  0  0  0  0
 10 16  1  0  0  0  0
 10 17  1  0  0  0  0
 10 18  1  0  0  0  0
 19 20  1  0  0  0  0
 19 27  1  0  0  0  0
 19 28  1  0  0  0  0
 20 21  1  0  0  0  0
 20 29  1  0  0  0  0
 20 30  1  0  0  0  0
 21 22  4  0  0  0  0
 21 26  4  0  0  0  0
 22 23  4  0  0  0  0
 22 31  1  0  0  0  0
 23 24  4  0  0  0  0
 23 32  1  0  0  0  0
 24 25  4  0  0  0  0
 24 33  1  0  0  0  0
 25 26  4  0  0  0  0
 25 34  1  0  0  0  0
 26 35  1  0  0  0  0
M  END
> <BCLConfClusterSize>
1

> <ConfClashScore>
0 

> <ConfOneFourInteractionScore>
-0.95508 

> <ConfScore>
0.261854 

> <ConfScorePBest>
0.00444463 

> <ConfTolerance>
0.603285 

> <RosettaParamsInstructions>
M  ROOT 3
M  POLY_N_BB 3
M  POLY_CA_BB 4
M  POLY_C_BB 2
M  POLY_O_BB 5
M  POLY_IGNORE 9 10 11 12 13 14 15 16 17 18 
M  POLY_UPPER 6
M  POLY_LOWER 8
M  POLY_CHG 0
M  POLY_PROPERTIES ALPHA_AA D_AA PROTEIN AROMATIC POLYMER 
M  END

$$$$



 35 35  0  0  0  0  0  0  0  0999 V2000
   -3.1093    2.2708   -2.0578 H   0  0  0  1  0  0  0  0  0  0  0  0
   -1.9579    0.5162   -2.0844 C   0  0  0  1  0  0  0  0  0  0  0  0
   -1.6188    2.5387   -3.4591 N   0  0  0  1  0  0  0  0  0  0  0  0
   -2.0693    2.0355   -2.1475 C   0  0  0  1  0  0  0  0  0  0  0  0
   -2.7305   -0.0867   -1.3442 O   0  0  0  1  0  0  0  0  0  0  0  0
   -1.0278   -0.0798   -2.8357 N   0  0  0  1  0  0  0  0  0  0  0  0
   -0.9290    3.2342   -3.4873 H   0  0  0  1  0  0  0  0  0  0  0  0
   -2.1234    2.0746   -4.6211 C   0  0  0  1  0  0  0  0  0  0  0  0
   -0.9190   -1.5296   -2.7702 C   0  0  0  1  0  0  0  0  0  0  0  0
   -1.5181    2.5835   -5.9148 C   0  0  0  1  0  0  0  0  0  0  0  0
   -3.0459    1.2638   -4.6333 O   0  0  0  1  0  0  0  0  0  0  0  0
   -0.4356    0.4443   -3.4146 H   0  0  0  1  0  0  0  0  0  0  0  0
   -1.6611   -1.9723   -3.4012 H   0  0  0  1  0  0  0  0  0  0  0  0
   -1.0698   -1.8530   -1.7615 H   0  0  0  1  0  0  0  0  0  0  0  0
    0.0539   -1.8293   -3.0997 H   0  0  0  1  0  0  0  0  0  0  0  0
   -2.2398    2.5071   -6.7011 H   0  0  0  1  0  0  0  0  0  0  0  0
   -0.6587    1.9958   -6.1616 H   0  0  0  1  0  0  0  0  0  0  0  0
   -1.2288    3.6066   -5.7947 H   0  0  0  1  0  0  0  0  0  0  0  0
   -1.3548    2.7747   -1.0162 C   0  0  0  1  0  0  0  0  0  0  0  0
   -1.8014    4.2296   -0.9553 C   0  0  0  1  0  0  0  0  0  0  0  0
   -1.3727    5.0336   -2.1672 C   0  0  0  1  0  0  0  0  0  0  0  0
   -2.3083    5.2711   -3.1621 C   0  0  0  1  0  0  0  0  0  0  0  0
   -1.9813    6.0688   -4.2423 C   0  0  0  1  0  0  0  0  0  0  0  0
   -0.7193    6.6359   -4.3280 C   0  0  0  1  0  0  0  0  0  0  0  0
    0.2137    6.3993   -3.3361 C   0  0  0  1  0  0  0  0  0  0  0  0
   -0.1145    5.5991   -2.2528 C   0  0  0  1  0  0  0  0  0  0  0  0
   -0.2989    2.7386   -1.1854 H   0  0  0  1  0  0  0  0  0  0  0  0
   -1.5840    2.2982   -0.0859 H   0  0  0  1  0  0  0  0  0  0  0  0
   -1.3786    4.6794   -0.0813 H   0  0  0  1  0  0  0  0  0  0  0  0
   -2.8690    4.2557   -0.8895 H   0  0  0  1  0  0  0  0  0  0  0  0
   -3.2564    4.8488   -3.0957 H   0  0  0  1  0  0  0  0  0  0  0  0
   -2.6819    6.2437   -4.9907 H   0  0  0  1  0  0  0  0  0  0  0  0
   -0.4745    7.2395   -5.1388 H   0  0  0  1  0  0  0  0  0  0  0  0
    1.1618    6.8215   -3.4025 H   0  0  0  1  0  0  0  0  0  0  0  0
    0.5861    5.4243   -1.5044 H   0  0  0  1  0  0  0  0  0  0  0  0
  1  4  1  0  0  0  0
  2  4  1  0  0  0  0
  2  5  2  0  0  0  0
  2  6  1  0  0  0  0
  3  4  1  0  0  0  0
  3  7  1  0  0  0  0
  3  8  1  0  0  0  0
  4 19  1  0  0  0  0
  6  9  1  0  0  0  0
  6 12  1  0  0  0  0
  8 10  1  0  0  0  0
  8 11  2  0  0  0  0
  9 13  1  0  0  0  0
  9 14  1  0  0  0  0
  9 15  1  0  0  0  0
 10 16  1  0  0  0  0
 10 17  1  0  0  0  0
 10 18  1  0  0  0  0
 19 20  1  0  0  0  0
 19 27  1  0  0  0  0
 19 28  1  0  0  0  0
 20 21  1  0  0  0  0
 20 29  1  0  0  0  0
 20 30  1  0  0  0  0
 21 22  4  0  0  0  0
 21 26  4  0  0  0  0
 22 23  4  0  0  0  0
 22 31  1  0  0  0  0
 23 24  4  0  0  0  0
 23 32  1  0  0  0  0
 24 25  4  0  0  0  0
 24 33  1  0  0  0  0
 25 26  4  0  0  0  0
 25 34  1  0  0  0  0
 26 35  1  0  0  0  0
M  END
> <BCLConfClusterSize>
1

> <ConfClashScore>
0 

> <ConfOneFourInteractionScore>
-0.960788 

> <ConfScore>
0.262206 

> <ConfScorePBest>
0.00441614 

> <ConfTolerance>
0.696027 

> <RosettaParamsInstructions>
M  ROOT 3
M  POLY_N_BB 3
M  POLY_CA_BB 4
M  POLY_C_BB 2
M  POLY_O_BB 5
M  POLY_IGNORE 9 10 11 12 13 14 15 16 17 18 
M  POLY_UPPER 6
M  POLY_LOWER 8
M  POLY_CHG 0
M  POLY_PROPERTIES ALPHA_AA D_AA PROTEIN AROMATIC POLYMER 
M  END

$$$$



 35 35  0  0  0  0  0  0  0  0999 V2000
   -1.3887    2.3503    1.0088 H   0  0  0  1  0  0  0  0  0  0  0  0
   -1.3880    0.4872    0.0057 C   0  0  0  1  0  0  0  0  0  0  0  0
   -3.2692    2.0676    0.1949 N   0  0  0  1  0  0  0  0  0  0  0  0
   -1.8213    1.9419    0.1194 C   0  0  0  1  0  0  0  0  0  0  0  0
   -1.7058   -0.2155   -0.9365 O   0  0  0  1  0  0  0  0  0  0  0  0
   -0.6287   -0.0447    0.9755 N   0  0  0  1  0  0  0  0  0  0  0  0
   -3.8061    1.5980   -0.4771 H   0  0  0  1  0  0  0  0  0  0  0  0
   -3.9158    2.7855    1.1259 C   0  0  0  1  0  0  0  0  0  0  0  0
   -0.1253   -1.4041    0.8467 C   0  0  0  1  0  0  0  0  0  0  0  0
   -5.4256    2.7387    1.0599 C   0  0  0  1  0  0  0  0  0  0  0  0
   -3.3344    3.4456    1.9860 O   0  0  0  1  0  0  0  0  0  0  0  0
   -0.4125    0.4832    1.7723 H   0  0  0  1  0  0  0  0  0  0  0  0
   -0.8064   -2.0831    1.3158 H   0  0  0  1  0  0  0  0  0  0  0  0
    0.8319   -1.4760    1.3193 H   0  0  0  1  0  0  0  0  0  0  0  0
   -0.0315   -1.6527   -0.1898 H   0  0  0  1  0  0  0  0  0  0  0  0
   -5.7451    1.7299    0.9015 H   0  0  0  1  0  0  0  0  0  0  0  0
   -5.7661    3.3516    0.2516 H   0  0  0  1  0  0  0  0  0  0  0  0
   -5.8339    3.1016    1.9799 H   0  0  0  1  0  0  0  0  0  0  0  0
   -1.3019    2.7402   -1.0665 C   0  0  0  1  0  0  0  0  0  0  0  0
   -1.7496    4.1900   -0.9776 C   0  0  0  1  0  0  0  0  0  0  0  0
   -1.3870    5.0508   -2.1581 C   0  0  0  1  0  0  0  0  0  0  0  0
   -2.3176    5.2842   -3.1585 C   0  0  0  1  0  0  0  0  0  0  0  0
   -1.9825    6.0702   -4.2447 C   0  0  0  1  0  0  0  0  0  0  0  0
   -0.7171    6.6296   -4.3311 C   0  0  0  1  0  0  0  0  0  0  0  0
    0.2110    6.3971   -3.3337 C   0  0  0  1  0  0  0  0  0  0  0  0
   -0.1254    5.6087   -2.2443 C   0  0  0  1  0  0  0  0  0  0  0  0
   -1.6799    2.3110   -1.9709 H   0  0  0  1  0  0  0  0  0  0  0  0
   -0.2326    2.7029   -1.0732 H   0  0  0  1  0  0  0  0  0  0  0  0
   -1.3032    4.6205   -0.1057 H   0  0  0  1  0  0  0  0  0  0  0  0
   -2.8147    4.2009   -0.8759 H   0  0  0  1  0  0  0  0  0  0  0  0
   -3.2683    4.8677   -3.0917 H   0  0  0  1  0  0  0  0  0  0  0  0
   -2.6795    6.2419   -4.9973 H   0  0  0  1  0  0  0  0  0  0  0  0
   -0.4662    7.2244   -5.1465 H   0  0  0  1  0  0  0  0  0  0  0  0
    1.1616    6.8136   -3.4006 H   0  0  0  1  0  0  0  0  0  0  0  0
    0.5716    5.4370   -1.4918 H   0  0  0  1  0  0  0  0  0  0  0  0
  1  4  1  0  0  0  0
  2  4  1  0  0  0  0
  2  5  2  0  0  0  0
  2  6  1  0  0  0  0
  3  4  1  0  0  0  0
  3  7  1  0  0  0  0
  3  8  1  0  0  0  0
  4 19  1  0  0  0  0
  6  9  1  0  0  0  0
  6 12  1  0  0  0  0
  8 10  1  0  0  0  0
  8 11  2  0  0  0  0
  9 13  1  0  0  0  0
  9 14  1  0  0  0  0
  9 15  1  0  0  0  0
 10 16  1  0  0  0  0
 10 17  1  0  0  0  0
 10 18  1  0  0  0  0
 19 20  1  0  0  0  0
 19 27  1  0  0  0  0
 19 28  1  0  0  0  0
 20 21  1  0  0  0  0
 20 29  1  0  0  0  0
 20 30  1  0  0  0  0
 21 22  4  0  0  0  0
 21 26  4  0  0  0  0
 22 23  4  0  0  0  0
 22 31  1  0  0  0  0
 23 24  4  0  0  0  0
 23 32  1  0  0  0  0
 24 25  4  0  0  0  0
 24 33  1  0  0  0  0
 25 26  4  0  0  0  0
 25 34  1  0  0  0  0
 26 35  1  0  0  0  0
M  END
> <BCLConfClusterSize>
1

> <ConfClashScore>
0 

> <ConfOneFourInteractionScore>
-0.989817 

> <ConfScore>
0.263472 

> <ConfScorePBest>
0.00438766 

> <ConfTolerance>
0.536649 

> <RosettaParamsInstructions>
M  ROOT 3
M  POLY_N_BB 3
M  POLY_CA_BB 4
M  POLY_C_BB 2
M  POLY_O_BB 5
M  POLY_IGNORE 9 10 11 12 13 14 15 16 17 18 
M  POLY_UPPER 6
M  POLY_LOWER 8
M  POLY_CHG 0
M  POLY_PROPERTIES ALPHA_AA D_AA PROTEIN AROMATIC POLYMER 
M  END

$$$$



 35 35  0  0  0  0  0  0  0  0999 V2000
   -1.8644    3.5575    1.6561 H   0  0  0  1  0  0  0  0  0  0  0  0
    0.0540    3.5207    2.4544 C   0  0  0  1  0  0  0  0  0  0  0  0
   -0.9261    1.9441    0.8144 N   0  0  0  1  0  0  0  0  0  0  0  0
   -0.8858    3.3357    1.2845 C   0  0  0  1  0  0  0  0  0  0  0  0
   -0.0342    4.5069    3.1847 O   0  0  0  1  0  0  0  0  0  0  0  0
    0.9788    2.5848    2.6696 N   0  0  0  1  0  0  0  0  0  0  0  0
   -0.8564    1.7494   -0.1435 H   0  0  0  1  0  0  0  0  0  0  0  0
   -1.0581    0.9394    1.6938 C   0  0  0  1  0  0  0  0  0  0  0  0
    1.9474    2.6266    3.7560 C   0  0  0  1  0  0  0  0  0  0  0  0
   -1.1926   -0.4470    1.0948 C   0  0  0  1  0  0  0  0  0  0  0  0
   -1.0714    1.1124    2.9097 O   0  0  0  1  0  0  0  0  0  0  0  0
    1.0086    1.8199    2.0576 H   0  0  0  1  0  0  0  0  0  0  0  0
    2.1659    1.6300    4.0783 H   0  0  0  1  0  0  0  0  0  0  0  0
    1.5418    3.1848    4.5737 H   0  0  0  1  0  0  0  0  0  0  0  0
    2.8462    3.0958    3.4142 H   0  0  0  1  0  0  0  0  0  0  0  0
   -0.3372   -1.0339    1.3569 H   0  0  0  1  0  0  0  0  0  0  0  0
   -1.2593   -0.3701    0.0296 H   0  0  0  1  0  0  0  0  0  0  0  0
   -2.0763   -0.9154    1.4751 H   0  0  0  1  0  0  0  0  0  0  0  0
   -0.6526    4.2976    0.1297 C   0  0  0  1  0  0  0  0  0  0  0  0
   -1.7068    4.1969   -0.9607 C   0  0  0  1  0  0  0  0  0  0  0  0
   -1.3961    5.0494   -2.1618 C   0  0  0  1  0  0  0  0  0  0  0  0
   -2.3235    5.2856   -3.1647 C   0  0  0  1  0  0  0  0  0  0  0  0
   -1.9838    6.0723   -4.2490 C   0  0  0  1  0  0  0  0  0  0  0  0
   -0.7172    6.6296   -4.3310 C   0  0  0  1  0  0  0  0  0  0  0  0
    0.2076    6.3943   -3.3312 C   0  0  0  1  0  0  0  0  0  0  0  0
   -0.1333    5.6052   -2.2437 C   0  0  0  1  0  0  0  0  0  0  0  0
    0.3031    4.0843   -0.3017 H   0  0  0  1  0  0  0  0  0  0  0  0
   -0.6562    5.2962    0.5139 H   0  0  0  1  0  0  0  0  0  0  0  0
   -2.6467    4.5089   -0.5555 H   0  0  0  1  0  0  0  0  0  0  0  0
   -1.7747    3.1766   -1.2756 H   0  0  0  1  0  0  0  0  0  0  0  0
   -3.2750    4.8707   -3.1011 H   0  0  0  1  0  0  0  0  0  0  0  0
   -2.6783    6.2461   -5.0033 H   0  0  0  1  0  0  0  0  0  0  0  0
   -0.4628    7.2249   -5.1450 H   0  0  0  1  0  0  0  0  0  0  0  0
    1.1592    6.8091   -3.3948 H   0  0  0  1  0  0  0  0  0  0  0  0
    0.5612    5.4313   -1.4894 H   0  0  0  1  0  0  0  0  0  0  0  0
  1  4  1  0  0  0  0
  2  4  1  0  0  0  0
  2  5  2  0  0  0  0
  2  6  1  0  0  0  0
  3  4  1  0  0  0  0
  3  7  1  0  0  0  0
  3  8  1  0  0  0  0
  4 19  1  0  0  0  0
  6  9  1  0  0  0  0
  6 12  1  0  0  0  0
  8 10  1  0  0  0  0
  8 11  2  0  0  0  0
  9 13  1  0  0  0  0
  9 14  1  0  0  0  0
  9 15  1  0  0  0  0
 10 16  1  0  0  0  0
 10 17  1  0  0  0  0
 10 18  1  0  0  0  0
 19 20  1  0  0  0  0
 19 27  1  0  0  0  0
 19 28  1  0  0  0  0
 20 21  1  0  0  0  0
 20 29  1  0  0  0  0
 20 30  1  0  0  0  0
 21 22  4  0  0  0  0
 21 26  4  0  0  0  0
 22 23  4  0  0  0  0
 22 31  1  0  0  0  0
 23 24  4  0  0  0  0
 23 32  1  0  0  0  0
 24 25  4  0  0  0  0
 24 33  1  0  0  0  0
 25 26  4  0  0  0  0
 25 34  1  0  0  0  0
 26 35  1  0  0  0  0
M  END
> <BCLConfClusterSize>
1

> <ConfClashScore>
0 

> <ConfOneFourInteractionScore>
-0.964326 

> <ConfScore>
0.264511 

> <ConfScorePBest>
0.00435918 

> <ConfTolerance>
0.597704 

> <RosettaParamsInstructions>
M  ROOT 3
M  POLY_N_BB 3
M  POLY_CA_BB 4
M  POLY_C_BB 2
M  POLY_O_BB 5
M  POLY_IGNORE 9 10 11 12 13 14 15 16 17 18 
M  POLY_UPPER 6
M  POLY_LOWER 8
M  POLY_CHG 0
M  POLY_PROPERTIES ALPHA_AA D_AA PROTEIN AROMATIC POLYMER 
M  END

$$$$



 35 35  0  0  0  0  0  0  0  0999 V2000
   -1.2485    2.9377    1.2668 H   0  0  0  1  0  0  0  0  0  0  0  0
   -0.0687    1.2506    0.8432 C   0  0  0  1  0  0  0  0  0  0  0  0
   -2.4521    1.5738    0.3035 N   0  0  0  1  0  0  0  0  0  0  0  0
   -1.1637    2.2302    0.4685 C   0  0  0  1  0  0  0  0  0  0  0  0
    0.2409    0.3229    0.0966 O   0  0  0  1  0  0  0  0  0  0  0  0
    0.5238    1.4650    2.0213 N   0  0  0  1  0  0  0  0  0  0  0  0
   -2.9593    1.7280   -0.5207 H   0  0  0  1  0  0  0  0  0  0  0  0
   -2.9674    0.7684    1.2366 C   0  0  0  1  0  0  0  0  0  0  0  0
    1.6918    0.7116    2.4526 C   0  0  0  1  0  0  0  0  0  0  0  0
   -4.3785    0.2778    0.9770 C   0  0  0  1  0  0  0  0  0  0  0  0
   -2.3527    0.4357    2.2464 O   0  0  0  1  0  0  0  0  0  0  0  0
    0.1592    2.1536    2.6156 H   0  0  0  1  0  0  0  0  0  0  0  0
    2.1309    0.2199    1.6098 H   0  0  0  1  0  0  0  0  0  0  0  0
    1.3973   -0.0183    3.1775 H   0  0  0  1  0  0  0  0  0  0  0  0
    2.4059    1.3792    2.8877 H   0  0  0  1  0  0  0  0  0  0  0  0
   -4.9086    1.0050    0.3980 H   0  0  0  1  0  0  0  0  0  0  0  0
   -4.8815    0.1294    1.9097 H   0  0  0  1  0  0  0  0  0  0  0  0
   -4.3412   -0.6470    0.4401 H   0  0  0  1  0  0  0  0  0  0  0  0
   -0.8056    3.0100   -0.7873 C   0  0  0  1  0  0  0  0  0  0  0  0
   -1.7496    4.1900   -0.9776 C   0  0  0  1  0  0  0  0  0  0  0  0
   -1.3870    5.0508   -2.1581 C   0  0  0  1  0  0  0  0  0  0  0  0
   -2.3176    5.2842   -3.1585 C   0  0  0  1  0  0  0  0  0  0  0  0
   -1.9825    6.0702   -4.2447 C   0  0  0  1  0  0  0  0  0  0  0  0
   -0.7171    6.6296   -4.3311 C   0  0  0  1  0  0  0  0  0  0  0  0
    0.2110    6.3971   -3.3337 C   0  0  0  1  0  0  0  0  0  0  0  0
   -0.1254    5.6087   -2.2443 C   0  0  0  1  0  0  0  0  0  0  0  0
   -0.8787    2.3619   -1.6355 H   0  0  0  1  0  0  0  0  0  0  0  0
    0.1971    3.3733   -0.7007 H   0  0  0  1  0  0  0  0  0  0  0  0
   -1.7224    4.7938   -0.0947 H   0  0  0  1  0  0  0  0  0  0  0  0
   -2.7406    3.8134   -1.1224 H   0  0  0  1  0  0  0  0  0  0  0  0
   -3.2683    4.8677   -3.0917 H   0  0  0  1  0  0  0  0  0  0  0  0
   -2.6795    6.2419   -4.9973 H   0  0  0  1  0  0  0  0  0  0  0  0
   -0.4662    7.2244   -5.1465 H   0  0  0  1  0  0  0  0  0  0  0  0
    1.1616    6.8136   -3.4006 H   0  0  0  1  0  0  0  0  0  0  0  0
    0.5716    5.4370   -1.4918 H   0  0  0  1  0  0  0  0  0  0  0  0
  1  4  1  0  0  0  0
  2  4  1  0  0  0  0
  2  5  2  0  0  0  0
  2  6  1  0  0  0  0
  3  4  1  0  0  0  0
  3  7  1  0  0  0  0
  3  8  1  0  0  0  0
  4 19  1  0  0  0  0
  6  9  1  0  0  0  0
  6 12  1  0  0  0  0
  8 10  1  0  0  0  0
  8 11  2  0  0  0  0
  9 13  1  0  0  0  0
  9 14  1  0  0  0  0
  9 15  1  0  0  0  0
 10 16  1  0  0  0  0
 10 17  1  0  0  0  0
 10 18  1  0  0  0  0
 19 20  1  0  0  0  0
 19 27  1  0  0  0  0
 19 28  1  0  0  0  0
 20 21  1  0  0  0  0
 20 29  1  0  0  0  0
 20 30  1  0  0  0  0
 21 22  4  0  0  0  0
 21 26  4  0  0  0  0
 22 23  4  0  0  0  0
 22 31  1  0  0  0  0
 23 24  4  0  0  0  0
 23 32  1  0  0  0  0
 24 25  4  0  0  0  0
 24 33  1  0  0  0  0
 25 26  4  0  0  0  0
 25 34  1  0  0  0  0
 26 35  1  0  0  0  0
M  END
> <BCLConfClusterSize>
1

> <ConfClashScore>
0 

> <ConfOneFourInteractionScore>
-0.98512 

> <ConfScore>
0.264771 

> <ConfScorePBest>
0.0043307 

> <ConfTolerance>
0.520431 

> <RosettaParamsInstructions>
M  ROOT 3
M  POLY_N_BB 3
M  POLY_CA_BB 4
M  POLY_C_BB 2
M  POLY_O_BB 5
M  POLY_IGNORE 9 10 11 12 13 14 15 16 17 18 
M  POLY_UPPER 6
M  POLY_LOWER 8
M  POLY_CHG 0
M  POLY_PROPERTIES ALPHA_AA D_AA PROTEIN AROMATIC POLYMER 
M  END

$$$$



 35 35  0  0  0  0  0  0  0  0999 V2000
   -2.2957    6.6721   -0.3472 H   0  0  0  1  0  0  0  0  0  0  0  0
   -2.1435    6.8899    1.7288 C   0  0  0  1  0  0  0  0  0  0  0  0
   -3.9167    5.6909    0.4550 N   0  0  0  1  0  0  0  0  0  0  0  0
   -2.4982    6.0626    0.5086 C   0  0  0  1  0  0  0  0  0  0  0  0
   -1.1479    7.6090    1.7438 O   0  0  0  1  0  0  0  0  0  0  0  0
   -2.9815    6.7806    2.7709 N   0  0  0  1  0  0  0  0  0  0  0  0
   -4.1723    4.7615    0.2779 H   0  0  0  1  0  0  0  0  0  0  0  0
   -4.8698    6.6259    0.6491 C   0  0  0  1  0  0  0  0  0  0  0  0
   -2.7533    7.3571    4.0875 C   0  0  0  1  0  0  0  0  0  0  0  0
   -6.3187    6.2136    0.4757 C   0  0  0  1  0  0  0  0  0  0  0  0
   -4.5752    7.7777    0.9571 O   0  0  0  1  0  0  0  0  0  0  0  0
   -3.8095    6.2743    2.6353 H   0  0  0  1  0  0  0  0  0  0  0  0
   -2.0128    6.7838    4.6050 H   0  0  0  1  0  0  0  0  0  0  0  0
   -3.6667    7.3456    4.6448 H   0  0  0  1  0  0  0  0  0  0  0  0
   -2.4128    8.3658    3.9807 H   0  0  0  1  0  0  0  0  0  0  0  0
   -6.4185    5.1670    0.6747 H   0  0  0  1  0  0  0  0  0  0  0  0
   -6.6294    6.4168   -0.5278 H   0  0  0  1  0  0  0  0  0  0  0  0
   -6.9305    6.7660    1.1578 H   0  0  0  1  0  0  0  0  0  0  0  0
   -1.6628    4.8161    0.3527 C   0  0  0  1  0  0  0  0  0  0  0  0
   -1.7381    4.1427   -1.0113 C   0  0  0  1  0  0  0  0  0  0  0  0
   -1.3926    5.0693   -2.1462 C   0  0  0  1  0  0  0  0  0  0  0  0
   -2.3215    5.2960   -3.1498 C   0  0  0  1  0  0  0  0  0  0  0  0
   -1.9824    6.0699   -4.2436 C   0  0  0  1  0  0  0  0  0  0  0  0
   -0.7149    6.6237   -4.3344 C   0  0  0  1  0  0  0  0  0  0  0  0
    0.2115    6.3977   -3.3339 C   0  0  0  1  0  0  0  0  0  0  0  0
   -0.1288    5.6215   -2.2369 C   0  0  0  1  0  0  0  0  0  0  0  0
   -1.9859    4.1088    1.0877 H   0  0  0  1  0  0  0  0  0  0  0  0
   -0.6416    5.0790    0.5345 H   0  0  0  1  0  0  0  0  0  0  0  0
   -2.7344    3.7812   -1.1581 H   0  0  0  1  0  0  0  0  0  0  0  0
   -1.0542    3.3199   -1.0231 H   0  0  0  1  0  0  0  0  0  0  0  0
   -3.2737    4.8838   -3.0797 H   0  0  0  1  0  0  0  0  0  0  0  0
   -2.6781    6.2366   -4.9985 H   0  0  0  1  0  0  0  0  0  0  0  0
   -0.4610    7.2093   -5.1555 H   0  0  0  1  0  0  0  0  0  0  0  0
    1.1637    6.8099   -3.4040 H   0  0  0  1  0  0  0  0  0  0  0  0
    0.5669    5.4547   -1.4820 H   0  0  0  1  0  0  0  0  0  0  0  0
  1  4  1  0  0  0  0
  2  4  1  0  0  0  0
  2  5  2  0  0  0  0
  2  6  1  0  0  0  0
  3  4  1  0  0  0  0
  3  7  1  0  0  0  0
  3  8  1  0  0  0  0
  4 19  1  0  0  0  0
  6  9  1  0  0  0  0
  6 12  1  0  0  0  0
  8 10  1  0  0  0  0
  8 11  2  0  0  0  0
  9 13  1  0  0  0  0
  9 14  1  0  0  0  0
  9 15  1  0  0  0  0
 10 16  1  0  0  0  0
 10 17  1  0  0  0  0
 10 18  1  0  0  0  0
 19 20  1  0  0  0  0
 19 27  1  0  0  0  0
 19 28  1  0  0  0  0
 20 21  1  0  0  0  0
 20 29  1  0  0  0  0
 20 30  1  0  0  0  0
 21 22  4  0  0  0  0
 21 26  4  0  0  0  0
 22 23  4  0  0  0  0
 22 31  1  0  0  0  0
 23 24  4  0  0  0  0
 23 32  1  0  0  0  0
 24 25  4  0  0  0  0
 24 33  1  0  0  0  0
 25 26  4  0  0  0  0
 25 34  1  0  0  0  0
 26 35  1  0  0  0  0
M  END
> <BCLConfClusterSize>
1

> <ConfClashScore>
0 

> <ConfOneFourInteractionScore>
-0.970454 

> <ConfScore>
0.266012 

> <ConfScorePBest>
0.00430222 

> <ConfTolerance>
0.537183 

> <RosettaParamsInstructions>
M  ROOT 3
M  POLY_N_BB 3
M  POLY_CA_BB 4
M  POLY_C_BB 2
M  POLY_O_BB 5
M  POLY_IGNORE 9 10 11 12 13 14 15 16 17 18 
M  POLY_UPPER 6
M  POLY_LOWER 8
M  POLY_CHG 0
M  POLY_PROPERTIES ALPHA_AA D_AA PROTEIN AROMATIC POLYMER 
M  END

$$$$



 35 35  0  0  0  0  0  0  0  0999 V2000
   -3.3075    3.1498   -2.9312 H   0  0  0  1  0  0  0  0  0  0  0  0
   -4.5887    3.1575   -1.2643 C   0  0  0  1  0  0  0  0  0  0  0  0
   -3.6161    1.1892   -2.3872 N   0  0  0  1  0  0  0  0  0  0  0  0
   -3.4096    2.5844   -2.0285 C   0  0  0  1  0  0  0  0  0  0  0  0
   -4.5441    3.3792   -0.0679 O   0  0  0  1  0  0  0  0  0  0  0  0
   -5.7187    3.4303   -1.9229 N   0  0  0  1  0  0  0  0  0  0  0  0
   -3.0342    0.5077   -1.9904 H   0  0  0  1  0  0  0  0  0  0  0  0
   -4.5759    0.8031   -3.2427 C   0  0  0  1  0  0  0  0  0  0  0  0
   -6.9314    3.8584   -1.2419 C   0  0  0  1  0  0  0  0  0  0  0  0
   -4.6770   -0.6895   -3.4893 C   0  0  0  1  0  0  0  0  0  0  0  0
   -5.3330    1.5939   -3.7994 O   0  0  0  1  0  0  0  0  0  0  0  0
   -5.7313    3.3390   -2.8986 H   0  0  0  1  0  0  0  0  0  0  0  0
   -6.7536    4.7908   -0.7481 H   0  0  0  1  0  0  0  0  0  0  0  0
   -7.2140    3.1209   -0.5200 H   0  0  0  1  0  0  0  0  0  0  0  0
   -7.7184    3.9782   -1.9569 H   0  0  0  1  0  0  0  0  0  0  0  0
   -5.6756   -1.0178   -3.2892 H   0  0  0  1  0  0  0  0  0  0  0  0
   -3.9965   -1.2044   -2.8438 H   0  0  0  1  0  0  0  0  0  0  0  0
   -4.4304   -0.8998   -4.5090 H   0  0  0  1  0  0  0  0  0  0  0  0
   -2.1169    2.7406   -1.2510 C   0  0  0  1  0  0  0  0  0  0  0  0
   -1.7496    4.1900   -0.9776 C   0  0  0  1  0  0  0  0  0  0  0  0
   -1.3870    5.0508   -2.1581 C   0  0  0  1  0  0  0  0  0  0  0  0
   -2.3176    5.2842   -3.1585 C   0  0  0  1  0  0  0  0  0  0  0  0
   -1.9825    6.0702   -4.2447 C   0  0  0  1  0  0  0  0  0  0  0  0
   -0.7171    6.6296   -4.3311 C   0  0  0  1  0  0  0  0  0  0  0  0
    0.2110    6.3971   -3.3337 C   0  0  0  1  0  0  0  0  0  0  0  0
   -0.1254    5.6087   -2.2443 C   0  0  0  1  0  0  0  0  0  0  0  0
   -1.3260    2.2905   -1.8138 H   0  0  0  1  0  0  0  0  0  0  0  0
   -2.2214    2.2346   -0.3140 H   0  0  0  1  0  0  0  0  0  0  0  0
   -0.9109    4.1879   -0.3132 H   0  0  0  1  0  0  0  0  0  0  0  0
   -2.5875    4.6468   -0.4936 H   0  0  0  1  0  0  0  0  0  0  0  0
   -3.2683    4.8677   -3.0917 H   0  0  0  1  0  0  0  0  0  0  0  0
   -2.6795    6.2419   -4.9973 H   0  0  0  1  0  0  0  0  0  0  0  0
   -0.4662    7.2244   -5.1465 H   0  0  0  1  0  0  0  0  0  0  0  0
    1.1616    6.8136   -3.4006 H   0  0  0  1  0  0  0  0  0  0  0  0
    0.5716    5.4370   -1.4918 H   0  0  0  1  0  0  0  0  0  0  0  0
  1  4  1  0  0  0  0
  2  4  1  0  0  0  0
  2  5  2  0  0  0  0
  2  6  1  0  0  0  0
  3  4  1  0  0  0  0
  3  7  1  0  0  0  0
  3  8  1  0  0  0  0
  4 19  1  0  0  0  0
  6  9  1  0  0  0  0
  6 12  1  0  0  0  0
  8 10  1  0  0  0  0
  8 11  2  0  0  0  0
  9 13  1  0  0  0  0
  9 14  1  0  0  0  0
  9 15  1  0  0  0  0
 10 16  1  0  0  0  0
 10 17  1  0  0  0  0
 10 18  1  0  0  0  0
 19 20  1  0  0  0  0
 19 27  1  0  0  0  0
 19 28  1  0  0  0  0
 20 21  1  0  0  0  0
 20 29  1  0  0  0  0
 20 30  1  0  0  0  0
 21 22  4  0  0  0  0
 21 26  4  0  0  0  0
 22 23  4  0  0  0  0
 22 31  1  0  0  0  0
 23 24  4  0  0  0  0
 23 32  1  0  0  0  0
 24 25  4  0  0  0  0
 24 33  1  0  0  0  0
 25 26  4  0  0  0  0
 25 34  1  0  0  0  0
 26 35  1  0  0  0  0
M  END
> <BCLConfClusterSize>
1

> <ConfClashScore>
0 

> <ConfOneFourInteractionScore>
-0.98595 

> <ConfScore>
0.267176 

> <ConfScorePBest>
0.00427374 

> <ConfTolerance>
0.620943 

> <RosettaParamsInstructions>
M  ROOT 3
M  POLY_N_BB 3
M  POLY_CA_BB 4
M  POLY_C_BB 2
M  POLY_O_BB 5
M  POLY_IGNORE 9 10 11 12 13 14 15 16 17 18 
M  POLY_UPPER 6
M  POLY_LOWER 8
M  POLY_CHG 0
M  POLY_PROPERTIES ALPHA_AA D_AA PROTEIN AROMATIC POLYMER 
M  END

$$$$



 35 35  0  0  0  0  0  0  0  0999 V2000
   -3.6511    6.2732   -1.0621 H   0  0  0  1  0  0  0  0  0  0  0  0
   -4.5854    6.1540    0.8176 C   0  0  0  1  0  0  0  0  0  0  0  0
   -4.6506    4.4751   -0.9882 N   0  0  0  1  0  0  0  0  0  0  0  0
   -3.8517    5.5071   -0.3426 C   0  0  0  1  0  0  0  0  0  0  0  0
   -5.3186    5.4760    1.5324 O   0  0  0  1  0  0  0  0  0  0  0  0
   -4.3195    7.4482    1.0552 N   0  0  0  1  0  0  0  0  0  0  0  0
   -4.6028    3.5575   -0.6473 H   0  0  0  1  0  0  0  0  0  0  0  0
   -5.4448    4.7350   -2.0272 C   0  0  0  1  0  0  0  0  0  0  0  0
   -4.9765    8.3236    2.0145 C   0  0  0  1  0  0  0  0  0  0  0  0
   -6.3310    3.5914   -2.4812 C   0  0  0  1  0  0  0  0  0  0  0  0
   -5.4707    5.8248   -2.5930 O   0  0  0  1  0  0  0  0  0  0  0  0
   -3.6015    7.8491    0.5222 H   0  0  0  1  0  0  0  0  0  0  0  0
   -4.3061    9.1069    2.3006 H   0  0  0  1  0  0  0  0  0  0  0  0
   -5.2549    7.7590    2.8797 H   0  0  0  1  0  0  0  0  0  0  0  0
   -5.8513    8.7484    1.5684 H   0  0  0  1  0  0  0  0  0  0  0  0
   -5.7218    2.7879   -2.8392 H   0  0  0  1  0  0  0  0  0  0  0  0
   -6.9737    3.9290   -3.2672 H   0  0  0  1  0  0  0  0  0  0  0  0
   -6.9227    3.2504   -1.6575 H   0  0  0  1  0  0  0  0  0  0  0  0
   -2.5222    4.9423    0.0925 C   0  0  0  1  0  0  0  0  0  0  0  0
   -1.7496    4.1900   -0.9776 C   0  0  0  1  0  0  0  0  0  0  0  0
   -1.3870    5.0508   -2.1581 C   0  0  0  1  0  0  0  0  0  0  0  0
   -2.3176    5.2842   -3.1585 C   0  0  0  1  0  0  0  0  0  0  0  0
   -1.9825    6.0702   -4.2447 C   0  0  0  1  0  0  0  0  0  0  0  0
   -0.7171    6.6296   -4.3311 C   0  0  0  1  0  0  0  0  0  0  0  0
    0.2110    6.3971   -3.3337 C   0  0  0  1  0  0  0  0  0  0  0  0
   -0.1254    5.6087   -2.2443 C   0  0  0  1  0  0  0  0  0  0  0  0
   -2.7001    4.2692    0.9050 H   0  0  0  1  0  0  0  0  0  0  0  0
   -1.9130    5.7551    0.4288 H   0  0  0  1  0  0  0  0  0  0  0  0
   -2.3511    3.3750   -1.3224 H   0  0  0  1  0  0  0  0  0  0  0  0
   -0.8484    3.8102   -0.5434 H   0  0  0  1  0  0  0  0  0  0  0  0
   -3.2683    4.8677   -3.0917 H   0  0  0  1  0  0  0  0  0  0  0  0
   -2.6795    6.2419   -4.9973 H   0  0  0  1  0  0  0  0  0  0  0  0
   -0.4662    7.2244   -5.1465 H   0  0  0  1  0  0  0  0  0  0  0  0
    1.1616    6.8136   -3.4006 H   0  0  0  1  0  0  0  0  0  0  0  0
    0.5716    5.4370   -1.4918 H   0  0  0  1  0  0  0  0  0  0  0  0
  1  4  1  0  0  0  0
  2  4  1  0  0  0  0
  2  5  2  0  0  0  0
  2  6  1  0  0  0  0
  3  4  1  0  0  0  0
  3  7  1  0  0  0  0
  3  8  1  0  0  0  0
  4 19  1  0  0  0  0
  6  9  1  0  0  0  0
  6 12  1  0  0  0  0
  8 10  1  0  0  0  0
  8 11  2  0  0  0  0
  9 13  1  0  0  0  0
  9 14  1  0  0  0  0
  9 15  1  0  0  0  0
 10 16  1  0  0  0  0
 10 17  1  0  0  0  0
 10 18  1  0  0  0  0
 19 20  1  0  0  0  0
 19 27  1  0  0  0  0
 19 28  1  0  0  0  0
 20 21  1  0  0  0  0
 20 29  1  0  0  0  0
 20 30  1  0  0  0  0
 21 22  4  0  0  0  0
 21 26  4  0  0  0  0
 22 23  4  0  0  0  0
 22 31  1  0  0  0  0
 23 24  4  0  0  0  0
 23 32  1  0  0  0  0
 24 25  4  0  0  0  0
 24 33  1  0  0  0  0
 25 26  4  0  0  0  0
 25 34  1  0  0  0  0
 26 35  1  0  0  0  0
M  END
> <BCLConfClusterSize>
1

> <ConfClashScore>
0 

> <ConfOneFourInteractionScore>
-0.991445 

> <ConfScore>
0.267387 

> <ConfScorePBest>
0.00424526 

> <ConfTolerance>
0.538881 

> <RosettaParamsInstructions>
M  ROOT 3
M  POLY_N_BB 3
M  POLY_CA_BB 4
M  POLY_C_BB 2
M  POLY_O_BB 5
M  POLY_IGNORE 9 10 11 12 13 14 15 16 17 18 
M  POLY_UPPER 6
M  POLY_LOWER 8
M  POLY_CHG 0
M  POLY_PROPERTIES ALPHA_AA D_AA PROTEIN AROMATIC POLYMER 
M  END

$$$$



 35 35  0  0  0  0  0  0  0  0999 V2000
   -2.4620    3.4297    1.5998 H   0  0  0  1  0  0  0  0  0  0  0  0
   -4.0692    2.8176    0.3839 C   0  0  0  1  0  0  0  0  0  0  0  0
   -4.0623    4.6756    2.0155 N   0  0  0  1  0  0  0  0  0  0  0  0
   -3.2579    3.9033    1.0639 C   0  0  0  1  0  0  0  0  0  0  0  0
   -4.3525    1.7743    0.9665 O   0  0  0  1  0  0  0  0  0  0  0  0
   -4.4475    3.0762   -0.8779 N   0  0  0  1  0  0  0  0  0  0  0  0
   -3.6939    4.8619    2.9043 H   0  0  0  1  0  0  0  0  0  0  0  0
   -5.2802    5.1342    1.7133 C   0  0  0  1  0  0  0  0  0  0  0  0
   -5.0888    2.0755   -1.7178 C   0  0  0  1  0  0  0  0  0  0  0  0
   -6.0097    5.8530    2.8316 C   0  0  0  1  0  0  0  0  0  0  0  0
   -5.7926    4.9922    0.6062 O   0  0  0  1  0  0  0  0  0  0  0  0
   -4.2863    3.9699   -1.2463 H   0  0  0  1  0  0  0  0  0  0  0  0
   -4.7323    2.1706   -2.7222 H   0  0  0  1  0  0  0  0  0  0  0  0
   -6.1486    2.2217   -1.7003 H   0  0  0  1  0  0  0  0  0  0  0  0
   -4.8568    1.0985   -1.3483 H   0  0  0  1  0  0  0  0  0  0  0  0
   -5.3466    5.9905    3.6600 H   0  0  0  1  0  0  0  0  0  0  0  0
   -6.8510    5.2689    3.1415 H   0  0  0  1  0  0  0  0  0  0  0  0
   -6.3462    6.8067    2.4823 H   0  0  0  1  0  0  0  0  0  0  0  0
   -2.6333    4.8677    0.0740 C   0  0  0  1  0  0  0  0  0  0  0  0
   -1.7914    4.1797   -0.9882 C   0  0  0  1  0  0  0  0  0  0  0  0
   -1.3782    5.0525   -2.1551 C   0  0  0  1  0  0  0  0  0  0  0  0
   -2.3120    5.2832   -3.1532 C   0  0  0  1  0  0  0  0  0  0  0  0
   -1.9811    6.0686   -4.2412 C   0  0  0  1  0  0  0  0  0  0  0  0
   -0.7169    6.6300   -4.3316 C   0  0  0  1  0  0  0  0  0  0  0  0
    0.2143    6.4001   -3.3365 C   0  0  0  1  0  0  0  0  0  0  0  0
   -0.1178    5.6124   -2.2453 C   0  0  0  1  0  0  0  0  0  0  0  0
   -2.0089    5.5496    0.6126 H   0  0  0  1  0  0  0  0  0  0  0  0
   -3.4172    5.4094   -0.4127 H   0  0  0  1  0  0  0  0  0  0  0  0
   -2.3558    3.3570   -1.3750 H   0  0  0  1  0  0  0  0  0  0  0  0
   -0.9023    3.8136   -0.5188 H   0  0  0  1  0  0  0  0  0  0  0  0
   -3.2618    4.8652   -3.0833 H   0  0  0  1  0  0  0  0  0  0  0  0
   -2.6804    6.2384   -4.9920 H   0  0  0  1  0  0  0  0  0  0  0  0
   -0.4692    7.2243   -5.1483 H   0  0  0  1  0  0  0  0  0  0  0  0
    1.1641    6.8181   -3.4064 H   0  0  0  1  0  0  0  0  0  0  0  0
    0.5816    5.4426   -1.4945 H   0  0  0  1  0  0  0  0  0  0  0  0
  1  4  1  0  0  0  0
  2  4  1  0  0  0  0
  2  5  2  0  0  0  0
  2  6  1  0  0  0  0
  3  4  1  0  0  0  0
  3  7  1  0  0  0  0
  3  8  1  0  0  0  0
  4 19  1  0  0  0  0
  6  9  1  0  0  0  0
  6 12  1  0  0  0  0
  8 10  1  0  0  0  0
  8 11  2  0  0  0  0
  9 13  1  0  0  0  0
  9 14  1  0  0  0  0
  9 15  1  0  0  0  0
 10 16  1  0  0  0  0
 10 17  1  0  0  0  0
 10 18  1  0  0  0  0
 19 20  1  0  0  0  0
 19 27  1  0  0  0  0
 19 28  1  0  0  0  0
 20 21  1  0  0  0  0
 20 29  1  0  0  0  0
 20 30  1  0  0  0  0
 21 22  4  0  0  0  0
 21 26  4  0  0  0  0
 22 23  4  0  0  0  0
 22 31  1  0  0  0  0
 23 24  4  0  0  0  0
 23 32  1  0  0  0  0
 24 25  4  0  0  0  0
 24 33  1  0  0  0  0
 25 26  4  0  0  0  0
 25 34  1  0  0  0  0
 26 35  1  0  0  0  0
M  END
> <BCLConfClusterSize>
1

> <ConfClashScore>
0 

> <ConfOneFourInteractionScore>
-0.943527 

> <ConfScore>
0.273725 

> <ConfScorePBest>
0.00421678 

> <ConfTolerance>
0.662303 

> <RosettaParamsInstructions>
M  ROOT 3
M  POLY_N_BB 3
M  POLY_CA_BB 4
M  POLY_C_BB 2
M  POLY_O_BB 5
M  POLY_IGNORE 9 10 11 12 13 14 15 16 17 18 
M  POLY_UPPER 6
M  POLY_LOWER 8
M  POLY_CHG 0
M  POLY_PROPERTIES ALPHA_AA D_AA PROTEIN AROMATIC POLYMER 
M  END

$$$$



 35 35  0  0  0  0  0  0  0  0999 V2000
   -1.6316    2.6396   -3.3547 H   0  0  0  1  0  0  0  0  0  0  0  0
   -1.9397    0.6927   -2.6234 C   0  0  0  1  0  0  0  0  0  0  0  0
   -0.0672    2.2061   -2.0897 N   0  0  0  1  0  0  0  0  0  0  0  0
   -1.4803    2.1258   -2.4284 C   0  0  0  1  0  0  0  0  0  0  0  0
   -3.0008    0.4477   -3.1957 O   0  0  0  1  0  0  0  0  0  0  0  0
   -1.0662   -0.2383   -2.2082 N   0  0  0  1  0  0  0  0  0  0  0  0
    0.1923    2.2262   -1.1449 H   0  0  0  1  0  0  0  0  0  0  0  0
    0.8926    2.2535   -3.0260 C   0  0  0  1  0  0  0  0  0  0  0  0
   -1.2554   -1.6593   -2.4774 C   0  0  0  1  0  0  0  0  0  0  0  0
    2.3158    2.3234   -2.5075 C   0  0  0  1  0  0  0  0  0  0  0  0
    0.6530    2.2420   -4.2305 O   0  0  0  1  0  0  0  0  0  0  0  0
   -0.2738    0.0467   -1.7069 H   0  0  0  1  0  0  0  0  0  0  0  0
   -2.2707   -1.8362   -2.7650 H   0  0  0  1  0  0  0  0  0  0  0  0
   -1.0317   -2.2220   -1.5952 H   0  0  0  1  0  0  0  0  0  0  0  0
   -0.6027   -1.9620   -3.2693 H   0  0  0  1  0  0  0  0  0  0  0  0
    2.3724    1.8420   -1.5535 H   0  0  0  1  0  0  0  0  0  0  0  0
    2.6089    3.3476   -2.4078 H   0  0  0  1  0  0  0  0  0  0  0  0
    2.9703    1.8298   -3.1951 H   0  0  0  1  0  0  0  0  0  0  0  0
   -2.3128    2.8363   -1.3785 C   0  0  0  1  0  0  0  0  0  0  0  0
   -1.7496    4.1900   -0.9776 C   0  0  0  1  0  0  0  0  0  0  0  0
   -1.3870    5.0508   -2.1581 C   0  0  0  1  0  0  0  0  0  0  0  0
   -2.3176    5.2842   -3.1585 C   0  0  0  1  0  0  0  0  0  0  0  0
   -1.9825    6.0702   -4.2447 C   0  0  0  1  0  0  0  0  0  0  0  0
   -0.7171    6.6296   -4.3311 C   0  0  0  1  0  0  0  0  0  0  0  0
    0.2110    6.3971   -3.3337 C   0  0  0  1  0  0  0  0  0  0  0  0
   -0.1254    5.6087   -2.2443 C   0  0  0  1  0  0  0  0  0  0  0  0
   -2.3603    2.2171   -0.5071 H   0  0  0  1  0  0  0  0  0  0  0  0
   -3.2988    2.9809   -1.7681 H   0  0  0  1  0  0  0  0  0  0  0  0
   -0.8705    4.0322   -0.3883 H   0  0  0  1  0  0  0  0  0  0  0  0
   -2.4836    4.7047   -0.3934 H   0  0  0  1  0  0  0  0  0  0  0  0
   -3.2683    4.8677   -3.0917 H   0  0  0  1  0  0  0  0  0  0  0  0
   -2.6795    6.2419   -4.9973 H   0  0  0  1  0  0  0  0  0  0  0  0
   -0.4662    7.2244   -5.1465 H   0  0  0  1  0  0  0  0  0  0  0  0
    1.1616    6.8136   -3.4006 H   0  0  0  1  0  0  0  0  0  0  0  0
    0.5716    5.4370   -1.4918 H   0  0  0  1  0  0  0  0  0  0  0  0
  1  4  1  0  0  0  0
  2  4  1  0  0  0  0
  2  5  2  0  0  0  0
  2  6  1  0  0  0  0
  3  4  1  0  0  0  0
  3  7  1  0  0  0  0
  3  8  1  0  0  0  0
  4 19  1  0  0  0  0
  6  9  1  0  0  0  0
  6 12  1  0  0  0  0
  8 10  1  0  0  0  0
  8 11  2  0  0  0  0
  9 13  1  0  0  0  0
  9 14  1  0  0  0  0
  9 15  1  0  0  0  0
 10 16  1  0  0  0  0
 10 17  1  0  0  0  0
 10 18  1  0  0  0  0
 19 20  1  0  0  0  0
 19 27  1  0  0  0  0
 19 28  1  0  0  0  0
 20 21  1  0  0  0  0
 20 29  1  0  0  0  0
 20 30  1  0  0  0  0
 21 22  4  0  0  0  0
 21 26  4  0  0  0  0
 22 23  4  0  0  0  0
 22 31  1  0  0  0  0
 23 24  4  0  0  0  0
 23 32  1  0  0  0  0
 24 25  4  0  0  0  0
 24 33  1  0  0  0  0
 25 26  4  0  0  0  0
 25 34  1  0  0  0  0
 26 35  1  0  0  0  0
M  END
> <BCLConfClusterSize>
1

> <ConfClashScore>
0 

> <ConfOneFourInteractionScore>
-0.933362 

> <ConfScore>
0.274667 

> <ConfScorePBest>
0.0041883 

> <ConfTolerance>
0.52761 

> <RosettaParamsInstructions>
M  ROOT 3
M  POLY_N_BB 3
M  POLY_CA_BB 4
M  POLY_C_BB 2
M  POLY_O_BB 5
M  POLY_IGNORE 9 10 11 12 13 14 15 16 17 18 
M  POLY_UPPER 6
M  POLY_LOWER 8
M  POLY_CHG 0
M  POLY_PROPERTIES ALPHA_AA D_AA PROTEIN AROMATIC POLYMER 
M  END

$$$$



 35 35  0  0  0  0  0  0  0  0999 V2000
   -1.7400    2.6555   -3.3722 H   0  0  0  1  0  0  0  0  0  0  0  0
   -2.1887    0.7206   -2.6823 C   0  0  0  1  0  0  0  0  0  0  0  0
   -0.1818    2.0609   -2.1621 N   0  0  0  1  0  0  0  0  0  0  0  0
   -1.6082    2.1055   -2.4638 C   0  0  0  1  0  0  0  0  0  0  0  0
   -1.5299   -0.1982   -3.1341 O   0  0  0  1  0  0  0  0  0  0  0  0
   -3.4655    0.4965   -2.3701 N   0  0  0  1  0  0  0  0  0  0  0  0
    0.0994    2.3268   -1.2618 H   0  0  0  1  0  0  0  0  0  0  0  0
    0.7782    1.6815   -3.0279 C   0  0  0  1  0  0  0  0  0  0  0  0
   -4.1020   -0.8111   -2.4212 C   0  0  0  1  0  0  0  0  0  0  0  0
    2.1929    1.9359   -2.5234 C   0  0  0  1  0  0  0  0  0  0  0  0
    0.5676    1.1749   -4.1291 O   0  0  0  1  0  0  0  0  0  0  0  0
   -4.0099    1.2611   -2.0883 H   0  0  0  1  0  0  0  0  0  0  0  0
   -5.0068   -0.7460   -2.9886 H   0  0  0  1  0  0  0  0  0  0  0  0
   -4.3274   -1.1369   -1.4272 H   0  0  0  1  0  0  0  0  0  0  0  0
   -3.4399   -1.5120   -2.8852 H   0  0  0  1  0  0  0  0  0  0  0  0
    2.8582    1.2120   -2.9457 H   0  0  0  1  0  0  0  0  0  0  0  0
    2.2104    1.8565   -1.4565 H   0  0  0  1  0  0  0  0  0  0  0  0
    2.5037    2.9177   -2.8138 H   0  0  0  1  0  0  0  0  0  0  0  0
   -2.3482    2.8483   -1.3791 C   0  0  0  1  0  0  0  0  0  0  0  0
   -1.7496    4.1900   -0.9776 C   0  0  0  1  0  0  0  0  0  0  0  0
   -1.3870    5.0508   -2.1581 C   0  0  0  1  0  0  0  0  0  0  0  0
   -2.3176    5.2842   -3.1585 C   0  0  0  1  0  0  0  0  0  0  0  0
   -1.9825    6.0702   -4.2447 C   0  0  0  1  0  0  0  0  0  0  0  0
   -0.7171    6.6296   -4.3311 C   0  0  0  1  0  0  0  0  0  0  0  0
    0.2110    6.3971   -3.3337 C   0  0  0  1  0  0  0  0  0  0  0  0
   -0.1254    5.6087   -2.2443 C   0  0  0  1  0  0  0  0  0  0  0  0
   -2.3719    2.2247   -0.5099 H   0  0  0  1  0  0  0  0  0  0  0  0
   -3.3470    3.0222   -1.7212 H   0  0  0  1  0  0  0  0  0  0  0  0
   -0.8652    4.0100   -0.4028 H   0  0  0  1  0  0  0  0  0  0  0  0
   -2.4637    4.7161   -0.3791 H   0  0  0  1  0  0  0  0  0  0  0  0
   -3.2683    4.8677   -3.0917 H   0  0  0  1  0  0  0  0  0  0  0  0
   -2.6795    6.2419   -4.9973 H   0  0  0  1  0  0  0  0  0  0  0  0
   -0.4662    7.2244   -5.1465 H   0  0  0  1  0  0  0  0  0  0  0  0
    1.1616    6.8136   -3.4006 H   0  0  0  1  0  0  0  0  0  0  0  0
    0.5716    5.4370   -1.4918 H   0  0  0  1  0  0  0  0  0  0  0  0
  1  4  1  0  0  0  0
  2  4  1  0  0  0  0
  2  5  2  0  0  0  0
  2  6  1  0  0  0  0
  3  4  1  0  0  0  0
  3  7  1  0  0  0  0
  3  8  1  0  0  0  0
  4 19  1  0  0  0  0
  6  9  1  0  0  0  0
  6 12  1  0  0  0  0
  8 10  1  0  0  0  0
  8 11  2  0  0  0  0
  9 13  1  0  0  0  0
  9 14  1  0  0  0  0
  9 15  1  0  0  0  0
 10 16  1  0  0  0  0
 10 17  1  0  0  0  0
 10 18  1  0  0  0  0
 19 20  1  0  0  0  0
 19 27  1  0  0  0  0
 19 28  1  0  0  0  0
 20 21  1  0  0  0  0
 20 29  1  0  0  0  0
 20 30  1  0  0  0  0
 21 22  4  0  0  0  0
 21 26  4  0  0  0  0
 22 23  4  0  0  0  0
 22 31  1  0  0  0  0
 23 24  4  0  0  0  0
 23 32  1  0  0  0  0
 24 25  4  0  0  0  0
 24 33  1  0  0  0  0
 25 26  4  0  0  0  0
 25 34  1  0  0  0  0
 26 35  1  0  0  0  0
M  END
> <BCLConfClusterSize>
1

> <ConfClashScore>
0 

> <ConfOneFourInteractionScore>
-0.969249 

> <ConfScore>
0.279361 

> <ConfScorePBest>
0.00415982 

> <ConfTolerance>
0.723263 

> <RosettaParamsInstructions>
M  ROOT 3
M  POLY_N_BB 3
M  POLY_CA_BB 4
M  POLY_C_BB 2
M  POLY_O_BB 5
M  POLY_IGNORE 9 10 11 12 13 14 15 16 17 18 
M  POLY_UPPER 6
M  POLY_LOWER 8
M  POLY_CHG 0
M  POLY_PROPERTIES ALPHA_AA D_AA PROTEIN AROMATIC POLYMER 
M  END

$$$$



 35 35  0  0  0  0  0  0  0  0999 V2000
   -2.6931    1.8557    0.1917 H   0  0  0  1  0  0  0  0  0  0  0  0
   -1.1641    2.5517    1.4732 C   0  0  0  1  0  0  0  0  0  0  0  0
   -1.0829    0.5856   -0.0579 N   0  0  0  1  0  0  0  0  0  0  0  0
   -1.6251    1.9178    0.1685 C   0  0  0  1  0  0  0  0  0  0  0  0
    0.0014    2.8497    1.6611 O   0  0  0  1  0  0  0  0  0  0  0  0
   -2.1526    2.7381    2.3611 N   0  0  0  1  0  0  0  0  0  0  0  0
   -0.1092    0.4984   -0.1266 H   0  0  0  1  0  0  0  0  0  0  0  0
   -1.8127   -0.5269   -0.1791 C   0  0  0  1  0  0  0  0  0  0  0  0
   -1.9191    3.3232    3.6730 C   0  0  0  1  0  0  0  0  0  0  0  0
   -1.0362   -1.7953   -0.4745 C   0  0  0  1  0  0  0  0  0  0  0  0
   -3.0352   -0.5407   -0.0619 O   0  0  0  1  0  0  0  0  0  0  0  0
   -3.0635    2.4710    2.1177 H   0  0  0  1  0  0  0  0  0  0  0  0
   -2.0644    4.3821    3.6228 H   0  0  0  1  0  0  0  0  0  0  0  0
   -0.9162    3.1153    3.9825 H   0  0  0  1  0  0  0  0  0  0  0  0
   -2.6051    2.9023    4.3781 H   0  0  0  1  0  0  0  0  0  0  0  0
   -0.8419   -2.3163    0.4397 H   0  0  0  1  0  0  0  0  0  0  0  0
   -0.1089   -1.5439   -0.9455 H   0  0  0  1  0  0  0  0  0  0  0  0
   -1.6098   -2.4207   -1.1262 H   0  0  0  1  0  0  0  0  0  0  0  0
   -1.2393    2.7488   -1.0400 C   0  0  0  1  0  0  0  0  0  0  0  0
   -1.7087    4.1919   -0.9537 C   0  0  0  1  0  0  0  0  0  0  0  0
   -1.3960    5.0499   -2.1624 C   0  0  0  1  0  0  0  0  0  0  0  0
   -2.3233    5.2860   -3.1653 C   0  0  0  1  0  0  0  0  0  0  0  0
   -1.9836    6.0727   -4.2497 C   0  0  0  1  0  0  0  0  0  0  0  0
   -0.7170    6.6300   -4.3317 C   0  0  0  1  0  0  0  0  0  0  0  0
    0.2078    6.3947   -3.3319 C   0  0  0  1  0  0  0  0  0  0  0  0
   -0.1331    5.6056   -2.2443 C   0  0  0  1  0  0  0  0  0  0  0  0
   -1.6726    2.3027   -1.9108 H   0  0  0  1  0  0  0  0  0  0  0  0
   -0.1731    2.7436   -1.1290 H   0  0  0  1  0  0  0  0  0  0  0  0
   -1.2425    4.6402   -0.1013 H   0  0  0  1  0  0  0  0  0  0  0  0
   -2.7701    4.1863   -0.8186 H   0  0  0  1  0  0  0  0  0  0  0  0
   -3.2749    4.8712   -3.1018 H   0  0  0  1  0  0  0  0  0  0  0  0
   -2.6781    6.2466   -5.0040 H   0  0  0  1  0  0  0  0  0  0  0  0
   -0.4626    7.2253   -5.1456 H   0  0  0  1  0  0  0  0  0  0  0  0
    1.1593    6.8096   -3.3954 H   0  0  0  1  0  0  0  0  0  0  0  0
    0.5614    5.4318   -1.4900 H   0  0  0  1  0  0  0  0  0  0  0  0
  1  4  1  0  0  0  0
  2  4  1  0  0  0  0
  2  5  2  0  0  0  0
  2  6  1  0  0  0  0
  3  4  1  0  0  0  0
  3  7  1  0  0  0  0
  3  8  1  0  0  0  0
  4 19  1  0  0  0  0
  6  9  1  0  0  0  0
  6 12  1  0  0  0  0
  8 10  1  0  0  0  0
  8 11  2  0  0  0  0
  9 13  1  0  0  0  0
  9 14  1  0  0  0  0
  9 15  1  0  0  0  0
 10 16  1  0  0  0  0
 10 17  1  0  0  0  0
 10 18  1  0  0  0  0
 19 20  1  0  0  0  0
 19 27  1  0  0  0  0
 19 28  1  0  0  0  0
 20 21  1  0  0  0  0
 20 29  1  0  0  0  0
 20 30  1  0  0  0  0
 21 22  4  0  0  0  0
 21 26  4  0  0  0  0
 22 23  4  0  0  0  0
 22 31  1  0  0  0  0
 23 24  4  0  0  0  0
 23 32  1  0  0  0  0
 24 25  4  0  0  0  0
 24 33  1  0  0  0  0
 25 26  4  0  0  0  0
 25 34  1  0  0  0  0
 26 35  1  0  0  0  0
M  END
> <BCLConfClusterSize>
1

> <ConfClashScore>
0 

> <ConfOneFourInteractionScore>
-0.98595 

> <ConfScore>
0.281427 

> <ConfScorePBest>
0.00413134 

> <ConfTolerance>
0.670643 

> <RosettaParamsInstructions>
M  ROOT 3
M  POLY_N_BB 3
M  POLY_CA_BB 4
M  POLY_C_BB 2
M  POLY_O_BB 5
M  POLY_IGNORE 9 10 11 12 13 14 15 16 17 18 
M  POLY_UPPER 6
M  POLY_LOWER 8
M  POLY_CHG 0
M  POLY_PROPERTIES ALPHA_AA D_AA PROTEIN AROMATIC POLYMER 
M  END

$$$$



 35 35  0  0  0  0  0  0  0  0999 V2000
   -0.7462    1.0485   -1.9269 H   0  0  0  1  0  0  0  0  0  0  0  0
   -0.9711    2.4883   -3.4466 C   0  0  0  1  0  0  0  0  0  0  0  0
   -2.7466    1.5589   -2.0551 N   0  0  0  1  0  0  0  0  0  0  0  0
   -1.3261    1.9356   -2.0744 C   0  0  0  1  0  0  0  0  0  0  0  0
    0.2031    2.6306   -3.7852 O   0  0  0  1  0  0  0  0  0  0  0  0
   -1.9713    2.8136   -4.2706 N   0  0  0  1  0  0  0  0  0  0  0  0
   -3.3951    2.2495   -1.8043 H   0  0  0  1  0  0  0  0  0  0  0  0
   -3.2204    0.3459   -2.3537 C   0  0  0  1  0  0  0  0  0  0  0  0
   -1.7399    3.4287   -5.5691 C   0  0  0  1  0  0  0  0  0  0  0  0
   -4.6954    0.0776   -2.1268 C   0  0  0  1  0  0  0  0  0  0  0  0
   -2.5309   -0.5689   -2.8026 O   0  0  0  1  0  0  0  0  0  0  0  0
   -2.8927    2.6317   -3.9909 H   0  0  0  1  0  0  0  0  0  0  0  0
   -0.8897    4.0758   -5.5114 H   0  0  0  1  0  0  0  0  0  0  0  0
   -2.6012    3.9964   -5.8531 H   0  0  0  1  0  0  0  0  0  0  0  0
   -1.5586    2.6662   -6.2975 H   0  0  0  1  0  0  0  0  0  0  0  0
   -4.9367   -0.9063   -2.4714 H   0  0  0  1  0  0  0  0  0  0  0  0
   -5.2756    0.7965   -2.6665 H   0  0  0  1  0  0  0  0  0  0  0  0
   -4.9149    0.1531   -1.0822 H   0  0  0  1  0  0  0  0  0  0  0  0
   -1.0169    2.8772   -0.9264 C   0  0  0  1  0  0  0  0  0  0  0  0
   -1.7891    4.1846   -0.9948 C   0  0  0  1  0  0  0  0  0  0  0  0
   -1.3784    5.0520   -2.1545 C   0  0  0  1  0  0  0  0  0  0  0  0
   -2.3122    5.2828   -3.1526 C   0  0  0  1  0  0  0  0  0  0  0  0
   -1.9813    6.0682   -4.2406 C   0  0  0  1  0  0  0  0  0  0  0  0
   -0.7171    6.6296   -4.3310 C   0  0  0  1  0  0  0  0  0  0  0  0
    0.2141    6.3997   -3.3359 C   0  0  0  1  0  0  0  0  0  0  0  0
   -0.1180    5.6119   -2.2447 C   0  0  0  1  0  0  0  0  0  0  0  0
    0.0295    3.1000   -0.9428 H   0  0  0  1  0  0  0  0  0  0  0  0
   -1.2630    2.3854   -0.0085 H   0  0  0  1  0  0  0  0  0  0  0  0
   -1.6216    4.7269   -0.0877 H   0  0  0  1  0  0  0  0  0  0  0  0
   -2.8310    3.9602   -1.0895 H   0  0  0  1  0  0  0  0  0  0  0  0
   -3.2620    4.8648   -3.0828 H   0  0  0  1  0  0  0  0  0  0  0  0
   -2.6806    6.2379   -4.9914 H   0  0  0  1  0  0  0  0  0  0  0  0
   -0.4693    7.2239   -5.1477 H   0  0  0  1  0  0  0  0  0  0  0  0
    1.1639    6.8177   -3.4058 H   0  0  0  1  0  0  0  0  0  0  0  0
    0.5813    5.4421   -1.4939 H   0  0  0  1  0  0  0  0  0  0  0  0
  1  4  1  0  0  0  0
  2  4  1  0  0  0  0
  2  5  2  0  0  0  0
  2  6  1  0  0  0  0
  3  4  1  0  0  0  0
  3  7  1  0  0  0  0
  3  8  1  0  0  0  0
  4 19  1  0  0  0  0
  6  9  1  0  0  0  0
  6 12  1  0  0  0  0
  8 10  1  0  0  0  0
  8 11  2  0  0  0  0
  9 13  1  0  0  0  0
  9 14  1  0  0  0  0
  9 15  1  0  0  0  0
 10 16  1  0  0  0  0
 10 17  1  0  0  0  0
 10 18  1  0  0  0  0
 19 20  1  0  0  0  0
 19 27  1  0  0  0  0
 19 28  1  0  0  0  0
 20 21  1  0  0  0  0
 20 29  1  0  0  0  0
 20 30  1  0  0  0  0
 21 22  4  0  0  0  0
 21 26  4  0  0  0  0
 22 23  4  0  0  0  0
 22 31  1  0  0  0  0
 23 24  4  0  0  0  0
 23 32  1  0  0  0  0
 24 25  4  0  0  0  0
 24 33  1  0  0  0  0
 25 26  4  0  0  0  0
 25 34  1  0  0  0  0
 26 35  1  0  0  0  0
M  END
> <BCLConfClusterSize>
1

> <ConfClashScore>
0 

> <ConfOneFourInteractionScore>
-0.948736 

> <ConfScore>
0.286122 

> <ConfScorePBest>
0.00410286 

> <ConfTolerance>
0.692499 

> <RosettaParamsInstructions>
M  ROOT 3
M  POLY_N_BB 3
M  POLY_CA_BB 4
M  POLY_C_BB 2
M  POLY_O_BB 5
M  POLY_IGNORE 9 10 11 12 13 14 15 16 17 18 
M  POLY_UPPER 6
M  POLY_LOWER 8
M  POLY_CHG 0
M  POLY_PROPERTIES ALPHA_AA D_AA PROTEIN AROMATIC POLYMER 
M  END

$$$$



 35 35  0  0  0  0  0  0  0  0999 V2000
   -2.3112    2.5089    0.6878 H   0  0  0  1  0  0  0  0  0  0  0  0
   -0.8920    0.9773    0.6445 C   0  0  0  1  0  0  0  0  0  0  0  0
   -3.0090    1.1183   -0.6382 N   0  0  0  1  0  0  0  0  0  0  0  0
   -1.9009    1.8631   -0.0602 C   0  0  0  1  0  0  0  0  0  0  0  0
   -0.1717    1.4170    1.5391 O   0  0  0  1  0  0  0  0  0  0  0  0
   -0.8439   -0.3012    0.2267 N   0  0  0  1  0  0  0  0  0  0  0  0
   -2.9068    0.1474   -0.7235 H   0  0  0  1  0  0  0  0  0  0  0  0
   -4.1536    1.6574   -1.0607 C   0  0  0  1  0  0  0  0  0  0  0  0
   -0.0413   -1.3100    0.9020 C   0  0  0  1  0  0  0  0  0  0  0  0
   -5.2118    0.7298   -1.6536 C   0  0  0  1  0  0  0  0  0  0  0  0
   -4.4091    2.8594   -1.0017 O   0  0  0  1  0  0  0  0  0  0  0  0
   -1.3675   -0.5618   -0.5596 H   0  0  0  1  0  0  0  0  0  0  0  0
    0.8137   -0.8465    1.3481 H   0  0  0  1  0  0  0  0  0  0  0  0
    0.2806   -2.0432    0.1922 H   0  0  0  1  0  0  0  0  0  0  0  0
   -0.6280   -1.7822    1.6621 H   0  0  0  1  0  0  0  0  0  0  0  0
   -5.5056    1.0925   -2.6165 H   0  0  0  1  0  0  0  0  0  0  0  0
   -6.0644    0.7028   -1.0076 H   0  0  0  1  0  0  0  0  0  0  0  0
   -4.8070   -0.2557   -1.7523 H   0  0  0  1  0  0  0  0  0  0  0  0
   -1.2306    2.7702   -1.0805 C   0  0  0  1  0  0  0  0  0  0  0  0
   -1.7891    4.1846   -0.9948 C   0  0  0  1  0  0  0  0  0  0  0  0
   -1.3784    5.0520   -2.1545 C   0  0  0  1  0  0  0  0  0  0  0  0
   -2.3122    5.2828   -3.1526 C   0  0  0  1  0  0  0  0  0  0  0  0
   -1.9813    6.0682   -4.2406 C   0  0  0  1  0  0  0  0  0  0  0  0
   -0.7171    6.6296   -4.3310 C   0  0  0  1  0  0  0  0  0  0  0  0
    0.2141    6.3997   -3.3359 C   0  0  0  1  0  0  0  0  0  0  0  0
   -0.1180    5.6119   -2.2447 C   0  0  0  1  0  0  0  0  0  0  0  0
   -1.4052    2.3829   -2.0626 H   0  0  0  1  0  0  0  0  0  0  0  0
   -0.1782    2.7964   -0.8889 H   0  0  0  1  0  0  0  0  0  0  0  0
   -1.4370    4.6356   -0.0906 H   0  0  0  1  0  0  0  0  0  0  0  0
   -2.8574    4.1281   -0.9732 H   0  0  0  1  0  0  0  0  0  0  0  0
   -3.2620    4.8648   -3.0828 H   0  0  0  1  0  0  0  0  0  0  0  0
   -2.6806    6.2379   -4.9914 H   0  0  0  1  0  0  0  0  0  0  0  0
   -0.4693    7.2239   -5.1477 H   0  0  0  1  0  0  0  0  0  0  0  0
    1.1639    6.8177   -3.4058 H   0  0  0  1  0  0  0  0  0  0  0  0
    0.5813    5.4421   -1.4939 H   0  0  0  1  0  0  0  0  0  0  0  0
  1  4  1  0  0  0  0
  2  4  1  0  0  0  0
  2  5  2  0  0  0  0
  2  6  1  0  0  0  0
  3  4  1  0  0  0  0
  3  7  1  0  0  0  0
  3  8  1  0  0  0  0
  4 19  1  0  0  0  0
  6  9  1  0  0  0  0
  6 12  1  0  0  0  0
  8 10  1  0  0  0  0
  8 11  2  0  0  0  0
  9 13  1  0  0  0  0
  9 14  1  0  0  0  0
  9 15  1  0  0  0  0
 10 16  1  0  0  0  0
 10 17  1  0  0  0  0
 10 18  1  0  0  0  0
 19 20  1  0  0  0  0
 19 27  1  0  0  0  0
 19 28  1  0  0  0  0
 20 21  1  0  0  0  0
 20 29  1  0  0  0  0
 20 30  1  0  0  0  0
 21 22  4  0  0  0  0
 21 26  4  0  0  0  0
 22 23  4  0  0  0  0
 22 31  1  0  0  0  0
 23 24  4  0  0  0  0
 23 32  1  0  0  0  0
 24 25  4  0  0  0  0
 24 33  1  0  0  0  0
 25 26  4  0  0  0  0
 25 34  1  0  0  0  0
 26 35  1  0  0  0  0
M  END
> <BCLConfClusterSize>
1

> <ConfClashScore>
0 

> <ConfOneFourInteractionScore>
-0.9588 

> <ConfScore>
0.290894 

> <ConfScorePBest>
0.00407438 

> <ConfTolerance>
0.659909 

> <RosettaParamsInstructions>
M  ROOT 3
M  POLY_N_BB 3
M  POLY_CA_BB 4
M  POLY_C_BB 2
M  POLY_O_BB 5
M  POLY_IGNORE 9 10 11 12 13 14 15 16 17 18 
M  POLY_UPPER 6
M  POLY_LOWER 8
M  POLY_CHG 0
M  POLY_PROPERTIES ALPHA_AA D_AA PROTEIN AROMATIC POLYMER 
M  END

$$$$



 35 35  0  0  0  0  0  0  0  0999 V2000
   -1.2890    2.5336    1.1932 H   0  0  0  1  0  0  0  0  0  0  0  0
   -0.5320    0.7617    0.3061 C   0  0  0  1  0  0  0  0  0  0  0  0
   -2.7770    1.7427   -0.0069 N   0  0  0  1  0  0  0  0  0  0  0  0
   -1.3749    2.0361    0.2499 C   0  0  0  1  0  0  0  0  0  0  0  0
    0.2071    0.4641   -0.6314 O   0  0  0  1  0  0  0  0  0  0  0  0
   -0.7074   -0.0381    1.3618 N   0  0  0  1  0  0  0  0  0  0  0  0
   -3.1572    1.9771   -0.8792 H   0  0  0  1  0  0  0  0  0  0  0  0
   -3.5717    1.1594    0.9143 C   0  0  0  1  0  0  0  0  0  0  0  0
   -0.1376   -1.3862    1.4255 C   0  0  0  1  0  0  0  0  0  0  0  0
   -5.0013    0.8539    0.5285 C   0  0  0  1  0  0  0  0  0  0  0  0
   -3.1481    0.8832    2.0353 O   0  0  0  1  0  0  0  0  0  0  0  0
   -1.2356    0.2884    2.1200 H   0  0  0  1  0  0  0  0  0  0  0  0
   -0.3937   -1.8383    2.3609 H   0  0  0  1  0  0  0  0  0  0  0  0
    0.9271   -1.3276    1.3376 H   0  0  0  1  0  0  0  0  0  0  0  0
   -0.5302   -1.9773    0.6246 H   0  0  0  1  0  0  0  0  0  0  0  0
   -5.4149    0.1493    1.2195 H   0  0  0  1  0  0  0  0  0  0  0  0
   -5.0237    0.4406   -0.4582 H   0  0  0  1  0  0  0  0  0  0  0  0
   -5.5770    1.7555    0.5513 H   0  0  0  1  0  0  0  0  0  0  0  0
   -0.8448    2.9708   -0.8265 C   0  0  0  1  0  0  0  0  0  0  0  0
   -1.7496    4.1900   -0.9776 C   0  0  0  1  0  0  0  0  0  0  0  0
   -1.3870    5.0508   -2.1581 C   0  0  0  1  0  0  0  0  0  0  0  0
   -2.3176    5.2842   -3.1585 C   0  0  0  1  0  0  0  0  0  0  0  0
   -1.9825    6.0702   -4.2447 C   0  0  0  1  0  0  0  0  0  0  0  0
   -0.7171    6.6296   -4.3311 C   0  0  0  1  0  0  0  0  0  0  0  0
    0.2110    6.3971   -3.3337 C   0  0  0  1  0  0  0  0  0  0  0  0
   -0.1254    5.6087   -2.2443 C   0  0  0  1  0  0  0  0  0  0  0  0
   -0.8046    2.4461   -1.7582 H   0  0  0  1  0  0  0  0  0  0  0  0
    0.1386    3.2949   -0.5565 H   0  0  0  1  0  0  0  0  0  0  0  0
   -1.6752    4.7815   -0.0891 H   0  0  0  1  0  0  0  0  0  0  0  0
   -2.7579    3.8529   -1.0989 H   0  0  0  1  0  0  0  0  0  0  0  0
   -3.2683    4.8677   -3.0917 H   0  0  0  1  0  0  0  0  0  0  0  0
   -2.6795    6.2419   -4.9973 H   0  0  0  1  0  0  0  0  0  0  0  0
   -0.4662    7.2244   -5.1465 H   0  0  0  1  0  0  0  0  0  0  0  0
    1.1616    6.8136   -3.4006 H   0  0  0  1  0  0  0  0  0  0  0  0
    0.5716    5.4370   -1.4918 H   0  0  0  1  0  0  0  0  0  0  0  0
  1  4  1  0  0  0  0
  2  4  1  0  0  0  0
  2  5  2  0  0  0  0
  2  6  1  0  0  0  0
  3  4  1  0  0  0  0
  3  7  1  0  0  0  0
  3  8  1  0  0  0  0
  4 19  1  0  0  0  0
  6  9  1  0  0  0  0
  6 12  1  0  0  0  0
  8 10  1  0  0  0  0
  8 11  2  0  0  0  0
  9 13  1  0  0  0  0
  9 14  1  0  0  0  0
  9 15  1  0  0  0  0
 10 16  1  0  0  0  0
 10 17  1  0  0  0  0
 10 18  1  0  0  0  0
 19 20  1  0  0  0  0
 19 27  1  0  0  0  0
 19 28  1  0  0  0  0
 20 21  1  0  0  0  0
 20 29  1  0  0  0  0
 20 30  1  0  0  0  0
 21 22  4  0  0  0  0
 21 26  4  0  0  0  0
 22 23  4  0  0  0  0
 22 31  1  0  0  0  0
 23 24  4  0  0  0  0
 23 32  1  0  0  0  0
 24 25  4  0  0  0  0
 24 33  1  0  0  0  0
 25 26  4  0  0  0  0
 25 34  1  0  0  0  0
 26 35  1  0  0  0  0
M  END
> <BCLConfClusterSize>
1

> <ConfClashScore>
0 

> <ConfOneFourInteractionScore>
-0.98595 

> <ConfScore>
0.291328 

> <ConfScorePBest>
0.00404589 

> <ConfTolerance>
0.554776 

> <RosettaParamsInstructions>
M  ROOT 3
M  POLY_N_BB 3
M  POLY_CA_BB 4
M  POLY_C_BB 2
M  POLY_O_BB 5
M  POLY_IGNORE 9 10 11 12 13 14 15 16 17 18 
M  POLY_UPPER 6
M  POLY_LOWER 8
M  POLY_CHG 0
M  POLY_PROPERTIES ALPHA_AA D_AA PROTEIN AROMATIC POLYMER 
M  END

$$$$



 35 35  0  0  0  0  0  0  0  0999 V2000
   -1.6998    0.9500   -2.0976 H   0  0  0  1  0  0  0  0  0  0  0  0
    0.0144    1.6953   -1.1657 C   0  0  0  1  0  0  0  0  0  0  0  0
   -0.9141    2.4064   -3.3279 N   0  0  0  1  0  0  0  0  0  0  0  0
   -1.2426    1.9100   -1.9781 C   0  0  0  1  0  0  0  0  0  0  0  0
    0.0036    0.9823   -0.1631 O   0  0  0  1  0  0  0  0  0  0  0  0
    1.1342    2.3020   -1.5691 N   0  0  0  1  0  0  0  0  0  0  0  0
   -1.2328    3.2936   -3.5961 H   0  0  0  1  0  0  0  0  0  0  0  0
   -0.1973    1.6887   -4.1975 C   0  0  0  1  0  0  0  0  0  0  0  0
    2.3324    2.3506   -0.7445 C   0  0  0  1  0  0  0  0  0  0  0  0
   -0.1158    2.2485   -5.6044 C   0  0  0  1  0  0  0  0  0  0  0  0
    0.3675    0.6386   -3.8945 O   0  0  0  1  0  0  0  0  0  0  0  0
    1.1494    2.7293   -2.4509 H   0  0  0  1  0  0  0  0  0  0  0  0
    2.9366    1.4897   -0.9413 H   0  0  0  1  0  0  0  0  0  0  0  0
    2.0539    2.3619    0.2885 H   0  0  0  1  0  0  0  0  0  0  0  0
    2.8877    3.2358   -0.9744 H   0  0  0  1  0  0  0  0  0  0  0  0
   -0.1951    3.3150   -5.5696 H   0  0  0  1  0  0  0  0  0  0  0  0
   -0.9157    1.8506   -6.1932 H   0  0  0  1  0  0  0  0  0  0  0  0
    0.8210    1.9749   -6.0431 H   0  0  0  1  0  0  0  0  0  0  0  0
   -2.2790    2.8065   -1.3183 C   0  0  0  1  0  0  0  0  0  0  0  0
   -1.7496    4.1900   -0.9776 C   0  0  0  1  0  0  0  0  0  0  0  0
   -1.3870    5.0508   -2.1581 C   0  0  0  1  0  0  0  0  0  0  0  0
   -2.3176    5.2842   -3.1585 C   0  0  0  1  0  0  0  0  0  0  0  0
   -1.9825    6.0702   -4.2447 C   0  0  0  1  0  0  0  0  0  0  0  0
   -0.7171    6.6296   -4.3311 C   0  0  0  1  0  0  0  0  0  0  0  0
    0.2110    6.3971   -3.3337 C   0  0  0  1  0  0  0  0  0  0  0  0
   -0.1254    5.6087   -2.2443 C   0  0  0  1  0  0  0  0  0  0  0  0
   -2.6077    2.3370   -0.4147 H   0  0  0  1  0  0  0  0  0  0  0  0
   -3.1079    2.9154   -1.9861 H   0  0  0  1  0  0  0  0  0  0  0  0
   -0.8733    4.0691   -0.3756 H   0  0  0  1  0  0  0  0  0  0  0  0
   -2.5019    4.7018   -0.4146 H   0  0  0  1  0  0  0  0  0  0  0  0
   -3.2683    4.8677   -3.0917 H   0  0  0  1  0  0  0  0  0  0  0  0
   -2.6795    6.2419   -4.9973 H   0  0  0  1  0  0  0  0  0  0  0  0
   -0.4662    7.2244   -5.1465 H   0  0  0  1  0  0  0  0  0  0  0  0
    1.1616    6.8136   -3.4006 H   0  0  0  1  0  0  0  0  0  0  0  0
    0.5716    5.4370   -1.4918 H   0  0  0  1  0  0  0  0  0  0  0  0
  1  4  1  0  0  0  0
  2  4  1  0  0  0  0
  2  5  2  0  0  0  0
  2  6  1  0  0  0  0
  3  4  1  0  0  0  0
  3  7  1  0  0  0  0
  3  8  1  0  0  0  0
  4 19  1  0  0  0  0
  6  9  1  0  0  0  0
  6 12  1  0  0  0  0
  8 10  1  0  0  0  0
  8 11  2  0  0  0  0
  9 13  1  0  0  0  0
  9 14  1  0  0  0  0
  9 15  1  0  0  0  0
 10 16  1  0  0  0  0
 10 17  1  0  0  0  0
 10 18  1  0  0  0  0
 19 20  1  0  0  0  0
 19 27  1  0  0  0  0
 19 28  1  0  0  0  0
 20 21  1  0  0  0  0
 20 29  1  0  0  0  0
 20 30  1  0  0  0  0
 21 22  4  0  0  0  0
 21 26  4  0  0  0  0
 22 23  4  0  0  0  0
 22 31  1  0  0  0  0
 23 24  4  0  0  0  0
 23 32  1  0  0  0  0
 24 25  4  0  0  0  0
 24 33  1  0  0  0  0
 25 26  4  0  0  0  0
 25 34  1  0  0  0  0
 26 35  1  0  0  0  0
M  END
> <BCLConfClusterSize>
1

> <ConfClashScore>
0 

> <ConfOneFourInteractionScore>
-0.968258 

> <ConfScore>
0.293725 

> <ConfScorePBest>
0.00401741 

> <ConfTolerance>
0.492885 

> <RosettaParamsInstructions>
M  ROOT 3
M  POLY_N_BB 3
M  POLY_CA_BB 4
M  POLY_C_BB 2
M  POLY_O_BB 5
M  POLY_IGNORE 9 10 11 12 13 14 15 16 17 18 
M  POLY_UPPER 6
M  POLY_LOWER 8
M  POLY_CHG 0
M  POLY_PROPERTIES ALPHA_AA D_AA PROTEIN AROMATIC POLYMER 
M  END

$$$$



 35 35  0  0  0  0  0  0  0  0999 V2000
   -2.0457    3.1724    1.4268 H   0  0  0  1  0  0  0  0  0  0  0  0
   -3.8634    4.2244    1.3528 C   0  0  0  1  0  0  0  0  0  0  0  0
   -1.9075    4.7295    2.7638 N   0  0  0  1  0  0  0  0  0  0  0  0
   -2.3533    4.1955    1.4869 C   0  0  0  1  0  0  0  0  0  0  0  0
   -4.4609    3.3789    0.6922 O   0  0  0  1  0  0  0  0  0  0  0  0
   -4.4886    5.2260    1.9989 N   0  0  0  1  0  0  0  0  0  0  0  0
   -1.3504    5.5357    2.7708 H   0  0  0  1  0  0  0  0  0  0  0  0
   -2.2325    4.1565    3.9335 C   0  0  0  1  0  0  0  0  0  0  0  0
   -5.9217    5.4650    2.0822 C   0  0  0  1  0  0  0  0  0  0  0  0
   -1.8638    4.9474    5.1837 C   0  0  0  1  0  0  0  0  0  0  0  0
   -2.7924    3.0637    4.0114 O   0  0  0  1  0  0  0  0  0  0  0  0
   -3.9135    5.8672    2.4663 H   0  0  0  1  0  0  0  0  0  0  0  0
   -6.4291    4.5385    2.2523 H   0  0  0  1  0  0  0  0  0  0  0  0
   -6.2650    5.8962    1.1650 H   0  0  0  1  0  0  0  0  0  0  0  0
   -6.1247    6.1362    2.8904 H   0  0  0  1  0  0  0  0  0  0  0  0
   -2.0760    5.9842    5.0259 H   0  0  0  1  0  0  0  0  0  0  0  0
   -0.8208    4.8243    5.3886 H   0  0  0  1  0  0  0  0  0  0  0  0
   -2.4357    4.5889    6.0139 H   0  0  0  1  0  0  0  0  0  0  0  0
   -1.6816    4.9348    0.3457 C   0  0  0  1  0  0  0  0  0  0  0  0
   -1.7496    4.1900   -0.9776 C   0  0  0  1  0  0  0  0  0  0  0  0
   -1.3870    5.0508   -2.1581 C   0  0  0  1  0  0  0  0  0  0  0  0
   -2.3176    5.2842   -3.1585 C   0  0  0  1  0  0  0  0  0  0  0  0
   -1.9825    6.0702   -4.2447 C   0  0  0  1  0  0  0  0  0  0  0  0
   -0.7171    6.6296   -4.3311 C   0  0  0  1  0  0  0  0  0  0  0  0
    0.2110    6.3971   -3.3337 C   0  0  0  1  0  0  0  0  0  0  0  0
   -0.1254    5.6087   -2.2443 C   0  0  0  1  0  0  0  0  0  0  0  0
   -0.6527    5.0853    0.5978 H   0  0  0  1  0  0  0  0  0  0  0  0
   -2.1625    5.8832    0.2263 H   0  0  0  1  0  0  0  0  0  0  0  0
   -2.7472    3.8280   -1.1138 H   0  0  0  1  0  0  0  0  0  0  0  0
   -1.0718    3.3630   -0.9381 H   0  0  0  1  0  0  0  0  0  0  0  0
   -3.2683    4.8677   -3.0917 H   0  0  0  1  0  0  0  0  0  0  0  0
   -2.6795    6.2419   -4.9973 H   0  0  0  1  0  0  0  0  0  0  0  0
   -0.4662    7.2244   -5.1465 H   0  0  0  1  0  0  0  0  0  0  0  0
    1.1616    6.8136   -3.4006 H   0  0  0  1  0  0  0  0  0  0  0  0
    0.5716    5.4370   -1.4918 H   0  0  0  1  0  0  0  0  0  0  0  0
  1  4  1  0  0  0  0
  2  4  1  0  0  0  0
  2  5  2  0  0  0  0
  2  6  1  0  0  0  0
  3  4  1  0  0  0  0
  3  7  1  0  0  0  0
  3  8  1  0  0  0  0
  4 19  1  0  0  0  0
  6  9  1  0  0  0  0
  6 12  1  0  0  0  0
  8 10  1  0  0  0  0
  8 11  2  0  0  0  0
  9 13  1  0  0  0  0
  9 14  1  0  0  0  0
  9 15  1  0  0  0  0
 10 16  1  0  0  0  0
 10 17  1  0  0  0  0
 10 18  1  0  0  0  0
 19 20  1  0  0  0  0
 19 27  1  0  0  0  0
 19 28  1  0  0  0  0
 20 21  1  0  0  0  0
 20 29  1  0  0  0  0
 20 30  1  0  0  0  0
 21 22  4  0  0  0  0
 21 26  4  0  0  0  0
 22 23  4  0  0  0  0
 22 31  1  0  0  0  0
 23 24  4  0  0  0  0
 23 32  1  0  0  0  0
 24 25  4  0  0  0  0
 24 33  1  0  0  0  0
 25 26  4  0  0  0  0
 25 34  1  0  0  0  0
 26 35  1  0  0  0  0
M  END
> <BCLConfClusterSize>
1

> <ConfClashScore>
0 

> <ConfOneFourInteractionScore>
-0.970454 

> <ConfScore>
0.295574 

> <ConfScorePBest>
0.00398893 

> <ConfTolerance>
0.527036 

> <RosettaParamsInstructions>
M  ROOT 3
M  POLY_N_BB 3
M  POLY_CA_BB 4
M  POLY_C_BB 2
M  POLY_O_BB 5
M  POLY_IGNORE 9 10 11 12 13 14 15 16 17 18 
M  POLY_UPPER 6
M  POLY_LOWER 8
M  POLY_CHG 0
M  POLY_PROPERTIES ALPHA_AA D_AA PROTEIN AROMATIC POLYMER 
M  END

$$$$



 35 35  0  0  0  0  0  0  0  0999 V2000
   -0.0661    3.1175    1.7941 H   0  0  0  1  0  0  0  0  0  0  0  0
   -1.1413    1.7361    0.6314 C   0  0  0  1  0  0  0  0  0  0  0  0
   -2.0552    3.6308    1.9162 N   0  0  0  1  0  0  0  0  0  0  0  0
   -0.9189    3.1441    1.1483 C   0  0  0  1  0  0  0  0  0  0  0  0
   -0.6919    1.3859   -0.4591 O   0  0  0  1  0  0  0  0  0  0  0  0
   -1.8419    0.8856    1.3982 N   0  0  0  1  0  0  0  0  0  0  0  0
   -1.9066    4.1353    2.7431 H   0  0  0  1  0  0  0  0  0  0  0  0
   -3.3478    3.3823    1.4803 C   0  0  0  1  0  0  0  0  0  0  0  0
   -2.1915   -0.4550    0.9527 C   0  0  0  1  0  0  0  0  0  0  0  0
   -4.4963    3.7539    2.3626 C   0  0  0  1  0  0  0  0  0  0  0  0
   -3.5051    2.8673    0.3883 O   0  0  0  1  0  0  0  0  0  0  0  0
   -2.1278    1.1776    2.2889 H   0  0  0  1  0  0  0  0  0  0  0  0
   -1.2984   -1.0198    0.7846 H   0  0  0  1  0  0  0  0  0  0  0  0
   -2.7510   -0.3936    0.0427 H   0  0  0  1  0  0  0  0  0  0  0  0
   -2.7822   -0.9373    1.7033 H   0  0  0  1  0  0  0  0  0  0  0  0
   -4.4306    4.7913    2.6164 H   0  0  0  1  0  0  0  0  0  0  0  0
   -4.4644    3.1657    3.2558 H   0  0  0  1  0  0  0  0  0  0  0  0
   -5.4157    3.5707    1.8469 H   0  0  0  1  0  0  0  0  0  0  0  0
   -0.5975    4.1072    0.0159 C   0  0  0  1  0  0  0  0  0  0  0  0
   -1.7520    4.1843   -0.9698 C   0  0  0  1  0  0  0  0  0  0  0  0
   -1.3867    5.0513   -2.1588 C   0  0  0  1  0  0  0  0  0  0  0  0
   -2.3174    5.2847   -3.1592 C   0  0  0  1  0  0  0  0  0  0  0  0
   -1.9822    6.0707   -4.2455 C   0  0  0  1  0  0  0  0  0  0  0  0
   -0.7169    6.6302   -4.3318 C   0  0  0  1  0  0  0  0  0  0  0  0
    0.2112    6.3976   -3.3344 C   0  0  0  1  0  0  0  0  0  0  0  0
   -0.1251    5.6092   -2.2450 C   0  0  0  1  0  0  0  0  0  0  0  0
    0.2786    3.7673   -0.4958 H   0  0  0  1  0  0  0  0  0  0  0  0
   -0.4183    5.0803    0.4232 H   0  0  0  1  0  0  0  0  0  0  0  0
   -2.6052    4.6037   -0.4787 H   0  0  0  1  0  0  0  0  0  0  0  0
   -1.9864    3.1985   -1.3134 H   0  0  0  1  0  0  0  0  0  0  0  0
   -3.2681    4.8682   -3.0924 H   0  0  0  1  0  0  0  0  0  0  0  0
   -2.6793    6.2424   -4.9980 H   0  0  0  1  0  0  0  0  0  0  0  0
   -0.4660    7.2249   -5.1472 H   0  0  0  1  0  0  0  0  0  0  0  0
    1.1618    6.8141   -3.4013 H   0  0  0  1  0  0  0  0  0  0  0  0
    0.5719    5.4375   -1.4925 H   0  0  0  1  0  0  0  0  0  0  0  0
  1  4  1  0  0  0  0
  2  4  1  0  0  0  0
  2  5  2  0  0  0  0
  2  6  1  0  0  0  0
  3  4  1  0  0  0  0
  3  7  1  0  0  0  0
  3  8  1  0  0  0  0
  4 19  1  0  0  0  0
  6  9  1  0  0  0  0
  6 12  1  0  0  0  0
  8 10  1  0  0  0  0
  8 11  2  0  0  0  0
  9 13  1  0  0  0  0
  9 14  1  0  0  0  0
  9 15  1  0  0  0  0
 10 16  1  0  0  0  0
 10 17  1  0  0  0  0
 10 18  1  0  0  0  0
 19 20  1  0  0  0  0
 19 27  1  0  0  0  0
 19 28  1  0  0  0  0
 20 21  1  0  0  0  0
 20 29  1  0  0  0  0
 20 30  1  0  0  0  0
 21 22  4  0  0  0  0
 21 26  4  0  0  0  0
 22 23  4  0  0  0  0
 22 31  1  0  0  0  0
 23 24  4  0  0  0  0
 23 32  1  0  0  0  0
 24 25  4  0  0  0  0
 24 33  1  0  0  0  0
 25 26  4  0  0  0  0
 25 34  1  0  0  0  0
 26 35  1  0  0  0  0
M  END
> <BCLConfClusterSize>
1

> <ConfClashScore>
0 

> <ConfOneFourInteractionScore>
-0.941312 

> <ConfScore>
0.299294 

> <ConfScorePBest>
0.00396045 

> <ConfTolerance>
0.406073 

> <RosettaParamsInstructions>
M  ROOT 3
M  POLY_N_BB 3
M  POLY_CA_BB 4
M  POLY_C_BB 2
M  POLY_O_BB 5
M  POLY_IGNORE 9 10 11 12 13 14 15 16 17 18 
M  POLY_UPPER 6
M  POLY_LOWER 8
M  POLY_CHG 0
M  POLY_PROPERTIES ALPHA_AA D_AA PROTEIN AROMATIC POLYMER 
M  END

$$$$



 35 35  0  0  0  0  0  0  0  0999 V2000
   -3.4380    3.4799    0.8876 H   0  0  0  1  0  0  0  0  0  0  0  0
   -2.7341    1.5786    0.3342 C   0  0  0  1  0  0  0  0  0  0  0  0
   -5.0050    2.4821   -0.0022 N   0  0  0  1  0  0  0  0  0  0  0  0
   -3.5852    2.8053    0.0702 C   0  0  0  1  0  0  0  0  0  0  0  0
   -2.8590    1.0144    1.4180 O   0  0  0  1  0  0  0  0  0  0  0  0
   -1.8971    1.1770   -0.6200 N   0  0  0  1  0  0  0  0  0  0  0  0
   -5.6490    3.0803    0.4312 H   0  0  0  1  0  0  0  0  0  0  0  0
   -5.4626    1.3896   -0.6444 C   0  0  0  1  0  0  0  0  0  0  0  0
   -0.9850    0.0584   -0.4337 C   0  0  0  1  0  0  0  0  0  0  0  0
   -6.9754    1.3080   -0.7063 C   0  0  0  1  0  0  0  0  0  0  0  0
   -4.7489    0.5212   -1.1446 O   0  0  0  1  0  0  0  0  0  0  0  0
   -1.8951    1.6511   -1.4776 H   0  0  0  1  0  0  0  0  0  0  0  0
   -0.0616    0.4144   -0.0269 H   0  0  0  1  0  0  0  0  0  0  0  0
   -0.8009   -0.4123   -1.3769 H   0  0  0  1  0  0  0  0  0  0  0  0
   -1.4217   -0.6494    0.2395 H   0  0  0  1  0  0  0  0  0  0  0  0
   -7.3895    2.2919   -0.6330 H   0  0  0  1  0  0  0  0  0  0  0  0
   -7.3335    0.7093    0.1051 H   0  0  0  1  0  0  0  0  0  0  0  0
   -7.2708    0.8651   -1.6345 H   0  0  0  1  0  0  0  0  0  0  0  0
   -3.1442    3.5257   -1.1947 C   0  0  0  1  0  0  0  0  0  0  0  0
   -1.7891    4.1846   -0.9948 C   0  0  0  1  0  0  0  0  0  0  0  0
   -1.3784    5.0520   -2.1545 C   0  0  0  1  0  0  0  0  0  0  0  0
   -2.3122    5.2828   -3.1526 C   0  0  0  1  0  0  0  0  0  0  0  0
   -1.9813    6.0682   -4.2406 C   0  0  0  1  0  0  0  0  0  0  0  0
   -0.7171    6.6296   -4.3310 C   0  0  0  1  0  0  0  0  0  0  0  0
    0.2141    6.3997   -3.3359 C   0  0  0  1  0  0  0  0  0  0  0  0
   -0.1180    5.6119   -2.2447 C   0  0  0  1  0  0  0  0  0  0  0  0
   -3.8662    4.2759   -1.4410 H   0  0  0  1  0  0  0  0  0  0  0  0
   -3.0760    2.8190   -1.9952 H   0  0  0  1  0  0  0  0  0  0  0  0
   -1.0536    3.4183   -0.8654 H   0  0  0  1  0  0  0  0  0  0  0  0
   -1.8318    4.7910   -0.1142 H   0  0  0  1  0  0  0  0  0  0  0  0
   -3.2620    4.8648   -3.0828 H   0  0  0  1  0  0  0  0  0  0  0  0
   -2.6806    6.2379   -4.9914 H   0  0  0  1  0  0  0  0  0  0  0  0
   -0.4693    7.2239   -5.1477 H   0  0  0  1  0  0  0  0  0  0  0  0
    1.1639    6.8177   -3.4058 H   0  0  0  1  0  0  0  0  0  0  0  0
    0.5813    5.4421   -1.4939 H   0  0  0  1  0  0  0  0  0  0  0  0
  1  4  1  0  0  0  0
  2  4  1  0  0  0  0
  2  5  2  0  0  0  0
  2  6  1  0  0  0  0
  3  4  1  0  0  0  0
  3  7  1  0  0  0  0
  3  8  1  0  0  0  0
  4 19  1  0  0  0  0
  6  9  1  0  0  0  0
  6 12  1  0  0  0  0
  8 10  1  0  0  0  0
  8 11  2  0  0  0  0
  9 13  1  0  0  0  0
  9 14  1  0  0  0  0
  9 15  1  0  0  0  0
 10 16  1  0  0  0  0
 10 17  1  0  0  0  0
 10 18  1  0  0  0  0
 19 20  1  0  0  0  0
 19 27  1  0  0  0  0
 19 28  1  0  0  0  0
 20 21  1  0  0  0  0
 20 29  1  0  0  0  0
 20 30  1  0  0  0  0
 21 22  4  0  0  0  0
 21 26  4  0  0  0  0
 22 23  4  0  0  0  0
 22 31  1  0  0  0  0
 23 24  4  0  0  0  0
 23 32  1  0  0  0  0
 24 25  4  0  0  0  0
 24 33  1  0  0  0  0
 25 26  4  0  0  0  0
 25 34  1  0  0  0  0
 26 35  1  0  0  0  0
M  END
> <BCLConfClusterSize>
1

> <ConfClashScore>
0 

> <ConfOneFourInteractionScore>
-0.937399 

> <ConfScore>
0.301395 

> <ConfScorePBest>
0.00393197 

> <ConfTolerance>
0.644076 

> <RosettaParamsInstructions>
M  ROOT 3
M  POLY_N_BB 3
M  POLY_CA_BB 4
M  POLY_C_BB 2
M  POLY_O_BB 5
M  POLY_IGNORE 9 10 11 12 13 14 15 16 17 18 
M  POLY_UPPER 6
M  POLY_LOWER 8
M  POLY_CHG 0
M  POLY_PROPERTIES ALPHA_AA D_AA PROTEIN AROMATIC POLYMER 
M  END

$$$$



 35 35  0  0  0  0  0  0  0  0999 V2000
   -3.1240    6.6668   -1.0542 H   0  0  0  1  0  0  0  0  0  0  0  0
   -3.9291    6.9163    0.8798 C   0  0  0  1  0  0  0  0  0  0  0  0
   -4.5524    5.2073   -0.7969 N   0  0  0  1  0  0  0  0  0  0  0  0
   -3.4690    6.0244   -0.2712 C   0  0  0  1  0  0  0  0  0  0  0  0
   -3.0985    7.4456    1.6135 O   0  0  0  1  0  0  0  0  0  0  0  0
   -5.2374    7.1442    0.9763 N   0  0  0  1  0  0  0  0  0  0  0  0
   -4.7989    4.3863   -0.3220 H   0  0  0  1  0  0  0  0  0  0  0  0
   -5.2256    5.5390   -1.9092 C   0  0  0  1  0  0  0  0  0  0  0  0
   -5.8020    8.0110    1.9998 C   0  0  0  1  0  0  0  0  0  0  0  0
   -6.2917    4.5288   -2.3370 C   0  0  0  1  0  0  0  0  0  0  0  0
   -5.0858    6.5982   -2.5193 O   0  0  0  1  0  0  0  0  0  0  0  0
   -5.8410    6.7132    0.3358 H   0  0  0  1  0  0  0  0  0  0  0  0
   -5.2608    7.8837    2.9140 H   0  0  0  1  0  0  0  0  0  0  0  0
   -6.8295    7.7563    2.1554 H   0  0  0  1  0  0  0  0  0  0  0  0
   -5.7309    9.0304    1.6825 H   0  0  0  1  0  0  0  0  0  0  0  0
   -6.0907    3.5823   -1.8801 H   0  0  0  1  0  0  0  0  0  0  0  0
   -6.2743    4.4215   -3.4015 H   0  0  0  1  0  0  0  0  0  0  0  0
   -7.2557    4.8759   -2.0287 H   0  0  0  1  0  0  0  0  0  0  0  0
   -2.3083    5.1519    0.1380 C   0  0  0  1  0  0  0  0  0  0  0  0
   -1.7611    4.2396   -0.9476 C   0  0  0  1  0  0  0  0  0  0  0  0
   -1.3812    5.0323   -2.1696 C   0  0  0  1  0  0  0  0  0  0  0  0
   -2.3138    5.2721   -3.1668 C   0  0  0  1  0  0  0  0  0  0  0  0
   -1.9826    6.0702   -4.2454 C   0  0  0  1  0  0  0  0  0  0  0  0
   -0.7195    6.6353   -4.3274 C   0  0  0  1  0  0  0  0  0  0  0  0
    0.2105    6.3963   -3.3333 C   0  0  0  1  0  0  0  0  0  0  0  0
   -0.1218    5.5958   -2.2515 C   0  0  0  1  0  0  0  0  0  0  0  0
   -2.6289    4.5381    0.9536 H   0  0  0  1  0  0  0  0  0  0  0  0
   -1.5140    5.7911    0.4626 H   0  0  0  1  0  0  0  0  0  0  0  0
   -2.5094    3.5224   -1.2133 H   0  0  0  1  0  0  0  0  0  0  0  0
   -0.8957    3.7318   -0.5759 H   0  0  0  1  0  0  0  0  0  0  0  0
   -3.2627    4.8514   -3.1032 H   0  0  0  1  0  0  0  0  0  0  0  0
   -2.6810    6.2468   -4.9955 H   0  0  0  1  0  0  0  0  0  0  0  0
   -0.4716    7.2392   -5.1371 H   0  0  0  1  0  0  0  0  0  0  0  0
    1.1595    6.8171   -3.3969 H   0  0  0  1  0  0  0  0  0  0  0  0
    0.5766    5.4192   -1.5014 H   0  0  0  1  0  0  0  0  0  0  0  0
  1  4  1  0  0  0  0
  2  4  1  0  0  0  0
  2  5  2  0  0  0  0
  2  6  1  0  0  0  0
  3  4  1  0  0  0  0
  3  7  1  0  0  0  0
  3  8  1  0  0  0  0
  4 19  1  0  0  0  0
  6  9  1  0  0  0  0
  6 12  1  0  0  0  0
  8 10  1  0  0  0  0
  8 11  2  0  0  0  0
  9 13  1  0  0  0  0
  9 14  1  0  0  0  0
  9 15  1  0  0  0  0
 10 16  1  0  0  0  0
 10 17  1  0  0  0  0
 10 18  1  0  0  0  0
 19 20  1  0  0  0  0
 19 27  1  0  0  0  0
 19 28  1  0  0  0  0
 20 21  1  0  0  0  0
 20 29  1  0  0  0  0
 20 30  1  0  0  0  0
 21 22  4  0  0  0  0
 21 26  4  0  0  0  0
 22 23  4  0  0  0  0
 22 31  1  0  0  0  0
 23 24  4  0  0  0  0
 23 32  1  0  0  0  0
 24 25  4  0  0  0  0
 24 33  1  0  0  0  0
 25 26  4  0  0  0  0
 25 34  1  0  0  0  0
 26 35  1  0  0  0  0
M  END
> <BCLConfClusterSize>
1

> <ConfClashScore>
0 

> <ConfOneFourInteractionScore>
-0.970454 

> <ConfScore>
0.30235 

> <ConfScorePBest>
0.00390349 

> <ConfTolerance>
0.459486 

> <RosettaParamsInstructions>
M  ROOT 3
M  POLY_N_BB 3
M  POLY_CA_BB 4
M  POLY_C_BB 2
M  POLY_O_BB 5
M  POLY_IGNORE 9 10 11 12 13 14 15 16 17 18 
M  POLY_UPPER 6
M  POLY_LOWER 8
M  POLY_CHG 0
M  POLY_PROPERTIES ALPHA_AA D_AA PROTEIN AROMATIC POLYMER 
M  END

$$$$



 35 35  0  0  0  0  0  0  0  0999 V2000
   -1.1978    2.2110    0.7836 H   0  0  0  1  0  0  0  0  0  0  0  0
   -1.4899    0.4089   -0.2687 C   0  0  0  1  0  0  0  0  0  0  0  0
   -3.2364    1.9809    0.5049 N   0  0  0  1  0  0  0  0  0  0  0  0
   -1.8582    1.8522    0.0220 C   0  0  0  1  0  0  0  0  0  0  0  0
   -0.9121    0.1672   -1.3252 O   0  0  0  1  0  0  0  0  0  0  0  0
   -1.8287   -0.4851    0.6581 N   0  0  0  1  0  0  0  0  0  0  0  0
   -3.4866    2.8216    0.9420 H   0  0  0  1  0  0  0  0  0  0  0  0
   -4.1769    1.0386    0.3939 C   0  0  0  1  0  0  0  0  0  0  0  0
   -1.6344   -1.9146    0.4671 C   0  0  0  1  0  0  0  0  0  0  0  0
   -5.4885    1.2386    1.1451 C   0  0  0  1  0  0  0  0  0  0  0  0
   -4.0486    0.0167   -0.2791 O   0  0  0  1  0  0  0  0  0  0  0  0
   -2.2227   -0.1694    1.4981 H   0  0  0  1  0  0  0  0  0  0  0  0
   -0.6022   -2.1109    0.2648 H   0  0  0  1  0  0  0  0  0  0  0  0
   -2.2289   -2.2481   -0.3577 H   0  0  0  1  0  0  0  0  0  0  0  0
   -1.9292   -2.4360    1.3538 H   0  0  0  1  0  0  0  0  0  0  0  0
   -6.1420    1.8559    0.5646 H   0  0  0  1  0  0  0  0  0  0  0  0
   -5.2926    1.7116    2.0846 H   0  0  0  1  0  0  0  0  0  0  0  0
   -5.9515    0.2887    1.3131 H   0  0  0  1  0  0  0  0  0  0  0  0
   -1.6939    2.7341   -1.1684 C   0  0  0  1  0  0  0  0  0  0  0  0
   -1.7611    4.2396   -0.9476 C   0  0  0  1  0  0  0  0  0  0  0  0
   -1.3812    5.0323   -2.1696 C   0  0  0  1  0  0  0  0  0  0  0  0
   -2.3138    5.2721   -3.1668 C   0  0  0  1  0  0  0  0  0  0  0  0
   -1.9826    6.0702   -4.2454 C   0  0  0  1  0  0  0  0  0  0  0  0
   -0.7195    6.6353   -4.3274 C   0  0  0  1  0  0  0  0  0  0  0  0
    0.2105    6.3963   -3.3333 C   0  0  0  1  0  0  0  0  0  0  0  0
   -0.1218    5.5958   -2.2515 C   0  0  0  1  0  0  0  0  0  0  0  0
   -2.4652    2.4784   -1.8646 H   0  0  0  1  0  0  0  0  0  0  0  0
   -0.7384    2.5164   -1.5981 H   0  0  0  1  0  0  0  0  0  0  0  0
   -1.0925    4.4974   -0.1530 H   0  0  0  1  0  0  0  0  0  0  0  0
   -2.7616    4.4989   -0.6709 H   0  0  0  1  0  0  0  0  0  0  0  0
   -3.2627    4.8514   -3.1032 H   0  0  0  1  0  0  0  0  0  0  0  0
   -2.6810    6.2468   -4.9955 H   0  0  0  1  0  0  0  0  0  0  0  0
   -0.4716    7.2392   -5.1371 H   0  0  0  1  0  0  0  0  0  0  0  0
    1.1595    6.8171   -3.3969 H   0  0  0  1  0  0  0  0  0  0  0  0
    0.5766    5.4192   -1.5014 H   0  0  0  1  0  0  0  0  0  0  0  0
  1  4  1  0  0  0  0
  2  4  1  0  0  0  0
  2  5  2  0  0  0  0
  2  6  1  0  0  0  0
  3  4  1  0  0  0  0
  3  7  1  0  0  0  0
  3  8  1  0  0  0  0
  4 19  1  0  0  0  0
  6  9  1  0  0  0  0
  6 12  1  0  0  0  0
  8 10  1  0  0  0  0
  8 11  2  0  0  0  0
  9 13  1  0  0  0  0
  9 14  1  0  0  0  0
  9 15  1  0  0  0  0
 10 16  1  0  0  0  0
 10 17  1  0  0  0  0
 10 18  1  0  0  0  0
 19 20  1  0  0  0  0
 19 27  1  0  0  0  0
 19 28  1  0  0  0  0
 20 21  1  0  0  0  0
 20 29  1  0  0  0  0
 20 30  1  0  0  0  0
 21 22  4  0  0  0  0
 21 26  4  0  0  0  0
 22 23  4  0  0  0  0
 22 31  1  0  0  0  0
 23 24  4  0  0  0  0
 23 32  1  0  0  0  0
 24 25  4  0  0  0  0
 24 33  1  0  0  0  0
 25 26  4  0  0  0  0
 25 34  1  0  0  0  0
 26 35  1  0  0  0  0
M  END
> <BCLConfClusterSize>
1

> <ConfClashScore>
0 

> <ConfOneFourInteractionScore>
-0.983812 

> <ConfScore>
0.303516 

> <ConfScorePBest>
0.00387501 

> <ConfTolerance>
0.493055 

> <RosettaParamsInstructions>
M  ROOT 3
M  POLY_N_BB 3
M  POLY_CA_BB 4
M  POLY_C_BB 2
M  POLY_O_BB 5
M  POLY_IGNORE 9 10 11 12 13 14 15 16 17 18 
M  POLY_UPPER 6
M  POLY_LOWER 8
M  POLY_CHG 0
M  POLY_PROPERTIES ALPHA_AA D_AA PROTEIN AROMATIC POLYMER 
M  END

$$$$



 35 35  0  0  0  0  0  0  0  0999 V2000
   -2.5515    6.7554   -0.4232 H   0  0  0  1  0  0  0  0  0  0  0  0
   -1.7894    6.0946    1.4510 C   0  0  0  1  0  0  0  0  0  0  0  0
   -4.1753    6.5013    0.8379 N   0  0  0  1  0  0  0  0  0  0  0  0
   -2.8648    6.0937    0.3572 C   0  0  0  1  0  0  0  0  0  0  0  0
   -0.6346    6.4170    1.1749 O   0  0  0  1  0  0  0  0  0  0  0  0
   -2.1962    5.8175    2.6991 N   0  0  0  1  0  0  0  0  0  0  0  0
   -4.9088    5.8521    0.8676 H   0  0  0  1  0  0  0  0  0  0  0  0
   -4.3831    7.7695    1.2425 C   0  0  0  1  0  0  0  0  0  0  0  0
   -1.2687    5.7263    3.8169 C   0  0  0  1  0  0  0  0  0  0  0  0
   -5.7885    8.0886    1.7138 C   0  0  0  1  0  0  0  0  0  0  0  0
   -3.5028    8.6259    1.2371 O   0  0  0  1  0  0  0  0  0  0  0  0
   -3.1512    5.6715    2.8638 H   0  0  0  1  0  0  0  0  0  0  0  0
   -0.4739    6.4294    3.6797 H   0  0  0  1  0  0  0  0  0  0  0  0
   -0.8648    4.7366    3.8650 H   0  0  0  1  0  0  0  0  0  0  0  0
   -1.7856    5.9459    4.7277 H   0  0  0  1  0  0  0  0  0  0  0  0
   -5.7471    8.5301    2.6875 H   0  0  0  1  0  0  0  0  0  0  0  0
   -6.3638    7.1873    1.7553 H   0  0  0  1  0  0  0  0  0  0  0  0
   -6.2465    8.7735    1.0311 H   0  0  0  1  0  0  0  0  0  0  0  0
   -2.9513    4.7151   -0.2031 C   0  0  0  1  0  0  0  0  0  0  0  0
   -1.7496    4.1900   -0.9776 C   0  0  0  1  0  0  0  0  0  0  0  0
   -1.3870    5.0508   -2.1581 C   0  0  0  1  0  0  0  0  0  0  0  0
   -2.3176    5.2842   -3.1585 C   0  0  0  1  0  0  0  0  0  0  0  0
   -1.9825    6.0702   -4.2447 C   0  0  0  1  0  0  0  0  0  0  0  0
   -0.7171    6.6296   -4.3311 C   0  0  0  1  0  0  0  0  0  0  0  0
    0.2110    6.3971   -3.3337 C   0  0  0  1  0  0  0  0  0  0  0  0
   -0.1254    5.6087   -2.2443 C   0  0  0  1  0  0  0  0  0  0  0  0
   -3.7928    4.6907   -0.8635 H   0  0  0  1  0  0  0  0  0  0  0  0
   -3.1205    4.0474    0.6157 H   0  0  0  1  0  0  0  0  0  0  0  0
   -1.9757    3.2055   -1.3306 H   0  0  0  1  0  0  0  0  0  0  0  0
   -0.9098    4.1481   -0.3159 H   0  0  0  1  0  0  0  0  0  0  0  0
   -3.2683    4.8677   -3.0917 H   0  0  0  1  0  0  0  0  0  0  0  0
   -2.6795    6.2419   -4.9973 H   0  0  0  1  0  0  0  0  0  0  0  0
   -0.4662    7.2244   -5.1465 H   0  0  0  1  0  0  0  0  0  0  0  0
    1.1616    6.8136   -3.4006 H   0  0  0  1  0  0  0  0  0  0  0  0
    0.5716    5.4370   -1.4918 H   0  0  0  1  0  0  0  0  0  0  0  0
  1  4  1  0  0  0  0
  2  4  1  0  0  0  0
  2  5  2  0  0  0  0
  2  6  1  0  0  0  0
  3  4  1  0  0  0  0
  3  7  1  0  0  0  0
  3  8  1  0  0  0  0
  4 19  1  0  0  0  0
  6  9  1  0  0  0  0
  6 12  1  0  0  0  0
  8 10  1  0  0  0  0
  8 11  2  0  0  0  0
  9 13  1  0  0  0  0
  9 14  1  0  0  0  0
  9 15  1  0  0  0  0
 10 16  1  0  0  0  0
 10 17  1  0  0  0  0
 10 18  1  0  0  0  0
 19 20  1  0  0  0  0
 19 27  1  0  0  0  0
 19 28  1  0  0  0  0
 20 21  1  0  0  0  0
 20 29  1  0  0  0  0
 20 30  1  0  0  0  0
 21 22  4  0  0  0  0
 21 26  4  0  0  0  0
 22 23  4  0  0  0  0
 22 31  1  0  0  0  0
 23 24  4  0  0  0  0
 23 32  1  0  0  0  0
 24 25  4  0  0  0  0
 24 33  1  0  0  0  0
 25 26  4  0  0  0  0
 25 34  1  0  0  0  0
 26 35  1  0  0  0  0
M  END
> <BCLConfClusterSize>
1

> <ConfClashScore>
0 

> <ConfOneFourInteractionScore>
-0.970454 

> <ConfScore>
0.304242 

> <ConfScorePBest>
0.00384653 

> <ConfTolerance>
0.614802 

> <RosettaParamsInstructions>
M  ROOT 3
M  POLY_N_BB 3
M  POLY_CA_BB 4
M  POLY_C_BB 2
M  POLY_O_BB 5
M  POLY_IGNORE 9 10 11 12 13 14 15 16 17 18 
M  POLY_UPPER 6
M  POLY_LOWER 8
M  POLY_CHG 0
M  POLY_PROPERTIES ALPHA_AA D_AA PROTEIN AROMATIC POLYMER 
M  END

$$$$



 35 35  0  0  0  0  0  0  0  0999 V2000
   -3.3137    4.6054    2.0370 H   0  0  0  1  0  0  0  0  0  0  0  0
   -1.2818    3.9862    2.0471 C   0  0  0  1  0  0  0  0  0  0  0  0
   -3.1359    2.7736    1.0506 N   0  0  0  1  0  0  0  0  0  0  0  0
   -2.6358    4.1195    1.3668 C   0  0  0  1  0  0  0  0  0  0  0  0
   -0.4443    4.8611    1.8334 O   0  0  0  1  0  0  0  0  0  0  0  0
   -1.1145    2.9150    2.8301 N   0  0  0  1  0  0  0  0  0  0  0  0
   -2.7189    2.0001    1.4844 H   0  0  0  1  0  0  0  0  0  0  0  0
   -4.1390    2.5684    0.1923 C   0  0  0  1  0  0  0  0  0  0  0  0
    0.1268    2.6619    3.5462 C   0  0  0  1  0  0  0  0  0  0  0  0
   -4.4319    1.0976   -0.1097 C   0  0  0  1  0  0  0  0  0  0  0  0
   -4.8488    3.4573   -0.2764 O   0  0  0  1  0  0  0  0  0  0  0  0
   -1.8535    2.2784    2.9248 H   0  0  0  1  0  0  0  0  0  0  0  0
    0.2782    1.6065    3.6365 H   0  0  0  1  0  0  0  0  0  0  0  0
    0.0711    3.0987    4.5214 H   0  0  0  1  0  0  0  0  0  0  0  0
    0.9438    3.0943    3.0073 H   0  0  0  1  0  0  0  0  0  0  0  0
   -3.5921    0.6615   -0.6092 H   0  0  0  1  0  0  0  0  0  0  0  0
   -5.2956    1.0277   -0.7374 H   0  0  0  1  0  0  0  0  0  0  0  0
   -4.6127    0.5748    0.8062 H   0  0  0  1  0  0  0  0  0  0  0  0
   -2.5363    4.9424    0.0915 C   0  0  0  1  0  0  0  0  0  0  0  0
   -1.7496    4.1900   -0.9776 C   0  0  0  1  0  0  0  0  0  0  0  0
   -1.3870    5.0508   -2.1581 C   0  0  0  1  0  0  0  0  0  0  0  0
   -2.3176    5.2842   -3.1585 C   0  0  0  1  0  0  0  0  0  0  0  0
   -1.9825    6.0702   -4.2447 C   0  0  0  1  0  0  0  0  0  0  0  0
   -0.7171    6.6296   -4.3311 C   0  0  0  1  0  0  0  0  0  0  0  0
    0.2110    6.3971   -3.3337 C   0  0  0  1  0  0  0  0  0  0  0  0
   -0.1254    5.6087   -2.2443 C   0  0  0  1  0  0  0  0  0  0  0  0
   -2.0403    5.8656    0.3075 H   0  0  0  1  0  0  0  0  0  0  0  0
   -3.5216    5.1433   -0.2741 H   0  0  0  1  0  0  0  0  0  0  0  0
   -2.3436    3.3701   -1.3237 H   0  0  0  1  0  0  0  0  0  0  0  0
   -0.8480    3.8174   -0.5380 H   0  0  0  1  0  0  0  0  0  0  0  0
   -3.2683    4.8677   -3.0917 H   0  0  0  1  0  0  0  0  0  0  0  0
   -2.6795    6.2419   -4.9973 H   0  0  0  1  0  0  0  0  0  0  0  0
   -0.4662    7.2244   -5.1465 H   0  0  0  1  0  0  0  0  0  0  0  0
    1.1616    6.8136   -3.4006 H   0  0  0  1  0  0  0  0  0  0  0  0
    0.5716    5.4370   -1.4918 H   0  0  0  1  0  0  0  0  0  0  0  0
  1  4  1  0  0  0  0
  2  4  1  0  0  0  0
  2  5  2  0  0  0  0
  2  6  1  0  0  0  0
  3  4  1  0  0  0  0
  3  7  1  0  0  0  0
  3  8  1  0  0  0  0
  4 19  1  0  0  0  0
  6  9  1  0  0  0  0
  6 12  1  0  0  0  0
  8 10  1  0  0  0  0
  8 11  2  0  0  0  0
  9 13  1  0  0  0  0
  9 14  1  0  0  0  0
  9 15  1  0  0  0  0
 10 16  1  0  0  0  0
 10 17  1  0  0  0  0
 10 18  1  0  0  0  0
 19 20  1  0  0  0  0
 19 27  1  0  0  0  0
 19 28  1  0  0  0  0
 20 21  1  0  0  0  0
 20 29  1  0  0  0  0
 20 30  1  0  0  0  0
 21 22  4  0  0  0  0
 21 26  4  0  0  0  0
 22 23  4  0  0  0  0
 22 31  1  0  0  0  0
 23 24  4  0  0  0  0
 23 32  1  0  0  0  0
 24 25  4  0  0  0  0
 24 33  1  0  0  0  0
 25 26  4  0  0  0  0
 25 34  1  0  0  0  0
 26 35  1  0  0  0  0
M  END
> <BCLConfClusterSize>
1

> <ConfClashScore>
0 

> <ConfOneFourInteractionScore>
-0.927473 

> <ConfScore>
0.3059 

> <ConfScorePBest>
0.00381805 

> <ConfTolerance>
0.756455 

> <RosettaParamsInstructions>
M  ROOT 3
M  POLY_N_BB 3
M  POLY_CA_BB 4
M  POLY_C_BB 2
M  POLY_O_BB 5
M  POLY_IGNORE 9 10 11 12 13 14 15 16 17 18 
M  POLY_UPPER 6
M  POLY_LOWER 8
M  POLY_CHG 0
M  POLY_PROPERTIES ALPHA_AA D_AA PROTEIN AROMATIC POLYMER 
M  END

$$$$



 35 35  0  0  0  0  0  0  0  0999 V2000
    0.1795    2.3631   -0.9399 H   0  0  0  1  0  0  0  0  0  0  0  0
    0.0676    2.6149   -3.0149 C   0  0  0  1  0  0  0  0  0  0  0  0
   -0.6091    0.6273   -1.7277 N   0  0  0  1  0  0  0  0  0  0  0  0
   -0.5135    2.0994   -1.7114 C   0  0  0  1  0  0  0  0  0  0  0  0
   -0.5258    2.4753   -4.0717 O   0  0  0  1  0  0  0  0  0  0  0  0
    1.2601    3.2244   -2.9212 N   0  0  0  1  0  0  0  0  0  0  0  0
   -1.4464    0.2046   -1.4439 H   0  0  0  1  0  0  0  0  0  0  0  0
    0.4162   -0.1572   -2.1197 C   0  0  0  1  0  0  0  0  0  0  0  0
    1.9223    3.8180   -4.0731 C   0  0  0  1  0  0  0  0  0  0  0  0
    0.2209   -1.6602   -2.0757 C   0  0  0  1  0  0  0  0  0  0  0  0
    1.4792    0.3301   -2.5020 O   0  0  0  1  0  0  0  0  0  0  0  0
    1.6999    3.2711   -2.0467 H   0  0  0  1  0  0  0  0  0  0  0  0
    2.9579    3.9700   -3.8507 H   0  0  0  1  0  0  0  0  0  0  0  0
    1.4652    4.7581   -4.3017 H   0  0  0  1  0  0  0  0  0  0  0  0
    1.8308    3.1625   -4.9139 H   0  0  0  1  0  0  0  0  0  0  0  0
   -0.0651   -1.9545   -1.0875 H   0  0  0  1  0  0  0  0  0  0  0  0
    1.1363   -2.1465   -2.3414 H   0  0  0  1  0  0  0  0  0  0  0  0
   -0.5462   -1.9404   -2.7670 H   0  0  0  1  0  0  0  0  0  0  0  0
   -1.8452    2.7140   -1.3256 C   0  0  0  1  0  0  0  0  0  0  0  0
   -1.7493    4.1907   -0.9786 C   0  0  0  1  0  0  0  0  0  0  0  0
   -1.3870    5.0507   -2.1580 C   0  0  0  1  0  0  0  0  0  0  0  0
   -2.3177    5.2841   -3.1584 C   0  0  0  1  0  0  0  0  0  0  0  0
   -1.9825    6.0701   -4.2447 C   0  0  0  1  0  0  0  0  0  0  0  0
   -0.7172    6.6296   -4.3310 C   0  0  0  1  0  0  0  0  0  0  0  0
    0.2110    6.3971   -3.3336 C   0  0  0  1  0  0  0  0  0  0  0  0
   -0.1254    5.6086   -2.2442 C   0  0  0  1  0  0  0  0  0  0  0  0
   -2.2270    2.1896   -0.4746 H   0  0  0  1  0  0  0  0  0  0  0  0
   -2.5213    2.6018   -2.1473 H   0  0  0  1  0  0  0  0  0  0  0  0
   -1.0013    4.3153   -0.2236 H   0  0  0  1  0  0  0  0  0  0  0  0
   -2.6964    4.5137   -0.5997 H   0  0  0  1  0  0  0  0  0  0  0  0
   -3.2683    4.8676   -3.0916 H   0  0  0  1  0  0  0  0  0  0  0  0
   -2.6795    6.2419   -4.9972 H   0  0  0  1  0  0  0  0  0  0  0  0
   -0.4662    7.2244   -5.1464 H   0  0  0  1  0  0  0  0  0  0  0  0
    1.1616    6.8135   -3.4005 H   0  0  0  1  0  0  0  0  0  0  0  0
    0.5716    5.4369   -1.4917 H   0  0  0  1  0  0  0  0  0  0  0  0
  1  4  1  0  0  0  0
  2  4  1  0  0  0  0
  2  5  2  0  0  0  0
  2  6  1  0  0  0  0
  3  4  1  0  0  0  0
  3  7  1  0  0  0  0
  3  8  1  0  0  0  0
  4 19  1  0  0  0  0
  6  9  1  0  0  0  0
  6 12  1  0  0  0  0
  8 10  1  0  0  0  0
  8 11  2  0  0  0  0
  9 13  1  0  0  0  0
  9 14  1  0  0  0  0
  9 15  1  0  0  0  0
 10 16  1  0  0  0  0
 10 17  1  0  0  0  0
 10 18  1  0  0  0  0
 19 20  1  0  0  0  0
 19 27  1  0  0  0  0
 19 28  1  0  0  0  0
 20 21  1  0  0  0  0
 20 29  1  0  0  0  0
 20 30  1  0  0  0  0
 21 22  4  0  0  0  0
 21 26  4  0  0  0  0
 22 23  4  0  0  0  0
 22 31  1  0  0  0  0
 23 24  4  0  0  0  0
 23 32  1  0  0  0  0
 24 25  4  0  0  0  0
 24 33  1  0  0  0  0
 25 26  4  0  0  0  0
 25 34  1  0  0  0  0
 26 35  1  0  0  0  0
M  END
> <BCLConfClusterSize>
1

> <ConfClashScore>
0 

> <ConfOneFourInteractionScore>
-0.98512 

> <ConfScore>
0.306182 

> <ConfScorePBest>
0.00378957 

> <ConfTolerance>
0.838083 

> <RosettaParamsInstructions>
M  ROOT 3
M  POLY_N_BB 3
M  POLY_CA_BB 4
M  POLY_C_BB 2
M  POLY_O_BB 5
M  POLY_IGNORE 9 10 11 12 13 14 15 16 17 18 
M  POLY_UPPER 6
M  POLY_LOWER 8
M  POLY_CHG 0
M  POLY_PROPERTIES ALPHA_AA D_AA PROTEIN AROMATIC POLYMER 
M  END

$$$$



 35 35  0  0  0  0  0  0  0  0999 V2000
   -2.8765    4.8825    2.2135 H   0  0  0  1  0  0  0  0  0  0  0  0
   -1.4776    3.3172    2.1152 C   0  0  0  1  0  0  0  0  0  0  0  0
   -3.6847    3.3488    1.0856 N   0  0  0  1  0  0  0  0  0  0  0  0
   -2.5410    4.1867    1.4731 C   0  0  0  1  0  0  0  0  0  0  0  0
   -1.4312    2.1058    1.9182 O   0  0  0  1  0  0  0  0  0  0  0  0
   -0.6232    3.9976    2.8957 N   0  0  0  1  0  0  0  0  0  0  0  0
   -3.6959    2.4079    1.3595 H   0  0  0  1  0  0  0  0  0  0  0  0
   -4.7095    3.8252    0.3731 C   0  0  0  1  0  0  0  0  0  0  0  0
    0.4719    3.3458    3.6052 C   0  0  0  1  0  0  0  0  0  0  0  0
   -5.6542    2.7659   -0.1901 C   0  0  0  1  0  0  0  0  0  0  0  0
   -4.8655    5.0242    0.1082 O   0  0  0  1  0  0  0  0  0  0  0  0
   -0.7393    4.9659    2.9920 H   0  0  0  1  0  0  0  0  0  0  0  0
    0.1668    3.1239    4.6065 H   0  0  0  1  0  0  0  0  0  0  0  0
    1.3202    3.9975    3.6273 H   0  0  0  1  0  0  0  0  0  0  0  0
    0.7320    2.4379    3.1024 H   0  0  0  1  0  0  0  0  0  0  0  0
   -5.9883    2.1282    0.6015 H   0  0  0  1  0  0  0  0  0  0  0  0
   -5.1386    2.1826   -0.9241 H   0  0  0  1  0  0  0  0  0  0  0  0
   -6.4976    3.2445   -0.6422 H   0  0  0  1  0  0  0  0  0  0  0  0
   -2.0516    4.9899    0.2833 C   0  0  0  1  0  0  0  0  0  0  0  0
   -1.7517    4.1850   -0.9707 C   0  0  0  1  0  0  0  0  0  0  0  0
   -1.3868    5.0513   -2.1587 C   0  0  0  1  0  0  0  0  0  0  0  0
   -2.3175    5.2846   -3.1591 C   0  0  0  1  0  0  0  0  0  0  0  0
   -1.9823    6.0706   -4.2454 C   0  0  0  1  0  0  0  0  0  0  0  0
   -0.7170    6.6301   -4.3317 C   0  0  0  1  0  0  0  0  0  0  0  0
    0.2112    6.3976   -3.3343 C   0  0  0  1  0  0  0  0  0  0  0  0
   -0.1252    5.6092   -2.2449 C   0  0  0  1  0  0  0  0  0  0  0  0
   -1.1539    5.4948    0.5734 H   0  0  0  1  0  0  0  0  0  0  0  0
   -2.8042    5.7106    0.0402 H   0  0  0  1  0  0  0  0  0  0  0  0
   -2.6186    3.6102   -1.2219 H   0  0  0  1  0  0  0  0  0  0  0  0
   -0.9337    3.5265   -0.7653 H   0  0  0  1  0  0  0  0  0  0  0  0
   -3.2681    4.8681   -3.0923 H   0  0  0  1  0  0  0  0  0  0  0  0
   -2.6793    6.2424   -4.9979 H   0  0  0  1  0  0  0  0  0  0  0  0
   -0.4660    7.2249   -5.1471 H   0  0  0  1  0  0  0  0  0  0  0  0
    1.1618    6.8141   -3.4012 H   0  0  0  1  0  0  0  0  0  0  0  0
    0.5718    5.4374   -1.4924 H   0  0  0  1  0  0  0  0  0  0  0  0
  1  4  1  0  0  0  0
  2  4  1  0  0  0  0
  2  5  2  0  0  0  0
  2  6  1  0  0  0  0
  3  4  1  0  0  0  0
  3  7  1  0  0  0  0
  3  8  1  0  0  0  0
  4 19  1  0  0  0  0
  6  9  1  0  0  0  0
  6 12  1  0  0  0  0
  8 10  1  0  0  0  0
  8 11  2  0  0  0  0
  9 13  1  0  0  0  0
  9 14  1  0  0  0  0
  9 15  1  0  0  0  0
 10 16  1  0  0  0  0
 10 17  1  0  0  0  0
 10 18  1  0  0  0  0
 19 20  1  0  0  0  0
 19 27  1  0  0  0  0
 19 28  1  0  0  0  0
 20 21  1  0  0  0  0
 20 29  1  0  0  0  0
 20 30  1  0  0  0  0
 21 22  4  0  0  0  0
 21 26  4  0  0  0  0
 22 23  4  0  0  0  0
 22 31  1  0  0  0  0
 23 24  4  0  0  0  0
 23 32  1  0  0  0  0
 24 25  4  0  0  0  0
 24 33  1  0  0  0  0
 25 26  4  0  0  0  0
 25 34  1  0  0  0  0
 26 35  1  0  0  0  0
M  END
> <BCLConfClusterSize>
1

> <ConfClashScore>
0 

> <ConfOneFourInteractionScore>
-0.972953 

> <ConfScore>
0.306603 

> <ConfScorePBest>
0.00376109 

> <ConfTolerance>
0.701831 

> <RosettaParamsInstructions>
M  ROOT 3
M  POLY_N_BB 3
M  POLY_CA_BB 4
M  POLY_C_BB 2
M  POLY_O_BB 5
M  POLY_IGNORE 9 10 11 12 13 14 15 16 17 18 
M  POLY_UPPER 6
M  POLY_LOWER 8
M  POLY_CHG 0
M  POLY_PROPERTIES ALPHA_AA D_AA PROTEIN AROMATIC POLYMER 
M  END

$$$$



 35 35  0  0  0  0  0  0  0  0999 V2000
    0.5352    3.1576   -1.9729 H   0  0  0  1  0  0  0  0  0  0  0  0
    0.4867    1.0735   -1.7058 C   0  0  0  1  0  0  0  0  0  0  0  0
    0.6944    2.7500    0.0487 N   0  0  0  1  0  0  0  0  0  0  0  0
    0.1059    2.4749   -1.2697 C   0  0  0  1  0  0  0  0  0  0  0  0
   -0.0227    0.0839   -1.1865 O   0  0  0  1  0  0  0  0  0  0  0  0
    1.4037    0.9958   -2.6822 N   0  0  0  1  0  0  0  0  0  0  0  0
    0.1173    3.0955    0.7615 H   0  0  0  1  0  0  0  0  0  0  0  0
    1.9887    2.5454    0.3093 C   0  0  0  1  0  0  0  0  0  0  0  0
    1.9366   -0.2978   -3.0829 C   0  0  0  1  0  0  0  0  0  0  0  0
    2.4190    2.7913    1.7424 C   0  0  0  1  0  0  0  0  0  0  0  0
    2.7933    2.1814   -0.5442 O   0  0  0  1  0  0  0  0  0  0  0  0
    1.7152    1.8119   -3.1264 H   0  0  0  1  0  0  0  0  0  0  0  0
    1.1323   -0.9926   -3.2067 H   0  0  0  1  0  0  0  0  0  0  0  0
    2.6051   -0.6570   -2.3286 H   0  0  0  1  0  0  0  0  0  0  0  0
    2.4641   -0.1948   -4.0081 H   0  0  0  1  0  0  0  0  0  0  0  0
    1.6071    2.5677    2.4024 H   0  0  0  1  0  0  0  0  0  0  0  0
    2.7010    3.8169    1.8588 H   0  0  0  1  0  0  0  0  0  0  0  0
    3.2526    2.1628    1.9770 H   0  0  0  1  0  0  0  0  0  0  0  0
   -1.3927    2.7331   -1.2417 C   0  0  0  1  0  0  0  0  0  0  0  0
   -1.7496    4.1900   -0.9776 C   0  0  0  1  0  0  0  0  0  0  0  0
   -1.3870    5.0508   -2.1581 C   0  0  0  1  0  0  0  0  0  0  0  0
   -2.3176    5.2842   -3.1585 C   0  0  0  1  0  0  0  0  0  0  0  0
   -1.9825    6.0702   -4.2447 C   0  0  0  1  0  0  0  0  0  0  0  0
   -0.7171    6.6296   -4.3311 C   0  0  0  1  0  0  0  0  0  0  0  0
    0.2110    6.3971   -3.3337 C   0  0  0  1  0  0  0  0  0  0  0  0
   -0.1254    5.6087   -2.2443 C   0  0  0  1  0  0  0  0  0  0  0  0
   -1.8261    2.1323   -0.4697 H   0  0  0  1  0  0  0  0  0  0  0  0
   -1.8036    2.4494   -2.1881 H   0  0  0  1  0  0  0  0  0  0  0  0
   -1.2142    4.5318   -0.1165 H   0  0  0  1  0  0  0  0  0  0  0  0
   -2.8016    4.2665   -0.7977 H   0  0  0  1  0  0  0  0  0  0  0  0
   -3.2683    4.8677   -3.0917 H   0  0  0  1  0  0  0  0  0  0  0  0
   -2.6795    6.2419   -4.9973 H   0  0  0  1  0  0  0  0  0  0  0  0
   -0.4662    7.2244   -5.1465 H   0  0  0  1  0  0  0  0  0  0  0  0
    1.1616    6.8136   -3.4006 H   0  0  0  1  0  0  0  0  0  0  0  0
    0.5716    5.4370   -1.4918 H   0  0  0  1  0  0  0  0  0  0  0  0
  1  4  1  0  0  0  0
  2  4  1  0  0  0  0
  2  5  2  0  0  0  0
  2  6  1  0  0  0  0
  3  4  1  0  0  0  0
  3  7  1  0  0  0  0
  3  8  1  0  0  0  0
  4 19  1  0  0  0  0
  6  9  1  0  0  0  0
  6 12  1  0  0  0  0
  8 10  1  0  0  0  0
  8 11  2  0  0  0  0
  9 13  1  0  0  0  0
  9 14  1  0  0  0  0
  9 15  1  0  0  0  0
 10 16  1  0  0  0  0
 10 17  1  0  0  0  0
 10 18  1  0  0  0  0
 19 20  1  0  0  0  0
 19 27  1  0  0  0  0
 19 28  1  0  0  0  0
 20 21  1  0  0  0  0
 20 29  1  0  0  0  0
 20 30  1  0  0  0  0
 21 22  4  0  0  0  0
 21 26  4  0  0  0  0
 22 23  4  0  0  0  0
 22 31  1  0  0  0  0
 23 24  4  0  0  0  0
 23 32  1  0  0  0  0
 24 25  4  0  0  0  0
 24 33  1  0  0  0  0
 25 26  4  0  0  0  0
 25 34  1  0  0  0  0
 26 35  1  0  0  0  0
M  END
> <BCLConfClusterSize>
1

> <ConfClashScore>
0 

> <ConfOneFourInteractionScore>
-0.979625 

> <ConfScore>
0.306991 

> <ConfScorePBest>
0.00373261 

> <ConfTolerance>
0.698474 

> <RosettaParamsInstructions>
M  ROOT 3
M  POLY_N_BB 3
M  POLY_CA_BB 4
M  POLY_C_BB 2
M  POLY_O_BB 5
M  POLY_IGNORE 9 10 11 12 13 14 15 16 17 18 
M  POLY_UPPER 6
M  POLY_LOWER 8
M  POLY_CHG 0
M  POLY_PROPERTIES ALPHA_AA D_AA PROTEIN AROMATIC POLYMER 
M  END

$$$$



 35 35  0  0  0  0  0  0  0  0999 V2000
   -3.1265    2.0339    0.1921 H   0  0  0  1  0  0  0  0  0  0  0  0
   -5.1556    2.5354    0.0954 C   0  0  0  1  0  0  0  0  0  0  0  0
   -3.3956    3.7302    1.3345 N   0  0  0  1  0  0  0  0  0  0  0  0
   -3.6942    2.9386    0.1261 C   0  0  0  1  0  0  0  0  0  0  0  0
   -5.6085    1.7194    0.8937 O   0  0  0  1  0  0  0  0  0  0  0  0
   -5.9035    3.1251   -0.8507 N   0  0  0  1  0  0  0  0  0  0  0  0
   -2.4838    3.6864    1.6911 H   0  0  0  1  0  0  0  0  0  0  0  0
   -4.2783    4.5057    1.9823 C   0  0  0  1  0  0  0  0  0  0  0  0
   -7.3296    2.9070   -1.0415 C   0  0  0  1  0  0  0  0  0  0  0  0
   -3.7626    5.1318    3.2760 C   0  0  0  1  0  0  0  0  0  0  0  0
   -5.4457    4.6589    1.6255 O   0  0  0  1  0  0  0  0  0  0  0  0
   -5.4553    3.7496   -1.4587 H   0  0  0  1  0  0  0  0  0  0  0  0
   -7.7558    2.5213   -0.1390 H   0  0  0  1  0  0  0  0  0  0  0  0
   -7.4798    2.2050   -1.8350 H   0  0  0  1  0  0  0  0  0  0  0  0
   -7.8018    3.8342   -1.2908 H   0  0  0  1  0  0  0  0  0  0  0  0
   -3.0601    4.4700    3.7379 H   0  0  0  1  0  0  0  0  0  0  0  0
   -4.5830    5.3017    3.9416 H   0  0  0  1  0  0  0  0  0  0  0  0
   -3.2833    6.0626    3.0552 H   0  0  0  1  0  0  0  0  0  0  0  0
   -3.2115    3.6626   -1.1161 C   0  0  0  1  0  0  0  0  0  0  0  0
   -1.7891    4.1846   -0.9948 C   0  0  0  1  0  0  0  0  0  0  0  0
   -1.3784    5.0520   -2.1545 C   0  0  0  1  0  0  0  0  0  0  0  0
   -2.3122    5.2828   -3.1526 C   0  0  0  1  0  0  0  0  0  0  0  0
   -1.9813    6.0682   -4.2406 C   0  0  0  1  0  0  0  0  0  0  0  0
   -0.7171    6.6296   -4.3310 C   0  0  0  1  0  0  0  0  0  0  0  0
    0.2141    6.3997   -3.3359 C   0  0  0  1  0  0  0  0  0  0  0  0
   -0.1180    5.6119   -2.2447 C   0  0  0  1  0  0  0  0  0  0  0  0
   -3.8626    4.4916   -1.3000 H   0  0  0  1  0  0  0  0  0  0  0  0
   -3.2547    2.9843   -1.9425 H   0  0  0  1  0  0  0  0  0  0  0  0
   -1.1230    3.3489   -0.9420 H   0  0  0  1  0  0  0  0  0  0  0  0
   -1.7128    4.7595   -0.0956 H   0  0  0  1  0  0  0  0  0  0  0  0
   -3.2620    4.8648   -3.0828 H   0  0  0  1  0  0  0  0  0  0  0  0
   -2.6806    6.2379   -4.9914 H   0  0  0  1  0  0  0  0  0  0  0  0
   -0.4693    7.2239   -5.1477 H   0  0  0  1  0  0  0  0  0  0  0  0
    1.1639    6.8177   -3.4058 H   0  0  0  1  0  0  0  0  0  0  0  0
    0.5813    5.4421   -1.4939 H   0  0  0  1  0  0  0  0  0  0  0  0
  1  4  1  0  0  0  0
  2  4  1  0  0  0  0
  2  5  2  0  0  0  0
  2  6  1  0  0  0  0
  3  4  1  0  0  0  0
  3  7  1  0  0  0  0
  3  8  1  0  0  0  0
  4 19  1  0  0  0  0
  6  9  1  0  0  0  0
  6 12  1  0  0  0  0
  8 10  1  0  0  0  0
  8 11  2  0  0  0  0
  9 13  1  0  0  0  0
  9 14  1  0  0  0  0
  9 15  1  0  0  0  0
 10 16  1  0  0  0  0
 10 17  1  0  0  0  0
 10 18  1  0  0  0  0
 19 20  1  0  0  0  0
 19 27  1  0  0  0  0
 19 28  1  0  0  0  0
 20 21  1  0  0  0  0
 20 29  1  0  0  0  0
 20 30  1  0  0  0  0
 21 22  4  0  0  0  0
 21 26  4  0  0  0  0
 22 23  4  0  0  0  0
 22 31  1  0  0  0  0
 23 24  4  0  0  0  0
 23 32  1  0  0  0  0
 24 25  4  0  0  0  0
 24 33  1  0  0  0  0
 25 26  4  0  0  0  0
 25 34  1  0  0  0  0
 26 35  1  0  0  0  0
M  END
> <BCLConfClusterSize>
1

> <ConfClashScore>
0 

> <ConfOneFourInteractionScore>
-0.956921 

> <ConfScore>
0.30709 

> <ConfScorePBest>
0.00370413 

> <ConfTolerance>
0.619149 

> <RosettaParamsInstructions>
M  ROOT 3
M  POLY_N_BB 3
M  POLY_CA_BB 4
M  POLY_C_BB 2
M  POLY_O_BB 5
M  POLY_IGNORE 9 10 11 12 13 14 15 16 17 18 
M  POLY_UPPER 6
M  POLY_LOWER 8
M  POLY_CHG 0
M  POLY_PROPERTIES ALPHA_AA D_AA PROTEIN AROMATIC POLYMER 
M  END

$$$$



 35 35  0  0  0  0  0  0  0  0999 V2000
   -1.2956    2.0221    0.7011 H   0  0  0  1  0  0  0  0  0  0  0  0
   -1.8951    0.3540   -0.4460 C   0  0  0  1  0  0  0  0  0  0  0  0
   -3.3418    2.1510    0.4141 N   0  0  0  1  0  0  0  0  0  0  0  0
   -2.0072    1.8192   -0.0718 C   0  0  0  1  0  0  0  0  0  0  0  0
   -1.5322    0.0085   -1.5673 O   0  0  0  1  0  0  0  0  0  0  0  0
   -2.2157   -0.5208    0.5204 N   0  0  0  1  0  0  0  0  0  0  0  0
   -3.4495    2.2996    1.3768 H   0  0  0  1  0  0  0  0  0  0  0  0
   -4.4331    2.2680   -0.3575 C   0  0  0  1  0  0  0  0  0  0  0  0
   -1.9959   -1.9523    0.3774 C   0  0  0  1  0  0  0  0  0  0  0  0
   -5.6863    2.7555    0.3434 C   0  0  0  1  0  0  0  0  0  0  0  0
   -4.4360    2.0020   -1.5566 O   0  0  0  1  0  0  0  0  0  0  0  0
   -2.6117   -0.1838    1.3511 H   0  0  0  1  0  0  0  0  0  0  0  0
   -1.2549   -2.1264   -0.3746 H   0  0  0  1  0  0  0  0  0  0  0  0
   -2.9115   -2.4268    0.0922 H   0  0  0  1  0  0  0  0  0  0  0  0
   -1.6595   -2.3561    1.3094 H   0  0  0  1  0  0  0  0  0  0  0  0
   -6.4824    2.8403   -0.3664 H   0  0  0  1  0  0  0  0  0  0  0  0
   -5.4987    3.7121    0.7845 H   0  0  0  1  0  0  0  0  0  0  0  0
   -5.9620    2.0581    1.1066 H   0  0  0  1  0  0  0  0  0  0  0  0
   -1.6676    2.6974   -1.2707 C   0  0  0  1  0  0  0  0  0  0  0  0
   -1.7517    4.1851   -0.9709 C   0  0  0  1  0  0  0  0  0  0  0  0
   -1.3868    5.0513   -2.1587 C   0  0  0  1  0  0  0  0  0  0  0  0
   -2.3175    5.2846   -3.1591 C   0  0  0  1  0  0  0  0  0  0  0  0
   -1.9823    6.0706   -4.2454 C   0  0  0  1  0  0  0  0  0  0  0  0
   -0.7170    6.6301   -4.3317 C   0  0  0  1  0  0  0  0  0  0  0  0
    0.2112    6.3976   -3.3343 C   0  0  0  1  0  0  0  0  0  0  0  0
   -0.1252    5.6091   -2.2449 C   0  0  0  1  0  0  0  0  0  0  0  0
   -2.3521    2.4714   -2.0615 H   0  0  0  1  0  0  0  0  0  0  0  0
   -0.6704    2.4706   -1.5857 H   0  0  0  1  0  0  0  0  0  0  0  0
   -1.0814    4.4091   -0.1674 H   0  0  0  1  0  0  0  0  0  0  0  0
   -2.7536    4.4169   -0.6754 H   0  0  0  1  0  0  0  0  0  0  0  0
   -3.2681    4.8681   -3.0923 H   0  0  0  1  0  0  0  0  0  0  0  0
   -2.6793    6.2424   -4.9979 H   0  0  0  1  0  0  0  0  0  0  0  0
   -0.4660    7.2249   -5.1471 H   0  0  0  1  0  0  0  0  0  0  0  0
    1.1618    6.8140   -3.4012 H   0  0  0  1  0  0  0  0  0  0  0  0
    0.5718    5.4374   -1.4924 H   0  0  0  1  0  0  0  0  0  0  0  0
  1  4  1  0  0  0  0
  2  4  1  0  0  0  0
  2  5  2  0  0  0  0
  2  6  1  0  0  0  0
  3  4  1  0  0  0  0
  3  7  1  0  0  0  0
  3  8  1  0  0  0  0
  4 19  1  0  0  0  0
  6  9  1  0  0  0  0
  6 12  1  0  0  0  0
  8 10  1  0  0  0  0
  8 11  2  0  0  0  0
  9 13  1  0  0  0  0
  9 14  1  0  0  0  0
  9 15  1  0  0  0  0
 10 16  1  0  0  0  0
 10 17  1  0  0  0  0
 10 18  1  0  0  0  0
 19 20  1  0  0  0  0
 19 27  1  0  0  0  0
 19 28  1  0  0  0  0
 20 21  1  0  0  0  0
 20 29  1  0  0  0  0
 20 30  1  0  0  0  0
 21 22  4  0  0  0  0
 21 26  4  0  0  0  0
 22 23  4  0  0  0  0
 22 31  1  0  0  0  0
 23 24  4  0  0  0  0
 23 32  1  0  0  0  0
 24 25  4  0  0  0  0
 24 33  1  0  0  0  0
 25 26  4  0  0  0  0
 25 34  1  0  0  0  0
 26 35  1  0  0  0  0
M  END
> <BCLConfClusterSize>
1

> <ConfClashScore>
0 

> <ConfOneFourInteractionScore>
-0.983489 

> <ConfScore>
0.310669 

> <ConfScorePBest>
0.00367564 

> <ConfTolerance>
0.547187 

> <RosettaParamsInstructions>
M  ROOT 3
M  POLY_N_BB 3
M  POLY_CA_BB 4
M  POLY_C_BB 2
M  POLY_O_BB 5
M  POLY_IGNORE 9 10 11 12 13 14 15 16 17 18 
M  POLY_UPPER 6
M  POLY_LOWER 8
M  POLY_CHG 0
M  POLY_PROPERTIES ALPHA_AA D_AA PROTEIN AROMATIC POLYMER 
M  END

$$$$



 35 35  0  0  0  0  0  0  0  0999 V2000
   -2.8821    3.5821    1.4787 H   0  0  0  1  0  0  0  0  0  0  0  0
   -1.5536    4.3864    2.8939 C   0  0  0  1  0  0  0  0  0  0  0  0
   -1.1224    2.5272    1.3354 N   0  0  0  1  0  0  0  0  0  0  0  0
   -1.8321    3.7811    1.5318 C   0  0  0  1  0  0  0  0  0  0  0  0
   -1.2147    3.6923    3.8505 O   0  0  0  1  0  0  0  0  0  0  0  0
   -1.7164    5.7427    2.9359 N   0  0  0  1  0  0  0  0  0  0  0  0
   -1.6208    1.7124    1.1161 H   0  0  0  1  0  0  0  0  0  0  0  0
    0.2134    2.4835    1.4538 C   0  0  0  1  0  0  0  0  0  0  0  0
   -1.6344    6.4511    4.2083 C   0  0  0  1  0  0  0  0  0  0  0  0
    0.8041    1.0997    1.2158 C   0  0  0  1  0  0  0  0  0  0  0  0
    0.9241    3.4497    1.7273 O   0  0  0  1  0  0  0  0  0  0  0  0
   -1.8885    6.2404    2.1094 H   0  0  0  1  0  0  0  0  0  0  0  0
   -0.8153    6.0664    4.7791 H   0  0  0  1  0  0  0  0  0  0  0  0
   -2.5449    6.3121    4.7529 H   0  0  0  1  0  0  0  0  0  0  0  0
   -1.4830    7.4946    4.0262 H   0  0  0  1  0  0  0  0  0  0  0  0
    1.7462    1.0225    1.7172 H   0  0  0  1  0  0  0  0  0  0  0  0
    0.9454    0.9482    0.1661 H   0  0  0  1  0  0  0  0  0  0  0  0
    0.1355    0.3564    1.5971 H   0  0  0  1  0  0  0  0  0  0  0  0
   -1.4983    4.7576    0.4099 C   0  0  0  1  0  0  0  0  0  0  0  0
   -1.7496    4.1900   -0.9776 C   0  0  0  1  0  0  0  0  0  0  0  0
   -1.3870    5.0508   -2.1581 C   0  0  0  1  0  0  0  0  0  0  0  0
   -2.3176    5.2842   -3.1585 C   0  0  0  1  0  0  0  0  0  0  0  0
   -1.9825    6.0702   -4.2447 C   0  0  0  1  0  0  0  0  0  0  0  0
   -0.7171    6.6296   -4.3311 C   0  0  0  1  0  0  0  0  0  0  0  0
    0.2110    6.3971   -3.3337 C   0  0  0  1  0  0  0  0  0  0  0  0
   -0.1254    5.6087   -2.2443 C   0  0  0  1  0  0  0  0  0  0  0  0
   -0.4641    5.0214    0.4863 H   0  0  0  1  0  0  0  0  0  0  0  0
   -2.1003    5.6336    0.5322 H   0  0  0  1  0  0  0  0  0  0  0  0
   -2.7946    3.9715   -1.0497 H   0  0  0  1  0  0  0  0  0  0  0  0
   -1.1886    3.2825   -1.0587 H   0  0  0  1  0  0  0  0  0  0  0  0
   -3.2683    4.8677   -3.0917 H   0  0  0  1  0  0  0  0  0  0  0  0
   -2.6795    6.2419   -4.9973 H   0  0  0  1  0  0  0  0  0  0  0  0
   -0.4662    7.2244   -5.1465 H   0  0  0  1  0  0  0  0  0  0  0  0
    1.1616    6.8136   -3.4006 H   0  0  0  1  0  0  0  0  0  0  0  0
    0.5716    5.4370   -1.4918 H   0  0  0  1  0  0  0  0  0  0  0  0
  1  4  1  0  0  0  0
  2  4  1  0  0  0  0
  2  5  2  0  0  0  0
  2  6  1  0  0  0  0
  3  4  1  0  0  0  0
  3  7  1  0  0  0  0
  3  8  1  0  0  0  0
  4 19  1  0  0  0  0
  6  9  1  0  0  0  0
  6 12  1  0  0  0  0
  8 10  1  0  0  0  0
  8 11  2  0  0  0  0
  9 13  1  0  0  0  0
  9 14  1  0  0  0  0
  9 15  1  0  0  0  0
 10 16  1  0  0  0  0
 10 17  1  0  0  0  0
 10 18  1  0  0  0  0
 19 20  1  0  0  0  0
 19 27  1  0  0  0  0
 19 28  1  0  0  0  0
 20 21  1  0  0  0  0
 20 29  1  0  0  0  0
 20 30  1  0  0  0  0
 21 22  4  0  0  0  0
 21 26  4  0  0  0  0
 22 23  4  0  0  0  0
 22 31  1  0  0  0  0
 23 24  4  0  0  0  0
 23 32  1  0  0  0  0
 24 25  4  0  0  0  0
 24 33  1  0  0  0  0
 25 26  4  0  0  0  0
 25 34  1  0  0  0  0
 26 35  1  0  0  0  0
M  END
> <BCLConfClusterSize>
1

> <ConfClashScore>
0 

> <ConfOneFourInteractionScore>
-0.948727 

> <ConfScore>
0.31088 

> <ConfScorePBest>
0.00364716 

> <ConfTolerance>
0.644107 

> <RosettaParamsInstructions>
M  ROOT 3
M  POLY_N_BB 3
M  POLY_CA_BB 4
M  POLY_C_BB 2
M  POLY_O_BB 5
M  POLY_IGNORE 9 10 11 12 13 14 15 16 17 18 
M  POLY_UPPER 6
M  POLY_LOWER 8
M  POLY_CHG 0
M  POLY_PROPERTIES ALPHA_AA D_AA PROTEIN AROMATIC POLYMER 
M  END

$$$$



 35 35  0  0  0  0  0  0  0  0999 V2000
   -3.8331    5.8692   -1.4013 H   0  0  0  1  0  0  0  0  0  0  0  0
   -4.6101    6.3526    0.4947 C   0  0  0  1  0  0  0  0  0  0  0  0
   -4.7086    4.1658   -0.6476 N   0  0  0  1  0  0  0  0  0  0  0  0
   -3.9284    5.3792   -0.4549 C   0  0  0  1  0  0  0  0  0  0  0  0
   -4.5024    7.5688    0.3476 O   0  0  0  1  0  0  0  0  0  0  0  0
   -5.3210    5.7992    1.4814 N   0  0  0  1  0  0  0  0  0  0  0  0
   -4.6313    3.4443    0.0111 H   0  0  0  1  0  0  0  0  0  0  0  0
   -5.5299    4.0007   -1.6956 C   0  0  0  1  0  0  0  0  0  0  0  0
   -5.9206    6.5903    2.5456 C   0  0  0  1  0  0  0  0  0  0  0  0
   -6.2495    2.6734   -1.8351 C   0  0  0  1  0  0  0  0  0  0  0  0
   -5.6946    4.8911   -2.5140 O   0  0  0  1  0  0  0  0  0  0  0  0
   -5.4428    4.8269    1.4887 H   0  0  0  1  0  0  0  0  0  0  0  0
   -6.9796    6.4375    2.5509 H   0  0  0  1  0  0  0  0  0  0  0  0
   -5.7109    7.6265    2.3809 H   0  0  0  1  0  0  0  0  0  0  0  0
   -5.5122    6.2885    3.4874 H   0  0  0  1  0  0  0  0  0  0  0  0
   -6.9344    2.5512   -1.0221 H   0  0  0  1  0  0  0  0  0  0  0  0
   -5.5347    1.8773   -1.8217 H   0  0  0  1  0  0  0  0  0  0  0  0
   -6.7873    2.6550   -2.7600 H   0  0  0  1  0  0  0  0  0  0  0  0
   -2.5289    5.0339    0.0166 C   0  0  0  1  0  0  0  0  0  0  0  0
   -1.7496    4.1900   -0.9776 C   0  0  0  1  0  0  0  0  0  0  0  0
   -1.3870    5.0508   -2.1581 C   0  0  0  1  0  0  0  0  0  0  0  0
   -2.3176    5.2842   -3.1585 C   0  0  0  1  0  0  0  0  0  0  0  0
   -1.9825    6.0702   -4.2447 C   0  0  0  1  0  0  0  0  0  0  0  0
   -0.7171    6.6296   -4.3311 C   0  0  0  1  0  0  0  0  0  0  0  0
    0.2110    6.3971   -3.3337 C   0  0  0  1  0  0  0  0  0  0  0  0
   -0.1254    5.6087   -2.2443 C   0  0  0  1  0  0  0  0  0  0  0  0
   -2.6048    4.4916    0.9359 H   0  0  0  1  0  0  0  0  0  0  0  0
   -1.9925    5.9447    0.1824 H   0  0  0  1  0  0  0  0  0  0  0  0
   -2.3523    3.3679   -1.3028 H   0  0  0  1  0  0  0  0  0  0  0  0
   -0.8589    3.8190   -0.5151 H   0  0  0  1  0  0  0  0  0  0  0  0
   -3.2683    4.8677   -3.0917 H   0  0  0  1  0  0  0  0  0  0  0  0
   -2.6795    6.2419   -4.9973 H   0  0  0  1  0  0  0  0  0  0  0  0
   -0.4662    7.2244   -5.1465 H   0  0  0  1  0  0  0  0  0  0  0  0
    1.1616    6.8136   -3.4006 H   0  0  0  1  0  0  0  0  0  0  0  0
    0.5716    5.4370   -1.4918 H   0  0  0  1  0  0  0  0  0  0  0  0
  1  4  1  0  0  0  0
  2  4  1  0  0  0  0
  2  5  2  0  0  0  0
  2  6  1  0  0  0  0
  3  4  1  0  0  0  0
  3  7  1  0  0  0  0
  3  8  1  0  0  0  0
  4 19  1  0  0  0  0
  6  9  1  0  0  0  0
  6 12  1  0  0  0  0
  8 10  1  0  0  0  0
  8 11  2  0  0  0  0
  9 13  1  0  0  0  0
  9 14  1  0  0  0  0
  9 15  1  0  0  0  0
 10 16  1  0  0  0  0
 10 17  1  0  0  0  0
 10 18  1  0  0  0  0
 19 20  1  0  0  0  0
 19 27  1  0  0  0  0
 19 28  1  0  0  0  0
 20 21  1  0  0  0  0
 20 29  1  0  0  0  0
 20 30  1  0  0  0  0
 21 22  4  0  0  0  0
 21 26  4  0  0  0  0
 22 23  4  0  0  0  0
 22 31  1  0  0  0  0
 23 24  4  0  0  0  0
 23 32  1  0  0  0  0
 24 25  4  0  0  0  0
 24 33  1  0  0  0  0
 25 26  4  0  0  0  0
 25 34  1  0  0  0  0
 26 35  1  0  0  0  0
M  END
> <BCLConfClusterSize>
1

> <ConfClashScore>
0 

> <ConfOneFourInteractionScore>
-0.970454 

> <ConfScore>
0.313641 

> <ConfScorePBest>
0.00361868 

> <ConfTolerance>
0.66743 

> <RosettaParamsInstructions>
M  ROOT 3
M  POLY_N_BB 3
M  POLY_CA_BB 4
M  POLY_C_BB 2
M  POLY_O_BB 5
M  POLY_IGNORE 9 10 11 12 13 14 15 16 17 18 
M  POLY_UPPER 6
M  POLY_LOWER 8
M  POLY_CHG 0
M  POLY_PROPERTIES ALPHA_AA D_AA PROTEIN AROMATIC POLYMER 
M  END

$$$$



 35 35  0  0  0  0  0  0  0  0999 V2000
   -3.2276    3.3365    1.1006 H   0  0  0  1  0  0  0  0  0  0  0  0
   -2.4788    1.5453    0.2863 C   0  0  0  1  0  0  0  0  0  0  0  0
   -4.8002    2.2946    0.2521 N   0  0  0  1  0  0  0  0  0  0  0  0
   -3.4035    2.7514    0.2222 C   0  0  0  1  0  0  0  0  0  0  0  0
   -1.4829    1.4658   -0.4309 O   0  0  0  1  0  0  0  0  0  0  0  0
   -2.8222    0.5959    1.1633 N   0  0  0  1  0  0  0  0  0  0  0  0
   -5.3379    2.4693    1.0526 H   0  0  0  1  0  0  0  0  0  0  0  0
   -5.3678    1.6433   -0.7842 C   0  0  0  1  0  0  0  0  0  0  0  0
   -2.0651   -0.6384    1.3089 C   0  0  0  1  0  0  0  0  0  0  0  0
   -6.8620    1.3899   -0.7346 C   0  0  0  1  0  0  0  0  0  0  0  0
   -4.6963    1.2657   -1.7407 O   0  0  0  1  0  0  0  0  0  0  0  0
   -3.6111    0.7362    1.7275 H   0  0  0  1  0  0  0  0  0  0  0  0
   -1.0790   -0.5009    0.9170 H   0  0  0  1  0  0  0  0  0  0  0  0
   -2.5559   -1.4230    0.7720 H   0  0  0  1  0  0  0  0  0  0  0  0
   -2.0038   -0.8987    2.3450 H   0  0  0  1  0  0  0  0  0  0  0  0
   -7.0969    0.8072    0.1315 H   0  0  0  1  0  0  0  0  0  0  0  0
   -7.1628    0.8592   -1.6136 H   0  0  0  1  0  0  0  0  0  0  0  0
   -7.3806    2.3246   -0.6868 H   0  0  0  1  0  0  0  0  0  0  0  0
   -3.1704    3.6499   -0.9771 C   0  0  0  1  0  0  0  0  0  0  0  0
   -1.7496    4.1900   -0.9776 C   0  0  0  1  0  0  0  0  0  0  0  0
   -1.3870    5.0508   -2.1581 C   0  0  0  1  0  0  0  0  0  0  0  0
   -2.3176    5.2842   -3.1585 C   0  0  0  1  0  0  0  0  0  0  0  0
   -1.9825    6.0702   -4.2447 C   0  0  0  1  0  0  0  0  0  0  0  0
   -0.7171    6.6296   -4.3311 C   0  0  0  1  0  0  0  0  0  0  0  0
    0.2110    6.3971   -3.3337 C   0  0  0  1  0  0  0  0  0  0  0  0
   -0.1254    5.6087   -2.2443 C   0  0  0  1  0  0  0  0  0  0  0  0
   -3.8573    4.4694   -0.9403 H   0  0  0  1  0  0  0  0  0  0  0  0
   -3.3324    3.0880   -1.8732 H   0  0  0  1  0  0  0  0  0  0  0  0
   -1.0794    3.3561   -0.9589 H   0  0  0  1  0  0  0  0  0  0  0  0
   -1.6181    4.7738   -0.0906 H   0  0  0  1  0  0  0  0  0  0  0  0
   -3.2683    4.8677   -3.0917 H   0  0  0  1  0  0  0  0  0  0  0  0
   -2.6795    6.2419   -4.9973 H   0  0  0  1  0  0  0  0  0  0  0  0
   -0.4662    7.2244   -5.1465 H   0  0  0  1  0  0  0  0  0  0  0  0
    1.1616    6.8136   -3.4006 H   0  0  0  1  0  0  0  0  0  0  0  0
    0.5716    5.4370   -1.4918 H   0  0  0  1  0  0  0  0  0  0  0  0
  1  4  1  0  0  0  0
  2  4  1  0  0  0  0
  2  5  2  0  0  0  0
  2  6  1  0  0  0  0
  3  4  1  0  0  0  0
  3  7  1  0  0  0  0
  3  8  1  0  0  0  0
  4 19  1  0  0  0  0
  6  9  1  0  0  0  0
  6 12  1  0  0  0  0
  8 10  1  0  0  0  0
  8 11  2  0  0  0  0
  9 13  1  0  0  0  0
  9 14  1  0  0  0  0
  9 15  1  0  0  0  0
 10 16  1  0  0  0  0
 10 17  1  0  0  0  0
 10 18  1  0  0  0  0
 19 20  1  0  0  0  0
 19 27  1  0  0  0  0
 19 28  1  0  0  0  0
 20 21  1  0  0  0  0
 20 29  1  0  0  0  0
 20 30  1  0  0  0  0
 21 22  4  0  0  0  0
 21 26  4  0  0  0  0
 22 23  4  0  0  0  0
 22 31  1  0  0  0  0
 23 24  4  0  0  0  0
 23 32  1  0  0  0  0
 24 25  4  0  0  0  0
 24 33  1  0  0  0  0
 25 26  4  0  0  0  0
 25 34  1  0  0  0  0
 26 35  1  0  0  0  0
M  END
> <BCLConfClusterSize>
1

> <ConfClashScore>
0 

> <ConfOneFourInteractionScore>
-0.96157 

> <ConfScore>
0.314207 

> <ConfScorePBest>
0.0035902 

> <ConfTolerance>
0.582345 

> <RosettaParamsInstructions>
M  ROOT 3
M  POLY_N_BB 3
M  POLY_CA_BB 4
M  POLY_C_BB 2
M  POLY_O_BB 5
M  POLY_IGNORE 9 10 11 12 13 14 15 16 17 18 
M  POLY_UPPER 6
M  POLY_LOWER 8
M  POLY_CHG 0
M  POLY_PROPERTIES ALPHA_AA D_AA PROTEIN AROMATIC POLYMER 
M  END

$$$$



 35 35  0  0  0  0  0  0  0  0999 V2000
   -3.6261    3.4757    0.8702 H   0  0  0  1  0  0  0  0  0  0  0  0
   -2.5690    1.6661    0.5552 C   0  0  0  1  0  0  0  0  0  0  0  0
   -4.8745    2.2158   -0.2005 N   0  0  0  1  0  0  0  0  0  0  0  0
   -3.5495    2.7374    0.0995 C   0  0  0  1  0  0  0  0  0  0  0  0
   -1.4319    1.9556    0.9179 O   0  0  0  1  0  0  0  0  0  0  0  0
   -3.0270    0.4141    0.5319 N   0  0  0  1  0  0  0  0  0  0  0  0
   -5.0811    1.8957   -1.1034 H   0  0  0  1  0  0  0  0  0  0  0  0
   -5.8099    2.1723    0.7525 C   0  0  0  1  0  0  0  0  0  0  0  0
   -2.1884   -0.7268    0.8679 C   0  0  0  1  0  0  0  0  0  0  0  0
   -7.1373    1.5629    0.3453 C   0  0  0  1  0  0  0  0  0  0  0  0
   -5.6258    2.5917    1.8847 O   0  0  0  1  0  0  0  0  0  0  0  0
   -3.9609    0.2567    0.2798 H   0  0  0  1  0  0  0  0  0  0  0  0
   -2.4669   -1.5649    0.2639 H   0  0  0  1  0  0  0  0  0  0  0  0
   -2.3187   -0.9730    1.9010 H   0  0  0  1  0  0  0  0  0  0  0  0
   -1.1630   -0.4813    0.6858 H   0  0  0  1  0  0  0  0  0  0  0  0
   -7.1356    0.5176    0.5740 H   0  0  0  1  0  0  0  0  0  0  0  0
   -7.2837    1.6975   -0.7061 H   0  0  0  1  0  0  0  0  0  0  0  0
   -7.9293    2.0436    0.8806 H   0  0  0  1  0  0  0  0  0  0  0  0
   -2.9879    3.3883   -1.1182 C   0  0  0  1  0  0  0  0  0  0  0  0
   -1.7068    4.1969   -0.9607 C   0  0  0  1  0  0  0  0  0  0  0  0
   -1.3961    5.0494   -2.1618 C   0  0  0  1  0  0  0  0  0  0  0  0
   -2.3235    5.2856   -3.1647 C   0  0  0  1  0  0  0  0  0  0  0  0
   -1.9838    6.0723   -4.2490 C   0  0  0  1  0  0  0  0  0  0  0  0
   -0.7172    6.6296   -4.3310 C   0  0  0  1  0  0  0  0  0  0  0  0
    0.2076    6.3943   -3.3312 C   0  0  0  1  0  0  0  0  0  0  0  0
   -0.1333    5.6052   -2.2437 C   0  0  0  1  0  0  0  0  0  0  0  0
   -3.7373    4.0484   -1.5023 H   0  0  0  1  0  0  0  0  0  0  0  0
   -2.7925    2.6158   -1.8323 H   0  0  0  1  0  0  0  0  0  0  0  0
   -0.8935    3.5194   -0.8043 H   0  0  0  1  0  0  0  0  0  0  0  0
   -1.8094    4.8347   -0.1077 H   0  0  0  1  0  0  0  0  0  0  0  0
   -3.2750    4.8707   -3.1011 H   0  0  0  1  0  0  0  0  0  0  0  0
   -2.6783    6.2461   -5.0033 H   0  0  0  1  0  0  0  0  0  0  0  0
   -0.4628    7.2249   -5.1450 H   0  0  0  1  0  0  0  0  0  0  0  0
    1.1592    6.8091   -3.3948 H   0  0  0  1  0  0  0  0  0  0  0  0
    0.5612    5.4313   -1.4894 H   0  0  0  1  0  0  0  0  0  0  0  0
  1  4  1  0  0  0  0
  2  4  1  0  0  0  0
  2  5  2  0  0  0  0
  2  6  1  0  0  0  0
  3  4  1  0  0  0  0
  3  7  1  0  0  0  0
  3  8  1  0  0  0  0
  4 19  1  0  0  0  0
  6  9  1  0  0  0  0
  6 12  1  0  0  0  0
  8 10  1  0  0  0  0
  8 11  2  0  0  0  0
  9 13  1  0  0  0  0
  9 14  1  0  0  0  0
  9 15  1  0  0  0  0
 10 16  1  0  0  0  0
 10 17  1  0  0  0  0
 10 18  1  0  0  0  0
 19 20  1  0  0  0  0
 19 27  1  0  0  0  0
 19 28  1  0  0  0  0
 20 21  1  0  0  0  0
 20 29  1  0  0  0  0
 20 30  1  0  0  0  0
 21 22  4  0  0  0  0
 21 26  4  0  0  0  0
 22 23  4  0  0  0  0
 22 31  1  0  0  0  0
 23 24  4  0  0  0  0
 23 32  1  0  0  0  0
 24 25  4  0  0  0  0
 24 33  1  0  0  0  0
 25 26  4  0  0  0  0
 25 34  1  0  0  0  0
 26 35  1  0  0  0  0
M  END
> <BCLConfClusterSize>
1

> <ConfClashScore>
0 

> <ConfOneFourInteractionScore>
-0.964326 

> <ConfScore>
0.317563 

> <ConfScorePBest>
0.00356172 

> <ConfTolerance>
0.753026 

> <RosettaParamsInstructions>
M  ROOT 3
M  POLY_N_BB 3
M  POLY_CA_BB 4
M  POLY_C_BB 2
M  POLY_O_BB 5
M  POLY_IGNORE 9 10 11 12 13 14 15 16 17 18 
M  POLY_UPPER 6
M  POLY_LOWER 8
M  POLY_CHG 0
M  POLY_PROPERTIES ALPHA_AA D_AA PROTEIN AROMATIC POLYMER 
M  END

$$$$



 35 35  0  0  0  0  0  0  0  0999 V2000
   -0.0512    3.1349    1.8486 H   0  0  0  1  0  0  0  0  0  0  0  0
   -1.6132    2.0114    0.9337 C   0  0  0  1  0  0  0  0  0  0  0  0
   -1.8562    4.1262    2.1409 N   0  0  0  1  0  0  0  0  0  0  0  0
   -0.9568    3.3354    1.3151 C   0  0  0  1  0  0  0  0  0  0  0  0
   -1.1919    1.3115    0.0310 O   0  0  0  1  0  0  0  0  0  0  0  0
   -2.6935    1.5992    1.6144 N   0  0  0  1  0  0  0  0  0  0  0  0
   -2.2355    4.9283    1.7248 H   0  0  0  1  0  0  0  0  0  0  0  0
   -2.2237    3.8833    3.4022 C   0  0  0  1  0  0  0  0  0  0  0  0
   -3.3929    0.3884    1.2115 C   0  0  0  1  0  0  0  0  0  0  0  0
   -2.8545    5.0670    4.1319 C   0  0  0  1  0  0  0  0  0  0  0  0
   -2.0138    2.8193    3.9833 O   0  0  0  1  0  0  0  0  0  0  0  0
   -3.0122    2.1147    2.3846 H   0  0  0  1  0  0  0  0  0  0  0  0
   -4.3946    0.6329    0.9254 H   0  0  0  1  0  0  0  0  0  0  0  0
   -3.4141   -0.3002    2.0302 H   0  0  0  1  0  0  0  0  0  0  0  0
   -2.8844   -0.0579    0.3825 H   0  0  0  1  0  0  0  0  0  0  0  0
   -3.7064    5.4117    3.5838 H   0  0  0  1  0  0  0  0  0  0  0  0
   -2.1388    5.8583    4.2129 H   0  0  0  1  0  0  0  0  0  0  0  0
   -3.1605    4.7606    5.1104 H   0  0  0  1  0  0  0  0  0  0  0  0
   -0.6280    4.0993    0.0565 C   0  0  0  1  0  0  0  0  0  0  0  0
   -1.7632    4.2348   -0.9406 C   0  0  0  1  0  0  0  0  0  0  0  0
   -1.3810    5.0326   -2.1703 C   0  0  0  1  0  0  0  0  0  0  0  0
   -2.3135    5.2725   -3.1675 C   0  0  0  1  0  0  0  0  0  0  0  0
   -1.9824    6.0707   -4.2461 C   0  0  0  1  0  0  0  0  0  0  0  0
   -0.7194    6.6358   -4.3280 C   0  0  0  1  0  0  0  0  0  0  0  0
    0.2107    6.3968   -3.3339 C   0  0  0  1  0  0  0  0  0  0  0  0
   -0.1216    5.5962   -2.2522 C   0  0  0  1  0  0  0  0  0  0  0  0
    0.1812    3.5975   -0.4317 H   0  0  0  1  0  0  0  0  0  0  0  0
   -0.3189    5.0838    0.3397 H   0  0  0  1  0  0  0  0  0  0  0  0
   -2.5834    4.7244   -0.4584 H   0  0  0  1  0  0  0  0  0  0  0  0
   -2.0637    3.2555   -1.2498 H   0  0  0  1  0  0  0  0  0  0  0  0
   -3.2625    4.8517   -3.1039 H   0  0  0  1  0  0  0  0  0  0  0  0
   -2.6809    6.2473   -4.9961 H   0  0  0  1  0  0  0  0  0  0  0  0
   -0.4715    7.2397   -5.1376 H   0  0  0  1  0  0  0  0  0  0  0  0
    1.1596    6.8175   -3.3975 H   0  0  0  1  0  0  0  0  0  0  0  0
    0.5768    5.4195   -1.5021 H   0  0  0  1  0  0  0  0  0  0  0  0
  1  4  1  0  0  0  0
  2  4  1  0  0  0  0
  2  5  2  0  0  0  0
  2  6  1  0  0  0  0
  3  4  1  0  0  0  0
  3  7  1  0  0  0  0
  3  8  1  0  0  0  0
  4 19  1  0  0  0  0
  6  9  1  0  0  0  0
  6 12  1  0  0  0  0
  8 10  1  0  0  0  0
  8 11  2  0  0  0  0
  9 13  1  0  0  0  0
  9 14  1  0  0  0  0
  9 15  1  0  0  0  0
 10 16  1  0  0  0  0
 10 17  1  0  0  0  0
 10 18  1  0  0  0  0
 19 20  1  0  0  0  0
 19 27  1  0  0  0  0
 19 28  1  0  0  0  0
 20 21  1  0  0  0  0
 20 29  1  0  0  0  0
 20 30  1  0  0  0  0
 21 22  4  0  0  0  0
 21 26  4  0  0  0  0
 22 23  4  0  0  0  0
 22 31  1  0  0  0  0
 23 24  4  0  0  0  0
 23 32  1  0  0  0  0
 24 25  4  0  0  0  0
 24 33  1  0  0  0  0
 25 26  4  0  0  0  0
 25 34  1  0  0  0  0
 26 35  1  0  0  0  0
M  END
> <BCLConfClusterSize>
1

> <ConfClashScore>
0.0023577 

> <ConfOneFourInteractionScore>
-0.96213 

> <ConfScore>
0.317631 

> <ConfScorePBest>
0.00353324 

> <ConfTolerance>
0.570758 

> <RosettaParamsInstructions>
M  ROOT 3
M  POLY_N_BB 3
M  POLY_CA_BB 4
M  POLY_C_BB 2
M  POLY_O_BB 5
M  POLY_IGNORE 9 10 11 12 13 14 15 16 17 18 
M  POLY_UPPER 6
M  POLY_LOWER 8
M  POLY_CHG 0
M  POLY_PROPERTIES ALPHA_AA D_AA PROTEIN AROMATIC POLYMER 
M  END

$$$$



 35 35  0  0  0  0  0  0  0  0999 V2000
   -2.8940    2.0633    0.3480 H   0  0  0  1  0  0  0  0  0  0  0  0
   -4.9457    2.1902   -0.1230 C   0  0  0  1  0  0  0  0  0  0  0  0
   -3.5893    3.8642    1.0964 N   0  0  0  1  0  0  0  0  0  0  0  0
   -3.5794    2.8314    0.0561 C   0  0  0  1  0  0  0  0  0  0  0  0
   -5.9546    2.8729   -0.2791 O   0  0  0  1  0  0  0  0  0  0  0  0
   -4.9678    0.8546   -0.0985 N   0  0  0  1  0  0  0  0  0  0  0  0
   -3.2489    4.7572    0.8795 H   0  0  0  1  0  0  0  0  0  0  0  0
   -4.0508    3.6281    2.3420 C   0  0  0  1  0  0  0  0  0  0  0  0
   -6.2221    0.1409   -0.2863 C   0  0  0  1  0  0  0  0  0  0  0  0
   -4.0581    4.7788    3.3295 C   0  0  0  1  0  0  0  0  0  0  0  0
   -4.4535    2.5149    2.6690 O   0  0  0  1  0  0  0  0  0  0  0  0
   -4.1376    0.3544    0.0461 H   0  0  0  1  0  0  0  0  0  0  0  0
   -6.5440    0.2454   -1.3014 H   0  0  0  1  0  0  0  0  0  0  0  0
   -6.9652    0.5483    0.3670 H   0  0  0  1  0  0  0  0  0  0  0  0
   -6.0794   -0.8957   -0.0626 H   0  0  0  1  0  0  0  0  0  0  0  0
   -3.0796    5.2079    3.3852 H   0  0  0  1  0  0  0  0  0  0  0  0
   -4.3445    4.4178    4.2952 H   0  0  0  1  0  0  0  0  0  0  0  0
   -4.7555    5.5225    3.0049 H   0  0  0  1  0  0  0  0  0  0  0  0
   -3.0542    3.4518   -1.2295 C   0  0  0  1  0  0  0  0  0  0  0  0
   -1.7496    4.1900   -0.9776 C   0  0  0  1  0  0  0  0  0  0  0  0
   -1.3870    5.0508   -2.1581 C   0  0  0  1  0  0  0  0  0  0  0  0
   -2.3176    5.2842   -3.1585 C   0  0  0  1  0  0  0  0  0  0  0  0
   -1.9825    6.0702   -4.2447 C   0  0  0  1  0  0  0  0  0  0  0  0
   -0.7171    6.6296   -4.3311 C   0  0  0  1  0  0  0  0  0  0  0  0
    0.2110    6.3971   -3.3337 C   0  0  0  1  0  0  0  0  0  0  0  0
   -0.1254    5.6087   -2.2443 C   0  0  0  1  0  0  0  0  0  0  0  0
   -3.7798    4.1409   -1.6084 H   0  0  0  1  0  0  0  0  0  0  0  0
   -2.8862    2.6782   -1.9493 H   0  0  0  1  0  0  0  0  0  0  0  0
   -0.9696    3.4769   -0.8106 H   0  0  0  1  0  0  0  0  0  0  0  0
   -1.8585    4.8095   -0.1120 H   0  0  0  1  0  0  0  0  0  0  0  0
   -3.2683    4.8677   -3.0917 H   0  0  0  1  0  0  0  0  0  0  0  0
   -2.6795    6.2419   -4.9973 H   0  0  0  1  0  0  0  0  0  0  0  0
   -0.4662    7.2244   -5.1465 H   0  0  0  1  0  0  0  0  0  0  0  0
    1.1616    6.8136   -3.4006 H   0  0  0  1  0  0  0  0  0  0  0  0
    0.5716    5.4370   -1.4918 H   0  0  0  1  0  0  0  0  0  0  0  0
  1  4  1  0  0  0  0
  2  4  1  0  0  0  0
  2  5  2  0  0  0  0
  2  6  1  0  0  0  0
  3  4  1  0  0  0  0
  3  7  1  0  0  0  0
  3  8  1  0  0  0  0
  4 19  1  0  0  0  0
  6  9  1  0  0  0  0
  6 12  1  0  0  0  0
  8 10  1  0  0  0  0
  8 11  2  0  0  0  0
  9 13  1  0  0  0  0
  9 14  1  0  0  0  0
  9 15  1  0  0  0  0
 10 16  1  0  0  0  0
 10 17  1  0  0  0  0
 10 18  1  0  0  0  0
 19 20  1  0  0  0  0
 19 27  1  0  0  0  0
 19 28  1  0  0  0  0
 20 21  1  0  0  0  0
 20 29  1  0  0  0  0
 20 30  1  0  0  0  0
 21 22  4  0  0  0  0
 21 26  4  0  0  0  0
 22 23  4  0  0  0  0
 22 31  1  0  0  0  0
 23 24  4  0  0  0  0
 23 32  1  0  0  0  0
 24 25  4  0  0  0  0
 24 33  1  0  0  0  0
 25 26  4  0  0  0  0
 25 34  1  0  0  0  0
 26 35  1  0  0  0  0
M  END
> <BCLConfClusterSize>
1

> <ConfClashScore>
0 

> <ConfOneFourInteractionScore>
-0.985317 

> <ConfScore>
0.31766 

> <ConfScorePBest>
0.00350476 

> <ConfTolerance>
0.645471 

> <RosettaParamsInstructions>
M  ROOT 3
M  POLY_N_BB 3
M  POLY_CA_BB 4
M  POLY_C_BB 2
M  POLY_O_BB 5
M  POLY_IGNORE 9 10 11 12 13 14 15 16 17 18 
M  POLY_UPPER 6
M  POLY_LOWER 8
M  POLY_CHG 0
M  POLY_PROPERTIES ALPHA_AA D_AA PROTEIN AROMATIC POLYMER 
M  END

$$$$



 35 35  0  0  0  0  0  0  0  0999 V2000
   -3.1181    6.4510    1.2021 H   0  0  0  1  0  0  0  0  0  0  0  0
   -3.0283    7.1630   -0.8021 C   0  0  0  1  0  0  0  0  0  0  0  0
   -1.1406    6.4420    0.5474 N   0  0  0  1  0  0  0  0  0  0  0  0
   -2.5689    6.2237    0.3124 C   0  0  0  1  0  0  0  0  0  0  0  0
   -2.3741    8.1457   -1.1121 O   0  0  0  1  0  0  0  0  0  0  0  0
   -4.1770    6.8353   -1.4007 N   0  0  0  1  0  0  0  0  0  0  0  0
   -0.5330    5.6738    0.5141 H   0  0  0  1  0  0  0  0  0  0  0  0
   -0.6365    7.6520    0.8055 C   0  0  0  1  0  0  0  0  0  0  0  0
   -4.7462    7.6301   -2.4787 C   0  0  0  1  0  0  0  0  0  0  0  0
    0.8561    7.7696    1.0455 C   0  0  0  1  0  0  0  0  0  0  0  0
   -1.3114    8.6792    0.8606 O   0  0  0  1  0  0  0  0  0  0  0  0
   -4.6528    6.0317   -1.1034 H   0  0  0  1  0  0  0  0  0  0  0  0
   -4.9162    8.6290   -2.1347 H   0  0  0  1  0  0  0  0  0  0  0  0
   -5.6743    7.1973   -2.7889 H   0  0  0  1  0  0  0  0  0  0  0  0
   -4.0667    7.6485   -3.3051 H   0  0  0  1  0  0  0  0  0  0  0  0
    1.1278    7.1847    1.8993 H   0  0  0  1  0  0  0  0  0  0  0  0
    1.1093    8.7944    1.2202 H   0  0  0  1  0  0  0  0  0  0  0  0
    1.3844    7.4127    0.1862 H   0  0  0  1  0  0  0  0  0  0  0  0
   -2.8121    4.7645   -0.0558 C   0  0  0  1  0  0  0  0  0  0  0  0
   -1.7493    4.1907   -0.9786 C   0  0  0  1  0  0  0  0  0  0  0  0
   -1.3870    5.0507   -2.1580 C   0  0  0  1  0  0  0  0  0  0  0  0
   -2.3177    5.2841   -3.1584 C   0  0  0  1  0  0  0  0  0  0  0  0
   -1.9825    6.0701   -4.2447 C   0  0  0  1  0  0  0  0  0  0  0  0
   -0.7172    6.6296   -4.3310 C   0  0  0  1  0  0  0  0  0  0  0  0
    0.2110    6.3971   -3.3336 C   0  0  0  1  0  0  0  0  0  0  0  0
   -0.1254    5.6086   -2.2442 C   0  0  0  1  0  0  0  0  0  0  0  0
   -3.7611    4.6917   -0.5447 H   0  0  0  1  0  0  0  0  0  0  0  0
   -2.8286    4.1858    0.8440 H   0  0  0  1  0  0  0  0  0  0  0  0
   -2.1066    3.2534   -1.3509 H   0  0  0  1  0  0  0  0  0  0  0  0
   -0.8625    4.0311   -0.4016 H   0  0  0  1  0  0  0  0  0  0  0  0
   -3.2683    4.8676   -3.0916 H   0  0  0  1  0  0  0  0  0  0  0  0
   -2.6795    6.2419   -4.9972 H   0  0  0  1  0  0  0  0  0  0  0  0
   -0.4662    7.2244   -5.1464 H   0  0  0  1  0  0  0  0  0  0  0  0
    1.1616    6.8135   -3.4005 H   0  0  0  1  0  0  0  0  0  0  0  0
    0.5716    5.4369   -1.4917 H   0  0  0  1  0  0  0  0  0  0  0  0
  1  4  1  0  0  0  0
  2  4  1  0  0  0  0
  2  5  2  0  0  0  0
  2  6  1  0  0  0  0
  3  4  1  0  0  0  0
  3  7  1  0  0  0  0
  3  8  1  0  0  0  0
  4 19  1  0  0  0  0
  6  9  1  0  0  0  0
  6 12  1  0  0  0  0
  8 10  1  0  0  0  0
  8 11  2  0  0  0  0
  9 13  1  0  0  0  0
  9 14  1  0  0  0  0
  9 15  1  0  0  0  0
 10 16  1  0  0  0  0
 10 17  1  0  0  0  0
 10 18  1  0  0  0  0
 19 20  1  0  0  0  0
 19 27  1  0  0  0  0
 19 28  1  0  0  0  0
 20 21  1  0  0  0  0
 20 29  1  0  0  0  0
 20 30  1  0  0  0  0
 21 22  4  0  0  0  0
 21 26  4  0  0  0  0
 22 23  4  0  0  0  0
 22 31  1  0  0  0  0
 23 24  4  0  0  0  0
 23 32  1  0  0  0  0
 24 25  4  0  0  0  0
 24 33  1  0  0  0  0
 25 26  4  0  0  0  0
 25 34  1  0  0  0  0
 26 35  1  0  0  0  0
M  END
> <BCLConfClusterSize>
1

> <ConfClashScore>
0 

> <ConfOneFourInteractionScore>
-0.949086 

> <ConfScore>
0.320837 

> <ConfScorePBest>
0.00347628 

> <ConfTolerance>
1.04258 

> <RosettaParamsInstructions>
M  ROOT 3
M  POLY_N_BB 3
M  POLY_CA_BB 4
M  POLY_C_BB 2
M  POLY_O_BB 5
M  POLY_IGNORE 9 10 11 12 13 14 15 16 17 18 
M  POLY_UPPER 6
M  POLY_LOWER 8
M  POLY_CHG 0
M  POLY_PROPERTIES ALPHA_AA D_AA PROTEIN AROMATIC POLYMER 
M  END

$$$$



 35 35  0  0  0  0  0  0  0  0999 V2000
   -1.4733    3.1331    1.6361 H   0  0  0  1  0  0  0  0  0  0  0  0
    0.4540    2.3086    1.7202 C   0  0  0  1  0  0  0  0  0  0  0  0
   -1.3782    1.5436    0.3211 N   0  0  0  1  0  0  0  0  0  0  0  0
   -0.7710    2.7264    0.9387 C   0  0  0  1  0  0  0  0  0  0  0  0
    1.3740    3.0888    1.9063 O   0  0  0  1  0  0  0  0  0  0  0  0
    0.4984    1.0643    2.1987 N   0  0  0  1  0  0  0  0  0  0  0  0
   -2.3446    1.4217    0.4293 H   0  0  0  1  0  0  0  0  0  0  0  0
   -0.7134    0.6193   -0.3780 C   0  0  0  1  0  0  0  0  0  0  0  0
    1.6791    0.4323    2.7683 C   0  0  0  1  0  0  0  0  0  0  0  0
   -1.5425   -0.5431   -0.8884 C   0  0  0  1  0  0  0  0  0  0  0  0
    0.4919    0.6898   -0.6030 O   0  0  0  1  0  0  0  0  0  0  0  0
   -0.3262    0.5359    2.1642 H   0  0  0  1  0  0  0  0  0  0  0  0
    1.6780   -0.6101    2.5266 H   0  0  0  1  0  0  0  0  0  0  0  0
    1.6693    0.5516    3.8316 H   0  0  0  1  0  0  0  0  0  0  0  0
    2.5580    0.8906    2.3655 H   0  0  0  1  0  0  0  0  0  0  0  0
   -2.4812   -0.5649   -0.3752 H   0  0  0  1  0  0  0  0  0  0  0  0
   -1.0185   -1.4592   -0.7119 H   0  0  0  1  0  0  0  0  0  0  0  0
   -1.7129   -0.4256   -1.9382 H   0  0  0  1  0  0  0  0  0  0  0  0
   -0.5061    3.7890   -0.1104 C   0  0  0  1  0  0  0  0  0  0  0  0
   -1.7087    4.1919   -0.9537 C   0  0  0  1  0  0  0  0  0  0  0  0
   -1.3960    5.0499   -2.1624 C   0  0  0  1  0  0  0  0  0  0  0  0
   -2.3233    5.2860   -3.1653 C   0  0  0  1  0  0  0  0  0  0  0  0
   -1.9836    6.0727   -4.2497 C   0  0  0  1  0  0  0  0  0  0  0  0
   -0.7170    6.6300   -4.3317 C   0  0  0  1  0  0  0  0  0  0  0  0
    0.2078    6.3947   -3.3319 C   0  0  0  1  0  0  0  0  0  0  0  0
   -0.1331    5.6056   -2.2443 C   0  0  0  1  0  0  0  0  0  0  0  0
    0.2503    3.4190   -0.7706 H   0  0  0  1  0  0  0  0  0  0  0  0
   -0.1466    4.6638    0.3901 H   0  0  0  1  0  0  0  0  0  0  0  0
   -2.3832    4.7374   -0.3273 H   0  0  0  1  0  0  0  0  0  0  0  0
   -2.1849    3.2977   -1.2979 H   0  0  0  1  0  0  0  0  0  0  0  0
   -3.2749    4.8712   -3.1018 H   0  0  0  1  0  0  0  0  0  0  0  0
   -2.6781    6.2466   -5.0040 H   0  0  0  1  0  0  0  0  0  0  0  0
   -0.4626    7.2253   -5.1456 H   0  0  0  1  0  0  0  0  0  0  0  0
    1.1593    6.8096   -3.3954 H   0  0  0  1  0  0  0  0  0  0  0  0
    0.5614    5.4318   -1.4900 H   0  0  0  1  0  0  0  0  0  0  0  0
  1  4  1  0  0  0  0
  2  4  1  0  0  0  0
  2  5  2  0  0  0  0
  2  6  1  0  0  0  0
  3  4  1  0  0  0  0
  3  7  1  0  0  0  0
  3  8  1  0  0  0  0
  4 19  1  0  0  0  0
  6  9  1  0  0  0  0
  6 12  1  0  0  0  0
  8 10  1  0  0  0  0
  8 11  2  0  0  0  0
  9 13  1  0  0  0  0
  9 14  1  0  0  0  0
  9 15  1  0  0  0  0
 10 16  1  0  0  0  0
 10 17  1  0  0  0  0
 10 18  1  0  0  0  0
 19 20  1  0  0  0  0
 19 27  1  0  0  0  0
 19 28  1  0  0  0  0
 20 21  1  0  0  0  0
 20 29  1  0  0  0  0
 20 30  1  0  0  0  0
 21 22  4  0  0  0  0
 21 26  4  0  0  0  0
 22 23  4  0  0  0  0
 22 31  1  0  0  0  0
 23 24  4  0  0  0  0
 23 32  1  0  0  0  0
 24 25  4  0  0  0  0
 24 33  1  0  0  0  0
 25 26  4  0  0  0  0
 25 34  1  0  0  0  0
 26 35  1  0  0  0  0
M  END
> <BCLConfClusterSize>
1

> <ConfClashScore>
0 

> <ConfOneFourInteractionScore>
-0.947656 

> <ConfScore>
0.32126 

> <ConfScorePBest>
0.0034478 

> <ConfTolerance>
0.514007 

> <RosettaParamsInstructions>
M  ROOT 3
M  POLY_N_BB 3
M  POLY_CA_BB 4
M  POLY_C_BB 2
M  POLY_O_BB 5
M  POLY_IGNORE 9 10 11 12 13 14 15 16 17 18 
M  POLY_UPPER 6
M  POLY_LOWER 8
M  POLY_CHG 0
M  POLY_PROPERTIES ALPHA_AA D_AA PROTEIN AROMATIC POLYMER 
M  END

$$$$



 35 35  0  0  0  0  0  0  0  0999 V2000
   -3.6555    3.6558    1.0741 H   0  0  0  1  0  0  0  0  0  0  0  0
   -3.1289    5.0405    2.5654 C   0  0  0  1  0  0  0  0  0  0  0  0
   -1.7230    3.2452    1.6989 N   0  0  0  1  0  0  0  0  0  0  0  0
   -2.7811    4.2094    1.3458 C   0  0  0  1  0  0  0  0  0  0  0  0
   -4.0295    4.7116    3.3198 O   0  0  0  1  0  0  0  0  0  0  0  0
   -2.3869    6.1439    2.7501 N   0  0  0  1  0  0  0  0  0  0  0  0
   -1.5820    2.5059    1.0712 H   0  0  0  1  0  0  0  0  0  0  0  0
   -0.9336    3.2648    2.7787 C   0  0  0  1  0  0  0  0  0  0  0  0
   -2.5868    7.0343    3.8837 C   0  0  0  1  0  0  0  0  0  0  0  0
   -0.0266    2.0623    2.9536 C   0  0  0  1  0  0  0  0  0  0  0  0
   -0.9299    4.1905    3.5890 O   0  0  0  1  0  0  0  0  0  0  0  0
   -1.6862    6.3571    2.0990 H   0  0  0  1  0  0  0  0  0  0  0  0
   -2.3470    8.0369    3.5970 H   0  0  0  1  0  0  0  0  0  0  0  0
   -1.9517    6.7327    4.6902 H   0  0  0  1  0  0  0  0  0  0  0  0
   -3.6088    6.9881    4.1973 H   0  0  0  1  0  0  0  0  0  0  0  0
    0.9044    2.2421    2.4578 H   0  0  0  1  0  0  0  0  0  0  0  0
   -0.4947    1.1983    2.5303 H   0  0  0  1  0  0  0  0  0  0  0  0
    0.1505    1.8981    3.9959 H   0  0  0  1  0  0  0  0  0  0  0  0
   -2.3646    5.0278    0.1316 C   0  0  0  1  0  0  0  0  0  0  0  0
   -1.7496    4.1900   -0.9776 C   0  0  0  1  0  0  0  0  0  0  0  0
   -1.3870    5.0508   -2.1581 C   0  0  0  1  0  0  0  0  0  0  0  0
   -2.3176    5.2842   -3.1585 C   0  0  0  1  0  0  0  0  0  0  0  0
   -1.9825    6.0702   -4.2447 C   0  0  0  1  0  0  0  0  0  0  0  0
   -0.7171    6.6296   -4.3311 C   0  0  0  1  0  0  0  0  0  0  0  0
    0.2110    6.3971   -3.3337 C   0  0  0  1  0  0  0  0  0  0  0  0
   -0.1254    5.6087   -2.2443 C   0  0  0  1  0  0  0  0  0  0  0  0
   -1.6464    5.7568    0.4440 H   0  0  0  1  0  0  0  0  0  0  0  0
   -3.2300    5.5226   -0.2571 H   0  0  0  1  0  0  0  0  0  0  0  0
   -2.4545    3.4474   -1.2883 H   0  0  0  1  0  0  0  0  0  0  0  0
   -0.8667    3.7118   -0.6077 H   0  0  0  1  0  0  0  0  0  0  0  0
   -3.2683    4.8677   -3.0917 H   0  0  0  1  0  0  0  0  0  0  0  0
   -2.6795    6.2419   -4.9973 H   0  0  0  1  0  0  0  0  0  0  0  0
   -0.4662    7.2244   -5.1465 H   0  0  0  1  0  0  0  0  0  0  0  0
    1.1616    6.8136   -3.4006 H   0  0  0  1  0  0  0  0  0  0  0  0
    0.5716    5.4370   -1.4918 H   0  0  0  1  0  0  0  0  0  0  0  0
  1  4  1  0  0  0  0
  2  4  1  0  0  0  0
  2  5  2  0  0  0  0
  2  6  1  0  0  0  0
  3  4  1  0  0  0  0
  3  7  1  0  0  0  0
  3  8  1  0  0  0  0
  4 19  1  0  0  0  0
  6  9  1  0  0  0  0
  6 12  1  0  0  0  0
  8 10  1  0  0  0  0
  8 11  2  0  0  0  0
  9 13  1  0  0  0  0
  9 14  1  0  0  0  0
  9 15  1  0  0  0  0
 10 16  1  0  0  0  0
 10 17  1  0  0  0  0
 10 18  1  0  0  0  0
 19 20  1  0  0  0  0
 19 27  1  0  0  0  0
 19 28  1  0  0  0  0
 20 21  1  0  0  0  0
 20 29  1  0  0  0  0
 20 30  1  0  0  0  0
 21 22  4  0  0  0  0
 21 26  4  0  0  0  0
 22 23  4  0  0  0  0
 22 31  1  0  0  0  0
 23 24  4  0  0  0  0
 23 32  1  0  0  0  0
 24 25  4  0  0  0  0
 24 33  1  0  0  0  0
 25 26  4  0  0  0  0
 25 34  1  0  0  0  0
 26 35  1  0  0  0  0
M  END
> <BCLConfClusterSize>
1

> <ConfClashScore>
0 

> <ConfOneFourInteractionScore>
-0.943527 

> <ConfScore>
0.32271 

> <ConfScorePBest>
0.00341932 

> <ConfTolerance>
0.681731 

> <RosettaParamsInstructions>
M  ROOT 3
M  POLY_N_BB 3
M  POLY_CA_BB 4
M  POLY_C_BB 2
M  POLY_O_BB 5
M  POLY_IGNORE 9 10 11 12 13 14 15 16 17 18 
M  POLY_UPPER 6
M  POLY_LOWER 8
M  POLY_CHG 0
M  POLY_PROPERTIES ALPHA_AA D_AA PROTEIN AROMATIC POLYMER 
M  END

$$$$



 35 35  0  0  0  0  0  0  0  0999 V2000
   -2.8301    2.1910    0.3521 H   0  0  0  1  0  0  0  0  0  0  0  0
   -0.8833    2.1578    1.1420 C   0  0  0  1  0  0  0  0  0  0  0  0
   -1.9523    0.4721   -0.3630 N   0  0  0  1  0  0  0  0  0  0  0  0
   -1.8644    1.8904    0.0028 C   0  0  0  1  0  0  0  0  0  0  0  0
    0.2974    1.8272    1.0518 O   0  0  0  1  0  0  0  0  0  0  0  0
   -1.4240    2.6904    2.2418 N   0  0  0  1  0  0  0  0  0  0  0  0
   -2.8374    0.0654   -0.4705 H   0  0  0  1  0  0  0  0  0  0  0  0
   -0.8266   -0.3127   -0.5618 C   0  0  0  1  0  0  0  0  0  0  0  0
   -0.5930    2.9709    3.4016 C   0  0  0  1  0  0  0  0  0  0  0  0
   -0.9901   -1.7987   -0.7160 C   0  0  0  1  0  0  0  0  0  0  0  0
    0.2619    0.2310   -0.6051 O   0  0  0  1  0  0  0  0  0  0  0  0
   -2.3827    2.8924    2.2667 H   0  0  0  1  0  0  0  0  0  0  0  0
   -1.2138    3.0934    4.2645 H   0  0  0  1  0  0  0  0  0  0  0  0
   -0.0365    3.8690    3.2325 H   0  0  0  1  0  0  0  0  0  0  0  0
    0.0826    2.1567    3.5613 H   0  0  0  1  0  0  0  0  0  0  0  0
   -0.7969   -2.2784    0.2207 H   0  0  0  1  0  0  0  0  0  0  0  0
   -0.2999   -2.1590   -1.4500 H   0  0  0  1  0  0  0  0  0  0  0  0
   -1.9900   -2.0167   -1.0286 H   0  0  0  1  0  0  0  0  0  0  0  0
   -1.5865    2.7039   -1.2519 C   0  0  0  1  0  0  0  0  0  0  0  0
   -1.7496    4.1900   -0.9776 C   0  0  0  1  0  0  0  0  0  0  0  0
   -1.3870    5.0508   -2.1581 C   0  0  0  1  0  0  0  0  0  0  0  0
   -2.3176    5.2842   -3.1585 C   0  0  0  1  0  0  0  0  0  0  0  0
   -1.9825    6.0702   -4.2447 C   0  0  0  1  0  0  0  0  0  0  0  0
   -0.7171    6.6296   -4.3311 C   0  0  0  1  0  0  0  0  0  0  0  0
    0.2110    6.3971   -3.3337 C   0  0  0  1  0  0  0  0  0  0  0  0
   -0.1254    5.6087   -2.2443 C   0  0  0  1  0  0  0  0  0  0  0  0
   -2.2729    2.4113   -2.0189 H   0  0  0  1  0  0  0  0  0  0  0  0
   -0.5850    2.5151   -1.5778 H   0  0  0  1  0  0  0  0  0  0  0  0
   -1.1184    4.4559   -0.1555 H   0  0  0  1  0  0  0  0  0  0  0  0
   -2.7707    4.3786   -0.7195 H   0  0  0  1  0  0  0  0  0  0  0  0
   -3.2683    4.8677   -3.0917 H   0  0  0  1  0  0  0  0  0  0  0  0
   -2.6795    6.2419   -4.9973 H   0  0  0  1  0  0  0  0  0  0  0  0
   -0.4662    7.2244   -5.1465 H   0  0  0  1  0  0  0  0  0  0  0  0
    1.1616    6.8136   -3.4006 H   0  0  0  1  0  0  0  0  0  0  0  0
    0.5716    5.4370   -1.4918 H   0  0  0  1  0  0  0  0  0  0  0  0
  1  4  1  0  0  0  0
  2  4  1  0  0  0  0
  2  5  2  0  0  0  0
  2  6  1  0  0  0  0
  3  4  1  0  0  0  0
  3  7  1  0  0  0  0
  3  8  1  0  0  0  0
  4 19  1  0  0  0  0
  6  9  1  0  0  0  0
  6 12  1  0  0  0  0
  8 10  1  0  0  0  0
  8 11  2  0  0  0  0
  9 13  1  0  0  0  0
  9 14  1  0  0  0  0
  9 15  1  0  0  0  0
 10 16  1  0  0  0  0
 10 17  1  0  0  0  0
 10 18  1  0  0  0  0
 19 20  1  0  0  0  0
 19 27  1  0  0  0  0
 19 28  1  0  0  0  0
 20 21  1  0  0  0  0
 20 29  1  0  0  0  0
 20 30  1  0  0  0  0
 21 22  4  0  0  0  0
 21 26  4  0  0  0  0
 22 23  4  0  0  0  0
 22 31  1  0  0  0  0
 23 24  4  0  0  0  0
 23 32  1  0  0  0  0
 24 25  4  0  0  0  0
 24 33  1  0  0  0  0
 25 26  4  0  0  0  0
 25 34  1  0  0  0  0
 26 35  1  0  0  0  0
M  END
> <BCLConfClusterSize>
1

> <ConfClashScore>
0 

> <ConfOneFourInteractionScore>
-0.99264 

> <ConfScore>
0.324981 

> <ConfScorePBest>
0.00339084 

> <ConfTolerance>
0.625655 

> <RosettaParamsInstructions>
M  ROOT 3
M  POLY_N_BB 3
M  POLY_CA_BB 4
M  POLY_C_BB 2
M  POLY_O_BB 5
M  POLY_IGNORE 9 10 11 12 13 14 15 16 17 18 
M  POLY_UPPER 6
M  POLY_LOWER 8
M  POLY_CHG 0
M  POLY_PROPERTIES ALPHA_AA D_AA PROTEIN AROMATIC POLYMER 
M  END

$$$$



 35 35  0  0  0  0  0  0  0  0999 V2000
   -3.5395    6.2617   -0.6977 H   0  0  0  1  0  0  0  0  0  0  0  0
   -4.0543    6.2982    1.3304 C   0  0  0  1  0  0  0  0  0  0  0  0
   -4.6216    4.5580   -0.3016 N   0  0  0  1  0  0  0  0  0  0  0  0
   -3.6099    5.5436    0.0925 C   0  0  0  1  0  0  0  0  0  0  0  0
   -3.2593    6.5854    2.2214 O   0  0  0  1  0  0  0  0  0  0  0  0
   -5.3559    6.6229    1.3795 N   0  0  0  1  0  0  0  0  0  0  0  0
   -4.8910    4.5071   -1.2424 H   0  0  0  1  0  0  0  0  0  0  0  0
   -5.1945    3.7189    0.5861 C   0  0  0  1  0  0  0  0  0  0  0  0
   -5.9374    7.3350    2.5077 C   0  0  0  1  0  0  0  0  0  0  0  0
   -6.1591    2.6796    0.0614 C   0  0  0  1  0  0  0  0  0  0  0  0
   -4.9410    3.7950    1.7876 O   0  0  0  1  0  0  0  0  0  0  0  0
   -5.9347    6.3718    0.6297 H   0  0  0  1  0  0  0  0  0  0  0  0
   -5.8512    8.3894    2.3473 H   0  0  0  1  0  0  0  0  0  0  0  0
   -5.4182    7.0672    3.4041 H   0  0  0  1  0  0  0  0  0  0  0  0
   -6.9703    7.0720    2.6011 H   0  0  0  1  0  0  0  0  0  0  0  0
   -7.1597    3.0513    0.1356 H   0  0  0  1  0  0  0  0  0  0  0  0
   -6.0677    1.7841    0.6400 H   0  0  0  1  0  0  0  0  0  0  0  0
   -5.9326    2.4678   -0.9627 H   0  0  0  1  0  0  0  0  0  0  0  0
   -2.2275    4.9413    0.2543 C   0  0  0  1  0  0  0  0  0  0  0  0
   -1.7496    4.1900   -0.9776 C   0  0  0  1  0  0  0  0  0  0  0  0
   -1.3870    5.0508   -2.1581 C   0  0  0  1  0  0  0  0  0  0  0  0
   -2.3176    5.2842   -3.1585 C   0  0  0  1  0  0  0  0  0  0  0  0
   -1.9825    6.0702   -4.2447 C   0  0  0  1  0  0  0  0  0  0  0  0
   -0.7171    6.6296   -4.3311 C   0  0  0  1  0  0  0  0  0  0  0  0
    0.2110    6.3971   -3.3337 C   0  0  0  1  0  0  0  0  0  0  0  0
   -0.1254    5.6087   -2.2443 C   0  0  0  1  0  0  0  0  0  0  0  0
   -2.2484    4.2609    1.0798 H   0  0  0  1  0  0  0  0  0  0  0  0
   -1.5353    5.7310    0.4598 H   0  0  0  1  0  0  0  0  0  0  0  0
   -2.5303    3.5245   -1.2818 H   0  0  0  1  0  0  0  0  0  0  0  0
   -0.8840    3.6237   -0.7037 H   0  0  0  1  0  0  0  0  0  0  0  0
   -3.2683    4.8677   -3.0917 H   0  0  0  1  0  0  0  0  0  0  0  0
   -2.6795    6.2419   -4.9973 H   0  0  0  1  0  0  0  0  0  0  0  0
   -0.4662    7.2244   -5.1465 H   0  0  0  1  0  0  0  0  0  0  0  0
    1.1616    6.8136   -3.4006 H   0  0  0  1  0  0  0  0  0  0  0  0
    0.5716    5.4370   -1.4918 H   0  0  0  1  0  0  0  0  0  0  0  0
  1  4  1  0  0  0  0
  2  4  1  0  0  0  0
  2  5  2  0  0  0  0
  2  6  1  0  0  0  0
  3  4  1  0  0  0  0
  3  7  1  0  0  0  0
  3  8  1  0  0  0  0
  4 19  1  0  0  0  0
  6  9  1  0  0  0  0
  6 12  1  0  0  0  0
  8 10  1  0  0  0  0
  8 11  2  0  0  0  0
  9 13  1  0  0  0  0
  9 14  1  0  0  0  0
  9 15  1  0  0  0  0
 10 16  1  0  0  0  0
 10 17  1  0  0  0  0
 10 18  1  0  0  0  0
 19 20  1  0  0  0  0
 19 27  1  0  0  0  0
 19 28  1  0  0  0  0
 20 21  1  0  0  0  0
 20 29  1  0  0  0  0
 20 30  1  0  0  0  0
 21 22  4  0  0  0  0
 21 26  4  0  0  0  0
 22 23  4  0  0  0  0
 22 31  1  0  0  0  0
 23 24  4  0  0  0  0
 23 32  1  0  0  0  0
 24 25  4  0  0  0  0
 24 33  1  0  0  0  0
 25 26  4  0  0  0  0
 25 34  1  0  0  0  0
 26 35  1  0  0  0  0
M  END
> <BCLConfClusterSize>
1

> <ConfClashScore>
0 

> <ConfOneFourInteractionScore>
-0.968021 

> <ConfScore>
0.32532 

> <ConfScorePBest>
0.00336236 

> <ConfTolerance>
0.342887 

> <RosettaParamsInstructions>
M  ROOT 3
M  POLY_N_BB 3
M  POLY_CA_BB 4
M  POLY_C_BB 2
M  POLY_O_BB 5
M  POLY_IGNORE 9 10 11 12 13 14 15 16 17 18 
M  POLY_UPPER 6
M  POLY_LOWER 8
M  POLY_CHG 0
M  POLY_PROPERTIES ALPHA_AA D_AA PROTEIN AROMATIC POLYMER 
M  END

$$$$



 35 35  0  0  0  0  0  0  0  0999 V2000
   -2.8822    1.8068   -0.1437 H   0  0  0  1  0  0  0  0  0  0  0  0
   -1.3698    2.0694    1.2828 C   0  0  0  1  0  0  0  0  0  0  0  0
   -1.4396    0.4029   -0.5711 N   0  0  0  1  0  0  0  0  0  0  0  0
   -1.8136    1.7534   -0.1360 C   0  0  0  1  0  0  0  0  0  0  0  0
   -0.6782    1.2830    1.9244 O   0  0  0  1  0  0  0  0  0  0  0  0
   -1.7790    3.2416    1.7705 N   0  0  0  1  0  0  0  0  0  0  0  0
   -0.9373   -0.1837    0.0323 H   0  0  0  1  0  0  0  0  0  0  0  0
   -1.7857   -0.0331   -1.8001 C   0  0  0  1  0  0  0  0  0  0  0  0
   -1.4697    3.6701    3.1264 C   0  0  0  1  0  0  0  0  0  0  0  0
   -1.2637   -1.4039   -2.1840 C   0  0  0  1  0  0  0  0  0  0  0  0
   -2.4798    0.6255   -2.5736 O   0  0  0  1  0  0  0  0  0  0  0  0
   -2.3063    3.8349    1.1957 H   0  0  0  1  0  0  0  0  0  0  0  0
   -1.2543    2.8141    3.7312 H   0  0  0  1  0  0  0  0  0  0  0  0
   -2.3090    4.1931    3.5351 H   0  0  0  1  0  0  0  0  0  0  0  0
   -0.6185    4.3182    3.1100 H   0  0  0  1  0  0  0  0  0  0  0  0
   -0.1939   -1.3875   -2.1987 H   0  0  0  1  0  0  0  0  0  0  0  0
   -1.6294   -1.6655   -3.1549 H   0  0  0  1  0  0  0  0  0  0  0  0
   -1.5993   -2.1261   -1.4693 H   0  0  0  1  0  0  0  0  0  0  0  0
   -1.3341    2.7349   -1.1502 C   0  0  0  1  0  0  0  0  0  0  0  0
   -1.7496    4.1900   -0.9776 C   0  0  0  1  0  0  0  0  0  0  0  0
   -1.3870    5.0508   -2.1581 C   0  0  0  1  0  0  0  0  0  0  0  0
   -2.3176    5.2842   -3.1585 C   0  0  0  1  0  0  0  0  0  0  0  0
   -1.9825    6.0702   -4.2447 C   0  0  0  1  0  0  0  0  0  0  0  0
   -0.7171    6.6296   -4.3311 C   0  0  0  1  0  0  0  0  0  0  0  0
    0.2110    6.3971   -3.3337 C   0  0  0  1  0  0  0  0  0  0  0  0
   -0.1254    5.6087   -2.2443 C   0  0  0  1  0  0  0  0  0  0  0  0
   -1.6945    2.4106   -2.1041 H   0  0  0  1  0  0  0  0  0  0  0  0
   -0.2646    2.7049   -1.1435 H   0  0  0  1  0  0  0  0  0  0  0  0
   -1.2641    4.5820   -0.1084 H   0  0  0  1  0  0  0  0  0  0  0  0
   -2.8103    4.2275   -0.8418 H   0  0  0  1  0  0  0  0  0  0  0  0
   -3.2683    4.8677   -3.0917 H   0  0  0  1  0  0  0  0  0  0  0  0
   -2.6795    6.2419   -4.9973 H   0  0  0  1  0  0  0  0  0  0  0  0
   -0.4662    7.2244   -5.1465 H   0  0  0  1  0  0  0  0  0  0  0  0
    1.1616    6.8136   -3.4006 H   0  0  0  1  0  0  0  0  0  0  0  0
    0.5716    5.4370   -1.4918 H   0  0  0  1  0  0  0  0  0  0  0  0
  1  4  1  0  0  0  0
  2  4  1  0  0  0  0
  2  5  2  0  0  0  0
  2  6  1  0  0  0  0
  3  4  1  0  0  0  0
  3  7  1  0  0  0  0
  3  8  1  0  0  0  0
  4 19  1  0  0  0  0
  6  9  1  0  0  0  0
  6 12  1  0  0  0  0
  8 10  1  0  0  0  0
  8 11  2  0  0  0  0
  9 13  1  0  0  0  0
  9 14  1  0  0  0  0
  9 15  1  0  0  0  0
 10 16  1  0  0  0  0
 10 17  1  0  0  0  0
 10 18  1  0  0  0  0
 19 20  1  0  0  0  0
 19 27  1  0  0  0  0
 19 28  1  0  0  0  0
 20 21  1  0  0  0  0
 20 29  1  0  0  0  0
 20 30  1  0  0  0  0
 21 22  4  0  0  0  0
 21 26  4  0  0  0  0
 22 23  4  0  0  0  0
 22 31  1  0  0  0  0
 23 24  4  0  0  0  0
 23 32  1  0  0  0  0
 24 25  4  0  0  0  0
 24 33  1  0  0  0  0
 25 26  4  0  0  0  0
 25 34  1  0  0  0  0
 26 35  1  0  0  0  0
M  END
> <BCLConfClusterSize>
1

> <ConfClashScore>
0 

> <ConfOneFourInteractionScore>
-0.993116 

> <ConfScore>
0.330021 

> <ConfScorePBest>
0.00333388 

> <ConfTolerance>
0.649032 

> <RosettaParamsInstructions>
M  ROOT 3
M  POLY_N_BB 3
M  POLY_CA_BB 4
M  POLY_C_BB 2
M  POLY_O_BB 5
M  POLY_IGNORE 9 10 11 12 13 14 15 16 17 18 
M  POLY_UPPER 6
M  POLY_LOWER 8
M  POLY_CHG 0
M  POLY_PROPERTIES ALPHA_AA D_AA PROTEIN AROMATIC POLYMER 
M  END

$$$$



 35 35  0  0  0  0  0  0  0  0999 V2000
   -2.6318    6.7552   -0.2798 H   0  0  0  1  0  0  0  0  0  0  0  0
   -1.5495    6.0745    1.3779 C   0  0  0  1  0  0  0  0  0  0  0  0
   -4.0106    6.3571    1.1856 N   0  0  0  1  0  0  0  0  0  0  0  0
   -2.7758    6.0213    0.4855 C   0  0  0  1  0  0  0  0  0  0  0  0
   -1.6315    5.8208    2.5784 O   0  0  0  1  0  0  0  0  0  0  0  0
   -0.3777    6.4055    0.8190 N   0  0  0  1  0  0  0  0  0  0  0  0
   -4.7088    5.6742    1.2670 H   0  0  0  1  0  0  0  0  0  0  0  0
   -4.2228    7.5632    1.7197 C   0  0  0  1  0  0  0  0  0  0  0  0
    0.8827    6.3066    1.5396 C   0  0  0  1  0  0  0  0  0  0  0  0
   -5.4926    7.7080    2.5358 C   0  0  0  1  0  0  0  0  0  0  0  0
   -3.4503    8.5062    1.5701 O   0  0  0  1  0  0  0  0  0  0  0  0
   -0.3691    6.7252   -0.1073 H   0  0  0  1  0  0  0  0  0  0  0  0
    0.8649    5.4451    2.1739 H   0  0  0  1  0  0  0  0  0  0  0  0
    1.0228    7.1846    2.1349 H   0  0  0  1  0  0  0  0  0  0  0  0
    1.6873    6.2175    0.8399 H   0  0  0  1  0  0  0  0  0  0  0  0
   -5.3440    8.4416    3.3004 H   0  0  0  1  0  0  0  0  0  0  0  0
   -5.7361    6.7683    2.9859 H   0  0  0  1  0  0  0  0  0  0  0  0
   -6.2937    8.0163    1.8969 H   0  0  0  1  0  0  0  0  0  0  0  0
   -2.9605    4.7005   -0.2196 C   0  0  0  1  0  0  0  0  0  0  0  0
   -1.7496    4.1900   -0.9776 C   0  0  0  1  0  0  0  0  0  0  0  0
   -1.3870    5.0508   -2.1581 C   0  0  0  1  0  0  0  0  0  0  0  0
   -2.3176    5.2842   -3.1585 C   0  0  0  1  0  0  0  0  0  0  0  0
   -1.9825    6.0702   -4.2447 C   0  0  0  1  0  0  0  0  0  0  0  0
   -0.7171    6.6296   -4.3311 C   0  0  0  1  0  0  0  0  0  0  0  0
    0.2110    6.3971   -3.3337 C   0  0  0  1  0  0  0  0  0  0  0  0
   -0.1254    5.6087   -2.2443 C   0  0  0  1  0  0  0  0  0  0  0  0
   -3.7644    4.8089   -0.9173 H   0  0  0  1  0  0  0  0  0  0  0  0
   -3.2218    3.9682    0.5155 H   0  0  0  1  0  0  0  0  0  0  0  0
   -1.9596    3.2013   -1.3288 H   0  0  0  1  0  0  0  0  0  0  0  0
   -0.9156    4.1616   -0.3078 H   0  0  0  1  0  0  0  0  0  0  0  0
   -3.2683    4.8677   -3.0917 H   0  0  0  1  0  0  0  0  0  0  0  0
   -2.6795    6.2419   -4.9973 H   0  0  0  1  0  0  0  0  0  0  0  0
   -0.4662    7.2244   -5.1465 H   0  0  0  1  0  0  0  0  0  0  0  0
    1.1616    6.8136   -3.4006 H   0  0  0  1  0  0  0  0  0  0  0  0
    0.5716    5.4370   -1.4918 H   0  0  0  1  0  0  0  0  0  0  0  0
  1  4  1  0  0  0  0
  2  4  1  0  0  0  0
  2  5  2  0  0  0  0
  2  6  1  0  0  0  0
  3  4  1  0  0  0  0
  3  7  1  0  0  0  0
  3  8  1  0  0  0  0
  4 19  1  0  0  0  0
  6  9  1  0  0  0  0
  6 12  1  0  0  0  0
  8 10  1  0  0  0  0
  8 11  2  0  0  0  0
  9 13  1  0  0  0  0
  9 14  1  0  0  0  0
  9 15  1  0  0  0  0
 10 16  1  0  0  0  0
 10 17  1  0  0  0  0
 10 18  1  0  0  0  0
 19 20  1  0  0  0  0
 19 27  1  0  0  0  0
 19 28  1  0  0  0  0
 20 21  1  0  0  0  0
 20 29  1  0  0  0  0
 20 30  1  0  0  0  0
 21 22  4  0  0  0  0
 21 26  4  0  0  0  0
 22 23  4  0  0  0  0
 22 31  1  0  0  0  0
 23 24  4  0  0  0  0
 23 32  1  0  0  0  0
 24 25  4  0  0  0  0
 24 33  1  0  0  0  0
 25 26  4  0  0  0  0
 25 34  1  0  0  0  0
 26 35  1  0  0  0  0
M  END
> <BCLConfClusterSize>
1

> <ConfClashScore>
0 

> <ConfOneFourInteractionScore>
-0.991445 

> <ConfScore>
0.341266 

> <ConfScorePBest>
0.0033054 

> <ConfTolerance>
0.926833 

> <RosettaParamsInstructions>
M  ROOT 3
M  POLY_N_BB 3
M  POLY_CA_BB 4
M  POLY_C_BB 2
M  POLY_O_BB 5
M  POLY_IGNORE 9 10 11 12 13 14 15 16 17 18 
M  POLY_UPPER 6
M  POLY_LOWER 8
M  POLY_CHG 0
M  POLY_PROPERTIES ALPHA_AA D_AA PROTEIN AROMATIC POLYMER 
M  END

$$$$



 35 35  0  0  0  0  0  0  0  0999 V2000
   -2.1610    1.8252   -2.0278 H   0  0  0  1  0  0  0  0  0  0  0  0
   -0.5096    0.6056   -1.5337 C   0  0  0  1  0  0  0  0  0  0  0  0
   -0.5396    2.4688   -3.1387 N   0  0  0  1  0  0  0  0  0  0  0  0
   -1.1057    1.9502   -1.9024 C   0  0  0  1  0  0  0  0  0  0  0  0
   -0.4409    0.2417   -0.3605 O   0  0  0  1  0  0  0  0  0  0  0  0
   -0.1509   -0.1859   -2.5544 N   0  0  0  1  0  0  0  0  0  0  0  0
   -1.1431    2.8372   -3.8173 H   0  0  0  1  0  0  0  0  0  0  0  0
    0.7743    2.4603   -3.3807 C   0  0  0  1  0  0  0  0  0  0  0  0
    0.3394   -1.5306   -2.2983 C   0  0  0  1  0  0  0  0  0  0  0  0
    1.2103    3.1222   -4.6733 C   0  0  0  1  0  0  0  0  0  0  0  0
    1.5917    1.9535   -2.6169 O   0  0  0  1  0  0  0  0  0  0  0  0
   -0.2194    0.1425   -3.4752 H   0  0  0  1  0  0  0  0  0  0  0  0
   -0.3877   -2.0741   -1.7320 H   0  0  0  1  0  0  0  0  0  0  0  0
    1.2542   -1.4772   -1.7457 H   0  0  0  1  0  0  0  0  0  0  0  0
    0.5128   -2.0300   -3.2285 H   0  0  0  1  0  0  0  0  0  0  0  0
    0.3471    3.3995   -5.2415 H   0  0  0  1  0  0  0  0  0  0  0  0
    1.8059    2.4381   -5.2409 H   0  0  0  1  0  0  0  0  0  0  0  0
    1.7856    3.9962   -4.4498 H   0  0  0  1  0  0  0  0  0  0  0  0
   -0.8807    2.9515   -0.7798 C   0  0  0  1  0  0  0  0  0  0  0  0
   -1.7496    4.1900   -0.9776 C   0  0  0  1  0  0  0  0  0  0  0  0
   -1.3870    5.0508   -2.1581 C   0  0  0  1  0  0  0  0  0  0  0  0
   -2.3176    5.2842   -3.1585 C   0  0  0  1  0  0  0  0  0  0  0  0
   -1.9825    6.0702   -4.2447 C   0  0  0  1  0  0  0  0  0  0  0  0
   -0.7171    6.6296   -4.3311 C   0  0  0  1  0  0  0  0  0  0  0  0
    0.2110    6.3971   -3.3337 C   0  0  0  1  0  0  0  0  0  0  0  0
   -0.1254    5.6087   -2.2443 C   0  0  0  1  0  0  0  0  0  0  0  0
    0.1488    3.2430   -0.7708 H   0  0  0  1  0  0  0  0  0  0  0  0
   -1.1304    2.4933    0.1543 H   0  0  0  1  0  0  0  0  0  0  0  0
   -1.6738    4.7907   -0.0954 H   0  0  0  1  0  0  0  0  0  0  0  0
   -2.7617    3.8665   -1.1035 H   0  0  0  1  0  0  0  0  0  0  0  0
   -3.2683    4.8677   -3.0917 H   0  0  0  1  0  0  0  0  0  0  0  0
   -2.6795    6.2419   -4.9973 H   0  0  0  1  0  0  0  0  0  0  0  0
   -0.4662    7.2244   -5.1465 H   0  0  0  1  0  0  0  0  0  0  0  0
    1.1616    6.8136   -3.4006 H   0  0  0  1  0  0  0  0  0  0  0  0
    0.5716    5.4370   -1.4918 H   0  0  0  1  0  0  0  0  0  0  0  0
  1  4  1  0  0  0  0
  2  4  1  0  0  0  0
  2  5  2  0  0  0  0
  2  6  1  0  0  0  0
  3  4  1  0  0  0  0
  3  7  1  0  0  0  0
  3  8  1  0  0  0  0
  4 19  1  0  0  0  0
  6  9  1  0  0  0  0
  6 12  1  0  0  0  0
  8 10  1  0  0  0  0
  8 11  2  0  0  0  0
  9 13  1  0  0  0  0
  9 14  1  0  0  0  0
  9 15  1  0  0  0  0
 10 16  1  0  0  0  0
 10 17  1  0  0  0  0
 10 18  1  0  0  0  0
 19 20  1  0  0  0  0
 19 27  1  0  0  0  0
 19 28  1  0  0  0  0
 20 21  1  0  0  0  0
 20 29  1  0  0  0  0
 20 30  1  0  0  0  0
 21 22  4  0  0  0  0
 21 26  4  0  0  0  0
 22 23  4  0  0  0  0
 22 31  1  0  0  0  0
 23 24  4  0  0  0  0
 23 32  1  0  0  0  0
 24 25  4  0  0  0  0
 24 33  1  0  0  0  0
 25 26  4  0  0  0  0
 25 34  1  0  0  0  0
 26 35  1  0  0  0  0
M  END
> <BCLConfClusterSize>
1

> <ConfClashScore>
0 

> <ConfOneFourInteractionScore>
-0.968021 

> <ConfScore>
0.344333 

> <ConfScorePBest>
0.00327691 

> <ConfTolerance>
0.677437 

> <RosettaParamsInstructions>
M  ROOT 3
M  POLY_N_BB 3
M  POLY_CA_BB 4
M  POLY_C_BB 2
M  POLY_O_BB 5
M  POLY_IGNORE 9 10 11 12 13 14 15 16 17 18 
M  POLY_UPPER 6
M  POLY_LOWER 8
M  POLY_CHG 0
M  POLY_PROPERTIES ALPHA_AA D_AA PROTEIN AROMATIC POLYMER 
M  END

$$$$



 35 35  0  0  0  0  0  0  0  0999 V2000
   -0.8780    2.8641   -3.1832 H   0  0  0  1  0  0  0  0  0  0  0  0
   -1.2548    0.8332   -2.9710 C   0  0  0  1  0  0  0  0  0  0  0  0
    0.3379    2.2112   -1.6709 N   0  0  0  1  0  0  0  0  0  0  0  0
   -0.9582    2.1824   -2.3624 C   0  0  0  1  0  0  0  0  0  0  0  0
   -2.4193    0.5022   -3.1901 O   0  0  0  1  0  0  0  0  0  0  0  0
   -0.1987    0.0844   -3.3261 N   0  0  0  1  0  0  0  0  0  0  0  0
    0.9864    2.9059   -1.9101 H   0  0  0  1  0  0  0  0  0  0  0  0
    0.6632    1.3231   -0.7272 C   0  0  0  1  0  0  0  0  0  0  0  0
   -0.2985   -1.2081   -3.9874 C   0  0  0  1  0  0  0  0  0  0  0  0
    2.0236    1.5129   -0.0848 C   0  0  0  1  0  0  0  0  0  0  0  0
   -0.0803    0.4035   -0.3879 O   0  0  0  1  0  0  0  0  0  0  0  0
    0.6964    0.4301   -3.1273 H   0  0  0  1  0  0  0  0  0  0  0  0
   -0.8612   -1.8806   -3.3742 H   0  0  0  1  0  0  0  0  0  0  0  0
    0.6827   -1.6049   -4.1443 H   0  0  0  1  0  0  0  0  0  0  0  0
   -0.7905   -1.0891   -4.9301 H   0  0  0  1  0  0  0  0  0  0  0  0
    2.6279    0.6487   -0.2661 H   0  0  0  1  0  0  0  0  0  0  0  0
    1.9039    1.6494    0.9696 H   0  0  0  1  0  0  0  0  0  0  0  0
    2.4989    2.3746   -0.5048 H   0  0  0  1  0  0  0  0  0  0  0  0
   -2.0673    2.7325   -1.4731 C   0  0  0  1  0  0  0  0  0  0  0  0
   -1.7381    4.1427   -1.0113 C   0  0  0  1  0  0  0  0  0  0  0  0
   -1.3926    5.0693   -2.1462 C   0  0  0  1  0  0  0  0  0  0  0  0
   -2.3215    5.2960   -3.1498 C   0  0  0  1  0  0  0  0  0  0  0  0
   -1.9824    6.0699   -4.2436 C   0  0  0  1  0  0  0  0  0  0  0  0
   -0.7149    6.6237   -4.3344 C   0  0  0  1  0  0  0  0  0  0  0  0
    0.2115    6.3977   -3.3339 C   0  0  0  1  0  0  0  0  0  0  0  0
   -0.1288    5.6215   -2.2369 C   0  0  0  1  0  0  0  0  0  0  0  0
   -2.1771    2.0997   -0.6173 H   0  0  0  1  0  0  0  0  0  0  0  0
   -2.9838    2.7490   -2.0250 H   0  0  0  1  0  0  0  0  0  0  0  0
   -0.9035    4.0962   -0.3434 H   0  0  0  1  0  0  0  0  0  0  0  0
   -2.5873    4.5389   -0.4947 H   0  0  0  1  0  0  0  0  0  0  0  0
   -3.2737    4.8838   -3.0797 H   0  0  0  1  0  0  0  0  0  0  0  0
   -2.6781    6.2366   -4.9985 H   0  0  0  1  0  0  0  0  0  0  0  0
   -0.4610    7.2093   -5.1555 H   0  0  0  1  0  0  0  0  0  0  0  0
    1.1637    6.8099   -3.4040 H   0  0  0  1  0  0  0  0  0  0  0  0
    0.5669    5.4547   -1.4820 H   0  0  0  1  0  0  0  0  0  0  0  0
  1  4  1  0  0  0  0
  2  4  1  0  0  0  0
  2  5  2  0  0  0  0
  2  6  1  0  0  0  0
  3  4  1  0  0  0  0
  3  7  1  0  0  0  0
  3  8  1  0  0  0  0
  4 19  1  0  0  0  0
  6  9  1  0  0  0  0
  6 12  1  0  0  0  0
  8 10  1  0  0  0  0
  8 11  2  0  0  0  0
  9 13  1  0  0  0  0
  9 14  1  0  0  0  0
  9 15  1  0  0  0  0
 10 16  1  0  0  0  0
 10 17  1  0  0  0  0
 10 18  1  0  0  0  0
 19 20  1  0  0  0  0
 19 27  1  0  0  0  0
 19 28  1  0  0  0  0
 20 21  1  0  0  0  0
 20 29  1  0  0  0  0
 20 30  1  0  0  0  0
 21 22  4  0  0  0  0
 21 26  4  0  0  0  0
 22 23  4  0  0  0  0
 22 31  1  0  0  0  0
 23 24  4  0  0  0  0
 23 32  1  0  0  0  0
 24 25  4  0  0  0  0
 24 33  1  0  0  0  0
 25 26  4  0  0  0  0
 25 34  1  0  0  0  0
 26 35  1  0  0  0  0
M  END
> <BCLConfClusterSize>
1

> <ConfClashScore>
0 

> <ConfOneFourInteractionScore>
-0.968316 

> <ConfScore>
0.347906 

> <ConfScorePBest>
0.00324843 

> <ConfTolerance>
0.494797 

> <RosettaParamsInstructions>
M  ROOT 3
M  POLY_N_BB 3
M  POLY_CA_BB 4
M  POLY_C_BB 2
M  POLY_O_BB 5
M  POLY_IGNORE 9 10 11 12 13 14 15 16 17 18 
M  POLY_UPPER 6
M  POLY_LOWER 8
M  POLY_CHG 0
M  POLY_PROPERTIES ALPHA_AA D_AA PROTEIN AROMATIC POLYMER 
M  END

$$$$



 35 35  0  0  0  0  0  0  0  0999 V2000
   -2.8373    1.9753    0.2259 H   0  0  0  1  0  0  0  0  0  0  0  0
   -0.8065    1.8707    0.7041 C   0  0  0  1  0  0  0  0  0  0  0  0
   -2.0684    0.4096   -0.8525 N   0  0  0  1  0  0  0  0  0  0  0  0
   -1.9318    1.7520   -0.2986 C   0  0  0  1  0  0  0  0  0  0  0  0
    0.2218    2.4875    0.4285 O   0  0  0  1  0  0  0  0  0  0  0  0
   -0.9623    1.2876    1.8936 N   0  0  0  1  0  0  0  0  0  0  0  0
   -2.6427    0.3002   -1.6390 H   0  0  0  1  0  0  0  0  0  0  0  0
   -1.4636   -0.6925   -0.3638 C   0  0  0  1  0  0  0  0  0  0  0  0
    0.0178    1.3136    2.9691 C   0  0  0  1  0  0  0  0  0  0  0  0
   -1.9074   -2.0506   -0.8923 C   0  0  0  1  0  0  0  0  0  0  0  0
   -0.6112   -0.6687    0.4486 O   0  0  0  1  0  0  0  0  0  0  0  0
   -1.7999    0.8053    2.0556 H   0  0  0  1  0  0  0  0  0  0  0  0
    0.1966    2.3262    3.2650 H   0  0  0  1  0  0  0  0  0  0  0  0
    0.9325    0.8751    2.6284 H   0  0  0  1  0  0  0  0  0  0  0  0
   -0.3549    0.7587    3.8045 H   0  0  0  1  0  0  0  0  0  0  0  0
   -1.4399   -2.8259   -0.3220 H   0  0  0  1  0  0  0  0  0  0  0  0
   -1.6236   -2.1433   -1.9198 H   0  0  0  1  0  0  0  0  0  0  0  0
   -2.9705   -2.1364   -0.8063 H   0  0  0  1  0  0  0  0  0  0  0  0
   -1.8427    2.7454   -1.4411 C   0  0  0  1  0  0  0  0  0  0  0  0
   -1.7496    4.1900   -0.9776 C   0  0  0  1  0  0  0  0  0  0  0  0
   -1.3870    5.0508   -2.1581 C   0  0  0  1  0  0  0  0  0  0  0  0
   -2.3176    5.2842   -3.1585 C   0  0  0  1  0  0  0  0  0  0  0  0
   -1.9825    6.0702   -4.2447 C   0  0  0  1  0  0  0  0  0  0  0  0
   -0.7171    6.6296   -4.3311 C   0  0  0  1  0  0  0  0  0  0  0  0
    0.2110    6.3971   -3.3337 C   0  0  0  1  0  0  0  0  0  0  0  0
   -0.1254    5.6087   -2.2443 C   0  0  0  1  0  0  0  0  0  0  0  0
   -2.7156    2.6403   -2.0509 H   0  0  0  1  0  0  0  0  0  0  0  0
   -0.9725    2.5184   -2.0209 H   0  0  0  1  0  0  0  0  0  0  0  0
   -0.9967    4.2783   -0.2224 H   0  0  0  1  0  0  0  0  0  0  0  0
   -2.6926    4.5023   -0.5801 H   0  0  0  1  0  0  0  0  0  0  0  0
   -3.2683    4.8677   -3.0917 H   0  0  0  1  0  0  0  0  0  0  0  0
   -2.6795    6.2419   -4.9973 H   0  0  0  1  0  0  0  0  0  0  0  0
   -0.4662    7.2244   -5.1465 H   0  0  0  1  0  0  0  0  0  0  0  0
    1.1616    6.8136   -3.4006 H   0  0  0  1  0  0  0  0  0  0  0  0
    0.5716    5.4370   -1.4918 H   0  0  0  1  0  0  0  0  0  0  0  0
  1  4  1  0  0  0  0
  2  4  1  0  0  0  0
  2  5  2  0  0  0  0
  2  6  1  0  0  0  0
  3  4  1  0  0  0  0
  3  7  1  0  0  0  0
  3  8  1  0  0  0  0
  4 19  1  0  0  0  0
  6  9  1  0  0  0  0
  6 12  1  0  0  0  0
  8 10  1  0  0  0  0
  8 11  2  0  0  0  0
  9 13  1  0  0  0  0
  9 14  1  0  0  0  0
  9 15  1  0  0  0  0
 10 16  1  0  0  0  0
 10 17  1  0  0  0  0
 10 18  1  0  0  0  0
 19 20  1  0  0  0  0
 19 27  1  0  0  0  0
 19 28  1  0  0  0  0
 20 21  1  0  0  0  0
 20 29  1  0  0  0  0
 20 30  1  0  0  0  0
 21 22  4  0  0  0  0
 21 26  4  0  0  0  0
 22 23  4  0  0  0  0
 22 31  1  0  0  0  0
 23 24  4  0  0  0  0
 23 32  1  0  0  0  0
 24 25  4  0  0  0  0
 24 33  1  0  0  0  0
 25 26  4  0  0  0  0
 25 34  1  0  0  0  0
 26 35  1  0  0  0  0
M  END
> <BCLConfClusterSize>
1

> <ConfClashScore>
0.000370951 

> <ConfOneFourInteractionScore>
-0.987145 

> <ConfScore>
0.349544 

> <ConfScorePBest>
0.00321995 

> <ConfTolerance>
0.684418 

> <RosettaParamsInstructions>
M  ROOT 3
M  POLY_N_BB 3
M  POLY_CA_BB 4
M  POLY_C_BB 2
M  POLY_O_BB 5
M  POLY_IGNORE 9 10 11 12 13 14 15 16 17 18 
M  POLY_UPPER 6
M  POLY_LOWER 8
M  POLY_CHG 0
M  POLY_PROPERTIES ALPHA_AA D_AA PROTEIN AROMATIC POLYMER 
M  END

$$$$



 35 35  0  0  0  0  0  0  0  0999 V2000
   -1.5822    3.7012    1.7651 H   0  0  0  1  0  0  0  0  0  0  0  0
   -3.4888    3.0350    1.1013 C   0  0  0  1  0  0  0  0  0  0  0  0
   -3.0423    4.9515    2.5427 N   0  0  0  1  0  0  0  0  0  0  0  0
   -2.5031    4.1491    1.4549 C   0  0  0  1  0  0  0  0  0  0  0  0
   -3.4840    1.9784    1.7316 O   0  0  0  1  0  0  0  0  0  0  0  0
   -4.2733    3.2311    0.0377 N   0  0  0  1  0  0  0  0  0  0  0  0
   -3.9867    5.2116    2.5155 H   0  0  0  1  0  0  0  0  0  0  0  0
   -2.2935    5.3463    3.5785 C   0  0  0  1  0  0  0  0  0  0  0  0
   -5.2996    2.2572   -0.3027 C   0  0  0  1  0  0  0  0  0  0  0  0
   -3.0176    6.1355    4.6518 C   0  0  0  1  0  0  0  0  0  0  0  0
   -1.0949    5.0950    3.6715 O   0  0  0  1  0  0  0  0  0  0  0  0
   -4.1572    4.0325   -0.5143 H   0  0  0  1  0  0  0  0  0  0  0  0
   -4.9791    1.2811   -0.0036 H   0  0  0  1  0  0  0  0  0  0  0  0
   -5.4660    2.2694   -1.3597 H   0  0  0  1  0  0  0  0  0  0  0  0
   -6.2085    2.5050    0.2047 H   0  0  0  1  0  0  0  0  0  0  0  0
   -2.3347    6.3773    5.4393 H   0  0  0  1  0  0  0  0  0  0  0  0
   -3.8213    5.5486    5.0447 H   0  0  0  1  0  0  0  0  0  0  0  0
   -3.4076    7.0377    4.2288 H   0  0  0  1  0  0  0  0  0  0  0  0
   -2.2362    4.9983    0.2174 C   0  0  0  1  0  0  0  0  0  0  0  0
   -1.7068    4.1969   -0.9607 C   0  0  0  1  0  0  0  0  0  0  0  0
   -1.3961    5.0494   -2.1618 C   0  0  0  1  0  0  0  0  0  0  0  0
   -2.3235    5.2856   -3.1647 C   0  0  0  1  0  0  0  0  0  0  0  0
   -1.9838    6.0723   -4.2490 C   0  0  0  1  0  0  0  0  0  0  0  0
   -0.7172    6.6296   -4.3310 C   0  0  0  1  0  0  0  0  0  0  0  0
    0.2076    6.3943   -3.3312 C   0  0  0  1  0  0  0  0  0  0  0  0
   -0.1333    5.6052   -2.2437 C   0  0  0  1  0  0  0  0  0  0  0  0
   -1.5152    5.7477    0.4693 H   0  0  0  1  0  0  0  0  0  0  0  0
   -3.1519    5.4679   -0.0758 H   0  0  0  1  0  0  0  0  0  0  0  0
   -2.4438    3.4726   -1.2386 H   0  0  0  1  0  0  0  0  0  0  0  0
   -0.8110    3.6966   -0.6572 H   0  0  0  1  0  0  0  0  0  0  0  0
   -3.2750    4.8707   -3.1011 H   0  0  0  1  0  0  0  0  0  0  0  0
   -2.6783    6.2461   -5.0033 H   0  0  0  1  0  0  0  0  0  0  0  0
   -0.4628    7.2249   -5.1450 H   0  0  0  1  0  0  0  0  0  0  0  0
    1.1592    6.8091   -3.3948 H   0  0  0  1  0  0  0  0  0  0  0  0
    0.5612    5.4313   -1.4894 H   0  0  0  1  0  0  0  0  0  0  0  0
  1  4  1  0  0  0  0
  2  4  1  0  0  0  0
  2  5  2  0  0  0  0
  2  6  1  0  0  0  0
  3  4  1  0  0  0  0
  3  7  1  0  0  0  0
  3  8  1  0  0  0  0
  4 19  1  0  0  0  0
  6  9  1  0  0  0  0
  6 12  1  0  0  0  0
  8 10  1  0  0  0  0
  8 11  2  0  0  0  0
  9 13  1  0  0  0  0
  9 14  1  0  0  0  0
  9 15  1  0  0  0  0
 10 16  1  0  0  0  0
 10 17  1  0  0  0  0
 10 18  1  0  0  0  0
 19 20  1  0  0  0  0
 19 27  1  0  0  0  0
 19 28  1  0  0  0  0
 20 21  1  0  0  0  0
 20 29  1  0  0  0  0
 20 30  1  0  0  0  0
 21 22  4  0  0  0  0
 21 26  4  0  0  0  0
 22 23  4  0  0  0  0
 22 31  1  0  0  0  0
 23 24  4  0  0  0  0
 23 32  1  0  0  0  0
 24 25  4  0  0  0  0
 24 33  1  0  0  0  0
 25 26  4  0  0  0  0
 25 34  1  0  0  0  0
 26 35  1  0  0  0  0
M  END
> <BCLConfClusterSize>
1

> <ConfClashScore>
0 

> <ConfOneFourInteractionScore>
-0.946199 

> <ConfScore>
0.35011 

> <ConfScorePBest>
0.00319147 

> <ConfTolerance>
0.791254 

> <RosettaParamsInstructions>
M  ROOT 3
M  POLY_N_BB 3
M  POLY_CA_BB 4
M  POLY_C_BB 2
M  POLY_O_BB 5
M  POLY_IGNORE 9 10 11 12 13 14 15 16 17 18 
M  POLY_UPPER 6
M  POLY_LOWER 8
M  POLY_CHG 0
M  POLY_PROPERTIES ALPHA_AA D_AA PROTEIN AROMATIC POLYMER 
M  END

$$$$



 35 35  0  0  0  0  0  0  0  0999 V2000
   -3.9505    5.6646   -0.5932 H   0  0  0  1  0  0  0  0  0  0  0  0
   -4.0102    6.2301    1.4207 C   0  0  0  1  0  0  0  0  0  0  0  0
   -4.4238    3.9924    0.5068 N   0  0  0  1  0  0  0  0  0  0  0  0
   -3.6545    5.2294    0.3384 C   0  0  0  1  0  0  0  0  0  0  0  0
   -3.8979    7.4420    1.2406 O   0  0  0  1  0  0  0  0  0  0  0  0
   -4.4433    5.6673    2.5499 N   0  0  0  1  0  0  0  0  0  0  0  0
   -3.9601    3.1327    0.4280 H   0  0  0  1  0  0  0  0  0  0  0  0
   -5.7348    3.9967    0.7641 C   0  0  0  1  0  0  0  0  0  0  0  0
   -4.8143    6.3948    3.7544 C   0  0  0  1  0  0  0  0  0  0  0  0
   -6.3790    2.6372    0.9148 C   0  0  0  1  0  0  0  0  0  0  0  0
   -6.3924    5.0306    0.8746 O   0  0  0  1  0  0  0  0  0  0  0  0
   -4.5172    4.6903    2.5698 H   0  0  0  1  0  0  0  0  0  0  0  0
   -5.5963    5.8699    4.2622 H   0  0  0  1  0  0  0  0  0  0  0  0
   -5.1560    7.3734    3.4888 H   0  0  0  1  0  0  0  0  0  0  0  0
   -3.9633    6.4761    4.3980 H   0  0  0  1  0  0  0  0  0  0  0  0
   -5.6710    1.8763    0.6607 H   0  0  0  1  0  0  0  0  0  0  0  0
   -7.2247    2.5692    0.2628 H   0  0  0  1  0  0  0  0  0  0  0  0
   -6.6973    2.5039    1.9277 H   0  0  0  1  0  0  0  0  0  0  0  0
   -2.1597    4.9899    0.2487 C   0  0  0  1  0  0  0  0  0  0  0  0
   -1.7517    4.1850   -0.9707 C   0  0  0  1  0  0  0  0  0  0  0  0
   -1.3868    5.0513   -2.1587 C   0  0  0  1  0  0  0  0  0  0  0  0
   -2.3175    5.2846   -3.1591 C   0  0  0  1  0  0  0  0  0  0  0  0
   -1.9823    6.0706   -4.2454 C   0  0  0  1  0  0  0  0  0  0  0  0
   -0.7170    6.6301   -4.3317 C   0  0  0  1  0  0  0  0  0  0  0  0
    0.2112    6.3976   -3.3343 C   0  0  0  1  0  0  0  0  0  0  0  0
   -0.1252    5.6092   -2.2449 C   0  0  0  1  0  0  0  0  0  0  0  0
   -1.8477    4.4604    1.1246 H   0  0  0  1  0  0  0  0  0  0  0  0
   -1.6659    5.9384    0.2099 H   0  0  0  1  0  0  0  0  0  0  0  0
   -2.5677    3.5514   -1.2492 H   0  0  0  1  0  0  0  0  0  0  0  0
   -0.9043    3.5841   -0.7143 H   0  0  0  1  0  0  0  0  0  0  0  0
   -3.2681    4.8681   -3.0923 H   0  0  0  1  0  0  0  0  0  0  0  0
   -2.6793    6.2424   -4.9979 H   0  0  0  1  0  0  0  0  0  0  0  0
   -0.4660    7.2249   -5.1471 H   0  0  0  1  0  0  0  0  0  0  0  0
    1.1618    6.8141   -3.4012 H   0  0  0  1  0  0  0  0  0  0  0  0
    0.5718    5.4374   -1.4924 H   0  0  0  1  0  0  0  0  0  0  0  0
  1  4  1  0  0  0  0
  2  4  1  0  0  0  0
  2  5  2  0  0  0  0
  2  6  1  0  0  0  0
  3  4  1  0  0  0  0
  3  7  1  0  0  0  0
  3  8  1  0  0  0  0
  4 19  1  0  0  0  0
  6  9  1  0  0  0  0
  6 12  1  0  0  0  0
  8 10  1  0  0  0  0
  8 11  2  0  0  0  0
  9 13  1  0  0  0  0
  9 14  1  0  0  0  0
  9 15  1  0  0  0  0
 10 16  1  0  0  0  0
 10 17  1  0  0  0  0
 10 18  1  0  0  0  0
 19 20  1  0  0  0  0
 19 27  1  0  0  0  0
 19 28  1  0  0  0  0
 20 21  1  0  0  0  0
 20 29  1  0  0  0  0
 20 30  1  0  0  0  0
 21 22  4  0  0  0  0
 21 26  4  0  0  0  0
 22 23  4  0  0  0  0
 22 31  1  0  0  0  0
 23 24  4  0  0  0  0
 23 32  1  0  0  0  0
 24 25  4  0  0  0  0
 24 33  1  0  0  0  0
 25 26  4  0  0  0  0
 25 34  1  0  0  0  0
 26 35  1  0  0  0  0
M  END
> <BCLConfClusterSize>
1

> <ConfClashScore>
0 

> <ConfOneFourInteractionScore>
-0.94808 

> <ConfScore>
0.35101 

> <ConfScorePBest>
0.00316299 

> <ConfTolerance>
0.927187 

> <RosettaParamsInstructions>
M  ROOT 3
M  POLY_N_BB 3
M  POLY_CA_BB 4
M  POLY_C_BB 2
M  POLY_O_BB 5
M  POLY_IGNORE 9 10 11 12 13 14 15 16 17 18 
M  POLY_UPPER 6
M  POLY_LOWER 8
M  POLY_CHG 0
M  POLY_PROPERTIES ALPHA_AA D_AA PROTEIN AROMATIC POLYMER 
M  END

$$$$



 35 35  0  0  0  0  0  0  0  0999 V2000
   -1.0405    3.0851    1.2490 H   0  0  0  1  0  0  0  0  0  0  0  0
    0.0814    1.3563    0.8378 C   0  0  0  1  0  0  0  0  0  0  0  0
   -2.3528    1.6476    0.5808 N   0  0  0  1  0  0  0  0  0  0  0  0
   -1.0564    2.3056    0.5161 C   0  0  0  1  0  0  0  0  0  0  0  0
    1.1106    1.3418    0.1639 O   0  0  0  1  0  0  0  0  0  0  0  0
   -0.1135    0.5484    1.8920 N   0  0  0  1  0  0  0  0  0  0  0  0
   -3.0381    2.0106    1.1799 H   0  0  0  1  0  0  0  0  0  0  0  0
   -2.6412    0.5658   -0.1483 C   0  0  0  1  0  0  0  0  0  0  0  0
    0.8765   -0.3923    2.3949 C   0  0  0  1  0  0  0  0  0  0  0  0
   -3.9946   -0.0649    0.1157 C   0  0  0  1  0  0  0  0  0  0  0  0
   -1.8771    0.1009   -0.9780 O   0  0  0  1  0  0  0  0  0  0  0  0
   -0.9774    0.5950    2.3522 H   0  0  0  1  0  0  0  0  0  0  0  0
    0.3802   -1.2326    2.8336 H   0  0  0  1  0  0  0  0  0  0  0  0
    1.4827    0.0892    3.1336 H   0  0  0  1  0  0  0  0  0  0  0  0
    1.4945   -0.7251    1.5873 H   0  0  0  1  0  0  0  0  0  0  0  0
   -4.7577    0.5149   -0.3600 H   0  0  0  1  0  0  0  0  0  0  0  0
   -4.1745   -0.0943    1.1700 H   0  0  0  1  0  0  0  0  0  0  0  0
   -4.0066   -1.0603   -0.2766 H   0  0  0  1  0  0  0  0  0  0  0  0
   -0.8658    2.9607   -0.8433 C   0  0  0  1  0  0  0  0  0  0  0  0
   -1.7496    4.1900   -0.9776 C   0  0  0  1  0  0  0  0  0  0  0  0
   -1.3870    5.0508   -2.1581 C   0  0  0  1  0  0  0  0  0  0  0  0
   -2.3176    5.2842   -3.1585 C   0  0  0  1  0  0  0  0  0  0  0  0
   -1.9825    6.0702   -4.2447 C   0  0  0  1  0  0  0  0  0  0  0  0
   -0.7171    6.6296   -4.3311 C   0  0  0  1  0  0  0  0  0  0  0  0
    0.2110    6.3971   -3.3337 C   0  0  0  1  0  0  0  0  0  0  0  0
   -0.1254    5.6087   -2.2443 C   0  0  0  1  0  0  0  0  0  0  0  0
   -1.1217    2.2592   -1.6097 H   0  0  0  1  0  0  0  0  0  0  0  0
    0.1582    3.2511   -0.9523 H   0  0  0  1  0  0  0  0  0  0  0  0
   -1.6557    4.7759   -0.0872 H   0  0  0  1  0  0  0  0  0  0  0  0
   -2.7644    3.8694   -1.0888 H   0  0  0  1  0  0  0  0  0  0  0  0
   -3.2683    4.8677   -3.0917 H   0  0  0  1  0  0  0  0  0  0  0  0
   -2.6795    6.2419   -4.9973 H   0  0  0  1  0  0  0  0  0  0  0  0
   -0.4662    7.2244   -5.1465 H   0  0  0  1  0  0  0  0  0  0  0  0
    1.1616    6.8136   -3.4006 H   0  0  0  1  0  0  0  0  0  0  0  0
    0.5716    5.4370   -1.4918 H   0  0  0  1  0  0  0  0  0  0  0  0
  1  4  1  0  0  0  0
  2  4  1  0  0  0  0
  2  5  2  0  0  0  0
  2  6  1  0  0  0  0
  3  4  1  0  0  0  0
  3  7  1  0  0  0  0
  3  8  1  0  0  0  0
  4 19  1  0  0  0  0
  6  9  1  0  0  0  0
  6 12  1  0  0  0  0
  8 10  1  0  0  0  0
  8 11  2  0  0  0  0
  9 13  1  0  0  0  0
  9 14  1  0  0  0  0
  9 15  1  0  0  0  0
 10 16  1  0  0  0  0
 10 17  1  0  0  0  0
 10 18  1  0  0  0  0
 19 20  1  0  0  0  0
 19 27  1  0  0  0  0
 19 28  1  0  0  0  0
 20 21  1  0  0  0  0
 20 29  1  0  0  0  0
 20 30  1  0  0  0  0
 21 22  4  0  0  0  0
 21 26  4  0  0  0  0
 22 23  4  0  0  0  0
 22 31  1  0  0  0  0
 23 24  4  0  0  0  0
 23 32  1  0  0  0  0
 24 25  4  0  0  0  0
 24 33  1  0  0  0  0
 25 26  4  0  0  0  0
 25 34  1  0  0  0  0
 26 35  1  0  0  0  0
M  END
> <BCLConfClusterSize>
1

> <ConfClashScore>
0 

> <ConfOneFourInteractionScore>
-0.983812 

> <ConfScore>
0.359322 

> <ConfScorePBest>
0.00313451 

> <ConfTolerance>
0.751209 

> <RosettaParamsInstructions>
M  ROOT 3
M  POLY_N_BB 3
M  POLY_CA_BB 4
M  POLY_C_BB 2
M  POLY_O_BB 5
M  POLY_IGNORE 9 10 11 12 13 14 15 16 17 18 
M  POLY_UPPER 6
M  POLY_LOWER 8
M  POLY_CHG 0
M  POLY_PROPERTIES ALPHA_AA D_AA PROTEIN AROMATIC POLYMER 
M  END

$$$$



 35 35  0  0  0  0  0  0  0  0999 V2000
   -3.7815    6.2479    0.8449 H   0  0  0  1  0  0  0  0  0  0  0  0
   -4.5609    5.1827   -0.7737 C   0  0  0  1  0  0  0  0  0  0  0  0
   -2.9387    7.0572   -0.8329 N   0  0  0  1  0  0  0  0  0  0  0  0
   -3.4078    5.8949   -0.0935 C   0  0  0  1  0  0  0  0  0  0  0  0
   -4.9275    4.0693   -0.4072 O   0  0  0  1  0  0  0  0  0  0  0  0
   -5.1402    5.8464   -1.7866 N   0  0  0  1  0  0  0  0  0  0  0  0
   -3.2592    7.2401   -1.7407 H   0  0  0  1  0  0  0  0  0  0  0  0
   -2.0542    7.8718   -0.2360 C   0  0  0  1  0  0  0  0  0  0  0  0
   -6.1357    5.2304   -2.6511 C   0  0  0  1  0  0  0  0  0  0  0  0
   -1.6844    9.0911   -1.0709 C   0  0  0  1  0  0  0  0  0  0  0  0
   -1.5685    7.6818    0.8783 O   0  0  0  1  0  0  0  0  0  0  0  0
   -4.8838    6.7782   -1.9495 H   0  0  0  1  0  0  0  0  0  0  0  0
   -6.9102    4.7982   -2.0526 H   0  0  0  1  0  0  0  0  0  0  0  0
   -5.6725    4.4668   -3.2404 H   0  0  0  1  0  0  0  0  0  0  0  0
   -6.5563    5.9734   -3.2961 H   0  0  0  1  0  0  0  0  0  0  0  0
   -0.9267    9.6532   -0.5661 H   0  0  0  1  0  0  0  0  0  0  0  0
   -2.5504    9.7042   -1.2093 H   0  0  0  1  0  0  0  0  0  0  0  0
   -1.3164    8.7723   -2.0237 H   0  0  0  1  0  0  0  0  0  0  0  0
   -2.2788    4.9373    0.2356 C   0  0  0  1  0  0  0  0  0  0  0  0
   -1.7496    4.1900   -0.9776 C   0  0  0  1  0  0  0  0  0  0  0  0
   -1.3870    5.0508   -2.1581 C   0  0  0  1  0  0  0  0  0  0  0  0
   -2.3176    5.2842   -3.1585 C   0  0  0  1  0  0  0  0  0  0  0  0
   -1.9825    6.0702   -4.2447 C   0  0  0  1  0  0  0  0  0  0  0  0
   -0.7171    6.6296   -4.3311 C   0  0  0  1  0  0  0  0  0  0  0  0
    0.2110    6.3971   -3.3337 C   0  0  0  1  0  0  0  0  0  0  0  0
   -0.1254    5.6087   -2.2443 C   0  0  0  1  0  0  0  0  0  0  0  0
   -2.6372    4.2213    0.9453 H   0  0  0  1  0  0  0  0  0  0  0  0
   -1.4748    5.4962    0.6670 H   0  0  0  1  0  0  0  0  0  0  0  0
   -2.5020    3.4976   -1.2928 H   0  0  0  1  0  0  0  0  0  0  0  0
   -0.8733    3.6537   -0.6786 H   0  0  0  1  0  0  0  0  0  0  0  0
   -3.2683    4.8677   -3.0917 H   0  0  0  1  0  0  0  0  0  0  0  0
   -2.6795    6.2419   -4.9973 H   0  0  0  1  0  0  0  0  0  0  0  0
   -0.4662    7.2244   -5.1465 H   0  0  0  1  0  0  0  0  0  0  0  0
    1.1616    6.8136   -3.4006 H   0  0  0  1  0  0  0  0  0  0  0  0
    0.5716    5.4370   -1.4918 H   0  0  0  1  0  0  0  0  0  0  0  0
  1  4  1  0  0  0  0
  2  4  1  0  0  0  0
  2  5  2  0  0  0  0
  2  6  1  0  0  0  0
  3  4  1  0  0  0  0
  3  7  1  0  0  0  0
  3  8  1  0  0  0  0
  4 19  1  0  0  0  0
  6  9  1  0  0  0  0
  6 12  1  0  0  0  0
  8 10  1  0  0  0  0
  8 11  2  0  0  0  0
  9 13  1  0  0  0  0
  9 14  1  0  0  0  0
  9 15  1  0  0  0  0
 10 16  1  0  0  0  0
 10 17  1  0  0  0  0
 10 18  1  0  0  0  0
 19 20  1  0  0  0  0
 19 27  1  0  0  0  0
 19 28  1  0  0  0  0
 20 21  1  0  0  0  0
 20 29  1  0  0  0  0
 20 30  1  0  0  0  0
 21 22  4  0  0  0  0
 21 26  4  0  0  0  0
 22 23  4  0  0  0  0
 22 31  1  0  0  0  0
 23 24  4  0  0  0  0
 23 32  1  0  0  0  0
 24 25  4  0  0  0  0
 24 33  1  0  0  0  0
 25 26  4  0  0  0  0
 25 34  1  0  0  0  0
 26 35  1  0  0  0  0
M  END
> <BCLConfClusterSize>
1

> <ConfClashScore>
0 

> <ConfOneFourInteractionScore>
-0.968792 

> <ConfScore>
0.360854 

> <ConfScorePBest>
0.00310603 

> <ConfTolerance>
1.00998 

> <RosettaParamsInstructions>
M  ROOT 3
M  POLY_N_BB 3
M  POLY_CA_BB 4
M  POLY_C_BB 2
M  POLY_O_BB 5
M  POLY_IGNORE 9 10 11 12 13 14 15 16 17 18 
M  POLY_UPPER 6
M  POLY_LOWER 8
M  POLY_CHG 0
M  POLY_PROPERTIES ALPHA_AA D_AA PROTEIN AROMATIC POLYMER 
M  END

$$$$



 35 35  0  0  0  0  0  0  0  0999 V2000
   -1.7172    6.1403    0.9178 H   0  0  0  1  0  0  0  0  0  0  0  0
   -3.7099    6.3840    1.5392 C   0  0  0  1  0  0  0  0  0  0  0  0
   -2.7294    7.0635   -0.6179 N   0  0  0  1  0  0  0  0  0  0  0  0
   -2.6840    6.0892    0.4622 C   0  0  0  1  0  0  0  0  0  0  0  0
   -3.5583    7.3166    2.3272 O   0  0  0  1  0  0  0  0  0  0  0  0
   -4.7752    5.5678    1.5689 N   0  0  0  1  0  0  0  0  0  0  0  0
   -1.8769    7.3425   -1.0126 H   0  0  0  1  0  0  0  0  0  0  0  0
   -3.8458    7.6063   -1.1119 C   0  0  0  1  0  0  0  0  0  0  0  0
   -5.7348    5.5814    2.6629 C   0  0  0  1  0  0  0  0  0  0  0  0
   -3.6492    8.6278   -2.2152 C   0  0  0  1  0  0  0  0  0  0  0  0
   -4.9699    7.3089   -0.7101 O   0  0  0  1  0  0  0  0  0  0  0  0
   -4.9116    4.9409    0.8280 H   0  0  0  1  0  0  0  0  0  0  0  0
   -5.9275    6.5922    2.9564 H   0  0  0  1  0  0  0  0  0  0  0  0
   -5.3353    5.0389    3.4942 H   0  0  0  1  0  0  0  0  0  0  0  0
   -6.6471    5.1232    2.3426 H   0  0  0  1  0  0  0  0  0  0  0  0
   -3.9934    9.5844   -1.8817 H   0  0  0  1  0  0  0  0  0  0  0  0
   -4.2054    8.3303   -3.0795 H   0  0  0  1  0  0  0  0  0  0  0  0
   -2.6101    8.6894   -2.4629 H   0  0  0  1  0  0  0  0  0  0  0  0
   -2.8469    4.6935   -0.0866 C   0  0  0  1  0  0  0  0  0  0  0  0
   -1.7068    4.1969   -0.9607 C   0  0  0  1  0  0  0  0  0  0  0  0
   -1.3961    5.0494   -2.1618 C   0  0  0  1  0  0  0  0  0  0  0  0
   -2.3235    5.2856   -3.1647 C   0  0  0  1  0  0  0  0  0  0  0  0
   -1.9838    6.0723   -4.2490 C   0  0  0  1  0  0  0  0  0  0  0  0
   -0.7172    6.6296   -4.3310 C   0  0  0  1  0  0  0  0  0  0  0  0
    0.2076    6.3943   -3.3312 C   0  0  0  1  0  0  0  0  0  0  0  0
   -0.1333    5.6052   -2.2437 C   0  0  0  1  0  0  0  0  0  0  0  0
   -3.7434    4.6714   -0.6704 H   0  0  0  1  0  0  0  0  0  0  0  0
   -2.9434    4.0229    0.7416 H   0  0  0  1  0  0  0  0  0  0  0  0
   -1.9598    3.2170   -1.3080 H   0  0  0  1  0  0  0  0  0  0  0  0
   -0.8257    4.1451   -0.3559 H   0  0  0  1  0  0  0  0  0  0  0  0
   -3.2750    4.8707   -3.1011 H   0  0  0  1  0  0  0  0  0  0  0  0
   -2.6783    6.2461   -5.0033 H   0  0  0  1  0  0  0  0  0  0  0  0
   -0.4628    7.2249   -5.1450 H   0  0  0  1  0  0  0  0  0  0  0  0
    1.1592    6.8091   -3.3948 H   0  0  0  1  0  0  0  0  0  0  0  0
    0.5612    5.4313   -1.4894 H   0  0  0  1  0  0  0  0  0  0  0  0
  1  4  1  0  0  0  0
  2  4  1  0  0  0  0
  2  5  2  0  0  0  0
  2  6  1  0  0  0  0
  3  4  1  0  0  0  0
  3  7  1  0  0  0  0
  3  8  1  0  0  0  0
  4 19  1  0  0  0  0
  6  9  1  0  0  0  0
  6 12  1  0  0  0  0
  8 10  1  0  0  0  0
  8 11  2  0  0  0  0
  9 13  1  0  0  0  0
  9 14  1  0  0  0  0
  9 15  1  0  0  0  0
 10 16  1  0  0  0  0
 10 17  1  0  0  0  0
 10 18  1  0  0  0  0
 19 20  1  0  0  0  0
 19 27  1  0  0  0  0
 19 28  1  0  0  0  0
 20 21  1  0  0  0  0
 20 29  1  0  0  0  0
 20 30  1  0  0  0  0
 21 22  4  0  0  0  0
 21 26  4  0  0  0  0
 22 23  4  0  0  0  0
 22 31  1  0  0  0  0
 23 24  4  0  0  0  0
 23 32  1  0  0  0  0
 24 25  4  0  0  0  0
 24 33  1  0  0  0  0
 25 26  4  0  0  0  0
 25 34  1  0  0  0  0
 26 35  1  0  0  0  0
M  END
> <BCLConfClusterSize>
1

> <ConfClashScore>
0 

> <ConfOneFourInteractionScore>
-0.943527 

> <ConfScore>
0.362775 

> <ConfScorePBest>
0.00307755 

> <ConfTolerance>
0.878786 

> <RosettaParamsInstructions>
M  ROOT 3
M  POLY_N_BB 3
M  POLY_CA_BB 4
M  POLY_C_BB 2
M  POLY_O_BB 5
M  POLY_IGNORE 9 10 11 12 13 14 15 16 17 18 
M  POLY_UPPER 6
M  POLY_LOWER 8
M  POLY_CHG 0
M  POLY_PROPERTIES ALPHA_AA D_AA PROTEIN AROMATIC POLYMER 
M  END

$$$$



 35 35  0  0  0  0  0  0  0  0999 V2000
   -1.9032    1.5610   -0.0770 H   0  0  0  1  0  0  0  0  0  0  0  0
   -1.5604    2.7314    1.6469 C   0  0  0  1  0  0  0  0  0  0  0  0
    0.0260    1.1910    0.5701 N   0  0  0  1  0  0  0  0  0  0  0  0
   -1.0861    2.1037    0.3505 C   0  0  0  1  0  0  0  0  0  0  0  0
   -2.1312    3.8171    1.5850 O   0  0  0  1  0  0  0  0  0  0  0  0
   -1.3334    2.0726    2.7868 N   0  0  0  1  0  0  0  0  0  0  0  0
    0.3313    1.0295    1.4872 H   0  0  0  1  0  0  0  0  0  0  0  0
    0.6451    0.5655   -0.4352 C   0  0  0  1  0  0  0  0  0  0  0  0
   -1.7362    2.5305    4.1081 C   0  0  0  1  0  0  0  0  0  0  0  0
    1.7173   -0.4280   -0.0321 C   0  0  0  1  0  0  0  0  0  0  0  0
    0.3765    0.7693   -1.6162 O   0  0  0  1  0  0  0  0  0  0  0  0
   -0.8600    1.2165    2.7288 H   0  0  0  1  0  0  0  0  0  0  0  0
   -1.0140    3.2267    4.4804 H   0  0  0  1  0  0  0  0  0  0  0  0
   -1.7993    1.6934    4.7716 H   0  0  0  1  0  0  0  0  0  0  0  0
   -2.6916    3.0081    4.0439 H   0  0  0  1  0  0  0  0  0  0  0  0
    2.0780   -0.9367   -0.9017 H   0  0  0  1  0  0  0  0  0  0  0  0
    1.3045   -1.1400    0.6517 H   0  0  0  1  0  0  0  0  0  0  0  0
    2.5260    0.0914    0.4380 H   0  0  0  1  0  0  0  0  0  0  0  0
   -0.6744    3.1751   -0.6285 C   0  0  0  1  0  0  0  0  0  0  0  0
   -1.7496    4.1900   -0.9776 C   0  0  0  1  0  0  0  0  0  0  0  0
   -1.3870    5.0508   -2.1581 C   0  0  0  1  0  0  0  0  0  0  0  0
   -2.3176    5.2842   -3.1585 C   0  0  0  1  0  0  0  0  0  0  0  0
   -1.9825    6.0702   -4.2447 C   0  0  0  1  0  0  0  0  0  0  0  0
   -0.7171    6.6296   -4.3311 C   0  0  0  1  0  0  0  0  0  0  0  0
    0.2110    6.3971   -3.3337 C   0  0  0  1  0  0  0  0  0  0  0  0
   -0.1254    5.6087   -2.2443 C   0  0  0  1  0  0  0  0  0  0  0  0
   -0.3686    2.6942   -1.5341 H   0  0  0  1  0  0  0  0  0  0  0  0
    0.1547    3.7049   -0.2079 H   0  0  0  1  0  0  0  0  0  0  0  0
   -1.9081    4.8235   -0.1300 H   0  0  0  1  0  0  0  0  0  0  0  0
   -2.6535    3.6642   -1.2044 H   0  0  0  1  0  0  0  0  0  0  0  0
   -3.2683    4.8677   -3.0917 H   0  0  0  1  0  0  0  0  0  0  0  0
   -2.6795    6.2419   -4.9973 H   0  0  0  1  0  0  0  0  0  0  0  0
   -0.4662    7.2244   -5.1465 H   0  0  0  1  0  0  0  0  0  0  0  0
    1.1616    6.8136   -3.4006 H   0  0  0  1  0  0  0  0  0  0  0  0
    0.5716    5.4370   -1.4918 H   0  0  0  1  0  0  0  0  0  0  0  0
  1  4  1  0  0  0  0
  2  4  1  0  0  0  0
  2  5  2  0  0  0  0
  2  6  1  0  0  0  0
  3  4  1  0  0  0  0
  3  7  1  0  0  0  0
  3  8  1  0  0  0  0
  4 19  1  0  0  0  0
  6  9  1  0  0  0  0
  6 12  1  0  0  0  0
  8 10  1  0  0  0  0
  8 11  2  0  0  0  0
  9 13  1  0  0  0  0
  9 14  1  0  0  0  0
  9 15  1  0  0  0  0
 10 16  1  0  0  0  0
 10 17  1  0  0  0  0
 10 18  1  0  0  0  0
 19 20  1  0  0  0  0
 19 27  1  0  0  0  0
 19 28  1  0  0  0  0
 20 21  1  0  0  0  0
 20 29  1  0  0  0  0
 20 30  1  0  0  0  0
 21 22  4  0  0  0  0
 21 26  4  0  0  0  0
 22 23  4  0  0  0  0
 22 31  1  0  0  0  0
 23 24  4  0  0  0  0
 23 32  1  0  0  0  0
 24 25  4  0  0  0  0
 24 33  1  0  0  0  0
 25 26  4  0  0  0  0
 25 34  1  0  0  0  0
 26 35  1  0  0  0  0
M  END
> <BCLConfClusterSize>
1

> <ConfClashScore>
0 

> <ConfOneFourInteractionScore>
-0.970693 

> <ConfScore>
0.369039 

> <ConfScorePBest>
0.00304907 

> <ConfTolerance>
0.866653 

> <RosettaParamsInstructions>
M  ROOT 3
M  POLY_N_BB 3
M  POLY_CA_BB 4
M  POLY_C_BB 2
M  POLY_O_BB 5
M  POLY_IGNORE 9 10 11 12 13 14 15 16 17 18 
M  POLY_UPPER 6
M  POLY_LOWER 8
M  POLY_CHG 0
M  POLY_PROPERTIES ALPHA_AA D_AA PROTEIN AROMATIC POLYMER 
M  END

$$$$



 35 35  0  0  0  0  0  0  0  0999 V2000
   -4.4476    2.1364   -0.8083 H   0  0  0  1  0  0  0  0  0  0  0  0
   -2.6865    1.5404    0.1765 C   0  0  0  1  0  0  0  0  0  0  0  0
   -3.0096    1.8428   -2.2511 N   0  0  0  1  0  0  0  0  0  0  0  0
   -3.3977    2.3054   -0.9270 C   0  0  0  1  0  0  0  0  0  0  0  0
   -2.4343    0.3426    0.0524 O   0  0  0  1  0  0  0  0  0  0  0  0
   -2.3445    2.2067    1.2829 N   0  0  0  1  0  0  0  0  0  0  0  0
   -2.6410    2.4894   -2.8887 H   0  0  0  1  0  0  0  0  0  0  0  0
   -3.1395    0.5549   -2.6314 C   0  0  0  1  0  0  0  0  0  0  0  0
   -1.6879    1.5592    2.4087 C   0  0  0  1  0  0  0  0  0  0  0  0
   -2.6861    0.1747   -4.0275 C   0  0  0  1  0  0  0  0  0  0  0  0
   -3.6116   -0.2881   -1.8698 O   0  0  0  1  0  0  0  0  0  0  0  0
   -2.5426    3.1649    1.3382 H   0  0  0  1  0  0  0  0  0  0  0  0
   -2.4214    1.2712    3.1325 H   0  0  0  1  0  0  0  0  0  0  0  0
   -0.9937    2.2396    2.8559 H   0  0  0  1  0  0  0  0  0  0  0  0
   -1.1659    0.6905    2.0653 H   0  0  0  1  0  0  0  0  0  0  0  0
   -2.3181    1.0432   -4.5325 H   0  0  0  1  0  0  0  0  0  0  0  0
   -3.5128   -0.2310   -4.5725 H   0  0  0  1  0  0  0  0  0  0  0  0
   -1.9077   -0.5566   -3.9627 H   0  0  0  1  0  0  0  0  0  0  0  0
   -3.1654    3.7990   -0.8039 C   0  0  0  1  0  0  0  0  0  0  0  0
   -1.7068    4.1969   -0.9607 C   0  0  0  1  0  0  0  0  0  0  0  0
   -1.3961    5.0494   -2.1618 C   0  0  0  1  0  0  0  0  0  0  0  0
   -2.3235    5.2856   -3.1647 C   0  0  0  1  0  0  0  0  0  0  0  0
   -1.9838    6.0723   -4.2490 C   0  0  0  1  0  0  0  0  0  0  0  0
   -0.7172    6.6296   -4.3310 C   0  0  0  1  0  0  0  0  0  0  0  0
    0.2076    6.3943   -3.3312 C   0  0  0  1  0  0  0  0  0  0  0  0
   -0.1333    5.6052   -2.2437 C   0  0  0  1  0  0  0  0  0  0  0  0
   -3.5017    4.1162    0.1611 H   0  0  0  1  0  0  0  0  0  0  0  0
   -3.7356    4.2946   -1.5616 H   0  0  0  1  0  0  0  0  0  0  0  0
   -1.1262    3.3010   -1.0327 H   0  0  0  1  0  0  0  0  0  0  0  0
   -1.4172    4.7409   -0.0860 H   0  0  0  1  0  0  0  0  0  0  0  0
   -3.2750    4.8707   -3.1011 H   0  0  0  1  0  0  0  0  0  0  0  0
   -2.6783    6.2461   -5.0033 H   0  0  0  1  0  0  0  0  0  0  0  0
   -0.4628    7.2249   -5.1450 H   0  0  0  1  0  0  0  0  0  0  0  0
    1.1592    6.8091   -3.3948 H   0  0  0  1  0  0  0  0  0  0  0  0
    0.5612    5.4313   -1.4894 H   0  0  0  1  0  0  0  0  0  0  0  0
  1  4  1  0  0  0  0
  2  4  1  0  0  0  0
  2  5  2  0  0  0  0
  2  6  1  0  0  0  0
  3  4  1  0  0  0  0
  3  7  1  0  0  0  0
  3  8  1  0  0  0  0
  4 19  1  0  0  0  0
  6  9  1  0  0  0  0
  6 12  1  0  0  0  0
  8 10  1  0  0  0  0
  8 11  2  0  0  0  0
  9 13  1  0  0  0  0
  9 14  1  0  0  0  0
  9 15  1  0  0  0  0
 10 16  1  0  0  0  0
 10 17  1  0  0  0  0
 10 18  1  0  0  0  0
 19 20  1  0  0  0  0
 19 27  1  0  0  0  0
 19 28  1  0  0  0  0
 20 21  1  0  0  0  0
 20 29  1  0  0  0  0
 20 30  1  0  0  0  0
 21 22  4  0  0  0  0
 21 26  4  0  0  0  0
 22 23  4  0  0  0  0
 22 31  1  0  0  0  0
 23 24  4  0  0  0  0
 23 32  1  0  0  0  0
 24 25  4  0  0  0  0
 24 33  1  0  0  0  0
 25 26  4  0  0  0  0
 25 34  1  0  0  0  0
 26 35  1  0  0  0  0
M  END
> <BCLConfClusterSize>
1

> <ConfClashScore>
0 

> <ConfOneFourInteractionScore>
-0.934403 

> <ConfScore>
0.371006 

> <ConfScorePBest>
0.00302059 

> <ConfTolerance>
0.946621 

> <RosettaParamsInstructions>
M  ROOT 3
M  POLY_N_BB 3
M  POLY_CA_BB 4
M  POLY_C_BB 2
M  POLY_O_BB 5
M  POLY_IGNORE 9 10 11 12 13 14 15 16 17 18 
M  POLY_UPPER 6
M  POLY_LOWER 8
M  POLY_CHG 0
M  POLY_PROPERTIES ALPHA_AA D_AA PROTEIN AROMATIC POLYMER 
M  END

$$$$



 35 35  0  0  0  0  0  0  0  0999 V2000
   -2.4314    4.6992    2.2941 H   0  0  0  1  0  0  0  0  0  0  0  0
   -0.5235    4.0445    1.6953 C   0  0  0  1  0  0  0  0  0  0  0  0
   -2.7206    2.8948    1.3538 N   0  0  0  1  0  0  0  0  0  0  0  0
   -2.0189    4.1557    1.4699 C   0  0  0  1  0  0  0  0  0  0  0  0
    0.0911    4.8984    2.3321 O   0  0  0  1  0  0  0  0  0  0  0  0
    0.0648    2.9726    1.1621 N   0  0  0  1  0  0  0  0  0  0  0  0
   -3.2989    2.7264    0.5807 H   0  0  0  1  0  0  0  0  0  0  0  0
   -2.5810    1.9563    2.3025 C   0  0  0  1  0  0  0  0  0  0  0  0
    1.5013    2.7432    1.1241 C   0  0  0  1  0  0  0  0  0  0  0  0
   -3.4912    0.7502    2.1750 C   0  0  0  1  0  0  0  0  0  0  0  0
   -1.7732    2.0506    3.2227 O   0  0  0  1  0  0  0  0  0  0  0  0
   -0.5140    2.2881    0.7662 H   0  0  0  1  0  0  0  0  0  0  0  0
    1.8267    2.3585    2.0680 H   0  0  0  1  0  0  0  0  0  0  0  0
    2.0044    3.6658    0.9226 H   0  0  0  1  0  0  0  0  0  0  0  0
    1.7291    2.0365    0.3536 H   0  0  0  1  0  0  0  0  0  0  0  0
   -3.0562    0.0443    1.4987 H   0  0  0  1  0  0  0  0  0  0  0  0
   -4.4444    1.0610    1.8013 H   0  0  0  1  0  0  0  0  0  0  0  0
   -3.6153    0.2943    3.1350 H   0  0  0  1  0  0  0  0  0  0  0  0
   -2.2714    4.9786    0.2126 C   0  0  0  1  0  0  0  0  0  0  0  0
   -1.7915    4.1795   -0.9880 C   0  0  0  1  0  0  0  0  0  0  0  0
   -1.3782    5.0525   -2.1551 C   0  0  0  1  0  0  0  0  0  0  0  0
   -2.3120    5.2832   -3.1532 C   0  0  0  1  0  0  0  0  0  0  0  0
   -1.9811    6.0686   -4.2412 C   0  0  0  1  0  0  0  0  0  0  0  0
   -0.7169    6.6301   -4.3317 C   0  0  0  1  0  0  0  0  0  0  0  0
    0.2143    6.4002   -3.3365 C   0  0  0  1  0  0  0  0  0  0  0  0
   -0.1178    5.6124   -2.2453 C   0  0  0  1  0  0  0  0  0  0  0  0
   -1.7333    5.9016    0.2708 H   0  0  0  1  0  0  0  0  0  0  0  0
   -3.3178    5.1807    0.1172 H   0  0  0  1  0  0  0  0  0  0  0  0
   -2.5843    3.5362   -1.3079 H   0  0  0  1  0  0  0  0  0  0  0  0
   -0.9505    3.5889   -0.6899 H   0  0  0  1  0  0  0  0  0  0  0  0
   -3.2618    4.8653   -3.0834 H   0  0  0  1  0  0  0  0  0  0  0  0
   -2.6804    6.2384   -4.9920 H   0  0  0  1  0  0  0  0  0  0  0  0
   -0.4692    7.2244   -5.1484 H   0  0  0  1  0  0  0  0  0  0  0  0
    1.1641    6.8181   -3.4064 H   0  0  0  1  0  0  0  0  0  0  0  0
    0.5816    5.4426   -1.4945 H   0  0  0  1  0  0  0  0  0  0  0  0
  1  4  1  0  0  0  0
  2  4  1  0  0  0  0
  2  5  2  0  0  0  0
  2  6  1  0  0  0  0
  3  4  1  0  0  0  0
  3  7  1  0  0  0  0
  3  8  1  0  0  0  0
  4 19  1  0  0  0  0
  6  9  1  0  0  0  0
  6 12  1  0  0  0  0
  8 10  1  0  0  0  0
  8 11  2  0  0  0  0
  9 13  1  0  0  0  0
  9 14  1  0  0  0  0
  9 15  1  0  0  0  0
 10 16  1  0  0  0  0
 10 17  1  0  0  0  0
 10 18  1  0  0  0  0
 19 20  1  0  0  0  0
 19 27  1  0  0  0  0
 19 28  1  0  0  0  0
 20 21  1  0  0  0  0
 20 29  1  0  0  0  0
 20 30  1  0  0  0  0
 21 22  4  0  0  0  0
 21 26  4  0  0  0  0
 22 23  4  0  0  0  0
 22 31  1  0  0  0  0
 23 24  4  0  0  0  0
 23 32  1  0  0  0  0
 24 25  4  0  0  0  0
 24 33  1  0  0  0  0
 25 26  4  0  0  0  0
 25 34  1  0  0  0  0
 26 35  1  0  0  0  0
M  END
> <BCLConfClusterSize>
1

> <ConfClashScore>
0 

> <ConfOneFourInteractionScore>
-0.941736 

> <ConfScore>
0.37349 

> <ConfScorePBest>
0.00299211 

> <ConfTolerance>
0.762192 

> <RosettaParamsInstructions>
M  ROOT 3
M  POLY_N_BB 3
M  POLY_CA_BB 4
M  POLY_C_BB 2
M  POLY_O_BB 5
M  POLY_IGNORE 9 10 11 12 13 14 15 16 17 18 
M  POLY_UPPER 6
M  POLY_LOWER 8
M  POLY_CHG 0
M  POLY_PROPERTIES ALPHA_AA D_AA PROTEIN AROMATIC POLYMER 
M  END

$$$$



 35 35  0  0  0  0  0  0  0  0999 V2000
   -0.3978    1.9853   -1.5429 H   0  0  0  1  0  0  0  0  0  0  0  0
   -1.1324    2.2091   -3.4918 C   0  0  0  1  0  0  0  0  0  0  0  0
   -1.8113    0.5132   -1.7931 N   0  0  0  1  0  0  0  0  0  0  0  0
   -1.3423    1.8727   -2.0328 C   0  0  0  1  0  0  0  0  0  0  0  0
   -0.4014    3.1381   -3.8252 O   0  0  0  1  0  0  0  0  0  0  0  0
   -1.7638    1.4679   -4.4035 N   0  0  0  1  0  0  0  0  0  0  0  0
   -2.6512    0.3817   -1.3056 H   0  0  0  1  0  0  0  0  0  0  0  0
   -1.1302   -0.5686   -2.2185 C   0  0  0  1  0  0  0  0  0  0  0  0
   -1.7120    1.6918   -5.8405 C   0  0  0  1  0  0  0  0  0  0  0  0
   -1.6960   -1.8820   -1.7144 C   0  0  0  1  0  0  0  0  0  0  0  0
   -0.1396   -0.5305   -2.9470 O   0  0  0  1  0  0  0  0  0  0  0  0
   -2.3033    0.7159   -4.0813 H   0  0  0  1  0  0  0  0  0  0  0  0
   -0.7086    1.9252   -6.1297 H   0  0  0  1  0  0  0  0  0  0  0  0
   -2.3557    2.5070   -6.0977 H   0  0  0  1  0  0  0  0  0  0  0  0
   -2.0336    0.8080   -6.3508 H   0  0  0  1  0  0  0  0  0  0  0  0
   -1.6427   -1.9073   -0.6460 H   0  0  0  1  0  0  0  0  0  0  0  0
   -1.1278   -2.6935   -2.1189 H   0  0  0  1  0  0  0  0  0  0  0  0
   -2.7167   -1.9721   -2.0225 H   0  0  0  1  0  0  0  0  0  0  0  0
   -2.2869    2.8225   -1.3790 C   0  0  0  1  0  0  0  0  0  0  0  0
   -1.7496    4.1900   -0.9776 C   0  0  0  1  0  0  0  0  0  0  0  0
   -1.3870    5.0508   -2.1581 C   0  0  0  1  0  0  0  0  0  0  0  0
   -2.3176    5.2842   -3.1585 C   0  0  0  1  0  0  0  0  0  0  0  0
   -1.9825    6.0702   -4.2447 C   0  0  0  1  0  0  0  0  0  0  0  0
   -0.7171    6.6296   -4.3311 C   0  0  0  1  0  0  0  0  0  0  0  0
    0.2110    6.3971   -3.3337 C   0  0  0  1  0  0  0  0  0  0  0  0
   -0.1254    5.6087   -2.2443 C   0  0  0  1  0  0  0  0  0  0  0  0
   -2.6525    2.3497   -0.4916 H   0  0  0  1  0  0  0  0  0  0  0  0
   -3.0982    2.9845   -2.0576 H   0  0  0  1  0  0  0  0  0  0  0  0
   -0.8752    4.0495   -0.3771 H   0  0  0  1  0  0  0  0  0  0  0  0
   -2.4988    4.6955   -0.4048 H   0  0  0  1  0  0  0  0  0  0  0  0
   -3.2683    4.8677   -3.0917 H   0  0  0  1  0  0  0  0  0  0  0  0
   -2.6795    6.2419   -4.9973 H   0  0  0  1  0  0  0  0  0  0  0  0
   -0.4662    7.2244   -5.1465 H   0  0  0  1  0  0  0  0  0  0  0  0
    1.1616    6.8136   -3.4006 H   0  0  0  1  0  0  0  0  0  0  0  0
    0.5716    5.4370   -1.4918 H   0  0  0  1  0  0  0  0  0  0  0  0
  1  4  1  0  0  0  0
  2  4  1  0  0  0  0
  2  5  2  0  0  0  0
  2  6  1  0  0  0  0
  3  4  1  0  0  0  0
  3  7  1  0  0  0  0
  3  8  1  0  0  0  0
  4 19  1  0  0  0  0
  6  9  1  0  0  0  0
  6 12  1  0  0  0  0
  8 10  1  0  0  0  0
  8 11  2  0  0  0  0
  9 13  1  0  0  0  0
  9 14  1  0  0  0  0
  9 15  1  0  0  0  0
 10 16  1  0  0  0  0
 10 17  1  0  0  0  0
 10 18  1  0  0  0  0
 19 20  1  0  0  0  0
 19 27  1  0  0  0  0
 19 28  1  0  0  0  0
 20 21  1  0  0  0  0
 20 29  1  0  0  0  0
 20 30  1  0  0  0  0
 21 22  4  0  0  0  0
 21 26  4  0  0  0  0
 22 23  4  0  0  0  0
 22 31  1  0  0  0  0
 23 24  4  0  0  0  0
 23 32  1  0  0  0  0
 24 25  4  0  0  0  0
 24 33  1  0  0  0  0
 25 26  4  0  0  0  0
 25 34  1  0  0  0  0
 26 35  1  0  0  0  0
M  END
> <BCLConfClusterSize>
1

> <ConfClashScore>
0 

> <ConfOneFourInteractionScore>
-0.970454 

> <ConfScore>
0.38508 

> <ConfScorePBest>
0.00296363 

> <ConfTolerance>
0.766464 

> <RosettaParamsInstructions>
M  ROOT 3
M  POLY_N_BB 3
M  POLY_CA_BB 4
M  POLY_C_BB 2
M  POLY_O_BB 5
M  POLY_IGNORE 9 10 11 12 13 14 15 16 17 18 
M  POLY_UPPER 6
M  POLY_LOWER 8
M  POLY_CHG 0
M  POLY_PROPERTIES ALPHA_AA D_AA PROTEIN AROMATIC POLYMER 
M  END

$$$$



 35 35  0  0  0  0  0  0  0  0999 V2000
   -0.3115    1.9038   -0.1283 H   0  0  0  1  0  0  0  0  0  0  0  0
    0.6027    2.7165   -1.8546 C   0  0  0  1  0  0  0  0  0  0  0  0
   -0.6662    0.6097   -1.7022 N   0  0  0  1  0  0  0  0  0  0  0  0
   -0.5288    1.9590   -1.1745 C   0  0  0  1  0  0  0  0  0  0  0  0
    1.2459    3.5703   -1.2456 O   0  0  0  1  0  0  0  0  0  0  0  0
    0.8765    2.4252   -3.1354 N   0  0  0  1  0  0  0  0  0  0  0  0
   -1.5079    0.3544   -2.1344 H   0  0  0  1  0  0  0  0  0  0  0  0
    0.3247   -0.3019   -1.6169 C   0  0  0  1  0  0  0  0  0  0  0  0
    1.9009    3.1302   -3.8912 C   0  0  0  1  0  0  0  0  0  0  0  0
    0.0555   -1.6952   -2.1384 C   0  0  0  1  0  0  0  0  0  0  0  0
    1.4162   -0.0104   -1.1297 O   0  0  0  1  0  0  0  0  0  0  0  0
    0.3688    1.7128   -3.5773 H   0  0  0  1  0  0  0  0  0  0  0  0
    2.4574    3.7644   -3.2331 H   0  0  0  1  0  0  0  0  0  0  0  0
    1.4378    3.7241   -4.6513 H   0  0  0  1  0  0  0  0  0  0  0  0
    2.5609    2.4206   -4.3449 H   0  0  0  1  0  0  0  0  0  0  0  0
   -0.3806   -2.2890   -1.3624 H   0  0  0  1  0  0  0  0  0  0  0  0
    0.9753   -2.1415   -2.4544 H   0  0  0  1  0  0  0  0  0  0  0  0
   -0.6187   -1.6414   -2.9676 H   0  0  0  1  0  0  0  0  0  0  0  0
   -1.8305    2.7026   -1.3436 C   0  0  0  1  0  0  0  0  0  0  0  0
   -1.7891    4.1846   -0.9948 C   0  0  0  1  0  0  0  0  0  0  0  0
   -1.3784    5.0520   -2.1545 C   0  0  0  1  0  0  0  0  0  0  0  0
   -2.3122    5.2828   -3.1526 C   0  0  0  1  0  0  0  0  0  0  0  0
   -1.9813    6.0682   -4.2406 C   0  0  0  1  0  0  0  0  0  0  0  0
   -0.7171    6.6296   -4.3310 C   0  0  0  1  0  0  0  0  0  0  0  0
    0.2141    6.3997   -3.3359 C   0  0  0  1  0  0  0  0  0  0  0  0
   -0.1180    5.6119   -2.2447 C   0  0  0  1  0  0  0  0  0  0  0  0
   -2.5603    2.2364   -0.7151 H   0  0  0  1  0  0  0  0  0  0  0  0
   -2.1307    2.6131   -2.3667 H   0  0  0  1  0  0  0  0  0  0  0  0
   -1.0894    4.3275   -0.1980 H   0  0  0  1  0  0  0  0  0  0  0  0
   -2.7639    4.4860   -0.6725 H   0  0  0  1  0  0  0  0  0  0  0  0
   -3.2620    4.8648   -3.0828 H   0  0  0  1  0  0  0  0  0  0  0  0
   -2.6806    6.2379   -4.9914 H   0  0  0  1  0  0  0  0  0  0  0  0
   -0.4693    7.2239   -5.1477 H   0  0  0  1  0  0  0  0  0  0  0  0
    1.1639    6.8177   -3.4058 H   0  0  0  1  0  0  0  0  0  0  0  0
    0.5813    5.4421   -1.4939 H   0  0  0  1  0  0  0  0  0  0  0  0
  1  4  1  0  0  0  0
  2  4  1  0  0  0  0
  2  5  2  0  0  0  0
  2  6  1  0  0  0  0
  3  4  1  0  0  0  0
  3  7  1  0  0  0  0
  3  8  1  0  0  0  0
  4 19  1  0  0  0  0
  6  9  1  0  0  0  0
  6 12  1  0  0  0  0
  8 10  1  0  0  0  0
  8 11  2  0  0  0  0
  9 13  1  0  0  0  0
  9 14  1  0  0  0  0
  9 15  1  0  0  0  0
 10 16  1  0  0  0  0
 10 17  1  0  0  0  0
 10 18  1  0  0  0  0
 19 20  1  0  0  0  0
 19 27  1  0  0  0  0
 19 28  1  0  0  0  0
 20 21  1  0  0  0  0
 20 29  1  0  0  0  0
 20 30  1  0  0  0  0
 21 22  4  0  0  0  0
 21 26  4  0  0  0  0
 22 23  4  0  0  0  0
 22 31  1  0  0  0  0
 23 24  4  0  0  0  0
 23 32  1  0  0  0  0
 24 25  4  0  0  0  0
 24 33  1  0  0  0  0
 25 26  4  0  0  0  0
 25 34  1  0  0  0  0
 26 35  1  0  0  0  0
M  END
> <BCLConfClusterSize>
1

> <ConfClashScore>
0 

> <ConfOneFourInteractionScore>
-0.964188 

> <ConfScore>
0.395588 

> <ConfScorePBest>
0.00293515 

> <ConfTolerance>
0.866413 

> <RosettaParamsInstructions>
M  ROOT 3
M  POLY_N_BB 3
M  POLY_CA_BB 4
M  POLY_C_BB 2
M  POLY_O_BB 5
M  POLY_IGNORE 9 10 11 12 13 14 15 16 17 18 
M  POLY_UPPER 6
M  POLY_LOWER 8
M  POLY_CHG 0
M  POLY_PROPERTIES ALPHA_AA D_AA PROTEIN AROMATIC POLYMER 
M  END

$$$$



 35 35  0  0  0  0  0  0  0  0999 V2000
   -1.8178    5.7587    2.0925 H   0  0  0  1  0  0  0  0  0  0  0  0
   -0.1648    6.3247    0.9517 C   0  0  0  1  0  0  0  0  0  0  0  0
   -0.6460    4.0899    1.8504 N   0  0  0  1  0  0  0  0  0  0  0  0
   -1.2498    5.3177    1.3002 C   0  0  0  1  0  0  0  0  0  0  0  0
    0.8852    5.9722    0.4171 O   0  0  0  1  0  0  0  0  0  0  0  0
   -0.4315    7.5975    1.2636 N   0  0  0  1  0  0  0  0  0  0  0  0
   -0.8037    3.2386    1.3913 H   0  0  0  1  0  0  0  0  0  0  0  0
    0.1086    4.0979    2.9529 C   0  0  0  1  0  0  0  0  0  0  0  0
    0.4492    8.7239    0.9926 C   0  0  0  1  0  0  0  0  0  0  0  0
    0.6389    2.7488    3.3979 C   0  0  0  1  0  0  0  0  0  0  0  0
    0.3673    5.1241    3.5802 O   0  0  0  1  0  0  0  0  0  0  0  0
   -1.2844    7.7858    1.7082 H   0  0  0  1  0  0  0  0  0  0  0  0
    1.1675    8.8133    1.7806 H   0  0  0  1  0  0  0  0  0  0  0  0
   -0.1290    9.6223    0.9338 H   0  0  0  1  0  0  0  0  0  0  0  0
    0.9566    8.5642    0.0642 H   0  0  0  1  0  0  0  0  0  0  0  0
    1.2924    2.3565    2.6469 H   0  0  0  1  0  0  0  0  0  0  0  0
   -0.1793    2.0753    3.5456 H   0  0  0  1  0  0  0  0  0  0  0  0
    1.1779    2.8627    4.3152 H   0  0  0  1  0  0  0  0  0  0  0  0
   -2.2338    5.0430    0.1902 C   0  0  0  1  0  0  0  0  0  0  0  0
   -1.7088    4.1916   -0.9533 C   0  0  0  1  0  0  0  0  0  0  0  0
   -1.3960    5.0499   -2.1625 C   0  0  0  1  0  0  0  0  0  0  0  0
   -2.3233    5.2860   -3.1654 C   0  0  0  1  0  0  0  0  0  0  0  0
   -1.9836    6.0728   -4.2497 C   0  0  0  1  0  0  0  0  0  0  0  0
   -0.7170    6.6301   -4.3317 C   0  0  0  1  0  0  0  0  0  0  0  0
    0.2078    6.3947   -3.3319 C   0  0  0  1  0  0  0  0  0  0  0  0
   -0.1331    5.6056   -2.2444 C   0  0  0  1  0  0  0  0  0  0  0  0
   -2.5448    5.9833   -0.2148 H   0  0  0  1  0  0  0  0  0  0  0  0
   -3.0776    4.5403    0.6148 H   0  0  0  1  0  0  0  0  0  0  0  0
   -2.4493    3.4667   -1.2197 H   0  0  0  1  0  0  0  0  0  0  0  0
   -0.8169    3.6917   -0.6377 H   0  0  0  1  0  0  0  0  0  0  0  0
   -3.2749    4.8712   -3.1018 H   0  0  0  1  0  0  0  0  0  0  0  0
   -2.6781    6.2466   -5.0040 H   0  0  0  1  0  0  0  0  0  0  0  0
   -0.4626    7.2253   -5.1457 H   0  0  0  1  0  0  0  0  0  0  0  0
    1.1594    6.8096   -3.3955 H   0  0  0  1  0  0  0  0  0  0  0  0
    0.5614    5.4318   -1.4900 H   0  0  0  1  0  0  0  0  0  0  0  0
  1  4  1  0  0  0  0
  2  4  1  0  0  0  0
  2  5  2  0  0  0  0
  2  6  1  0  0  0  0
  3  4  1  0  0  0  0
  3  7  1  0  0  0  0
  3  8  1  0  0  0  0
  4 19  1  0  0  0  0
  6  9  1  0  0  0  0
  6 12  1  0  0  0  0
  8 10  1  0  0  0  0
  8 11  2  0  0  0  0
  9 13  1  0  0  0  0
  9 14  1  0  0  0  0
  9 15  1  0  0  0  0
 10 16  1  0  0  0  0
 10 17  1  0  0  0  0
 10 18  1  0  0  0  0
 19 20  1  0  0  0  0
 19 27  1  0  0  0  0
 19 28  1  0  0  0  0
 20 21  1  0  0  0  0
 20 29  1  0  0  0  0
 20 30  1  0  0  0  0
 21 22  4  0  0  0  0
 21 26  4  0  0  0  0
 22 23  4  0  0  0  0
 22 31  1  0  0  0  0
 23 24  4  0  0  0  0
 23 32  1  0  0  0  0
 24 25  4  0  0  0  0
 24 33  1  0  0  0  0
 25 26  4  0  0  0  0
 25 34  1  0  0  0  0
 26 35  1  0  0  0  0
M  END
> <BCLConfClusterSize>
1

> <ConfClashScore>
0 

> <ConfOneFourInteractionScore>
-0.962726 

> <ConfScore>
0.400003 

> <ConfScorePBest>
0.00290666 

> <ConfTolerance>
0.905731 

> <RosettaParamsInstructions>
M  ROOT 3
M  POLY_N_BB 3
M  POLY_CA_BB 4
M  POLY_C_BB 2
M  POLY_O_BB 5
M  POLY_IGNORE 9 10 11 12 13 14 15 16 17 18 
M  POLY_UPPER 6
M  POLY_LOWER 8
M  POLY_CHG 0
M  POLY_PROPERTIES ALPHA_AA D_AA PROTEIN AROMATIC POLYMER 
M  END

$$$$



 35 35  0  0  0  0  0  0  0  0999 V2000
   -3.0976    1.7571   -0.7504 H   0  0  0  1  0  0  0  0  0  0  0  0
   -1.8141    0.3605   -1.6551 C   0  0  0  1  0  0  0  0  0  0  0  0
   -3.0187    2.2074   -2.7569 N   0  0  0  1  0  0  0  0  0  0  0  0
   -2.3673    1.7670   -1.5324 C   0  0  0  1  0  0  0  0  0  0  0  0
   -1.7035   -0.3702   -0.6715 O   0  0  0  1  0  0  0  0  0  0  0  0
   -1.4607   -0.0212   -2.8926 N   0  0  0  1  0  0  0  0  0  0  0  0
   -2.7311    3.0486   -3.1694 H   0  0  0  1  0  0  0  0  0  0  0  0
   -3.9999    1.5016   -3.3411 C   0  0  0  1  0  0  0  0  0  0  0  0
   -0.9903   -1.3773   -3.1326 C   0  0  0  1  0  0  0  0  0  0  0  0
   -4.5263    2.0622   -4.6479 C   0  0  0  1  0  0  0  0  0  0  0  0
   -4.4547    0.4660   -2.8626 O   0  0  0  1  0  0  0  0  0  0  0  0
   -1.5196    0.6146   -3.6360 H   0  0  0  1  0  0  0  0  0  0  0  0
    0.0186   -1.3478   -3.4877 H   0  0  0  1  0  0  0  0  0  0  0  0
   -1.6128   -1.8459   -3.8661 H   0  0  0  1  0  0  0  0  0  0  0  0
   -1.0310   -1.9353   -2.2205 H   0  0  0  1  0  0  0  0  0  0  0  0
   -4.0278    2.9830   -4.8682 H   0  0  0  1  0  0  0  0  0  0  0  0
   -5.5783    2.2381   -4.5622 H   0  0  0  1  0  0  0  0  0  0  0  0
   -4.3444    1.3611   -5.4355 H   0  0  0  1  0  0  0  0  0  0  0  0
   -1.2941    2.7479   -1.1300 C   0  0  0  1  0  0  0  0  0  0  0  0
   -1.7496    4.1900   -0.9776 C   0  0  0  1  0  0  0  0  0  0  0  0
   -1.3870    5.0508   -2.1581 C   0  0  0  1  0  0  0  0  0  0  0  0
   -2.3176    5.2842   -3.1585 C   0  0  0  1  0  0  0  0  0  0  0  0
   -1.9825    6.0702   -4.2447 C   0  0  0  1  0  0  0  0  0  0  0  0
   -0.7171    6.6296   -4.3311 C   0  0  0  1  0  0  0  0  0  0  0  0
    0.2110    6.3971   -3.3337 C   0  0  0  1  0  0  0  0  0  0  0  0
   -0.1254    5.6087   -2.2443 C   0  0  0  1  0  0  0  0  0  0  0  0
   -0.5272    2.7216   -1.8757 H   0  0  0  1  0  0  0  0  0  0  0  0
   -0.8909    2.4287   -0.1916 H   0  0  0  1  0  0  0  0  0  0  0  0
   -1.2912    4.6013   -0.1026 H   0  0  0  1  0  0  0  0  0  0  0  0
   -2.8133    4.2008   -0.8622 H   0  0  0  1  0  0  0  0  0  0  0  0
   -3.2683    4.8677   -3.0917 H   0  0  0  1  0  0  0  0  0  0  0  0
   -2.6795    6.2419   -4.9973 H   0  0  0  1  0  0  0  0  0  0  0  0
   -0.4662    7.2244   -5.1465 H   0  0  0  1  0  0  0  0  0  0  0  0
    1.1616    6.8136   -3.4006 H   0  0  0  1  0  0  0  0  0  0  0  0
    0.5716    5.4370   -1.4918 H   0  0  0  1  0  0  0  0  0  0  0  0
  1  4  1  0  0  0  0
  2  4  1  0  0  0  0
  2  5  2  0  0  0  0
  2  6  1  0  0  0  0
  3  4  1  0  0  0  0
  3  7  1  0  0  0  0
  3  8  1  0  0  0  0
  4 19  1  0  0  0  0
  6  9  1  0  0  0  0
  6 12  1  0  0  0  0
  8 10  1  0  0  0  0
  8 11  2  0  0  0  0
  9 13  1  0  0  0  0
  9 14  1  0  0  0  0
  9 15  1  0  0  0  0
 10 16  1  0  0  0  0
 10 17  1  0  0  0  0
 10 18  1  0  0  0  0
 19 20  1  0  0  0  0
 19 27  1  0  0  0  0
 19 28  1  0  0  0  0
 20 21  1  0  0  0  0
 20 29  1  0  0  0  0
 20 30  1  0  0  0  0
 21 22  4  0  0  0  0
 21 26  4  0  0  0  0
 22 23  4  0  0  0  0
 22 31  1  0  0  0  0
 23 24  4  0  0  0  0
 23 32  1  0  0  0  0
 24 25  4  0  0  0  0
 24 33  1  0  0  0  0
 25 26  4  0  0  0  0
 25 34  1  0  0  0  0
 26 35  1  0  0  0  0
M  END
> <BCLConfClusterSize>
1

> <ConfClashScore>
0 

> <ConfOneFourInteractionScore>
-0.960321 

> <ConfScore>
0.402576 

> <ConfScorePBest>
0.00287818 

> <ConfTolerance>
0.890146 

> <RosettaParamsInstructions>
M  ROOT 3
M  POLY_N_BB 3
M  POLY_CA_BB 4
M  POLY_C_BB 2
M  POLY_O_BB 5
M  POLY_IGNORE 9 10 11 12 13 14 15 16 17 18 
M  POLY_UPPER 6
M  POLY_LOWER 8
M  POLY_CHG 0
M  POLY_PROPERTIES ALPHA_AA D_AA PROTEIN AROMATIC POLYMER 
M  END

$$$$



 35 35  0  0  0  0  0  0  0  0999 V2000
   -2.7018    3.3354    1.4338 H   0  0  0  1  0  0  0  0  0  0  0  0
   -1.4524    4.2008    2.8859 C   0  0  0  1  0  0  0  0  0  0  0  0
   -0.8171    2.5000    1.2623 N   0  0  0  1  0  0  0  0  0  0  0  0
   -1.6851    3.6647    1.4867 C   0  0  0  1  0  0  0  0  0  0  0  0
   -1.7270    3.5304    3.8803 O   0  0  0  1  0  0  0  0  0  0  0  0
   -0.9347    5.4373    2.9580 N   0  0  0  1  0  0  0  0  0  0  0  0
    0.0388    2.4496    1.7369 H   0  0  0  1  0  0  0  0  0  0  0  0
   -1.1578    1.4978    0.4257 C   0  0  0  1  0  0  0  0  0  0  0  0
   -0.7590    6.0296    4.2715 C   0  0  0  1  0  0  0  0  0  0  0  0
   -0.1298    0.4174    0.1518 C   0  0  0  1  0  0  0  0  0  0  0  0
   -2.2691    1.4594   -0.1007 O   0  0  0  1  0  0  0  0  0  0  0  0
   -0.6825    5.9261    2.1469 H   0  0  0  1  0  0  0  0  0  0  0  0
   -1.7118    6.1317    4.7475 H   0  0  0  1  0  0  0  0  0  0  0  0
   -0.3060    6.9936    4.1701 H   0  0  0  1  0  0  0  0  0  0  0  0
   -0.1297    5.3999    4.8651 H   0  0  0  1  0  0  0  0  0  0  0  0
   -0.1017    0.2088   -0.8973 H   0  0  0  1  0  0  0  0  0  0  0  0
   -0.3961   -0.4713    0.6849 H   0  0  0  1  0  0  0  0  0  0  0  0
    0.8339    0.7523    0.4745 H   0  0  0  1  0  0  0  0  0  0  0  0
   -1.4822    4.6949    0.3815 C   0  0  0  1  0  0  0  0  0  0  0  0
   -1.7381    4.1427   -1.0113 C   0  0  0  1  0  0  0  0  0  0  0  0
   -1.3926    5.0693   -2.1462 C   0  0  0  1  0  0  0  0  0  0  0  0
   -2.3215    5.2960   -3.1498 C   0  0  0  1  0  0  0  0  0  0  0  0
   -1.9824    6.0699   -4.2436 C   0  0  0  1  0  0  0  0  0  0  0  0
   -0.7149    6.6237   -4.3344 C   0  0  0  1  0  0  0  0  0  0  0  0
    0.2115    6.3977   -3.3339 C   0  0  0  1  0  0  0  0  0  0  0  0
   -0.1288    5.6215   -2.2369 C   0  0  0  1  0  0  0  0  0  0  0  0
   -0.4727    5.0466    0.4268 H   0  0  0  1  0  0  0  0  0  0  0  0
   -2.1528    5.5112    0.5514 H   0  0  0  1  0  0  0  0  0  0  0  0
   -2.7784    3.9035   -1.0855 H   0  0  0  1  0  0  0  0  0  0  0  0
   -1.1576    3.2511   -1.1247 H   0  0  0  1  0  0  0  0  0  0  0  0
   -3.2737    4.8838   -3.0797 H   0  0  0  1  0  0  0  0  0  0  0  0
   -2.6781    6.2366   -4.9985 H   0  0  0  1  0  0  0  0  0  0  0  0
   -0.4610    7.2093   -5.1555 H   0  0  0  1  0  0  0  0  0  0  0  0
    1.1637    6.8099   -3.4040 H   0  0  0  1  0  0  0  0  0  0  0  0
    0.5669    5.4547   -1.4820 H   0  0  0  1  0  0  0  0  0  0  0  0
  1  4  1  0  0  0  0
  2  4  1  0  0  0  0
  2  5  2  0  0  0  0
  2  6  1  0  0  0  0
  3  4  1  0  0  0  0
  3  7  1  0  0  0  0
  3  8  1  0  0  0  0
  4 19  1  0  0  0  0
  6  9  1  0  0  0  0
  6 12  1  0  0  0  0
  8 10  1  0  0  0  0
  8 11  2  0  0  0  0
  9 13  1  0  0  0  0
  9 14  1  0  0  0  0
  9 15  1  0  0  0  0
 10 16  1  0  0  0  0
 10 17  1  0  0  0  0
 10 18  1  0  0  0  0
 19 20  1  0  0  0  0
 19 27  1  0  0  0  0
 19 28  1  0  0  0  0
 20 21  1  0  0  0  0
 20 29  1  0  0  0  0
 20 30  1  0  0  0  0
 21 22  4  0  0  0  0
 21 26  4  0  0  0  0
 22 23  4  0  0  0  0
 22 31  1  0  0  0  0
 23 24  4  0  0  0  0
 23 32  1  0  0  0  0
 24 25  4  0  0  0  0
 24 33  1  0  0  0  0
 25 26  4  0  0  0  0
 25 34  1  0  0  0  0
 26 35  1  0  0  0  0
M  END
> <BCLConfClusterSize>
1

> <ConfClashScore>
0 

> <ConfOneFourInteractionScore>
-0.946199 

> <ConfScore>
0.407296 

> <ConfScorePBest>
0.0028497 

> <ConfTolerance>
0.916577 

> <RosettaParamsInstructions>
M  ROOT 3
M  POLY_N_BB 3
M  POLY_CA_BB 4
M  POLY_C_BB 2
M  POLY_O_BB 5
M  POLY_IGNORE 9 10 11 12 13 14 15 16 17 18 
M  POLY_UPPER 6
M  POLY_LOWER 8
M  POLY_CHG 0
M  POLY_PROPERTIES ALPHA_AA D_AA PROTEIN AROMATIC POLYMER 
M  END

$$$$



 35 35  0  0  0  0  0  0  0  0999 V2000
   -1.3188    2.3944   -2.9444 H   0  0  0  1  0  0  0  0  0  0  0  0
   -2.8578    1.4855   -1.8374 C   0  0  0  1  0  0  0  0  0  0  0  0
   -0.5135    0.7449   -2.0159 N   0  0  0  1  0  0  0  0  0  0  0  0
   -1.4055    1.8932   -2.0030 C   0  0  0  1  0  0  0  0  0  0  0  0
   -3.6187    2.1375   -1.1235 O   0  0  0  1  0  0  0  0  0  0  0  0
   -3.2836    0.3996   -2.4890 N   0  0  0  1  0  0  0  0  0  0  0  0
   -0.7304   -0.0488   -1.4836 H   0  0  0  1  0  0  0  0  0  0  0  0
    0.6435    0.7706   -2.7797 C   0  0  0  1  0  0  0  0  0  0  0  0
   -4.6562   -0.0719   -2.3988 C   0  0  0  1  0  0  0  0  0  0  0  0
    1.5961   -0.3893   -2.7017 C   0  0  0  1  0  0  0  0  0  0  0  0
    0.8499    1.7367   -3.4914 O   0  0  0  1  0  0  0  0  0  0  0  0
   -2.6488   -0.0963   -3.0470 H   0  0  0  1  0  0  0  0  0  0  0  0
   -4.6610   -1.1326   -2.2585 H   0  0  0  1  0  0  0  0  0  0  0  0
   -5.1763    0.1705   -3.3020 H   0  0  0  1  0  0  0  0  0  0  0  0
   -5.1413    0.3995   -1.5698 H   0  0  0  1  0  0  0  0  0  0  0  0
    1.4507   -0.9094   -1.7780 H   0  0  0  1  0  0  0  0  0  0  0  0
    2.6021   -0.0283   -2.7530 H   0  0  0  1  0  0  0  0  0  0  0  0
    1.4137   -1.0558   -3.5187 H   0  0  0  1  0  0  0  0  0  0  0  0
   -0.9802    2.8761   -0.9292 C   0  0  0  1  0  0  0  0  0  0  0  0
   -1.7517    4.1851   -0.9709 C   0  0  0  1  0  0  0  0  0  0  0  0
   -1.3868    5.0513   -2.1587 C   0  0  0  1  0  0  0  0  0  0  0  0
   -2.3175    5.2846   -3.1591 C   0  0  0  1  0  0  0  0  0  0  0  0
   -1.9823    6.0706   -4.2454 C   0  0  0  1  0  0  0  0  0  0  0  0
   -0.7170    6.6301   -4.3317 C   0  0  0  1  0  0  0  0  0  0  0  0
    0.2112    6.3976   -3.3343 C   0  0  0  1  0  0  0  0  0  0  0  0
   -0.1252    5.6091   -2.2449 C   0  0  0  1  0  0  0  0  0  0  0  0
    0.0599    3.0910   -1.0588 H   0  0  0  1  0  0  0  0  0  0  0  0
   -1.1347    2.4216    0.0271 H   0  0  0  1  0  0  0  0  0  0  0  0
   -1.5442    4.7314   -0.0746 H   0  0  0  1  0  0  0  0  0  0  0  0
   -2.7972    3.9629   -1.0199 H   0  0  0  1  0  0  0  0  0  0  0  0
   -3.2681    4.8681   -3.0923 H   0  0  0  1  0  0  0  0  0  0  0  0
   -2.6793    6.2424   -4.9979 H   0  0  0  1  0  0  0  0  0  0  0  0
   -0.4660    7.2249   -5.1471 H   0  0  0  1  0  0  0  0  0  0  0  0
    1.1618    6.8140   -3.4012 H   0  0  0  1  0  0  0  0  0  0  0  0
    0.5718    5.4374   -1.4924 H   0  0  0  1  0  0  0  0  0  0  0  0
  1  4  1  0  0  0  0
  2  4  1  0  0  0  0
  2  5  2  0  0  0  0
  2  6  1  0  0  0  0
  3  4  1  0  0  0  0
  3  7  1  0  0  0  0
  3  8  1  0  0  0  0
  4 19  1  0  0  0  0
  6  9  1  0  0  0  0
  6 12  1  0  0  0  0
  8 10  1  0  0  0  0
  8 11  2  0  0  0  0
  9 13  1  0  0  0  0
  9 14  1  0  0  0  0
  9 15  1  0  0  0  0
 10 16  1  0  0  0  0
 10 17  1  0  0  0  0
 10 18  1  0  0  0  0
 19 20  1  0  0  0  0
 19 27  1  0  0  0  0
 19 28  1  0  0  0  0
 20 21  1  0  0  0  0
 20 29  1  0  0  0  0
 20 30  1  0  0  0  0
 21 22  4  0  0  0  0
 21 26  4  0  0  0  0
 22 23  4  0  0  0  0
 22 31  1  0  0  0  0
 23 24  4  0  0  0  0
 23 32  1  0  0  0  0
 24 25  4  0  0  0  0
 24 33  1  0  0  0  0
 25 26  4  0  0  0  0
 25 34  1  0  0  0  0
 26 35  1  0  0  0  0
M  END
> <BCLConfClusterSize>
1

> <ConfClashScore>
0 

> <ConfOneFourInteractionScore>
-0.970693 

> <ConfScore>
0.409713 

> <ConfScorePBest>
0.00282122 

> <ConfTolerance>
0.845896 

> <RosettaParamsInstructions>
M  ROOT 3
M  POLY_N_BB 3
M  POLY_CA_BB 4
M  POLY_C_BB 2
M  POLY_O_BB 5
M  POLY_IGNORE 9 10 11 12 13 14 15 16 17 18 
M  POLY_UPPER 6
M  POLY_LOWER 8
M  POLY_CHG 0
M  POLY_PROPERTIES ALPHA_AA D_AA PROTEIN AROMATIC POLYMER 
M  END

$$$$



 35 35  0  0  0  0  0  0  0  0999 V2000
   -1.7976    4.1250    1.8602 H   0  0  0  1  0  0  0  0  0  0  0  0
    0.0542    3.2544    2.3462 C   0  0  0  1  0  0  0  0  0  0  0  0
   -1.8121    2.2010    1.1314 N   0  0  0  1  0  0  0  0  0  0  0  0
   -1.1092    3.4646    1.3754 C   0  0  0  1  0  0  0  0  0  0  0  0
    0.1077    3.8742    3.3929 O   0  0  0  1  0  0  0  0  0  0  0  0
    0.9165    2.2994    1.9866 N   0  0  0  1  0  0  0  0  0  0  0  0
   -1.4843    1.6063    0.4247 H   0  0  0  1  0  0  0  0  0  0  0  0
   -2.9242    1.8182    1.8658 C   0  0  0  1  0  0  0  0  0  0  0  0
    1.9982    1.8612    2.8558 C   0  0  0  1  0  0  0  0  0  0  0  0
   -3.6981    0.6026    1.4392 C   0  0  0  1  0  0  0  0  0  0  0  0
   -3.2380    2.4831    2.8363 O   0  0  0  1  0  0  0  0  0  0  0  0
    0.8171    1.8793    1.1067 H   0  0  0  1  0  0  0  0  0  0  0  0
    2.8959    1.7550    2.2832 H   0  0  0  1  0  0  0  0  0  0  0  0
    1.7428    0.9200    3.2960 H   0  0  0  1  0  0  0  0  0  0  0  0
    2.1514    2.5865    3.6275 H   0  0  0  1  0  0  0  0  0  0  0  0
   -3.0690   -0.2608    1.4997 H   0  0  0  1  0  0  0  0  0  0  0  0
   -4.0336    0.7293    0.4311 H   0  0  0  1  0  0  0  0  0  0  0  0
   -4.5429    0.4738    2.0832 H   0  0  0  1  0  0  0  0  0  0  0  0
   -0.6717    4.1554    0.0981 C   0  0  0  1  0  0  0  0  0  0  0  0
   -1.7516    4.1853   -0.9711 C   0  0  0  1  0  0  0  0  0  0  0  0
   -1.3868    5.0512   -2.1587 C   0  0  0  1  0  0  0  0  0  0  0  0
   -2.3175    5.2846   -3.1591 C   0  0  0  1  0  0  0  0  0  0  0  0
   -1.9823    6.0706   -4.2453 C   0  0  0  1  0  0  0  0  0  0  0  0
   -0.7170    6.6301   -4.3317 C   0  0  0  1  0  0  0  0  0  0  0  0
    0.2112    6.3975   -3.3343 C   0  0  0  1  0  0  0  0  0  0  0  0
   -0.1252    5.6091   -2.2449 C   0  0  0  1  0  0  0  0  0  0  0  0
    0.1790    3.6376   -0.2933 H   0  0  0  1  0  0  0  0  0  0  0  0
   -0.3993    5.1630    0.3335 H   0  0  0  1  0  0  0  0  0  0  0  0
   -2.6516    4.5662   -0.5356 H   0  0  0  1  0  0  0  0  0  0  0  0
   -1.9169    3.1861   -1.3163 H   0  0  0  1  0  0  0  0  0  0  0  0
   -3.2681    4.8681   -3.0923 H   0  0  0  1  0  0  0  0  0  0  0  0
   -2.6793    6.2423   -4.9979 H   0  0  0  1  0  0  0  0  0  0  0  0
   -0.4660    7.2248   -5.1471 H   0  0  0  1  0  0  0  0  0  0  0  0
    1.1618    6.8140   -3.4012 H   0  0  0  1  0  0  0  0  0  0  0  0
    0.5718    5.4374   -1.4924 H   0  0  0  1  0  0  0  0  0  0  0  0
  1  4  1  0  0  0  0
  2  4  1  0  0  0  0
  2  5  2  0  0  0  0
  2  6  1  0  0  0  0
  3  4  1  0  0  0  0
  3  7  1  0  0  0  0
  3  8  1  0  0  0  0
  4 19  1  0  0  0  0
  6  9  1  0  0  0  0
  6 12  1  0  0  0  0
  8 10  1  0  0  0  0
  8 11  2  0  0  0  0
  9 13  1  0  0  0  0
  9 14  1  0  0  0  0
  9 15  1  0  0  0  0
 10 16  1  0  0  0  0
 10 17  1  0  0  0  0
 10 18  1  0  0  0  0
 19 20  1  0  0  0  0
 19 27  1  0  0  0  0
 19 28  1  0  0  0  0
 20 21  1  0  0  0  0
 20 29  1  0  0  0  0
 20 30  1  0  0  0  0
 21 22  4  0  0  0  0
 21 26  4  0  0  0  0
 22 23  4  0  0  0  0
 22 31  1  0  0  0  0
 23 24  4  0  0  0  0
 23 32  1  0  0  0  0
 24 25  4  0  0  0  0
 24 33  1  0  0  0  0
 25 26  4  0  0  0  0
 25 34  1  0  0  0  0
 26 35  1  0  0  0  0
M  END
> <BCLConfClusterSize>
1

> <ConfClashScore>
0 

> <ConfOneFourInteractionScore>
-0.964326 

> <ConfScore>
0.409892 

> <ConfScorePBest>
0.00279274 

> <ConfTolerance>
1.04097 

> <RosettaParamsInstructions>
M  ROOT 3
M  POLY_N_BB 3
M  POLY_CA_BB 4
M  POLY_C_BB 2
M  POLY_O_BB 5
M  POLY_IGNORE 9 10 11 12 13 14 15 16 17 18 
M  POLY_UPPER 6
M  POLY_LOWER 8
M  POLY_CHG 0
M  POLY_PROPERTIES ALPHA_AA D_AA PROTEIN AROMATIC POLYMER 
M  END

$$$$



 35 35  0  0  0  0  0  0  0  0999 V2000
   -2.7513    4.8246    2.2062 H   0  0  0  1  0  0  0  0  0  0  0  0
   -1.6916    3.0320    2.0026 C   0  0  0  1  0  0  0  0  0  0  0  0
   -3.8131    3.6273    0.9046 N   0  0  0  1  0  0  0  0  0  0  0  0
   -2.5279    4.1482    1.4078 C   0  0  0  1  0  0  0  0  0  0  0  0
   -1.2409    2.1229    1.3068 O   0  0  0  1  0  0  0  0  0  0  0  0
   -1.5064    3.1438    3.3210 N   0  0  0  1  0  0  0  0  0  0  0  0
   -4.2703    4.1107    0.1851 H   0  0  0  1  0  0  0  0  0  0  0  0
   -4.3779    2.5147    1.3979 C   0  0  0  1  0  0  0  0  0  0  0  0
   -0.8497    2.1080    4.1044 C   0  0  0  1  0  0  0  0  0  0  0  0
   -5.5380    1.9546    0.5980 C   0  0  0  1  0  0  0  0  0  0  0  0
   -3.9930    1.9697    2.4315 O   0  0  0  1  0  0  0  0  0  0  0  0
   -1.8238    3.9515    3.7763 H   0  0  0  1  0  0  0  0  0  0  0  0
   -0.5849    2.5000    5.0642 H   0  0  0  1  0  0  0  0  0  0  0  0
    0.0338    1.7829    3.5960 H   0  0  0  1  0  0  0  0  0  0  0  0
   -1.5154    1.2796    4.2291 H   0  0  0  1  0  0  0  0  0  0  0  0
   -5.4592    2.2771   -0.4191 H   0  0  0  1  0  0  0  0  0  0  0  0
   -6.4596    2.3059    1.0130 H   0  0  0  1  0  0  0  0  0  0  0  0
   -5.5138    0.8855    0.6359 H   0  0  0  1  0  0  0  0  0  0  0  0
   -1.8218    4.9675    0.3265 C   0  0  0  1  0  0  0  0  0  0  0  0
   -1.7496    4.1900   -0.9776 C   0  0  0  1  0  0  0  0  0  0  0  0
   -1.3870    5.0508   -2.1581 C   0  0  0  1  0  0  0  0  0  0  0  0
   -2.3176    5.2842   -3.1585 C   0  0  0  1  0  0  0  0  0  0  0  0
   -1.9825    6.0702   -4.2447 C   0  0  0  1  0  0  0  0  0  0  0  0
   -0.7171    6.6296   -4.3311 C   0  0  0  1  0  0  0  0  0  0  0  0
    0.2110    6.3971   -3.3337 C   0  0  0  1  0  0  0  0  0  0  0  0
   -0.1254    5.6087   -2.2443 C   0  0  0  1  0  0  0  0  0  0  0  0
   -0.8292    5.1979    0.6530 H   0  0  0  1  0  0  0  0  0  0  0  0
   -2.3641    5.8755    0.1641 H   0  0  0  1  0  0  0  0  0  0  0  0
   -2.7048    3.7444   -1.1617 H   0  0  0  1  0  0  0  0  0  0  0  0
   -1.0110    3.4225   -0.8761 H   0  0  0  1  0  0  0  0  0  0  0  0
   -3.2683    4.8677   -3.0917 H   0  0  0  1  0  0  0  0  0  0  0  0
   -2.6795    6.2419   -4.9973 H   0  0  0  1  0  0  0  0  0  0  0  0
   -0.4662    7.2244   -5.1465 H   0  0  0  1  0  0  0  0  0  0  0  0
    1.1616    6.8136   -3.4006 H   0  0  0  1  0  0  0  0  0  0  0  0
    0.5716    5.4370   -1.4918 H   0  0  0  1  0  0  0  0  0  0  0  0
  1  4  1  0  0  0  0
  2  4  1  0  0  0  0
  2  5  2  0  0  0  0
  2  6  1  0  0  0  0
  3  4  1  0  0  0  0
  3  7  1  0  0  0  0
  3  8  1  0  0  0  0
  4 19  1  0  0  0  0
  6  9  1  0  0  0  0
  6 12  1  0  0  0  0
  8 10  1  0  0  0  0
  8 11  2  0  0  0  0
  9 13  1  0  0  0  0
  9 14  1  0  0  0  0
  9 15  1  0  0  0  0
 10 16  1  0  0  0  0
 10 17  1  0  0  0  0
 10 18  1  0  0  0  0
 19 20  1  0  0  0  0
 19 27  1  0  0  0  0
 19 28  1  0  0  0  0
 20 21  1  0  0  0  0
 20 29  1  0  0  0  0
 20 30  1  0  0  0  0
 21 22  4  0  0  0  0
 21 26  4  0  0  0  0
 22 23  4  0  0  0  0
 22 31  1  0  0  0  0
 23 24  4  0  0  0  0
 23 32  1  0  0  0  0
 24 25  4  0  0  0  0
 24 33  1  0  0  0  0
 25 26  4  0  0  0  0
 25 34  1  0  0  0  0
 26 35  1  0  0  0  0
M  END
> <BCLConfClusterSize>
1

> <ConfClashScore>
0 

> <ConfOneFourInteractionScore>
-0.963922 

> <ConfScore>
0.421921 

> <ConfScorePBest>
0.00276426 

> <ConfTolerance>
0.855112 

> <RosettaParamsInstructions>
M  ROOT 3
M  POLY_N_BB 3
M  POLY_CA_BB 4
M  POLY_C_BB 2
M  POLY_O_BB 5
M  POLY_IGNORE 9 10 11 12 13 14 15 16 17 18 
M  POLY_UPPER 6
M  POLY_LOWER 8
M  POLY_CHG 0
M  POLY_PROPERTIES ALPHA_AA D_AA PROTEIN AROMATIC POLYMER 
M  END

$$$$



 35 35  0  0  0  0  0  0  0  0999 V2000
   -3.1863    6.4129   -0.7395 H   0  0  0  1  0  0  0  0  0  0  0  0
   -3.1065    7.0059    1.3045 C   0  0  0  1  0  0  0  0  0  0  0  0
   -4.3689    5.1276    0.4057 N   0  0  0  1  0  0  0  0  0  0  0  0
   -3.1538    5.9336    0.2166 C   0  0  0  1  0  0  0  0  0  0  0  0
   -2.0604    7.2698    1.8958 O   0  0  0  1  0  0  0  0  0  0  0  0
   -4.2684    7.6269    1.5623 N   0  0  0  1  0  0  0  0  0  0  0  0
   -4.6623    4.8901    1.3100 H   0  0  0  1  0  0  0  0  0  0  0  0
   -5.0808    4.7144   -0.6633 C   0  0  0  1  0  0  0  0  0  0  0  0
   -4.4233    8.5579    2.6700 C   0  0  0  1  0  0  0  0  0  0  0  0
   -6.2139    3.7511   -0.3677 C   0  0  0  1  0  0  0  0  0  0  0  0
   -4.8427    5.0816   -1.8027 O   0  0  0  1  0  0  0  0  0  0  0  0
   -5.0392    7.4469    0.9844 H   0  0  0  1  0  0  0  0  0  0  0  0
   -3.4970    9.0650    2.8425 H   0  0  0  1  0  0  0  0  0  0  0  0
   -4.7045    8.0199    3.5511 H   0  0  0  1  0  0  0  0  0  0  0  0
   -5.1822    9.2733    2.4309 H   0  0  0  1  0  0  0  0  0  0  0  0
   -5.9031    2.7531   -0.5965 H   0  0  0  1  0  0  0  0  0  0  0  0
   -7.0635    4.0058   -0.9661 H   0  0  0  1  0  0  0  0  0  0  0  0
   -6.4746    3.8146    0.6681 H   0  0  0  1  0  0  0  0  0  0  0  0
   -1.9319    5.0370    0.2713 C   0  0  0  1  0  0  0  0  0  0  0  0
   -1.7496    4.1900   -0.9776 C   0  0  0  1  0  0  0  0  0  0  0  0
   -1.3870    5.0508   -2.1581 C   0  0  0  1  0  0  0  0  0  0  0  0
   -2.3176    5.2842   -3.1585 C   0  0  0  1  0  0  0  0  0  0  0  0
   -1.9825    6.0702   -4.2447 C   0  0  0  1  0  0  0  0  0  0  0  0
   -0.7171    6.6296   -4.3311 C   0  0  0  1  0  0  0  0  0  0  0  0
    0.2110    6.3971   -3.3337 C   0  0  0  1  0  0  0  0  0  0  0  0
   -0.1254    5.6087   -2.2443 C   0  0  0  1  0  0  0  0  0  0  0  0
   -2.0278    4.3837    1.1133 H   0  0  0  1  0  0  0  0  0  0  0  0
   -1.0650    5.6522    0.3935 H   0  0  0  1  0  0  0  0  0  0  0  0
   -2.6628    3.6734   -1.1875 H   0  0  0  1  0  0  0  0  0  0  0  0
   -0.9679    3.4792   -0.8084 H   0  0  0  1  0  0  0  0  0  0  0  0
   -3.2683    4.8677   -3.0917 H   0  0  0  1  0  0  0  0  0  0  0  0
   -2.6795    6.2419   -4.9973 H   0  0  0  1  0  0  0  0  0  0  0  0
   -0.4662    7.2244   -5.1465 H   0  0  0  1  0  0  0  0  0  0  0  0
    1.1616    6.8136   -3.4006 H   0  0  0  1  0  0  0  0  0  0  0  0
    0.5716    5.4370   -1.4918 H   0  0  0  1  0  0  0  0  0  0  0  0
  1  4  1  0  0  0  0
  2  4  1  0  0  0  0
  2  5  2  0  0  0  0
  2  6  1  0  0  0  0
  3  4  1  0  0  0  0
  3  7  1  0  0  0  0
  3  8  1  0  0  0  0
  4 19  1  0  0  0  0
  6  9  1  0  0  0  0
  6 12  1  0  0  0  0
  8 10  1  0  0  0  0
  8 11  2  0  0  0  0
  9 13  1  0  0  0  0
  9 14  1  0  0  0  0
  9 15  1  0  0  0  0
 10 16  1  0  0  0  0
 10 17  1  0  0  0  0
 10 18  1  0  0  0  0
 19 20  1  0  0  0  0
 19 27  1  0  0  0  0
 19 28  1  0  0  0  0
 20 21  1  0  0  0  0
 20 29  1  0  0  0  0
 20 30  1  0  0  0  0
 21 22  4  0  0  0  0
 21 26  4  0  0  0  0
 22 23  4  0  0  0  0
 22 31  1  0  0  0  0
 23 24  4  0  0  0  0
 23 32  1  0  0  0  0
 24 25  4  0  0  0  0
 24 33  1  0  0  0  0
 25 26  4  0  0  0  0
 25 34  1  0  0  0  0
 26 35  1  0  0  0  0
M  END
> <BCLConfClusterSize>
1

> <ConfClashScore>
0 

> <ConfOneFourInteractionScore>
-0.970693 

> <ConfScore>
0.427501 

> <ConfScorePBest>
0.00273578 

> <ConfTolerance>
0.878111 

> <RosettaParamsInstructions>
M  ROOT 3
M  POLY_N_BB 3
M  POLY_CA_BB 4
M  POLY_C_BB 2
M  POLY_O_BB 5
M  POLY_IGNORE 9 10 11 12 13 14 15 16 17 18 
M  POLY_UPPER 6
M  POLY_LOWER 8
M  POLY_CHG 0
M  POLY_PROPERTIES ALPHA_AA D_AA PROTEIN AROMATIC POLYMER 
M  END

$$$$



 35 35  0  0  0  0  0  0  0  0999 V2000
   -1.8023    0.9273   -0.3114 H   0  0  0  1  0  0  0  0  0  0  0  0
   -2.4702    2.4738    0.9528 C   0  0  0  1  0  0  0  0  0  0  0  0
   -0.1520    1.6483    0.7097 N   0  0  0  1  0  0  0  0  0  0  0  0
   -1.4305    1.8715    0.0279 C   0  0  0  1  0  0  0  0  0  0  0  0
   -3.5805    2.8028    0.5372 O   0  0  0  1  0  0  0  0  0  0  0  0
   -2.0969    2.6188    2.2341 N   0  0  0  1  0  0  0  0  0  0  0  0
    0.1691    0.7347    0.8598 H   0  0  0  1  0  0  0  0  0  0  0  0
    0.5763    2.6879    1.1267 C   0  0  0  1  0  0  0  0  0  0  0  0
   -2.9756    3.1983    3.2390 C   0  0  0  1  0  0  0  0  0  0  0  0
    1.9722    2.3590    1.6190 C   0  0  0  1  0  0  0  0  0  0  0  0
    0.1615    3.8352    1.1193 O   0  0  0  1  0  0  0  0  0  0  0  0
   -1.2014    2.3241    2.5021 H   0  0  0  1  0  0  0  0  0  0  0  0
   -3.6377    2.4449    3.6118 H   0  0  0  1  0  0  0  0  0  0  0  0
   -3.5468    3.9891    2.7996 H   0  0  0  1  0  0  0  0  0  0  0  0
   -2.3883    3.5869    4.0446 H   0  0  0  1  0  0  0  0  0  0  0  0
    2.6331    2.2655    0.7827 H   0  0  0  1  0  0  0  0  0  0  0  0
    1.9509    1.4368    2.1613 H   0  0  0  1  0  0  0  0  0  0  0  0
    2.3178    3.1426    2.2604 H   0  0  0  1  0  0  0  0  0  0  0  0
   -1.1745    2.7322   -1.1997 C   0  0  0  1  0  0  0  0  0  0  0  0
   -1.7024    4.1419   -0.9889 C   0  0  0  1  0  0  0  0  0  0  0  0
   -1.4006    5.0689   -2.1500 C   0  0  0  1  0  0  0  0  0  0  0  0
   -2.3265    5.2981   -3.1559 C   0  0  0  1  0  0  0  0  0  0  0  0
   -1.9833    6.0722   -4.2481 C   0  0  0  1  0  0  0  0  0  0  0  0
   -0.7147    6.6240   -4.3351 C   0  0  0  1  0  0  0  0  0  0  0  0
    0.2087    6.3957   -3.3324 C   0  0  0  1  0  0  0  0  0  0  0  0
   -0.1357    5.6192   -2.2370 C   0  0  0  1  0  0  0  0  0  0  0  0
   -1.6671    2.2956   -2.0432 H   0  0  0  1  0  0  0  0  0  0  0  0
   -0.1214    2.7758   -1.3842 H   0  0  0  1  0  0  0  0  0  0  0  0
   -1.2531    4.5452   -0.1055 H   0  0  0  1  0  0  0  0  0  0  0  0
   -2.7634    4.0925   -0.8594 H   0  0  0  1  0  0  0  0  0  0  0  0
   -3.2796    4.8873   -3.0886 H   0  0  0  1  0  0  0  0  0  0  0  0
   -2.6767    6.2408   -5.0046 H   0  0  0  1  0  0  0  0  0  0  0  0
   -0.4577    7.2099   -5.1551 H   0  0  0  1  0  0  0  0  0  0  0  0
    1.1618    6.8064   -3.3997 H   0  0  0  1  0  0  0  0  0  0  0  0
    0.5578    5.4507   -1.4804 H   0  0  0  1  0  0  0  0  0  0  0  0
  1  4  1  0  0  0  0
  2  4  1  0  0  0  0
  2  5  2  0  0  0  0
  2  6  1  0  0  0  0
  3  4  1  0  0  0  0
  3  7  1  0  0  0  0
  3  8  1  0  0  0  0
  4 19  1  0  0  0  0
  6  9  1  0  0  0  0
  6 12  1  0  0  0  0
  8 10  1  0  0  0  0
  8 11  2  0  0  0  0
  9 13  1  0  0  0  0
  9 14  1  0  0  0  0
  9 15  1  0  0  0  0
 10 16  1  0  0  0  0
 10 17  1  0  0  0  0
 10 18  1  0  0  0  0
 19 20  1  0  0  0  0
 19 27  1  0  0  0  0
 19 28  1  0  0  0  0
 20 21  1  0  0  0  0
 20 29  1  0  0  0  0
 20 30  1  0  0  0  0
 21 22  4  0  0  0  0
 21 26  4  0  0  0  0
 22 23  4  0  0  0  0
 22 31  1  0  0  0  0
 23 24  4  0  0  0  0
 23 32  1  0  0  0  0
 24 25  4  0  0  0  0
 24 33  1  0  0  0  0
 25 26  4  0  0  0  0
 25 34  1  0  0  0  0
 26 35  1  0  0  0  0
M  END
> <BCLConfClusterSize>
1

> <ConfClashScore>
0 

> <ConfOneFourInteractionScore>
-0.954481 

> <ConfScore>
0.433941 

> <ConfScorePBest>
0.0027073 

> <ConfTolerance>
0.727264 

> <RosettaParamsInstructions>
M  ROOT 3
M  POLY_N_BB 3
M  POLY_CA_BB 4
M  POLY_C_BB 2
M  POLY_O_BB 5
M  POLY_IGNORE 9 10 11 12 13 14 15 16 17 18 
M  POLY_UPPER 6
M  POLY_LOWER 8
M  POLY_CHG 0
M  POLY_PROPERTIES ALPHA_AA D_AA PROTEIN AROMATIC POLYMER 
M  END

$$$$



 35 35  0  0  0  0  0  0  0  0999 V2000
   -3.4644    3.3810    0.9265 H   0  0  0  1  0  0  0  0  0  0  0  0
   -3.5589    4.9012    2.3695 C   0  0  0  1  0  0  0  0  0  0  0  0
   -1.6336    3.3969    1.8584 N   0  0  0  1  0  0  0  0  0  0  0  0
   -2.7901    4.1062    1.3319 C   0  0  0  1  0  0  0  0  0  0  0  0
   -3.0079    5.3179    3.3850 O   0  0  0  1  0  0  0  0  0  0  0  0
   -4.8347    5.1931    2.0709 N   0  0  0  1  0  0  0  0  0  0  0  0
   -0.7695    3.8582    1.8892 H   0  0  0  1  0  0  0  0  0  0  0  0
   -1.7092    2.1326    2.3034 C   0  0  0  1  0  0  0  0  0  0  0  0
   -5.5255    4.7167    0.8819 C   0  0  0  1  0  0  0  0  0  0  0  0
   -0.4340    1.4638    2.7644 C   0  0  0  1  0  0  0  0  0  0  0  0
   -2.7833    1.5335    2.3360 O   0  0  0  1  0  0  0  0  0  0  0  0
   -5.3327    5.7633    2.6932 H   0  0  0  1  0  0  0  0  0  0  0  0
   -4.9457    4.9515    0.0138 H   0  0  0  1  0  0  0  0  0  0  0  0
   -6.4817    5.1915    0.8109 H   0  0  0  1  0  0  0  0  0  0  0  0
   -5.6569    3.6568    0.9467 H   0  0  0  1  0  0  0  0  0  0  0  0
   -0.2421    1.7252    3.7840 H   0  0  0  1  0  0  0  0  0  0  0  0
    0.3810    1.7908    2.1531 H   0  0  0  1  0  0  0  0  0  0  0  0
   -0.5385    0.4021    2.6822 H   0  0  0  1  0  0  0  0  0  0  0  0
   -2.3361    4.9810    0.1792 C   0  0  0  1  0  0  0  0  0  0  0  0
   -1.7068    4.1969   -0.9607 C   0  0  0  1  0  0  0  0  0  0  0  0
   -1.3961    5.0494   -2.1618 C   0  0  0  1  0  0  0  0  0  0  0  0
   -2.3235    5.2856   -3.1647 C   0  0  0  1  0  0  0  0  0  0  0  0
   -1.9838    6.0723   -4.2490 C   0  0  0  1  0  0  0  0  0  0  0  0
   -0.7172    6.6296   -4.3310 C   0  0  0  1  0  0  0  0  0  0  0  0
    0.2076    6.3943   -3.3312 C   0  0  0  1  0  0  0  0  0  0  0  0
   -0.1333    5.6052   -2.2437 C   0  0  0  1  0  0  0  0  0  0  0  0
   -1.6157    5.6810    0.5478 H   0  0  0  1  0  0  0  0  0  0  0  0
   -3.1855    5.5093   -0.2007 H   0  0  0  1  0  0  0  0  0  0  0  0
   -2.3848    3.4242   -1.2576 H   0  0  0  1  0  0  0  0  0  0  0  0
   -0.7963    3.7577   -0.6100 H   0  0  0  1  0  0  0  0  0  0  0  0
   -3.2750    4.8707   -3.1011 H   0  0  0  1  0  0  0  0  0  0  0  0
   -2.6783    6.2461   -5.0033 H   0  0  0  1  0  0  0  0  0  0  0  0
   -0.4628    7.2249   -5.1450 H   0  0  0  1  0  0  0  0  0  0  0  0
    1.1592    6.8091   -3.3948 H   0  0  0  1  0  0  0  0  0  0  0  0
    0.5612    5.4313   -1.4894 H   0  0  0  1  0  0  0  0  0  0  0  0
  1  4  1  0  0  0  0
  2  4  1  0  0  0  0
  2  5  2  0  0  0  0
  2  6  1  0  0  0  0
  3  4  1  0  0  0  0
  3  7  1  0  0  0  0
  3  8  1  0  0  0  0
  4 19  1  0  0  0  0
  6  9  1  0  0  0  0
  6 12  1  0  0  0  0
  8 10  1  0  0  0  0
  8 11  2  0  0  0  0
  9 13  1  0  0  0  0
  9 14  1  0  0  0  0
  9 15  1  0  0  0  0
 10 16  1  0  0  0  0
 10 17  1  0  0  0  0
 10 18  1  0  0  0  0
 19 20  1  0  0  0  0
 19 27  1  0  0  0  0
 19 28  1  0  0  0  0
 20 21  1  0  0  0  0
 20 29  1  0  0  0  0
 20 30  1  0  0  0  0
 21 22  4  0  0  0  0
 21 26  4  0  0  0  0
 22 23  4  0  0  0  0
 22 31  1  0  0  0  0
 23 24  4  0  0  0  0
 23 32  1  0  0  0  0
 24 25  4  0  0  0  0
 24 33  1  0  0  0  0
 25 26  4  0  0  0  0
 25 34  1  0  0  0  0
 26 35  1  0  0  0  0
M  END
> <BCLConfClusterSize>
1

> <ConfClashScore>
0 

> <ConfOneFourInteractionScore>
-0.991445 

> <ConfScore>
0.436995 

> <ConfScorePBest>
0.00267882 

> <ConfTolerance>
1.05927 

> <RosettaParamsInstructions>
M  ROOT 3
M  POLY_N_BB 3
M  POLY_CA_BB 4
M  POLY_C_BB 2
M  POLY_O_BB 5
M  POLY_IGNORE 9 10 11 12 13 14 15 16 17 18 
M  POLY_UPPER 6
M  POLY_LOWER 8
M  POLY_CHG 0
M  POLY_PROPERTIES ALPHA_AA D_AA PROTEIN AROMATIC POLYMER 
M  END

$$$$



 35 35  0  0  0  0  0  0  0  0999 V2000
   -0.1469    1.2072   -1.3924 H   0  0  0  1  0  0  0  0  0  0  0  0
    0.7419    2.4824   -0.0053 C   0  0  0  1  0  0  0  0  0  0  0  0
    0.5679    2.8303   -2.4269 N   0  0  0  1  0  0  0  0  0  0  0  0
   -0.1067    2.2660   -1.2431 C   0  0  0  1  0  0  0  0  0  0  0  0
    0.8371    3.5861    0.5250 O   0  0  0  1  0  0  0  0  0  0  0  0
    1.3514    1.3773    0.4268 N   0  0  0  1  0  0  0  0  0  0  0  0
    0.0233    3.2396   -3.1313 H   0  0  0  1  0  0  0  0  0  0  0  0
    1.9260    2.8024   -2.5756 C   0  0  0  1  0  0  0  0  0  0  0  0
    2.3984    1.3441    1.4370 C   0  0  0  1  0  0  0  0  0  0  0  0
    2.4040    3.4282   -3.8610 C   0  0  0  1  0  0  0  0  0  0  0  0
    2.6575    2.3126   -1.7351 O   0  0  0  1  0  0  0  0  0  0  0  0
    1.0731    0.5235    0.0345 H   0  0  0  1  0  0  0  0  0  0  0  0
    2.0663    1.8614    2.3128 H   0  0  0  1  0  0  0  0  0  0  0  0
    3.2777    1.8190    1.0546 H   0  0  0  1  0  0  0  0  0  0  0  0
    2.6211    0.3277    1.6862 H   0  0  0  1  0  0  0  0  0  0  0  0
    2.7679    4.4150   -3.6641 H   0  0  0  1  0  0  0  0  0  0  0  0
    1.5919    3.4799   -4.5559 H   0  0  0  1  0  0  0  0  0  0  0  0
    3.1914    2.8341   -4.2755 H   0  0  0  1  0  0  0  0  0  0  0  0
   -1.5515    2.7223   -1.1101 C   0  0  0  1  0  0  0  0  0  0  0  0
   -1.7496    4.1900   -0.9776 C   0  0  0  1  0  0  0  0  0  0  0  0
   -1.3870    5.0508   -2.1581 C   0  0  0  1  0  0  0  0  0  0  0  0
   -2.3176    5.2842   -3.1585 C   0  0  0  1  0  0  0  0  0  0  0  0
   -1.9825    6.0702   -4.2447 C   0  0  0  1  0  0  0  0  0  0  0  0
   -0.7171    6.6296   -4.3311 C   0  0  0  1  0  0  0  0  0  0  0  0
    0.2110    6.3971   -3.3337 C   0  0  0  1  0  0  0  0  0  0  0  0
   -0.1254    5.6087   -2.2443 C   0  0  0  1  0  0  0  0  0  0  0  0
   -1.9664    2.2540   -0.2421 H   0  0  0  1  0  0  0  0  0  0  0  0
   -2.0818    2.3954   -1.9802 H   0  0  0  1  0  0  0  0  0  0  0  0
   -1.1593    4.5191   -0.1480 H   0  0  0  1  0  0  0  0  0  0  0  0
   -2.7855    4.3555   -0.7669 H   0  0  0  1  0  0  0  0  0  0  0  0
   -3.2683    4.8677   -3.0917 H   0  0  0  1  0  0  0  0  0  0  0  0
   -2.6795    6.2419   -4.9973 H   0  0  0  1  0  0  0  0  0  0  0  0
   -0.4662    7.2244   -5.1465 H   0  0  0  1  0  0  0  0  0  0  0  0
    1.1616    6.8136   -3.4006 H   0  0  0  1  0  0  0  0  0  0  0  0
    0.5716    5.4370   -1.4918 H   0  0  0  1  0  0  0  0  0  0  0  0
  1  4  1  0  0  0  0
  2  4  1  0  0  0  0
  2  5  2  0  0  0  0
  2  6  1  0  0  0  0
  3  4  1  0  0  0  0
  3  7  1  0  0  0  0
  3  8  1  0  0  0  0
  4 19  1  0  0  0  0
  6  9  1  0  0  0  0
  6 12  1  0  0  0  0
  8 10  1  0  0  0  0
  8 11  2  0  0  0  0
  9 13  1  0  0  0  0
  9 14  1  0  0  0  0
  9 15  1  0  0  0  0
 10 16  1  0  0  0  0
 10 17  1  0  0  0  0
 10 18  1  0  0  0  0
 19 20  1  0  0  0  0
 19 27  1  0  0  0  0
 19 28  1  0  0  0  0
 20 21  1  0  0  0  0
 20 29  1  0  0  0  0
 20 30  1  0  0  0  0
 21 22  4  0  0  0  0
 21 26  4  0  0  0  0
 22 23  4  0  0  0  0
 22 31  1  0  0  0  0
 23 24  4  0  0  0  0
 23 32  1  0  0  0  0
 24 25  4  0  0  0  0
 24 33  1  0  0  0  0
 25 26  4  0  0  0  0
 25 34  1  0  0  0  0
 26 35  1  0  0  0  0
M  END
> <BCLConfClusterSize>
1

> <ConfClashScore>
0 

> <ConfOneFourInteractionScore>
-0.958427 

> <ConfScore>
0.441138 

> <ConfScorePBest>
0.00265034 

> <ConfTolerance>
0.891572 

> <RosettaParamsInstructions>
M  ROOT 3
M  POLY_N_BB 3
M  POLY_CA_BB 4
M  POLY_C_BB 2
M  POLY_O_BB 5
M  POLY_IGNORE 9 10 11 12 13 14 15 16 17 18 
M  POLY_UPPER 6
M  POLY_LOWER 8
M  POLY_CHG 0
M  POLY_PROPERTIES ALPHA_AA D_AA PROTEIN AROMATIC POLYMER 
M  END

$$$$



 35 35  0  0  0  0  0  0  0  0999 V2000
   -1.8086    2.5872   -3.3067 H   0  0  0  1  0  0  0  0  0  0  0  0
   -2.4897    0.7287   -2.5716 C   0  0  0  1  0  0  0  0  0  0  0  0
   -0.3424    1.8169   -2.0681 N   0  0  0  1  0  0  0  0  0  0  0  0
   -1.7442    2.0367   -2.3914 C   0  0  0  1  0  0  0  0  0  0  0  0
   -2.7589    0.0096   -1.6103 O   0  0  0  1  0  0  0  0  0  0  0  0
   -2.8277    0.4191   -3.8334 N   0  0  0  1  0  0  0  0  0  0  0  0
   -0.1311    1.1876   -1.3472 H   0  0  0  1  0  0  0  0  0  0  0  0
    0.6727    2.4171   -2.6903 C   0  0  0  1  0  0  0  0  0  0  0  0
   -3.3067   -0.9170   -4.1546 C   0  0  0  1  0  0  0  0  0  0  0  0
    2.0229    2.3020   -2.0100 C   0  0  0  1  0  0  0  0  0  0  0  0
    0.5416    3.0286   -3.7473 O   0  0  0  1  0  0  0  0  0  0  0  0
   -2.7517    1.0943   -4.5396 H   0  0  0  1  0  0  0  0  0  0  0  0
   -3.6716   -1.3889   -3.2663 H   0  0  0  1  0  0  0  0  0  0  0  0
   -2.5036   -1.4954   -4.5613 H   0  0  0  1  0  0  0  0  0  0  0  0
   -4.0972   -0.8492   -4.8726 H   0  0  0  1  0  0  0  0  0  0  0  0
    2.1350    1.3189   -1.6027 H   0  0  0  1  0  0  0  0  0  0  0  0
    2.0880    3.0235   -1.2226 H   0  0  0  1  0  0  0  0  0  0  0  0
    2.7986    2.4822   -2.7247 H   0  0  0  1  0  0  0  0  0  0  0  0
   -2.3823    2.8506   -1.3179 C   0  0  0  1  0  0  0  0  0  0  0  0
   -1.7496    4.1900   -0.9776 C   0  0  0  1  0  0  0  0  0  0  0  0
   -1.3870    5.0508   -2.1581 C   0  0  0  1  0  0  0  0  0  0  0  0
   -2.3176    5.2842   -3.1585 C   0  0  0  1  0  0  0  0  0  0  0  0
   -1.9825    6.0702   -4.2447 C   0  0  0  1  0  0  0  0  0  0  0  0
   -0.7171    6.6296   -4.3311 C   0  0  0  1  0  0  0  0  0  0  0  0
    0.2110    6.3971   -3.3337 C   0  0  0  1  0  0  0  0  0  0  0  0
   -0.1254    5.6087   -2.2443 C   0  0  0  1  0  0  0  0  0  0  0  0
   -2.3805    2.2603   -0.4255 H   0  0  0  1  0  0  0  0  0  0  0  0
   -3.3915    3.0409   -1.6182 H   0  0  0  1  0  0  0  0  0  0  0  0
   -0.8561    4.0009   -0.4201 H   0  0  0  1  0  0  0  0  0  0  0  0
   -2.4405    4.7366   -0.3703 H   0  0  0  1  0  0  0  0  0  0  0  0
   -3.2683    4.8677   -3.0917 H   0  0  0  1  0  0  0  0  0  0  0  0
   -2.6795    6.2419   -4.9973 H   0  0  0  1  0  0  0  0  0  0  0  0
   -0.4662    7.2244   -5.1465 H   0  0  0  1  0  0  0  0  0  0  0  0
    1.1616    6.8136   -3.4006 H   0  0  0  1  0  0  0  0  0  0  0  0
    0.5716    5.4370   -1.4918 H   0  0  0  1  0  0  0  0  0  0  0  0
  1  4  1  0  0  0  0
  2  4  1  0  0  0  0
  2  5  2  0  0  0  0
  2  6  1  0  0  0  0
  3  4  1  0  0  0  0
  3  7  1  0  0  0  0
  3  8  1  0  0  0  0
  4 19  1  0  0  0  0
  6  9  1  0  0  0  0
  6 12  1  0  0  0  0
  8 10  1  0  0  0  0
  8 11  2  0  0  0  0
  9 13  1  0  0  0  0
  9 14  1  0  0  0  0
  9 15  1  0  0  0  0
 10 16  1  0  0  0  0
 10 17  1  0  0  0  0
 10 18  1  0  0  0  0
 19 20  1  0  0  0  0
 19 27  1  0  0  0  0
 19 28  1  0  0  0  0
 20 21  1  0  0  0  0
 20 29  1  0  0  0  0
 20 30  1  0  0  0  0
 21 22  4  0  0  0  0
 21 26  4  0  0  0  0
 22 23  4  0  0  0  0
 22 31  1  0  0  0  0
 23 24  4  0  0  0  0
 23 32  1  0  0  0  0
 24 25  4  0  0  0  0
 24 33  1  0  0  0  0
 25 26  4  0  0  0  0
 25 34  1  0  0  0  0
 26 35  1  0  0  0  0
M  END
> <BCLConfClusterSize>
1

> <ConfClashScore>
0 

> <ConfOneFourInteractionScore>
-0.989817 

> <ConfScore>
0.44526 

> <ConfScorePBest>
0.00262186 

> <ConfTolerance>
1.04561 

> <RosettaParamsInstructions>
M  ROOT 3
M  POLY_N_BB 3
M  POLY_CA_BB 4
M  POLY_C_BB 2
M  POLY_O_BB 5
M  POLY_IGNORE 9 10 11 12 13 14 15 16 17 18 
M  POLY_UPPER 6
M  POLY_LOWER 8
M  POLY_CHG 0
M  POLY_PROPERTIES ALPHA_AA D_AA PROTEIN AROMATIC POLYMER 
M  END

$$$$



 35 35  0  0  0  0  0  0  0  0999 V2000
   -0.8549    4.4592    1.6369 H   0  0  0  1  0  0  0  0  0  0  0  0
   -1.9029    6.1208    2.4055 C   0  0  0  1  0  0  0  0  0  0  0  0
   -0.1713    6.1267    0.6323 N   0  0  0  1  0  0  0  0  0  0  0  0
   -1.2606    5.3679    1.2437 C   0  0  0  1  0  0  0  0  0  0  0  0
   -3.1165    6.0898    2.5919 O   0  0  0  1  0  0  0  0  0  0  0  0
   -1.0654    6.8017    3.1881 N   0  0  0  1  0  0  0  0  0  0  0  0
    0.5588    5.6389    0.1970 H   0  0  0  1  0  0  0  0  0  0  0  0
   -0.1362    7.4622    0.6463 C   0  0  0  1  0  0  0  0  0  0  0  0
   -1.4598    7.5782    4.3540 C   0  0  0  1  0  0  0  0  0  0  0  0
    1.0943    8.1091    0.0409 C   0  0  0  1  0  0  0  0  0  0  0  0
   -1.0779    8.1428    1.0493 O   0  0  0  1  0  0  0  0  0  0  0  0
   -0.1123    6.7774    2.9612 H   0  0  0  1  0  0  0  0  0  0  0  0
   -0.7359    8.3454    4.5338 H   0  0  0  1  0  0  0  0  0  0  0  0
   -1.5174    6.9354    5.2075 H   0  0  0  1  0  0  0  0  0  0  0  0
   -2.4161    8.0247    4.1780 H   0  0  0  1  0  0  0  0  0  0  0  0
    1.9735    7.6726    0.4669 H   0  0  0  1  0  0  0  0  0  0  0  0
    1.0825    9.1592    0.2461 H   0  0  0  1  0  0  0  0  0  0  0  0
    1.0954    7.9520   -1.0175 H   0  0  0  1  0  0  0  0  0  0  0  0
   -2.2825    4.9890    0.2006 C   0  0  0  1  0  0  0  0  0  0  0  0
   -1.7496    4.1900   -0.9776 C   0  0  0  1  0  0  0  0  0  0  0  0
   -1.3870    5.0508   -2.1581 C   0  0  0  1  0  0  0  0  0  0  0  0
   -2.3176    5.2842   -3.1585 C   0  0  0  1  0  0  0  0  0  0  0  0
   -1.9825    6.0702   -4.2447 C   0  0  0  1  0  0  0  0  0  0  0  0
   -0.7171    6.6296   -4.3311 C   0  0  0  1  0  0  0  0  0  0  0  0
    0.2110    6.3971   -3.3337 C   0  0  0  1  0  0  0  0  0  0  0  0
   -0.1254    5.6087   -2.2443 C   0  0  0  1  0  0  0  0  0  0  0  0
   -2.7140    5.8907   -0.1810 H   0  0  0  1  0  0  0  0  0  0  0  0
   -3.0407    4.4048    0.6789 H   0  0  0  1  0  0  0  0  0  0  0  0
   -2.5006    3.4918   -1.2832 H   0  0  0  1  0  0  0  0  0  0  0  0
   -0.8758    3.6593   -0.6618 H   0  0  0  1  0  0  0  0  0  0  0  0
   -3.2683    4.8677   -3.0917 H   0  0  0  1  0  0  0  0  0  0  0  0
   -2.6795    6.2419   -4.9973 H   0  0  0  1  0  0  0  0  0  0  0  0
   -0.4662    7.2244   -5.1465 H   0  0  0  1  0  0  0  0  0  0  0  0
    1.1616    6.8136   -3.4006 H   0  0  0  1  0  0  0  0  0  0  0  0
    0.5716    5.4370   -1.4918 H   0  0  0  1  0  0  0  0  0  0  0  0
  1  4  1  0  0  0  0
  2  4  1  0  0  0  0
  2  5  2  0  0  0  0
  2  6  1  0  0  0  0
  3  4  1  0  0  0  0
  3  7  1  0  0  0  0
  3  8  1  0  0  0  0
  4 19  1  0  0  0  0
  6  9  1  0  0  0  0
  6 12  1  0  0  0  0
  8 10  1  0  0  0  0
  8 11  2  0  0  0  0
  9 13  1  0  0  0  0
  9 14  1  0  0  0  0
  9 15  1  0  0  0  0
 10 16  1  0  0  0  0
 10 17  1  0  0  0  0
 10 18  1  0  0  0  0
 19 20  1  0  0  0  0
 19 27  1  0  0  0  0
 19 28  1  0  0  0  0
 20 21  1  0  0  0  0
 20 29  1  0  0  0  0
 20 30  1  0  0  0  0
 21 22  4  0  0  0  0
 21 26  4  0  0  0  0
 22 23  4  0  0  0  0
 22 31  1  0  0  0  0
 23 24  4  0  0  0  0
 23 32  1  0  0  0  0
 24 25  4  0  0  0  0
 24 33  1  0  0  0  0
 25 26  4  0  0  0  0
 25 34  1  0  0  0  0
 26 35  1  0  0  0  0
M  END
> <BCLConfClusterSize>
1

> <ConfClashScore>
0 

> <ConfOneFourInteractionScore>
-0.957888 

> <ConfScore>
0.446411 

> <ConfScorePBest>
0.00259338 

> <ConfTolerance>
1.14127 

> <RosettaParamsInstructions>
M  ROOT 3
M  POLY_N_BB 3
M  POLY_CA_BB 4
M  POLY_C_BB 2
M  POLY_O_BB 5
M  POLY_IGNORE 9 10 11 12 13 14 15 16 17 18 
M  POLY_UPPER 6
M  POLY_LOWER 8
M  POLY_CHG 0
M  POLY_PROPERTIES ALPHA_AA D_AA PROTEIN AROMATIC POLYMER 
M  END

$$$$



 35 35  0  0  0  0  0  0  0  0999 V2000
   -1.3354    0.8908   -1.8406 H   0  0  0  1  0  0  0  0  0  0  0  0
   -1.4678    2.1785   -3.4844 C   0  0  0  1  0  0  0  0  0  0  0  0
   -3.2101    1.7504   -1.7986 N   0  0  0  1  0  0  0  0  0  0  0  0
   -1.7571    1.8555   -2.0314 C   0  0  0  1  0  0  0  0  0  0  0  0
   -2.3765    2.3760   -4.2866 O   0  0  0  1  0  0  0  0  0  0  0  0
   -0.1697    2.2318   -3.8227 N   0  0  0  1  0  0  0  0  0  0  0  0
   -3.8047    1.9349   -2.5555 H   0  0  0  1  0  0  0  0  0  0  0  0
   -3.7755    1.4232   -0.6356 C   0  0  0  1  0  0  0  0  0  0  0  0
    0.2160    2.5249   -5.1937 C   0  0  0  1  0  0  0  0  0  0  0  0
   -5.2833    1.5702   -0.5717 C   0  0  0  1  0  0  0  0  0  0  0  0
   -3.1311    1.0256    0.3341 O   0  0  0  1  0  0  0  0  0  0  0  0
    0.5193    2.0728   -3.1442 H   0  0  0  1  0  0  0  0  0  0  0  0
    1.1108    3.1117   -5.1953 H   0  0  0  1  0  0  0  0  0  0  0  0
   -0.5685    3.0698   -5.6760 H   0  0  0  1  0  0  0  0  0  0  0  0
    0.3896    1.6088   -5.7187 H   0  0  0  1  0  0  0  0  0  0  0  0
   -5.5429    2.6076   -0.6098 H   0  0  0  1  0  0  0  0  0  0  0  0
   -5.6444    1.1458    0.3417 H   0  0  0  1  0  0  0  0  0  0  0  0
   -5.7265    1.0611   -1.4019 H   0  0  0  1  0  0  0  0  0  0  0  0
   -1.1302    2.8033   -1.0392 C   0  0  0  1  0  0  0  0  0  0  0  0
   -1.7496    4.1900   -0.9776 C   0  0  0  1  0  0  0  0  0  0  0  0
   -1.3870    5.0508   -2.1581 C   0  0  0  1  0  0  0  0  0  0  0  0
   -2.3176    5.2842   -3.1585 C   0  0  0  1  0  0  0  0  0  0  0  0
   -1.9825    6.0702   -4.2447 C   0  0  0  1  0  0  0  0  0  0  0  0
   -0.7171    6.6296   -4.3311 C   0  0  0  1  0  0  0  0  0  0  0  0
    0.2110    6.3971   -3.3337 C   0  0  0  1  0  0  0  0  0  0  0  0
   -0.1254    5.6087   -2.2443 C   0  0  0  1  0  0  0  0  0  0  0  0
   -0.0977    2.9148   -1.2970 H   0  0  0  1  0  0  0  0  0  0  0  0
   -1.2101    2.3632   -0.0672 H   0  0  0  1  0  0  0  0  0  0  0  0
   -1.4112    4.6749   -0.0858 H   0  0  0  1  0  0  0  0  0  0  0  0
   -2.8141    4.0864   -0.9459 H   0  0  0  1  0  0  0  0  0  0  0  0
   -3.2683    4.8677   -3.0917 H   0  0  0  1  0  0  0  0  0  0  0  0
   -2.6795    6.2419   -4.9973 H   0  0  0  1  0  0  0  0  0  0  0  0
   -0.4662    7.2244   -5.1465 H   0  0  0  1  0  0  0  0  0  0  0  0
    1.1616    6.8136   -3.4006 H   0  0  0  1  0  0  0  0  0  0  0  0
    0.5716    5.4370   -1.4918 H   0  0  0  1  0  0  0  0  0  0  0  0
  1  4  1  0  0  0  0
  2  4  1  0  0  0  0
  2  5  2  0  0  0  0
  2  6  1  0  0  0  0
  3  4  1  0  0  0  0
  3  7  1  0  0  0  0
  3  8  1  0  0  0  0
  4 19  1  0  0  0  0
  6  9  1  0  0  0  0
  6 12  1  0  0  0  0
  8 10  1  0  0  0  0
  8 11  2  0  0  0  0
  9 13  1  0  0  0  0
  9 14  1  0  0  0  0
  9 15  1  0  0  0  0
 10 16  1  0  0  0  0
 10 17  1  0  0  0  0
 10 18  1  0  0  0  0
 19 20  1  0  0  0  0
 19 27  1  0  0  0  0
 19 28  1  0  0  0  0
 20 21  1  0  0  0  0
 20 29  1  0  0  0  0
 20 30  1  0  0  0  0
 21 22  4  0  0  0  0
 21 26  4  0  0  0  0
 22 23  4  0  0  0  0
 22 31  1  0  0  0  0
 23 24  4  0  0  0  0
 23 32  1  0  0  0  0
 24 25  4  0  0  0  0
 24 33  1  0  0  0  0
 25 26  4  0  0  0  0
 25 34  1  0  0  0  0
 26 35  1  0  0  0  0
M  END
> <BCLConfClusterSize>
1

> <ConfClashScore>
0 

> <ConfOneFourInteractionScore>
-0.953431 

> <ConfScore>
0.450493 

> <ConfScorePBest>
0.0025649 

> <ConfTolerance>
1.2478 

> <RosettaParamsInstructions>
M  ROOT 3
M  POLY_N_BB 3
M  POLY_CA_BB 4
M  POLY_C_BB 2
M  POLY_O_BB 5
M  POLY_IGNORE 9 10 11 12 13 14 15 16 17 18 
M  POLY_UPPER 6
M  POLY_LOWER 8
M  POLY_CHG 0
M  POLY_PROPERTIES ALPHA_AA D_AA PROTEIN AROMATIC POLYMER 
M  END

$$$$



 35 35  0  0  0  0  0  0  0  0999 V2000
   -2.4031    0.8355   -0.5840 H   0  0  0  1  0  0  0  0  0  0  0  0
   -3.8290    2.2397    0.0880 C   0  0  0  1  0  0  0  0  0  0  0  0
   -1.4736    1.9282    0.8902 N   0  0  0  1  0  0  0  0  0  0  0  0
   -2.3835    1.8509   -0.2472 C   0  0  0  1  0  0  0  0  0  0  0  0
   -4.3526    1.8218    1.1199 O   0  0  0  1  0  0  0  0  0  0  0  0
   -4.4279    3.1014   -0.7390 N   0  0  0  1  0  0  0  0  0  0  0  0
   -0.6166    1.4553    0.8433 H   0  0  0  1  0  0  0  0  0  0  0  0
   -1.7675    2.6202    1.9921 C   0  0  0  1  0  0  0  0  0  0  0  0
   -5.8143    3.4840   -0.5168 C   0  0  0  1  0  0  0  0  0  0  0  0
   -0.8486    2.3938    3.1768 C   0  0  0  1  0  0  0  0  0  0  0  0
   -2.7191    3.3969    2.0614 O   0  0  0  1  0  0  0  0  0  0  0  0
   -3.9325    3.4765   -1.4968 H   0  0  0  1  0  0  0  0  0  0  0  0
   -6.3197    2.7036    0.0128 H   0  0  0  1  0  0  0  0  0  0  0  0
   -6.2951    3.6445   -1.4591 H   0  0  0  1  0  0  0  0  0  0  0  0
   -5.8474    4.3851    0.0592 H   0  0  0  1  0  0  0  0  0  0  0  0
   -0.0673    3.1248    3.1676 H   0  0  0  1  0  0  0  0  0  0  0  0
   -0.4214    1.4148    3.1145 H   0  0  0  1  0  0  0  0  0  0  0  0
   -1.4086    2.4821    4.0842 H   0  0  0  1  0  0  0  0  0  0  0  0
   -1.9085    2.6983   -1.4175 C   0  0  0  1  0  0  0  0  0  0  0  0
   -1.7024    4.1419   -0.9889 C   0  0  0  1  0  0  0  0  0  0  0  0
   -1.4006    5.0689   -2.1500 C   0  0  0  1  0  0  0  0  0  0  0  0
   -2.3265    5.2981   -3.1559 C   0  0  0  1  0  0  0  0  0  0  0  0
   -1.9833    6.0722   -4.2481 C   0  0  0  1  0  0  0  0  0  0  0  0
   -0.7147    6.6240   -4.3351 C   0  0  0  1  0  0  0  0  0  0  0  0
    0.2087    6.3957   -3.3324 C   0  0  0  1  0  0  0  0  0  0  0  0
   -0.1357    5.6192   -2.2370 C   0  0  0  1  0  0  0  0  0  0  0  0
   -2.6422    2.6646   -2.1956 H   0  0  0  1  0  0  0  0  0  0  0  0
   -0.9827    2.3050   -1.7824 H   0  0  0  1  0  0  0  0  0  0  0  0
   -0.8833    4.1794   -0.3014 H   0  0  0  1  0  0  0  0  0  0  0  0
   -2.5925    4.4833   -0.5030 H   0  0  0  1  0  0  0  0  0  0  0  0
   -3.2796    4.8873   -3.0886 H   0  0  0  1  0  0  0  0  0  0  0  0
   -2.6767    6.2408   -5.0046 H   0  0  0  1  0  0  0  0  0  0  0  0
   -0.4577    7.2099   -5.1551 H   0  0  0  1  0  0  0  0  0  0  0  0
    1.1618    6.8064   -3.3997 H   0  0  0  1  0  0  0  0  0  0  0  0
    0.5578    5.4507   -1.4804 H   0  0  0  1  0  0  0  0  0  0  0  0
  1  4  1  0  0  0  0
  2  4  1  0  0  0  0
  2  5  2  0  0  0  0
  2  6  1  0  0  0  0
  3  4  1  0  0  0  0
  3  7  1  0  0  0  0
  3  8  1  0  0  0  0
  4 19  1  0  0  0  0
  6  9  1  0  0  0  0
  6 12  1  0  0  0  0
  8 10  1  0  0  0  0
  8 11  2  0  0  0  0
  9 13  1  0  0  0  0
  9 14  1  0  0  0  0
  9 15  1  0  0  0  0
 10 16  1  0  0  0  0
 10 17  1  0  0  0  0
 10 18  1  0  0  0  0
 19 20  1  0  0  0  0
 19 27  1  0  0  0  0
 19 28  1  0  0  0  0
 20 21  1  0  0  0  0
 20 29  1  0  0  0  0
 20 30  1  0  0  0  0
 21 22  4  0  0  0  0
 21 26  4  0  0  0  0
 22 23  4  0  0  0  0
 22 31  1  0  0  0  0
 23 24  4  0  0  0  0
 23 32  1  0  0  0  0
 24 25  4  0  0  0  0
 24 33  1  0  0  0  0
 25 26  4  0  0  0  0
 25 34  1  0  0  0  0
 26 35  1  0  0  0  0
M  END
> <BCLConfClusterSize>
1

> <ConfClashScore>
0.00429342 

> <ConfOneFourInteractionScore>
-0.921809 

> <ConfScore>
0.467343 

> <ConfScorePBest>
0.00253641 

> <ConfTolerance>
0.904171 

> <RosettaParamsInstructions>
M  ROOT 3
M  POLY_N_BB 3
M  POLY_CA_BB 4
M  POLY_C_BB 2
M  POLY_O_BB 5
M  POLY_IGNORE 9 10 11 12 13 14 15 16 17 18 
M  POLY_UPPER 6
M  POLY_LOWER 8
M  POLY_CHG 0
M  POLY_PROPERTIES ALPHA_AA D_AA PROTEIN AROMATIC POLYMER 
M  END

$$$$



 35 35  0  0  0  0  0  0  0  0999 V2000
    0.2055    2.1457   -1.3347 H   0  0  0  1  0  0  0  0  0  0  0  0
   -0.9011    0.3618   -1.2287 C   0  0  0  1  0  0  0  0  0  0  0  0
   -0.4947    1.9208    0.5984 N   0  0  0  1  0  0  0  0  0  0  0  0
   -0.6923    1.8167   -0.8543 C   0  0  0  1  0  0  0  0  0  0  0  0
   -0.5808   -0.4940   -0.4048 O   0  0  0  1  0  0  0  0  0  0  0  0
   -1.4241    0.1289   -2.4422 N   0  0  0  1  0  0  0  0  0  0  0  0
    0.2033    2.5182    0.9392 H   0  0  0  1  0  0  0  0  0  0  0  0
   -1.2410    1.2224    1.4791 C   0  0  0  1  0  0  0  0  0  0  0  0
   -1.6405   -1.2372   -2.8946 C   0  0  0  1  0  0  0  0  0  0  0  0
   -1.0195    1.4735    2.9580 C   0  0  0  1  0  0  0  0  0  0  0  0
   -2.0774    0.4054    1.0961 O   0  0  0  1  0  0  0  0  0  0  0  0
   -1.6608    0.8803   -3.0250 H   0  0  0  1  0  0  0  0  0  0  0  0
   -2.5237   -1.2782   -3.4973 H   0  0  0  1  0  0  0  0  0  0  0  0
   -1.7576   -1.8792   -2.0467 H   0  0  0  1  0  0  0  0  0  0  0  0
   -0.7994   -1.5587   -3.4726 H   0  0  0  1  0  0  0  0  0  0  0  0
   -0.7783    2.5043    3.1131 H   0  0  0  1  0  0  0  0  0  0  0  0
   -0.2132    0.8625    3.3064 H   0  0  0  1  0  0  0  0  0  0  0  0
   -1.9107    1.2308    3.4981 H   0  0  0  1  0  0  0  0  0  0  0  0
   -1.7754    2.7105   -1.2857 C   0  0  0  1  0  0  0  0  0  0  0  0
   -1.7068    4.1969   -0.9607 C   0  0  0  1  0  0  0  0  0  0  0  0
   -1.3961    5.0494   -2.1618 C   0  0  0  1  0  0  0  0  0  0  0  0
   -2.3235    5.2856   -3.1647 C   0  0  0  1  0  0  0  0  0  0  0  0
   -1.9838    6.0723   -4.2490 C   0  0  0  1  0  0  0  0  0  0  0  0
   -0.7172    6.6296   -4.3310 C   0  0  0  1  0  0  0  0  0  0  0  0
    0.2076    6.3943   -3.3312 C   0  0  0  1  0  0  0  0  0  0  0  0
   -0.1333    5.6052   -2.2437 C   0  0  0  1  0  0  0  0  0  0  0  0
   -2.6771    2.3388   -0.8456 H   0  0  0  1  0  0  0  0  0  0  0  0
   -1.8379    2.6292   -2.3508 H   0  0  0  1  0  0  0  0  0  0  0  0
   -0.9428    4.3503   -0.2274 H   0  0  0  1  0  0  0  0  0  0  0  0
   -2.6515    4.5022   -0.5615 H   0  0  0  1  0  0  0  0  0  0  0  0
   -3.2750    4.8707   -3.1011 H   0  0  0  1  0  0  0  0  0  0  0  0
   -2.6783    6.2461   -5.0033 H   0  0  0  1  0  0  0  0  0  0  0  0
   -0.4628    7.2249   -5.1450 H   0  0  0  1  0  0  0  0  0  0  0  0
    1.1592    6.8091   -3.3948 H   0  0  0  1  0  0  0  0  0  0  0  0
    0.5612    5.4313   -1.4894 H   0  0  0  1  0  0  0  0  0  0  0  0
  1  4  1  0  0  0  0
  2  4  1  0  0  0  0
  2  5  2  0  0  0  0
  2  6  1  0  0  0  0
  3  4  1  0  0  0  0
  3  7  1  0  0  0  0
  3  8  1  0  0  0  0
  4 19  1  0  0  0  0
  6  9  1  0  0  0  0
  6 12  1  0  0  0  0
  8 10  1  0  0  0  0
  8 11  2  0  0  0  0
  9 13  1  0  0  0  0
  9 14  1  0  0  0  0
  9 15  1  0  0  0  0
 10 16  1  0  0  0  0
 10 17  1  0  0  0  0
 10 18  1  0  0  0  0
 19 20  1  0  0  0  0
 19 27  1  0  0  0  0
 19 28  1  0  0  0  0
 20 21  1  0  0  0  0
 20 29  1  0  0  0  0
 20 30  1  0  0  0  0
 21 22  4  0  0  0  0
 21 26  4  0  0  0  0
 22 23  4  0  0  0  0
 22 31  1  0  0  0  0
 23 24  4  0  0  0  0
 23 32  1  0  0  0  0
 24 25  4  0  0  0  0
 24 33  1  0  0  0  0
 25 26  4  0  0  0  0
 25 34  1  0  0  0  0
 26 35  1  0  0  0  0
M  END
> <BCLConfClusterSize>
1

> <ConfClashScore>
0 

> <ConfOneFourInteractionScore>
-0.969344 

> <ConfScore>
0.467742 

> <ConfScorePBest>
0.00250793 

> <ConfTolerance>
1.03447 

> <RosettaParamsInstructions>
M  ROOT 3
M  POLY_N_BB 3
M  POLY_CA_BB 4
M  POLY_C_BB 2
M  POLY_O_BB 5
M  POLY_IGNORE 9 10 11 12 13 14 15 16 17 18 
M  POLY_UPPER 6
M  POLY_LOWER 8
M  POLY_CHG 0
M  POLY_PROPERTIES ALPHA_AA D_AA PROTEIN AROMATIC POLYMER 
M  END

$$$$



 35 35  0  0  0  0  0  0  0  0999 V2000
   -1.6425    2.6780   -3.2273 H   0  0  0  1  0  0  0  0  0  0  0  0
   -3.6350    2.5386   -2.5590 C   0  0  0  1  0  0  0  0  0  0  0  0
   -1.9120    0.7668   -2.4784 N   0  0  0  1  0  0  0  0  0  0  0  0
   -2.1615    2.2101   -2.4170 C   0  0  0  1  0  0  0  0  0  0  0  0
   -4.2719    3.0314   -1.6288 O   0  0  0  1  0  0  0  0  0  0  0  0
   -4.1829    2.2573   -3.7519 N   0  0  0  1  0  0  0  0  0  0  0  0
   -1.5408    0.3856   -3.3014 H   0  0  0  1  0  0  0  0  0  0  0  0
   -2.1752   -0.0538   -1.4428 C   0  0  0  1  0  0  0  0  0  0  0  0
   -5.6180    2.3247   -3.9835 C   0  0  0  1  0  0  0  0  0  0  0  0
   -1.9166   -1.5173   -1.7438 C   0  0  0  1  0  0  0  0  0  0  0  0
   -2.5872    0.3155   -0.3439 O   0  0  0  1  0  0  0  0  0  0  0  0
   -3.5959    1.9976   -4.4925 H   0  0  0  1  0  0  0  0  0  0  0  0
   -6.0056    1.3360   -4.1140 H   0  0  0  1  0  0  0  0  0  0  0  0
   -5.8102    2.9020   -4.8637 H   0  0  0  1  0  0  0  0  0  0  0  0
   -6.0934    2.7858   -3.1431 H   0  0  0  1  0  0  0  0  0  0  0  0
   -2.5988   -1.8530   -2.4967 H   0  0  0  1  0  0  0  0  0  0  0  0
   -2.0560   -2.0943   -0.8536 H   0  0  0  1  0  0  0  0  0  0  0  0
   -0.9125   -1.6372   -2.0936 H   0  0  0  1  0  0  0  0  0  0  0  0
   -1.5697    2.7423   -1.1260 C   0  0  0  1  0  0  0  0  0  0  0  0
   -1.7611    4.2396   -0.9476 C   0  0  0  1  0  0  0  0  0  0  0  0
   -1.3812    5.0323   -2.1696 C   0  0  0  1  0  0  0  0  0  0  0  0
   -2.3138    5.2721   -3.1668 C   0  0  0  1  0  0  0  0  0  0  0  0
   -1.9826    6.0702   -4.2454 C   0  0  0  1  0  0  0  0  0  0  0  0
   -0.7195    6.6353   -4.3274 C   0  0  0  1  0  0  0  0  0  0  0  0
    0.2105    6.3963   -3.3333 C   0  0  0  1  0  0  0  0  0  0  0  0
   -0.1218    5.5958   -2.2515 C   0  0  0  1  0  0  0  0  0  0  0  0
   -0.5207    2.5314   -1.1214 H   0  0  0  1  0  0  0  0  0  0  0  0
   -2.0386    2.2402   -0.3056 H   0  0  0  1  0  0  0  0  0  0  0  0
   -1.1547    4.5652   -0.1284 H   0  0  0  1  0  0  0  0  0  0  0  0
   -2.7910    4.4273   -0.7265 H   0  0  0  1  0  0  0  0  0  0  0  0
   -3.2627    4.8514   -3.1032 H   0  0  0  1  0  0  0  0  0  0  0  0
   -2.6810    6.2468   -4.9955 H   0  0  0  1  0  0  0  0  0  0  0  0
   -0.4716    7.2392   -5.1371 H   0  0  0  1  0  0  0  0  0  0  0  0
    1.1595    6.8171   -3.3969 H   0  0  0  1  0  0  0  0  0  0  0  0
    0.5766    5.4192   -1.5014 H   0  0  0  1  0  0  0  0  0  0  0  0
  1  4  1  0  0  0  0
  2  4  1  0  0  0  0
  2  5  2  0  0  0  0
  2  6  1  0  0  0  0
  3  4  1  0  0  0  0
  3  7  1  0  0  0  0
  3  8  1  0  0  0  0
  4 19  1  0  0  0  0
  6  9  1  0  0  0  0
  6 12  1  0  0  0  0
  8 10  1  0  0  0  0
  8 11  2  0  0  0  0
  9 13  1  0  0  0  0
  9 14  1  0  0  0  0
  9 15  1  0  0  0  0
 10 16  1  0  0  0  0
 10 17  1  0  0  0  0
 10 18  1  0  0  0  0
 19 20  1  0  0  0  0
 19 27  1  0  0  0  0
 19 28  1  0  0  0  0
 20 21  1  0  0  0  0
 20 29  1  0  0  0  0
 20 30  1  0  0  0  0
 21 22  4  0  0  0  0
 21 26  4  0  0  0  0
 22 23  4  0  0  0  0
 22 31  1  0  0  0  0
 23 24  4  0  0  0  0
 23 32  1  0  0  0  0
 24 25  4  0  0  0  0
 24 33  1  0  0  0  0
 25 26  4  0  0  0  0
 25 34  1  0  0  0  0
 26 35  1  0  0  0  0
M  END
> <BCLConfClusterSize>
1

> <ConfClashScore>
0 

> <ConfOneFourInteractionScore>
-0.983489 

> <ConfScore>
0.467959 

> <ConfScorePBest>
0.00247945 

> <ConfTolerance>
1.01956 

> <RosettaParamsInstructions>
M  ROOT 3
M  POLY_N_BB 3
M  POLY_CA_BB 4
M  POLY_C_BB 2
M  POLY_O_BB 5
M  POLY_IGNORE 9 10 11 12 13 14 15 16 17 18 
M  POLY_UPPER 6
M  POLY_LOWER 8
M  POLY_CHG 0
M  POLY_PROPERTIES ALPHA_AA D_AA PROTEIN AROMATIC POLYMER 
M  END

$$$$



 35 35  0  0  0  0  0  0  0  0999 V2000
   -2.3694    0.7782   -0.7947 H   0  0  0  1  0  0  0  0  0  0  0  0
   -3.9748    2.1632   -0.9158 C   0  0  0  1  0  0  0  0  0  0  0  0
   -2.3777    1.9598    0.9174 N   0  0  0  1  0  0  0  0  0  0  0  0
   -2.5587    1.7940   -0.5170 C   0  0  0  1  0  0  0  0  0  0  0  0
   -4.1961    2.7801   -1.9545 O   0  0  0  1  0  0  0  0  0  0  0  0
   -4.9761    1.7957   -0.1007 N   0  0  0  1  0  0  0  0  0  0  0  0
   -1.9198    1.2547    1.4209 H   0  0  0  1  0  0  0  0  0  0  0  0
   -2.8179    3.0488    1.5773 C   0  0  0  1  0  0  0  0  0  0  0  0
   -6.3556    2.0886   -0.4599 C   0  0  0  1  0  0  0  0  0  0  0  0
   -2.5364    3.0140    3.0668 C   0  0  0  1  0  0  0  0  0  0  0  0
   -3.3968    3.9991    1.0524 O   0  0  0  1  0  0  0  0  0  0  0  0
   -4.7777    1.3293    0.7380 H   0  0  0  1  0  0  0  0  0  0  0  0
   -6.4020    3.0346   -0.9577 H   0  0  0  1  0  0  0  0  0  0  0  0
   -6.9551    2.1221    0.4257 H   0  0  0  1  0  0  0  0  0  0  0  0
   -6.7241    1.3243   -1.1119 H   0  0  0  1  0  0  0  0  0  0  0  0
   -2.4212    4.0131    3.4320 H   0  0  0  1  0  0  0  0  0  0  0  0
   -1.6372    2.4628    3.2468 H   0  0  0  1  0  0  0  0  0  0  0  0
   -3.3523    2.5415    3.5728 H   0  0  0  1  0  0  0  0  0  0  0  0
   -1.5884    2.6953   -1.2562 C   0  0  0  1  0  0  0  0  0  0  0  0
   -1.8303    4.1748   -1.0060 C   0  0  0  1  0  0  0  0  0  0  0  0
   -1.3698    5.0537   -2.1514 C   0  0  0  1  0  0  0  0  0  0  0  0
   -2.3066    5.2818   -3.1473 C   0  0  0  1  0  0  0  0  0  0  0  0
   -1.9799    6.0666   -4.2371 C   0  0  0  1  0  0  0  0  0  0  0  0
   -0.7169    6.6300   -4.3315 C   0  0  0  1  0  0  0  0  0  0  0  0
    0.2174    6.4026   -3.3386 C   0  0  0  1  0  0  0  0  0  0  0  0
   -0.1105    5.6155   -2.2457 C   0  0  0  1  0  0  0  0  0  0  0  0
   -1.6840    2.5086   -2.3054 H   0  0  0  1  0  0  0  0  0  0  0  0
   -0.5947    2.4557   -0.9398 H   0  0  0  1  0  0  0  0  0  0  0  0
   -1.3001    4.4619   -0.1220 H   0  0  0  1  0  0  0  0  0  0  0  0
   -2.8790    4.3284   -0.8592 H   0  0  0  1  0  0  0  0  0  0  0  0
   -3.2555    4.8624   -3.0745 H   0  0  0  1  0  0  0  0  0  0  0  0
   -2.6815    6.2344   -4.9862 H   0  0  0  1  0  0  0  0  0  0  0  0
   -0.4723    7.2238   -5.1495 H   0  0  0  1  0  0  0  0  0  0  0  0
    1.1662    6.8221   -3.4115 H   0  0  0  1  0  0  0  0  0  0  0  0
    0.5911    5.4477   -1.4966 H   0  0  0  1  0  0  0  0  0  0  0  0
  1  4  1  0  0  0  0
  2  4  1  0  0  0  0
  2  5  2  0  0  0  0
  2  6  1  0  0  0  0
  3  4  1  0  0  0  0
  3  7  1  0  0  0  0
  3  8  1  0  0  0  0
  4 19  1  0  0  0  0
  6  9  1  0  0  0  0
  6 12  1  0  0  0  0
  8 10  1  0  0  0  0
  8 11  2  0  0  0  0
  9 13  1  0  0  0  0
  9 14  1  0  0  0  0
  9 15  1  0  0  0  0
 10 16  1  0  0  0  0
 10 17  1  0  0  0  0
 10 18  1  0  0  0  0
 19 20  1  0  0  0  0
 19 27  1  0  0  0  0
 19 28  1  0  0  0  0
 20 21  1  0  0  0  0
 20 29  1  0  0  0  0
 20 30  1  0  0  0  0
 21 22  4  0  0  0  0
 21 26  4  0  0  0  0
 22 23  4  0  0  0  0
 22 31  1  0  0  0  0
 23 24  4  0  0  0  0
 23 32  1  0  0  0  0
 24 25  4  0  0  0  0
 24 33  1  0  0  0  0
 25 26  4  0  0  0  0
 25 34  1  0  0  0  0
 26 35  1  0  0  0  0
M  END
> <BCLConfClusterSize>
1

> <ConfClashScore>
0 

> <ConfOneFourInteractionScore>
-0.962692 

> <ConfScore>
0.474061 

> <ConfScorePBest>
0.00245097 

> <ConfTolerance>
0.80909 

> <RosettaParamsInstructions>
M  ROOT 3
M  POLY_N_BB 3
M  POLY_CA_BB 4
M  POLY_C_BB 2
M  POLY_O_BB 5
M  POLY_IGNORE 9 10 11 12 13 14 15 16 17 18 
M  POLY_UPPER 6
M  POLY_LOWER 8
M  POLY_CHG 0
M  POLY_PROPERTIES ALPHA_AA D_AA PROTEIN AROMATIC POLYMER 
M  END

$$$$



 35 35  0  0  0  0  0  0  0  0999 V2000
   -1.8546    6.2099    1.7046 H   0  0  0  1  0  0  0  0  0  0  0  0
   -0.0820    5.5749    0.7857 C   0  0  0  1  0  0  0  0  0  0  0  0
   -1.4573    4.3062    2.3748 N   0  0  0  1  0  0  0  0  0  0  0  0
   -1.4870    5.2939    1.2913 C   0  0  0  1  0  0  0  0  0  0  0  0
    0.1682    6.5791    0.1219 O   0  0  0  1  0  0  0  0  0  0  0  0
    0.8437    4.6676    1.1095 N   0  0  0  1  0  0  0  0  0  0  0  0
   -1.8460    3.4172    2.2369 H   0  0  0  1  0  0  0  0  0  0  0  0
   -0.8959    4.6187    3.5611 C   0  0  0  1  0  0  0  0  0  0  0  0
    2.2050    4.7295    0.5988 C   0  0  0  1  0  0  0  0  0  0  0  0
   -1.0946    3.6595    4.7186 C   0  0  0  1  0  0  0  0  0  0  0  0
   -0.2426    5.6492    3.7021 O   0  0  0  1  0  0  0  0  0  0  0  0
    0.5974    3.9349    1.7119 H   0  0  0  1  0  0  0  0  0  0  0  0
    2.4288    5.7320    0.2990 H   0  0  0  1  0  0  0  0  0  0  0  0
    2.2999    4.0761   -0.2432 H   0  0  0  1  0  0  0  0  0  0  0  0
    2.8873    4.4260    1.3651 H   0  0  0  1  0  0  0  0  0  0  0  0
   -1.6412    4.1484    5.4978 H   0  0  0  1  0  0  0  0  0  0  0  0
   -0.1411    3.3496    5.0924 H   0  0  0  1  0  0  0  0  0  0  0  0
   -1.6417    2.8037    4.3823 H   0  0  0  1  0  0  0  0  0  0  0  0
   -2.4342    4.9142    0.1694 C   0  0  0  1  0  0  0  0  0  0  0  0
   -1.7493    4.1907   -0.9786 C   0  0  0  1  0  0  0  0  0  0  0  0
   -1.3870    5.0507   -2.1580 C   0  0  0  1  0  0  0  0  0  0  0  0
   -2.3177    5.2841   -3.1584 C   0  0  0  1  0  0  0  0  0  0  0  0
   -1.9825    6.0701   -4.2447 C   0  0  0  1  0  0  0  0  0  0  0  0
   -0.7172    6.6296   -4.3310 C   0  0  0  1  0  0  0  0  0  0  0  0
    0.2110    6.3971   -3.3336 C   0  0  0  1  0  0  0  0  0  0  0  0
   -0.1254    5.6086   -2.2442 C   0  0  0  1  0  0  0  0  0  0  0  0
   -2.8834    5.8072   -0.2122 H   0  0  0  1  0  0  0  0  0  0  0  0
   -3.1937    4.2748    0.5684 H   0  0  0  1  0  0  0  0  0  0  0  0
   -2.4069    3.4196   -1.3220 H   0  0  0  1  0  0  0  0  0  0  0  0
   -0.8495    3.7512   -0.6017 H   0  0  0  1  0  0  0  0  0  0  0  0
   -3.2683    4.8676   -3.0916 H   0  0  0  1  0  0  0  0  0  0  0  0
   -2.6795    6.2419   -4.9972 H   0  0  0  1  0  0  0  0  0  0  0  0
   -0.4662    7.2244   -5.1464 H   0  0  0  1  0  0  0  0  0  0  0  0
    1.1616    6.8135   -3.4005 H   0  0  0  1  0  0  0  0  0  0  0  0
    0.5716    5.4369   -1.4917 H   0  0  0  1  0  0  0  0  0  0  0  0
  1  4  1  0  0  0  0
  2  4  1  0  0  0  0
  2  5  2  0  0  0  0
  2  6  1  0  0  0  0
  3  4  1  0  0  0  0
  3  7  1  0  0  0  0
  3  8  1  0  0  0  0
  4 19  1  0  0  0  0
  6  9  1  0  0  0  0
  6 12  1  0  0  0  0
  8 10  1  0  0  0  0
  8 11  2  0  0  0  0
  9 13  1  0  0  0  0
  9 14  1  0  0  0  0
  9 15  1  0  0  0  0
 10 16  1  0  0  0  0
 10 17  1  0  0  0  0
 10 18  1  0  0  0  0
 19 20  1  0  0  0  0
 19 27  1  0  0  0  0
 19 28  1  0  0  0  0
 20 21  1  0  0  0  0
 20 29  1  0  0  0  0
 20 30  1  0  0  0  0
 21 22  4  0  0  0  0
 21 26  4  0  0  0  0
 22 23  4  0  0  0  0
 22 31  1  0  0  0  0
 23 24  4  0  0  0  0
 23 32  1  0  0  0  0
 24 25  4  0  0  0  0
 24 33  1  0  0  0  0
 25 26  4  0  0  0  0
 25 34  1  0  0  0  0
 26 35  1  0  0  0  0
M  END
> <BCLConfClusterSize>
1

> <ConfClashScore>
0 

> <ConfOneFourInteractionScore>
-0.95513 

> <ConfScore>
0.478908 

> <ConfScorePBest>
0.00242249 

> <ConfTolerance>
1.11001 

> <RosettaParamsInstructions>
M  ROOT 3
M  POLY_N_BB 3
M  POLY_CA_BB 4
M  POLY_C_BB 2
M  POLY_O_BB 5
M  POLY_IGNORE 9 10 11 12 13 14 15 16 17 18 
M  POLY_UPPER 6
M  POLY_LOWER 8
M  POLY_CHG 0
M  POLY_PROPERTIES ALPHA_AA D_AA PROTEIN AROMATIC POLYMER 
M  END

$$$$



 35 35  0  0  0  0  0  0  0  0999 V2000
   -4.0543    4.4201    1.5560 H   0  0  0  1  0  0  0  0  0  0  0  0
   -2.2306    3.4186    1.8718 C   0  0  0  1  0  0  0  0  0  0  0  0
   -4.1022    2.7535    0.2517 N   0  0  0  1  0  0  0  0  0  0  0  0
   -3.3554    3.8704    0.9608 C   0  0  0  1  0  0  0  0  0  0  0  0
   -1.6758    4.2122    2.6307 O   0  0  0  1  0  0  0  0  0  0  0  0
   -1.8597    2.1292    1.8249 N   0  0  0  1  0  0  0  0  0  0  0  0
   -4.0876    2.7497   -0.7282 H   0  0  0  1  0  0  0  0  0  0  0  0
   -4.7836    1.7674    0.8688 C   0  0  0  1  0  0  0  0  0  0  0  0
   -0.8704    1.5146    2.6974 C   0  0  0  1  0  0  0  0  0  0  0  0
   -4.8586    1.8645    2.3801 C   0  0  0  1  0  0  0  0  0  0  0  0
   -5.3290    0.8190    0.2476 O   0  0  0  1  0  0  0  0  0  0  0  0
   -2.2874    1.5589    1.1524 H   0  0  0  1  0  0  0  0  0  0  0  0
   -0.1350    2.2419    2.9717 H   0  0  0  1  0  0  0  0  0  0  0  0
   -0.3962    0.7045    2.1837 H   0  0  0  1  0  0  0  0  0  0  0  0
   -1.3525    1.1454    3.5785 H   0  0  0  1  0  0  0  0  0  0  0  0
   -4.1975    1.1458    2.8175 H   0  0  0  1  0  0  0  0  0  0  0  0
   -5.8605    1.6686    2.7006 H   0  0  0  1  0  0  0  0  0  0  0  0
   -4.5708    2.8478    2.6888 H   0  0  0  1  0  0  0  0  0  0  0  0
   -2.7972    4.8246   -0.0774 C   0  0  0  1  0  0  0  0  0  0  0  0
   -1.7496    4.1900   -0.9776 C   0  0  0  1  0  0  0  0  0  0  0  0
   -1.3870    5.0508   -2.1581 C   0  0  0  1  0  0  0  0  0  0  0  0
   -2.3176    5.2842   -3.1585 C   0  0  0  1  0  0  0  0  0  0  0  0
   -1.9825    6.0702   -4.2447 C   0  0  0  1  0  0  0  0  0  0  0  0
   -0.7171    6.6296   -4.3311 C   0  0  0  1  0  0  0  0  0  0  0  0
    0.2110    6.3971   -3.3337 C   0  0  0  1  0  0  0  0  0  0  0  0
   -0.1254    5.6087   -2.2443 C   0  0  0  1  0  0  0  0  0  0  0  0
   -2.3510    5.6545    0.4296 H   0  0  0  1  0  0  0  0  0  0  0  0
   -3.6043    5.1713   -0.6883 H   0  0  0  1  0  0  0  0  0  0  0  0
   -2.1312    3.2583   -1.3399 H   0  0  0  1  0  0  0  0  0  0  0  0
   -0.8661    4.0139   -0.4003 H   0  0  0  1  0  0  0  0  0  0  0  0
   -3.2683    4.8677   -3.0917 H   0  0  0  1  0  0  0  0  0  0  0  0
   -2.6795    6.2419   -4.9973 H   0  0  0  1  0  0  0  0  0  0  0  0
   -0.4662    7.2244   -5.1465 H   0  0  0  1  0  0  0  0  0  0  0  0
    1.1616    6.8136   -3.4006 H   0  0  0  1  0  0  0  0  0  0  0  0
    0.5716    5.4370   -1.4918 H   0  0  0  1  0  0  0  0  0  0  0  0
  1  4  1  0  0  0  0
  2  4  1  0  0  0  0
  2  5  2  0  0  0  0
  2  6  1  0  0  0  0
  3  4  1  0  0  0  0
  3  7  1  0  0  0  0
  3  8  1  0  0  0  0
  4 19  1  0  0  0  0
  6  9  1  0  0  0  0
  6 12  1  0  0  0  0
  8 10  1  0  0  0  0
  8 11  2  0  0  0  0
  9 13  1  0  0  0  0
  9 14  1  0  0  0  0
  9 15  1  0  0  0  0
 10 16  1  0  0  0  0
 10 17  1  0  0  0  0
 10 18  1  0  0  0  0
 19 20  1  0  0  0  0
 19 27  1  0  0  0  0
 19 28  1  0  0  0  0
 20 21  1  0  0  0  0
 20 29  1  0  0  0  0
 20 30  1  0  0  0  0
 21 22  4  0  0  0  0
 21 26  4  0  0  0  0
 22 23  4  0  0  0  0
 22 31  1  0  0  0  0
 23 24  4  0  0  0  0
 23 32  1  0  0  0  0
 24 25  4  0  0  0  0
 24 33  1  0  0  0  0
 25 26  4  0  0  0  0
 25 34  1  0  0  0  0
 26 35  1  0  0  0  0
M  END
> <BCLConfClusterSize>
1

> <ConfClashScore>
0 

> <ConfOneFourInteractionScore>
-0.968258 

> <ConfScore>
0.49603 

> <ConfScorePBest>
0.00239401 

> <ConfTolerance>
1.14418 

> <RosettaParamsInstructions>
M  ROOT 3
M  POLY_N_BB 3
M  POLY_CA_BB 4
M  POLY_C_BB 2
M  POLY_O_BB 5
M  POLY_IGNORE 9 10 11 12 13 14 15 16 17 18 
M  POLY_UPPER 6
M  POLY_LOWER 8
M  POLY_CHG 0
M  POLY_PROPERTIES ALPHA_AA D_AA PROTEIN AROMATIC POLYMER 
M  END

$$$$



 35 35  0  0  0  0  0  0  0  0999 V2000
    0.4729    3.2182   -0.6762 H   0  0  0  1  0  0  0  0  0  0  0  0
    0.4333    2.5637   -2.6786 C   0  0  0  1  0  0  0  0  0  0  0  0
    0.2441    1.1607   -0.6500 N   0  0  0  1  0  0  0  0  0  0  0  0
   -0.0441    2.4709   -1.2412 C   0  0  0  1  0  0  0  0  0  0  0  0
    1.6081    2.3419   -2.9689 O   0  0  0  1  0  0  0  0  0  0  0  0
   -0.4578    2.8922   -3.6154 N   0  0  0  1  0  0  0  0  0  0  0  0
   -0.4950    0.6388   -0.2737 H   0  0  0  1  0  0  0  0  0  0  0  0
    1.4809    0.6529   -0.6065 C   0  0  0  1  0  0  0  0  0  0  0  0
   -0.1684    3.0063   -5.0370 C   0  0  0  1  0  0  0  0  0  0  0  0
    1.6380   -0.6270    0.1830 C   0  0  0  1  0  0  0  0  0  0  0  0
    2.4424    1.1800   -1.1672 O   0  0  0  1  0  0  0  0  0  0  0  0
   -1.3765    3.0701   -3.3243 H   0  0  0  1  0  0  0  0  0  0  0  0
    0.4214    2.1701   -5.3497 H   0  0  0  1  0  0  0  0  0  0  0  0
    0.3720    3.9117   -5.2192 H   0  0  0  1  0  0  0  0  0  0  0  0
   -1.0859    3.0211   -5.5874 H   0  0  0  1  0  0  0  0  0  0  0  0
    1.0211   -0.5859    1.0563 H   0  0  0  1  0  0  0  0  0  0  0  0
    2.6610   -0.7428    0.4743 H   0  0  0  1  0  0  0  0  0  0  0  0
    1.3430   -1.4580   -0.4230 H   0  0  0  1  0  0  0  0  0  0  0  0
   -1.5347    2.7406   -1.1039 C   0  0  0  1  0  0  0  0  0  0  0  0
   -1.8014    4.2296   -0.9553 C   0  0  0  1  0  0  0  0  0  0  0  0
   -1.3727    5.0336   -2.1672 C   0  0  0  1  0  0  0  0  0  0  0  0
   -2.3083    5.2711   -3.1621 C   0  0  0  1  0  0  0  0  0  0  0  0
   -1.9813    6.0688   -4.2423 C   0  0  0  1  0  0  0  0  0  0  0  0
   -0.7193    6.6359   -4.3280 C   0  0  0  1  0  0  0  0  0  0  0  0
    0.2137    6.3993   -3.3361 C   0  0  0  1  0  0  0  0  0  0  0  0
   -0.1145    5.5991   -2.2528 C   0  0  0  1  0  0  0  0  0  0  0  0
   -1.9055    2.2298   -0.2399 H   0  0  0  1  0  0  0  0  0  0  0  0
   -2.0383    2.3793   -1.9761 H   0  0  0  1  0  0  0  0  0  0  0  0
   -1.2650    4.5881   -0.1017 H   0  0  0  1  0  0  0  0  0  0  0  0
   -2.8507    4.3743   -0.8044 H   0  0  0  1  0  0  0  0  0  0  0  0
   -3.2564    4.8488   -3.0957 H   0  0  0  1  0  0  0  0  0  0  0  0
   -2.6819    6.2437   -4.9907 H   0  0  0  1  0  0  0  0  0  0  0  0
   -0.4745    7.2395   -5.1388 H   0  0  0  1  0  0  0  0  0  0  0  0
    1.1618    6.8215   -3.4025 H   0  0  0  1  0  0  0  0  0  0  0  0
    0.5861    5.4243   -1.5044 H   0  0  0  1  0  0  0  0  0  0  0  0
  1  4  1  0  0  0  0
  2  4  1  0  0  0  0
  2  5  2  0  0  0  0
  2  6  1  0  0  0  0
  3  4  1  0  0  0  0
  3  7  1  0  0  0  0
  3  8  1  0  0  0  0
  4 19  1  0  0  0  0
  6  9  1  0  0  0  0
  6 12  1  0  0  0  0
  8 10  1  0  0  0  0
  8 11  2  0  0  0  0
  9 13  1  0  0  0  0
  9 14  1  0  0  0  0
  9 15  1  0  0  0  0
 10 16  1  0  0  0  0
 10 17  1  0  0  0  0
 10 18  1  0  0  0  0
 19 20  1  0  0  0  0
 19 27  1  0  0  0  0
 19 28  1  0  0  0  0
 20 21  1  0  0  0  0
 20 29  1  0  0  0  0
 20 30  1  0  0  0  0
 21 22  4  0  0  0  0
 21 26  4  0  0  0  0
 22 23  4  0  0  0  0
 22 31  1  0  0  0  0
 23 24  4  0  0  0  0
 23 32  1  0  0  0  0
 24 25  4  0  0  0  0
 24 33  1  0  0  0  0
 25 26  4  0  0  0  0
 25 34  1  0  0  0  0
 26 35  1  0  0  0  0
M  END
> <BCLConfClusterSize>
1

> <ConfClashScore>
0.00190263 

> <ConfOneFourInteractionScore>
-0.957049 

> <ConfScore>
0.496344 

> <ConfScorePBest>
0.00236553 

> <ConfTolerance>
1.25754 

> <RosettaParamsInstructions>
M  ROOT 3
M  POLY_N_BB 3
M  POLY_CA_BB 4
M  POLY_C_BB 2
M  POLY_O_BB 5
M  POLY_IGNORE 9 10 11 12 13 14 15 16 17 18 
M  POLY_UPPER 6
M  POLY_LOWER 8
M  POLY_CHG 0
M  POLY_PROPERTIES ALPHA_AA D_AA PROTEIN AROMATIC POLYMER 
M  END

$$$$



 35 35  0  0  0  0  0  0  0  0999 V2000
    0.5937    5.1171    0.1832 H   0  0  0  1  0  0  0  0  0  0  0  0
    0.2884    3.1643    0.8870 C   0  0  0  1  0  0  0  0  0  0  0  0
    0.0638    5.2998    2.1597 N   0  0  0  1  0  0  0  0  0  0  0  0
   -0.0710    4.6373    0.8709 C   0  0  0  1  0  0  0  0  0  0  0  0
    0.7615    2.6053   -0.1013 O   0  0  0  1  0  0  0  0  0  0  0  0
    0.0405    2.5612    2.0604 N   0  0  0  1  0  0  0  0  0  0  0  0
    0.0835    4.7531    2.9727 H   0  0  0  1  0  0  0  0  0  0  0  0
    0.1617    6.6274    2.2729 C   0  0  0  1  0  0  0  0  0  0  0  0
    0.2437    1.1340    2.2591 C   0  0  0  1  0  0  0  0  0  0  0  0
    0.4218    7.1519    3.6716 C   0  0  0  1  0  0  0  0  0  0  0  0
    0.0508    7.3901    1.3166 O   0  0  0  1  0  0  0  0  0  0  0  0
   -0.2888    3.1008    2.8092 H   0  0  0  1  0  0  0  0  0  0  0  0
    0.6491    0.9633    3.2345 H   0  0  0  1  0  0  0  0  0  0  0  0
    0.9244    0.7647    1.5207 H   0  0  0  1  0  0  0  0  0  0  0  0
   -0.6928    0.6245    2.1682 H   0  0  0  1  0  0  0  0  0  0  0  0
    1.0734    6.4796    4.1897 H   0  0  0  1  0  0  0  0  0  0  0  0
   -0.5047    7.2292    4.2013 H   0  0  0  1  0  0  0  0  0  0  0  0
    0.8802    8.1168    3.6110 H   0  0  0  1  0  0  0  0  0  0  0  0
   -1.4794    4.8649    0.3564 C   0  0  0  1  0  0  0  0  0  0  0  0
   -1.7496    4.1900   -0.9776 C   0  0  0  1  0  0  0  0  0  0  0  0
   -1.3870    5.0508   -2.1581 C   0  0  0  1  0  0  0  0  0  0  0  0
   -2.3176    5.2842   -3.1585 C   0  0  0  1  0  0  0  0  0  0  0  0
   -1.9825    6.0702   -4.2447 C   0  0  0  1  0  0  0  0  0  0  0  0
   -0.7171    6.6296   -4.3311 C   0  0  0  1  0  0  0  0  0  0  0  0
    0.2110    6.3971   -3.3337 C   0  0  0  1  0  0  0  0  0  0  0  0
   -0.1254    5.6087   -2.2443 C   0  0  0  1  0  0  0  0  0  0  0  0
   -1.6326    5.9176    0.2412 H   0  0  0  1  0  0  0  0  0  0  0  0
   -2.1703    4.4802    1.0773 H   0  0  0  1  0  0  0  0  0  0  0  0
   -2.7918    3.9545   -1.0352 H   0  0  0  1  0  0  0  0  0  0  0  0
   -1.1764    3.2878   -1.0251 H   0  0  0  1  0  0  0  0  0  0  0  0
   -3.2683    4.8677   -3.0917 H   0  0  0  1  0  0  0  0  0  0  0  0
   -2.6795    6.2419   -4.9973 H   0  0  0  1  0  0  0  0  0  0  0  0
   -0.4662    7.2244   -5.1465 H   0  0  0  1  0  0  0  0  0  0  0  0
    1.1616    6.8136   -3.4006 H   0  0  0  1  0  0  0  0  0  0  0  0
    0.5716    5.4370   -1.4918 H   0  0  0  1  0  0  0  0  0  0  0  0
  1  4  1  0  0  0  0
  2  4  1  0  0  0  0
  2  5  2  0  0  0  0
  2  6  1  0  0  0  0
  3  4  1  0  0  0  0
  3  7  1  0  0  0  0
  3  8  1  0  0  0  0
  4 19  1  0  0  0  0
  6  9  1  0  0  0  0
  6 12  1  0  0  0  0
  8 10  1  0  0  0  0
  8 11  2  0  0  0  0
  9 13  1  0  0  0  0
  9 14  1  0  0  0  0
  9 15  1  0  0  0  0
 10 16  1  0  0  0  0
 10 17  1  0  0  0  0
 10 18  1  0  0  0  0
 19 20  1  0  0  0  0
 19 27  1  0  0  0  0
 19 28  1  0  0  0  0
 20 21  1  0  0  0  0
 20 29  1  0  0  0  0
 20 30  1  0  0  0  0
 21 22  4  0  0  0  0
 21 26  4  0  0  0  0
 22 23  4  0  0  0  0
 22 31  1  0  0  0  0
 23 24  4  0  0  0  0
 23 32  1  0  0  0  0
 24 25  4  0  0  0  0
 24 33  1  0  0  0  0
 25 26  4  0  0  0  0
 25 34  1  0  0  0  0
 26 35  1  0  0  0  0
M  END
> <BCLConfClusterSize>
1

> <ConfClashScore>
0 

> <ConfOneFourInteractionScore>
-0.965125 

> <ConfScore>
0.511973 

> <ConfScorePBest>
0.00233705 

> <ConfTolerance>
1.20161 

> <RosettaParamsInstructions>
M  ROOT 3
M  POLY_N_BB 3
M  POLY_CA_BB 4
M  POLY_C_BB 2
M  POLY_O_BB 5
M  POLY_IGNORE 9 10 11 12 13 14 15 16 17 18 
M  POLY_UPPER 6
M  POLY_LOWER 8
M  POLY_CHG 0
M  POLY_PROPERTIES ALPHA_AA D_AA PROTEIN AROMATIC POLYMER 
M  END

$$$$



 35 35  0  0  0  0  0  0  0  0999 V2000
   -3.0771    3.9503    1.4432 H   0  0  0  1  0  0  0  0  0  0  0  0
   -1.7560    4.7668    2.8658 C   0  0  0  1  0  0  0  0  0  0  0  0
   -1.4412    2.6997    1.6299 N   0  0  0  1  0  0  0  0  0  0  0  0
   -2.0179    4.0372    1.5677 C   0  0  0  1  0  0  0  0  0  0  0  0
   -2.4514    5.7240    3.2030 O   0  0  0  1  0  0  0  0  0  0  0  0
   -0.7503    4.3417    3.6321 N   0  0  0  1  0  0  0  0  0  0  0  0
   -1.9365    2.0153    2.1265 H   0  0  0  1  0  0  0  0  0  0  0  0
   -0.2784    2.3337    1.0561 C   0  0  0  1  0  0  0  0  0  0  0  0
   -0.2676    5.0207    4.8254 C   0  0  0  1  0  0  0  0  0  0  0  0
    0.1206    0.8926    1.3464 C   0  0  0  1  0  0  0  0  0  0  0  0
    0.4185    3.0668    0.3594 O   0  0  0  1  0  0  0  0  0  0  0  0
   -0.3028    3.5096    3.3720 H   0  0  0  1  0  0  0  0  0  0  0  0
    0.7717    5.2479    4.7113 H   0  0  0  1  0  0  0  0  0  0  0  0
   -0.4023    4.3855    5.6759 H   0  0  0  1  0  0  0  0  0  0  0  0
   -0.8174    5.9277    4.9664 H   0  0  0  1  0  0  0  0  0  0  0  0
    0.1164    0.7269    2.4035 H   0  0  0  1  0  0  0  0  0  0  0  0
    1.1020    0.7099    0.9610 H   0  0  0  1  0  0  0  0  0  0  0  0
   -0.5761    0.2287    0.8788 H   0  0  0  1  0  0  0  0  0  0  0  0
   -1.4764    4.8062    0.3882 C   0  0  0  1  0  0  0  0  0  0  0  0
   -1.7496    4.1900   -0.9776 C   0  0  0  1  0  0  0  0  0  0  0  0
   -1.3870    5.0508   -2.1581 C   0  0  0  1  0  0  0  0  0  0  0  0
   -2.3176    5.2842   -3.1585 C   0  0  0  1  0  0  0  0  0  0  0  0
   -1.9825    6.0702   -4.2447 C   0  0  0  1  0  0  0  0  0  0  0  0
   -0.7171    6.6296   -4.3311 C   0  0  0  1  0  0  0  0  0  0  0  0
    0.2110    6.3971   -3.3337 C   0  0  0  1  0  0  0  0  0  0  0  0
   -0.1254    5.6087   -2.2443 C   0  0  0  1  0  0  0  0  0  0  0  0
   -0.4161    4.8879    0.5068 H   0  0  0  1  0  0  0  0  0  0  0  0
   -1.9136    5.7827    0.4026 H   0  0  0  1  0  0  0  0  0  0  0  0
   -2.7952    3.9709   -1.0377 H   0  0  0  1  0  0  0  0  0  0  0  0
   -1.1896    3.2809   -1.0476 H   0  0  0  1  0  0  0  0  0  0  0  0
   -3.2683    4.8677   -3.0917 H   0  0  0  1  0  0  0  0  0  0  0  0
   -2.6795    6.2419   -4.9973 H   0  0  0  1  0  0  0  0  0  0  0  0
   -0.4662    7.2244   -5.1465 H   0  0  0  1  0  0  0  0  0  0  0  0
    1.1616    6.8136   -3.4006 H   0  0  0  1  0  0  0  0  0  0  0  0
    0.5716    5.4370   -1.4918 H   0  0  0  1  0  0  0  0  0  0  0  0
  1  4  1  0  0  0  0
  2  4  1  0  0  0  0
  2  5  2  0  0  0  0
  2  6  1  0  0  0  0
  3  4  1  0  0  0  0
  3  7  1  0  0  0  0
  3  8  1  0  0  0  0
  4 19  1  0  0  0  0
  6  9  1  0  0  0  0
  6 12  1  0  0  0  0
  8 10  1  0  0  0  0
  8 11  2  0  0  0  0
  9 13  1  0  0  0  0
  9 14  1  0  0  0  0
  9 15  1  0  0  0  0
 10 16  1  0  0  0  0
 10 17  1  0  0  0  0
 10 18  1  0  0  0  0
 19 20  1  0  0  0  0
 19 27  1  0  0  0  0
 19 28  1  0  0  0  0
 20 21  1  0  0  0  0
 20 29  1  0  0  0  0
 20 30  1  0  0  0  0
 21 22  4  0  0  0  0
 21 26  4  0  0  0  0
 22 23  4  0  0  0  0
 22 31  1  0  0  0  0
 23 24  4  0  0  0  0
 23 32  1  0  0  0  0
 24 25  4  0  0  0  0
 24 33  1  0  0  0  0
 25 26  4  0  0  0  0
 25 34  1  0  0  0  0
 26 35  1  0  0  0  0
M  END
> <BCLConfClusterSize>
1

> <ConfClashScore>
0 

> <ConfOneFourInteractionScore>
-0.96913 

> <ConfScore>
0.513288 

> <ConfScorePBest>
0.00230857 

> <ConfTolerance>
1.07842 

> <RosettaParamsInstructions>
M  ROOT 3
M  POLY_N_BB 3
M  POLY_CA_BB 4
M  POLY_C_BB 2
M  POLY_O_BB 5
M  POLY_IGNORE 9 10 11 12 13 14 15 16 17 18 
M  POLY_UPPER 6
M  POLY_LOWER 8
M  POLY_CHG 0
M  POLY_PROPERTIES ALPHA_AA D_AA PROTEIN AROMATIC POLYMER 
M  END

$$$$



 35 35  0  0  0  0  0  0  0  0999 V2000
   -0.0779    2.1299   -1.4505 H   0  0  0  1  0  0  0  0  0  0  0  0
   -0.6243    2.2134   -3.4588 C   0  0  0  1  0  0  0  0  0  0  0  0
   -1.1853    0.4484   -1.8510 N   0  0  0  1  0  0  0  0  0  0  0  0
   -0.9571    1.8962   -2.0139 C   0  0  0  1  0  0  0  0  0  0  0  0
   -1.0242    3.2459   -3.9940 O   0  0  0  1  0  0  0  0  0  0  0  0
    0.1213    1.3057   -4.0955 N   0  0  0  1  0  0  0  0  0  0  0  0
   -0.6426   -0.0459   -1.2017 H   0  0  0  1  0  0  0  0  0  0  0  0
   -2.1141   -0.2185   -2.5637 C   0  0  0  1  0  0  0  0  0  0  0  0
    0.4339    1.4123   -5.5128 C   0  0  0  1  0  0  0  0  0  0  0  0
   -2.2393   -1.6811   -2.1840 C   0  0  0  1  0  0  0  0  0  0  0  0
   -2.8061    0.2768   -3.4386 O   0  0  0  1  0  0  0  0  0  0  0  0
    0.4697    0.5415   -3.5904 H   0  0  0  1  0  0  0  0  0  0  0  0
    0.6820    0.4452   -5.8975 H   0  0  0  1  0  0  0  0  0  0  0  0
    1.2652    2.0728   -5.6457 H   0  0  0  1  0  0  0  0  0  0  0  0
   -0.4156    1.7973   -6.0372 H   0  0  0  1  0  0  0  0  0  0  0  0
   -2.7414   -1.7641   -1.2428 H   0  0  0  1  0  0  0  0  0  0  0  0
   -1.2638   -2.1141   -2.1069 H   0  0  0  1  0  0  0  0  0  0  0  0
   -2.8009   -2.1973   -2.9343 H   0  0  0  1  0  0  0  0  0  0  0  0
   -2.0492    2.7261   -1.4303 C   0  0  0  1  0  0  0  0  0  0  0  0
   -1.7024    4.1419   -0.9889 C   0  0  0  1  0  0  0  0  0  0  0  0
   -1.4006    5.0689   -2.1500 C   0  0  0  1  0  0  0  0  0  0  0  0
   -2.3265    5.2981   -3.1559 C   0  0  0  1  0  0  0  0  0  0  0  0
   -1.9833    6.0722   -4.2481 C   0  0  0  1  0  0  0  0  0  0  0  0
   -0.7147    6.6240   -4.3351 C   0  0  0  1  0  0  0  0  0  0  0  0
    0.2087    6.3957   -3.3324 C   0  0  0  1  0  0  0  0  0  0  0  0
   -0.1357    5.6192   -2.2370 C   0  0  0  1  0  0  0  0  0  0  0  0
   -2.4222    2.2062   -0.5727 H   0  0  0  1  0  0  0  0  0  0  0  0
   -2.8219    2.8011   -2.1666 H   0  0  0  1  0  0  0  0  0  0  0  0
   -0.8419    4.0997   -0.3543 H   0  0  0  1  0  0  0  0  0  0  0  0
   -2.5308    4.5405   -0.4413 H   0  0  0  1  0  0  0  0  0  0  0  0
   -3.2796    4.8873   -3.0886 H   0  0  0  1  0  0  0  0  0  0  0  0
   -2.6767    6.2408   -5.0046 H   0  0  0  1  0  0  0  0  0  0  0  0
   -0.4577    7.2099   -5.1551 H   0  0  0  1  0  0  0  0  0  0  0  0
    1.1618    6.8064   -3.3997 H   0  0  0  1  0  0  0  0  0  0  0  0
    0.5578    5.4507   -1.4804 H   0  0  0  1  0  0  0  0  0  0  0  0
  1  4  1  0  0  0  0
  2  4  1  0  0  0  0
  2  5  2  0  0  0  0
  2  6  1  0  0  0  0
  3  4  1  0  0  0  0
  3  7  1  0  0  0  0
  3  8  1  0  0  0  0
  4 19  1  0  0  0  0
  6  9  1  0  0  0  0
  6 12  1  0  0  0  0
  8 10  1  0  0  0  0
  8 11  2  0  0  0  0
  9 13  1  0  0  0  0
  9 14  1  0  0  0  0
  9 15  1  0  0  0  0
 10 16  1  0  0  0  0
 10 17  1  0  0  0  0
 10 18  1  0  0  0  0
 19 20  1  0  0  0  0
 19 27  1  0  0  0  0
 19 28  1  0  0  0  0
 20 21  1  0  0  0  0
 20 29  1  0  0  0  0
 20 30  1  0  0  0  0
 21 22  4  0  0  0  0
 21 26  4  0  0  0  0
 22 23  4  0  0  0  0
 22 31  1  0  0  0  0
 23 24  4  0  0  0  0
 23 32  1  0  0  0  0
 24 25  4  0  0  0  0
 24 33  1  0  0  0  0
 25 26  4  0  0  0  0
 25 34  1  0  0  0  0
 26 35  1  0  0  0  0
M  END
> <BCLConfClusterSize>
1

> <ConfClashScore>
0 

> <ConfOneFourInteractionScore>
-0.968021 

> <ConfScore>
0.513807 

> <ConfScorePBest>
0.00228009 

> <ConfTolerance>
1.24642 

> <RosettaParamsInstructions>
M  ROOT 3
M  POLY_N_BB 3
M  POLY_CA_BB 4
M  POLY_C_BB 2
M  POLY_O_BB 5
M  POLY_IGNORE 9 10 11 12 13 14 15 16 17 18 
M  POLY_UPPER 6
M  POLY_LOWER 8
M  POLY_CHG 0
M  POLY_PROPERTIES ALPHA_AA D_AA PROTEIN AROMATIC POLYMER 
M  END

$$$$



 35 35  0  0  0  0  0  0  0  0999 V2000
   -3.1892    6.4190    1.2093 H   0  0  0  1  0  0  0  0  0  0  0  0
   -4.3917    5.0101    0.1850 C   0  0  0  1  0  0  0  0  0  0  0  0
   -3.0885    6.8498   -0.8113 N   0  0  0  1  0  0  0  0  0  0  0  0
   -3.1519    5.8895    0.2803 C   0  0  0  1  0  0  0  0  0  0  0  0
   -5.2636    5.2261   -0.6525 O   0  0  0  1  0  0  0  0  0  0  0  0
   -4.4594    4.0075    1.0614 N   0  0  0  1  0  0  0  0  0  0  0  0
   -3.7160    6.7586   -1.5586 H   0  0  0  1  0  0  0  0  0  0  0  0
   -2.2045    7.8515   -0.8302 C   0  0  0  1  0  0  0  0  0  0  0  0
   -5.5648    3.0643    1.1405 C   0  0  0  1  0  0  0  0  0  0  0  0
   -2.2108    8.7121   -2.0786 C   0  0  0  1  0  0  0  0  0  0  0  0
   -1.4286    8.0761    0.0949 O   0  0  0  1  0  0  0  0  0  0  0  0
   -3.7174    3.8988    1.6923 H   0  0  0  1  0  0  0  0  0  0  0  0
   -5.6752    2.7273    2.1501 H   0  0  0  1  0  0  0  0  0  0  0  0
   -5.3650    2.2268    0.5052 H   0  0  0  1  0  0  0  0  0  0  0  0
   -6.4669    3.5451    0.8246 H   0  0  0  1  0  0  0  0  0  0  0  0
   -2.5161    9.7060   -1.8257 H   0  0  0  1  0  0  0  0  0  0  0  0
   -2.8936    8.3002   -2.7921 H   0  0  0  1  0  0  0  0  0  0  0  0
   -1.2272    8.7375   -2.4990 H   0  0  0  1  0  0  0  0  0  0  0  0
   -1.8998    5.0337    0.2772 C   0  0  0  1  0  0  0  0  0  0  0  0
   -1.7493    4.1907   -0.9786 C   0  0  0  1  0  0  0  0  0  0  0  0
   -1.3870    5.0507   -2.1580 C   0  0  0  1  0  0  0  0  0  0  0  0
   -2.3177    5.2841   -3.1584 C   0  0  0  1  0  0  0  0  0  0  0  0
   -1.9825    6.0701   -4.2447 C   0  0  0  1  0  0  0  0  0  0  0  0
   -0.7172    6.6296   -4.3310 C   0  0  0  1  0  0  0  0  0  0  0  0
    0.2110    6.3971   -3.3336 C   0  0  0  1  0  0  0  0  0  0  0  0
   -0.1254    5.6086   -2.2442 C   0  0  0  1  0  0  0  0  0  0  0  0
   -1.9341    4.3793    1.1230 H   0  0  0  1  0  0  0  0  0  0  0  0
   -1.0489    5.6773    0.3577 H   0  0  0  1  0  0  0  0  0  0  0  0
   -2.6744    3.6918   -1.1792 H   0  0  0  1  0  0  0  0  0  0  0  0
   -0.9784    3.4650   -0.8236 H   0  0  0  1  0  0  0  0  0  0  0  0
   -3.2683    4.8676   -3.0916 H   0  0  0  1  0  0  0  0  0  0  0  0
   -2.6795    6.2419   -4.9972 H   0  0  0  1  0  0  0  0  0  0  0  0
   -0.4662    7.2244   -5.1464 H   0  0  0  1  0  0  0  0  0  0  0  0
    1.1616    6.8135   -3.4005 H   0  0  0  1  0  0  0  0  0  0  0  0
    0.5716    5.4369   -1.4917 H   0  0  0  1  0  0  0  0  0  0  0  0
  1  4  1  0  0  0  0
  2  4  1  0  0  0  0
  2  5  2  0  0  0  0
  2  6  1  0  0  0  0
  3  4  1  0  0  0  0
  3  7  1  0  0  0  0
  3  8  1  0  0  0  0
  4 19  1  0  0  0  0
  6  9  1  0  0  0  0
  6 12  1  0  0  0  0
  8 10  1  0  0  0  0
  8 11  2  0  0  0  0
  9 13  1  0  0  0  0
  9 14  1  0  0  0  0
  9 15  1  0  0  0  0
 10 16  1  0  0  0  0
 10 17  1  0  0  0  0
 10 18  1  0  0  0  0
 19 20  1  0  0  0  0
 19 27  1  0  0  0  0
 19 28  1  0  0  0  0
 20 21  1  0  0  0  0
 20 29  1  0  0  0  0
 20 30  1  0  0  0  0
 21 22  4  0  0  0  0
 21 26  4  0  0  0  0
 22 23  4  0  0  0  0
 22 31  1  0  0  0  0
 23 24  4  0  0  0  0
 23 32  1  0  0  0  0
 24 25  4  0  0  0  0
 24 33  1  0  0  0  0
 25 26  4  0  0  0  0
 25 34  1  0  0  0  0
 26 35  1  0  0  0  0
M  END
> <BCLConfClusterSize>
1

> <ConfClashScore>
0 

> <ConfOneFourInteractionScore>
-0.951876 

> <ConfScore>
0.5158 

> <ConfScorePBest>
0.00225161 

> <ConfTolerance>
1.42065 

> <RosettaParamsInstructions>
M  ROOT 3
M  POLY_N_BB 3
M  POLY_CA_BB 4
M  POLY_C_BB 2
M  POLY_O_BB 5
M  POLY_IGNORE 9 10 11 12 13 14 15 16 17 18 
M  POLY_UPPER 6
M  POLY_LOWER 8
M  POLY_CHG 0
M  POLY_PROPERTIES ALPHA_AA D_AA PROTEIN AROMATIC POLYMER 
M  END

$$$$



 35 35  0  0  0  0  0  0  0  0999 V2000
   -2.1996    4.4923    2.3747 H   0  0  0  1  0  0  0  0  0  0  0  0
   -0.8479    3.0041    1.7274 C   0  0  0  1  0  0  0  0  0  0  0  0
   -3.2564    3.1283    1.2299 N   0  0  0  1  0  0  0  0  0  0  0  0
   -2.0485    3.9016    1.4954 C   0  0  0  1  0  0  0  0  0  0  0  0
   -0.9836    1.8065    1.9632 O   0  0  0  1  0  0  0  0  0  0  0  0
    0.3433    3.6003    1.6576 N   0  0  0  1  0  0  0  0  0  0  0  0
   -3.1484    2.2486    0.8117 H   0  0  0  1  0  0  0  0  0  0  0  0
   -4.4944    3.5275    1.5128 C   0  0  0  1  0  0  0  0  0  0  0  0
    1.5812    2.9030    1.9729 C   0  0  0  1  0  0  0  0  0  0  0  0
   -4.6746    4.8597    2.2322 C   0  0  0  1  0  0  0  0  0  0  0  0
   -5.5045    2.8853    1.2284 O   0  0  0  1  0  0  0  0  0  0  0  0
    0.3864    4.5405    1.3846 H   0  0  0  1  0  0  0  0  0  0  0  0
    1.4954    1.8756    1.6864 H   0  0  0  1  0  0  0  0  0  0  0  0
    1.7675    2.9654    3.0247 H   0  0  0  1  0  0  0  0  0  0  0  0
    2.3909    3.3554    1.4393 H   0  0  0  1  0  0  0  0  0  0  0  0
   -5.6271    4.8766    2.7193 H   0  0  0  1  0  0  0  0  0  0  0  0
   -4.6233    5.6582    1.5218 H   0  0  0  1  0  0  0  0  0  0  0  0
   -3.8997    4.9792    2.9604 H   0  0  0  1  0  0  0  0  0  0  0  0
   -1.7836    4.8435    0.3367 C   0  0  0  1  0  0  0  0  0  0  0  0
   -1.7381    4.1427   -1.0113 C   0  0  0  1  0  0  0  0  0  0  0  0
   -1.3926    5.0693   -2.1462 C   0  0  0  1  0  0  0  0  0  0  0  0
   -2.3215    5.2960   -3.1498 C   0  0  0  1  0  0  0  0  0  0  0  0
   -1.9824    6.0699   -4.2436 C   0  0  0  1  0  0  0  0  0  0  0  0
   -0.7149    6.6237   -4.3344 C   0  0  0  1  0  0  0  0  0  0  0  0
    0.2115    6.3977   -3.3339 C   0  0  0  1  0  0  0  0  0  0  0  0
   -0.1288    5.6215   -2.2369 C   0  0  0  1  0  0  0  0  0  0  0  0
   -0.8427    5.3261    0.5001 H   0  0  0  1  0  0  0  0  0  0  0  0
   -2.5618    5.5774    0.3114 H   0  0  0  1  0  0  0  0  0  0  0  0
   -2.6984    3.7119   -1.2037 H   0  0  0  1  0  0  0  0  0  0  0  0
   -1.0013    3.3680   -0.9677 H   0  0  0  1  0  0  0  0  0  0  0  0
   -3.2737    4.8838   -3.0797 H   0  0  0  1  0  0  0  0  0  0  0  0
   -2.6781    6.2366   -4.9985 H   0  0  0  1  0  0  0  0  0  0  0  0
   -0.4610    7.2093   -5.1555 H   0  0  0  1  0  0  0  0  0  0  0  0
    1.1637    6.8099   -3.4040 H   0  0  0  1  0  0  0  0  0  0  0  0
    0.5669    5.4547   -1.4820 H   0  0  0  1  0  0  0  0  0  0  0  0
  1  4  1  0  0  0  0
  2  4  1  0  0  0  0
  2  5  2  0  0  0  0
  2  6  1  0  0  0  0
  3  4  1  0  0  0  0
  3  7  1  0  0  0  0
  3  8  1  0  0  0  0
  4 19  1  0  0  0  0
  6  9  1  0  0  0  0
  6 12  1  0  0  0  0
  8 10  1  0  0  0  0
  8 11  2  0  0  0  0
  9 13  1  0  0  0  0
  9 14  1  0  0  0  0
  9 15  1  0  0  0  0
 10 16  1  0  0  0  0
 10 17  1  0  0  0  0
 10 18  1  0  0  0  0
 19 20  1  0  0  0  0
 19 27  1  0  0  0  0
 19 28  1  0  0  0  0
 20 21  1  0  0  0  0
 20 29  1  0  0  0  0
 20 30  1  0  0  0  0
 21 22  4  0  0  0  0
 21 26  4  0  0  0  0
 22 23  4  0  0  0  0
 22 31  1  0  0  0  0
 23 24  4  0  0  0  0
 23 32  1  0  0  0  0
 24 25  4  0  0  0  0
 24 33  1  0  0  0  0
 25 26  4  0  0  0  0
 25 34  1  0  0  0  0
 26 35  1  0  0  0  0
M  END
> <BCLConfClusterSize>
1

> <ConfClashScore>
0 

> <ConfOneFourInteractionScore>
-0.951876 

> <ConfScore>
0.541187 

> <ConfScorePBest>
0.00222313 

> <ConfTolerance>
1.28386 

> <RosettaParamsInstructions>
M  ROOT 3
M  POLY_N_BB 3
M  POLY_CA_BB 4
M  POLY_C_BB 2
M  POLY_O_BB 5
M  POLY_IGNORE 9 10 11 12 13 14 15 16 17 18 
M  POLY_UPPER 6
M  POLY_LOWER 8
M  POLY_CHG 0
M  POLY_PROPERTIES ALPHA_AA D_AA PROTEIN AROMATIC POLYMER 
M  END

$$$$



 35 35  0  0  0  0  0  0  0  0999 V2000
    1.0073    3.7083   -1.2890 H   0  0  0  1  0  0  0  0  0  0  0  0
    1.3136    1.9326   -0.2141 C   0  0  0  1  0  0  0  0  0  0  0  0
    0.5299    4.1343    0.6632 N   0  0  0  1  0  0  0  0  0  0  0  0
    0.5404    3.2131   -0.4634 C   0  0  0  1  0  0  0  0  0  0  0  0
    0.8090    0.8270   -0.4051 O   0  0  0  1  0  0  0  0  0  0  0  0
    2.5606    2.1345    0.2211 N   0  0  0  1  0  0  0  0  0  0  0  0
    0.4204    5.0925    0.4896 H   0  0  0  1  0  0  0  0  0  0  0  0
    0.6646    3.7190    1.9259 C   0  0  0  1  0  0  0  0  0  0  0  0
    3.4960    1.0403    0.4347 C   0  0  0  1  0  0  0  0  0  0  0  0
    0.6324    4.8020    2.9805 C   0  0  0  1  0  0  0  0  0  0  0  0
    0.7974    2.6121    2.2106 O   0  0  0  1  0  0  0  0  0  0  0  0
    2.8555    3.0512    0.4027 H   0  0  0  1  0  0  0  0  0  0  0  0
    4.1687    0.9784   -0.3951 H   0  0  0  1  0  0  0  0  0  0  0  0
    2.9552    0.1214    0.5244 H   0  0  0  1  0  0  0  0  0  0  0  0
    4.0519    1.2167    1.3318 H   0  0  0  1  0  0  0  0  0  0  0  0
    0.2331    4.4034    3.8897 H   0  0  0  1  0  0  0  0  0  0  0  0
    0.0157    5.6090    2.6439 H   0  0  0  1  0  0  0  0  0  0  0  0
    1.6257    5.1599    3.1542 H   0  0  0  1  0  0  0  0  0  0  0  0
   -0.8934    2.9317   -0.8700 C   0  0  0  1  0  0  0  0  0  0  0  0
   -1.7496    4.1900   -0.9776 C   0  0  0  1  0  0  0  0  0  0  0  0
   -1.3870    5.0508   -2.1581 C   0  0  0  1  0  0  0  0  0  0  0  0
   -2.3176    5.2842   -3.1585 C   0  0  0  1  0  0  0  0  0  0  0  0
   -1.9825    6.0702   -4.2447 C   0  0  0  1  0  0  0  0  0  0  0  0
   -0.7171    6.6296   -4.3311 C   0  0  0  1  0  0  0  0  0  0  0  0
    0.2110    6.3971   -3.3337 C   0  0  0  1  0  0  0  0  0  0  0  0
   -0.1254    5.6087   -2.2443 C   0  0  0  1  0  0  0  0  0  0  0  0
   -1.3322    2.2842   -0.1399 H   0  0  0  1  0  0  0  0  0  0  0  0
   -0.8864    2.4436   -1.8221 H   0  0  0  1  0  0  0  0  0  0  0  0
   -1.6228    4.7656   -0.0846 H   0  0  0  1  0  0  0  0  0  0  0  0
   -2.7746    3.8975   -1.0715 H   0  0  0  1  0  0  0  0  0  0  0  0
   -3.2683    4.8677   -3.0917 H   0  0  0  1  0  0  0  0  0  0  0  0
   -2.6795    6.2419   -4.9973 H   0  0  0  1  0  0  0  0  0  0  0  0
   -0.4662    7.2244   -5.1465 H   0  0  0  1  0  0  0  0  0  0  0  0
    1.1616    6.8136   -3.4006 H   0  0  0  1  0  0  0  0  0  0  0  0
    0.5716    5.4370   -1.4918 H   0  0  0  1  0  0  0  0  0  0  0  0
  1  4  1  0  0  0  0
  2  4  1  0  0  0  0
  2  5  2  0  0  0  0
  2  6  1  0  0  0  0
  3  4  1  0  0  0  0
  3  7  1  0  0  0  0
  3  8  1  0  0  0  0
  4 19  1  0  0  0  0
  6  9  1  0  0  0  0
  6 12  1  0  0  0  0
  8 10  1  0  0  0  0
  8 11  2  0  0  0  0
  9 13  1  0  0  0  0
  9 14  1  0  0  0  0
  9 15  1  0  0  0  0
 10 16  1  0  0  0  0
 10 17  1  0  0  0  0
 10 18  1  0  0  0  0
 19 20  1  0  0  0  0
 19 27  1  0  0  0  0
 19 28  1  0  0  0  0
 20 21  1  0  0  0  0
 20 29  1  0  0  0  0
 20 30  1  0  0  0  0
 21 22  4  0  0  0  0
 21 26  4  0  0  0  0
 22 23  4  0  0  0  0
 22 31  1  0  0  0  0
 23 24  4  0  0  0  0
 23 32  1  0  0  0  0
 24 25  4  0  0  0  0
 24 33  1  0  0  0  0
 25 26  4  0  0  0  0
 25 34  1  0  0  0  0
 26 35  1  0  0  0  0
M  END
> <BCLConfClusterSize>
1

> <ConfClashScore>
0 

> <ConfOneFourInteractionScore>
-0.962094 

> <ConfScore>
0.582784 

> <ConfScorePBest>
0.00219465 

> <ConfTolerance>
1.71132 

> <RosettaParamsInstructions>
M  ROOT 3
M  POLY_N_BB 3
M  POLY_CA_BB 4
M  POLY_C_BB 2
M  POLY_O_BB 5
M  POLY_IGNORE 9 10 11 12 13 14 15 16 17 18 
M  POLY_UPPER 6
M  POLY_LOWER 8
M  POLY_CHG 0
M  POLY_PROPERTIES ALPHA_AA D_AA PROTEIN AROMATIC POLYMER 
M  END

$$$$



 35 35  0  0  0  0  0  0  0  0999 V2000
   -3.2177    3.1297    1.1804 H   0  0  0  1  0  0  0  0  0  0  0  0
   -3.5517    1.9351   -0.5215 C   0  0  0  1  0  0  0  0  0  0  0  0
   -5.1638    3.4643    0.5739 N   0  0  0  1  0  0  0  0  0  0  0  0
   -3.7530    3.2255    0.2589 C   0  0  0  1  0  0  0  0  0  0  0  0
   -2.4375    1.4220   -0.6158 O   0  0  0  1  0  0  0  0  0  0  0  0
   -4.6239    1.3754   -1.1023 N   0  0  0  1  0  0  0  0  0  0  0  0
   -5.5325    4.3625    0.4413 H   0  0  0  1  0  0  0  0  0  0  0  0
   -5.9659    2.4991    1.0363 C   0  0  0  1  0  0  0  0  0  0  0  0
   -4.5651    0.0755   -1.7540 C   0  0  0  1  0  0  0  0  0  0  0  0
   -7.3899    2.9179    1.3457 C   0  0  0  1  0  0  0  0  0  0  0  0
   -5.5907    1.3419    1.2058 O   0  0  0  1  0  0  0  0  0  0  0  0
   -5.4763    1.8588   -1.0872 H   0  0  0  1  0  0  0  0  0  0  0  0
   -4.2085    0.1939   -2.7558 H   0  0  0  1  0  0  0  0  0  0  0  0
   -5.5431   -0.3583   -1.7728 H   0  0  0  1  0  0  0  0  0  0  0  0
   -3.9007   -0.5649   -1.2124 H   0  0  0  1  0  0  0  0  0  0  0  0
   -8.0193    2.6874    0.5117 H   0  0  0  1  0  0  0  0  0  0  0  0
   -7.4189    3.9709    1.5337 H   0  0  0  1  0  0  0  0  0  0  0  0
   -7.7365    2.3911    2.2101 H   0  0  0  1  0  0  0  0  0  0  0  0
   -3.1714    4.4158   -0.4793 C   0  0  0  1  0  0  0  0  0  0  0  0
   -1.7517    4.1850   -0.9707 C   0  0  0  1  0  0  0  0  0  0  0  0
   -1.3868    5.0513   -2.1587 C   0  0  0  1  0  0  0  0  0  0  0  0
   -2.3175    5.2846   -3.1591 C   0  0  0  1  0  0  0  0  0  0  0  0
   -1.9823    6.0706   -4.2454 C   0  0  0  1  0  0  0  0  0  0  0  0
   -0.7170    6.6301   -4.3317 C   0  0  0  1  0  0  0  0  0  0  0  0
    0.2112    6.3976   -3.3343 C   0  0  0  1  0  0  0  0  0  0  0  0
   -0.1252    5.6092   -2.2449 C   0  0  0  1  0  0  0  0  0  0  0  0
   -3.1690    5.2570    0.1819 H   0  0  0  1  0  0  0  0  0  0  0  0
   -3.7927    4.6275   -1.3244 H   0  0  0  1  0  0  0  0  0  0  0  0
   -1.6523    3.1582   -1.2547 H   0  0  0  1  0  0  0  0  0  0  0  0
   -1.0750    4.4015   -0.1707 H   0  0  0  1  0  0  0  0  0  0  0  0
   -3.2681    4.8681   -3.0923 H   0  0  0  1  0  0  0  0  0  0  0  0
   -2.6793    6.2424   -4.9979 H   0  0  0  1  0  0  0  0  0  0  0  0
   -0.4660    7.2249   -5.1471 H   0  0  0  1  0  0  0  0  0  0  0  0
    1.1618    6.8141   -3.4012 H   0  0  0  1  0  0  0  0  0  0  0  0
    0.5718    5.4374   -1.4924 H   0  0  0  1  0  0  0  0  0  0  0  0
  1  4  1  0  0  0  0
  2  4  1  0  0  0  0
  2  5  2  0  0  0  0
  2  6  1  0  0  0  0
  3  4  1  0  0  0  0
  3  7  1  0  0  0  0
  3  8  1  0  0  0  0
  4 19  1  0  0  0  0
  6  9  1  0  0  0  0
  6 12  1  0  0  0  0
  8 10  1  0  0  0  0
  8 11  2  0  0  0  0
  9 13  1  0  0  0  0
  9 14  1  0  0  0  0
  9 15  1  0  0  0  0
 10 16  1  0  0  0  0
 10 17  1  0  0  0  0
 10 18  1  0  0  0  0
 19 20  1  0  0  0  0
 19 27  1  0  0  0  0
 19 28  1  0  0  0  0
 20 21  1  0  0  0  0
 20 29  1  0  0  0  0
 20 30  1  0  0  0  0
 21 22  4  0  0  0  0
 21 26  4  0  0  0  0
 22 23  4  0  0  0  0
 22 31  1  0  0  0  0
 23 24  4  0  0  0  0
 23 32  1  0  0  0  0
 24 25  4  0  0  0  0
 24 33  1  0  0  0  0
 25 26  4  0  0  0  0
 25 34  1  0  0  0  0
 26 35  1  0  0  0  0
M  END
> <BCLConfClusterSize>
1

> <ConfClashScore>
0 

> <ConfOneFourInteractionScore>
-0.960321 

> <ConfScore>
0.594568 

> <ConfScorePBest>
0.00216617 

> <ConfTolerance>
2.53628 

> <RosettaParamsInstructions>
M  ROOT 3
M  POLY_N_BB 3
M  POLY_CA_BB 4
M  POLY_C_BB 2
M  POLY_O_BB 5
M  POLY_IGNORE 9 10 11 12 13 14 15 16 17 18 
M  POLY_UPPER 6
M  POLY_LOWER 8
M  POLY_CHG 0
M  POLY_PROPERTIES ALPHA_AA D_AA PROTEIN AROMATIC POLYMER 
M  END

$$$$
