


 34 34  0  0  0  0  0  0  0  0999 V2000
   -0.2162    4.0715   -0.1900 H   0  0  0  1  0  0  0  0  0  0  0  0
   -2.2212    4.3273    0.4224 C   0  0  0  1  0  0  0  0  0  0  0  0
   -1.1422    5.1020   -1.7153 N   0  0  0  1  0  0  0  0  0  0  0  0
   -1.1749    4.0974   -0.6644 C   0  0  0  1  0  0  0  0  0  0  0  0
   -2.7705    5.4022    0.5811 O   0  0  0  1  0  0  0  0  0  0  0  0
   -2.5492    3.3183    1.2299 N   0  0  0  1  0  0  0  0  0  0  0  0
   -1.1514    4.8263   -2.6557 H   0  0  0  1  0  0  0  0  0  0  0  0
   -1.0997    6.3999   -1.4015 C   0  0  0  1  0  0  0  0  0  0  0  0
   -3.5243    3.4157    2.3041 C   0  0  0  1  0  0  0  0  0  0  0  0
   -1.0315    7.3592   -2.5739 C   0  0  0  1  0  0  0  0  0  0  0  0
   -1.1141    6.8065   -0.2499 O   0  0  0  1  0  0  0  0  0  0  0  0
   -2.1048    2.4560    1.0905 H   0  0  0  1  0  0  0  0  0  0  0  0
   -4.2259    4.1920    2.0804 H   0  0  0  1  0  0  0  0  0  0  0  0
   -3.0225    3.6425    3.2215 H   0  0  0  1  0  0  0  0  0  0  0  0
   -4.0421    2.4844    2.4010 H   0  0  0  1  0  0  0  0  0  0  0  0
   -0.9663    6.8040   -3.4863 H   0  0  0  1  0  0  0  0  0  0  0  0
   -0.1681    7.9833   -2.4739 H   0  0  0  1  0  0  0  0  0  0  0  0
   -1.9119    7.9671   -2.5887 H   0  0  0  1  0  0  0  0  0  0  0  0
   -1.4070    2.7308   -1.2954 C   0  0  0  1  0  0  0  0  0  0  0  0
   -2.7858    2.5764   -1.8760 C   0  0  0  1  0  0  0  0  0  0  0  0
   -3.0408    2.9857   -3.1713 C   0  0  0  1  0  0  0  0  0  0  0  0
   -4.3105    2.8382   -3.7077 C   0  0  0  1  0  0  0  0  0  0  0  0
   -5.3228    2.2867   -2.9452 C   0  0  0  1  0  0  0  0  0  0  0  0
   -5.0672    1.8762   -1.6461 C   0  0  0  1  0  0  0  0  0  0  0  0
   -3.8013    2.0233   -1.1115 C   0  0  0  1  0  0  0  0  0  0  0  0
   -6.6000    2.1650   -3.5408 N   0  0  0  1  0  0  0  0  0  0  0  0
   -1.2676    1.9810   -0.5448 H   0  0  0  1  0  0  0  0  0  0  0  0
   -0.6905    2.5907   -2.0776 H   0  0  0  1  0  0  0  0  0  0  0  0
   -2.2800    3.4043   -3.7436 H   0  0  0  1  0  0  0  0  0  0  0  0
   -4.5013    3.1425   -4.6837 H   0  0  0  1  0  0  0  0  0  0  0  0
   -5.8280    1.4576   -1.0738 H   0  0  0  1  0  0  0  0  0  0  0  0
   -3.6105    1.7190   -0.1355 H   0  0  0  1  0  0  0  0  0  0  0  0
   -7.2844    1.6025   -3.1219 H   0  0  0  1  0  0  0  0  0  0  0  0
   -6.8004    2.6432   -4.3724 H   0  0  0  1  0  0  0  0  0  0  0  0
  1  4  1  0  0  0  0
  2  4  1  0  0  0  0
  2  5  2  0  0  0  0
  2  6  1  0  0  0  0
  3  4  1  0  0  0  0
  3  7  1  0  0  0  0
  3  8  1  0  0  0  0
  4 19  1  0  0  0  0
  6  9  1  0  0  0  0
  6 12  1  0  0  0  0
  8 10  1  0  0  0  0
  8 11  2  0  0  0  0
  9 13  1  0  0  0  0
  9 14  1  0  0  0  0
  9 15  1  0  0  0  0
 10 16  1  0  0  0  0
 10 17  1  0  0  0  0
 10 18  1  0  0  0  0
 19 20  1  0  0  0  0
 19 27  1  0  0  0  0
 19 28  1  0  0  0  0
 20 21  4  0  0  0  0
 20 25  4  0  0  0  0
 21 22  4  0  0  0  0
 21 29  1  0  0  0  0
 22 23  4  0  0  0  0
 22 30  1  0  0  0  0
 23 24  4  0  0  0  0
 23 26  1  0  0  0  0
 24 25  4  0  0  0  0
 24 31  1  0  0  0  0
 25 32  1  0  0  0  0
 26 33  1  0  0  0  0
 26 34  1  0  0  0  0
M  END
> <BCLConfClusterSize>
1

> <ConfClashScore>
0 

> <ConfOneFourInteractionScore>
-0.982563 

> <ConfScore>
-0.197901 

> <ConfScorePBest>
0.00783383 

> <ConfTolerance>
0.182552 

> <RosettaParamsInstructions>
M  ROOT 3
M  POLY_N_BB 3
M  POLY_CA_BB 4
M  POLY_C_BB 2
M  POLY_O_BB 5
M  POLY_IGNORE 9 10 11 12 13 14 15 16 17 18 
M  POLY_UPPER 6
M  POLY_LOWER 8
M  POLY_CHG 0
M  POLY_PROPERTIES ALPHA_AA D_AA PROTEIN AROMATIC POLYMER 
M  END

$$$$



 34 34  0  0  0  0  0  0  0  0999 V2000
   -0.2232    4.2814   -0.4044 H   0  0  0  1  0  0  0  0  0  0  0  0
   -2.1587    4.5764    0.3710 C   0  0  0  1  0  0  0  0  0  0  0  0
   -1.3767    5.0979   -1.9096 N   0  0  0  1  0  0  0  0  0  0  0  0
   -1.2272    4.2046   -0.7663 C   0  0  0  1  0  0  0  0  0  0  0  0
   -2.4550    5.7515    0.5971 O   0  0  0  1  0  0  0  0  0  0  0  0
   -2.6279    3.5511    1.0994 N   0  0  0  1  0  0  0  0  0  0  0  0
   -1.5405    4.6896   -2.7852 H   0  0  0  1  0  0  0  0  0  0  0  0
   -1.3070    6.4309   -1.8529 C   0  0  0  1  0  0  0  0  0  0  0  0
   -3.5290    3.7457    2.2255 C   0  0  0  1  0  0  0  0  0  0  0  0
   -1.4060    7.1528   -3.1827 C   0  0  0  1  0  0  0  0  0  0  0  0
   -1.1724    7.0452   -0.8075 O   0  0  0  1  0  0  0  0  0  0  0  0
   -2.3542    2.6398    0.8648 H   0  0  0  1  0  0  0  0  0  0  0  0
   -2.9833    4.1447    3.0548 H   0  0  0  1  0  0  0  0  0  0  0  0
   -3.9618    2.8070    2.5021 H   0  0  0  1  0  0  0  0  0  0  0  0
   -4.3046    4.4284    1.9475 H   0  0  0  1  0  0  0  0  0  0  0  0
   -0.9809    6.5433   -3.9525 H   0  0  0  1  0  0  0  0  0  0  0  0
   -0.8729    8.0788   -3.1261 H   0  0  0  1  0  0  0  0  0  0  0  0
   -2.4341    7.3457   -3.4078 H   0  0  0  1  0  0  0  0  0  0  0  0
   -1.4342    2.7738   -1.2457 C   0  0  0  1  0  0  0  0  0  0  0  0
   -2.7837    2.5520   -1.8746 C   0  0  0  1  0  0  0  0  0  0  0  0
   -3.0182    3.0023   -3.1602 C   0  0  0  1  0  0  0  0  0  0  0  0
   -4.2808    2.8779   -3.7188 C   0  0  0  1  0  0  0  0  0  0  0  0
   -5.3065    2.3083   -2.9881 C   0  0  0  1  0  0  0  0  0  0  0  0
   -5.0714    1.8566   -1.6988 C   0  0  0  1  0  0  0  0  0  0  0  0
   -3.8126    1.9808   -1.1421 C   0  0  0  1  0  0  0  0  0  0  0  0
   -6.6145    2.1612   -3.5059 N   0  0  0  1  0  0  0  0  0  0  0  0
   -1.3371    2.1163   -0.4072 H   0  0  0  1  0  0  0  0  0  0  0  0
   -0.6796    2.5444   -1.9688 H   0  0  0  1  0  0  0  0  0  0  0  0
   -2.2474    3.4346   -3.7084 H   0  0  0  1  0  0  0  0  0  0  0  0
   -4.4562    3.2131   -4.6875 H   0  0  0  1  0  0  0  0  0  0  0  0
   -5.8422    1.4244   -1.1506 H   0  0  0  1  0  0  0  0  0  0  0  0
   -3.6372    1.6456   -0.1733 H   0  0  0  1  0  0  0  0  0  0  0  0
   -6.8235    2.4826   -4.4079 H   0  0  0  1  0  0  0  0  0  0  0  0
   -7.3118    1.7380   -2.9628 H   0  0  0  1  0  0  0  0  0  0  0  0
  1  4  1  0  0  0  0
  2  4  1  0  0  0  0
  2  5  2  0  0  0  0
  2  6  1  0  0  0  0
  3  4  1  0  0  0  0
  3  7  1  0  0  0  0
  3  8  1  0  0  0  0
  4 19  1  0  0  0  0
  6  9  1  0  0  0  0
  6 12  1  0  0  0  0
  8 10  1  0  0  0  0
  8 11  2  0  0  0  0
  9 13  1  0  0  0  0
  9 14  1  0  0  0  0
  9 15  1  0  0  0  0
 10 16  1  0  0  0  0
 10 17  1  0  0  0  0
 10 18  1  0  0  0  0
 19 20  1  0  0  0  0
 19 27  1  0  0  0  0
 19 28  1  0  0  0  0
 20 21  4  0  0  0  0
 20 25  4  0  0  0  0
 21 22  4  0  0  0  0
 21 29  1  0  0  0  0
 22 23  4  0  0  0  0
 22 30  1  0  0  0  0
 23 24  4  0  0  0  0
 23 26  1  0  0  0  0
 24 25  4  0  0  0  0
 24 31  1  0  0  0  0
 25 32  1  0  0  0  0
 26 33  1  0  0  0  0
 26 34  1  0  0  0  0
M  END
> <BCLConfClusterSize>
1

> <ConfClashScore>
0 

> <ConfOneFourInteractionScore>
-0.949142 

> <ConfScore>
-0.184704 

> <ConfScorePBest>
0.00780535 

> <ConfTolerance>
0.230116 

> <RosettaParamsInstructions>
M  ROOT 3
M  POLY_N_BB 3
M  POLY_CA_BB 4
M  POLY_C_BB 2
M  POLY_O_BB 5
M  POLY_IGNORE 9 10 11 12 13 14 15 16 17 18 
M  POLY_UPPER 6
M  POLY_LOWER 8
M  POLY_CHG 0
M  POLY_PROPERTIES ALPHA_AA D_AA PROTEIN AROMATIC POLYMER 
M  END

$$$$



 34 34  0  0  0  0  0  0  0  0999 V2000
   -0.2323    3.8638    0.0054 H   0  0  0  1  0  0  0  0  0  0  0  0
   -1.9394    3.4443    1.1233 C   0  0  0  1  0  0  0  0  0  0  0  0
   -1.7183    5.1158   -0.6578 N   0  0  0  1  0  0  0  0  0  0  0  0
   -1.2797    3.7848   -0.1988 C   0  0  0  1  0  0  0  0  0  0  0  0
   -2.3764    4.3174    1.8570 O   0  0  0  1  0  0  0  0  0  0  0  0
   -2.0065    2.1372    1.4220 N   0  0  0  1  0  0  0  0  0  0  0  0
   -2.1278    5.1992   -1.5442 H   0  0  0  1  0  0  0  0  0  0  0  0
   -1.5753    6.2228    0.1002 C   0  0  0  1  0  0  0  0  0  0  0  0
   -2.6091    1.6514    2.6544 C   0  0  0  1  0  0  0  0  0  0  0  0
   -1.9806    7.5550   -0.5000 C   0  0  0  1  0  0  0  0  0  0  0  0
   -1.1296    6.1560    1.2449 O   0  0  0  1  0  0  0  0  0  0  0  0
   -1.6368    1.4876    0.7882 H   0  0  0  1  0  0  0  0  0  0  0  0
   -3.3030    2.3776    3.0232 H   0  0  0  1  0  0  0  0  0  0  0  0
   -1.8443    1.4865    3.3843 H   0  0  0  1  0  0  0  0  0  0  0  0
   -3.1231    0.7329    2.4619 H   0  0  0  1  0  0  0  0  0  0  0  0
   -3.0269    7.5426   -0.7233 H   0  0  0  1  0  0  0  0  0  0  0  0
   -1.4262    7.7240   -1.3995 H   0  0  0  1  0  0  0  0  0  0  0  0
   -1.7746    8.3383    0.1991 H   0  0  0  1  0  0  0  0  0  0  0  0
   -1.4147    2.7145   -1.2695 C   0  0  0  1  0  0  0  0  0  0  0  0
   -2.7884    2.5701   -1.8679 C   0  0  0  1  0  0  0  0  0  0  0  0
   -3.0332    3.0149   -3.1534 C   0  0  0  1  0  0  0  0  0  0  0  0
   -4.2970    2.8769   -3.7059 C   0  0  0  1  0  0  0  0  0  0  0  0
   -5.3138    2.2993   -2.9691 C   0  0  0  1  0  0  0  0  0  0  0  0
   -5.0685    1.8532   -1.6798 C   0  0  0  1  0  0  0  0  0  0  0  0
   -3.8083    1.9909   -1.1292 C   0  0  0  1  0  0  0  0  0  0  0  0
   -6.6049    2.1633   -3.5308 N   0  0  0  1  0  0  0  0  0  0  0  0
   -1.1443    1.7755   -0.8335 H   0  0  0  1  0  0  0  0  0  0  0  0
   -0.7335    2.9506   -2.0601 H   0  0  0  1  0  0  0  0  0  0  0  0
   -2.2691    3.4532   -3.7063 H   0  0  0  1  0  0  0  0  0  0  0  0
   -4.4801    3.2079   -4.6747 H   0  0  0  1  0  0  0  0  0  0  0  0
   -5.8326    1.4149   -1.1269 H   0  0  0  1  0  0  0  0  0  0  0  0
   -3.6253    1.6598   -0.1604 H   0  0  0  1  0  0  0  0  0  0  0  0
   -6.7903    2.5196   -4.4247 H   0  0  0  1  0  0  0  0  0  0  0  0
   -7.3139    1.7129   -3.0260 H   0  0  0  1  0  0  0  0  0  0  0  0
  1  4  1  0  0  0  0
  2  4  1  0  0  0  0
  2  5  2  0  0  0  0
  2  6  1  0  0  0  0
  3  4  1  0  0  0  0
  3  7  1  0  0  0  0
  3  8  1  0  0  0  0
  4 19  1  0  0  0  0
  6  9  1  0  0  0  0
  6 12  1  0  0  0  0
  8 10  1  0  0  0  0
  8 11  2  0  0  0  0
  9 13  1  0  0  0  0
  9 14  1  0  0  0  0
  9 15  1  0  0  0  0
 10 16  1  0  0  0  0
 10 17  1  0  0  0  0
 10 18  1  0  0  0  0
 19 20  1  0  0  0  0
 19 27  1  0  0  0  0
 19 28  1  0  0  0  0
 20 21  4  0  0  0  0
 20 25  4  0  0  0  0
 21 22  4  0  0  0  0
 21 29  1  0  0  0  0
 22 23  4  0  0  0  0
 22 30  1  0  0  0  0
 23 24  4  0  0  0  0
 23 26  1  0  0  0  0
 24 25  4  0  0  0  0
 24 31  1  0  0  0  0
 25 32  1  0  0  0  0
 26 33  1  0  0  0  0
 26 34  1  0  0  0  0
M  END
> <BCLConfClusterSize>
1

> <ConfClashScore>
0 

> <ConfOneFourInteractionScore>
-0.95103 

> <ConfScore>
-0.172062 

> <ConfScorePBest>
0.00777687 

> <ConfTolerance>
0.225856 

> <RosettaParamsInstructions>
M  ROOT 3
M  POLY_N_BB 3
M  POLY_CA_BB 4
M  POLY_C_BB 2
M  POLY_O_BB 5
M  POLY_IGNORE 9 10 11 12 13 14 15 16 17 18 
M  POLY_UPPER 6
M  POLY_LOWER 8
M  POLY_CHG 0
M  POLY_PROPERTIES ALPHA_AA D_AA PROTEIN AROMATIC POLYMER 
M  END

$$$$



 34 34  0  0  0  0  0  0  0  0999 V2000
   -1.1302    0.7133   -0.7373 H   0  0  0  1  0  0  0  0  0  0  0  0
    0.7594    1.5710   -0.5573 C   0  0  0  1  0  0  0  0  0  0  0  0
   -0.3639    0.9021   -2.6324 N   0  0  0  1  0  0  0  0  0  0  0  0
   -0.5692    1.4470   -1.2775 C   0  0  0  1  0  0  0  0  0  0  0  0
    1.6825    0.7843   -0.7778 O   0  0  0  1  0  0  0  0  0  0  0  0
    0.8544    2.5816    0.3212 N   0  0  0  1  0  0  0  0  0  0  0  0
   -0.9220    0.1442   -2.9053 H   0  0  0  1  0  0  0  0  0  0  0  0
    0.5344    1.3685   -3.5246 C   0  0  0  1  0  0  0  0  0  0  0  0
    2.0052    2.7447    1.1970 C   0  0  0  1  0  0  0  0  0  0  0  0
    0.7254    0.5949   -4.8146 C   0  0  0  1  0  0  0  0  0  0  0  0
    1.1807    2.3910   -3.3004 O   0  0  0  1  0  0  0  0  0  0  0  0
    0.1234    3.2320    0.3748 H   0  0  0  1  0  0  0  0  0  0  0  0
    2.2570    3.7824    1.2663 H   0  0  0  1  0  0  0  0  0  0  0  0
    2.8366    2.2021    0.7979 H   0  0  0  1  0  0  0  0  0  0  0  0
    1.7681    2.3697    2.1707 H   0  0  0  1  0  0  0  0  0  0  0  0
    0.4825   -0.4346   -4.6531 H   0  0  0  1  0  0  0  0  0  0  0  0
    1.7444    0.6752   -5.1308 H   0  0  0  1  0  0  0  0  0  0  0  0
    0.0841    0.9980   -5.5703 H   0  0  0  1  0  0  0  0  0  0  0  0
   -1.4194    2.7139   -1.2682 C   0  0  0  1  0  0  0  0  0  0  0  0
   -2.7849    2.5791   -1.8872 C   0  0  0  1  0  0  0  0  0  0  0  0
   -3.0582    2.9971   -3.1759 C   0  0  0  1  0  0  0  0  0  0  0  0
   -4.3329    2.8443   -3.6987 C   0  0  0  1  0  0  0  0  0  0  0  0
   -5.3320    2.2787   -2.9291 C   0  0  0  1  0  0  0  0  0  0  0  0
   -5.0581    1.8594   -1.6366 C   0  0  0  1  0  0  0  0  0  0  0  0
   -3.7871    2.0119   -1.1155 C   0  0  0  1  0  0  0  0  0  0  0  0
   -6.5852    2.1755   -3.5508 N   0  0  0  1  0  0  0  0  0  0  0  0
   -0.8876    3.4722   -1.8039 H   0  0  0  1  0  0  0  0  0  0  0  0
   -1.5469    3.0183   -0.2504 H   0  0  0  1  0  0  0  0  0  0  0  0
   -2.3073    3.4263   -3.7535 H   0  0  0  1  0  0  0  0  0  0  0  0
   -4.5375    3.1551   -4.6698 H   0  0  0  1  0  0  0  0  0  0  0  0
   -5.8089    1.4302   -1.0590 H   0  0  0  1  0  0  0  0  0  0  0  0
   -3.5826    1.7010   -0.1444 H   0  0  0  1  0  0  0  0  0  0  0  0
   -7.3340    1.7564   -3.0775 H   0  0  0  1  0  0  0  0  0  0  0  0
   -6.7119    2.5225   -4.4585 H   0  0  0  1  0  0  0  0  0  0  0  0
  1  4  1  0  0  0  0
  2  4  1  0  0  0  0
  2  5  2  0  0  0  0
  2  6  1  0  0  0  0
  3  4  1  0  0  0  0
  3  7  1  0  0  0  0
  3  8  1  0  0  0  0
  4 19  1  0  0  0  0
  6  9  1  0  0  0  0
  6 12  1  0  0  0  0
  8 10  1  0  0  0  0
  8 11  2  0  0  0  0
  9 13  1  0  0  0  0
  9 14  1  0  0  0  0
  9 15  1  0  0  0  0
 10 16  1  0  0  0  0
 10 17  1  0  0  0  0
 10 18  1  0  0  0  0
 19 20  1  0  0  0  0
 19 27  1  0  0  0  0
 19 28  1  0  0  0  0
 20 21  4  0  0  0  0
 20 25  4  0  0  0  0
 21 22  4  0  0  0  0
 21 29  1  0  0  0  0
 22 23  4  0  0  0  0
 22 30  1  0  0  0  0
 23 24  4  0  0  0  0
 23 26  1  0  0  0  0
 24 25  4  0  0  0  0
 24 31  1  0  0  0  0
 25 32  1  0  0  0  0
 26 33  1  0  0  0  0
 26 34  1  0  0  0  0
M  END
> <BCLConfClusterSize>
1

> <ConfClashScore>
0 

> <ConfOneFourInteractionScore>
-0.933935 

> <ConfScore>
-0.121713 

> <ConfScorePBest>
0.00774839 

> <ConfTolerance>
0.197138 

> <RosettaParamsInstructions>
M  ROOT 3
M  POLY_N_BB 3
M  POLY_CA_BB 4
M  POLY_C_BB 2
M  POLY_O_BB 5
M  POLY_IGNORE 9 10 11 12 13 14 15 16 17 18 
M  POLY_UPPER 6
M  POLY_LOWER 8
M  POLY_CHG 0
M  POLY_PROPERTIES ALPHA_AA D_AA PROTEIN AROMATIC POLYMER 
M  END

$$$$



 34 34  0  0  0  0  0  0  0  0999 V2000
   -0.8251    0.7083   -1.4213 H   0  0  0  1  0  0  0  0  0  0  0  0
    0.9444    1.8084   -1.1472 C   0  0  0  1  0  0  0  0  0  0  0  0
   -0.3655    1.5884   -3.2238 N   0  0  0  1  0  0  0  0  0  0  0  0
   -0.4273    1.6381   -1.7707 C   0  0  0  1  0  0  0  0  0  0  0  0
    1.9570    1.3927   -1.7088 O   0  0  0  1  0  0  0  0  0  0  0  0
    0.9719    2.4374    0.0460 N   0  0  0  1  0  0  0  0  0  0  0  0
   -1.0091    1.0281   -3.7057 H   0  0  0  1  0  0  0  0  0  0  0  0
    0.5382    2.2801   -3.9237 C   0  0  0  1  0  0  0  0  0  0  0  0
    2.2026    2.4798    0.8215 C   0  0  0  1  0  0  0  0  0  0  0  0
    0.5243    2.0535   -5.4229 C   0  0  0  1  0  0  0  0  0  0  0  0
    1.3370    3.0546   -3.4036 O   0  0  0  1  0  0  0  0  0  0  0  0
    0.1613    2.8666    0.3913 H   0  0  0  1  0  0  0  0  0  0  0  0
    2.4500    1.4931    1.1532 H   0  0  0  1  0  0  0  0  0  0  0  0
    2.0675    3.1176    1.6699 H   0  0  0  1  0  0  0  0  0  0  0  0
    2.9953    2.8600    0.2115 H   0  0  0  1  0  0  0  0  0  0  0  0
   -0.3881    2.4331   -5.8332 H   0  0  0  1  0  0  0  0  0  0  0  0
    0.5973    1.0054   -5.6256 H   0  0  0  1  0  0  0  0  0  0  0  0
    1.3540    2.5620   -5.8680 H   0  0  0  1  0  0  0  0  0  0  0  0
   -1.3881    2.7418   -1.3185 C   0  0  0  1  0  0  0  0  0  0  0  0
   -2.7891    2.5707   -1.8680 C   0  0  0  1  0  0  0  0  0  0  0  0
   -3.0331    3.0008   -3.1586 C   0  0  0  1  0  0  0  0  0  0  0  0
   -4.2979    2.8610   -3.7085 C   0  0  0  1  0  0  0  0  0  0  0  0
   -5.3163    2.2963   -2.9641 C   0  0  0  1  0  0  0  0  0  0  0  0
   -5.0717    1.8648   -1.6697 C   0  0  0  1  0  0  0  0  0  0  0  0
   -3.8107    2.0043   -1.1216 C   0  0  0  1  0  0  0  0  0  0  0  0
   -6.6083    2.1586   -3.5232 N   0  0  0  1  0  0  0  0  0  0  0  0
   -1.0048    3.6840   -1.6505 H   0  0  0  1  0  0  0  0  0  0  0  0
   -1.4380    2.7331   -0.2497 H   0  0  0  1  0  0  0  0  0  0  0  0
   -2.2677    3.4294   -3.7173 H   0  0  0  1  0  0  0  0  0  0  0  0
   -4.4804    3.1811   -4.6811 H   0  0  0  1  0  0  0  0  0  0  0  0
   -5.8371    1.4362   -1.1110 H   0  0  0  1  0  0  0  0  0  0  0  0
   -3.6282    1.6842   -0.1491 H   0  0  0  1  0  0  0  0  0  0  0  0
   -7.3320    1.7638   -2.9933 H   0  0  0  1  0  0  0  0  0  0  0  0
   -6.7797    2.4580   -4.4405 H   0  0  0  1  0  0  0  0  0  0  0  0
  1  4  1  0  0  0  0
  2  4  1  0  0  0  0
  2  5  2  0  0  0  0
  2  6  1  0  0  0  0
  3  4  1  0  0  0  0
  3  7  1  0  0  0  0
  3  8  1  0  0  0  0
  4 19  1  0  0  0  0
  6  9  1  0  0  0  0
  6 12  1  0  0  0  0
  8 10  1  0  0  0  0
  8 11  2  0  0  0  0
  9 13  1  0  0  0  0
  9 14  1  0  0  0  0
  9 15  1  0  0  0  0
 10 16  1  0  0  0  0
 10 17  1  0  0  0  0
 10 18  1  0  0  0  0
 19 20  1  0  0  0  0
 19 27  1  0  0  0  0
 19 28  1  0  0  0  0
 20 21  4  0  0  0  0
 20 25  4  0  0  0  0
 21 22  4  0  0  0  0
 21 29  1  0  0  0  0
 22 23  4  0  0  0  0
 22 30  1  0  0  0  0
 23 24  4  0  0  0  0
 23 26  1  0  0  0  0
 24 25  4  0  0  0  0
 24 31  1  0  0  0  0
 25 32  1  0  0  0  0
 26 33  1  0  0  0  0
 26 34  1  0  0  0  0
M  END
> <BCLConfClusterSize>
1

> <ConfClashScore>
0 

> <ConfOneFourInteractionScore>
-0.933935 

> <ConfScore>
-0.107858 

> <ConfScorePBest>
0.00771991 

> <ConfTolerance>
0.192866 

> <RosettaParamsInstructions>
M  ROOT 3
M  POLY_N_BB 3
M  POLY_CA_BB 4
M  POLY_C_BB 2
M  POLY_O_BB 5
M  POLY_IGNORE 9 10 11 12 13 14 15 16 17 18 
M  POLY_UPPER 6
M  POLY_LOWER 8
M  POLY_CHG 0
M  POLY_PROPERTIES ALPHA_AA D_AA PROTEIN AROMATIC POLYMER 
M  END

$$$$



 34 34  0  0  0  0  0  0  0  0999 V2000
    0.4365    1.7193   -1.1293 H   0  0  0  1  0  0  0  0  0  0  0  0
   -0.4941    1.0921   -2.9186 C   0  0  0  1  0  0  0  0  0  0  0  0
   -1.0705    0.4341   -0.5575 N   0  0  0  1  0  0  0  0  0  0  0  0
   -0.5561    1.4697   -1.4412 C   0  0  0  1  0  0  0  0  0  0  0  0
    0.1431    1.7875   -3.7123 O   0  0  0  1  0  0  0  0  0  0  0  0
   -1.2294    0.0403   -3.3125 N   0  0  0  1  0  0  0  0  0  0  0  0
   -1.6690    0.7127    0.1668 H   0  0  0  1  0  0  0  0  0  0  0  0
   -0.7883   -0.8678   -0.6593 C   0  0  0  1  0  0  0  0  0  0  0  0
   -1.2162   -0.3797   -4.7058 C   0  0  0  1  0  0  0  0  0  0  0  0
   -1.5378   -1.7806    0.2915 C   0  0  0  1  0  0  0  0  0  0  0  0
    0.0179   -1.3121   -1.4600 O   0  0  0  1  0  0  0  0  0  0  0  0
   -1.7762   -0.4457   -2.6604 H   0  0  0  1  0  0  0  0  0  0  0  0
   -1.5512    0.4261   -5.3249 H   0  0  0  1  0  0  0  0  0  0  0  0
   -1.8671   -1.2197   -4.8310 H   0  0  0  1  0  0  0  0  0  0  0  0
   -0.2207   -0.6543   -4.9858 H   0  0  0  1  0  0  0  0  0  0  0  0
   -1.7178   -1.2667    1.2126 H   0  0  0  1  0  0  0  0  0  0  0  0
   -0.9526   -2.6563    0.4805 H   0  0  0  1  0  0  0  0  0  0  0  0
   -2.4718   -2.0631   -0.1475 H   0  0  0  1  0  0  0  0  0  0  0  0
   -1.4102    2.7211   -1.2843 C   0  0  0  1  0  0  0  0  0  0  0  0
   -2.7864    2.5737   -1.8763 C   0  0  0  1  0  0  0  0  0  0  0  0
   -3.0357    3.0094   -3.1640 C   0  0  0  1  0  0  0  0  0  0  0  0
   -4.3019    2.8686   -3.7105 C   0  0  0  1  0  0  0  0  0  0  0  0
   -5.3163    2.2973   -2.9656 C   0  0  0  1  0  0  0  0  0  0  0  0
   -5.0663    1.8603   -1.6741 C   0  0  0  1  0  0  0  0  0  0  0  0
   -3.8039    2.0008   -1.1293 C   0  0  0  1  0  0  0  0  0  0  0  0
   -6.6052    2.1590   -3.5192 N   0  0  0  1  0  0  0  0  0  0  0  0
   -0.9150    3.5347   -1.7719 H   0  0  0  1  0  0  0  0  0  0  0  0
   -1.5095    2.9370   -0.2410 H   0  0  0  1  0  0  0  0  0  0  0  0
   -2.2734    3.4429   -3.7230 H   0  0  0  1  0  0  0  0  0  0  0  0
   -4.4885    3.1928   -4.6809 H   0  0  0  1  0  0  0  0  0  0  0  0
   -5.8286    1.4268   -1.1150 H   0  0  0  1  0  0  0  0  0  0  0  0
   -3.6173    1.6766   -0.1589 H   0  0  0  1  0  0  0  0  0  0  0  0
   -7.3457    1.8388   -2.9629 H   0  0  0  1  0  0  0  0  0  0  0  0
   -6.7607    2.3831   -4.4605 H   0  0  0  1  0  0  0  0  0  0  0  0
  1  4  1  0  0  0  0
  2  4  1  0  0  0  0
  2  5  2  0  0  0  0
  2  6  1  0  0  0  0
  3  4  1  0  0  0  0
  3  7  1  0  0  0  0
  3  8  1  0  0  0  0
  4 19  1  0  0  0  0
  6  9  1  0  0  0  0
  6 12  1  0  0  0  0
  8 10  1  0  0  0  0
  8 11  2  0  0  0  0
  9 13  1  0  0  0  0
  9 14  1  0  0  0  0
  9 15  1  0  0  0  0
 10 16  1  0  0  0  0
 10 17  1  0  0  0  0
 10 18  1  0  0  0  0
 19 20  1  0  0  0  0
 19 27  1  0  0  0  0
 19 28  1  0  0  0  0
 20 21  4  0  0  0  0
 20 25  4  0  0  0  0
 21 22  4  0  0  0  0
 21 29  1  0  0  0  0
 22 23  4  0  0  0  0
 22 30  1  0  0  0  0
 23 24  4  0  0  0  0
 23 26  1  0  0  0  0
 24 25  4  0  0  0  0
 24 31  1  0  0  0  0
 25 32  1  0  0  0  0
 26 33  1  0  0  0  0
 26 34  1  0  0  0  0
M  END
> <BCLConfClusterSize>
1

> <ConfClashScore>
0 

> <ConfOneFourInteractionScore>
-0.957074 

> <ConfScore>
-0.102841 

> <ConfScorePBest>
0.00769143 

> <ConfTolerance>
0.172646 

> <RosettaParamsInstructions>
M  ROOT 3
M  POLY_N_BB 3
M  POLY_CA_BB 4
M  POLY_C_BB 2
M  POLY_O_BB 5
M  POLY_IGNORE 9 10 11 12 13 14 15 16 17 18 
M  POLY_UPPER 6
M  POLY_LOWER 8
M  POLY_CHG 0
M  POLY_PROPERTIES ALPHA_AA D_AA PROTEIN AROMATIC POLYMER 
M  END

$$$$



 34 34  0  0  0  0  0  0  0  0999 V2000
   -1.0267    0.6744   -1.6129 H   0  0  0  1  0  0  0  0  0  0  0  0
    0.7275    1.5499   -0.8464 C   0  0  0  1  0  0  0  0  0  0  0  0
   -0.2213    1.7740   -3.1622 N   0  0  0  1  0  0  0  0  0  0  0  0
   -0.4965    1.5950   -1.7410 C   0  0  0  1  0  0  0  0  0  0  0  0
    0.6345    1.7042    0.3731 O   0  0  0  1  0  0  0  0  0  0  0  0
    1.8971    1.3337   -1.4688 N   0  0  0  1  0  0  0  0  0  0  0  0
   -0.4533    2.6375   -3.5633 H   0  0  0  1  0  0  0  0  0  0  0  0
    0.3279    0.8417   -3.9649 C   0  0  0  1  0  0  0  0  0  0  0  0
    3.1197    1.0268   -0.7414 C   0  0  0  1  0  0  0  0  0  0  0  0
    0.4779    1.2899   -5.4057 C   0  0  0  1  0  0  0  0  0  0  0  0
    0.6844   -0.2747   -3.5976 O   0  0  0  1  0  0  0  0  0  0  0  0
    1.9288    1.3843   -2.4470 H   0  0  0  1  0  0  0  0  0  0  0  0
    3.0496    1.4131    0.2540 H   0  0  0  1  0  0  0  0  0  0  0  0
    3.9532    1.4756   -1.2400 H   0  0  0  1  0  0  0  0  0  0  0  0
    3.2550   -0.0339   -0.7034 H   0  0  0  1  0  0  0  0  0  0  0  0
    1.0670    0.5759   -5.9424 H   0  0  0  1  0  0  0  0  0  0  0  0
    0.9614    2.2440   -5.4336 H   0  0  0  1  0  0  0  0  0  0  0  0
   -0.4889    1.3661   -5.8578 H   0  0  0  1  0  0  0  0  0  0  0  0
   -1.4152    2.7185   -1.2702 C   0  0  0  1  0  0  0  0  0  0  0  0
   -2.7865    2.5752   -1.8743 C   0  0  0  1  0  0  0  0  0  0  0  0
   -3.0196    2.9986   -3.1692 C   0  0  0  1  0  0  0  0  0  0  0  0
   -4.2813    2.8615   -3.7268 C   0  0  0  1  0  0  0  0  0  0  0  0
   -5.3075    2.3062   -2.9859 C   0  0  0  1  0  0  0  0  0  0  0  0
   -5.0738    1.8815   -1.6873 C   0  0  0  1  0  0  0  0  0  0  0  0
   -3.8158    2.0183   -1.1315 C   0  0  0  1  0  0  0  0  0  0  0  0
   -6.6147    2.1472   -3.5024 N   0  0  0  1  0  0  0  0  0  0  0  0
   -0.9986    3.6590   -1.5647 H   0  0  0  1  0  0  0  0  0  0  0  0
   -1.4960    2.6819   -0.2038 H   0  0  0  1  0  0  0  0  0  0  0  0
   -2.2484    3.4201   -3.7252 H   0  0  0  1  0  0  0  0  0  0  0  0
   -4.4557    3.1764   -4.7025 H   0  0  0  1  0  0  0  0  0  0  0  0
   -5.8450    1.4600   -1.1313 H   0  0  0  1  0  0  0  0  0  0  0  0
   -3.6415    1.7033   -0.1557 H   0  0  0  1  0  0  0  0  0  0  0  0
   -7.2863    1.6492   -2.9912 H   0  0  0  1  0  0  0  0  0  0  0  0
   -6.8487    2.5351   -4.3714 H   0  0  0  1  0  0  0  0  0  0  0  0
  1  4  1  0  0  0  0
  2  4  1  0  0  0  0
  2  5  2  0  0  0  0
  2  6  1  0  0  0  0
  3  4  1  0  0  0  0
  3  7  1  0  0  0  0
  3  8  1  0  0  0  0
  4 19  1  0  0  0  0
  6  9  1  0  0  0  0
  6 12  1  0  0  0  0
  8 10  1  0  0  0  0
  8 11  2  0  0  0  0
  9 13  1  0  0  0  0
  9 14  1  0  0  0  0
  9 15  1  0  0  0  0
 10 16  1  0  0  0  0
 10 17  1  0  0  0  0
 10 18  1  0  0  0  0
 19 20  1  0  0  0  0
 19 27  1  0  0  0  0
 19 28  1  0  0  0  0
 20 21  4  0  0  0  0
 20 25  4  0  0  0  0
 21 22  4  0  0  0  0
 21 29  1  0  0  0  0
 22 23  4  0  0  0  0
 22 30  1  0  0  0  0
 23 24  4  0  0  0  0
 23 26  1  0  0  0  0
 24 25  4  0  0  0  0
 24 31  1  0  0  0  0
 25 32  1  0  0  0  0
 26 33  1  0  0  0  0
 26 34  1  0  0  0  0
M  END
> <BCLConfClusterSize>
1

> <ConfClashScore>
0 

> <ConfOneFourInteractionScore>
-0.956443 

> <ConfScore>
-0.0973189 

> <ConfScorePBest>
0.00766295 

> <ConfTolerance>
0.244779 

> <RosettaParamsInstructions>
M  ROOT 3
M  POLY_N_BB 3
M  POLY_CA_BB 4
M  POLY_C_BB 2
M  POLY_O_BB 5
M  POLY_IGNORE 9 10 11 12 13 14 15 16 17 18 
M  POLY_UPPER 6
M  POLY_LOWER 8
M  POLY_CHG 0
M  POLY_PROPERTIES ALPHA_AA D_AA PROTEIN AROMATIC POLYMER 
M  END

$$$$



 34 34  0  0  0  0  0  0  0  0999 V2000
   -0.2601    4.1074   -0.1927 H   0  0  0  1  0  0  0  0  0  0  0  0
   -2.1604    4.1972    0.6834 C   0  0  0  1  0  0  0  0  0  0  0  0
   -1.4768    5.1702   -1.4752 N   0  0  0  1  0  0  0  0  0  0  0  0
   -1.2707    4.0486   -0.5393 C   0  0  0  1  0  0  0  0  0  0  0  0
   -2.4412    5.2963    1.1323 O   0  0  0  1  0  0  0  0  0  0  0  0
   -2.6060    3.0523    1.2227 N   0  0  0  1  0  0  0  0  0  0  0  0
   -0.7789    5.3374   -2.1426 H   0  0  0  1  0  0  0  0  0  0  0  0
   -2.5535    5.9831   -1.4814 C   0  0  0  1  0  0  0  0  0  0  0  0
   -3.4654    2.9619    2.3937 C   0  0  0  1  0  0  0  0  0  0  0  0
   -2.4844    7.2514   -2.3095 C   0  0  0  1  0  0  0  0  0  0  0  0
   -3.5612    5.7062   -0.8362 O   0  0  0  1  0  0  0  0  0  0  0  0
   -2.3321    2.2137    0.7959 H   0  0  0  1  0  0  0  0  0  0  0  0
   -2.9276    2.5029    3.1968 H   0  0  0  1  0  0  0  0  0  0  0  0
   -4.3269    2.3724    2.1589 H   0  0  0  1  0  0  0  0  0  0  0  0
   -3.7734    3.9439    2.6863 H   0  0  0  1  0  0  0  0  0  0  0  0
   -3.3774    7.8225   -2.1634 H   0  0  0  1  0  0  0  0  0  0  0  0
   -2.3896    6.9966   -3.3444 H   0  0  0  1  0  0  0  0  0  0  0  0
   -1.6375    7.8301   -2.0051 H   0  0  0  1  0  0  0  0  0  0  0  0
   -1.4058    2.7164   -1.2651 C   0  0  0  1  0  0  0  0  0  0  0  0
   -2.7893    2.5706   -1.8680 C   0  0  0  1  0  0  0  0  0  0  0  0
   -3.0326    3.0103   -3.1555 C   0  0  0  1  0  0  0  0  0  0  0  0
   -4.2964    2.8719   -3.7081 C   0  0  0  1  0  0  0  0  0  0  0  0
   -5.3144    2.2989   -2.9695 C   0  0  0  1  0  0  0  0  0  0  0  0
   -5.0705    1.8578   -1.6782 C   0  0  0  1  0  0  0  0  0  0  0  0
   -3.8105    1.9959   -1.1274 C   0  0  0  1  0  0  0  0  0  0  0  0
   -6.6054    2.1626   -3.5314 N   0  0  0  1  0  0  0  0  0  0  0  0
   -1.2403    1.9198   -0.5701 H   0  0  0  1  0  0  0  0  0  0  0  0
   -0.6759    2.6666   -2.0459 H   0  0  0  1  0  0  0  0  0  0  0  0
   -2.2675    3.4451   -3.7098 H   0  0  0  1  0  0  0  0  0  0  0  0
   -4.4784    3.1991   -4.6784 H   0  0  0  1  0  0  0  0  0  0  0  0
   -5.8356    1.4231   -1.1240 H   0  0  0  1  0  0  0  0  0  0  0  0
   -3.6285    1.6687   -0.1572 H   0  0  0  1  0  0  0  0  0  0  0  0
   -6.7750    2.4637   -4.4484 H   0  0  0  1  0  0  0  0  0  0  0  0
   -7.3302    1.7670   -3.0036 H   0  0  0  1  0  0  0  0  0  0  0  0
  1  4  1  0  0  0  0
  2  4  1  0  0  0  0
  2  5  2  0  0  0  0
  2  6  1  0  0  0  0
  3  4  1  0  0  0  0
  3  7  1  0  0  0  0
  3  8  1  0  0  0  0
  4 19  1  0  0  0  0
  6  9  1  0  0  0  0
  6 12  1  0  0  0  0
  8 10  1  0  0  0  0
  8 11  2  0  0  0  0
  9 13  1  0  0  0  0
  9 14  1  0  0  0  0
  9 15  1  0  0  0  0
 10 16  1  0  0  0  0
 10 17  1  0  0  0  0
 10 18  1  0  0  0  0
 19 20  1  0  0  0  0
 19 27  1  0  0  0  0
 19 28  1  0  0  0  0
 20 21  4  0  0  0  0
 20 25  4  0  0  0  0
 21 22  4  0  0  0  0
 21 29  1  0  0  0  0
 22 23  4  0  0  0  0
 22 30  1  0  0  0  0
 23 24  4  0  0  0  0
 23 26  1  0  0  0  0
 24 25  4  0  0  0  0
 24 31  1  0  0  0  0
 25 32  1  0  0  0  0
 26 33  1  0  0  0  0
 26 34  1  0  0  0  0
M  END
> <BCLConfClusterSize>
1

> <ConfClashScore>
0.000359369 

> <ConfOneFourInteractionScore>
-0.924221 

> <ConfScore>
-0.0923246 

> <ConfScorePBest>
0.00763447 

> <ConfTolerance>
0.180059 

> <RosettaParamsInstructions>
M  ROOT 3
M  POLY_N_BB 3
M  POLY_CA_BB 4
M  POLY_C_BB 2
M  POLY_O_BB 5
M  POLY_IGNORE 9 10 11 12 13 14 15 16 17 18 
M  POLY_UPPER 6
M  POLY_LOWER 8
M  POLY_CHG 0
M  POLY_PROPERTIES ALPHA_AA D_AA PROTEIN AROMATIC POLYMER 
M  END

$$$$



 34 34  0  0  0  0  0  0  0  0999 V2000
   -1.8032    4.7442   -0.9863 H   0  0  0  1  0  0  0  0  0  0  0  0
    0.0975    4.4453   -0.1629 C   0  0  0  1  0  0  0  0  0  0  0  0
   -2.1004    3.8164    0.8262 N   0  0  0  1  0  0  0  0  0  0  0  0
   -1.3249    3.9810   -0.4086 C   0  0  0  1  0  0  0  0  0  0  0  0
    0.4245    4.9642    0.9036 O   0  0  0  1  0  0  0  0  0  0  0  0
    0.9532    4.2528   -1.1708 N   0  0  0  1  0  0  0  0  0  0  0  0
   -2.9843    4.2317    0.9075 H   0  0  0  1  0  0  0  0  0  0  0  0
   -1.6057    3.1039    1.8364 C   0  0  0  1  0  0  0  0  0  0  0  0
    2.3370    4.6995   -1.1118 C   0  0  0  1  0  0  0  0  0  0  0  0
   -2.5100    2.9442    3.0615 C   0  0  0  1  0  0  0  0  0  0  0  0
   -0.4977    2.5699    1.8680 O   0  0  0  1  0  0  0  0  0  0  0  0
    0.6379    3.7949   -1.9778 H   0  0  0  1  0  0  0  0  0  0  0  0
    2.6323    5.0747   -2.0693 H   0  0  0  1  0  0  0  0  0  0  0  0
    2.9658    3.8769   -0.8419 H   0  0  0  1  0  0  0  0  0  0  0  0
    2.4302    5.4752   -0.3808 H   0  0  0  1  0  0  0  0  0  0  0  0
   -3.4487    3.4235    2.8773 H   0  0  0  1  0  0  0  0  0  0  0  0
   -2.0410    3.3938    3.9117 H   0  0  0  1  0  0  0  0  0  0  0  0
   -2.6722    1.9038    3.2516 H   0  0  0  1  0  0  0  0  0  0  0  0
   -1.4221    2.6959   -1.2253 C   0  0  0  1  0  0  0  0  0  0  0  0
   -2.7859    2.5748   -1.8766 C   0  0  0  1  0  0  0  0  0  0  0  0
   -3.0335    3.0141   -3.1634 C   0  0  0  1  0  0  0  0  0  0  0  0
   -4.2987    2.8740   -3.7124 C   0  0  0  1  0  0  0  0  0  0  0  0
   -5.3138    2.2997   -2.9709 C   0  0  0  1  0  0  0  0  0  0  0  0
   -5.0657    1.8590   -1.6802 C   0  0  0  1  0  0  0  0  0  0  0  0
   -3.8043    1.9988   -1.1330 C   0  0  0  1  0  0  0  0  0  0  0  0
   -6.6062    2.1616   -3.5290 N   0  0  0  1  0  0  0  0  0  0  0  0
   -1.2660    1.8572   -0.5796 H   0  0  0  1  0  0  0  0  0  0  0  0
   -0.6698    2.7060   -1.9860 H   0  0  0  1  0  0  0  0  0  0  0  0
   -2.2706    3.4499   -3.7199 H   0  0  0  1  0  0  0  0  0  0  0  0
   -4.4839    3.2009   -4.6822 H   0  0  0  1  0  0  0  0  0  0  0  0
   -5.8286    1.4232   -1.1238 H   0  0  0  1  0  0  0  0  0  0  0  0
   -3.6190    1.6719   -0.1633 H   0  0  0  1  0  0  0  0  0  0  0  0
   -6.7812    2.4713   -4.4422 H   0  0  0  1  0  0  0  0  0  0  0  0
   -7.3266    1.7562   -3.0025 H   0  0  0  1  0  0  0  0  0  0  0  0
  1  4  1  0  0  0  0
  2  4  1  0  0  0  0
  2  5  2  0  0  0  0
  2  6  1  0  0  0  0
  3  4  1  0  0  0  0
  3  7  1  0  0  0  0
  3  8  1  0  0  0  0
  4 19  1  0  0  0  0
  6  9  1  0  0  0  0
  6 12  1  0  0  0  0
  8 10  1  0  0  0  0
  8 11  2  0  0  0  0
  9 13  1  0  0  0  0
  9 14  1  0  0  0  0
  9 15  1  0  0  0  0
 10 16  1  0  0  0  0
 10 17  1  0  0  0  0
 10 18  1  0  0  0  0
 19 20  1  0  0  0  0
 19 27  1  0  0  0  0
 19 28  1  0  0  0  0
 20 21  4  0  0  0  0
 20 25  4  0  0  0  0
 21 22  4  0  0  0  0
 21 29  1  0  0  0  0
 22 23  4  0  0  0  0
 22 30  1  0  0  0  0
 23 24  4  0  0  0  0
 23 26  1  0  0  0  0
 24 25  4  0  0  0  0
 24 31  1  0  0  0  0
 25 32  1  0  0  0  0
 26 33  1  0  0  0  0
 26 34  1  0  0  0  0
M  END
> <BCLConfClusterSize>
1

> <ConfClashScore>
0 

> <ConfOneFourInteractionScore>
-0.957011 

> <ConfScore>
-0.0818735 

> <ConfScorePBest>
0.00760599 

> <ConfTolerance>
0.259668 

> <RosettaParamsInstructions>
M  ROOT 3
M  POLY_N_BB 3
M  POLY_CA_BB 4
M  POLY_C_BB 2
M  POLY_O_BB 5
M  POLY_IGNORE 9 10 11 12 13 14 15 16 17 18 
M  POLY_UPPER 6
M  POLY_LOWER 8
M  POLY_CHG 0
M  POLY_PROPERTIES ALPHA_AA D_AA PROTEIN AROMATIC POLYMER 
M  END

$$$$



 34 34  0  0  0  0  0  0  0  0999 V2000
    0.4578    1.7961   -1.0447 H   0  0  0  1  0  0  0  0  0  0  0  0
   -0.1098    1.3630   -3.0201 C   0  0  0  1  0  0  0  0  0  0  0  0
   -0.9712    0.3108   -0.9571 N   0  0  0  1  0  0  0  0  0  0  0  0
   -0.4578    1.5619   -1.5465 C   0  0  0  1  0  0  0  0  0  0  0  0
    0.3181    0.2825   -3.4313 O   0  0  0  1  0  0  0  0  0  0  0  0
   -0.2285    2.4593   -3.7858 N   0  0  0  1  0  0  0  0  0  0  0  0
   -0.5637   -0.0253   -0.1317 H   0  0  0  1  0  0  0  0  0  0  0  0
   -1.9725   -0.3800   -1.5096 C   0  0  0  1  0  0  0  0  0  0  0  0
    0.1860    2.4820   -5.1806 C   0  0  0  1  0  0  0  0  0  0  0  0
   -2.3413   -1.6759   -0.8139 C   0  0  0  1  0  0  0  0  0  0  0  0
   -2.5640   -0.0078   -2.5096 O   0  0  0  1  0  0  0  0  0  0  0  0
   -0.6076    3.2726   -3.3917 H   0  0  0  1  0  0  0  0  0  0  0  0
    0.0917    3.4760   -5.5651 H   0  0  0  1  0  0  0  0  0  0  0  0
   -0.4346    1.8201   -5.7477 H   0  0  0  1  0  0  0  0  0  0  0  0
    1.2058    2.1665   -5.2544 H   0  0  0  1  0  0  0  0  0  0  0  0
   -1.4730   -2.2954   -0.7292 H   0  0  0  1  0  0  0  0  0  0  0  0
   -3.0891   -2.1863   -1.3841 H   0  0  0  1  0  0  0  0  0  0  0  0
   -2.7219   -1.4603    0.1626 H   0  0  0  1  0  0  0  0  0  0  0  0
   -1.4146    2.7141   -1.2697 C   0  0  0  1  0  0  0  0  0  0  0  0
   -2.7884    2.5700   -1.8680 C   0  0  0  1  0  0  0  0  0  0  0  0
   -3.0336    3.0165   -3.1528 C   0  0  0  1  0  0  0  0  0  0  0  0
   -4.2975    2.8786   -3.7052 C   0  0  0  1  0  0  0  0  0  0  0  0
   -5.3138    2.2993   -2.9691 C   0  0  0  1  0  0  0  0  0  0  0  0
   -5.0680    1.8515   -1.6805 C   0  0  0  1  0  0  0  0  0  0  0  0
   -3.8078    1.9891   -1.1299 C   0  0  0  1  0  0  0  0  0  0  0  0
   -6.6049    2.1636   -3.5307 N   0  0  0  1  0  0  0  0  0  0  0  0
   -0.9764    3.6084   -1.6609 H   0  0  0  1  0  0  0  0  0  0  0  0
   -1.5243    2.8045   -0.2091 H   0  0  0  1  0  0  0  0  0  0  0  0
   -2.2699    3.4559   -3.7052 H   0  0  0  1  0  0  0  0  0  0  0  0
   -4.4810    3.2109   -4.6735 H   0  0  0  1  0  0  0  0  0  0  0  0
   -5.8318    1.4120   -1.1281 H   0  0  0  1  0  0  0  0  0  0  0  0
   -3.6244    1.6567   -0.1616 H   0  0  0  1  0  0  0  0  0  0  0  0
   -6.7962    2.5385   -4.4157 H   0  0  0  1  0  0  0  0  0  0  0  0
   -7.3081    1.6946   -3.0347 H   0  0  0  1  0  0  0  0  0  0  0  0
  1  4  1  0  0  0  0
  2  4  1  0  0  0  0
  2  5  2  0  0  0  0
  2  6  1  0  0  0  0
  3  4  1  0  0  0  0
  3  7  1  0  0  0  0
  3  8  1  0  0  0  0
  4 19  1  0  0  0  0
  6  9  1  0  0  0  0
  6 12  1  0  0  0  0
  8 10  1  0  0  0  0
  8 11  2  0  0  0  0
  9 13  1  0  0  0  0
  9 14  1  0  0  0  0
  9 15  1  0  0  0  0
 10 16  1  0  0  0  0
 10 17  1  0  0  0  0
 10 18  1  0  0  0  0
 19 20  1  0  0  0  0
 19 27  1  0  0  0  0
 19 28  1  0  0  0  0
 20 21  4  0  0  0  0
 20 25  4  0  0  0  0
 21 22  4  0  0  0  0
 21 29  1  0  0  0  0
 22 23  4  0  0  0  0
 22 30  1  0  0  0  0
 23 24  4  0  0  0  0
 23 26  1  0  0  0  0
 24 25  4  0  0  0  0
 24 31  1  0  0  0  0
 25 32  1  0  0  0  0
 26 33  1  0  0  0  0
 26 34  1  0  0  0  0
M  END
> <BCLConfClusterSize>
1

> <ConfClashScore>
0 

> <ConfOneFourInteractionScore>
-0.924221 

> <ConfScore>
-0.065711 

> <ConfScorePBest>
0.00757751 

> <ConfTolerance>
0.289711 

> <RosettaParamsInstructions>
M  ROOT 3
M  POLY_N_BB 3
M  POLY_CA_BB 4
M  POLY_C_BB 2
M  POLY_O_BB 5
M  POLY_IGNORE 9 10 11 12 13 14 15 16 17 18 
M  POLY_UPPER 6
M  POLY_LOWER 8
M  POLY_CHG 0
M  POLY_PROPERTIES ALPHA_AA D_AA PROTEIN AROMATIC POLYMER 
M  END

$$$$



 34 34  0  0  0  0  0  0  0  0999 V2000
    0.4388    1.7816   -0.9958 H   0  0  0  1  0  0  0  0  0  0  0  0
   -0.1005    1.3901   -2.9813 C   0  0  0  1  0  0  0  0  0  0  0  0
   -0.9854    0.2902   -0.9612 N   0  0  0  1  0  0  0  0  0  0  0  0
   -0.4683    1.5554   -1.5163 C   0  0  0  1  0  0  0  0  0  0  0  0
    0.8566    1.9204   -3.5145 O   0  0  0  1  0  0  0  0  0  0  0  0
   -0.9356    0.5937   -3.6547 N   0  0  0  1  0  0  0  0  0  0  0  0
   -1.3302   -0.3903   -1.5764 H   0  0  0  1  0  0  0  0  0  0  0  0
   -1.0006    0.0303    0.4007 C   0  0  0  1  0  0  0  0  0  0  0  0
   -0.8263    0.3897   -5.0914 C   0  0  0  1  0  0  0  0  0  0  0  0
   -1.3860   -1.3416    0.8783 C   0  0  0  1  0  0  0  0  0  0  0  0
   -0.6998    0.9264    1.1676 O   0  0  0  1  0  0  0  0  0  0  0  0
   -1.6466    0.1309   -3.1640 H   0  0  0  1  0  0  0  0  0  0  0  0
    0.1637    0.6374   -5.4130 H   0  0  0  1  0  0  0  0  0  0  0  0
   -1.5320    1.0168   -5.5952 H   0  0  0  1  0  0  0  0  0  0  0  0
   -1.0303   -0.6349   -5.3225 H   0  0  0  1  0  0  0  0  0  0  0  0
   -2.3913   -1.5543    0.5800 H   0  0  0  1  0  0  0  0  0  0  0  0
   -1.3149   -1.3806    1.9452 H   0  0  0  1  0  0  0  0  0  0  0  0
   -0.7261   -2.0666    0.4496 H   0  0  0  1  0  0  0  0  0  0  0  0
   -1.4314    2.6958   -1.2293 C   0  0  0  1  0  0  0  0  0  0  0  0
   -2.7853    2.5751   -1.8761 C   0  0  0  1  0  0  0  0  0  0  0  0
   -3.0321    3.0115   -3.1641 C   0  0  0  1  0  0  0  0  0  0  0  0
   -4.2972    2.8712   -3.7132 C   0  0  0  1  0  0  0  0  0  0  0  0
   -5.3131    2.2996   -2.9706 C   0  0  0  1  0  0  0  0  0  0  0  0
   -5.0658    1.8618   -1.6788 C   0  0  0  1  0  0  0  0  0  0  0  0
   -3.8044    2.0019   -1.1315 C   0  0  0  1  0  0  0  0  0  0  0  0
   -6.6054    2.1613   -3.5288 N   0  0  0  1  0  0  0  0  0  0  0  0
   -0.9807    3.6030   -1.5738 H   0  0  0  1  0  0  0  0  0  0  0  0
   -1.5750    2.7479   -0.1703 H   0  0  0  1  0  0  0  0  0  0  0  0
   -2.2686    3.4453   -3.7214 H   0  0  0  1  0  0  0  0  0  0  0  0
   -4.4818    3.1959   -4.6838 H   0  0  0  1  0  0  0  0  0  0  0  0
   -5.8292    1.4281   -1.1215 H   0  0  0  1  0  0  0  0  0  0  0  0
   -3.6198    1.6771   -0.1609 H   0  0  0  1  0  0  0  0  0  0  0  0
   -6.7717    2.4383   -4.4540 H   0  0  0  1  0  0  0  0  0  0  0  0
   -7.3344    1.7884   -2.9904 H   0  0  0  1  0  0  0  0  0  0  0  0
  1  4  1  0  0  0  0
  2  4  1  0  0  0  0
  2  5  2  0  0  0  0
  2  6  1  0  0  0  0
  3  4  1  0  0  0  0
  3  7  1  0  0  0  0
  3  8  1  0  0  0  0
  4 19  1  0  0  0  0
  6  9  1  0  0  0  0
  6 12  1  0  0  0  0
  8 10  1  0  0  0  0
  8 11  2  0  0  0  0
  9 13  1  0  0  0  0
  9 14  1  0  0  0  0
  9 15  1  0  0  0  0
 10 16  1  0  0  0  0
 10 17  1  0  0  0  0
 10 18  1  0  0  0  0
 19 20  1  0  0  0  0
 19 27  1  0  0  0  0
 19 28  1  0  0  0  0
 20 21  4  0  0  0  0
 20 25  4  0  0  0  0
 21 22  4  0  0  0  0
 21 29  1  0  0  0  0
 22 23  4  0  0  0  0
 22 30  1  0  0  0  0
 23 24  4  0  0  0  0
 23 26  1  0  0  0  0
 24 25  4  0  0  0  0
 24 31  1  0  0  0  0
 25 32  1  0  0  0  0
 26 33  1  0  0  0  0
 26 34  1  0  0  0  0
M  END
> <BCLConfClusterSize>
1

> <ConfClashScore>
0 

> <ConfOneFourInteractionScore>
-0.9553 

> <ConfScore>
-0.0554903 

> <ConfScorePBest>
0.00754903 

> <ConfTolerance>
0.194852 

> <RosettaParamsInstructions>
M  ROOT 3
M  POLY_N_BB 3
M  POLY_CA_BB 4
M  POLY_C_BB 2
M  POLY_O_BB 5
M  POLY_IGNORE 9 10 11 12 13 14 15 16 17 18 
M  POLY_UPPER 6
M  POLY_LOWER 8
M  POLY_CHG 0
M  POLY_PROPERTIES ALPHA_AA D_AA PROTEIN AROMATIC POLYMER 
M  END

$$$$



 34 34  0  0  0  0  0  0  0  0999 V2000
    0.2084    1.5342   -0.6738 H   0  0  0  1  0  0  0  0  0  0  0  0
   -0.8871    0.4463   -2.1075 C   0  0  0  1  0  0  0  0  0  0  0  0
   -1.5060    0.9070    0.2832 N   0  0  0  1  0  0  0  0  0  0  0  0
   -0.8236    1.3813   -0.9115 C   0  0  0  1  0  0  0  0  0  0  0  0
   -0.9059   -0.7742   -1.9540 O   0  0  0  1  0  0  0  0  0  0  0  0
   -0.9219    0.9916   -3.3337 N   0  0  0  1  0  0  0  0  0  0  0  0
   -2.1431    1.5016    0.7315 H   0  0  0  1  0  0  0  0  0  0  0  0
   -1.2942   -0.3108    0.7901 C   0  0  0  1  0  0  0  0  0  0  0  0
   -1.1815    0.1572   -4.4974 C   0  0  0  1  0  0  0  0  0  0  0  0
   -2.0957   -0.6569    2.0298 C   0  0  0  1  0  0  0  0  0  0  0  0
   -0.5100   -1.1070    0.3005 O   0  0  0  1  0  0  0  0  0  0  0  0
   -0.7722    1.9537   -3.4455 H   0  0  0  1  0  0  0  0  0  0  0  0
   -1.7600   -0.6940   -4.2047 H   0  0  0  1  0  0  0  0  0  0  0  0
   -0.2526   -0.1700   -4.9158 H   0  0  0  1  0  0  0  0  0  0  0  0
   -1.7227    0.7221   -5.2274 H   0  0  0  1  0  0  0  0  0  0  0  0
   -2.0011    0.1308    2.7478 H   0  0  0  1  0  0  0  0  0  0  0  0
   -1.7260   -1.5687    2.4503 H   0  0  0  1  0  0  0  0  0  0  0  0
   -3.1258   -0.7770    1.7662 H   0  0  0  1  0  0  0  0  0  0  0  0
   -1.4045    2.7354   -1.3078 C   0  0  0  1  0  0  0  0  0  0  0  0
   -2.7885    2.5762   -1.8782 C   0  0  0  1  0  0  0  0  0  0  0  0
   -3.0543    2.9828   -3.1721 C   0  0  0  1  0  0  0  0  0  0  0  0
   -4.3276    2.8310   -3.6987 C   0  0  0  1  0  0  0  0  0  0  0  0
   -5.3326    2.2778   -2.9278 C   0  0  0  1  0  0  0  0  0  0  0  0
   -5.0661    1.8700   -1.6301 C   0  0  0  1  0  0  0  0  0  0  0  0
   -3.7966    2.0214   -1.1052 C   0  0  0  1  0  0  0  0  0  0  0  0
   -6.5837    2.1746   -3.5537 N   0  0  0  1  0  0  0  0  0  0  0  0
   -0.7718    3.1869   -2.0431 H   0  0  0  1  0  0  0  0  0  0  0  0
   -1.4517    3.3636   -0.4429 H   0  0  0  1  0  0  0  0  0  0  0  0
   -2.2990    3.4027   -3.7508 H   0  0  0  1  0  0  0  0  0  0  0  0
   -4.5266    3.1333   -4.6737 H   0  0  0  1  0  0  0  0  0  0  0  0
   -5.8214    1.4501   -1.0514 H   0  0  0  1  0  0  0  0  0  0  0  0
   -3.5976    1.7191   -0.1302 H   0  0  0  1  0  0  0  0  0  0  0  0
   -7.2875    1.6219   -3.1541 H   0  0  0  1  0  0  0  0  0  0  0  0
   -6.7540    2.6551   -4.3907 H   0  0  0  1  0  0  0  0  0  0  0  0
  1  4  1  0  0  0  0
  2  4  1  0  0  0  0
  2  5  2  0  0  0  0
  2  6  1  0  0  0  0
  3  4  1  0  0  0  0
  3  7  1  0  0  0  0
  3  8  1  0  0  0  0
  4 19  1  0  0  0  0
  6  9  1  0  0  0  0
  6 12  1  0  0  0  0
  8 10  1  0  0  0  0
  8 11  2  0  0  0  0
  9 13  1  0  0  0  0
  9 14  1  0  0  0  0
  9 15  1  0  0  0  0
 10 16  1  0  0  0  0
 10 17  1  0  0  0  0
 10 18  1  0  0  0  0
 19 20  1  0  0  0  0
 19 27  1  0  0  0  0
 19 28  1  0  0  0  0
 20 21  4  0  0  0  0
 20 25  4  0  0  0  0
 21 22  4  0  0  0  0
 21 29  1  0  0  0  0
 22 23  4  0  0  0  0
 22 30  1  0  0  0  0
 23 24  4  0  0  0  0
 23 26  1  0  0  0  0
 24 25  4  0  0  0  0
 24 31  1  0  0  0  0
 25 32  1  0  0  0  0
 26 33  1  0  0  0  0
 26 34  1  0  0  0  0
M  END
> <BCLConfClusterSize>
1

> <ConfClashScore>
0 

> <ConfOneFourInteractionScore>
-0.955611 

> <ConfScore>
-0.0402533 

> <ConfScorePBest>
0.00752055 

> <ConfTolerance>
0.293338 

> <RosettaParamsInstructions>
M  ROOT 3
M  POLY_N_BB 3
M  POLY_CA_BB 4
M  POLY_C_BB 2
M  POLY_O_BB 5
M  POLY_IGNORE 9 10 11 12 13 14 15 16 17 18 
M  POLY_UPPER 6
M  POLY_LOWER 8
M  POLY_CHG 0
M  POLY_PROPERTIES ALPHA_AA D_AA PROTEIN AROMATIC POLYMER 
M  END

$$$$



 34 34  0  0  0  0  0  0  0  0999 V2000
   -0.7580    0.7193   -1.2574 H   0  0  0  1  0  0  0  0  0  0  0  0
    1.0212    1.9145   -1.2877 C   0  0  0  1  0  0  0  0  0  0  0  0
   -0.5680    1.4705   -3.1773 N   0  0  0  1  0  0  0  0  0  0  0  0
   -0.4481    1.6305   -1.7250 C   0  0  0  1  0  0  0  0  0  0  0  0
    1.2676    2.3072   -0.2243 O   0  0  0  1  0  0  0  0  0  0  0  0
    1.9508    1.6785   -2.2037 N   0  0  0  1  0  0  0  0  0  0  0  0
   -0.8378    2.2424   -3.7175 H   0  0  0  1  0  0  0  0  0  0  0  0
   -0.3197    0.2976   -3.7961 C   0  0  0  1  0  0  0  0  0  0  0  0
    3.3806    1.8213   -1.9730 C   0  0  0  1  0  0  0  0  0  0  0  0
   -0.2805    0.2855   -5.3118 C   0  0  0  1  0  0  0  0  0  0  0  0
   -0.1287   -0.7416   -3.1465 O   0  0  0  1  0  0  0  0  0  0  0  0
    1.6561    1.3894   -3.0925 H   0  0  0  1  0  0  0  0  0  0  0  0
    3.5478    2.5504   -1.2079 H   0  0  0  1  0  0  0  0  0  0  0  0
    3.8576    2.1375   -2.8771 H   0  0  0  1  0  0  0  0  0  0  0  0
    3.7875    0.8811   -1.6644 H   0  0  0  1  0  0  0  0  0  0  0  0
   -0.9378    1.0394   -5.6921 H   0  0  0  1  0  0  0  0  0  0  0  0
   -0.5936   -0.6733   -5.6688 H   0  0  0  1  0  0  0  0  0  0  0  0
    0.7174    0.4820   -5.6442 H   0  0  0  1  0  0  0  0  0  0  0  0
   -1.4103    2.7250   -1.2823 C   0  0  0  1  0  0  0  0  0  0  0  0
   -2.7860    2.5760   -1.8750 C   0  0  0  1  0  0  0  0  0  0  0  0
   -3.0297    2.9911   -3.1706 C   0  0  0  1  0  0  0  0  0  0  0  0
   -4.2954    2.8487   -3.7177 C   0  0  0  1  0  0  0  0  0  0  0  0
   -5.3150    2.2963   -2.9656 C   0  0  0  1  0  0  0  0  0  0  0  0
   -5.0707    1.8799   -1.6662 C   0  0  0  1  0  0  0  0  0  0  0  0
   -3.8087    2.0220   -1.1209 C   0  0  0  1  0  0  0  0  0  0  0  0
   -6.6079    2.1559   -3.5219 N   0  0  0  1  0  0  0  0  0  0  0  0
   -1.0110    3.6713   -1.5823 H   0  0  0  1  0  0  0  0  0  0  0  0
   -1.4937    2.6944   -0.2160 H   0  0  0  1  0  0  0  0  0  0  0  0
   -2.2635    3.4105   -3.7351 H   0  0  0  1  0  0  0  0  0  0  0  0
   -4.4778    3.1574   -4.6939 H   0  0  0  1  0  0  0  0  0  0  0  0
   -5.8370    1.4606   -1.1017 H   0  0  0  1  0  0  0  0  0  0  0  0
   -3.6264    1.7132   -0.1447 H   0  0  0  1  0  0  0  0  0  0  0  0
   -7.2826    1.6133   -3.0628 H   0  0  0  1  0  0  0  0  0  0  0  0
   -6.8290    2.6013   -4.3663 H   0  0  0  1  0  0  0  0  0  0  0  0
  1  4  1  0  0  0  0
  2  4  1  0  0  0  0
  2  5  2  0  0  0  0
  2  6  1  0  0  0  0
  3  4  1  0  0  0  0
  3  7  1  0  0  0  0
  3  8  1  0  0  0  0
  4 19  1  0  0  0  0
  6  9  1  0  0  0  0
  6 12  1  0  0  0  0
  8 10  1  0  0  0  0
  8 11  2  0  0  0  0
  9 13  1  0  0  0  0
  9 14  1  0  0  0  0
  9 15  1  0  0  0  0
 10 16  1  0  0  0  0
 10 17  1  0  0  0  0
 10 18  1  0  0  0  0
 19 20  1  0  0  0  0
 19 27  1  0  0  0  0
 19 28  1  0  0  0  0
 20 21  4  0  0  0  0
 20 25  4  0  0  0  0
 21 22  4  0  0  0  0
 21 29  1  0  0  0  0
 22 23  4  0  0  0  0
 22 30  1  0  0  0  0
 23 24  4  0  0  0  0
 23 26  1  0  0  0  0
 24 25  4  0  0  0  0
 24 31  1  0  0  0  0
 25 32  1  0  0  0  0
 26 33  1  0  0  0  0
 26 34  1  0  0  0  0
M  END
> <BCLConfClusterSize>
1

> <ConfClashScore>
0 

> <ConfOneFourInteractionScore>
-0.928132 

> <ConfScore>
-0.0345563 

> <ConfScorePBest>
0.00749207 

> <ConfTolerance>
0.250083 

> <RosettaParamsInstructions>
M  ROOT 3
M  POLY_N_BB 3
M  POLY_CA_BB 4
M  POLY_C_BB 2
M  POLY_O_BB 5
M  POLY_IGNORE 9 10 11 12 13 14 15 16 17 18 
M  POLY_UPPER 6
M  POLY_LOWER 8
M  POLY_CHG 0
M  POLY_PROPERTIES ALPHA_AA D_AA PROTEIN AROMATIC POLYMER 
M  END

$$$$



 34 34  0  0  0  0  0  0  0  0999 V2000
   -0.3493    4.0159    0.0422 H   0  0  0  1  0  0  0  0  0  0  0  0
   -2.2727    3.6187    0.8522 C   0  0  0  1  0  0  0  0  0  0  0  0
   -1.7677    5.1286   -1.0009 N   0  0  0  1  0  0  0  0  0  0  0  0
   -1.3512    3.9090   -0.3180 C   0  0  0  1  0  0  0  0  0  0  0  0
   -2.9955    4.5207    1.2486 O   0  0  0  1  0  0  0  0  0  0  0  0
   -2.2461    2.3897    1.3898 N   0  0  0  1  0  0  0  0  0  0  0  0
   -1.8033    5.1100   -1.9801 H   0  0  0  1  0  0  0  0  0  0  0  0
   -2.1040    6.2674   -0.3931 C   0  0  0  1  0  0  0  0  0  0  0  0
   -3.0180    2.0999    2.5891 C   0  0  0  1  0  0  0  0  0  0  0  0
   -2.7928    7.3003   -1.2636 C   0  0  0  1  0  0  0  0  0  0  0  0
   -1.8782    6.4834    0.7947 O   0  0  0  1  0  0  0  0  0  0  0  0
   -1.7059    1.6857    0.9741 H   0  0  0  1  0  0  0  0  0  0  0  0
   -3.7991    1.4080    2.3525 H   0  0  0  1  0  0  0  0  0  0  0  0
   -3.4459    3.0057    2.9651 H   0  0  0  1  0  0  0  0  0  0  0  0
   -2.3764    1.6730    3.3313 H   0  0  0  1  0  0  0  0  0  0  0  0
   -3.4378    7.9036   -0.6596 H   0  0  0  1  0  0  0  0  0  0  0  0
   -3.3700    6.8045   -2.0160 H   0  0  0  1  0  0  0  0  0  0  0  0
   -2.0568    7.9215   -1.7297 H   0  0  0  1  0  0  0  0  0  0  0  0
   -1.4051    2.7312   -1.2977 C   0  0  0  1  0  0  0  0  0  0  0  0
   -2.7916    2.5683   -1.8607 C   0  0  0  1  0  0  0  0  0  0  0  0
   -3.0185    3.0026   -3.1531 C   0  0  0  1  0  0  0  0  0  0  0  0
   -4.2773    2.8695   -3.7182 C   0  0  0  1  0  0  0  0  0  0  0  0
   -5.3068    2.3073   -2.9873 C   0  0  0  1  0  0  0  0  0  0  0  0
   -5.0794    1.8716   -1.6912 C   0  0  0  1  0  0  0  0  0  0  0  0
   -3.8243    2.0044   -1.1279 C   0  0  0  1  0  0  0  0  0  0  0  0
   -6.6113    2.1520   -3.5116 N   0  0  0  1  0  0  0  0  0  0  0  0
   -1.1274    1.8345   -0.7841 H   0  0  0  1  0  0  0  0  0  0  0  0
   -0.7196    2.9103   -2.0996 H   0  0  0  1  0  0  0  0  0  0  0  0
   -2.2448    3.4294   -3.7015 H   0  0  0  1  0  0  0  0  0  0  0  0
   -4.4470    3.1927   -4.6920 H   0  0  0  1  0  0  0  0  0  0  0  0
   -5.8531    1.4448   -1.1427 H   0  0  0  1  0  0  0  0  0  0  0  0
   -3.6547    1.6812   -0.1540 H   0  0  0  1  0  0  0  0  0  0  0  0
   -6.7835    2.3342   -4.4590 H   0  0  0  1  0  0  0  0  0  0  0  0
   -7.3429    1.8621   -2.9276 H   0  0  0  1  0  0  0  0  0  0  0  0
  1  4  1  0  0  0  0
  2  4  1  0  0  0  0
  2  5  2  0  0  0  0
  2  6  1  0  0  0  0
  3  4  1  0  0  0  0
  3  7  1  0  0  0  0
  3  8  1  0  0  0  0
  4 19  1  0  0  0  0
  6  9  1  0  0  0  0
  6 12  1  0  0  0  0
  8 10  1  0  0  0  0
  8 11  2  0  0  0  0
  9 13  1  0  0  0  0
  9 14  1  0  0  0  0
  9 15  1  0  0  0  0
 10 16  1  0  0  0  0
 10 17  1  0  0  0  0
 10 18  1  0  0  0  0
 19 20  1  0  0  0  0
 19 27  1  0  0  0  0
 19 28  1  0  0  0  0
 20 21  4  0  0  0  0
 20 25  4  0  0  0  0
 21 22  4  0  0  0  0
 21 29  1  0  0  0  0
 22 23  4  0  0  0  0
 22 30  1  0  0  0  0
 23 24  4  0  0  0  0
 23 26  1  0  0  0  0
 24 25  4  0  0  0  0
 24 31  1  0  0  0  0
 25 32  1  0  0  0  0
 26 33  1  0  0  0  0
 26 34  1  0  0  0  0
M  END
> <BCLConfClusterSize>
1

> <ConfClashScore>
0.000367418 

> <ConfOneFourInteractionScore>
-0.95103 

> <ConfScore>
-0.0301935 

> <ConfScorePBest>
0.00746359 

> <ConfTolerance>
0.275071 

> <RosettaParamsInstructions>
M  ROOT 3
M  POLY_N_BB 3
M  POLY_CA_BB 4
M  POLY_C_BB 2
M  POLY_O_BB 5
M  POLY_IGNORE 9 10 11 12 13 14 15 16 17 18 
M  POLY_UPPER 6
M  POLY_LOWER 8
M  POLY_CHG 0
M  POLY_PROPERTIES ALPHA_AA D_AA PROTEIN AROMATIC POLYMER 
M  END

$$$$



 34 34  0  0  0  0  0  0  0  0999 V2000
    0.4339    1.6466   -1.2525 H   0  0  0  1  0  0  0  0  0  0  0  0
   -0.1049    1.9253   -3.2940 C   0  0  0  1  0  0  0  0  0  0  0  0
   -1.1052    0.3268   -1.7533 N   0  0  0  1  0  0  0  0  0  0  0  0
   -0.4638    1.6473   -1.8347 C   0  0  0  1  0  0  0  0  0  0  0  0
   -0.0096    1.0105   -4.1148 O   0  0  0  1  0  0  0  0  0  0  0  0
    0.0950    3.2147   -3.6099 N   0  0  0  1  0  0  0  0  0  0  0  0
   -0.8907   -0.2573   -0.9963 H   0  0  0  1  0  0  0  0  0  0  0  0
   -1.9691   -0.1037   -2.6741 C   0  0  0  1  0  0  0  0  0  0  0  0
    0.5208    3.6962   -4.9155 C   0  0  0  1  0  0  0  0  0  0  0  0
   -2.4951   -1.5120   -2.4763 C   0  0  0  1  0  0  0  0  0  0  0  0
   -2.3247    0.5778   -3.6214 O   0  0  0  1  0  0  0  0  0  0  0  0
   -0.0573    3.8819   -2.9085 H   0  0  0  1  0  0  0  0  0  0  0  0
    1.1379    2.9585   -5.3845 H   0  0  0  1  0  0  0  0  0  0  0  0
    1.0765    4.6028   -4.7972 H   0  0  0  1  0  0  0  0  0  0  0  0
   -0.3390    3.8813   -5.5250 H   0  0  0  1  0  0  0  0  0  0  0  0
   -3.5627   -1.4883   -2.4087 H   0  0  0  1  0  0  0  0  0  0  0  0
   -2.0898   -1.9205   -1.5743 H   0  0  0  1  0  0  0  0  0  0  0  0
   -2.2041   -2.1210   -3.3066 H   0  0  0  1  0  0  0  0  0  0  0  0
   -1.4115    2.7179   -1.2786 C   0  0  0  1  0  0  0  0  0  0  0  0
   -2.7890    2.5690   -1.8671 C   0  0  0  1  0  0  0  0  0  0  0  0
   -3.0459    3.0179   -3.1488 C   0  0  0  1  0  0  0  0  0  0  0  0
   -4.3132    2.8757   -3.6921 C   0  0  0  1  0  0  0  0  0  0  0  0
   -5.3213    2.2897   -2.9500 C   0  0  0  1  0  0  0  0  0  0  0  0
   -5.0638    1.8394   -1.6646 C   0  0  0  1  0  0  0  0  0  0  0  0
   -3.8002    1.9813   -1.1230 C   0  0  0  1  0  0  0  0  0  0  0  0
   -6.5963    2.1751   -3.5517 N   0  0  0  1  0  0  0  0  0  0  0  0
   -1.0284    3.6866   -1.5231 H   0  0  0  1  0  0  0  0  0  0  0  0
   -1.4713    2.6153   -0.2152 H   0  0  0  1  0  0  0  0  0  0  0  0
   -2.2883    3.4625   -3.7056 H   0  0  0  1  0  0  0  0  0  0  0  0
   -4.5055    3.2099   -4.6580 H   0  0  0  1  0  0  0  0  0  0  0  0
   -5.8213    1.3948   -1.1077 H   0  0  0  1  0  0  0  0  0  0  0  0
   -3.6079    1.6471   -0.1571 H   0  0  0  1  0  0  0  0  0  0  0  0
   -6.7770    2.6207   -4.4056 H   0  0  0  1  0  0  0  0  0  0  0  0
   -7.2990    1.6501   -3.1146 H   0  0  0  1  0  0  0  0  0  0  0  0
  1  4  1  0  0  0  0
  2  4  1  0  0  0  0
  2  5  2  0  0  0  0
  2  6  1  0  0  0  0
  3  4  1  0  0  0  0
  3  7  1  0  0  0  0
  3  8  1  0  0  0  0
  4 19  1  0  0  0  0
  6  9  1  0  0  0  0
  6 12  1  0  0  0  0
  8 10  1  0  0  0  0
  8 11  2  0  0  0  0
  9 13  1  0  0  0  0
  9 14  1  0  0  0  0
  9 15  1  0  0  0  0
 10 16  1  0  0  0  0
 10 17  1  0  0  0  0
 10 18  1  0  0  0  0
 19 20  1  0  0  0  0
 19 27  1  0  0  0  0
 19 28  1  0  0  0  0
 20 21  4  0  0  0  0
 20 25  4  0  0  0  0
 21 22  4  0  0  0  0
 21 29  1  0  0  0  0
 22 23  4  0  0  0  0
 22 30  1  0  0  0  0
 23 24  4  0  0  0  0
 23 26  1  0  0  0  0
 24 25  4  0  0  0  0
 24 31  1  0  0  0  0
 25 32  1  0  0  0  0
 26 33  1  0  0  0  0
 26 34  1  0  0  0  0
M  END
> <BCLConfClusterSize>
1

> <ConfClashScore>
0 

> <ConfOneFourInteractionScore>
-0.92611 

> <ConfScore>
-0.0290176 

> <ConfScorePBest>
0.0074351 

> <ConfTolerance>
0.313844 

> <RosettaParamsInstructions>
M  ROOT 3
M  POLY_N_BB 3
M  POLY_CA_BB 4
M  POLY_C_BB 2
M  POLY_O_BB 5
M  POLY_IGNORE 9 10 11 12 13 14 15 16 17 18 
M  POLY_UPPER 6
M  POLY_LOWER 8
M  POLY_CHG 0
M  POLY_PROPERTIES ALPHA_AA D_AA PROTEIN AROMATIC POLYMER 
M  END

$$$$



 34 34  0  0  0  0  0  0  0  0999 V2000
   -0.2766    4.1329   -0.1928 H   0  0  0  1  0  0  0  0  0  0  0  0
   -2.1264    3.9731    0.8004 C   0  0  0  1  0  0  0  0  0  0  0  0
   -1.6348    5.1398   -1.3605 N   0  0  0  1  0  0  0  0  0  0  0  0
   -1.3014    4.0282   -0.4824 C   0  0  0  1  0  0  0  0  0  0  0  0
   -1.6832    3.4513    1.8226 O   0  0  0  1  0  0  0  0  0  0  0  0
   -3.3480    4.5255    0.7322 N   0  0  0  1  0  0  0  0  0  0  0  0
   -2.4915    5.5923   -1.2132 H   0  0  0  1  0  0  0  0  0  0  0  0
   -0.8622    5.5891   -2.3507 C   0  0  0  1  0  0  0  0  0  0  0  0
   -4.2897    4.4688    1.8403 C   0  0  0  1  0  0  0  0  0  0  0  0
   -1.4314    6.7354   -3.1888 C   0  0  0  1  0  0  0  0  0  0  0  0
    0.2789    5.1706   -2.5392 O   0  0  0  1  0  0  0  0  0  0  0  0
   -3.6150    4.9827   -0.0924 H   0  0  0  1  0  0  0  0  0  0  0  0
   -4.8457    5.3820    1.8836 H   0  0  0  1  0  0  0  0  0  0  0  0
   -3.7540    4.3339    2.7567 H   0  0  0  1  0  0  0  0  0  0  0  0
   -4.9617    3.6489    1.6954 H   0  0  0  1  0  0  0  0  0  0  0  0
   -1.7368    7.5323   -2.5433 H   0  0  0  1  0  0  0  0  0  0  0  0
   -2.2749    6.3849   -3.7460 H   0  0  0  1  0  0  0  0  0  0  0  0
   -0.6805    7.0908   -3.8631 H   0  0  0  1  0  0  0  0  0  0  0  0
   -1.4103    2.7250   -1.2823 C   0  0  0  1  0  0  0  0  0  0  0  0
   -2.7860    2.5759   -1.8750 C   0  0  0  1  0  0  0  0  0  0  0  0
   -3.0298    2.9914   -3.1705 C   0  0  0  1  0  0  0  0  0  0  0  0
   -4.2955    2.8490   -3.7176 C   0  0  0  1  0  0  0  0  0  0  0  0
   -5.3150    2.2963   -2.9656 C   0  0  0  1  0  0  0  0  0  0  0  0
   -5.0706    1.8796   -1.6663 C   0  0  0  1  0  0  0  0  0  0  0  0
   -3.8086    2.0217   -1.1210 C   0  0  0  1  0  0  0  0  0  0  0  0
   -6.6079    2.1560   -3.5218 N   0  0  0  1  0  0  0  0  0  0  0  0
   -1.2167    1.8973   -0.6325 H   0  0  0  1  0  0  0  0  0  0  0  0
   -0.6877    2.7362   -2.0714 H   0  0  0  1  0  0  0  0  0  0  0  0
   -2.2636    3.4109   -3.7349 H   0  0  0  1  0  0  0  0  0  0  0  0
   -4.4779    3.1579   -4.6937 H   0  0  0  1  0  0  0  0  0  0  0  0
   -5.8368    1.4601   -1.1019 H   0  0  0  1  0  0  0  0  0  0  0  0
   -3.6262    1.7128   -0.1449 H   0  0  0  1  0  0  0  0  0  0  0  0
   -7.2837    1.6161   -3.0610 H   0  0  0  1  0  0  0  0  0  0  0  0
   -6.8280    2.5986   -4.3680 H   0  0  0  1  0  0  0  0  0  0  0  0
  1  4  1  0  0  0  0
  2  4  1  0  0  0  0
  2  5  2  0  0  0  0
  2  6  1  0  0  0  0
  3  4  1  0  0  0  0
  3  7  1  0  0  0  0
  3  8  1  0  0  0  0
  4 19  1  0  0  0  0
  6  9  1  0  0  0  0
  6 12  1  0  0  0  0
  8 10  1  0  0  0  0
  8 11  2  0  0  0  0
  9 13  1  0  0  0  0
  9 14  1  0  0  0  0
  9 15  1  0  0  0  0
 10 16  1  0  0  0  0
 10 17  1  0  0  0  0
 10 18  1  0  0  0  0
 19 20  1  0  0  0  0
 19 27  1  0  0  0  0
 19 28  1  0  0  0  0
 20 21  4  0  0  0  0
 20 25  4  0  0  0  0
 21 22  4  0  0  0  0
 21 29  1  0  0  0  0
 22 23  4  0  0  0  0
 22 30  1  0  0  0  0
 23 24  4  0  0  0  0
 23 26  1  0  0  0  0
 24 25  4  0  0  0  0
 24 31  1  0  0  0  0
 25 32  1  0  0  0  0
 26 33  1  0  0  0  0
 26 34  1  0  0  0  0
M  END
> <BCLConfClusterSize>
1

> <ConfClashScore>
0 

> <ConfOneFourInteractionScore>
-0.9553 

> <ConfScore>
-0.0285297 

> <ConfScorePBest>
0.00740662 

> <ConfTolerance>
0.26001 

> <RosettaParamsInstructions>
M  ROOT 3
M  POLY_N_BB 3
M  POLY_CA_BB 4
M  POLY_C_BB 2
M  POLY_O_BB 5
M  POLY_IGNORE 9 10 11 12 13 14 15 16 17 18 
M  POLY_UPPER 6
M  POLY_LOWER 8
M  POLY_CHG 0
M  POLY_PROPERTIES ALPHA_AA D_AA PROTEIN AROMATIC POLYMER 
M  END

$$$$



 34 34  0  0  0  0  0  0  0  0999 V2000
   -1.0958    0.6797   -0.8707 H   0  0  0  1  0  0  0  0  0  0  0  0
    0.8069    1.5443   -0.7757 C   0  0  0  1  0  0  0  0  0  0  0  0
   -0.4828    1.0297   -2.8086 N   0  0  0  1  0  0  0  0  0  0  0  0
   -0.5729    1.4504   -1.3975 C   0  0  0  1  0  0  0  0  0  0  0  0
    1.8021    1.0066   -1.2251 O   0  0  0  1  0  0  0  0  0  0  0  0
    0.8424    2.2885    0.3402 N   0  0  0  1  0  0  0  0  0  0  0  0
   -0.8756    1.5739   -3.5227 H   0  0  0  1  0  0  0  0  0  0  0  0
    0.1495   -0.1142   -3.0853 C   0  0  0  1  0  0  0  0  0  0  0  0
    2.0771    2.4054    1.1015 C   0  0  0  1  0  0  0  0  0  0  0  0
    0.2066   -0.5186   -4.5595 C   0  0  0  1  0  0  0  0  0  0  0  0
    0.7288   -0.7735   -2.2230 O   0  0  0  1  0  0  0  0  0  0  0  0
    0.0352    2.7543    0.6431 H   0  0  0  1  0  0  0  0  0  0  0  0
    2.9138    2.2717    0.4480 H   0  0  0  1  0  0  0  0  0  0  0  0
    2.0976    1.6556    1.8646 H   0  0  0  1  0  0  0  0  0  0  0  0
    2.1279    3.3747    1.5517 H   0  0  0  1  0  0  0  0  0  0  0  0
   -0.7204   -0.2721   -5.0337 H   0  0  0  1  0  0  0  0  0  0  0  0
    0.3757   -1.5726   -4.6337 H   0  0  0  1  0  0  0  0  0  0  0  0
    1.0045    0.0060   -5.0423 H   0  0  0  1  0  0  0  0  0  0  0  0
   -1.4144    2.7135   -1.2700 C   0  0  0  1  0  0  0  0  0  0  0  0
   -2.7883    2.5696   -1.8682 C   0  0  0  1  0  0  0  0  0  0  0  0
   -3.0345    3.0195   -3.1516 C   0  0  0  1  0  0  0  0  0  0  0  0
   -4.2985    2.8819   -3.7039 C   0  0  0  1  0  0  0  0  0  0  0  0
   -5.3139    2.2995   -2.9690 C   0  0  0  1  0  0  0  0  0  0  0  0
   -5.0671    1.8482   -1.6818 C   0  0  0  1  0  0  0  0  0  0  0  0
   -3.8068    1.9855   -1.1313 C   0  0  0  1  0  0  0  0  0  0  0  0
   -6.6051    2.1640   -3.5305 N   0  0  0  1  0  0  0  0  0  0  0  0
   -0.9074    3.5124   -1.7695 H   0  0  0  1  0  0  0  0  0  0  0  0
   -1.5182    2.9502   -0.2317 H   0  0  0  1  0  0  0  0  0  0  0  0
   -2.2714    3.4614   -3.7030 H   0  0  0  1  0  0  0  0  0  0  0  0
   -4.4827    3.2169   -4.6711 H   0  0  0  1  0  0  0  0  0  0  0  0
   -5.8301    1.4064   -1.1303 H   0  0  0  1  0  0  0  0  0  0  0  0
   -3.6226    1.6506   -0.1641 H   0  0  0  1  0  0  0  0  0  0  0  0
   -6.8085    2.5755   -4.3963 H   0  0  0  1  0  0  0  0  0  0  0  0
   -7.2962    1.6586   -3.0536 H   0  0  0  1  0  0  0  0  0  0  0  0
  1  4  1  0  0  0  0
  2  4  1  0  0  0  0
  2  5  2  0  0  0  0
  2  6  1  0  0  0  0
  3  4  1  0  0  0  0
  3  7  1  0  0  0  0
  3  8  1  0  0  0  0
  4 19  1  0  0  0  0
  6  9  1  0  0  0  0
  6 12  1  0  0  0  0
  8 10  1  0  0  0  0
  8 11  2  0  0  0  0
  9 13  1  0  0  0  0
  9 14  1  0  0  0  0
  9 15  1  0  0  0  0
 10 16  1  0  0  0  0
 10 17  1  0  0  0  0
 10 18  1  0  0  0  0
 19 20  1  0  0  0  0
 19 27  1  0  0  0  0
 19 28  1  0  0  0  0
 20 21  4  0  0  0  0
 20 25  4  0  0  0  0
 21 22  4  0  0  0  0
 21 29  1  0  0  0  0
 22 23  4  0  0  0  0
 22 30  1  0  0  0  0
 23 24  4  0  0  0  0
 23 26  1  0  0  0  0
 24 25  4  0  0  0  0
 24 31  1  0  0  0  0
 25 32  1  0  0  0  0
 26 33  1  0  0  0  0
 26 34  1  0  0  0  0
M  END
> <BCLConfClusterSize>
1

> <ConfClashScore>
0 

> <ConfOneFourInteractionScore>
-0.985807 

> <ConfScore>
-0.027929 

> <ConfScorePBest>
0.00737814 

> <ConfTolerance>
0.249184 

> <RosettaParamsInstructions>
M  ROOT 3
M  POLY_N_BB 3
M  POLY_CA_BB 4
M  POLY_C_BB 2
M  POLY_O_BB 5
M  POLY_IGNORE 9 10 11 12 13 14 15 16 17 18 
M  POLY_UPPER 6
M  POLY_LOWER 8
M  POLY_CHG 0
M  POLY_PROPERTIES ALPHA_AA D_AA PROTEIN AROMATIC POLYMER 
M  END

$$$$



 34 34  0  0  0  0  0  0  0  0999 V2000
   -0.4951    4.0596    0.1374 H   0  0  0  1  0  0  0  0  0  0  0  0
   -2.5261    3.9969    0.6974 C   0  0  0  1  0  0  0  0  0  0  0  0
   -1.5723    5.2509   -1.1676 N   0  0  0  1  0  0  0  0  0  0  0  0
   -1.4376    4.0250   -0.3679 C   0  0  0  1  0  0  0  0  0  0  0  0
   -2.3016    3.5777    1.8214 O   0  0  0  1  0  0  0  0  0  0  0  0
   -3.7219    4.4562    0.3176 N   0  0  0  1  0  0  0  0  0  0  0  0
   -2.4070    5.7614   -1.1136 H   0  0  0  1  0  0  0  0  0  0  0  0
   -0.5963    5.6933   -1.9655 C   0  0  0  1  0  0  0  0  0  0  0  0
   -4.9032    4.5056    1.1661 C   0  0  0  1  0  0  0  0  0  0  0  0
   -0.8571    6.9452   -2.7957 C   0  0  0  1  0  0  0  0  0  0  0  0
    0.4940    5.1548   -2.0705 O   0  0  0  1  0  0  0  0  0  0  0  0
   -3.8102    4.7845   -0.6015 H   0  0  0  1  0  0  0  0  0  0  0  0
   -5.7673    4.2463    0.5908 H   0  0  0  1  0  0  0  0  0  0  0  0
   -5.0195    5.4945    1.5579 H   0  0  0  1  0  0  0  0  0  0  0  0
   -4.7914    3.8125    1.9735 H   0  0  0  1  0  0  0  0  0  0  0  0
   -1.1369    7.7506   -2.1492 H   0  0  0  1  0  0  0  0  0  0  0  0
   -1.6484    6.7540   -3.4900 H   0  0  0  1  0  0  0  0  0  0  0  0
    0.0312    7.2097   -3.3305 H   0  0  0  1  0  0  0  0  0  0  0  0
   -1.4214    2.7949   -1.2813 C   0  0  0  1  0  0  0  0  0  0  0  0
   -2.7815    2.5575   -1.8812 C   0  0  0  1  0  0  0  0  0  0  0  0
   -3.0371    2.9721   -3.1746 C   0  0  0  1  0  0  0  0  0  0  0  0
   -4.3090    2.8339   -3.7083 C   0  0  0  1  0  0  0  0  0  0  0  0
   -5.3227    2.2862   -2.9450 C   0  0  0  1  0  0  0  0  0  0  0  0
   -5.0665    1.8703   -1.6478 C   0  0  0  1  0  0  0  0  0  0  0  0
   -3.7983    2.0082   -1.1158 C   0  0  0  1  0  0  0  0  0  0  0  0
   -6.6021    2.1739   -3.5378 N   0  0  0  1  0  0  0  0  0  0  0  0
   -1.1356    1.9369   -0.7093 H   0  0  0  1  0  0  0  0  0  0  0  0
   -0.7134    2.9515   -2.0682 H   0  0  0  1  0  0  0  0  0  0  0  0
   -2.2752    3.3879   -3.7475 H   0  0  0  1  0  0  0  0  0  0  0  0
   -4.5004    3.1422   -4.6829 H   0  0  0  1  0  0  0  0  0  0  0  0
   -5.8284    1.4545   -1.0748 H   0  0  0  1  0  0  0  0  0  0  0  0
   -3.6070    1.6999   -0.1412 H   0  0  0  1  0  0  0  0  0  0  0  0
   -7.2909    1.6192   -3.1155 H   0  0  0  1  0  0  0  0  0  0  0  0
   -6.7997    2.6507   -4.3709 H   0  0  0  1  0  0  0  0  0  0  0  0
  1  4  1  0  0  0  0
  2  4  1  0  0  0  0
  2  5  2  0  0  0  0
  2  6  1  0  0  0  0
  3  4  1  0  0  0  0
  3  7  1  0  0  0  0
  3  8  1  0  0  0  0
  4 19  1  0  0  0  0
  6  9  1  0  0  0  0
  6 12  1  0  0  0  0
  8 10  1  0  0  0  0
  8 11  2  0  0  0  0
  9 13  1  0  0  0  0
  9 14  1  0  0  0  0
  9 15  1  0  0  0  0
 10 16  1  0  0  0  0
 10 17  1  0  0  0  0
 10 18  1  0  0  0  0
 19 20  1  0  0  0  0
 19 27  1  0  0  0  0
 19 28  1  0  0  0  0
 20 21  4  0  0  0  0
 20 25  4  0  0  0  0
 21 22  4  0  0  0  0
 21 29  1  0  0  0  0
 22 23  4  0  0  0  0
 22 30  1  0  0  0  0
 23 24  4  0  0  0  0
 23 26  1  0  0  0  0
 24 25  4  0  0  0  0
 24 31  1  0  0  0  0
 25 32  1  0  0  0  0
 26 33  1  0  0  0  0
 26 34  1  0  0  0  0
M  END
> <BCLConfClusterSize>
1

> <ConfClashScore>
0 

> <ConfOneFourInteractionScore>
-0.959103 

> <ConfScore>
-0.0249367 

> <ConfScorePBest>
0.00734966 

> <ConfTolerance>
0.369631 

> <RosettaParamsInstructions>
M  ROOT 3
M  POLY_N_BB 3
M  POLY_CA_BB 4
M  POLY_C_BB 2
M  POLY_O_BB 5
M  POLY_IGNORE 9 10 11 12 13 14 15 16 17 18 
M  POLY_UPPER 6
M  POLY_LOWER 8
M  POLY_CHG 0
M  POLY_PROPERTIES ALPHA_AA D_AA PROTEIN AROMATIC POLYMER 
M  END

$$$$



 34 34  0  0  0  0  0  0  0  0999 V2000
   -1.1229    0.6810   -1.0543 H   0  0  0  1  0  0  0  0  0  0  0  0
    0.7562    1.5181   -0.6748 C   0  0  0  1  0  0  0  0  0  0  0  0
   -0.2944    1.1810   -2.8755 N   0  0  0  1  0  0  0  0  0  0  0  0
   -0.5441    1.4872   -1.4541 C   0  0  0  1  0  0  0  0  0  0  0  0
    0.7631    1.5294    0.5457 O   0  0  0  1  0  0  0  0  0  0  0  0
    1.8779    1.5320   -1.4121 N   0  0  0  1  0  0  0  0  0  0  0  0
   -0.2672    1.9060   -3.5344 H   0  0  0  1  0  0  0  0  0  0  0  0
   -0.1045   -0.0879   -3.2680 C   0  0  0  1  0  0  0  0  0  0  0  0
    3.2015    1.6116   -0.8125 C   0  0  0  1  0  0  0  0  0  0  0  0
   -0.0642   -0.3147   -4.7667 C   0  0  0  1  0  0  0  0  0  0  0  0
    0.0292   -1.0128   -2.4839 O   0  0  0  1  0  0  0  0  0  0  0  0
    1.8029    1.4869   -2.3882 H   0  0  0  1  0  0  0  0  0  0  0  0
    3.3900    0.7249   -0.2439 H   0  0  0  1  0  0  0  0  0  0  0  0
    3.2505    2.4649   -0.1688 H   0  0  0  1  0  0  0  0  0  0  0  0
    3.9374    1.7034   -1.5838 H   0  0  0  1  0  0  0  0  0  0  0  0
    0.2018    0.5973   -5.2590 H   0  0  0  1  0  0  0  0  0  0  0  0
   -1.0278   -0.6344   -5.1048 H   0  0  0  1  0  0  0  0  0  0  0  0
    0.6618   -1.0672   -4.9939 H   0  0  0  1  0  0  0  0  0  0  0  0
   -1.3931    2.7408   -1.3207 C   0  0  0  1  0  0  0  0  0  0  0  0
   -2.7886    2.5704   -1.8680 C   0  0  0  1  0  0  0  0  0  0  0  0
   -3.0333    3.0030   -3.1577 C   0  0  0  1  0  0  0  0  0  0  0  0
   -4.2981    2.8634   -3.7075 C   0  0  0  1  0  0  0  0  0  0  0  0
   -5.3159    2.2965   -2.9639 C   0  0  0  1  0  0  0  0  0  0  0  0
   -5.0707    1.8626   -1.6704 C   0  0  0  1  0  0  0  0  0  0  0  0
   -3.8096    2.0019   -1.1224 C   0  0  0  1  0  0  0  0  0  0  0  0
   -6.6080    2.1590   -3.5229 N   0  0  0  1  0  0  0  0  0  0  0  0
   -0.9132    3.5354   -1.8529 H   0  0  0  1  0  0  0  0  0  0  0  0
   -1.4627    2.9963   -0.2840 H   0  0  0  1  0  0  0  0  0  0  0  0
   -2.2683    3.4332   -3.7157 H   0  0  0  1  0  0  0  0  0  0  0  0
   -4.4811    3.1852   -4.6794 H   0  0  0  1  0  0  0  0  0  0  0  0
   -5.8356    1.4324   -1.1124 H   0  0  0  1  0  0  0  0  0  0  0  0
   -3.6266    1.6800   -0.1506 H   0  0  0  1  0  0  0  0  0  0  0  0
   -7.3386    1.7908   -2.9835 H   0  0  0  1  0  0  0  0  0  0  0  0
   -6.7725    2.4319   -4.4496 H   0  0  0  1  0  0  0  0  0  0  0  0
  1  4  1  0  0  0  0
  2  4  1  0  0  0  0
  2  5  2  0  0  0  0
  2  6  1  0  0  0  0
  3  4  1  0  0  0  0
  3  7  1  0  0  0  0
  3  8  1  0  0  0  0
  4 19  1  0  0  0  0
  6  9  1  0  0  0  0
  6 12  1  0  0  0  0
  8 10  1  0  0  0  0
  8 11  2  0  0  0  0
  9 13  1  0  0  0  0
  9 14  1  0  0  0  0
  9 15  1  0  0  0  0
 10 16  1  0  0  0  0
 10 17  1  0  0  0  0
 10 18  1  0  0  0  0
 19 20  1  0  0  0  0
 19 27  1  0  0  0  0
 19 28  1  0  0  0  0
 20 21  4  0  0  0  0
 20 25  4  0  0  0  0
 21 22  4  0  0  0  0
 21 29  1  0  0  0  0
 22 23  4  0  0  0  0
 22 30  1  0  0  0  0
 23 24  4  0  0  0  0
 23 26  1  0  0  0  0
 24 25  4  0  0  0  0
 24 31  1  0  0  0  0
 25 32  1  0  0  0  0
 26 33  1  0  0  0  0
 26 34  1  0  0  0  0
M  END
> <BCLConfClusterSize>
1

> <ConfClashScore>
0 

> <ConfOneFourInteractionScore>
-0.960318 

> <ConfScore>
-0.0243224 

> <ConfScorePBest>
0.00732118 

> <ConfTolerance>
0.212705 

> <RosettaParamsInstructions>
M  ROOT 3
M  POLY_N_BB 3
M  POLY_CA_BB 4
M  POLY_C_BB 2
M  POLY_O_BB 5
M  POLY_IGNORE 9 10 11 12 13 14 15 16 17 18 
M  POLY_UPPER 6
M  POLY_LOWER 8
M  POLY_CHG 0
M  POLY_PROPERTIES ALPHA_AA D_AA PROTEIN AROMATIC POLYMER 
M  END

$$$$



 34 34  0  0  0  0  0  0  0  0999 V2000
   -0.0778    4.0913   -0.3985 H   0  0  0  1  0  0  0  0  0  0  0  0
   -1.8943    4.2351    0.6564 C   0  0  0  1  0  0  0  0  0  0  0  0
   -1.3860    5.1548   -1.5793 N   0  0  0  1  0  0  0  0  0  0  0  0
   -1.1193    4.0719   -0.6433 C   0  0  0  1  0  0  0  0  0  0  0  0
   -1.5897    3.6007    1.6545 O   0  0  0  1  0  0  0  0  0  0  0  0
   -2.9542    5.0455    0.5858 N   0  0  0  1  0  0  0  0  0  0  0  0
   -1.7292    4.9200   -2.4668 H   0  0  0  1  0  0  0  0  0  0  0  0
   -1.1928    6.4481   -1.3055 C   0  0  0  1  0  0  0  0  0  0  0  0
   -3.8083    5.3101    1.7339 C   0  0  0  1  0  0  0  0  0  0  0  0
   -1.4247    7.4070   -2.4570 C   0  0  0  1  0  0  0  0  0  0  0  0
   -0.8488    6.8538   -0.1962 O   0  0  0  1  0  0  0  0  0  0  0  0
   -3.1637    5.4767   -0.2690 H   0  0  0  1  0  0  0  0  0  0  0  0
   -3.8073    4.4598    2.3834 H   0  0  0  1  0  0  0  0  0  0  0  0
   -4.8064    5.5015    1.3990 H   0  0  0  1  0  0  0  0  0  0  0  0
   -3.4394    6.1636    2.2634 H   0  0  0  1  0  0  0  0  0  0  0  0
   -2.4498    7.3602   -2.7599 H   0  0  0  1  0  0  0  0  0  0  0  0
   -0.7971    7.1345   -3.2796 H   0  0  0  1  0  0  0  0  0  0  0  0
   -1.1907    8.4031   -2.1439 H   0  0  0  1  0  0  0  0  0  0  0  0
   -1.4071    2.7269   -1.2974 C   0  0  0  1  0  0  0  0  0  0  0  0
   -2.7875    2.5739   -1.8779 C   0  0  0  1  0  0  0  0  0  0  0  0
   -3.0486    3.0054   -3.1647 C   0  0  0  1  0  0  0  0  0  0  0  0
   -4.3187    2.8595   -3.7006 C   0  0  0  1  0  0  0  0  0  0  0  0
   -5.3253    2.2872   -2.9460 C   0  0  0  1  0  0  0  0  0  0  0  0
   -5.0637    1.8544   -1.6554 C   0  0  0  1  0  0  0  0  0  0  0  0
   -3.7973    2.0000   -1.1213 C   0  0  0  1  0  0  0  0  0  0  0  0
   -6.5928    2.1690   -3.5358 N   0  0  0  1  0  0  0  0  0  0  0  0
   -1.2736    1.9650   -0.5581 H   0  0  0  1  0  0  0  0  0  0  0  0
   -0.6994    2.5859   -2.0874 H   0  0  0  1  0  0  0  0  0  0  0  0
   -2.2920    3.4397   -3.7310 H   0  0  0  1  0  0  0  0  0  0  0  0
   -4.5140    3.1805   -4.6703 H   0  0  0  1  0  0  0  0  0  0  0  0
   -5.8202    1.4202   -1.0891 H   0  0  0  1  0  0  0  0  0  0  0  0
   -3.6020    1.6790   -0.1515 H   0  0  0  1  0  0  0  0  0  0  0  0
   -7.3517    1.8469   -3.0059 H   0  0  0  1  0  0  0  0  0  0  0  0
   -6.7192    2.4085   -4.4776 H   0  0  0  1  0  0  0  0  0  0  0  0
  1  4  1  0  0  0  0
  2  4  1  0  0  0  0
  2  5  2  0  0  0  0
  2  6  1  0  0  0  0
  3  4  1  0  0  0  0
  3  7  1  0  0  0  0
  3  8  1  0  0  0  0
  4 19  1  0  0  0  0
  6  9  1  0  0  0  0
  6 12  1  0  0  0  0
  8 10  1  0  0  0  0
  8 11  2  0  0  0  0
  9 13  1  0  0  0  0
  9 14  1  0  0  0  0
  9 15  1  0  0  0  0
 10 16  1  0  0  0  0
 10 17  1  0  0  0  0
 10 18  1  0  0  0  0
 19 20  1  0  0  0  0
 19 27  1  0  0  0  0
 19 28  1  0  0  0  0
 20 21  4  0  0  0  0
 20 25  4  0  0  0  0
 21 22  4  0  0  0  0
 21 29  1  0  0  0  0
 22 23  4  0  0  0  0
 22 30  1  0  0  0  0
 23 24  4  0  0  0  0
 23 26  1  0  0  0  0
 24 25  4  0  0  0  0
 24 31  1  0  0  0  0
 25 32  1  0  0  0  0
 26 33  1  0  0  0  0
 26 34  1  0  0  0  0
M  END
> <BCLConfClusterSize>
1

> <ConfClashScore>
0 

> <ConfOneFourInteractionScore>
-0.931937 

> <ConfScore>
0.00201774 

> <ConfScorePBest>
0.0072927 

> <ConfTolerance>
0.18985 

> <RosettaParamsInstructions>
M  ROOT 3
M  POLY_N_BB 3
M  POLY_CA_BB 4
M  POLY_C_BB 2
M  POLY_O_BB 5
M  POLY_IGNORE 9 10 11 12 13 14 15 16 17 18 
M  POLY_UPPER 6
M  POLY_LOWER 8
M  POLY_CHG 0
M  POLY_PROPERTIES ALPHA_AA D_AA PROTEIN AROMATIC POLYMER 
M  END

$$$$



 34 34  0  0  0  0  0  0  0  0999 V2000
   -0.2510    3.9290   -0.0317 H   0  0  0  1  0  0  0  0  0  0  0  0
   -1.8021    3.2444    1.2381 C   0  0  0  1  0  0  0  0  0  0  0  0
   -1.9110    5.0335   -0.5411 N   0  0  0  1  0  0  0  0  0  0  0  0
   -1.2982    3.7433   -0.1495 C   0  0  0  1  0  0  0  0  0  0  0  0
   -1.9462    4.0326    2.1976 O   0  0  0  1  0  0  0  0  0  0  0  0
   -2.0649    1.9316    1.3253 N   0  0  0  1  0  0  0  0  0  0  0  0
   -1.4726    5.5756   -1.2298 H   0  0  0  1  0  0  0  0  0  0  0  0
   -3.0847    5.5016    0.0335 C   0  0  0  1  0  0  0  0  0  0  0  0
   -2.6309    1.3792    2.5469 C   0  0  0  1  0  0  0  0  0  0  0  0
   -3.6092    6.7826   -0.6025 C   0  0  0  1  0  0  0  0  0  0  0  0
   -3.6658    4.9641    0.9586 O   0  0  0  1  0  0  0  0  0  0  0  0
   -1.8752    1.3434    0.5647 H   0  0  0  1  0  0  0  0  0  0  0  0
   -3.5829    1.8300    2.7351 H   0  0  0  1  0  0  0  0  0  0  0  0
   -1.9733    1.5796    3.3668 H   0  0  0  1  0  0  0  0  0  0  0  0
   -2.7527    0.3218    2.4369 H   0  0  0  1  0  0  0  0  0  0  0  0
   -2.9861    7.6042   -0.3168 H   0  0  0  1  0  0  0  0  0  0  0  0
   -4.6102    6.9618   -0.2696 H   0  0  0  1  0  0  0  0  0  0  0  0
   -3.5997    6.6815   -1.6676 H   0  0  0  1  0  0  0  0  0  0  0  0
   -1.4148    2.7173   -1.2707 C   0  0  0  1  0  0  0  0  0  0  0  0
   -2.7863    2.5746   -1.8746 C   0  0  0  1  0  0  0  0  0  0  0  0
   -3.0211    3.0039   -3.1672 C   0  0  0  1  0  0  0  0  0  0  0  0
   -4.2829    2.8673   -3.7246 C   0  0  0  1  0  0  0  0  0  0  0  0
   -5.3076    2.3066   -2.9858 C   0  0  0  1  0  0  0  0  0  0  0  0
   -5.0723    1.8760   -1.6894 C   0  0  0  1  0  0  0  0  0  0  0  0
   -3.8142    2.0122   -1.1337 C   0  0  0  1  0  0  0  0  0  0  0  0
   -6.6149    2.1479   -3.5021 N   0  0  0  1  0  0  0  0  0  0  0  0
   -1.1264    1.7647   -0.8777 H   0  0  0  1  0  0  0  0  0  0  0  0
   -0.7390    3.0016   -2.0500 H   0  0  0  1  0  0  0  0  0  0  0  0
   -2.2510    3.4295   -3.7216 H   0  0  0  1  0  0  0  0  0  0  0  0
   -4.4585    3.1867   -4.6986 H   0  0  0  1  0  0  0  0  0  0  0  0
   -5.8424    1.4504   -1.1349 H   0  0  0  1  0  0  0  0  0  0  0  0
   -3.6386    1.6928   -0.1597 H   0  0  0  1  0  0  0  0  0  0  0  0
   -7.3061    1.7128   -2.9605 H   0  0  0  1  0  0  0  0  0  0  0  0
   -6.8294    2.4732   -4.4013 H   0  0  0  1  0  0  0  0  0  0  0  0
  1  4  1  0  0  0  0
  2  4  1  0  0  0  0
  2  5  2  0  0  0  0
  2  6  1  0  0  0  0
  3  4  1  0  0  0  0
  3  7  1  0  0  0  0
  3  8  1  0  0  0  0
  4 19  1  0  0  0  0
  6  9  1  0  0  0  0
  6 12  1  0  0  0  0
  8 10  1  0  0  0  0
  8 11  2  0  0  0  0
  9 13  1  0  0  0  0
  9 14  1  0  0  0  0
  9 15  1  0  0  0  0
 10 16  1  0  0  0  0
 10 17  1  0  0  0  0
 10 18  1  0  0  0  0
 19 20  1  0  0  0  0
 19 27  1  0  0  0  0
 19 28  1  0  0  0  0
 20 21  4  0  0  0  0
 20 25  4  0  0  0  0
 21 22  4  0  0  0  0
 21 29  1  0  0  0  0
 22 23  4  0  0  0  0
 22 30  1  0  0  0  0
 23 24  4  0  0  0  0
 23 26  1  0  0  0  0
 24 25  4  0  0  0  0
 24 31  1  0  0  0  0
 25 32  1  0  0  0  0
 26 33  1  0  0  0  0
 26 34  1  0  0  0  0
M  END
> <BCLConfClusterSize>
1

> <ConfClashScore>
0.0011723 

> <ConfOneFourInteractionScore>
-0.917907 

> <ConfScore>
0.00514082 

> <ConfScorePBest>
0.00726422 

> <ConfTolerance>
0.235936 

> <RosettaParamsInstructions>
M  ROOT 3
M  POLY_N_BB 3
M  POLY_CA_BB 4
M  POLY_C_BB 2
M  POLY_O_BB 5
M  POLY_IGNORE 9 10 11 12 13 14 15 16 17 18 
M  POLY_UPPER 6
M  POLY_LOWER 8
M  POLY_CHG 0
M  POLY_PROPERTIES ALPHA_AA D_AA PROTEIN AROMATIC POLYMER 
M  END

$$$$



 34 34  0  0  0  0  0  0  0  0999 V2000
   -1.4338    4.8173   -1.2717 H   0  0  0  1  0  0  0  0  0  0  0  0
    0.3148    4.3082   -0.2601 C   0  0  0  1  0  0  0  0  0  0  0  0
   -1.9742    4.2175    0.6162 N   0  0  0  1  0  0  0  0  0  0  0  0
   -1.1420    4.0465   -0.5893 C   0  0  0  1  0  0  0  0  0  0  0  0
    1.2137    3.9719   -1.0298 O   0  0  0  1  0  0  0  0  0  0  0  0
    0.5468    4.9223    0.9109 N   0  0  0  1  0  0  0  0  0  0  0  0
   -2.1690    3.4339    1.1715 H   0  0  0  1  0  0  0  0  0  0  0  0
   -2.4717    5.4036    0.9775 C   0  0  0  1  0  0  0  0  0  0  0  0
    1.8660    5.2213    1.4478 C   0  0  0  1  0  0  0  0  0  0  0  0
   -3.2918    5.4316    2.2790 C   0  0  0  1  0  0  0  0  0  0  0  0
   -2.3325    6.4527    0.3705 O   0  0  0  1  0  0  0  0  0  0  0  0
   -0.2307    5.1894    1.4443 H   0  0  0  1  0  0  0  0  0  0  0  0
    2.1374    4.4748    2.1648 H   0  0  0  1  0  0  0  0  0  0  0  0
    1.8491    6.1807    1.9212 H   0  0  0  1  0  0  0  0  0  0  0  0
    2.5815    5.2281    0.6522 H   0  0  0  1  0  0  0  0  0  0  0  0
   -3.4438    4.4312    2.6268 H   0  0  0  1  0  0  0  0  0  0  0  0
   -4.2395    5.8923    2.0932 H   0  0  0  1  0  0  0  0  0  0  0  0
   -2.7623    5.9907    3.0219 H   0  0  0  1  0  0  0  0  0  0  0  0
   -1.4039    2.7335   -1.3088 C   0  0  0  1  0  0  0  0  0  0  0  0
   -2.7881    2.5750   -1.8788 C   0  0  0  1  0  0  0  0  0  0  0  0
   -3.0576    2.9948   -3.1677 C   0  0  0  1  0  0  0  0  0  0  0  0
   -4.3312    2.8437   -3.6940 C   0  0  0  1  0  0  0  0  0  0  0  0
   -5.3327    2.2780   -2.9277 C   0  0  0  1  0  0  0  0  0  0  0  0
   -5.0624    1.8568   -1.6350 C   0  0  0  1  0  0  0  0  0  0  0  0
   -3.7927    2.0076   -1.1105 C   0  0  0  1  0  0  0  0  0  0  0  0
   -6.5844    2.1766   -3.5528 N   0  0  0  1  0  0  0  0  0  0  0  0
   -1.2403    1.9374   -0.6129 H   0  0  0  1  0  0  0  0  0  0  0  0
   -0.7041    2.6532   -2.1142 H   0  0  0  1  0  0  0  0  0  0  0  0
   -2.3050    3.4242   -3.7429 H   0  0  0  1  0  0  0  0  0  0  0  0
   -4.5330    3.1560   -4.6652 H   0  0  0  1  0  0  0  0  0  0  0  0
   -5.8151    1.4275   -1.0598 H   0  0  0  1  0  0  0  0  0  0  0  0
   -3.5909    1.6953   -0.1392 H   0  0  0  1  0  0  0  0  0  0  0  0
   -7.3369    1.7649   -3.0788 H   0  0  0  1  0  0  0  0  0  0  0  0
   -6.7063    2.5174   -4.4635 H   0  0  0  1  0  0  0  0  0  0  0  0
  1  4  1  0  0  0  0
  2  4  1  0  0  0  0
  2  5  2  0  0  0  0
  2  6  1  0  0  0  0
  3  4  1  0  0  0  0
  3  7  1  0  0  0  0
  3  8  1  0  0  0  0
  4 19  1  0  0  0  0
  6  9  1  0  0  0  0
  6 12  1  0  0  0  0
  8 10  1  0  0  0  0
  8 11  2  0  0  0  0
  9 13  1  0  0  0  0
  9 14  1  0  0  0  0
  9 15  1  0  0  0  0
 10 16  1  0  0  0  0
 10 17  1  0  0  0  0
 10 18  1  0  0  0  0
 19 20  1  0  0  0  0
 19 27  1  0  0  0  0
 19 28  1  0  0  0  0
 20 21  4  0  0  0  0
 20 25  4  0  0  0  0
 21 22  4  0  0  0  0
 21 29  1  0  0  0  0
 22 23  4  0  0  0  0
 22 30  1  0  0  0  0
 23 24  4  0  0  0  0
 23 26  1  0  0  0  0
 24 25  4  0  0  0  0
 24 31  1  0  0  0  0
 25 32  1  0  0  0  0
 26 33  1  0  0  0  0
 26 34  1  0  0  0  0
M  END
> <BCLConfClusterSize>
1

> <ConfClashScore>
0 

> <ConfOneFourInteractionScore>
-0.94165 

> <ConfScore>
0.0182096 

> <ConfScorePBest>
0.00723574 

> <ConfTolerance>
0.269786 

> <RosettaParamsInstructions>
M  ROOT 3
M  POLY_N_BB 3
M  POLY_CA_BB 4
M  POLY_C_BB 2
M  POLY_O_BB 5
M  POLY_IGNORE 9 10 11 12 13 14 15 16 17 18 
M  POLY_UPPER 6
M  POLY_LOWER 8
M  POLY_CHG 0
M  POLY_PROPERTIES ALPHA_AA D_AA PROTEIN AROMATIC POLYMER 
M  END

$$$$



 34 34  0  0  0  0  0  0  0  0999 V2000
   -0.2732    4.0410   -0.0675 H   0  0  0  1  0  0  0  0  0  0  0  0
   -2.0814    3.6418    0.9812 C   0  0  0  1  0  0  0  0  0  0  0  0
   -1.8409    5.0995   -0.9523 N   0  0  0  1  0  0  0  0  0  0  0  0
   -1.3048    3.8912   -0.3087 C   0  0  0  1  0  0  0  0  0  0  0  0
   -1.5144    3.3202    2.0221 O   0  0  0  1  0  0  0  0  0  0  0  0
   -3.4074    3.8078    0.8533 N   0  0  0  1  0  0  0  0  0  0  0  0
   -2.3489    5.0245   -1.7870 H   0  0  0  1  0  0  0  0  0  0  0  0
   -1.6362    6.3047   -0.3992 C   0  0  0  1  0  0  0  0  0  0  0  0
   -4.2396    3.6131    2.0312 C   0  0  0  1  0  0  0  0  0  0  0  0
   -2.0235    7.4960   -1.2537 C   0  0  0  1  0  0  0  0  0  0  0  0
   -1.1663    6.4531    0.7258 O   0  0  0  1  0  0  0  0  0  0  0  0
   -3.8037    4.0532   -0.0087 H   0  0  0  1  0  0  0  0  0  0  0  0
   -3.6454    3.7361    2.9126 H   0  0  0  1  0  0  0  0  0  0  0  0
   -4.6541    2.6267    2.0156 H   0  0  0  1  0  0  0  0  0  0  0  0
   -5.0310    4.3331    2.0315 H   0  0  0  1  0  0  0  0  0  0  0  0
   -1.1635    7.8512   -1.7820 H   0  0  0  1  0  0  0  0  0  0  0  0
   -2.4040    8.2754   -0.6271 H   0  0  0  1  0  0  0  0  0  0  0  0
   -2.7762    7.2019   -1.9550 H   0  0  0  1  0  0  0  0  0  0  0  0
   -1.4178    2.7086   -1.2618 C   0  0  0  1  0  0  0  0  0  0  0  0
   -2.7880    2.5699   -1.8696 C   0  0  0  1  0  0  0  0  0  0  0  0
   -3.0243    3.0235   -3.1536 C   0  0  0  1  0  0  0  0  0  0  0  0
   -4.2849    2.8907   -3.7147 C   0  0  0  1  0  0  0  0  0  0  0  0
   -5.3068    2.3094   -2.9880 C   0  0  0  1  0  0  0  0  0  0  0  0
   -5.0700    1.8544   -1.7003 C   0  0  0  1  0  0  0  0  0  0  0  0
   -3.8131    1.9869   -1.1410 C   0  0  0  1  0  0  0  0  0  0  0  0
   -6.6128    2.1534   -3.5085 N   0  0  0  1  0  0  0  0  0  0  0  0
   -1.1927    1.8129   -0.7213 H   0  0  0  1  0  0  0  0  0  0  0  0
   -0.7067    2.8379   -2.0508 H   0  0  0  1  0  0  0  0  0  0  0  0
   -2.2563    3.4646   -3.6988 H   0  0  0  1  0  0  0  0  0  0  0  0
   -4.4616    3.2284   -4.6823 H   0  0  0  1  0  0  0  0  0  0  0  0
   -5.8379    1.4134   -1.1550 H   0  0  0  1  0  0  0  0  0  0  0  0
   -3.6363    1.6492   -0.1733 H   0  0  0  1  0  0  0  0  0  0  0  0
   -6.8492    2.5593   -4.3686 H   0  0  0  1  0  0  0  0  0  0  0  0
   -7.2812    1.6394   -3.0091 H   0  0  0  1  0  0  0  0  0  0  0  0
  1  4  1  0  0  0  0
  2  4  1  0  0  0  0
  2  5  2  0  0  0  0
  2  6  1  0  0  0  0
  3  4  1  0  0  0  0
  3  7  1  0  0  0  0
  3  8  1  0  0  0  0
  4 19  1  0  0  0  0
  6  9  1  0  0  0  0
  6 12  1  0  0  0  0
  8 10  1  0  0  0  0
  8 11  2  0  0  0  0
  9 13  1  0  0  0  0
  9 14  1  0  0  0  0
  9 15  1  0  0  0  0
 10 16  1  0  0  0  0
 10 17  1  0  0  0  0
 10 18  1  0  0  0  0
 19 20  1  0  0  0  0
 19 27  1  0  0  0  0
 19 28  1  0  0  0  0
 20 21  4  0  0  0  0
 20 25  4  0  0  0  0
 21 22  4  0  0  0  0
 21 29  1  0  0  0  0
 22 23  4  0  0  0  0
 22 30  1  0  0  0  0
 23 24  4  0  0  0  0
 23 26  1  0  0  0  0
 24 25  4  0  0  0  0
 24 31  1  0  0  0  0
 25 32  1  0  0  0  0
 26 33  1  0  0  0  0
 26 34  1  0  0  0  0
M  END
> <BCLConfClusterSize>
1

> <ConfClashScore>
0 

> <ConfOneFourInteractionScore>
-0.931937 

> <ConfScore>
0.0386288 

> <ConfScorePBest>
0.00720726 

> <ConfTolerance>
0.278508 

> <RosettaParamsInstructions>
M  ROOT 3
M  POLY_N_BB 3
M  POLY_CA_BB 4
M  POLY_C_BB 2
M  POLY_O_BB 5
M  POLY_IGNORE 9 10 11 12 13 14 15 16 17 18 
M  POLY_UPPER 6
M  POLY_LOWER 8
M  POLY_CHG 0
M  POLY_PROPERTIES ALPHA_AA D_AA PROTEIN AROMATIC POLYMER 
M  END

$$$$



 34 34  0  0  0  0  0  0  0  0999 V2000
   -0.4230    3.9050    0.1765 H   0  0  0  1  0  0  0  0  0  0  0  0
   -2.4985    3.8920    0.5826 C   0  0  0  1  0  0  0  0  0  0  0  0
   -1.3263    5.1619   -1.2002 N   0  0  0  1  0  0  0  0  0  0  0  0
   -1.3325    3.9565   -0.3848 C   0  0  0  1  0  0  0  0  0  0  0  0
   -2.5478    3.0315    1.4477 O   0  0  0  1  0  0  0  0  0  0  0  0
   -3.4678    4.8033    0.4596 N   0  0  0  1  0  0  0  0  0  0  0  0
   -1.2465    5.0744   -2.1730 H   0  0  0  1  0  0  0  0  0  0  0  0
   -1.4257    6.3836   -0.6686 C   0  0  0  1  0  0  0  0  0  0  0  0
   -4.5496    4.9227    1.4257 C   0  0  0  1  0  0  0  0  0  0  0  0
   -1.5401    7.5545   -1.6364 C   0  0  0  1  0  0  0  0  0  0  0  0
   -1.3456    6.5845    0.5420 O   0  0  0  1  0  0  0  0  0  0  0  0
   -3.4496    5.4125   -0.3078 H   0  0  0  1  0  0  0  0  0  0  0  0
   -4.4694    4.1397    2.1504 H   0  0  0  1  0  0  0  0  0  0  0  0
   -5.4893    4.8452    0.9198 H   0  0  0  1  0  0  0  0  0  0  0  0
   -4.4857    5.8711    1.9170 H   0  0  0  1  0  0  0  0  0  0  0  0
   -0.7183    7.5334   -2.3213 H   0  0  0  1  0  0  0  0  0  0  0  0
   -1.5235    8.4731   -1.0880 H   0  0  0  1  0  0  0  0  0  0  0  0
   -2.4588    7.4793   -2.1797 H   0  0  0  1  0  0  0  0  0  0  0  0
   -1.4050    2.7279   -1.2964 C   0  0  0  1  0  0  0  0  0  0  0  0
   -2.7854    2.5746   -1.8768 C   0  0  0  1  0  0  0  0  0  0  0  0
   -3.0454    3.0020   -3.1653 C   0  0  0  1  0  0  0  0  0  0  0  0
   -4.3154    2.8557   -3.7012 C   0  0  0  1  0  0  0  0  0  0  0  0
   -5.3231    2.2872   -2.9450 C   0  0  0  1  0  0  0  0  0  0  0  0
   -5.0625    1.8586   -1.6527 C   0  0  0  1  0  0  0  0  0  0  0  0
   -3.7962    2.0046   -1.1186 C   0  0  0  1  0  0  0  0  0  0  0  0
   -6.6009    2.1675   -3.5397 N   0  0  0  1  0  0  0  0  0  0  0  0
   -1.1646    1.8542   -0.7273 H   0  0  0  1  0  0  0  0  0  0  0  0
   -0.6998    2.8403   -2.0932 H   0  0  0  1  0  0  0  0  0  0  0  0
   -2.2881    3.4333   -3.7328 H   0  0  0  1  0  0  0  0  0  0  0  0
   -4.5100    3.1735   -4.6721 H   0  0  0  1  0  0  0  0  0  0  0  0
   -5.8197    1.4273   -1.0852 H   0  0  0  1  0  0  0  0  0  0  0  0
   -3.6016    1.6867   -0.1477 H   0  0  0  1  0  0  0  0  0  0  0  0
   -7.3484    1.7982   -3.0247 H   0  0  0  1  0  0  0  0  0  0  0  0
   -6.7387    2.4540   -4.4667 H   0  0  0  1  0  0  0  0  0  0  0  0
  1  4  1  0  0  0  0
  2  4  1  0  0  0  0
  2  5  2  0  0  0  0
  2  6  1  0  0  0  0
  3  4  1  0  0  0  0
  3  7  1  0  0  0  0
  3  8  1  0  0  0  0
  4 19  1  0  0  0  0
  6  9  1  0  0  0  0
  6 12  1  0  0  0  0
  8 10  1  0  0  0  0
  8 11  2  0  0  0  0
  9 13  1  0  0  0  0
  9 14  1  0  0  0  0
  9 15  1  0  0  0  0
 10 16  1  0  0  0  0
 10 17  1  0  0  0  0
 10 18  1  0  0  0  0
 19 20  1  0  0  0  0
 19 27  1  0  0  0  0
 19 28  1  0  0  0  0
 20 21  4  0  0  0  0
 20 25  4  0  0  0  0
 21 22  4  0  0  0  0
 21 29  1  0  0  0  0
 22 23  4  0  0  0  0
 22 30  1  0  0  0  0
 23 24  4  0  0  0  0
 23 26  1  0  0  0  0
 24 25  4  0  0  0  0
 24 31  1  0  0  0  0
 25 32  1  0  0  0  0
 26 33  1  0  0  0  0
 26 34  1  0  0  0  0
M  END
> <BCLConfClusterSize>
1

> <ConfClashScore>
0 

> <ConfOneFourInteractionScore>
-0.957074 

> <ConfScore>
0.0440217 

> <ConfScorePBest>
0.00717878 

> <ConfTolerance>
0.230194 

> <RosettaParamsInstructions>
M  ROOT 3
M  POLY_N_BB 3
M  POLY_CA_BB 4
M  POLY_C_BB 2
M  POLY_O_BB 5
M  POLY_IGNORE 9 10 11 12 13 14 15 16 17 18 
M  POLY_UPPER 6
M  POLY_LOWER 8
M  POLY_CHG 0
M  POLY_PROPERTIES ALPHA_AA D_AA PROTEIN AROMATIC POLYMER 
M  END

$$$$



 34 34  0  0  0  0  0  0  0  0999 V2000
   -0.5239    1.2948   -2.4784 H   0  0  0  1  0  0  0  0  0  0  0  0
   -0.9421    0.4078   -0.6344 C   0  0  0  1  0  0  0  0  0  0  0  0
    0.9162    1.9553   -1.1852 N   0  0  0  1  0  0  0  0  0  0  0  0
   -0.4686    1.5935   -1.4524 C   0  0  0  1  0  0  0  0  0  0  0  0
   -0.5828   -0.7401   -0.9044 O   0  0  0  1  0  0  0  0  0  0  0  0
   -1.7658    0.6950    0.3860 N   0  0  0  1  0  0  0  0  0  0  0  0
    1.0970    2.8546   -0.8402 H   0  0  0  1  0  0  0  0  0  0  0  0
    1.9561    1.1395   -1.3805 C   0  0  0  1  0  0  0  0  0  0  0  0
   -2.2424   -0.3229    1.3105 C   0  0  0  1  0  0  0  0  0  0  0  0
    3.3169    1.7130   -1.0363 C   0  0  0  1  0  0  0  0  0  0  0  0
    1.8369   -0.0047   -1.8104 O   0  0  0  1  0  0  0  0  0  0  0  0
   -2.0562    1.6223    0.5128 H   0  0  0  1  0  0  0  0  0  0  0  0
   -1.4444   -0.6178    1.9594 H   0  0  0  1  0  0  0  0  0  0  0  0
   -2.5857   -1.1729    0.7587 H   0  0  0  1  0  0  0  0  0  0  0  0
   -3.0475    0.0737    1.8931 H   0  0  0  1  0  0  0  0  0  0  0  0
    3.5216    1.5491    0.0011 H   0  0  0  1  0  0  0  0  0  0  0  0
    3.3226    2.7636   -1.2391 H   0  0  0  1  0  0  0  0  0  0  0  0
    4.0669    1.2309   -1.6281 H   0  0  0  1  0  0  0  0  0  0  0  0
   -1.4056    2.7813   -1.3069 C   0  0  0  1  0  0  0  0  0  0  0  0
   -2.7903    2.5828   -1.8629 C   0  0  0  1  0  0  0  0  0  0  0  0
   -3.0304    2.9964   -3.1597 C   0  0  0  1  0  0  0  0  0  0  0  0
   -4.2880    2.8302   -3.7186 C   0  0  0  1  0  0  0  0  0  0  0  0
   -5.3032    2.2558   -2.9772 C   0  0  0  1  0  0  0  0  0  0  0  0
   -5.0625    1.8409   -1.6767 C   0  0  0  1  0  0  0  0  0  0  0  0
   -3.8086    2.0067   -1.1195 C   0  0  0  1  0  0  0  0  0  0  0  0
   -6.6190    2.1786   -3.5187 N   0  0  0  1  0  0  0  0  0  0  0  0
   -0.9633    3.6144   -1.8122 H   0  0  0  1  0  0  0  0  0  0  0  0
   -1.4973    3.0036   -0.2643 H   0  0  0  1  0  0  0  0  0  0  0  0
   -2.2676    3.4323   -3.7161 H   0  0  0  1  0  0  0  0  0  0  0  0
   -4.4676    3.1378   -4.6958 H   0  0  0  1  0  0  0  0  0  0  0  0
   -5.8254    1.4050   -1.1202 H   0  0  0  1  0  0  0  0  0  0  0  0
   -3.6291    1.6991   -0.1424 H   0  0  0  1  0  0  0  0  0  0  0  0
   -7.3372    1.7564   -3.0027 H   0  0  0  1  0  0  0  0  0  0  0  0
   -6.8057    2.5478   -4.4071 H   0  0  0  1  0  0  0  0  0  0  0  0
  1  4  1  0  0  0  0
  2  4  1  0  0  0  0
  2  5  2  0  0  0  0
  2  6  1  0  0  0  0
  3  4  1  0  0  0  0
  3  7  1  0  0  0  0
  3  8  1  0  0  0  0
  4 19  1  0  0  0  0
  6  9  1  0  0  0  0
  6 12  1  0  0  0  0
  8 10  1  0  0  0  0
  8 11  2  0  0  0  0
  9 13  1  0  0  0  0
  9 14  1  0  0  0  0
  9 15  1  0  0  0  0
 10 16  1  0  0  0  0
 10 17  1  0  0  0  0
 10 18  1  0  0  0  0
 19 20  1  0  0  0  0
 19 27  1  0  0  0  0
 19 28  1  0  0  0  0
 20 21  4  0  0  0  0
 20 25  4  0  0  0  0
 21 22  4  0  0  0  0
 21 29  1  0  0  0  0
 22 23  4  0  0  0  0
 22 30  1  0  0  0  0
 23 24  4  0  0  0  0
 23 26  1  0  0  0  0
 24 25  4  0  0  0  0
 24 31  1  0  0  0  0
 25 32  1  0  0  0  0
 26 33  1  0  0  0  0
 26 34  1  0  0  0  0
M  END
> <BCLConfClusterSize>
1

> <ConfClashScore>
0.001059 

> <ConfOneFourInteractionScore>
-0.952541 

> <ConfScore>
0.0456894 

> <ConfScorePBest>
0.0071503 

> <ConfTolerance>
0.313921 

> <RosettaParamsInstructions>
M  ROOT 3
M  POLY_N_BB 3
M  POLY_CA_BB 4
M  POLY_C_BB 2
M  POLY_O_BB 5
M  POLY_IGNORE 9 10 11 12 13 14 15 16 17 18 
M  POLY_UPPER 6
M  POLY_LOWER 8
M  POLY_CHG 0
M  POLY_PROPERTIES ALPHA_AA D_AA PROTEIN AROMATIC POLYMER 
M  END

$$$$



 34 34  0  0  0  0  0  0  0  0999 V2000
   -0.2211    4.0152   -0.1780 H   0  0  0  1  0  0  0  0  0  0  0  0
   -2.1502    4.5163    0.3896 C   0  0  0  1  0  0  0  0  0  0  0  0
   -0.9601    5.1360   -1.7219 N   0  0  0  1  0  0  0  0  0  0  0  0
   -1.1605    4.0958   -0.6839 C   0  0  0  1  0  0  0  0  0  0  0  0
   -2.1684    3.9834    1.4868 O   0  0  0  1  0  0  0  0  0  0  0  0
   -2.9678    5.4994    0.0094 N   0  0  0  1  0  0  0  0  0  0  0  0
   -0.9925    4.8746   -2.6658 H   0  0  0  1  0  0  0  0  0  0  0  0
   -0.7347    6.4295   -1.4118 C   0  0  0  1  0  0  0  0  0  0  0  0
   -3.9952    6.0995    0.8474 C   0  0  0  1  0  0  0  0  0  0  0  0
   -0.3073    7.3655   -2.5255 C   0  0  0  1  0  0  0  0  0  0  0  0
   -0.8712    6.8401   -0.2601 O   0  0  0  1  0  0  0  0  0  0  0  0
   -2.8692    5.8434   -0.9029 H   0  0  0  1  0  0  0  0  0  0  0  0
   -3.5741    6.3634    1.7950 H   0  0  0  1  0  0  0  0  0  0  0  0
   -4.7903    5.3985    0.9935 H   0  0  0  1  0  0  0  0  0  0  0  0
   -4.3766    6.9778    0.3699 H   0  0  0  1  0  0  0  0  0  0  0  0
   -1.0736    8.0928   -2.6947 H   0  0  0  1  0  0  0  0  0  0  0  0
   -0.1456    6.8031   -3.4214 H   0  0  0  1  0  0  0  0  0  0  0  0
    0.5991    7.8611   -2.2465 H   0  0  0  1  0  0  0  0  0  0  0  0
   -1.4143    2.7131   -1.2701 C   0  0  0  1  0  0  0  0  0  0  0  0
   -2.7882    2.5694   -1.8682 C   0  0  0  1  0  0  0  0  0  0  0  0
   -3.0350    3.0213   -3.1509 C   0  0  0  1  0  0  0  0  0  0  0  0
   -4.2990    2.8838   -3.7031 C   0  0  0  1  0  0  0  0  0  0  0  0
   -5.3139    2.2996   -2.9689 C   0  0  0  1  0  0  0  0  0  0  0  0
   -5.0665    1.8464   -1.6825 C   0  0  0  1  0  0  0  0  0  0  0  0
   -3.8062    1.9836   -1.1321 C   0  0  0  1  0  0  0  0  0  0  0  0
   -6.6051    2.1643   -3.5303 N   0  0  0  1  0  0  0  0  0  0  0  0
   -1.3043    1.9876   -0.4915 H   0  0  0  1  0  0  0  0  0  0  0  0
   -0.6890    2.5291   -2.0349 H   0  0  0  1  0  0  0  0  0  0  0  0
   -2.2723    3.4645   -3.7018 H   0  0  0  1  0  0  0  0  0  0  0  0
   -4.4837    3.2202   -4.6698 H   0  0  0  1  0  0  0  0  0  0  0  0
   -5.8292    1.4032   -1.1316 H   0  0  0  1  0  0  0  0  0  0  0  0
   -3.6216    1.6472   -0.1655 H   0  0  0  1  0  0  0  0  0  0  0  0
   -6.8158    2.5959   -4.3846 H   0  0  0  1  0  0  0  0  0  0  0  0
   -7.2891    1.6388   -3.0650 H   0  0  0  1  0  0  0  0  0  0  0  0
  1  4  1  0  0  0  0
  2  4  1  0  0  0  0
  2  5  2  0  0  0  0
  2  6  1  0  0  0  0
  3  4  1  0  0  0  0
  3  7  1  0  0  0  0
  3  8  1  0  0  0  0
  4 19  1  0  0  0  0
  6  9  1  0  0  0  0
  6 12  1  0  0  0  0
  8 10  1  0  0  0  0
  8 11  2  0  0  0  0
  9 13  1  0  0  0  0
  9 14  1  0  0  0  0
  9 15  1  0  0  0  0
 10 16  1  0  0  0  0
 10 17  1  0  0  0  0
 10 18  1  0  0  0  0
 19 20  1  0  0  0  0
 19 27  1  0  0  0  0
 19 28  1  0  0  0  0
 20 21  4  0  0  0  0
 20 25  4  0  0  0  0
 21 22  4  0  0  0  0
 21 29  1  0  0  0  0
 22 23  4  0  0  0  0
 22 30  1  0  0  0  0
 23 24  4  0  0  0  0
 23 26  1  0  0  0  0
 24 25  4  0  0  0  0
 24 31  1  0  0  0  0
 25 32  1  0  0  0  0
 26 33  1  0  0  0  0
 26 34  1  0  0  0  0
M  END
> <BCLConfClusterSize>
1

> <ConfClashScore>
0 

> <ConfOneFourInteractionScore>
-0.957074 

> <ConfScore>
0.0472472 

> <ConfScorePBest>
0.00712182 

> <ConfTolerance>
0.25042 

> <RosettaParamsInstructions>
M  ROOT 3
M  POLY_N_BB 3
M  POLY_CA_BB 4
M  POLY_C_BB 2
M  POLY_O_BB 5
M  POLY_IGNORE 9 10 11 12 13 14 15 16 17 18 
M  POLY_UPPER 6
M  POLY_LOWER 8
M  POLY_CHG 0
M  POLY_PROPERTIES ALPHA_AA D_AA PROTEIN AROMATIC POLYMER 
M  END

$$$$



 34 34  0  0  0  0  0  0  0  0999 V2000
   -1.1467    4.7693   -1.5348 H   0  0  0  1  0  0  0  0  0  0  0  0
    0.4041    4.0870   -0.2444 C   0  0  0  1  0  0  0  0  0  0  0  0
   -1.9397    4.3652    0.3545 N   0  0  0  1  0  0  0  0  0  0  0  0
   -1.0345    4.0420   -0.7581 C   0  0  0  1  0  0  0  0  0  0  0  0
    0.7940    4.9989    0.4799 O   0  0  0  1  0  0  0  0  0  0  0  0
    1.1913    3.0802   -0.6341 N   0  0  0  1  0  0  0  0  0  0  0  0
   -2.7685    4.8521    0.1638 H   0  0  0  1  0  0  0  0  0  0  0  0
   -1.6714    4.0177    1.6177 C   0  0  0  1  0  0  0  0  0  0  0  0
    2.5304    2.9990   -0.0701 C   0  0  0  1  0  0  0  0  0  0  0  0
   -2.7167    4.4080    2.6445 C   0  0  0  1  0  0  0  0  0  0  0  0
   -0.6473    3.4194    1.9448 O   0  0  0  1  0  0  0  0  0  0  0  0
    0.8758    2.4153   -1.2813 H   0  0  0  1  0  0  0  0  0  0  0  0
    2.7185    3.8650    0.5295 H   0  0  0  1  0  0  0  0  0  0  0  0
    3.2483    2.9510   -0.8620 H   0  0  0  1  0  0  0  0  0  0  0  0
    2.6089    2.1213    0.5369 H   0  0  0  1  0  0  0  0  0  0  0  0
   -3.6531    3.9573    2.3899 H   0  0  0  1  0  0  0  0  0  0  0  0
   -2.8249    5.4724    2.6561 H   0  0  0  1  0  0  0  0  0  0  0  0
   -2.4096    4.0696    3.6120 H   0  0  0  1  0  0  0  0  0  0  0  0
   -1.3805    2.6690   -1.3193 C   0  0  0  1  0  0  0  0  0  0  0  0
   -2.7966    2.5858   -1.8546 C   0  0  0  1  0  0  0  0  0  0  0  0
   -3.0359    3.0226   -3.1439 C   0  0  0  1  0  0  0  0  0  0  0  0
   -4.2962    2.8765   -3.7026 C   0  0  0  1  0  0  0  0  0  0  0  0
   -5.3147    2.2989   -2.9682 C   0  0  0  1  0  0  0  0  0  0  0  0
   -5.0748    1.8608   -1.6752 C   0  0  0  1  0  0  0  0  0  0  0  0
   -3.8182    2.0065   -1.1184 C   0  0  0  1  0  0  0  0  0  0  0  0
   -6.6021    2.1548   -3.5363 N   0  0  0  1  0  0  0  0  0  0  0  0
   -1.2678    1.9443   -0.5402 H   0  0  0  1  0  0  0  0  0  0  0  0
   -0.7017    2.4457   -2.1158 H   0  0  0  1  0  0  0  0  0  0  0  0
   -2.2705    3.4609   -3.6949 H   0  0  0  1  0  0  0  0  0  0  0  0
   -4.4752    3.2016   -4.6741 H   0  0  0  1  0  0  0  0  0  0  0  0
   -5.8402    1.4225   -1.1242 H   0  0  0  1  0  0  0  0  0  0  0  0
   -3.6392    1.6815   -0.1468 H   0  0  0  1  0  0  0  0  0  0  0  0
   -6.7714    2.4633   -4.4509 H   0  0  0  1  0  0  0  0  0  0  0  0
   -7.3247    1.7465   -3.0152 H   0  0  0  1  0  0  0  0  0  0  0  0
  1  4  1  0  0  0  0
  2  4  1  0  0  0  0
  2  5  2  0  0  0  0
  2  6  1  0  0  0  0
  3  4  1  0  0  0  0
  3  7  1  0  0  0  0
  3  8  1  0  0  0  0
  4 19  1  0  0  0  0
  6  9  1  0  0  0  0
  6 12  1  0  0  0  0
  8 10  1  0  0  0  0
  8 11  2  0  0  0  0
  9 13  1  0  0  0  0
  9 14  1  0  0  0  0
  9 15  1  0  0  0  0
 10 16  1  0  0  0  0
 10 17  1  0  0  0  0
 10 18  1  0  0  0  0
 19 20  1  0  0  0  0
 19 27  1  0  0  0  0
 19 28  1  0  0  0  0
 20 21  4  0  0  0  0
 20 25  4  0  0  0  0
 21 22  4  0  0  0  0
 21 29  1  0  0  0  0
 22 23  4  0  0  0  0
 22 30  1  0  0  0  0
 23 24  4  0  0  0  0
 23 26  1  0  0  0  0
 24 25  4  0  0  0  0
 24 31  1  0  0  0  0
 25 32  1  0  0  0  0
 26 33  1  0  0  0  0
 26 34  1  0  0  0  0
M  END
> <BCLConfClusterSize>
1

> <ConfClashScore>
0.00150972 

> <ConfOneFourInteractionScore>
-0.927621 

> <ConfScore>
0.0536542 

> <ConfScorePBest>
0.00709334 

> <ConfTolerance>
0.262768 

> <RosettaParamsInstructions>
M  ROOT 3
M  POLY_N_BB 3
M  POLY_CA_BB 4
M  POLY_C_BB 2
M  POLY_O_BB 5
M  POLY_IGNORE 9 10 11 12 13 14 15 16 17 18 
M  POLY_UPPER 6
M  POLY_LOWER 8
M  POLY_CHG 0
M  POLY_PROPERTIES ALPHA_AA D_AA PROTEIN AROMATIC POLYMER 
M  END

$$$$



 34 34  0  0  0  0  0  0  0  0999 V2000
    0.4983    3.5162   -1.6923 H   0  0  0  1  0  0  0  0  0  0  0  0
   -0.9018    4.8563   -2.5051 C   0  0  0  1  0  0  0  0  0  0  0  0
   -0.2244    2.6647   -3.4292 N   0  0  0  1  0  0  0  0  0  0  0  0
   -0.4370    3.4441   -2.2070 C   0  0  0  1  0  0  0  0  0  0  0  0
   -0.4420    5.4833   -3.4558 O   0  0  0  1  0  0  0  0  0  0  0  0
   -1.8291    5.3988   -1.6997 N   0  0  0  1  0  0  0  0  0  0  0  0
   -0.7482    1.8479   -3.5664 H   0  0  0  1  0  0  0  0  0  0  0  0
    0.6675    3.0324   -4.3725 C   0  0  0  1  0  0  0  0  0  0  0  0
   -2.2896    6.7703   -1.8577 C   0  0  0  1  0  0  0  0  0  0  0  0
    0.9885    2.0418   -5.4747 C   0  0  0  1  0  0  0  0  0  0  0  0
    1.2049    4.1363   -4.3415 O   0  0  0  1  0  0  0  0  0  0  0  0
   -2.2090    4.8523   -0.9805 H   0  0  0  1  0  0  0  0  0  0  0  0
   -1.5632    7.4404   -1.4477 H   0  0  0  1  0  0  0  0  0  0  0  0
   -3.2199    6.8953   -1.3441 H   0  0  0  1  0  0  0  0  0  0  0  0
   -2.4242    6.9834   -2.8976 H   0  0  0  1  0  0  0  0  0  0  0  0
    0.5321    2.3630   -6.3876 H   0  0  0  1  0  0  0  0  0  0  0  0
    0.6111    1.0769   -5.2077 H   0  0  0  1  0  0  0  0  0  0  0  0
    2.0489    1.9866   -5.6065 H   0  0  0  1  0  0  0  0  0  0  0  0
   -1.4094    2.7217   -1.2837 C   0  0  0  1  0  0  0  0  0  0  0  0
   -2.7855    2.5741   -1.8758 C   0  0  0  1  0  0  0  0  0  0  0  0
   -3.0341    3.0070   -3.1646 C   0  0  0  1  0  0  0  0  0  0  0  0
   -4.3002    2.8660   -3.7112 C   0  0  0  1  0  0  0  0  0  0  0  0
   -5.3153    2.2972   -2.9652 C   0  0  0  1  0  0  0  0  0  0  0  0
   -5.0661    1.8631   -1.6726 C   0  0  0  1  0  0  0  0  0  0  0  0
   -3.8037    2.0038   -1.1278 C   0  0  0  1  0  0  0  0  0  0  0  0
   -6.6086    2.1582   -3.5209 N   0  0  0  1  0  0  0  0  0  0  0  0
   -1.4886    3.2758   -0.3718 H   0  0  0  1  0  0  0  0  0  0  0  0
   -1.0214    1.7463   -1.0765 H   0  0  0  1  0  0  0  0  0  0  0  0
   -2.2712    3.4386   -3.7244 H   0  0  0  1  0  0  0  0  0  0  0  0
   -4.4862    3.1880   -4.6824 H   0  0  0  1  0  0  0  0  0  0  0  0
   -5.8289    1.4315   -1.1128 H   0  0  0  1  0  0  0  0  0  0  0  0
   -3.6177    1.6817   -0.1566 H   0  0  0  1  0  0  0  0  0  0  0  0
   -7.3416    1.8059   -2.9741 H   0  0  0  1  0  0  0  0  0  0  0  0
   -6.7717    2.4143   -4.4527 H   0  0  0  1  0  0  0  0  0  0  0  0
  1  4  1  0  0  0  0
  2  4  1  0  0  0  0
  2  5  2  0  0  0  0
  2  6  1  0  0  0  0
  3  4  1  0  0  0  0
  3  7  1  0  0  0  0
  3  8  1  0  0  0  0
  4 19  1  0  0  0  0
  6  9  1  0  0  0  0
  6 12  1  0  0  0  0
  8 10  1  0  0  0  0
  8 11  2  0  0  0  0
  9 13  1  0  0  0  0
  9 14  1  0  0  0  0
  9 15  1  0  0  0  0
 10 16  1  0  0  0  0
 10 17  1  0  0  0  0
 10 18  1  0  0  0  0
 19 20  1  0  0  0  0
 19 27  1  0  0  0  0
 19 28  1  0  0  0  0
 20 21  4  0  0  0  0
 20 25  4  0  0  0  0
 21 22  4  0  0  0  0
 21 29  1  0  0  0  0
 22 23  4  0  0  0  0
 22 30  1  0  0  0  0
 23 24  4  0  0  0  0
 23 26  1  0  0  0  0
 24 25  4  0  0  0  0
 24 31  1  0  0  0  0
 25 32  1  0  0  0  0
 26 33  1  0  0  0  0
 26 34  1  0  0  0  0
M  END
> <BCLConfClusterSize>
1

> <ConfClashScore>
0 

> <ConfOneFourInteractionScore>
-0.935386 

> <ConfScore>
0.0653581 

> <ConfScorePBest>
0.00706485 

> <ConfTolerance>
0.404403 

> <RosettaParamsInstructions>
M  ROOT 3
M  POLY_N_BB 3
M  POLY_CA_BB 4
M  POLY_C_BB 2
M  POLY_O_BB 5
M  POLY_IGNORE 9 10 11 12 13 14 15 16 17 18 
M  POLY_UPPER 6
M  POLY_LOWER 8
M  POLY_CHG 0
M  POLY_PROPERTIES ALPHA_AA D_AA PROTEIN AROMATIC POLYMER 
M  END

$$$$



 34 34  0  0  0  0  0  0  0  0999 V2000
   -1.3208    0.8797   -0.2321 H   0  0  0  1  0  0  0  0  0  0  0  0
    0.6355    1.6478   -0.2860 C   0  0  0  1  0  0  0  0  0  0  0  0
   -0.5991    0.5848   -2.1358 N   0  0  0  1  0  0  0  0  0  0  0  0
   -0.7121    1.4034   -0.9394 C   0  0  0  1  0  0  0  0  0  0  0  0
    0.7313    2.3514    0.7161 O   0  0  0  1  0  0  0  0  0  0  0  0
    1.7224    1.0701   -0.8385 N   0  0  0  1  0  0  0  0  0  0  0  0
   -0.4873    1.0110   -3.0112 H   0  0  0  1  0  0  0  0  0  0  0  0
   -0.6477   -0.7529   -2.0439 C   0  0  0  1  0  0  0  0  0  0  0  0
    3.0255    1.2102   -0.2059 C   0  0  0  1  0  0  0  0  0  0  0  0
   -0.4251   -1.5003   -3.3568 C   0  0  0  1  0  0  0  0  0  0  0  0
   -0.9236   -1.3578   -1.0097 O   0  0  0  1  0  0  0  0  0  0  0  0
    1.6341    0.5550   -1.6676 H   0  0  0  1  0  0  0  0  0  0  0  0
    2.9093    1.6697    0.7534 H   0  0  0  1  0  0  0  0  0  0  0  0
    3.6556    1.8199   -0.8192 H   0  0  0  1  0  0  0  0  0  0  0  0
    3.4696    0.2441   -0.0869 H   0  0  0  1  0  0  0  0  0  0  0  0
    0.2842   -0.9677   -3.9552 H   0  0  0  1  0  0  0  0  0  0  0  0
   -1.3523   -1.5757   -3.8856 H   0  0  0  1  0  0  0  0  0  0  0  0
   -0.0514   -2.4813   -3.1495 H   0  0  0  1  0  0  0  0  0  0  0  0
   -1.4183    2.7103   -1.2610 C   0  0  0  1  0  0  0  0  0  0  0  0
   -2.7882    2.5708   -1.8692 C   0  0  0  1  0  0  0  0  0  0  0  0
   -3.0222    3.0162   -3.1565 C   0  0  0  1  0  0  0  0  0  0  0  0
   -4.2826    2.8826   -3.7179 C   0  0  0  1  0  0  0  0  0  0  0  0
   -5.3066    2.3088   -2.9883 C   0  0  0  1  0  0  0  0  0  0  0  0
   -5.0721    1.8621   -1.6972 C   0  0  0  1  0  0  0  0  0  0  0  0
   -3.8155    1.9954   -1.1376 C   0  0  0  1  0  0  0  0  0  0  0  0
   -6.6125    2.1524   -3.5090 N   0  0  0  1  0  0  0  0  0  0  0  0
   -0.8060    3.2558   -1.9483 H   0  0  0  1  0  0  0  0  0  0  0  0
   -1.5159    3.2653   -0.3514 H   0  0  0  1  0  0  0  0  0  0  0  0
   -2.2526    3.4515   -3.7040 H   0  0  0  1  0  0  0  0  0  0  0  0
   -4.4576    3.2141   -4.6880 H   0  0  0  1  0  0  0  0  0  0  0  0
   -5.8417    1.4267   -1.1497 H   0  0  0  1  0  0  0  0  0  0  0  0
   -3.6405    1.6639   -0.1675 H   0  0  0  1  0  0  0  0  0  0  0  0
   -6.8211    2.4701   -4.4123 H   0  0  0  1  0  0  0  0  0  0  0  0
   -7.3086    1.7264   -2.9664 H   0  0  0  1  0  0  0  0  0  0  0  0
  1  4  1  0  0  0  0
  2  4  1  0  0  0  0
  2  5  2  0  0  0  0
  2  6  1  0  0  0  0
  3  4  1  0  0  0  0
  3  7  1  0  0  0  0
  3  8  1  0  0  0  0
  4 19  1  0  0  0  0
  6  9  1  0  0  0  0
  6 12  1  0  0  0  0
  8 10  1  0  0  0  0
  8 11  2  0  0  0  0
  9 13  1  0  0  0  0
  9 14  1  0  0  0  0
  9 15  1  0  0  0  0
 10 16  1  0  0  0  0
 10 17  1  0  0  0  0
 10 18  1  0  0  0  0
 19 20  1  0  0  0  0
 19 27  1  0  0  0  0
 19 28  1  0  0  0  0
 20 21  4  0  0  0  0
 20 25  4  0  0  0  0
 21 22  4  0  0  0  0
 21 29  1  0  0  0  0
 22 23  4  0  0  0  0
 22 30  1  0  0  0  0
 23 24  4  0  0  0  0
 23 26  1  0  0  0  0
 24 25  4  0  0  0  0
 24 31  1  0  0  0  0
 25 32  1  0  0  0  0
 26 33  1  0  0  0  0
 26 34  1  0  0  0  0
M  END
> <BCLConfClusterSize>
1

> <ConfClashScore>
0 

> <ConfOneFourInteractionScore>
-0.960318 

> <ConfScore>
0.0675626 

> <ConfScorePBest>
0.00703637 

> <ConfTolerance>
0.288295 

> <RosettaParamsInstructions>
M  ROOT 3
M  POLY_N_BB 3
M  POLY_CA_BB 4
M  POLY_C_BB 2
M  POLY_O_BB 5
M  POLY_IGNORE 9 10 11 12 13 14 15 16 17 18 
M  POLY_UPPER 6
M  POLY_LOWER 8
M  POLY_CHG 0
M  POLY_PROPERTIES ALPHA_AA D_AA PROTEIN AROMATIC POLYMER 
M  END

$$$$



 34 34  0  0  0  0  0  0  0  0999 V2000
    0.5294    1.8387   -1.4598 H   0  0  0  1  0  0  0  0  0  0  0  0
   -0.4357    1.7699   -3.3500 C   0  0  0  1  0  0  0  0  0  0  0  0
   -0.9111    0.3349   -1.4320 N   0  0  0  1  0  0  0  0  0  0  0  0
   -0.4554    1.6597   -1.8378 C   0  0  0  1  0  0  0  0  0  0  0  0
    0.3879    2.4810   -3.9242 O   0  0  0  1  0  0  0  0  0  0  0  0
   -1.2994    0.9869   -4.0155 N   0  0  0  1  0  0  0  0  0  0  0  0
   -1.6848    0.2858   -0.8325 H   0  0  0  1  0  0  0  0  0  0  0  0
   -0.3533   -0.8168   -1.8160 C   0  0  0  1  0  0  0  0  0  0  0  0
   -1.4029    1.0018   -5.4670 C   0  0  0  1  0  0  0  0  0  0  0  0
   -0.8592   -2.0608   -1.1120 C   0  0  0  1  0  0  0  0  0  0  0  0
    0.5092   -0.8827   -2.6763 O   0  0  0  1  0  0  0  0  0  0  0  0
   -1.8806    0.3842   -3.5061 H   0  0  0  1  0  0  0  0  0  0  0  0
   -2.1821    0.3370   -5.7764 H   0  0  0  1  0  0  0  0  0  0  0  0
   -0.4741    0.6855   -5.8938 H   0  0  0  1  0  0  0  0  0  0  0  0
   -1.6285    1.9940   -5.7980 H   0  0  0  1  0  0  0  0  0  0  0  0
   -1.4868   -2.6170   -1.7765 H   0  0  0  1  0  0  0  0  0  0  0  0
   -1.4199   -1.7770   -0.2460 H   0  0  0  1  0  0  0  0  0  0  0  0
   -0.0278   -2.6661   -0.8166 H   0  0  0  1  0  0  0  0  0  0  0  0
   -1.4053    2.7208   -1.2745 C   0  0  0  1  0  0  0  0  0  0  0  0
   -2.7924    2.5699   -1.8677 C   0  0  0  1  0  0  0  0  0  0  0  0
   -3.0454    3.0055   -3.1548 C   0  0  0  1  0  0  0  0  0  0  0  0
   -4.3124    2.8624   -3.6986 C   0  0  0  1  0  0  0  0  0  0  0  0
   -5.3241    2.2890   -2.9516 C   0  0  0  1  0  0  0  0  0  0  0  0
   -5.0706    1.8522   -1.6608 C   0  0  0  1  0  0  0  0  0  0  0  0
   -3.8072    1.9949   -1.1188 C   0  0  0  1  0  0  0  0  0  0  0  0
   -6.5880    2.1740   -3.5491 N   0  0  0  1  0  0  0  0  0  0  0  0
   -1.0260    3.6927   -1.5118 H   0  0  0  1  0  0  0  0  0  0  0  0
   -1.4643    2.6101   -0.2118 H   0  0  0  1  0  0  0  0  0  0  0  0
   -2.2850    3.4406   -3.7154 H   0  0  0  1  0  0  0  0  0  0  0  0
   -4.5017    3.1865   -4.6685 H   0  0  0  1  0  0  0  0  0  0  0  0
   -5.8309    1.4171   -1.1002 H   0  0  0  1  0  0  0  0  0  0  0  0
   -3.6180    1.6708   -0.1488 H   0  0  0  1  0  0  0  0  0  0  0  0
   -6.7226    2.4734   -4.4725 H   0  0  0  1  0  0  0  0  0  0  0  0
   -7.3365    1.7941   -3.0432 H   0  0  0  1  0  0  0  0  0  0  0  0
  1  4  1  0  0  0  0
  2  4  1  0  0  0  0
  2  5  2  0  0  0  0
  2  6  1  0  0  0  0
  3  4  1  0  0  0  0
  3  7  1  0  0  0  0
  3  8  1  0  0  0  0
  4 19  1  0  0  0  0
  6  9  1  0  0  0  0
  6 12  1  0  0  0  0
  8 10  1  0  0  0  0
  8 11  2  0  0  0  0
  9 13  1  0  0  0  0
  9 14  1  0  0  0  0
  9 15  1  0  0  0  0
 10 16  1  0  0  0  0
 10 17  1  0  0  0  0
 10 18  1  0  0  0  0
 19 20  1  0  0  0  0
 19 27  1  0  0  0  0
 19 28  1  0  0  0  0
 20 21  4  0  0  0  0
 20 25  4  0  0  0  0
 21 22  4  0  0  0  0
 21 29  1  0  0  0  0
 22 23  4  0  0  0  0
 22 30  1  0  0  0  0
 23 24  4  0  0  0  0
 23 26  1  0  0  0  0
 24 25  4  0  0  0  0
 24 31  1  0  0  0  0
 25 32  1  0  0  0  0
 26 33  1  0  0  0  0
 26 34  1  0  0  0  0
M  END
> <BCLConfClusterSize>
1

> <ConfClashScore>
0 

> <ConfOneFourInteractionScore>
-0.957074 

> <ConfScore>
0.068219 

> <ConfScorePBest>
0.00700789 

> <ConfTolerance>
0.272309 

> <RosettaParamsInstructions>
M  ROOT 3
M  POLY_N_BB 3
M  POLY_CA_BB 4
M  POLY_C_BB 2
M  POLY_O_BB 5
M  POLY_IGNORE 9 10 11 12 13 14 15 16 17 18 
M  POLY_UPPER 6
M  POLY_LOWER 8
M  POLY_CHG 0
M  POLY_PROPERTIES ALPHA_AA D_AA PROTEIN AROMATIC POLYMER 
M  END

$$$$



 34 34  0  0  0  0  0  0  0  0999 V2000
    0.4244    1.6339   -1.2464 H   0  0  0  1  0  0  0  0  0  0  0  0
   -0.7696    0.7928   -2.7965 C   0  0  0  1  0  0  0  0  0  0  0  0
   -1.0928    0.4715   -0.4045 N   0  0  0  1  0  0  0  0  0  0  0  0
   -0.6116    1.4256   -1.4144 C   0  0  0  1  0  0  0  0  0  0  0  0
    0.0531    0.9722   -3.6801 O   0  0  0  1  0  0  0  0  0  0  0  0
   -1.8764    0.0440   -2.9237 N   0  0  0  1  0  0  0  0  0  0  0  0
   -1.6689    0.8185    0.3083 H   0  0  0  1  0  0  0  0  0  0  0  0
   -0.8009   -0.8455   -0.3851 C   0  0  0  1  0  0  0  0  0  0  0  0
   -2.2301   -0.6147   -4.1723 C   0  0  0  1  0  0  0  0  0  0  0  0
   -1.3240   -1.6747    0.7716 C   0  0  0  1  0  0  0  0  0  0  0  0
   -0.1314   -1.3602   -1.2769 O   0  0  0  1  0  0  0  0  0  0  0  0
   -2.4668   -0.0629   -2.1489 H   0  0  0  1  0  0  0  0  0  0  0  0
   -1.3393   -0.8539   -4.7148 H   0  0  0  1  0  0  0  0  0  0  0  0
   -2.8405    0.0389   -4.7597 H   0  0  0  1  0  0  0  0  0  0  0  0
   -2.7705   -1.5136   -3.9604 H   0  0  0  1  0  0  0  0  0  0  0  0
   -0.6189   -2.4443    1.0071 H   0  0  0  1  0  0  0  0  0  0  0  0
   -2.2582   -2.1188    0.4980 H   0  0  0  1  0  0  0  0  0  0  0  0
   -1.4641   -1.0460    1.6261 H   0  0  0  1  0  0  0  0  0  0  0  0
   -1.4020    2.7359   -1.3062 C   0  0  0  1  0  0  0  0  0  0  0  0
   -2.7919    2.5681   -1.8593 C   0  0  0  1  0  0  0  0  0  0  0  0
   -3.0282    2.9969   -3.1518 C   0  0  0  1  0  0  0  0  0  0  0  0
   -4.2904    2.8590   -3.7081 C   0  0  0  1  0  0  0  0  0  0  0  0
   -5.3140    2.2977   -2.9681 C   0  0  0  1  0  0  0  0  0  0  0  0
   -5.0771    1.8677   -1.6718 C   0  0  0  1  0  0  0  0  0  0  0  0
   -3.8186    2.0051   -1.1174 C   0  0  0  1  0  0  0  0  0  0  0  0
   -6.6034    2.1620   -3.5337 N   0  0  0  1  0  0  0  0  0  0  0  0
   -0.8942    3.4986   -1.8589 H   0  0  0  1  0  0  0  0  0  0  0  0
   -1.4661    3.0230   -0.2774 H   0  0  0  1  0  0  0  0  0  0  0  0
   -2.2590    3.4229   -3.7071 H   0  0  0  1  0  0  0  0  0  0  0  0
   -4.4672    3.1780   -4.6820 H   0  0  0  1  0  0  0  0  0  0  0  0
   -5.8463    1.4416   -1.1165 H   0  0  0  1  0  0  0  0  0  0  0  0
   -3.6419    1.6862   -0.1434 H   0  0  0  1  0  0  0  0  0  0  0  0
   -6.7383    2.3250   -4.4906 H   0  0  0  1  0  0  0  0  0  0  0  0
   -7.3617    1.9051   -2.9687 H   0  0  0  1  0  0  0  0  0  0  0  0
  1  4  1  0  0  0  0
  2  4  1  0  0  0  0
  2  5  2  0  0  0  0
  2  6  1  0  0  0  0
  3  4  1  0  0  0  0
  3  7  1  0  0  0  0
  3  8  1  0  0  0  0
  4 19  1  0  0  0  0
  6  9  1  0  0  0  0
  6 12  1  0  0  0  0
  8 10  1  0  0  0  0
  8 11  2  0  0  0  0
  9 13  1  0  0  0  0
  9 14  1  0  0  0  0
  9 15  1  0  0  0  0
 10 16  1  0  0  0  0
 10 17  1  0  0  0  0
 10 18  1  0  0  0  0
 19 20  1  0  0  0  0
 19 27  1  0  0  0  0
 19 28  1  0  0  0  0
 20 21  4  0  0  0  0
 20 25  4  0  0  0  0
 21 22  4  0  0  0  0
 21 29  1  0  0  0  0
 22 23  4  0  0  0  0
 22 30  1  0  0  0  0
 23 24  4  0  0  0  0
 23 26  1  0  0  0  0
 24 25  4  0  0  0  0
 24 31  1  0  0  0  0
 25 32  1  0  0  0  0
 26 33  1  0  0  0  0
 26 34  1  0  0  0  0
M  END
> <BCLConfClusterSize>
1

> <ConfClashScore>
0 

> <ConfOneFourInteractionScore>
-0.950025 

> <ConfScore>
0.0684571 

> <ConfScorePBest>
0.00697941 

> <ConfTolerance>
0.318023 

> <RosettaParamsInstructions>
M  ROOT 3
M  POLY_N_BB 3
M  POLY_CA_BB 4
M  POLY_C_BB 2
M  POLY_O_BB 5
M  POLY_IGNORE 9 10 11 12 13 14 15 16 17 18 
M  POLY_UPPER 6
M  POLY_LOWER 8
M  POLY_CHG 0
M  POLY_PROPERTIES ALPHA_AA D_AA PROTEIN AROMATIC POLYMER 
M  END

$$$$



 34 34  0  0  0  0  0  0  0  0999 V2000
   -1.3066    4.8192   -1.2132 H   0  0  0  1  0  0  0  0  0  0  0  0
    0.1441    4.1092    0.1313 C   0  0  0  1  0  0  0  0  0  0  0  0
   -2.2945    4.1951    0.4807 N   0  0  0  1  0  0  0  0  0  0  0  0
   -1.2323    4.0255   -0.4994 C   0  0  0  1  0  0  0  0  0  0  0  0
    1.0991    4.5776   -0.4827 O   0  0  0  1  0  0  0  0  0  0  0  0
    0.2398    3.6426    1.3864 N   0  0  0  1  0  0  0  0  0  0  0  0
   -2.9119    3.4515    0.6425 H   0  0  0  1  0  0  0  0  0  0  0  0
   -2.4573    5.3294    1.1677 C   0  0  0  1  0  0  0  0  0  0  0  0
    1.5008    3.6172    2.1123 C   0  0  0  1  0  0  0  0  0  0  0  0
   -3.6869    5.3953    2.0451 C   0  0  0  1  0  0  0  0  0  0  0  0
   -1.6679    6.2708    1.1032 O   0  0  0  1  0  0  0  0  0  0  0  0
   -0.5676    3.3073    1.8291 H   0  0  0  1  0  0  0  0  0  0  0  0
    1.9146    4.6035    2.1440 H   0  0  0  1  0  0  0  0  0  0  0  0
    2.1842    2.9598    1.6166 H   0  0  0  1  0  0  0  0  0  0  0  0
    1.3309    3.2697    3.1099 H   0  0  0  1  0  0  0  0  0  0  0  0
   -3.5864    4.7015    2.8535 H   0  0  0  1  0  0  0  0  0  0  0  0
   -4.5515    5.1453    1.4663 H   0  0  0  1  0  0  0  0  0  0  0  0
   -3.7930    6.3855    2.4363 H   0  0  0  1  0  0  0  0  0  0  0  0
   -1.4193    2.7102   -1.2614 C   0  0  0  1  0  0  0  0  0  0  0  0
   -2.7892    2.5707   -1.8696 C   0  0  0  1  0  0  0  0  0  0  0  0
   -3.0231    3.0158   -3.1570 C   0  0  0  1  0  0  0  0  0  0  0  0
   -4.2835    2.8822   -3.7184 C   0  0  0  1  0  0  0  0  0  0  0  0
   -5.3076    2.3087   -2.9887 C   0  0  0  1  0  0  0  0  0  0  0  0
   -5.0732    1.8622   -1.6975 C   0  0  0  1  0  0  0  0  0  0  0  0
   -3.8165    1.9955   -1.1379 C   0  0  0  1  0  0  0  0  0  0  0  0
   -6.6089    2.1528   -3.5076 N   0  0  0  1  0  0  0  0  0  0  0  0
   -1.2639    1.8981   -0.5822 H   0  0  0  1  0  0  0  0  0  0  0  0
   -0.6924    2.6644   -2.0452 H   0  0  0  1  0  0  0  0  0  0  0  0
   -2.2534    3.4510   -3.7046 H   0  0  0  1  0  0  0  0  0  0  0  0
   -4.4584    3.2134   -4.6886 H   0  0  0  1  0  0  0  0  0  0  0  0
   -5.8428    1.4271   -1.1499 H   0  0  0  1  0  0  0  0  0  0  0  0
   -3.6416    1.6643   -0.1677 H   0  0  0  1  0  0  0  0  0  0  0  0
   -6.8166    2.4673   -4.4122 H   0  0  0  1  0  0  0  0  0  0  0  0
   -7.3059    1.7300   -2.9637 H   0  0  0  1  0  0  0  0  0  0  0  0
  1  4  1  0  0  0  0
  2  4  1  0  0  0  0
  2  5  2  0  0  0  0
  2  6  1  0  0  0  0
  3  4  1  0  0  0  0
  3  7  1  0  0  0  0
  3  8  1  0  0  0  0
  4 19  1  0  0  0  0
  6  9  1  0  0  0  0
  6 12  1  0  0  0  0
  8 10  1  0  0  0  0
  8 11  2  0  0  0  0
  9 13  1  0  0  0  0
  9 14  1  0  0  0  0
  9 15  1  0  0  0  0
 10 16  1  0  0  0  0
 10 17  1  0  0  0  0
 10 18  1  0  0  0  0
 19 20  1  0  0  0  0
 19 27  1  0  0  0  0
 19 28  1  0  0  0  0
 20 21  4  0  0  0  0
 20 25  4  0  0  0  0
 21 22  4  0  0  0  0
 21 29  1  0  0  0  0
 22 23  4  0  0  0  0
 22 30  1  0  0  0  0
 23 24  4  0  0  0  0
 23 26  1  0  0  0  0
 24 25  4  0  0  0  0
 24 31  1  0  0  0  0
 25 32  1  0  0  0  0
 26 33  1  0  0  0  0
 26 34  1  0  0  0  0
M  END
> <BCLConfClusterSize>
1

> <ConfClashScore>
0 

> <ConfOneFourInteractionScore>
-0.960318 

> <ConfScore>
0.0691544 

> <ConfScorePBest>
0.00695093 

> <ConfTolerance>
0.187653 

> <RosettaParamsInstructions>
M  ROOT 3
M  POLY_N_BB 3
M  POLY_CA_BB 4
M  POLY_C_BB 2
M  POLY_O_BB 5
M  POLY_IGNORE 9 10 11 12 13 14 15 16 17 18 
M  POLY_UPPER 6
M  POLY_LOWER 8
M  POLY_CHG 0
M  POLY_PROPERTIES ALPHA_AA D_AA PROTEIN AROMATIC POLYMER 
M  END

$$$$



 34 34  0  0  0  0  0  0  0  0999 V2000
   -0.4626    4.1072    0.0798 H   0  0  0  1  0  0  0  0  0  0  0  0
   -1.9304    3.0958    1.2134 C   0  0  0  1  0  0  0  0  0  0  0  0
   -2.2953    4.9791   -0.4895 N   0  0  0  1  0  0  0  0  0  0  0  0
   -1.4651    3.7688   -0.0797 C   0  0  0  1  0  0  0  0  0  0  0  0
   -2.2433    3.7176    2.1774 O   0  0  0  1  0  0  0  0  0  0  0  0
   -1.9909    1.7205    1.2682 N   0  0  0  1  0  0  0  0  0  0  0  0
   -2.5568    5.0514   -1.4312 H   0  0  0  1  0  0  0  0  0  0  0  0
   -2.7037    5.9739    0.3594 C   0  0  0  1  0  0  0  0  0  0  0  0
   -2.6177    1.0135    2.3751 C   0  0  0  1  0  0  0  0  0  0  0  0
   -3.4736    7.1121   -0.2816 C   0  0  0  1  0  0  0  0  0  0  0  0
   -2.4719    5.9619    1.5572 O   0  0  0  1  0  0  0  0  0  0  0  0
   -1.5982    1.2003    0.5364 H   0  0  0  1  0  0  0  0  0  0  0  0
   -2.9794    0.0658    2.0345 H   0  0  0  1  0  0  0  0  0  0  0  0
   -3.4349    1.5928    2.7510 H   0  0  0  1  0  0  0  0  0  0  0  0
   -1.8994    0.8619    3.1536 H   0  0  0  1  0  0  0  0  0  0  0  0
   -2.7901    7.8716   -0.5989 H   0  0  0  1  0  0  0  0  0  0  0  0
   -4.1589    7.5238    0.4295 H   0  0  0  1  0  0  0  0  0  0  0  0
   -4.0153    6.7439   -1.1278 H   0  0  0  1  0  0  0  0  0  0  0  0
   -1.4310    2.7792   -1.2539 C   0  0  0  1  0  0  0  0  0  0  0  0
   -2.7841    2.5520   -1.8731 C   0  0  0  1  0  0  0  0  0  0  0  0
   -3.0276    2.9954   -3.1593 C   0  0  0  1  0  0  0  0  0  0  0  0
   -4.2935    2.8660   -3.7092 C   0  0  0  1  0  0  0  0  0  0  0  0
   -5.3135    2.2984   -2.9691 C   0  0  0  1  0  0  0  0  0  0  0  0
   -5.0694    1.8537   -1.6790 C   0  0  0  1  0  0  0  0  0  0  0  0
   -3.8073    1.9828   -1.1310 C   0  0  0  1  0  0  0  0  0  0  0  0
   -6.6066    2.1713   -3.5281 N   0  0  0  1  0  0  0  0  0  0  0  0
   -1.0573    1.8417   -0.8985 H   0  0  0  1  0  0  0  0  0  0  0  0
   -0.7732    3.1644   -2.0048 H   0  0  0  1  0  0  0  0  0  0  0  0
   -2.2610    3.4261   -3.7147 H   0  0  0  1  0  0  0  0  0  0  0  0
   -4.4757    3.1959   -4.6785 H   0  0  0  1  0  0  0  0  0  0  0  0
   -5.8360    1.4230   -1.1237 H   0  0  0  1  0  0  0  0  0  0  0  0
   -3.6251    1.6529   -0.1617 H   0  0  0  1  0  0  0  0  0  0  0  0
   -6.7729    2.4612   -4.4493 H   0  0  0  1  0  0  0  0  0  0  0  0
   -7.3363    1.7933   -2.9941 H   0  0  0  1  0  0  0  0  0  0  0  0
  1  4  1  0  0  0  0
  2  4  1  0  0  0  0
  2  5  2  0  0  0  0
  2  6  1  0  0  0  0
  3  4  1  0  0  0  0
  3  7  1  0  0  0  0
  3  8  1  0  0  0  0
  4 19  1  0  0  0  0
  6  9  1  0  0  0  0
  6 12  1  0  0  0  0
  8 10  1  0  0  0  0
  8 11  2  0  0  0  0
  9 13  1  0  0  0  0
  9 14  1  0  0  0  0
  9 15  1  0  0  0  0
 10 16  1  0  0  0  0
 10 17  1  0  0  0  0
 10 18  1  0  0  0  0
 19 20  1  0  0  0  0
 19 27  1  0  0  0  0
 19 28  1  0  0  0  0
 20 21  4  0  0  0  0
 20 25  4  0  0  0  0
 21 22  4  0  0  0  0
 21 29  1  0  0  0  0
 22 23  4  0  0  0  0
 22 30  1  0  0  0  0
 23 24  4  0  0  0  0
 23 26  1  0  0  0  0
 24 25  4  0  0  0  0
 24 31  1  0  0  0  0
 25 32  1  0  0  0  0
 26 33  1  0  0  0  0
 26 34  1  0  0  0  0
M  END
> <BCLConfClusterSize>
1

> <ConfClashScore>
0.00111105 

> <ConfOneFourInteractionScore>
-0.942828 

> <ConfScore>
0.0701231 

> <ConfScorePBest>
0.00692245 

> <ConfTolerance>
0.243083 

> <RosettaParamsInstructions>
M  ROOT 3
M  POLY_N_BB 3
M  POLY_CA_BB 4
M  POLY_C_BB 2
M  POLY_O_BB 5
M  POLY_IGNORE 9 10 11 12 13 14 15 16 17 18 
M  POLY_UPPER 6
M  POLY_LOWER 8
M  POLY_CHG 0
M  POLY_PROPERTIES ALPHA_AA D_AA PROTEIN AROMATIC POLYMER 
M  END

$$$$



 34 34  0  0  0  0  0  0  0  0999 V2000
   -0.3272    3.5000    0.3485 H   0  0  0  1  0  0  0  0  0  0  0  0
   -2.1659    2.8359    1.1201 C   0  0  0  1  0  0  0  0  0  0  0  0
   -1.7547    4.8821   -0.1967 N   0  0  0  1  0  0  0  0  0  0  0  0
   -1.3484    3.4995    0.0290 C   0  0  0  1  0  0  0  0  0  0  0  0
   -1.7600    1.8260    1.6989 O   0  0  0  1  0  0  0  0  0  0  0  0
   -3.3417    3.4183    1.4037 N   0  0  0  1  0  0  0  0  0  0  0  0
   -1.9193    5.1607   -1.1217 H   0  0  0  1  0  0  0  0  0  0  0  0
   -1.9257    5.8318    0.7990 C   0  0  0  1  0  0  0  0  0  0  0  0
   -4.1547    2.9246    2.5051 C   0  0  0  1  0  0  0  0  0  0  0  0
   -2.3628    7.2185    0.4184 C   0  0  0  1  0  0  0  0  0  0  0  0
   -1.7146    5.5083    1.9562 O   0  0  0  1  0  0  0  0  0  0  0  0
   -3.6532    4.1774    0.8679 H   0  0  0  1  0  0  0  0  0  0  0  0
   -4.4203    1.9041    2.3236 H   0  0  0  1  0  0  0  0  0  0  0  0
   -5.0433    3.5154    2.5850 H   0  0  0  1  0  0  0  0  0  0  0  0
   -3.5983    2.9914    3.4167 H   0  0  0  1  0  0  0  0  0  0  0  0
   -1.6395    7.6530   -0.2396 H   0  0  0  1  0  0  0  0  0  0  0  0
   -2.4493    7.8193    1.2995 H   0  0  0  1  0  0  0  0  0  0  0  0
   -3.3107    7.1704   -0.0756 H   0  0  0  1  0  0  0  0  0  0  0  0
   -1.4143    2.7132   -1.2701 C   0  0  0  1  0  0  0  0  0  0  0  0
   -2.7882    2.5695   -1.8682 C   0  0  0  1  0  0  0  0  0  0  0  0
   -3.0349    3.0208   -3.1511 C   0  0  0  1  0  0  0  0  0  0  0  0
   -4.2989    2.8833   -3.7033 C   0  0  0  1  0  0  0  0  0  0  0  0
   -5.3139    2.2996   -2.9689 C   0  0  0  1  0  0  0  0  0  0  0  0
   -5.0667    1.8469   -1.6823 C   0  0  0  1  0  0  0  0  0  0  0  0
   -3.8064    1.9841   -1.1319 C   0  0  0  1  0  0  0  0  0  0  0  0
   -6.6051    2.1642   -3.5304 N   0  0  0  1  0  0  0  0  0  0  0  0
   -1.0320    1.7318   -1.0816 H   0  0  0  1  0  0  0  0  0  0  0  0
   -0.7923    3.2073   -1.9869 H   0  0  0  1  0  0  0  0  0  0  0  0
   -2.2721    3.4637   -3.7021 H   0  0  0  1  0  0  0  0  0  0  0  0
   -4.4834    3.2193   -4.6701 H   0  0  0  1  0  0  0  0  0  0  0  0
   -5.8295    1.4040   -1.1313 H   0  0  0  1  0  0  0  0  0  0  0  0
   -3.6219    1.6480   -0.1651 H   0  0  0  1  0  0  0  0  0  0  0  0
   -6.8139    2.5908   -4.3876 H   0  0  0  1  0  0  0  0  0  0  0  0
   -7.2909    1.6438   -3.0621 H   0  0  0  1  0  0  0  0  0  0  0  0
  1  4  1  0  0  0  0
  2  4  1  0  0  0  0
  2  5  2  0  0  0  0
  2  6  1  0  0  0  0
  3  4  1  0  0  0  0
  3  7  1  0  0  0  0
  3  8  1  0  0  0  0
  4 19  1  0  0  0  0
  6  9  1  0  0  0  0
  6 12  1  0  0  0  0
  8 10  1  0  0  0  0
  8 11  2  0  0  0  0
  9 13  1  0  0  0  0
  9 14  1  0  0  0  0
  9 15  1  0  0  0  0
 10 16  1  0  0  0  0
 10 17  1  0  0  0  0
 10 18  1  0  0  0  0
 19 20  1  0  0  0  0
 19 27  1  0  0  0  0
 19 28  1  0  0  0  0
 20 21  4  0  0  0  0
 20 25  4  0  0  0  0
 21 22  4  0  0  0  0
 21 29  1  0  0  0  0
 22 23  4  0  0  0  0
 22 30  1  0  0  0  0
 23 24  4  0  0  0  0
 23 26  1  0  0  0  0
 24 25  4  0  0  0  0
 24 31  1  0  0  0  0
 25 32  1  0  0  0  0
 26 33  1  0  0  0  0
 26 34  1  0  0  0  0
M  END
> <BCLConfClusterSize>
1

> <ConfClashScore>
0 

> <ConfOneFourInteractionScore>
-0.950605 

> <ConfScore>
0.0704513 

> <ConfScorePBest>
0.00689397 

> <ConfTolerance>
0.228134 

> <RosettaParamsInstructions>
M  ROOT 3
M  POLY_N_BB 3
M  POLY_CA_BB 4
M  POLY_C_BB 2
M  POLY_O_BB 5
M  POLY_IGNORE 9 10 11 12 13 14 15 16 17 18 
M  POLY_UPPER 6
M  POLY_LOWER 8
M  POLY_CHG 0
M  POLY_PROPERTIES ALPHA_AA D_AA PROTEIN AROMATIC POLYMER 
M  END

$$$$



 34 34  0  0  0  0  0  0  0  0999 V2000
   -0.3097    1.5664   -2.6222 H   0  0  0  1  0  0  0  0  0  0  0  0
   -1.1206    0.2467   -1.1958 C   0  0  0  1  0  0  0  0  0  0  0  0
    0.8395    1.7745   -0.9324 N   0  0  0  1  0  0  0  0  0  0  0  0
   -0.4567    1.5722   -1.5623 C   0  0  0  1  0  0  0  0  0  0  0  0
   -1.7928   -0.4207   -1.9602 O   0  0  0  1  0  0  0  0  0  0  0  0
   -0.8976   -0.1310    0.0662 N   0  0  0  1  0  0  0  0  0  0  0  0
    0.9321    2.4777   -0.2561 H   0  0  0  1  0  0  0  0  0  0  0  0
    1.9077    1.0350   -1.2440 C   0  0  0  1  0  0  0  0  0  0  0  0
   -1.4572   -1.3540    0.6221 C   0  0  0  1  0  0  0  0  0  0  0  0
    3.2169    1.3362   -0.5408 C   0  0  0  1  0  0  0  0  0  0  0  0
    1.8936    0.1223   -2.0689 O   0  0  0  1  0  0  0  0  0  0  0  0
   -0.3376    0.4352    0.6373 H   0  0  0  1  0  0  0  0  0  0  0  0
   -2.4411   -1.5068    0.2303 H   0  0  0  1  0  0  0  0  0  0  0  0
   -1.5068   -1.2710    1.6877 H   0  0  0  1  0  0  0  0  0  0  0  0
   -0.8352   -2.1833    0.3569 H   0  0  0  1  0  0  0  0  0  0  0  0
    3.3965    2.3909   -0.5568 H   0  0  0  1  0  0  0  0  0  0  0  0
    4.0155    0.8310   -1.0427 H   0  0  0  1  0  0  0  0  0  0  0  0
    3.1624    0.9992    0.4733 H   0  0  0  1  0  0  0  0  0  0  0  0
   -1.4237    2.7039   -1.2554 C   0  0  0  1  0  0  0  0  0  0  0  0
   -2.7904    2.5699   -1.8719 C   0  0  0  1  0  0  0  0  0  0  0  0
   -3.0174    3.0260   -3.1567 C   0  0  0  1  0  0  0  0  0  0  0  0
   -4.2748    2.8975   -3.7259 C   0  0  0  1  0  0  0  0  0  0  0  0
   -5.3029    2.3180   -3.0065 C   0  0  0  1  0  0  0  0  0  0  0  0
   -5.0754    1.8606   -1.7179 C   0  0  0  1  0  0  0  0  0  0  0  0
   -3.8217    1.9888   -1.1506 C   0  0  0  1  0  0  0  0  0  0  0  0
   -6.6103    2.1448   -3.4849 N   0  0  0  1  0  0  0  0  0  0  0  0
   -0.9892    3.6149   -1.6107 H   0  0  0  1  0  0  0  0  0  0  0  0
   -1.5443    2.7562   -0.1935 H   0  0  0  1  0  0  0  0  0  0  0  0
   -2.2448    3.4656   -3.6965 H   0  0  0  1  0  0  0  0  0  0  0  0
   -4.4446    3.2370   -4.6942 H   0  0  0  1  0  0  0  0  0  0  0  0
   -5.8480    1.4210   -1.1781 H   0  0  0  1  0  0  0  0  0  0  0  0
   -3.6520    1.6493   -0.1823 H   0  0  0  1  0  0  0  0  0  0  0  0
   -6.8735    2.5356   -4.3442 H   0  0  0  1  0  0  0  0  0  0  0  0
   -7.2605    1.6330   -2.9597 H   0  0  0  1  0  0  0  0  0  0  0  0
  1  4  1  0  0  0  0
  2  4  1  0  0  0  0
  2  5  2  0  0  0  0
  2  6  1  0  0  0  0
  3  4  1  0  0  0  0
  3  7  1  0  0  0  0
  3  8  1  0  0  0  0
  4 19  1  0  0  0  0
  6  9  1  0  0  0  0
  6 12  1  0  0  0  0
  8 10  1  0  0  0  0
  8 11  2  0  0  0  0
  9 13  1  0  0  0  0
  9 14  1  0  0  0  0
  9 15  1  0  0  0  0
 10 16  1  0  0  0  0
 10 17  1  0  0  0  0
 10 18  1  0  0  0  0
 19 20  1  0  0  0  0
 19 27  1  0  0  0  0
 19 28  1  0  0  0  0
 20 21  4  0  0  0  0
 20 25  4  0  0  0  0
 21 22  4  0  0  0  0
 21 29  1  0  0  0  0
 22 23  4  0  0  0  0
 22 30  1  0  0  0  0
 23 24  4  0  0  0  0
 23 26  1  0  0  0  0
 24 25  4  0  0  0  0
 24 31  1  0  0  0  0
 25 32  1  0  0  0  0
 26 33  1  0  0  0  0
 26 34  1  0  0  0  0
M  END
> <BCLConfClusterSize>
1

> <ConfClashScore>
0 

> <ConfOneFourInteractionScore>
-0.960318 

> <ConfScore>
0.0727703 

> <ConfScorePBest>
0.00686549 

> <ConfTolerance>
0.20387 

> <RosettaParamsInstructions>
M  ROOT 3
M  POLY_N_BB 3
M  POLY_CA_BB 4
M  POLY_C_BB 2
M  POLY_O_BB 5
M  POLY_IGNORE 9 10 11 12 13 14 15 16 17 18 
M  POLY_UPPER 6
M  POLY_LOWER 8
M  POLY_CHG 0
M  POLY_PROPERTIES ALPHA_AA D_AA PROTEIN AROMATIC POLYMER 
M  END

$$$$



 34 34  0  0  0  0  0  0  0  0999 V2000
   -0.6457    1.1193   -2.5425 H   0  0  0  1  0  0  0  0  0  0  0  0
   -1.2335    0.2184   -0.7204 C   0  0  0  1  0  0  0  0  0  0  0  0
    0.7818    1.5794   -1.1181 N   0  0  0  1  0  0  0  0  0  0  0  0
   -0.6054    1.3637   -1.5016 C   0  0  0  1  0  0  0  0  0  0  0  0
   -2.0159   -0.5482   -1.2796 O   0  0  0  1  0  0  0  0  0  0  0  0
   -0.8247    0.0546    0.5422 N   0  0  0  1  0  0  0  0  0  0  0  0
    1.0195    2.4058   -0.6480 H   0  0  0  1  0  0  0  0  0  0  0  0
    1.7425    0.6900   -1.3847 C   0  0  0  1  0  0  0  0  0  0  0  0
   -1.3436   -0.9459    1.4628 C   0  0  0  1  0  0  0  0  0  0  0  0
    3.1394    1.0757   -0.9386 C   0  0  0  1  0  0  0  0  0  0  0  0
    1.5269   -0.3769   -1.9536 O   0  0  0  1  0  0  0  0  0  0  0  0
   -0.1227    0.6534    0.8725 H   0  0  0  1  0  0  0  0  0  0  0  0
   -2.3362   -1.2190    1.1712 H   0  0  0  1  0  0  0  0  0  0  0  0
   -1.3615   -0.5431    2.4540 H   0  0  0  1  0  0  0  0  0  0  0  0
   -0.7147   -1.8113    1.4403 H   0  0  0  1  0  0  0  0  0  0  0  0
    3.4097    2.0120   -1.3804 H   0  0  0  1  0  0  0  0  0  0  0  0
    3.8332    0.3221   -1.2481 H   0  0  0  1  0  0  0  0  0  0  0  0
    3.1612    1.1651    0.1274 H   0  0  0  1  0  0  0  0  0  0  0  0
   -1.4038    2.6536   -1.2858 C   0  0  0  1  0  0  0  0  0  0  0  0
   -2.7932    2.5905   -1.8618 C   0  0  0  1  0  0  0  0  0  0  0  0
   -3.0330    3.0148   -3.1551 C   0  0  0  1  0  0  0  0  0  0  0  0
   -4.2943    2.8664   -3.7108 C   0  0  0  1  0  0  0  0  0  0  0  0
   -5.3134    2.2990   -2.9694 C   0  0  0  1  0  0  0  0  0  0  0  0
   -5.0730    1.8734   -1.6723 C   0  0  0  1  0  0  0  0  0  0  0  0
   -3.8155    2.0214   -1.1184 C   0  0  0  1  0  0  0  0  0  0  0  0
   -6.6018    2.1525   -3.5344 N   0  0  0  1  0  0  0  0  0  0  0  0
   -0.8785    3.4613   -1.7514 H   0  0  0  1  0  0  0  0  0  0  0  0
   -1.4791    2.8357   -0.2341 H   0  0  0  1  0  0  0  0  0  0  0  0
   -2.2671    3.4455   -3.7115 H   0  0  0  1  0  0  0  0  0  0  0  0
   -4.4736    3.1821   -4.6853 H   0  0  0  1  0  0  0  0  0  0  0  0
   -5.8389    1.4427   -1.1159 H   0  0  0  1  0  0  0  0  0  0  0  0
   -3.6361    1.7058   -0.1438 H   0  0  0  1  0  0  0  0  0  0  0  0
   -6.7418    2.3299   -4.4880 H   0  0  0  1  0  0  0  0  0  0  0  0
   -7.3546    1.8736   -2.9722 H   0  0  0  1  0  0  0  0  0  0  0  0
  1  4  1  0  0  0  0
  2  4  1  0  0  0  0
  2  5  2  0  0  0  0
  2  6  1  0  0  0  0
  3  4  1  0  0  0  0
  3  7  1  0  0  0  0
  3  8  1  0  0  0  0
  4 19  1  0  0  0  0
  6  9  1  0  0  0  0
  6 12  1  0  0  0  0
  8 10  1  0  0  0  0
  8 11  2  0  0  0  0
  9 13  1  0  0  0  0
  9 14  1  0  0  0  0
  9 15  1  0  0  0  0
 10 16  1  0  0  0  0
 10 17  1  0  0  0  0
 10 18  1  0  0  0  0
 19 20  1  0  0  0  0
 19 27  1  0  0  0  0
 19 28  1  0  0  0  0
 20 21  4  0  0  0  0
 20 25  4  0  0  0  0
 21 22  4  0  0  0  0
 21 29  1  0  0  0  0
 22 23  4  0  0  0  0
 22 30  1  0  0  0  0
 23 24  4  0  0  0  0
 23 26  1  0  0  0  0
 24 25  4  0  0  0  0
 24 31  1  0  0  0  0
 25 32  1  0  0  0  0
 26 33  1  0  0  0  0
 26 34  1  0  0  0  0
M  END
> <BCLConfClusterSize>
1

> <ConfClashScore>
0 

> <ConfOneFourInteractionScore>
-0.960318 

> <ConfScore>
0.0727703 

> <ConfScorePBest>
0.00683701 

> <ConfTolerance>
0.300478 

> <RosettaParamsInstructions>
M  ROOT 3
M  POLY_N_BB 3
M  POLY_CA_BB 4
M  POLY_C_BB 2
M  POLY_O_BB 5
M  POLY_IGNORE 9 10 11 12 13 14 15 16 17 18 
M  POLY_UPPER 6
M  POLY_LOWER 8
M  POLY_CHG 0
M  POLY_PROPERTIES ALPHA_AA D_AA PROTEIN AROMATIC POLYMER 
M  END

$$$$



 34 34  0  0  0  0  0  0  0  0999 V2000
   -1.0577    0.6476   -0.8141 H   0  0  0  1  0  0  0  0  0  0  0  0
    0.8541    1.5135   -0.9256 C   0  0  0  1  0  0  0  0  0  0  0  0
   -0.5672    0.9036   -2.8071 N   0  0  0  1  0  0  0  0  0  0  0  0
   -0.5741    1.3860   -1.4188 C   0  0  0  1  0  0  0  0  0  0  0  0
    1.7177    0.7265   -1.2766 O   0  0  0  1  0  0  0  0  0  0  0  0
    1.0935    2.5367   -0.0902 N   0  0  0  1  0  0  0  0  0  0  0  0
   -0.9106    0.0098   -3.0159 H   0  0  0  1  0  0  0  0  0  0  0  0
   -0.0938    1.6810   -3.7851 C   0  0  0  1  0  0  0  0  0  0  0  0
    2.3488    2.8640    0.5691 C   0  0  0  1  0  0  0  0  0  0  0  0
   -0.0636    1.0568   -5.1667 C   0  0  0  1  0  0  0  0  0  0  0  0
    0.2939    2.8225   -3.5976 O   0  0  0  1  0  0  0  0  0  0  0  0
    0.3368    3.1308    0.0969 H   0  0  0  1  0  0  0  0  0  0  0  0
    2.9122    1.9685    0.7294 H   0  0  0  1  0  0  0  0  0  0  0  0
    2.1460    3.3306    1.5104 H   0  0  0  1  0  0  0  0  0  0  0  0
    2.9114    3.5334   -0.0475 H   0  0  0  1  0  0  0  0  0  0  0  0
   -1.0541    0.7670   -5.4494 H   0  0  0  1  0  0  0  0  0  0  0  0
    0.5701    0.1948   -5.1545 H   0  0  0  1  0  0  0  0  0  0  0  0
    0.3143    1.7681   -5.8710 H   0  0  0  1  0  0  0  0  0  0  0  0
   -1.3867    2.6659   -1.3104 C   0  0  0  1  0  0  0  0  0  0  0  0
   -2.7989    2.5873   -1.8566 C   0  0  0  1  0  0  0  0  0  0  0  0
   -3.0252    3.0163   -3.1508 C   0  0  0  1  0  0  0  0  0  0  0  0
   -4.2817    2.8738   -3.7187 C   0  0  0  1  0  0  0  0  0  0  0  0
   -5.3096    2.3074   -2.9886 C   0  0  0  1  0  0  0  0  0  0  0  0
   -5.0828    1.8771   -1.6906 C   0  0  0  1  0  0  0  0  0  0  0  0
   -3.8300    2.0193   -1.1246 C   0  0  0  1  0  0  0  0  0  0  0  0
   -6.6010    2.1439   -3.5114 N   0  0  0  1  0  0  0  0  0  0  0  0
   -0.8677    3.4328   -1.8465 H   0  0  0  1  0  0  0  0  0  0  0  0
   -1.4473    2.9318   -0.2758 H   0  0  0  1  0  0  0  0  0  0  0  0
   -2.2528    3.4462   -3.6987 H   0  0  0  1  0  0  0  0  0  0  0  0
   -4.4510    3.1930   -4.6939 H   0  0  0  1  0  0  0  0  0  0  0  0
   -5.8552    1.4473   -1.1428 H   0  0  0  1  0  0  0  0  0  0  0  0
   -3.6608    1.7001   -0.1494 H   0  0  0  1  0  0  0  0  0  0  0  0
   -6.7714    2.3197   -4.4603 H   0  0  0  1  0  0  0  0  0  0  0  0
   -7.3329    1.8539   -2.9276 H   0  0  0  1  0  0  0  0  0  0  0  0
  1  4  1  0  0  0  0
  2  4  1  0  0  0  0
  2  5  2  0  0  0  0
  2  6  1  0  0  0  0
  3  4  1  0  0  0  0
  3  7  1  0  0  0  0
  3  8  1  0  0  0  0
  4 19  1  0  0  0  0
  6  9  1  0  0  0  0
  6 12  1  0  0  0  0
  8 10  1  0  0  0  0
  8 11  2  0  0  0  0
  9 13  1  0  0  0  0
  9 14  1  0  0  0  0
  9 15  1  0  0  0  0
 10 16  1  0  0  0  0
 10 17  1  0  0  0  0
 10 18  1  0  0  0  0
 19 20  1  0  0  0  0
 19 27  1  0  0  0  0
 19 28  1  0  0  0  0
 20 21  4  0  0  0  0
 20 25  4  0  0  0  0
 21 22  4  0  0  0  0
 21 29  1  0  0  0  0
 22 23  4  0  0  0  0
 22 30  1  0  0  0  0
 23 24  4  0  0  0  0
 23 26  1  0  0  0  0
 24 25  4  0  0  0  0
 24 31  1  0  0  0  0
 25 32  1  0  0  0  0
 26 33  1  0  0  0  0
 26 34  1  0  0  0  0
M  END
> <BCLConfClusterSize>
1

> <ConfClashScore>
0 

> <ConfOneFourInteractionScore>
-0.933542 

> <ConfScore>
0.0777127 

> <ConfScorePBest>
0.00680853 

> <ConfTolerance>
0.312296 

> <RosettaParamsInstructions>
M  ROOT 3
M  POLY_N_BB 3
M  POLY_CA_BB 4
M  POLY_C_BB 2
M  POLY_O_BB 5
M  POLY_IGNORE 9 10 11 12 13 14 15 16 17 18 
M  POLY_UPPER 6
M  POLY_LOWER 8
M  POLY_CHG 0
M  POLY_PROPERTIES ALPHA_AA D_AA PROTEIN AROMATIC POLYMER 
M  END

$$$$



 34 34  0  0  0  0  0  0  0  0999 V2000
   -1.7199    4.5507   -0.3128 H   0  0  0  1  0  0  0  0  0  0  0  0
   -0.0077    3.7267    0.5541 C   0  0  0  1  0  0  0  0  0  0  0  0
   -2.3706    3.1092    0.9831 N   0  0  0  1  0  0  0  0  0  0  0  0
   -1.4089    3.5742   -0.0052 C   0  0  0  1  0  0  0  0  0  0  0  0
    0.1849    3.8826    1.7570 O   0  0  0  1  0  0  0  0  0  0  0  0
    0.9876    3.6798   -0.3455 N   0  0  0  1  0  0  0  0  0  0  0  0
   -3.2541    3.5319    1.0186 H   0  0  0  1  0  0  0  0  0  0  0  0
   -2.0915    2.1278    1.8422 C   0  0  0  1  0  0  0  0  0  0  0  0
    2.3890    3.7440    0.0416 C   0  0  0  1  0  0  0  0  0  0  0  0
   -3.1924    1.7800    2.8253 C   0  0  0  1  0  0  0  0  0  0  0  0
   -1.0173    1.5325    1.8515 O   0  0  0  1  0  0  0  0  0  0  0  0
    0.7626    3.5994   -1.2960 H   0  0  0  1  0  0  0  0  0  0  0  0
    2.4629    3.7997    1.1076 H   0  0  0  1  0  0  0  0  0  0  0  0
    2.8393    4.6121   -0.3928 H   0  0  0  1  0  0  0  0  0  0  0  0
    2.8951    2.8675   -0.3055 H   0  0  0  1  0  0  0  0  0  0  0  0
   -4.0030    1.3152    2.3040 H   0  0  0  1  0  0  0  0  0  0  0  0
   -3.5401    2.6728    3.3015 H   0  0  0  1  0  0  0  0  0  0  0  0
   -2.8109    1.1065    3.5640 H   0  0  0  1  0  0  0  0  0  0  0  0
   -1.4187    2.7117   -1.2605 C   0  0  0  1  0  0  0  0  0  0  0  0
   -2.7884    2.5715   -1.8689 C   0  0  0  1  0  0  0  0  0  0  0  0
   -3.0206    3.0103   -3.1588 C   0  0  0  1  0  0  0  0  0  0  0  0
   -4.2808    2.8761   -3.7205 C   0  0  0  1  0  0  0  0  0  0  0  0
   -5.3065    2.3083   -2.9885 C   0  0  0  1  0  0  0  0  0  0  0  0
   -5.0738    1.8682   -1.6948 C   0  0  0  1  0  0  0  0  0  0  0  0
   -3.8173    2.0021   -1.1350 C   0  0  0  1  0  0  0  0  0  0  0  0
   -6.6123    2.1516   -3.5093 N   0  0  0  1  0  0  0  0  0  0  0  0
   -1.0573    1.7370   -1.0068 H   0  0  0  1  0  0  0  0  0  0  0  0
   -0.7684    3.1565   -1.9844 H   0  0  0  1  0  0  0  0  0  0  0  0
   -2.2497    3.4411   -3.7081 H   0  0  0  1  0  0  0  0  0  0  0  0
   -4.4544    3.2025   -4.6925 H   0  0  0  1  0  0  0  0  0  0  0  0
   -5.8447    1.4374   -1.1455 H   0  0  0  1  0  0  0  0  0  0  0  0
   -3.6437    1.6756   -0.1629 H   0  0  0  1  0  0  0  0  0  0  0  0
   -6.8014    2.3958   -4.4393 H   0  0  0  1  0  0  0  0  0  0  0  0
   -7.3278    1.7989   -2.9401 H   0  0  0  1  0  0  0  0  0  0  0  0
  1  4  1  0  0  0  0
  2  4  1  0  0  0  0
  2  5  2  0  0  0  0
  2  6  1  0  0  0  0
  3  4  1  0  0  0  0
  3  7  1  0  0  0  0
  3  8  1  0  0  0  0
  4 19  1  0  0  0  0
  6  9  1  0  0  0  0
  6 12  1  0  0  0  0
  8 10  1  0  0  0  0
  8 11  2  0  0  0  0
  9 13  1  0  0  0  0
  9 14  1  0  0  0  0
  9 15  1  0  0  0  0
 10 16  1  0  0  0  0
 10 17  1  0  0  0  0
 10 18  1  0  0  0  0
 19 20  1  0  0  0  0
 19 27  1  0  0  0  0
 19 28  1  0  0  0  0
 20 21  4  0  0  0  0
 20 25  4  0  0  0  0
 21 22  4  0  0  0  0
 21 29  1  0  0  0  0
 22 23  4  0  0  0  0
 22 30  1  0  0  0  0
 23 24  4  0  0  0  0
 23 26  1  0  0  0  0
 24 25  4  0  0  0  0
 24 31  1  0  0  0  0
 25 32  1  0  0  0  0
 26 33  1  0  0  0  0
 26 34  1  0  0  0  0
M  END
> <BCLConfClusterSize>
1

> <ConfClashScore>
0 

> <ConfOneFourInteractionScore>
-0.933935 

> <ConfScore>
0.079998 

> <ConfScorePBest>
0.00678005 

> <ConfTolerance>
0.289184 

> <RosettaParamsInstructions>
M  ROOT 3
M  POLY_N_BB 3
M  POLY_CA_BB 4
M  POLY_C_BB 2
M  POLY_O_BB 5
M  POLY_IGNORE 9 10 11 12 13 14 15 16 17 18 
M  POLY_UPPER 6
M  POLY_LOWER 8
M  POLY_CHG 0
M  POLY_PROPERTIES ALPHA_AA D_AA PROTEIN AROMATIC POLYMER 
M  END

$$$$



 34 34  0  0  0  0  0  0  0  0999 V2000
   -0.4950    1.1446   -2.2825 H   0  0  0  1  0  0  0  0  0  0  0  0
   -1.1853    0.2796   -0.5061 C   0  0  0  1  0  0  0  0  0  0  0  0
    0.7833    1.7773   -0.7994 N   0  0  0  1  0  0  0  0  0  0  0  0
   -0.5700    1.4439   -1.2579 C   0  0  0  1  0  0  0  0  0  0  0  0
   -1.2098    0.2553    0.7216 O   0  0  0  1  0  0  0  0  0  0  0  0
   -1.6915   -0.7037   -1.2670 N   0  0  0  1  0  0  0  0  0  0  0  0
    1.0083    2.7165   -0.6328 H   0  0  0  1  0  0  0  0  0  0  0  0
    1.7196    0.8451   -0.6010 C   0  0  0  1  0  0  0  0  0  0  0  0
   -2.2385   -1.9261   -0.6955 C   0  0  0  1  0  0  0  0  0  0  0  0
    3.0935    1.3618   -0.2208 C   0  0  0  1  0  0  0  0  0  0  0  0
    1.4997   -0.3601   -0.7149 O   0  0  0  1  0  0  0  0  0  0  0  0
   -1.6930   -0.5951   -2.2409 H   0  0  0  1  0  0  0  0  0  0  0  0
   -2.9487   -1.6780    0.0655 H   0  0  0  1  0  0  0  0  0  0  0  0
   -1.4466   -2.5055   -0.2687 H   0  0  0  1  0  0  0  0  0  0  0  0
   -2.7222   -2.4931   -1.4632 H   0  0  0  1  0  0  0  0  0  0  0  0
    3.7488    0.5352   -0.0409 H   0  0  0  1  0  0  0  0  0  0  0  0
    3.0180    1.9562    0.6656 H   0  0  0  1  0  0  0  0  0  0  0  0
    3.4833    1.9585   -1.0189 H   0  0  0  1  0  0  0  0  0  0  0  0
   -1.4183    2.7049   -1.2389 C   0  0  0  1  0  0  0  0  0  0  0  0
   -2.7832    2.5793   -1.8840 C   0  0  0  1  0  0  0  0  0  0  0  0
   -3.0326    2.9997   -3.1768 C   0  0  0  1  0  0  0  0  0  0  0  0
   -4.2997    2.8561   -3.7202 C   0  0  0  1  0  0  0  0  0  0  0  0
   -5.3151    2.2973   -2.9671 C   0  0  0  1  0  0  0  0  0  0  0  0
   -5.0651    1.8756   -1.6706 C   0  0  0  1  0  0  0  0  0  0  0  0
   -3.8017    2.0189   -1.1289 C   0  0  0  1  0  0  0  0  0  0  0  0
   -6.6095    2.1557   -3.5196 N   0  0  0  1  0  0  0  0  0  0  0  0
   -0.8795    3.4730   -1.7534 H   0  0  0  1  0  0  0  0  0  0  0  0
   -1.5609    2.9914   -0.2178 H   0  0  0  1  0  0  0  0  0  0  0  0
   -2.2695    3.4238   -3.7419 H   0  0  0  1  0  0  0  0  0  0  0  0
   -4.4863    3.1688   -4.6943 H   0  0  0  1  0  0  0  0  0  0  0  0
   -5.8282    1.4515   -1.1054 H   0  0  0  1  0  0  0  0  0  0  0  0
   -3.6151    1.7062   -0.1548 H   0  0  0  1  0  0  0  0  0  0  0  0
   -7.3058    1.6796   -3.0208 H   0  0  0  1  0  0  0  0  0  0  0  0
   -6.8100    2.5338   -4.4013 H   0  0  0  1  0  0  0  0  0  0  0  0
  1  4  1  0  0  0  0
  2  4  1  0  0  0  0
  2  5  2  0  0  0  0
  2  6  1  0  0  0  0
  3  4  1  0  0  0  0
  3  7  1  0  0  0  0
  3  8  1  0  0  0  0
  4 19  1  0  0  0  0
  6  9  1  0  0  0  0
  6 12  1  0  0  0  0
  8 10  1  0  0  0  0
  8 11  2  0  0  0  0
  9 13  1  0  0  0  0
  9 14  1  0  0  0  0
  9 15  1  0  0  0  0
 10 16  1  0  0  0  0
 10 17  1  0  0  0  0
 10 18  1  0  0  0  0
 19 20  1  0  0  0  0
 19 27  1  0  0  0  0
 19 28  1  0  0  0  0
 20 21  4  0  0  0  0
 20 25  4  0  0  0  0
 21 22  4  0  0  0  0
 21 29  1  0  0  0  0
 22 23  4  0  0  0  0
 22 30  1  0  0  0  0
 23 24  4  0  0  0  0
 23 26  1  0  0  0  0
 24 25  4  0  0  0  0
 24 31  1  0  0  0  0
 25 32  1  0  0  0  0
 26 33  1  0  0  0  0
 26 34  1  0  0  0  0
M  END
> <BCLConfClusterSize>
1

> <ConfClashScore>
0 

> <ConfOneFourInteractionScore>
-0.985807 

> <ConfScore>
0.0805683 

> <ConfScorePBest>
0.00675157 

> <ConfTolerance>
0.239354 

> <RosettaParamsInstructions>
M  ROOT 3
M  POLY_N_BB 3
M  POLY_CA_BB 4
M  POLY_C_BB 2
M  POLY_O_BB 5
M  POLY_IGNORE 9 10 11 12 13 14 15 16 17 18 
M  POLY_UPPER 6
M  POLY_LOWER 8
M  POLY_CHG 0
M  POLY_PROPERTIES ALPHA_AA D_AA PROTEIN AROMATIC POLYMER 
M  END

$$$$



 34 34  0  0  0  0  0  0  0  0999 V2000
   -0.2228    4.2500   -0.4070 H   0  0  0  1  0  0  0  0  0  0  0  0
   -1.8806    3.9174    0.8407 C   0  0  0  1  0  0  0  0  0  0  0  0
   -1.8461    5.1544   -1.2912 N   0  0  0  1  0  0  0  0  0  0  0  0
   -1.2660    4.0519   -0.5389 C   0  0  0  1  0  0  0  0  0  0  0  0
   -1.2130    3.5147    1.7924 O   0  0  0  1  0  0  0  0  0  0  0  0
   -3.1723    4.2503    0.9913 N   0  0  0  1  0  0  0  0  0  0  0  0
   -1.9266    5.0722   -2.2644 H   0  0  0  1  0  0  0  0  0  0  0  0
   -2.2727    6.2746   -0.7011 C   0  0  0  1  0  0  0  0  0  0  0  0
   -3.8147    4.1169    2.2904 C   0  0  0  1  0  0  0  0  0  0  0  0
   -2.8775    7.3117   -1.6201 C   0  0  0  1  0  0  0  0  0  0  0  0
   -2.1873    6.4677    0.5109 O   0  0  0  1  0  0  0  0  0  0  0  0
   -3.6839    4.5840    0.2249 H   0  0  0  1  0  0  0  0  0  0  0  0
   -3.0759    4.1773    3.0620 H   0  0  0  1  0  0  0  0  0  0  0  0
   -4.3122    3.1712    2.3465 H   0  0  0  1  0  0  0  0  0  0  0  0
   -4.5282    4.9040    2.4177 H   0  0  0  1  0  0  0  0  0  0  0  0
   -3.7159    6.8888   -2.1332 H   0  0  0  1  0  0  0  0  0  0  0  0
   -2.1448    7.6264   -2.3335 H   0  0  0  1  0  0  0  0  0  0  0  0
   -3.1999    8.1537   -1.0441 H   0  0  0  1  0  0  0  0  0  0  0  0
   -1.3841    2.7498   -1.3323 C   0  0  0  1  0  0  0  0  0  0  0  0
   -2.7951    2.5640   -1.8531 C   0  0  0  1  0  0  0  0  0  0  0  0
   -3.0190    3.0022   -3.1447 C   0  0  0  1  0  0  0  0  0  0  0  0
   -4.2765    2.8710   -3.7131 C   0  0  0  1  0  0  0  0  0  0  0  0
   -5.3078    2.3068   -2.9861 C   0  0  0  1  0  0  0  0  0  0  0  0
   -5.0834    1.8673   -1.6908 C   0  0  0  1  0  0  0  0  0  0  0  0
   -3.8296    1.9982   -1.1243 C   0  0  0  1  0  0  0  0  0  0  0  0
   -6.6111    2.1533   -3.5139 N   0  0  0  1  0  0  0  0  0  0  0  0
   -1.1341    1.9270   -0.6955 H   0  0  0  1  0  0  0  0  0  0  0  0
   -0.7060    2.7802   -2.1595 H   0  0  0  1  0  0  0  0  0  0  0  0
   -2.2439    3.4304   -3.6902 H   0  0  0  1  0  0  0  0  0  0  0  0
   -4.4439    3.1970   -4.6864 H   0  0  0  1  0  0  0  0  0  0  0  0
   -5.8584    1.4391   -1.1453 H   0  0  0  1  0  0  0  0  0  0  0  0
   -3.6622    1.6721   -0.1510 H   0  0  0  1  0  0  0  0  0  0  0  0
   -6.7874    2.3670   -4.4539 H   0  0  0  1  0  0  0  0  0  0  0  0
   -7.3378    1.8332   -2.9395 H   0  0  0  1  0  0  0  0  0  0  0  0
  1  4  1  0  0  0  0
  2  4  1  0  0  0  0
  2  5  2  0  0  0  0
  2  6  1  0  0  0  0
  3  4  1  0  0  0  0
  3  7  1  0  0  0  0
  3  8  1  0  0  0  0
  4 19  1  0  0  0  0
  6  9  1  0  0  0  0
  6 12  1  0  0  0  0
  8 10  1  0  0  0  0
  8 11  2  0  0  0  0
  9 13  1  0  0  0  0
  9 14  1  0  0  0  0
  9 15  1  0  0  0  0
 10 16  1  0  0  0  0
 10 17  1  0  0  0  0
 10 18  1  0  0  0  0
 19 20  1  0  0  0  0
 19 27  1  0  0  0  0
 19 28  1  0  0  0  0
 20 21  4  0  0  0  0
 20 25  4  0  0  0  0
 21 22  4  0  0  0  0
 21 29  1  0  0  0  0
 22 23  4  0  0  0  0
 22 30  1  0  0  0  0
 23 24  4  0  0  0  0
 23 26  1  0  0  0  0
 24 25  4  0  0  0  0
 24 31  1  0  0  0  0
 25 32  1  0  0  0  0
 26 33  1  0  0  0  0
 26 34  1  0  0  0  0
M  END
> <BCLConfClusterSize>
1

> <ConfClashScore>
0 

> <ConfOneFourInteractionScore>
-0.943556 

> <ConfScore>
0.0845137 

> <ConfScorePBest>
0.00672309 

> <ConfTolerance>
0.263787 

> <RosettaParamsInstructions>
M  ROOT 3
M  POLY_N_BB 3
M  POLY_CA_BB 4
M  POLY_C_BB 2
M  POLY_O_BB 5
M  POLY_IGNORE 9 10 11 12 13 14 15 16 17 18 
M  POLY_UPPER 6
M  POLY_LOWER 8
M  POLY_CHG 0
M  POLY_PROPERTIES ALPHA_AA D_AA PROTEIN AROMATIC POLYMER 
M  END

$$$$



 34 34  0  0  0  0  0  0  0  0999 V2000
   -1.5892    4.7525   -0.7734 H   0  0  0  1  0  0  0  0  0  0  0  0
    0.2022    4.0733    0.0895 C   0  0  0  1  0  0  0  0  0  0  0  0
   -2.0902    3.6531    0.8922 N   0  0  0  1  0  0  0  0  0  0  0  0
   -1.2536    3.8645   -0.2796 C   0  0  0  1  0  0  0  0  0  0  0  0
    1.0575    3.6836   -0.7011 O   0  0  0  1  0  0  0  0  0  0  0  0
    0.4779    4.6669    1.2488 N   0  0  0  1  0  0  0  0  0  0  0  0
   -2.9116    4.1789    0.9880 H   0  0  0  1  0  0  0  0  0  0  0  0
   -1.7779    2.7684    1.8404 C   0  0  0  1  0  0  0  0  0  0  0  0
    1.8167    4.9693    1.7324 C   0  0  0  1  0  0  0  0  0  0  0  0
   -2.7428    2.6924    3.0195 C   0  0  0  1  0  0  0  0  0  0  0  0
   -0.7799    2.0511    1.7849 O   0  0  0  1  0  0  0  0  0  0  0  0
   -0.2778    4.9192    1.8196 H   0  0  0  1  0  0  0  0  0  0  0  0
    2.2800    5.6799    1.0801 H   0  0  0  1  0  0  0  0  0  0  0  0
    2.3992    4.0720    1.7534 H   0  0  0  1  0  0  0  0  0  0  0  0
    1.7553    5.3785    2.7192 H   0  0  0  1  0  0  0  0  0  0  0  0
   -2.7675    3.6366    3.5223 H   0  0  0  1  0  0  0  0  0  0  0  0
   -2.4149    1.9346    3.7001 H   0  0  0  1  0  0  0  0  0  0  0  0
   -3.7228    2.4526    2.6632 H   0  0  0  1  0  0  0  0  0  0  0  0
   -1.4191    2.7089   -1.2621 C   0  0  0  1  0  0  0  0  0  0  0  0
   -2.7880    2.5701   -1.8694 C   0  0  0  1  0  0  0  0  0  0  0  0
   -3.0236    3.0215   -3.1543 C   0  0  0  1  0  0  0  0  0  0  0  0
   -4.2842    2.8885   -3.7155 C   0  0  0  1  0  0  0  0  0  0  0  0
   -5.3067    2.3093   -2.9881 C   0  0  0  1  0  0  0  0  0  0  0  0
   -5.0705    1.8565   -1.6994 C   0  0  0  1  0  0  0  0  0  0  0  0
   -3.8136    1.9892   -1.1400 C   0  0  0  1  0  0  0  0  0  0  0  0
   -6.6126    2.1532   -3.5086 N   0  0  0  1  0  0  0  0  0  0  0  0
   -1.1943    1.8003   -0.7437 H   0  0  0  1  0  0  0  0  0  0  0  0
   -0.7176    2.8491   -2.0578 H   0  0  0  1  0  0  0  0  0  0  0  0
   -2.2552    3.4610   -3.7002 H   0  0  0  1  0  0  0  0  0  0  0  0
   -4.4604    3.2245   -4.6839 H   0  0  0  1  0  0  0  0  0  0  0  0
   -5.8389    1.4170   -1.1536 H   0  0  0  1  0  0  0  0  0  0  0  0
   -3.6374    1.6532   -0.1717 H   0  0  0  1  0  0  0  0  0  0  0  0
   -6.8411    2.5355   -4.3815 H   0  0  0  1  0  0  0  0  0  0  0  0
   -7.2889    1.6626   -2.9963 H   0  0  0  1  0  0  0  0  0  0  0  0
  1  4  1  0  0  0  0
  2  4  1  0  0  0  0
  2  5  2  0  0  0  0
  2  6  1  0  0  0  0
  3  4  1  0  0  0  0
  3  7  1  0  0  0  0
  3  8  1  0  0  0  0
  4 19  1  0  0  0  0
  6  9  1  0  0  0  0
  6 12  1  0  0  0  0
  8 10  1  0  0  0  0
  8 11  2  0  0  0  0
  9 13  1  0  0  0  0
  9 14  1  0  0  0  0
  9 15  1  0  0  0  0
 10 16  1  0  0  0  0
 10 17  1  0  0  0  0
 10 18  1  0  0  0  0
 19 20  1  0  0  0  0
 19 27  1  0  0  0  0
 19 28  1  0  0  0  0
 20 21  4  0  0  0  0
 20 25  4  0  0  0  0
 21 22  4  0  0  0  0
 21 29  1  0  0  0  0
 22 23  4  0  0  0  0
 22 30  1  0  0  0  0
 23 24  4  0  0  0  0
 23 26  1  0  0  0  0
 24 25  4  0  0  0  0
 24 31  1  0  0  0  0
 25 32  1  0  0  0  0
 26 33  1  0  0  0  0
 26 34  1  0  0  0  0
M  END
> <BCLConfClusterSize>
1

> <ConfClashScore>
0 

> <ConfOneFourInteractionScore>
-0.953489 

> <ConfScore>
0.090006 

> <ConfScorePBest>
0.0066946 

> <ConfTolerance>
0.165576 

> <RosettaParamsInstructions>
M  ROOT 3
M  POLY_N_BB 3
M  POLY_CA_BB 4
M  POLY_C_BB 2
M  POLY_O_BB 5
M  POLY_IGNORE 9 10 11 12 13 14 15 16 17 18 
M  POLY_UPPER 6
M  POLY_LOWER 8
M  POLY_CHG 0
M  POLY_PROPERTIES ALPHA_AA D_AA PROTEIN AROMATIC POLYMER 
M  END

$$$$



 34 34  0  0  0  0  0  0  0  0999 V2000
   -0.3522    2.6340   -3.1055 H   0  0  0  1  0  0  0  0  0  0  0  0
   -0.5174    0.6509   -2.4083 C   0  0  0  1  0  0  0  0  0  0  0  0
    0.9484    2.4502   -1.5120 N   0  0  0  1  0  0  0  0  0  0  0  0
   -0.3152    2.1332   -2.1606 C   0  0  0  1  0  0  0  0  0  0  0  0
    0.2450    0.0882   -3.1968 O   0  0  0  1  0  0  0  0  0  0  0  0
   -1.5074    0.0336   -1.7616 N   0  0  0  1  0  0  0  0  0  0  0  0
    0.9334    2.8546   -0.6194 H   0  0  0  1  0  0  0  0  0  0  0  0
    2.1281    2.2093   -2.0910 C   0  0  0  1  0  0  0  0  0  0  0  0
   -1.7934   -1.3813   -1.9465 C   0  0  0  1  0  0  0  0  0  0  0  0
    3.3432    2.7430   -1.3575 C   0  0  0  1  0  0  0  0  0  0  0  0
    2.2401    1.6006   -3.1423 O   0  0  0  1  0  0  0  0  0  0  0  0
   -2.0614    0.5509   -1.1405 H   0  0  0  1  0  0  0  0  0  0  0  0
   -2.4243   -1.5094   -2.8011 H   0  0  0  1  0  0  0  0  0  0  0  0
   -2.2887   -1.7613   -1.0776 H   0  0  0  1  0  0  0  0  0  0  0  0
   -0.8773   -1.9133   -2.0968 H   0  0  0  1  0  0  0  0  0  0  0  0
    3.1815    3.7682   -1.0973 H   0  0  0  1  0  0  0  0  0  0  0  0
    4.2030    2.6671   -1.9898 H   0  0  0  1  0  0  0  0  0  0  0  0
    3.5024    2.1703   -0.4678 H   0  0  0  1  0  0  0  0  0  0  0  0
   -1.4102    2.7245   -1.2826 C   0  0  0  1  0  0  0  0  0  0  0  0
   -2.7859    2.5757   -1.8751 C   0  0  0  1  0  0  0  0  0  0  0  0
   -3.0304    2.9935   -3.1697 C   0  0  0  1  0  0  0  0  0  0  0  0
   -4.2962    2.8513   -3.7167 C   0  0  0  1  0  0  0  0  0  0  0  0
   -5.3151    2.2964   -2.9655 C   0  0  0  1  0  0  0  0  0  0  0  0
   -5.0700    1.8773   -1.6671 C   0  0  0  1  0  0  0  0  0  0  0  0
   -3.8080    2.0192   -1.1219 C   0  0  0  1  0  0  0  0  0  0  0  0
   -6.6080    2.1563   -3.5217 N   0  0  0  1  0  0  0  0  0  0  0  0
   -1.2100    3.7665   -1.1439 H   0  0  0  1  0  0  0  0  0  0  0  0
   -1.3920    2.2282   -0.3348 H   0  0  0  1  0  0  0  0  0  0  0  0
   -2.2647    3.4147   -3.7335 H   0  0  0  1  0  0  0  0  0  0  0  0
   -4.4791    3.1620   -4.6922 H   0  0  0  1  0  0  0  0  0  0  0  0
   -5.8357    1.4562   -1.1033 H   0  0  0  1  0  0  0  0  0  0  0  0
   -3.6250    1.7085   -0.1465 H   0  0  0  1  0  0  0  0  0  0  0  0
   -7.2928    1.6410   -3.0462 H   0  0  0  1  0  0  0  0  0  0  0  0
   -6.8191    2.5744   -4.3825 H   0  0  0  1  0  0  0  0  0  0  0  0
  1  4  1  0  0  0  0
  2  4  1  0  0  0  0
  2  5  2  0  0  0  0
  2  6  1  0  0  0  0
  3  4  1  0  0  0  0
  3  7  1  0  0  0  0
  3  8  1  0  0  0  0
  4 19  1  0  0  0  0
  6  9  1  0  0  0  0
  6 12  1  0  0  0  0
  8 10  1  0  0  0  0
  8 11  2  0  0  0  0
  9 13  1  0  0  0  0
  9 14  1  0  0  0  0
  9 15  1  0  0  0  0
 10 16  1  0  0  0  0
 10 17  1  0  0  0  0
 10 18  1  0  0  0  0
 19 20  1  0  0  0  0
 19 27  1  0  0  0  0
 19 28  1  0  0  0  0
 20 21  4  0  0  0  0
 20 25  4  0  0  0  0
 21 22  4  0  0  0  0
 21 29  1  0  0  0  0
 22 23  4  0  0  0  0
 22 30  1  0  0  0  0
 23 24  4  0  0  0  0
 23 26  1  0  0  0  0
 24 25  4  0  0  0  0
 24 31  1  0  0  0  0
 25 32  1  0  0  0  0
 26 33  1  0  0  0  0
 26 34  1  0  0  0  0
M  END
> <BCLConfClusterSize>
1

> <ConfClashScore>
0 

> <ConfOneFourInteractionScore>
-0.952541 

> <ConfScore>
0.09004 

> <ConfScorePBest>
0.00666612 

> <ConfTolerance>
0.392159 

> <RosettaParamsInstructions>
M  ROOT 3
M  POLY_N_BB 3
M  POLY_CA_BB 4
M  POLY_C_BB 2
M  POLY_O_BB 5
M  POLY_IGNORE 9 10 11 12 13 14 15 16 17 18 
M  POLY_UPPER 6
M  POLY_LOWER 8
M  POLY_CHG 0
M  POLY_PROPERTIES ALPHA_AA D_AA PROTEIN AROMATIC POLYMER 
M  END

$$$$



 34 34  0  0  0  0  0  0  0  0999 V2000
   -0.9366    0.7824   -0.8519 H   0  0  0  1  0  0  0  0  0  0  0  0
    0.8255    1.8967   -0.5889 C   0  0  0  1  0  0  0  0  0  0  0  0
   -0.2206    1.2478   -2.7233 N   0  0  0  1  0  0  0  0  0  0  0  0
   -0.4624    1.6104   -1.3361 C   0  0  0  1  0  0  0  0  0  0  0  0
    0.8959    1.7724    0.6310 O   0  0  0  1  0  0  0  0  0  0  0  0
    1.8635    2.2886   -1.3447 N   0  0  0  1  0  0  0  0  0  0  0  0
   -0.7237    1.6894   -3.4390 H   0  0  0  1  0  0  0  0  0  0  0  0
    0.6949    0.3045   -3.0272 C   0  0  0  1  0  0  0  0  0  0  0  0
    3.2019    2.5364   -0.8299 C   0  0  0  1  0  0  0  0  0  0  0  0
    1.0124    0.0645   -4.4903 C   0  0  0  1  0  0  0  0  0  0  0  0
    1.2571   -0.3431   -2.1450 O   0  0  0  1  0  0  0  0  0  0  0  0
    1.7101    2.4160   -2.3042 H   0  0  0  1  0  0  0  0  0  0  0  0
    3.1567    3.2767   -0.0587 H   0  0  0  1  0  0  0  0  0  0  0  0
    3.8297    2.8858   -1.6229 H   0  0  0  1  0  0  0  0  0  0  0  0
    3.6036    1.6289   -0.4299 H   0  0  0  1  0  0  0  0  0  0  0  0
    0.9725    0.9925   -5.0214 H   0  0  0  1  0  0  0  0  0  0  0  0
    0.2958   -0.6140   -4.9039 H   0  0  0  1  0  0  0  0  0  0  0  0
    1.9930   -0.3545   -4.5782 H   0  0  0  1  0  0  0  0  0  0  0  0
   -1.4218    2.7869   -1.2596 C   0  0  0  1  0  0  0  0  0  0  0  0
   -2.7867    2.5523   -1.8721 C   0  0  0  1  0  0  0  0  0  0  0  0
   -3.0372    2.9815   -3.1618 C   0  0  0  1  0  0  0  0  0  0  0  0
   -4.3063    2.8468   -3.7030 C   0  0  0  1  0  0  0  0  0  0  0  0
   -5.3225    2.2883   -2.9508 C   0  0  0  1  0  0  0  0  0  0  0  0
   -5.0713    1.8578   -1.6573 C   0  0  0  1  0  0  0  0  0  0  0  0
   -3.8060    1.9922   -1.1179 C   0  0  0  1  0  0  0  0  0  0  0  0
   -6.5944    2.1806   -3.5488 N   0  0  0  1  0  0  0  0  0  0  0  0
   -0.9704    3.6143   -1.7661 H   0  0  0  1  0  0  0  0  0  0  0  0
   -1.5610    3.0327   -0.2275 H   0  0  0  1  0  0  0  0  0  0  0  0
   -2.2736    3.4054   -3.7263 H   0  0  0  1  0  0  0  0  0  0  0  0
   -4.4938    3.1660   -4.6749 H   0  0  0  1  0  0  0  0  0  0  0  0
   -5.8350    1.4339   -1.0928 H   0  0  0  1  0  0  0  0  0  0  0  0
   -3.6185    1.6729   -0.1460 H   0  0  0  1  0  0  0  0  0  0  0  0
   -6.7011    2.3520   -4.5077 H   0  0  0  1  0  0  0  0  0  0  0  0
   -7.3720    1.9344   -3.0055 H   0  0  0  1  0  0  0  0  0  0  0  0
  1  4  1  0  0  0  0
  2  4  1  0  0  0  0
  2  5  2  0  0  0  0
  2  6  1  0  0  0  0
  3  4  1  0  0  0  0
  3  7  1  0  0  0  0
  3  8  1  0  0  0  0
  4 19  1  0  0  0  0
  6  9  1  0  0  0  0
  6 12  1  0  0  0  0
  8 10  1  0  0  0  0
  8 11  2  0  0  0  0
  9 13  1  0  0  0  0
  9 14  1  0  0  0  0
  9 15  1  0  0  0  0
 10 16  1  0  0  0  0
 10 17  1  0  0  0  0
 10 18  1  0  0  0  0
 19 20  1  0  0  0  0
 19 27  1  0  0  0  0
 19 28  1  0  0  0  0
 20 21  4  0  0  0  0
 20 25  4  0  0  0  0
 21 22  4  0  0  0  0
 21 29  1  0  0  0  0
 22 23  4  0  0  0  0
 22 30  1  0  0  0  0
 23 24  4  0  0  0  0
 23 26  1  0  0  0  0
 24 25  4  0  0  0  0
 24 31  1  0  0  0  0
 25 32  1  0  0  0  0
 26 33  1  0  0  0  0
 26 34  1  0  0  0  0
M  END
> <BCLConfClusterSize>
1

> <ConfClashScore>
0 

> <ConfOneFourInteractionScore>
-0.960318 

> <ConfScore>
0.0924115 

> <ConfScorePBest>
0.00663764 

> <ConfTolerance>
0.209074 

> <RosettaParamsInstructions>
M  ROOT 3
M  POLY_N_BB 3
M  POLY_CA_BB 4
M  POLY_C_BB 2
M  POLY_O_BB 5
M  POLY_IGNORE 9 10 11 12 13 14 15 16 17 18 
M  POLY_UPPER 6
M  POLY_LOWER 8
M  POLY_CHG 0
M  POLY_PROPERTIES ALPHA_AA D_AA PROTEIN AROMATIC POLYMER 
M  END

$$$$



 34 34  0  0  0  0  0  0  0  0999 V2000
   -0.1106    4.1919   -0.4899 H   0  0  0  1  0  0  0  0  0  0  0  0
   -2.0186    4.5296    0.3365 C   0  0  0  1  0  0  0  0  0  0  0  0
   -1.2664    5.0960   -1.9503 N   0  0  0  1  0  0  0  0  0  0  0  0
   -1.1242    4.1597   -0.8313 C   0  0  0  1  0  0  0  0  0  0  0  0
   -1.9098    3.9707    1.4247 O   0  0  0  1  0  0  0  0  0  0  0  0
   -2.9202    5.4941    0.0976 N   0  0  0  1  0  0  0  0  0  0  0  0
   -1.8541    4.8736   -2.7023 H   0  0  0  1  0  0  0  0  0  0  0  0
   -0.5899    6.2633   -1.9471 C   0  0  0  1  0  0  0  0  0  0  0  0
   -3.6962    6.0565    1.1927 C   0  0  0  1  0  0  0  0  0  0  0  0
   -0.6670    7.1329   -3.1815 C   0  0  0  1  0  0  0  0  0  0  0  0
    0.0709    6.6122   -0.9697 O   0  0  0  1  0  0  0  0  0  0  0  0
   -3.0564    5.8205   -0.8164 H   0  0  0  1  0  0  0  0  0  0  0  0
   -4.6972    6.2415    0.8630 H   0  0  0  1  0  0  0  0  0  0  0  0
   -3.2500    6.9757    1.5105 H   0  0  0  1  0  0  0  0  0  0  0  0
   -3.7120    5.3659    2.0098 H   0  0  0  1  0  0  0  0  0  0  0  0
   -0.6366    6.5162   -4.0553 H   0  0  0  1  0  0  0  0  0  0  0  0
    0.1622    7.8091   -3.1935 H   0  0  0  1  0  0  0  0  0  0  0  0
   -1.5811    7.6890   -3.1693 H   0  0  0  1  0  0  0  0  0  0  0  0
   -1.3912    2.7519   -1.3473 C   0  0  0  1  0  0  0  0  0  0  0  0
   -2.7909    2.5713   -1.8709 C   0  0  0  1  0  0  0  0  0  0  0  0
   -3.0566    2.9912   -3.1606 C   0  0  0  1  0  0  0  0  0  0  0  0
   -4.3290    2.8416   -3.6901 C   0  0  0  1  0  0  0  0  0  0  0  0
   -5.3332    2.2773   -2.9263 C   0  0  0  1  0  0  0  0  0  0  0  0
   -5.0668    1.8561   -1.6328 C   0  0  0  1  0  0  0  0  0  0  0  0
   -3.7982    2.0054   -1.1051 C   0  0  0  1  0  0  0  0  0  0  0  0
   -6.5834    2.1773   -3.5546 N   0  0  0  1  0  0  0  0  0  0  0  0
   -1.2355    2.0601   -0.5460 H   0  0  0  1  0  0  0  0  0  0  0  0
   -0.7020    2.5428   -2.1386 H   0  0  0  1  0  0  0  0  0  0  0  0
   -2.3019    3.4195   -3.7339 H   0  0  0  1  0  0  0  0  0  0  0  0
   -4.5279    3.1539   -4.6620 H   0  0  0  1  0  0  0  0  0  0  0  0
   -5.8215    1.4278   -1.0596 H   0  0  0  1  0  0  0  0  0  0  0  0
   -3.5994    1.6931   -0.1332 H   0  0  0  1  0  0  0  0  0  0  0  0
   -7.3340    1.7543   -3.0877 H   0  0  0  1  0  0  0  0  0  0  0  0
   -6.7062    2.5306   -4.4605 H   0  0  0  1  0  0  0  0  0  0  0  0
  1  4  1  0  0  0  0
  2  4  1  0  0  0  0
  2  5  2  0  0  0  0
  2  6  1  0  0  0  0
  3  4  1  0  0  0  0
  3  7  1  0  0  0  0
  3  8  1  0  0  0  0
  4 19  1  0  0  0  0
  6  9  1  0  0  0  0
  6 12  1  0  0  0  0
  8 10  1  0  0  0  0
  8 11  2  0  0  0  0
  9 13  1  0  0  0  0
  9 14  1  0  0  0  0
  9 15  1  0  0  0  0
 10 16  1  0  0  0  0
 10 17  1  0  0  0  0
 10 18  1  0  0  0  0
 19 20  1  0  0  0  0
 19 27  1  0  0  0  0
 19 28  1  0  0  0  0
 20 21  4  0  0  0  0
 20 25  4  0  0  0  0
 21 22  4  0  0  0  0
 21 29  1  0  0  0  0
 22 23  4  0  0  0  0
 22 30  1  0  0  0  0
 23 24  4  0  0  0  0
 23 26  1  0  0  0  0
 24 25  4  0  0  0  0
 24 31  1  0  0  0  0
 25 32  1  0  0  0  0
 26 33  1  0  0  0  0
 26 34  1  0  0  0  0
M  END
> <BCLConfClusterSize>
1

> <ConfClashScore>
0 

> <ConfOneFourInteractionScore>
-0.950605 

> <ConfScore>
0.0927735 

> <ConfScorePBest>
0.00660916 

> <ConfTolerance>
0.274774 

> <RosettaParamsInstructions>
M  ROOT 3
M  POLY_N_BB 3
M  POLY_CA_BB 4
M  POLY_C_BB 2
M  POLY_O_BB 5
M  POLY_IGNORE 9 10 11 12 13 14 15 16 17 18 
M  POLY_UPPER 6
M  POLY_LOWER 8
M  POLY_CHG 0
M  POLY_PROPERTIES ALPHA_AA D_AA PROTEIN AROMATIC POLYMER 
M  END

$$$$



 34 34  0  0  0  0  0  0  0  0999 V2000
   -1.3203    0.9268   -0.1448 H   0  0  0  1  0  0  0  0  0  0  0  0
    0.6652    1.6229   -0.4397 C   0  0  0  1  0  0  0  0  0  0  0  0
   -0.7313    0.4896   -2.0846 N   0  0  0  1  0  0  0  0  0  0  0  0
   -0.7586    1.3807   -0.9343 C   0  0  0  1  0  0  0  0  0  0  0  0
    0.8817    2.1058    0.6709 O   0  0  0  1  0  0  0  0  0  0  0  0
    1.6447    1.2766   -1.2898 N   0  0  0  1  0  0  0  0  0  0  0  0
   -1.1951    0.7609   -2.9042 H   0  0  0  1  0  0  0  0  0  0  0  0
   -0.0960   -0.6855   -2.0621 C   0  0  0  1  0  0  0  0  0  0  0  0
    3.0340    1.3135   -0.8579 C   0  0  0  1  0  0  0  0  0  0  0  0
   -0.1802   -1.5044   -3.3355 C   0  0  0  1  0  0  0  0  0  0  0  0
    0.5177   -1.0904   -1.0885 O   0  0  0  1  0  0  0  0  0  0  0  0
    1.4238    0.9983   -2.2031 H   0  0  0  1  0  0  0  0  0  0  0  0
    3.1152    1.8986    0.0343 H   0  0  0  1  0  0  0  0  0  0  0  0
    3.6349    1.7515   -1.6273 H   0  0  0  1  0  0  0  0  0  0  0  0
    3.3733    0.3176   -0.6632 H   0  0  0  1  0  0  0  0  0  0  0  0
    0.2305   -0.9433   -4.1488 H   0  0  0  1  0  0  0  0  0  0  0  0
   -1.2040   -1.7359   -3.5433 H   0  0  0  1  0  0  0  0  0  0  0  0
    0.3734   -2.4118   -3.2131 H   0  0  0  1  0  0  0  0  0  0  0  0
   -1.4097    2.7232   -1.2832 C   0  0  0  1  0  0  0  0  0  0  0  0
   -2.7857    2.5749   -1.8755 C   0  0  0  1  0  0  0  0  0  0  0  0
   -3.0322    3.0003   -3.1672 C   0  0  0  1  0  0  0  0  0  0  0  0
   -4.2982    2.8586   -3.7140 C   0  0  0  1  0  0  0  0  0  0  0  0
   -5.3152    2.2968   -2.9653 C   0  0  0  1  0  0  0  0  0  0  0  0
   -5.0680    1.8702   -1.6698 C   0  0  0  1  0  0  0  0  0  0  0  0
   -3.8058    2.0115   -1.1249 C   0  0  0  1  0  0  0  0  0  0  0  0
   -6.6083    2.1572   -3.5212 N   0  0  0  1  0  0  0  0  0  0  0  0
   -0.7872    3.2300   -1.9906 H   0  0  0  1  0  0  0  0  0  0  0  0
   -1.4846    3.3077   -0.3901 H   0  0  0  1  0  0  0  0  0  0  0  0
   -2.2679    3.4266   -3.7291 H   0  0  0  1  0  0  0  0  0  0  0  0
   -4.4827    3.1750   -4.6874 H   0  0  0  1  0  0  0  0  0  0  0  0
   -5.8323    1.4439   -1.1080 H   0  0  0  1  0  0  0  0  0  0  0  0
   -3.6214    1.6952   -0.1515 H   0  0  0  1  0  0  0  0  0  0  0  0
   -7.3188    1.7213   -3.0059 H   0  0  0  1  0  0  0  0  0  0  0  0
   -6.7938    2.4965   -4.4217 H   0  0  0  1  0  0  0  0  0  0  0  0
  1  4  1  0  0  0  0
  2  4  1  0  0  0  0
  2  5  2  0  0  0  0
  2  6  1  0  0  0  0
  3  4  1  0  0  0  0
  3  7  1  0  0  0  0
  3  8  1  0  0  0  0
  4 19  1  0  0  0  0
  6  9  1  0  0  0  0
  6 12  1  0  0  0  0
  8 10  1  0  0  0  0
  8 11  2  0  0  0  0
  9 13  1  0  0  0  0
  9 14  1  0  0  0  0
  9 15  1  0  0  0  0
 10 16  1  0  0  0  0
 10 17  1  0  0  0  0
 10 18  1  0  0  0  0
 19 20  1  0  0  0  0
 19 27  1  0  0  0  0
 19 28  1  0  0  0  0
 20 21  4  0  0  0  0
 20 25  4  0  0  0  0
 21 22  4  0  0  0  0
 21 29  1  0  0  0  0
 22 23  4  0  0  0  0
 22 30  1  0  0  0  0
 23 24  4  0  0  0  0
 23 26  1  0  0  0  0
 24 25  4  0  0  0  0
 24 31  1  0  0  0  0
 25 32  1  0  0  0  0
 26 33  1  0  0  0  0
 26 34  1  0  0  0  0
M  END
> <BCLConfClusterSize>
1

> <ConfClashScore>
0 

> <ConfOneFourInteractionScore>
-0.94165 

> <ConfScore>
0.0943209 

> <ConfScorePBest>
0.00658068 

> <ConfTolerance>
0.25076 

> <RosettaParamsInstructions>
M  ROOT 3
M  POLY_N_BB 3
M  POLY_CA_BB 4
M  POLY_C_BB 2
M  POLY_O_BB 5
M  POLY_IGNORE 9 10 11 12 13 14 15 16 17 18 
M  POLY_UPPER 6
M  POLY_LOWER 8
M  POLY_CHG 0
M  POLY_PROPERTIES ALPHA_AA D_AA PROTEIN AROMATIC POLYMER 
M  END

$$$$



 34 34  0  0  0  0  0  0  0  0999 V2000
   -0.9898    0.7100   -0.7580 H   0  0  0  1  0  0  0  0  0  0  0  0
    0.8357    1.7700   -0.7684 C   0  0  0  1  0  0  0  0  0  0  0  0
   -0.4499    1.0269   -2.7277 N   0  0  0  1  0  0  0  0  0  0  0  0
   -0.5347    1.4780   -1.3479 C   0  0  0  1  0  0  0  0  0  0  0  0
    0.9739    2.1008    0.4076 O   0  0  0  1  0  0  0  0  0  0  0  0
    1.8645    1.6435   -1.6158 N   0  0  0  1  0  0  0  0  0  0  0  0
   -0.5743    0.0784   -2.9405 H   0  0  0  1  0  0  0  0  0  0  0  0
   -0.2002    1.9113   -3.7155 C   0  0  0  1  0  0  0  0  0  0  0  0
    3.2248    1.8743   -1.1531 C   0  0  0  1  0  0  0  0  0  0  0  0
   -0.1979    1.3464   -5.1179 C   0  0  0  1  0  0  0  0  0  0  0  0
    0.0142    3.1048   -3.5076 O   0  0  0  1  0  0  0  0  0  0  0  0
    1.7011    1.3949   -2.5495 H   0  0  0  1  0  0  0  0  0  0  0  0
    3.2157    2.5946   -0.3620 H   0  0  0  1  0  0  0  0  0  0  0  0
    3.8192    2.2422   -1.9632 H   0  0  0  1  0  0  0  0  0  0  0  0
    3.6398    0.9557   -0.7941 H   0  0  0  1  0  0  0  0  0  0  0  0
   -1.1681    0.9583   -5.3482 H   0  0  0  1  0  0  0  0  0  0  0  0
    0.5252    0.5605   -5.1844 H   0  0  0  1  0  0  0  0  0  0  0  0
    0.0507    2.1204   -5.8135 H   0  0  0  1  0  0  0  0  0  0  0  0
   -1.4152    2.7184   -1.2702 C   0  0  0  1  0  0  0  0  0  0  0  0
   -2.7865    2.5751   -1.8743 C   0  0  0  1  0  0  0  0  0  0  0  0
   -3.0198    2.9991   -3.1690 C   0  0  0  1  0  0  0  0  0  0  0  0
   -4.2814    2.8620   -3.7266 C   0  0  0  1  0  0  0  0  0  0  0  0
   -5.3075    2.3062   -2.9859 C   0  0  0  1  0  0  0  0  0  0  0  0
   -5.0737    1.8810   -1.6875 C   0  0  0  1  0  0  0  0  0  0  0  0
   -3.8157    2.0177   -1.1317 C   0  0  0  1  0  0  0  0  0  0  0  0
   -6.6147    2.1473   -3.5023 N   0  0  0  1  0  0  0  0  0  0  0  0
   -0.9114    3.5132   -1.7796 H   0  0  0  1  0  0  0  0  0  0  0  0
   -1.5342    2.9745   -0.2382 H   0  0  0  1  0  0  0  0  0  0  0  0
   -2.2486    3.4210   -3.7249 H   0  0  0  1  0  0  0  0  0  0  0  0
   -4.4559    3.1773   -4.7022 H   0  0  0  1  0  0  0  0  0  0  0  0
   -5.8448    1.4591   -1.1316 H   0  0  0  1  0  0  0  0  0  0  0  0
   -3.6412    1.7024   -0.1561 H   0  0  0  1  0  0  0  0  0  0  0  0
   -7.2882    1.6548   -2.9882 H   0  0  0  1  0  0  0  0  0  0  0  0
   -6.8469    2.5297   -4.3742 H   0  0  0  1  0  0  0  0  0  0  0  0
  1  4  1  0  0  0  0
  2  4  1  0  0  0  0
  2  5  2  0  0  0  0
  2  6  1  0  0  0  0
  3  4  1  0  0  0  0
  3  7  1  0  0  0  0
  3  8  1  0  0  0  0
  4 19  1  0  0  0  0
  6  9  1  0  0  0  0
  6 12  1  0  0  0  0
  8 10  1  0  0  0  0
  8 11  2  0  0  0  0
  9 13  1  0  0  0  0
  9 14  1  0  0  0  0
  9 15  1  0  0  0  0
 10 16  1  0  0  0  0
 10 17  1  0  0  0  0
 10 18  1  0  0  0  0
 19 20  1  0  0  0  0
 19 27  1  0  0  0  0
 19 28  1  0  0  0  0
 20 21  4  0  0  0  0
 20 25  4  0  0  0  0
 21 22  4  0  0  0  0
 21 29  1  0  0  0  0
 22 23  4  0  0  0  0
 22 30  1  0  0  0  0
 23 24  4  0  0  0  0
 23 26  1  0  0  0  0
 24 25  4  0  0  0  0
 24 31  1  0  0  0  0
 25 32  1  0  0  0  0
 26 33  1  0  0  0  0
 26 34  1  0  0  0  0
M  END
> <BCLConfClusterSize>
1

> <ConfClashScore>
0 

> <ConfOneFourInteractionScore>
-0.940043 

> <ConfScore>
0.0953062 

> <ConfScorePBest>
0.0065522 

> <ConfTolerance>
0.253805 

> <RosettaParamsInstructions>
M  ROOT 3
M  POLY_N_BB 3
M  POLY_CA_BB 4
M  POLY_C_BB 2
M  POLY_O_BB 5
M  POLY_IGNORE 9 10 11 12 13 14 15 16 17 18 
M  POLY_UPPER 6
M  POLY_LOWER 8
M  POLY_CHG 0
M  POLY_PROPERTIES ALPHA_AA D_AA PROTEIN AROMATIC POLYMER 
M  END

$$$$



 34 34  0  0  0  0  0  0  0  0999 V2000
   -0.2169    1.6675   -2.6231 H   0  0  0  1  0  0  0  0  0  0  0  0
   -1.0981    0.1810   -1.4265 C   0  0  0  1  0  0  0  0  0  0  0  0
    0.7477    1.6386   -0.7934 N   0  0  0  1  0  0  0  0  0  0  0  0
   -0.4830    1.5571   -1.5927 C   0  0  0  1  0  0  0  0  0  0  0  0
   -1.7565   -0.3304   -2.3180 O   0  0  0  1  0  0  0  0  0  0  0  0
   -0.8706   -0.4188   -0.2546 N   0  0  0  1  0  0  0  0  0  0  0  0
    0.8557    2.3835   -0.1658 H   0  0  0  1  0  0  0  0  0  0  0  0
    1.7245    0.7325   -0.8928 C   0  0  0  1  0  0  0  0  0  0  0  0
   -1.4797   -1.7196   -0.0204 C   0  0  0  1  0  0  0  0  0  0  0  0
    2.9395    0.9751   -0.0187 C   0  0  0  1  0  0  0  0  0  0  0  0
    1.6601   -0.2428   -1.6400 O   0  0  0  1  0  0  0  0  0  0  0  0
   -0.3095    0.0051    0.4280 H   0  0  0  1  0  0  0  0  0  0  0  0
   -1.8473   -2.1134   -0.9449 H   0  0  0  1  0  0  0  0  0  0  0  0
   -2.2905   -1.6145    0.6698 H   0  0  0  1  0  0  0  0  0  0  0  0
   -0.7490   -2.3873    0.3859 H   0  0  0  1  0  0  0  0  0  0  0  0
    3.4119    1.8901   -0.3097 H   0  0  0  1  0  0  0  0  0  0  0  0
    3.6293    0.1654   -0.1344 H   0  0  0  1  0  0  0  0  0  0  0  0
    2.6348    1.0412    1.0049 H   0  0  0  1  0  0  0  0  0  0  0  0
   -1.4187    2.7055   -1.2387 C   0  0  0  1  0  0  0  0  0  0  0  0
   -2.7832    2.5795   -1.8838 C   0  0  0  1  0  0  0  0  0  0  0  0
   -3.0318    2.9971   -3.1777 C   0  0  0  1  0  0  0  0  0  0  0  0
   -4.2989    2.8533   -3.7212 C   0  0  0  1  0  0  0  0  0  0  0  0
   -5.3150    2.2972   -2.9672 C   0  0  0  1  0  0  0  0  0  0  0  0
   -5.0659    1.8783   -1.6695 C   0  0  0  1  0  0  0  0  0  0  0  0
   -3.8025    2.0218   -1.1278 C   0  0  0  1  0  0  0  0  0  0  0  0
   -6.6094    2.1554   -3.5198 N   0  0  0  1  0  0  0  0  0  0  0  0
   -0.9716    3.6217   -1.5638 H   0  0  0  1  0  0  0  0  0  0  0  0
   -1.5449    2.7270   -0.1764 H   0  0  0  1  0  0  0  0  0  0  0  0
   -2.2682    3.4193   -3.7436 H   0  0  0  1  0  0  0  0  0  0  0  0
   -4.4850    3.1639   -4.6962 H   0  0  0  1  0  0  0  0  0  0  0  0
   -5.8295    1.4561   -1.1036 H   0  0  0  1  0  0  0  0  0  0  0  0
   -3.6165    1.7112   -0.1529 H   0  0  0  1  0  0  0  0  0  0  0  0
   -7.2957    1.6494   -3.0367 H   0  0  0  1  0  0  0  0  0  0  0  0
   -6.8198    2.5631   -4.3857 H   0  0  0  1  0  0  0  0  0  0  0  0
  1  4  1  0  0  0  0
  2  4  1  0  0  0  0
  2  5  2  0  0  0  0
  2  6  1  0  0  0  0
  3  4  1  0  0  0  0
  3  7  1  0  0  0  0
  3  8  1  0  0  0  0
  4 19  1  0  0  0  0
  6  9  1  0  0  0  0
  6 12  1  0  0  0  0
  8 10  1  0  0  0  0
  8 11  2  0  0  0  0
  9 13  1  0  0  0  0
  9 14  1  0  0  0  0
  9 15  1  0  0  0  0
 10 16  1  0  0  0  0
 10 17  1  0  0  0  0
 10 18  1  0  0  0  0
 19 20  1  0  0  0  0
 19 27  1  0  0  0  0
 19 28  1  0  0  0  0
 20 21  4  0  0  0  0
 20 25  4  0  0  0  0
 21 22  4  0  0  0  0
 21 29  1  0  0  0  0
 22 23  4  0  0  0  0
 22 30  1  0  0  0  0
 23 24  4  0  0  0  0
 23 26  1  0  0  0  0
 24 25  4  0  0  0  0
 24 31  1  0  0  0  0
 25 32  1  0  0  0  0
 26 33  1  0  0  0  0
 26 34  1  0  0  0  0
M  END
> <BCLConfClusterSize>
1

> <ConfClashScore>
0 

> <ConfOneFourInteractionScore>
-0.960318 

> <ConfScore>
0.0992616 

> <ConfScorePBest>
0.00652372 

> <ConfTolerance>
0.248119 

> <RosettaParamsInstructions>
M  ROOT 3
M  POLY_N_BB 3
M  POLY_CA_BB 4
M  POLY_C_BB 2
M  POLY_O_BB 5
M  POLY_IGNORE 9 10 11 12 13 14 15 16 17 18 
M  POLY_UPPER 6
M  POLY_LOWER 8
M  POLY_CHG 0
M  POLY_PROPERTIES ALPHA_AA D_AA PROTEIN AROMATIC POLYMER 
M  END

$$$$



 34 34  0  0  0  0  0  0  0  0999 V2000
   -0.1894    4.0887   -0.2670 H   0  0  0  1  0  0  0  0  0  0  0  0
   -1.9909    4.0706    0.7982 C   0  0  0  1  0  0  0  0  0  0  0  0
   -1.5399    5.1482   -1.4018 N   0  0  0  1  0  0  0  0  0  0  0  0
   -1.2289    4.0236   -0.5120 C   0  0  0  1  0  0  0  0  0  0  0  0
   -1.6432    3.3897    1.7652 O   0  0  0  1  0  0  0  0  0  0  0  0
   -3.0518    4.8926    0.8267 N   0  0  0  1  0  0  0  0  0  0  0  0
   -2.1044    5.8753   -1.0656 H   0  0  0  1  0  0  0  0  0  0  0  0
   -1.0801    5.2153   -2.6545 C   0  0  0  1  0  0  0  0  0  0  0  0
   -3.8812    5.0506    2.0120 C   0  0  0  1  0  0  0  0  0  0  0  0
   -1.5063    6.4350   -3.4481 C   0  0  0  1  0  0  0  0  0  0  0  0
   -0.3575    4.3539   -3.1487 O   0  0  0  1  0  0  0  0  0  0  0  0
   -3.2755    5.4041    0.0212 H   0  0  0  1  0  0  0  0  0  0  0  0
   -3.6720    4.2603    2.7023 H   0  0  0  1  0  0  0  0  0  0  0  0
   -4.9133    5.0154    1.7321 H   0  0  0  1  0  0  0  0  0  0  0  0
   -3.6681    5.9923    2.4731 H   0  0  0  1  0  0  0  0  0  0  0  0
   -1.8135    6.1342   -4.4279 H   0  0  0  1  0  0  0  0  0  0  0  0
   -0.6839    7.1151   -3.5256 H   0  0  0  1  0  0  0  0  0  0  0  0
   -2.3223    6.9165   -2.9509 H   0  0  0  1  0  0  0  0  0  0  0  0
   -1.4096    2.7228   -1.2833 C   0  0  0  1  0  0  0  0  0  0  0  0
   -2.7856    2.5747   -1.8755 C   0  0  0  1  0  0  0  0  0  0  0  0
   -3.0327    3.0019   -3.1666 C   0  0  0  1  0  0  0  0  0  0  0  0
   -4.2987    2.8604   -3.7133 C   0  0  0  1  0  0  0  0  0  0  0  0
   -5.3152    2.2969   -2.9653 C   0  0  0  1  0  0  0  0  0  0  0  0
   -5.0676    1.8685   -1.6705 C   0  0  0  1  0  0  0  0  0  0  0  0
   -3.8053    2.0097   -1.1256 C   0  0  0  1  0  0  0  0  0  0  0  0
   -6.6084    2.1575   -3.5212 N   0  0  0  1  0  0  0  0  0  0  0  0
   -1.2361    1.9044   -0.6163 H   0  0  0  1  0  0  0  0  0  0  0  0
   -0.6925    2.6950   -2.0769 H   0  0  0  1  0  0  0  0  0  0  0  0
   -2.2687    3.4295   -3.7279 H   0  0  0  1  0  0  0  0  0  0  0  0
   -4.4835    3.1781   -4.6862 H   0  0  0  1  0  0  0  0  0  0  0  0
   -5.8315    1.4409   -1.1091 H   0  0  0  1  0  0  0  0  0  0  0  0
   -3.6205    1.6919   -0.1527 H   0  0  0  1  0  0  0  0  0  0  0  0
   -7.3246    1.7413   -2.9975 H   0  0  0  1  0  0  0  0  0  0  0  0
   -6.7882    2.4771   -4.4300 H   0  0  0  1  0  0  0  0  0  0  0  0
  1  4  1  0  0  0  0
  2  4  1  0  0  0  0
  2  5  2  0  0  0  0
  2  6  1  0  0  0  0
  3  4  1  0  0  0  0
  3  7  1  0  0  0  0
  3  8  1  0  0  0  0
  4 19  1  0  0  0  0
  6  9  1  0  0  0  0
  6 12  1  0  0  0  0
  8 10  1  0  0  0  0
  8 11  2  0  0  0  0
  9 13  1  0  0  0  0
  9 14  1  0  0  0  0
  9 15  1  0  0  0  0
 10 16  1  0  0  0  0
 10 17  1  0  0  0  0
 10 18  1  0  0  0  0
 19 20  1  0  0  0  0
 19 27  1  0  0  0  0
 19 28  1  0  0  0  0
 20 21  4  0  0  0  0
 20 25  4  0  0  0  0
 21 22  4  0  0  0  0
 21 29  1  0  0  0  0
 22 23  4  0  0  0  0
 22 30  1  0  0  0  0
 23 24  4  0  0  0  0
 23 26  1  0  0  0  0
 24 25  4  0  0  0  0
 24 31  1  0  0  0  0
 25 32  1  0  0  0  0
 26 33  1  0  0  0  0
 26 34  1  0  0  0  0
M  END
> <BCLConfClusterSize>
1

> <ConfClashScore>
0.00100743 

> <ConfOneFourInteractionScore>
-0.952634 

> <ConfScore>
0.0997029 

> <ConfScorePBest>
0.00649524 

> <ConfTolerance>
0.395294 

> <RosettaParamsInstructions>
M  ROOT 3
M  POLY_N_BB 3
M  POLY_CA_BB 4
M  POLY_C_BB 2
M  POLY_O_BB 5
M  POLY_IGNORE 9 10 11 12 13 14 15 16 17 18 
M  POLY_UPPER 6
M  POLY_LOWER 8
M  POLY_CHG 0
M  POLY_PROPERTIES ALPHA_AA D_AA PROTEIN AROMATIC POLYMER 
M  END

$$$$



 34 34  0  0  0  0  0  0  0  0999 V2000
   -1.9437    4.3816   -0.1113 H   0  0  0  1  0  0  0  0  0  0  0  0
    0.0348    3.9661    0.4270 C   0  0  0  1  0  0  0  0  0  0  0  0
   -1.9775    2.7330    1.1276 N   0  0  0  1  0  0  0  0  0  0  0  0
   -1.3536    3.5008    0.0332 C   0  0  0  1  0  0  0  0  0  0  0  0
    0.3502    4.0710    1.6014 O   0  0  0  1  0  0  0  0  0  0  0  0
    0.9041    4.2584   -0.5533 N   0  0  0  1  0  0  0  0  0  0  0  0
   -2.3230    1.8408    0.9155 H   0  0  0  1  0  0  0  0  0  0  0  0
   -2.1111    3.1760    2.4260 C   0  0  0  1  0  0  0  0  0  0  0  0
    2.2510    4.7027   -0.2271 C   0  0  0  1  0  0  0  0  0  0  0  0
   -2.7459    2.2126    3.3860 C   0  0  0  1  0  0  0  0  0  0  0  0
   -1.7249    4.2877    2.7340 O   0  0  0  1  0  0  0  0  0  0  0  0
    0.6311    4.1725   -1.4906 H   0  0  0  1  0  0  0  0  0  0  0  0
    2.7308    3.9682    0.3854 H   0  0  0  1  0  0  0  0  0  0  0  0
    2.2016    5.6312    0.3024 H   0  0  0  1  0  0  0  0  0  0  0  0
    2.8108    4.8354   -1.1292 H   0  0  0  1  0  0  0  0  0  0  0  0
   -2.2234    1.2794    3.3533 H   0  0  0  1  0  0  0  0  0  0  0  0
   -3.7686    2.0582    3.1120 H   0  0  0  1  0  0  0  0  0  0  0  0
   -2.6982    2.6133    4.3769 H   0  0  0  1  0  0  0  0  0  0  0  0
   -1.4146    2.7165   -1.2710 C   0  0  0  1  0  0  0  0  0  0  0  0
   -2.7862    2.5742   -1.8747 C   0  0  0  1  0  0  0  0  0  0  0  0
   -3.0220    3.0072   -3.1659 C   0  0  0  1  0  0  0  0  0  0  0  0
   -4.2839    2.8709   -3.7232 C   0  0  0  1  0  0  0  0  0  0  0  0
   -5.3077    2.3069   -2.9857 C   0  0  0  1  0  0  0  0  0  0  0  0
   -5.0714    1.8726   -1.6907 C   0  0  0  1  0  0  0  0  0  0  0  0
   -3.8132    2.0085   -1.1352 C   0  0  0  1  0  0  0  0  0  0  0  0
   -6.6150    2.1484   -3.5019 N   0  0  0  1  0  0  0  0  0  0  0  0
   -1.0328    1.7346   -1.0839 H   0  0  0  1  0  0  0  0  0  0  0  0
   -0.7900    3.2127   -1.9841 H   0  0  0  1  0  0  0  0  0  0  0  0
   -2.2526    3.4352   -3.7194 H   0  0  0  1  0  0  0  0  0  0  0  0
   -4.4603    3.1931   -4.6962 H   0  0  0  1  0  0  0  0  0  0  0  0
   -5.8408    1.4445   -1.1371 H   0  0  0  1  0  0  0  0  0  0  0  0
   -3.6368    1.6863   -0.1622 H   0  0  0  1  0  0  0  0  0  0  0  0
   -7.3174    1.7532   -2.9443 H   0  0  0  1  0  0  0  0  0  0  0  0
   -6.8184    2.4337   -4.4171 H   0  0  0  1  0  0  0  0  0  0  0  0
  1  4  1  0  0  0  0
  2  4  1  0  0  0  0
  2  5  2  0  0  0  0
  2  6  1  0  0  0  0
  3  4  1  0  0  0  0
  3  7  1  0  0  0  0
  3  8  1  0  0  0  0
  4 19  1  0  0  0  0
  6  9  1  0  0  0  0
  6 12  1  0  0  0  0
  8 10  1  0  0  0  0
  8 11  2  0  0  0  0
  9 13  1  0  0  0  0
  9 14  1  0  0  0  0
  9 15  1  0  0  0  0
 10 16  1  0  0  0  0
 10 17  1  0  0  0  0
 10 18  1  0  0  0  0
 19 20  1  0  0  0  0
 19 27  1  0  0  0  0
 19 28  1  0  0  0  0
 20 21  4  0  0  0  0
 20 25  4  0  0  0  0
 21 22  4  0  0  0  0
 21 29  1  0  0  0  0
 22 23  4  0  0  0  0
 22 30  1  0  0  0  0
 23 24  4  0  0  0  0
 23 26  1  0  0  0  0
 24 25  4  0  0  0  0
 24 31  1  0  0  0  0
 25 32  1  0  0  0  0
 26 33  1  0  0  0  0
 26 34  1  0  0  0  0
M  END
> <BCLConfClusterSize>
1

> <ConfClashScore>
0 

> <ConfOneFourInteractionScore>
-0.95498 

> <ConfScore>
0.101715 

> <ConfScorePBest>
0.00646676 

> <ConfTolerance>
0.438901 

> <RosettaParamsInstructions>
M  ROOT 3
M  POLY_N_BB 3
M  POLY_CA_BB 4
M  POLY_C_BB 2
M  POLY_O_BB 5
M  POLY_IGNORE 9 10 11 12 13 14 15 16 17 18 
M  POLY_UPPER 6
M  POLY_LOWER 8
M  POLY_CHG 0
M  POLY_PROPERTIES ALPHA_AA D_AA PROTEIN AROMATIC POLYMER 
M  END

$$$$



 34 34  0  0  0  0  0  0  0  0999 V2000
   -1.8066    3.8771    0.4392 H   0  0  0  1  0  0  0  0  0  0  0  0
   -1.7876    5.2219   -1.1817 C   0  0  0  1  0  0  0  0  0  0  0  0
    0.1689    4.1475   -0.1177 N   0  0  0  1  0  0  0  0  0  0  0  0
   -1.2477    3.9996   -0.4649 C   0  0  0  1  0  0  0  0  0  0  0  0
   -1.3292    5.5809   -2.2631 O   0  0  0  1  0  0  0  0  0  0  0  0
   -2.7846    5.8702   -0.5589 N   0  0  0  1  0  0  0  0  0  0  0  0
    0.8019    3.4300   -0.3300 H   0  0  0  1  0  0  0  0  0  0  0  0
    0.5982    5.2564    0.4867 C   0  0  0  1  0  0  0  0  0  0  0  0
   -3.4362    7.0005   -1.2036 C   0  0  0  1  0  0  0  0  0  0  0  0
    2.0768    5.2941    0.8930 C   0  0  0  1  0  0  0  0  0  0  0  0
   -0.1028    6.2412    0.6515 O   0  0  0  1  0  0  0  0  0  0  0  0
   -3.0742    5.5817    0.3317 H   0  0  0  1  0  0  0  0  0  0  0  0
   -2.9454    7.2149   -2.1300 H   0  0  0  1  0  0  0  0  0  0  0  0
   -3.3801    7.8565   -0.5641 H   0  0  0  1  0  0  0  0  0  0  0  0
   -4.4621    6.7612   -1.3909 H   0  0  0  1  0  0  0  0  0  0  0  0
    2.2057    4.7764    1.8205 H   0  0  0  1  0  0  0  0  0  0  0  0
    2.3896    6.3111    1.0060 H   0  0  0  1  0  0  0  0  0  0  0  0
    2.6667    4.8211    0.1359 H   0  0  0  1  0  0  0  0  0  0  0  0
   -1.4103    2.7248   -1.2824 C   0  0  0  1  0  0  0  0  0  0  0  0
   -2.7860    2.5758   -1.8751 C   0  0  0  1  0  0  0  0  0  0  0  0
   -3.0300    2.9921   -3.1702 C   0  0  0  1  0  0  0  0  0  0  0  0
   -4.2957    2.8497   -3.7173 C   0  0  0  1  0  0  0  0  0  0  0  0
   -5.3150    2.2964   -2.9655 C   0  0  0  1  0  0  0  0  0  0  0  0
   -5.0704    1.8789   -1.6666 C   0  0  0  1  0  0  0  0  0  0  0  0
   -3.8084    2.0209   -1.1213 C   0  0  0  1  0  0  0  0  0  0  0  0
   -6.6080    2.1561   -3.5218 N   0  0  0  1  0  0  0  0  0  0  0  0
   -1.2208    1.8857   -0.6461 H   0  0  0  1  0  0  0  0  0  0  0  0
   -0.6959    2.7376   -2.0789 H   0  0  0  1  0  0  0  0  0  0  0  0
   -2.2639    3.4121   -3.7344 H   0  0  0  1  0  0  0  0  0  0  0  0
   -4.4783    3.1592   -4.6932 H   0  0  0  1  0  0  0  0  0  0  0  0
   -5.8365    1.4588   -1.1024 H   0  0  0  1  0  0  0  0  0  0  0  0
   -3.6259    1.7114   -0.1454 H   0  0  0  1  0  0  0  0  0  0  0  0
   -7.2866    1.6241   -3.0561 H   0  0  0  1  0  0  0  0  0  0  0  0
   -6.8251    2.5908   -4.3728 H   0  0  0  1  0  0  0  0  0  0  0  0
  1  4  1  0  0  0  0
  2  4  1  0  0  0  0
  2  5  2  0  0  0  0
  2  6  1  0  0  0  0
  3  4  1  0  0  0  0
  3  7  1  0  0  0  0
  3  8  1  0  0  0  0
  4 19  1  0  0  0  0
  6  9  1  0  0  0  0
  6 12  1  0  0  0  0
  8 10  1  0  0  0  0
  8 11  2  0  0  0  0
  9 13  1  0  0  0  0
  9 14  1  0  0  0  0
  9 15  1  0  0  0  0
 10 16  1  0  0  0  0
 10 17  1  0  0  0  0
 10 18  1  0  0  0  0
 19 20  1  0  0  0  0
 19 27  1  0  0  0  0
 19 28  1  0  0  0  0
 20 21  4  0  0  0  0
 20 25  4  0  0  0  0
 21 22  4  0  0  0  0
 21 29  1  0  0  0  0
 22 23  4  0  0  0  0
 22 30  1  0  0  0  0
 23 24  4  0  0  0  0
 23 26  1  0  0  0  0
 24 25  4  0  0  0  0
 24 31  1  0  0  0  0
 25 32  1  0  0  0  0
 26 33  1  0  0  0  0
 26 34  1  0  0  0  0
M  END
> <BCLConfClusterSize>
1

> <ConfClashScore>
0 

> <ConfOneFourInteractionScore>
-0.981931 

> <ConfScore>
0.102396 

> <ConfScorePBest>
0.00643828 

> <ConfTolerance>
0.301126 

> <RosettaParamsInstructions>
M  ROOT 3
M  POLY_N_BB 3
M  POLY_CA_BB 4
M  POLY_C_BB 2
M  POLY_O_BB 5
M  POLY_IGNORE 9 10 11 12 13 14 15 16 17 18 
M  POLY_UPPER 6
M  POLY_LOWER 8
M  POLY_CHG 0
M  POLY_PROPERTIES ALPHA_AA D_AA PROTEIN AROMATIC POLYMER 
M  END

$$$$



 34 34  0  0  0  0  0  0  0  0999 V2000
   -0.9493    0.6682   -1.2241 H   0  0  0  1  0  0  0  0  0  0  0  0
    0.8176    1.7013   -0.7493 C   0  0  0  1  0  0  0  0  0  0  0  0
   -0.2009    1.4393   -2.9787 N   0  0  0  1  0  0  0  0  0  0  0  0
   -0.4612    1.5621   -1.5522 C   0  0  0  1  0  0  0  0  0  0  0  0
    0.7253    2.0644    0.4225 O   0  0  0  1  0  0  0  0  0  0  0  0
    1.9717    1.4240   -1.3522 N   0  0  0  1  0  0  0  0  0  0  0  0
   -0.6408    0.7209   -3.4796 H   0  0  0  1  0  0  0  0  0  0  0  0
    0.6169    2.2718   -3.6293 C   0  0  0  1  0  0  0  0  0  0  0  0
    3.2915    1.6567   -0.7767 C   0  0  0  1  0  0  0  0  0  0  0  0
    0.9480    1.8871   -5.0581 C   0  0  0  1  0  0  0  0  0  0  0  0
    1.0812    3.2896   -3.1184 O   0  0  0  1  0  0  0  0  0  0  0  0
    1.9314    1.0341   -2.2505 H   0  0  0  1  0  0  0  0  0  0  0  0
    4.0088    1.7709   -1.5625 H   0  0  0  1  0  0  0  0  0  0  0  0
    3.5647    0.8239   -0.1630 H   0  0  0  1  0  0  0  0  0  0  0  0
    3.2694    2.5462   -0.1824 H   0  0  0  1  0  0  0  0  0  0  0  0
    0.2485    2.3484   -5.7235 H   0  0  0  1  0  0  0  0  0  0  0  0
    0.8918    0.8237   -5.1631 H   0  0  0  1  0  0  0  0  0  0  0  0
    1.9375    2.2177   -5.2960 H   0  0  0  1  0  0  0  0  0  0  0  0
   -1.4128    2.7216   -1.2880 C   0  0  0  1  0  0  0  0  0  0  0  0
   -2.7923    2.5682   -1.8671 C   0  0  0  1  0  0  0  0  0  0  0  0
   -3.0586    3.0153   -3.1476 C   0  0  0  1  0  0  0  0  0  0  0  0
   -4.3288    2.8688   -3.6828 C   0  0  0  1  0  0  0  0  0  0  0  0
   -5.3305    2.2805   -2.9340 C   0  0  0  1  0  0  0  0  0  0  0  0
   -5.0636    1.8320   -1.6498 C   0  0  0  1  0  0  0  0  0  0  0  0
   -3.7970    1.9782   -1.1163 C   0  0  0  1  0  0  0  0  0  0  0  0
   -6.5788    2.1861   -3.5668 N   0  0  0  1  0  0  0  0  0  0  0  0
   -0.9774    3.6069   -1.7022 H   0  0  0  1  0  0  0  0  0  0  0  0
   -1.5103    2.8337   -0.2283 H   0  0  0  1  0  0  0  0  0  0  0  0
   -2.3058    3.4616   -3.7095 H   0  0  0  1  0  0  0  0  0  0  0  0
   -4.5281    3.2016   -4.6478 H   0  0  0  1  0  0  0  0  0  0  0  0
   -5.8163    1.3857   -1.0878 H   0  0  0  1  0  0  0  0  0  0  0  0
   -3.5978    1.6454   -0.1513 H   0  0  0  1  0  0  0  0  0  0  0  0
   -6.7349    2.6524   -4.4145 H   0  0  0  1  0  0  0  0  0  0  0  0
   -7.2948    1.6538   -3.1613 H   0  0  0  1  0  0  0  0  0  0  0  0
  1  4  1  0  0  0  0
  2  4  1  0  0  0  0
  2  5  2  0  0  0  0
  2  6  1  0  0  0  0
  3  4  1  0  0  0  0
  3  7  1  0  0  0  0
  3  8  1  0  0  0  0
  4 19  1  0  0  0  0
  6  9  1  0  0  0  0
  6 12  1  0  0  0  0
  8 10  1  0  0  0  0
  8 11  2  0  0  0  0
  9 13  1  0  0  0  0
  9 14  1  0  0  0  0
  9 15  1  0  0  0  0
 10 16  1  0  0  0  0
 10 17  1  0  0  0  0
 10 18  1  0  0  0  0
 19 20  1  0  0  0  0
 19 27  1  0  0  0  0
 19 28  1  0  0  0  0
 20 21  4  0  0  0  0
 20 25  4  0  0  0  0
 21 22  4  0  0  0  0
 21 29  1  0  0  0  0
 22 23  4  0  0  0  0
 22 30  1  0  0  0  0
 23 24  4  0  0  0  0
 23 26  1  0  0  0  0
 24 25  4  0  0  0  0
 24 31  1  0  0  0  0
 25 32  1  0  0  0  0
 26 33  1  0  0  0  0
 26 34  1  0  0  0  0
M  END
> <BCLConfClusterSize>
1

> <ConfClashScore>
0 

> <ConfOneFourInteractionScore>
-0.957723 

> <ConfScore>
0.103005 

> <ConfScorePBest>
0.0064098 

> <ConfTolerance>
0.182758 

> <RosettaParamsInstructions>
M  ROOT 3
M  POLY_N_BB 3
M  POLY_CA_BB 4
M  POLY_C_BB 2
M  POLY_O_BB 5
M  POLY_IGNORE 9 10 11 12 13 14 15 16 17 18 
M  POLY_UPPER 6
M  POLY_LOWER 8
M  POLY_CHG 0
M  POLY_PROPERTIES ALPHA_AA D_AA PROTEIN AROMATIC POLYMER 
M  END

$$$$



 34 34  0  0  0  0  0  0  0  0999 V2000
   -1.5009    4.8463   -1.5377 H   0  0  0  1  0  0  0  0  0  0  0  0
    0.3256    4.4439   -0.5442 C   0  0  0  1  0  0  0  0  0  0  0  0
   -1.9800    4.3690    0.4142 N   0  0  0  1  0  0  0  0  0  0  0  0
   -1.1617    4.1780   -0.7740 C   0  0  0  1  0  0  0  0  0  0  0  0
    1.1163    4.5377   -1.4821 O   0  0  0  1  0  0  0  0  0  0  0  0
    0.6592    4.5594    0.7510 N   0  0  0  1  0  0  0  0  0  0  0  0
   -2.5060    3.6145    0.7526 H   0  0  0  1  0  0  0  0  0  0  0  0
   -2.0390    5.5372    1.0598 C   0  0  0  1  0  0  0  0  0  0  0  0
    2.0337    4.7605    1.1847 C   0  0  0  1  0  0  0  0  0  0  0  0
   -2.9529    5.5760    2.2692 C   0  0  0  1  0  0  0  0  0  0  0  0
   -1.4055    6.5205    0.7131 O   0  0  0  1  0  0  0  0  0  0  0  0
   -0.0474    4.5064    1.4279 H   0  0  0  1  0  0  0  0  0  0  0  0
    2.6067    5.1684    0.3783 H   0  0  0  1  0  0  0  0  0  0  0  0
    2.4544    3.8228    1.4822 H   0  0  0  1  0  0  0  0  0  0  0  0
    2.0507    5.4383    2.0125 H   0  0  0  1  0  0  0  0  0  0  0  0
   -3.0508    4.5907    2.6746 H   0  0  0  1  0  0  0  0  0  0  0  0
   -3.9162    5.9384    1.9765 H   0  0  0  1  0  0  0  0  0  0  0  0
   -2.5365    6.2264    3.0098 H   0  0  0  1  0  0  0  0  0  0  0  0
   -1.4248    2.7566   -1.2539 C   0  0  0  1  0  0  0  0  0  0  0  0
   -2.7905    2.5830   -1.8627 C   0  0  0  1  0  0  0  0  0  0  0  0
   -3.0290    3.0028   -3.1577 C   0  0  0  1  0  0  0  0  0  0  0  0
   -4.2855    2.8378   -3.7196 C   0  0  0  1  0  0  0  0  0  0  0  0
   -5.3011    2.2583   -2.9828 C   0  0  0  1  0  0  0  0  0  0  0  0
   -5.0621    1.8372   -1.6840 C   0  0  0  1  0  0  0  0  0  0  0  0
   -3.8093    2.0018   -1.1239 C   0  0  0  1  0  0  0  0  0  0  0  0
   -6.6159    2.1821   -3.5269 N   0  0  0  1  0  0  0  0  0  0  0  0
   -1.3374    2.0935   -0.4187 H   0  0  0  1  0  0  0  0  0  0  0  0
   -0.6896    2.5038   -1.9891 H   0  0  0  1  0  0  0  0  0  0  0  0
   -2.2658    3.4425   -3.7107 H   0  0  0  1  0  0  0  0  0  0  0  0
   -4.4638    3.1501   -4.6955 H   0  0  0  1  0  0  0  0  0  0  0  0
   -5.8253    1.3975   -1.1310 H   0  0  0  1  0  0  0  0  0  0  0  0
   -3.6310    1.6896   -0.1480 H   0  0  0  1  0  0  0  0  0  0  0  0
   -6.7719    2.4154   -4.4658 H   0  0  0  1  0  0  0  0  0  0  0  0
   -7.3641    1.8965   -2.9621 H   0  0  0  1  0  0  0  0  0  0  0  0
  1  4  1  0  0  0  0
  2  4  1  0  0  0  0
  2  5  2  0  0  0  0
  2  6  1  0  0  0  0
  3  4  1  0  0  0  0
  3  7  1  0  0  0  0
  3  8  1  0  0  0  0
  4 19  1  0  0  0  0
  6  9  1  0  0  0  0
  6 12  1  0  0  0  0
  8 10  1  0  0  0  0
  8 11  2  0  0  0  0
  9 13  1  0  0  0  0
  9 14  1  0  0  0  0
  9 15  1  0  0  0  0
 10 16  1  0  0  0  0
 10 17  1  0  0  0  0
 10 18  1  0  0  0  0
 19 20  1  0  0  0  0
 19 27  1  0  0  0  0
 19 28  1  0  0  0  0
 20 21  4  0  0  0  0
 20 25  4  0  0  0  0
 21 22  4  0  0  0  0
 21 29  1  0  0  0  0
 22 23  4  0  0  0  0
 22 30  1  0  0  0  0
 23 24  4  0  0  0  0
 23 26  1  0  0  0  0
 24 25  4  0  0  0  0
 24 31  1  0  0  0  0
 25 32  1  0  0  0  0
 26 33  1  0  0  0  0
 26 34  1  0  0  0  0
M  END
> <BCLConfClusterSize>
1

> <ConfClashScore>
0 

> <ConfOneFourInteractionScore>
-0.956443 

> <ConfScore>
0.105208 

> <ConfScorePBest>
0.00638132 

> <ConfTolerance>
0.240182 

> <RosettaParamsInstructions>
M  ROOT 3
M  POLY_N_BB 3
M  POLY_CA_BB 4
M  POLY_C_BB 2
M  POLY_O_BB 5
M  POLY_IGNORE 9 10 11 12 13 14 15 16 17 18 
M  POLY_UPPER 6
M  POLY_LOWER 8
M  POLY_CHG 0
M  POLY_PROPERTIES ALPHA_AA D_AA PROTEIN AROMATIC POLYMER 
M  END

$$$$



 34 34  0  0  0  0  0  0  0  0999 V2000
   -1.5218    4.8152   -0.9026 H   0  0  0  1  0  0  0  0  0  0  0  0
    0.0477    4.0292    0.2660 C   0  0  0  1  0  0  0  0  0  0  0  0
   -2.3324    3.7678    0.6822 N   0  0  0  1  0  0  0  0  0  0  0  0
   -1.3280    3.9131   -0.3609 C   0  0  0  1  0  0  0  0  0  0  0  0
    1.0463    3.5971   -0.3038 O   0  0  0  1  0  0  0  0  0  0  0  0
    0.0928    4.6275    1.4669 N   0  0  0  1  0  0  0  0  0  0  0  0
   -3.1421    4.3182    0.6391 H   0  0  0  1  0  0  0  0  0  0  0  0
   -2.1876    2.9017    1.7065 C   0  0  0  1  0  0  0  0  0  0  0  0
    1.2778    4.6969    2.3253 C   0  0  0  1  0  0  0  0  0  0  0  0
   -3.3119    2.8007    2.7189 C   0  0  0  1  0  0  0  0  0  0  0  0
   -1.1743    2.2130    1.8180 O   0  0  0  1  0  0  0  0  0  0  0  0
   -0.7289    5.0498    1.7938 H   0  0  0  1  0  0  0  0  0  0  0  0
    1.6418    3.7082    2.5122 H   0  0  0  1  0  0  0  0  0  0  0  0
    1.0190    5.1627    3.2532 H   0  0  0  1  0  0  0  0  0  0  0  0
    2.0382    5.2704    1.8376 H   0  0  0  1  0  0  0  0  0  0  0  0
   -3.7446    3.7675    2.8698 H   0  0  0  1  0  0  0  0  0  0  0  0
   -2.9242    2.4350    3.6467 H   0  0  0  1  0  0  0  0  0  0  0  0
   -4.0602    2.1282    2.3547 H   0  0  0  1  0  0  0  0  0  0  0  0
   -1.3910    2.7511   -1.3476 C   0  0  0  1  0  0  0  0  0  0  0  0
   -2.7907    2.5706   -1.8712 C   0  0  0  1  0  0  0  0  0  0  0  0
   -3.0583    2.9973   -3.1583 C   0  0  0  1  0  0  0  0  0  0  0  0
   -4.3307    2.8480   -3.6877 C   0  0  0  1  0  0  0  0  0  0  0  0
   -5.3332    2.2774   -2.9263 C   0  0  0  1  0  0  0  0  0  0  0  0
   -5.0650    1.8494   -1.6354 C   0  0  0  1  0  0  0  0  0  0  0  0
   -3.7963    1.9983   -1.1078 C   0  0  0  1  0  0  0  0  0  0  0  0
   -6.5837    2.1784   -3.5542 N   0  0  0  1  0  0  0  0  0  0  0  0
   -1.0830    1.8537   -0.8529 H   0  0  0  1  0  0  0  0  0  0  0  0
   -0.7329    2.9508   -2.1673 H   0  0  0  1  0  0  0  0  0  0  0  0
   -2.3049    3.4303   -3.7297 H   0  0  0  1  0  0  0  0  0  0  0  0
   -4.5310    3.1654   -4.6576 H   0  0  0  1  0  0  0  0  0  0  0  0
   -5.8184    1.4164   -1.0640 H   0  0  0  1  0  0  0  0  0  0  0  0
   -3.5960    1.6809   -0.1378 H   0  0  0  1  0  0  0  0  0  0  0  0
   -7.3546    1.8309   -3.0589 H   0  0  0  1  0  0  0  0  0  0  0  0
   -6.6864    2.4568   -4.4882 H   0  0  0  1  0  0  0  0  0  0  0  0
  1  4  1  0  0  0  0
  2  4  1  0  0  0  0
  2  5  2  0  0  0  0
  2  6  1  0  0  0  0
  3  4  1  0  0  0  0
  3  7  1  0  0  0  0
  3  8  1  0  0  0  0
  4 19  1  0  0  0  0
  6  9  1  0  0  0  0
  6 12  1  0  0  0  0
  8 10  1  0  0  0  0
  8 11  2  0  0  0  0
  9 13  1  0  0  0  0
  9 14  1  0  0  0  0
  9 15  1  0  0  0  0
 10 16  1  0  0  0  0
 10 17  1  0  0  0  0
 10 18  1  0  0  0  0
 19 20  1  0  0  0  0
 19 27  1  0  0  0  0
 19 28  1  0  0  0  0
 20 21  4  0  0  0  0
 20 25  4  0  0  0  0
 21 22  4  0  0  0  0
 21 29  1  0  0  0  0
 22 23  4  0  0  0  0
 22 30  1  0  0  0  0
 23 24  4  0  0  0  0
 23 26  1  0  0  0  0
 24 25  4  0  0  0  0
 24 31  1  0  0  0  0
 25 32  1  0  0  0  0
 26 33  1  0  0  0  0
 26 34  1  0  0  0  0
M  END
> <BCLConfClusterSize>
1

> <ConfClashScore>
0 

> <ConfOneFourInteractionScore>
-0.938696 

> <ConfScore>
0.108547 

> <ConfScorePBest>
0.00635284 

> <ConfTolerance>
0.212553 

> <RosettaParamsInstructions>
M  ROOT 3
M  POLY_N_BB 3
M  POLY_CA_BB 4
M  POLY_C_BB 2
M  POLY_O_BB 5
M  POLY_IGNORE 9 10 11 12 13 14 15 16 17 18 
M  POLY_UPPER 6
M  POLY_LOWER 8
M  POLY_CHG 0
M  POLY_PROPERTIES ALPHA_AA D_AA PROTEIN AROMATIC POLYMER 
M  END

$$$$



 34 34  0  0  0  0  0  0  0  0999 V2000
   -0.4545    3.5657    0.3618 H   0  0  0  1  0  0  0  0  0  0  0  0
   -1.7628    2.2162    1.2290 C   0  0  0  1  0  0  0  0  0  0  0  0
   -2.2876    4.4710    0.2879 N   0  0  0  1  0  0  0  0  0  0  0  0
   -1.4568    3.2489    0.1617 C   0  0  0  1  0  0  0  0  0  0  0  0
   -1.9189    2.5499    2.4054 O   0  0  0  1  0  0  0  0  0  0  0  0
   -1.8582    0.9306    0.8543 N   0  0  0  1  0  0  0  0  0  0  0  0
   -2.8222    4.7609   -0.4806 H   0  0  0  1  0  0  0  0  0  0  0  0
   -2.3328    5.1966    1.4222 C   0  0  0  1  0  0  0  0  0  0  0  0
   -2.1482   -0.1356    1.8013 C   0  0  0  1  0  0  0  0  0  0  0  0
   -3.0624    6.5173    1.2721 C   0  0  0  1  0  0  0  0  0  0  0  0
   -1.8437    4.8535    2.4859 O   0  0  0  1  0  0  0  0  0  0  0  0
   -1.7281    0.7023   -0.0898 H   0  0  0  1  0  0  0  0  0  0  0  0
   -1.2319   -0.5199    2.1982 H   0  0  0  1  0  0  0  0  0  0  0  0
   -2.6778   -0.9206    1.3031 H   0  0  0  1  0  0  0  0  0  0  0  0
   -2.7483    0.2497    2.5991 H   0  0  0  1  0  0  0  0  0  0  0  0
   -2.3913    7.3226    1.4869 H   0  0  0  1  0  0  0  0  0  0  0  0
   -3.8865    6.5487    1.9539 H   0  0  0  1  0  0  0  0  0  0  0  0
   -3.4243    6.6127    0.2697 H   0  0  0  1  0  0  0  0  0  0  0  0
   -1.4220    2.6986   -1.2580 C   0  0  0  1  0  0  0  0  0  0  0  0
   -2.7896    2.5673   -1.8732 C   0  0  0  1  0  0  0  0  0  0  0  0
   -3.0236    3.0472   -3.1481 C   0  0  0  1  0  0  0  0  0  0  0  0
   -4.2818    2.9211   -3.7161 C   0  0  0  1  0  0  0  0  0  0  0  0
   -5.3036    2.3203   -3.0054 C   0  0  0  1  0  0  0  0  0  0  0  0
   -5.0691    1.8389   -1.7269 C   0  0  0  1  0  0  0  0  0  0  0  0
   -3.8146    1.9647   -1.1607 C   0  0  0  1  0  0  0  0  0  0  0  0
   -6.6112    2.1473   -3.4835 N   0  0  0  1  0  0  0  0  0  0  0  0
   -0.9635    1.7321   -1.2375 H   0  0  0  1  0  0  0  0  0  0  0  0
   -0.8376    3.3584   -1.8648 H   0  0  0  1  0  0  0  0  0  0  0  0
   -2.2557    3.5029   -3.6812 H   0  0  0  1  0  0  0  0  0  0  0  0
   -4.4568    3.2786   -4.6770 H   0  0  0  1  0  0  0  0  0  0  0  0
   -5.8370    1.3832   -1.1937 H   0  0  0  1  0  0  0  0  0  0  0  0
   -3.6396    1.6072   -0.1999 H   0  0  0  1  0  0  0  0  0  0  0  0
   -6.9752    2.7667   -4.1500 H   0  0  0  1  0  0  0  0  0  0  0  0
   -7.1606    1.4071   -3.1509 H   0  0  0  1  0  0  0  0  0  0  0  0
  1  4  1  0  0  0  0
  2  4  1  0  0  0  0
  2  5  2  0  0  0  0
  2  6  1  0  0  0  0
  3  4  1  0  0  0  0
  3  7  1  0  0  0  0
  3  8  1  0  0  0  0
  4 19  1  0  0  0  0
  6  9  1  0  0  0  0
  6 12  1  0  0  0  0
  8 10  1  0  0  0  0
  8 11  2  0  0  0  0
  9 13  1  0  0  0  0
  9 14  1  0  0  0  0
  9 15  1  0  0  0  0
 10 16  1  0  0  0  0
 10 17  1  0  0  0  0
 10 18  1  0  0  0  0
 19 20  1  0  0  0  0
 19 27  1  0  0  0  0
 19 28  1  0  0  0  0
 20 21  4  0  0  0  0
 20 25  4  0  0  0  0
 21 22  4  0  0  0  0
 21 29  1  0  0  0  0
 22 23  4  0  0  0  0
 22 30  1  0  0  0  0
 23 24  4  0  0  0  0
 23 26  1  0  0  0  0
 24 25  4  0  0  0  0
 24 31  1  0  0  0  0
 25 32  1  0  0  0  0
 26 33  1  0  0  0  0
 26 34  1  0  0  0  0
M  END
> <BCLConfClusterSize>
1

> <ConfClashScore>
0 

> <ConfOneFourInteractionScore>
-0.942828 

> <ConfScore>
0.109443 

> <ConfScorePBest>
0.00632436 

> <ConfTolerance>
0.413644 

> <RosettaParamsInstructions>
M  ROOT 3
M  POLY_N_BB 3
M  POLY_CA_BB 4
M  POLY_C_BB 2
M  POLY_O_BB 5
M  POLY_IGNORE 9 10 11 12 13 14 15 16 17 18 
M  POLY_UPPER 6
M  POLY_LOWER 8
M  POLY_CHG 0
M  POLY_PROPERTIES ALPHA_AA D_AA PROTEIN AROMATIC POLYMER 
M  END

$$$$



 34 34  0  0  0  0  0  0  0  0999 V2000
    0.3522    1.6048   -0.8780 H   0  0  0  1  0  0  0  0  0  0  0  0
   -0.5328    0.7996   -2.6232 C   0  0  0  1  0  0  0  0  0  0  0  0
   -1.2834    0.4793   -0.2981 N   0  0  0  1  0  0  0  0  0  0  0  0
   -0.6376    1.3953   -1.2265 C   0  0  0  1  0  0  0  0  0  0  0  0
   -1.3030   -0.0521   -3.0278 O   0  0  0  1  0  0  0  0  0  0  0  0
    0.4373    1.2230   -3.4385 N   0  0  0  1  0  0  0  0  0  0  0  0
   -2.0175    0.8111    0.2600 H   0  0  0  1  0  0  0  0  0  0  0  0
   -0.9104   -0.7981   -0.1802 C   0  0  0  1  0  0  0  0  0  0  0  0
    0.7743    0.5283   -4.6721 C   0  0  0  1  0  0  0  0  0  0  0  0
   -1.6201   -1.5949    0.8972 C   0  0  0  1  0  0  0  0  0  0  0  0
   -0.0554   -1.3083   -0.8853 O   0  0  0  1  0  0  0  0  0  0  0  0
    0.9393    2.0294   -3.1975 H   0  0  0  1  0  0  0  0  0  0  0  0
   -0.0105   -0.1541   -4.9236 H   0  0  0  1  0  0  0  0  0  0  0  0
    1.6878   -0.0126   -4.5384 H   0  0  0  1  0  0  0  0  0  0  0  0
    0.8935    1.2409   -5.4613 H   0  0  0  1  0  0  0  0  0  0  0  0
   -2.6722   -1.6010    0.7023 H   0  0  0  1  0  0  0  0  0  0  0  0
   -1.4369   -1.1463    1.8512 H   0  0  0  1  0  0  0  0  0  0  0  0
   -1.2520   -2.5995    0.8983 H   0  0  0  1  0  0  0  0  0  0  0  0
   -1.4147    2.7143   -1.2696 C   0  0  0  1  0  0  0  0  0  0  0  0
   -2.7884    2.5700   -1.8680 C   0  0  0  1  0  0  0  0  0  0  0  0
   -3.0334    3.0157   -3.1531 C   0  0  0  1  0  0  0  0  0  0  0  0
   -4.2973    2.8777   -3.7056 C   0  0  0  1  0  0  0  0  0  0  0  0
   -5.3138    2.2993   -2.9691 C   0  0  0  1  0  0  0  0  0  0  0  0
   -5.0683    1.8524   -1.6801 C   0  0  0  1  0  0  0  0  0  0  0  0
   -3.8081    1.9900   -1.1295 C   0  0  0  1  0  0  0  0  0  0  0  0
   -6.6049    2.1634   -3.5307 N   0  0  0  1  0  0  0  0  0  0  0  0
   -0.8601    3.4173   -1.8554 H   0  0  0  1  0  0  0  0  0  0  0  0
   -1.5155    3.0830   -0.2702 H   0  0  0  1  0  0  0  0  0  0  0  0
   -2.2695    3.4545   -3.7058 H   0  0  0  1  0  0  0  0  0  0  0  0
   -4.4806    3.2094   -4.6741 H   0  0  0  1  0  0  0  0  0  0  0  0
   -5.8322    1.4135   -1.1275 H   0  0  0  1  0  0  0  0  0  0  0  0
   -3.6248    1.6583   -0.1610 H   0  0  0  1  0  0  0  0  0  0  0  0
   -6.7931    2.5287   -4.4204 H   0  0  0  1  0  0  0  0  0  0  0  0
   -7.3111    1.7040   -3.0302 H   0  0  0  1  0  0  0  0  0  0  0  0
  1  4  1  0  0  0  0
  2  4  1  0  0  0  0
  2  5  2  0  0  0  0
  2  6  1  0  0  0  0
  3  4  1  0  0  0  0
  3  7  1  0  0  0  0
  3  8  1  0  0  0  0
  4 19  1  0  0  0  0
  6  9  1  0  0  0  0
  6 12  1  0  0  0  0
  8 10  1  0  0  0  0
  8 11  2  0  0  0  0
  9 13  1  0  0  0  0
  9 14  1  0  0  0  0
  9 15  1  0  0  0  0
 10 16  1  0  0  0  0
 10 17  1  0  0  0  0
 10 18  1  0  0  0  0
 19 20  1  0  0  0  0
 19 27  1  0  0  0  0
 19 28  1  0  0  0  0
 20 21  4  0  0  0  0
 20 25  4  0  0  0  0
 21 22  4  0  0  0  0
 21 29  1  0  0  0  0
 22 23  4  0  0  0  0
 22 30  1  0  0  0  0
 23 24  4  0  0  0  0
 23 26  1  0  0  0  0
 24 25  4  0  0  0  0
 24 31  1  0  0  0  0
 25 32  1  0  0  0  0
 26 33  1  0  0  0  0
 26 34  1  0  0  0  0
M  END
> <BCLConfClusterSize>
1

> <ConfClashScore>
0 

> <ConfOneFourInteractionScore>
-0.982563 

> <ConfScore>
0.112251 

> <ConfScorePBest>
0.00629587 

> <ConfTolerance>
0.291604 

> <RosettaParamsInstructions>
M  ROOT 3
M  POLY_N_BB 3
M  POLY_CA_BB 4
M  POLY_C_BB 2
M  POLY_O_BB 5
M  POLY_IGNORE 9 10 11 12 13 14 15 16 17 18 
M  POLY_UPPER 6
M  POLY_LOWER 8
M  POLY_CHG 0
M  POLY_PROPERTIES ALPHA_AA D_AA PROTEIN AROMATIC POLYMER 
M  END

$$$$



 34 34  0  0  0  0  0  0  0  0999 V2000
    0.2944    1.6150   -0.7951 H   0  0  0  1  0  0  0  0  0  0  0  0
    0.0136    1.2601   -2.8283 C   0  0  0  1  0  0  0  0  0  0  0  0
   -1.2258    0.2521   -0.9727 N   0  0  0  1  0  0  0  0  0  0  0  0
   -0.5499    1.4720   -1.4366 C   0  0  0  1  0  0  0  0  0  0  0  0
    0.3982    0.1496   -3.2005 O   0  0  0  1  0  0  0  0  0  0  0  0
    0.0617    2.3503   -3.6102 N   0  0  0  1  0  0  0  0  0  0  0  0
   -1.3502    0.1660   -0.0044 H   0  0  0  1  0  0  0  0  0  0  0  0
   -1.6899   -0.7528   -1.7209 C   0  0  0  1  0  0  0  0  0  0  0  0
    0.6508    2.3273   -4.9407 C   0  0  0  1  0  0  0  0  0  0  0  0
   -2.1833   -1.9677   -0.9596 C   0  0  0  1  0  0  0  0  0  0  0  0
   -1.7223   -0.7133   -2.9399 O   0  0  0  1  0  0  0  0  0  0  0  0
   -0.3129    3.1908   -3.2733 H   0  0  0  1  0  0  0  0  0  0  0  0
    0.9480    1.3282   -5.1825 H   0  0  0  1  0  0  0  0  0  0  0  0
    1.5068    2.9689   -4.9627 H   0  0  0  1  0  0  0  0  0  0  0  0
   -0.0692    2.6677   -5.6553 H   0  0  0  1  0  0  0  0  0  0  0  0
   -3.1551   -2.2410   -1.3142 H   0  0  0  1  0  0  0  0  0  0  0  0
   -2.2366   -1.7369    0.0839 H   0  0  0  1  0  0  0  0  0  0  0  0
   -1.5065   -2.7824   -1.1111 H   0  0  0  1  0  0  0  0  0  0  0  0
   -1.4115    2.7282   -1.2803 C   0  0  0  1  0  0  0  0  0  0  0  0
   -2.7867    2.5777   -1.8739 C   0  0  0  1  0  0  0  0  0  0  0  0
   -3.0252    2.9748   -3.1761 C   0  0  0  1  0  0  0  0  0  0  0  0
   -4.2904    2.8310   -3.7240 C   0  0  0  1  0  0  0  0  0  0  0  0
   -5.3147    2.2954   -2.9661 C   0  0  0  1  0  0  0  0  0  0  0  0
   -5.0756    1.8971   -1.6601 C   0  0  0  1  0  0  0  0  0  0  0  0
   -3.8141    2.0406   -1.1140 C   0  0  0  1  0  0  0  0  0  0  0  0
   -6.6071    2.1537   -3.5232 N   0  0  0  1  0  0  0  0  0  0  0  0
   -0.9176    3.5428   -1.7675 H   0  0  0  1  0  0  0  0  0  0  0  0
   -1.5126    2.9442   -0.2373 H   0  0  0  1  0  0  0  0  0  0  0  0
   -2.2554    3.3815   -3.7450 H   0  0  0  1  0  0  0  0  0  0  0  0
   -4.4689    3.1261   -4.7051 H   0  0  0  1  0  0  0  0  0  0  0  0
   -5.8453    1.4904   -1.0912 H   0  0  0  1  0  0  0  0  0  0  0  0
   -3.6356    1.7455   -0.1329 H   0  0  0  1  0  0  0  0  0  0  0  0
   -7.2002    1.4394   -3.2096 H   0  0  0  1  0  0  0  0  0  0  0  0
   -6.9093    2.7698   -4.2228 H   0  0  0  1  0  0  0  0  0  0  0  0
  1  4  1  0  0  0  0
  2  4  1  0  0  0  0
  2  5  2  0  0  0  0
  2  6  1  0  0  0  0
  3  4  1  0  0  0  0
  3  7  1  0  0  0  0
  3  8  1  0  0  0  0
  4 19  1  0  0  0  0
  6  9  1  0  0  0  0
  6 12  1  0  0  0  0
  8 10  1  0  0  0  0
  8 11  2  0  0  0  0
  9 13  1  0  0  0  0
  9 14  1  0  0  0  0
  9 15  1  0  0  0  0
 10 16  1  0  0  0  0
 10 17  1  0  0  0  0
 10 18  1  0  0  0  0
 19 20  1  0  0  0  0
 19 27  1  0  0  0  0
 19 28  1  0  0  0  0
 20 21  4  0  0  0  0
 20 25  4  0  0  0  0
 21 22  4  0  0  0  0
 21 29  1  0  0  0  0
 22 23  4  0  0  0  0
 22 30  1  0  0  0  0
 23 24  4  0  0  0  0
 23 26  1  0  0  0  0
 24 25  4  0  0  0  0
 24 31  1  0  0  0  0
 25 32  1  0  0  0  0
 26 33  1  0  0  0  0
 26 34  1  0  0  0  0
M  END
> <BCLConfClusterSize>
1

> <ConfClashScore>
0.00116576 

> <ConfOneFourInteractionScore>
-0.92611 

> <ConfScore>
0.114888 

> <ConfScorePBest>
0.00626739 

> <ConfTolerance>
0.341366 

> <RosettaParamsInstructions>
M  ROOT 3
M  POLY_N_BB 3
M  POLY_CA_BB 4
M  POLY_C_BB 2
M  POLY_O_BB 5
M  POLY_IGNORE 9 10 11 12 13 14 15 16 17 18 
M  POLY_UPPER 6
M  POLY_LOWER 8
M  POLY_CHG 0
M  POLY_PROPERTIES ALPHA_AA D_AA PROTEIN AROMATIC POLYMER 
M  END

$$$$



 34 34  0  0  0  0  0  0  0  0999 V2000
   -1.9452    4.2110    0.1349 H   0  0  0  1  0  0  0  0  0  0  0  0
   -0.9057    5.1819   -1.4121 C   0  0  0  1  0  0  0  0  0  0  0  0
    0.0710    3.8157    0.3477 N   0  0  0  1  0  0  0  0  0  0  0  0
   -1.1128    3.9887   -0.4996 C   0  0  0  1  0  0  0  0  0  0  0  0
   -0.8178    6.3179   -0.9535 O   0  0  0  1  0  0  0  0  0  0  0  0
   -0.8217    4.9590   -2.7332 N   0  0  0  1  0  0  0  0  0  0  0  0
   -0.0596    3.4142    1.2321 H   0  0  0  1  0  0  0  0  0  0  0  0
    1.3538    4.1752   -0.0058 C   0  0  0  1  0  0  0  0  0  0  0  0
   -0.7462    6.0431   -3.7012 C   0  0  0  1  0  0  0  0  0  0  0  0
    2.3995    4.0048    1.0572 C   0  0  0  1  0  0  0  0  0  0  0  0
    1.5830    4.6019   -1.1256 O   0  0  0  1  0  0  0  0  0  0  0  0
   -0.8108    4.0342   -3.0571 H   0  0  0  1  0  0  0  0  0  0  0  0
   -0.3738    6.9244   -3.2222 H   0  0  0  1  0  0  0  0  0  0  0  0
   -1.7217    6.2371   -4.0959 H   0  0  0  1  0  0  0  0  0  0  0  0
   -0.0877    5.7648   -4.4973 H   0  0  0  1  0  0  0  0  0  0  0  0
    2.3806    4.8482    1.7154 H   0  0  0  1  0  0  0  0  0  0  0  0
    3.3641    3.9312    0.5999 H   0  0  0  1  0  0  0  0  0  0  0  0
    2.1995    3.1134    1.6143 H   0  0  0  1  0  0  0  0  0  0  0  0
   -1.4310    2.6943   -1.2299 C   0  0  0  1  0  0  0  0  0  0  0  0
   -2.7852    2.5745   -1.8763 C   0  0  0  1  0  0  0  0  0  0  0  0
   -3.0337    3.0174   -3.1618 C   0  0  0  1  0  0  0  0  0  0  0  0
   -4.2989    2.8775   -3.7107 C   0  0  0  1  0  0  0  0  0  0  0  0
   -5.3132    2.2999   -2.9705 C   0  0  0  1  0  0  0  0  0  0  0  0
   -5.0640    1.8557   -1.6813 C   0  0  0  1  0  0  0  0  0  0  0  0
   -3.8026    1.9952   -1.1341 C   0  0  0  1  0  0  0  0  0  0  0  0
   -6.6056    2.1621   -3.5285 N   0  0  0  1  0  0  0  0  0  0  0  0
   -1.3426    1.8971   -0.5217 H   0  0  0  1  0  0  0  0  0  0  0  0
   -0.6972    2.5719   -1.9990 H   0  0  0  1  0  0  0  0  0  0  0  0
   -2.2715    3.4557   -3.7172 H   0  0  0  1  0  0  0  0  0  0  0  0
   -4.4849    3.2072   -4.6794 H   0  0  0  1  0  0  0  0  0  0  0  0
   -5.8262    1.4174   -1.1258 H   0  0  0  1  0  0  0  0  0  0  0  0
   -3.6166    1.6656   -0.1655 H   0  0  0  1  0  0  0  0  0  0  0  0
   -6.7920    2.5111   -4.4251 H   0  0  0  1  0  0  0  0  0  0  0  0
   -7.3147    1.7176   -3.0186 H   0  0  0  1  0  0  0  0  0  0  0  0
  1  4  1  0  0  0  0
  2  4  1  0  0  0  0
  2  5  2  0  0  0  0
  2  6  1  0  0  0  0
  3  4  1  0  0  0  0
  3  7  1  0  0  0  0
  3  8  1  0  0  0  0
  4 19  1  0  0  0  0
  6  9  1  0  0  0  0
  6 12  1  0  0  0  0
  8 10  1  0  0  0  0
  8 11  2  0  0  0  0
  9 13  1  0  0  0  0
  9 14  1  0  0  0  0
  9 15  1  0  0  0  0
 10 16  1  0  0  0  0
 10 17  1  0  0  0  0
 10 18  1  0  0  0  0
 19 20  1  0  0  0  0
 19 27  1  0  0  0  0
 19 28  1  0  0  0  0
 20 21  4  0  0  0  0
 20 25  4  0  0  0  0
 21 22  4  0  0  0  0
 21 29  1  0  0  0  0
 22 23  4  0  0  0  0
 22 30  1  0  0  0  0
 23 24  4  0  0  0  0
 23 26  1  0  0  0  0
 24 25  4  0  0  0  0
 24 31  1  0  0  0  0
 25 32  1  0  0  0  0
 26 33  1  0  0  0  0
 26 34  1  0  0  0  0
M  END
> <BCLConfClusterSize>
1

> <ConfClashScore>
0 

> <ConfOneFourInteractionScore>
-0.927621 

> <ConfScore>
0.116924 

> <ConfScorePBest>
0.00623891 

> <ConfTolerance>
0.302615 

> <RosettaParamsInstructions>
M  ROOT 3
M  POLY_N_BB 3
M  POLY_CA_BB 4
M  POLY_C_BB 2
M  POLY_O_BB 5
M  POLY_IGNORE 9 10 11 12 13 14 15 16 17 18 
M  POLY_UPPER 6
M  POLY_LOWER 8
M  POLY_CHG 0
M  POLY_PROPERTIES ALPHA_AA D_AA PROTEIN AROMATIC POLYMER 
M  END

$$$$



 34 34  0  0  0  0  0  0  0  0999 V2000
    0.0622    4.1413   -0.8381 H   0  0  0  1  0  0  0  0  0  0  0  0
   -1.6537    4.8869    0.1080 C   0  0  0  1  0  0  0  0  0  0  0  0
   -1.1155    4.9736   -2.2901 N   0  0  0  1  0  0  0  0  0  0  0  0
   -0.9816    4.1722   -1.0712 C   0  0  0  1  0  0  0  0  0  0  0  0
   -1.3894    6.0656    0.3415 O   0  0  0  1  0  0  0  0  0  0  0  0
   -2.5765    4.1965    0.7837 N   0  0  0  1  0  0  0  0  0  0  0  0
   -0.5525    4.7096   -3.0475 H   0  0  0  1  0  0  0  0  0  0  0  0
   -1.9214    6.0280   -2.4873 C   0  0  0  1  0  0  0  0  0  0  0  0
   -3.2692    4.7482    1.9386 C   0  0  0  1  0  0  0  0  0  0  0  0
   -2.0033    6.5396   -3.9198 C   0  0  0  1  0  0  0  0  0  0  0  0
   -2.5601    6.5600   -1.5832 O   0  0  0  1  0  0  0  0  0  0  0  0
   -2.7946    3.2868    0.4916 H   0  0  0  1  0  0  0  0  0  0  0  0
   -2.5538    5.1463    2.6275 H   0  0  0  1  0  0  0  0  0  0  0  0
   -3.8342    3.9762    2.4177 H   0  0  0  1  0  0  0  0  0  0  0  0
   -3.9289    5.5279    1.6195 H   0  0  0  1  0  0  0  0  0  0  0  0
   -1.8283    5.7310   -4.5984 H   0  0  0  1  0  0  0  0  0  0  0  0
   -1.2633    7.2977   -4.0704 H   0  0  0  1  0  0  0  0  0  0  0  0
   -2.9757    6.9494   -4.0970 H   0  0  0  1  0  0  0  0  0  0  0  0
   -1.4114    2.7149   -1.2644 C   0  0  0  1  0  0  0  0  0  0  0  0
   -2.7856    2.5791   -1.8874 C   0  0  0  1  0  0  0  0  0  0  0  0
   -3.0585    2.9958   -3.1767 C   0  0  0  1  0  0  0  0  0  0  0  0
   -4.3332    2.8429   -3.6994 C   0  0  0  1  0  0  0  0  0  0  0  0
   -5.3326    2.2786   -2.9294 C   0  0  0  1  0  0  0  0  0  0  0  0
   -5.0591    1.8607   -1.6363 C   0  0  0  1  0  0  0  0  0  0  0  0
   -3.7881    2.0132   -1.1153 C   0  0  0  1  0  0  0  0  0  0  0  0
   -6.5858    2.1752   -3.5512 N   0  0  0  1  0  0  0  0  0  0  0  0
   -1.4215    2.2333   -0.3090 H   0  0  0  1  0  0  0  0  0  0  0  0
   -0.6998    2.2315   -1.9007 H   0  0  0  1  0  0  0  0  0  0  0  0
   -2.3074    3.4241   -3.7546 H   0  0  0  1  0  0  0  0  0  0  0  0
   -4.5375    3.1528   -4.6710 H   0  0  0  1  0  0  0  0  0  0  0  0
   -5.8102    1.4324   -1.0584 H   0  0  0  1  0  0  0  0  0  0  0  0
   -3.5838    1.7033   -0.1438 H   0  0  0  1  0  0  0  0  0  0  0  0
   -7.3302    1.7415   -3.0842 H   0  0  0  1  0  0  0  0  0  0  0  0
   -6.7168    2.5367   -4.4526 H   0  0  0  1  0  0  0  0  0  0  0  0
  1  4  1  0  0  0  0
  2  4  1  0  0  0  0
  2  5  2  0  0  0  0
  2  6  1  0  0  0  0
  3  4  1  0  0  0  0
  3  7  1  0  0  0  0
  3  8  1  0  0  0  0
  4 19  1  0  0  0  0
  6  9  1  0  0  0  0
  6 12  1  0  0  0  0
  8 10  1  0  0  0  0
  8 11  2  0  0  0  0
  9 13  1  0  0  0  0
  9 14  1  0  0  0  0
  9 15  1  0  0  0  0
 10 16  1  0  0  0  0
 10 17  1  0  0  0  0
 10 18  1  0  0  0  0
 19 20  1  0  0  0  0
 19 27  1  0  0  0  0
 19 28  1  0  0  0  0
 20 21  4  0  0  0  0
 20 25  4  0  0  0  0
 21 22  4  0  0  0  0
 21 29  1  0  0  0  0
 22 23  4  0  0  0  0
 22 30  1  0  0  0  0
 23 24  4  0  0  0  0
 23 26  1  0  0  0  0
 24 25  4  0  0  0  0
 24 31  1  0  0  0  0
 25 32  1  0  0  0  0
 26 33  1  0  0  0  0
 26 34  1  0  0  0  0
M  END
> <BCLConfClusterSize>
1

> <ConfClashScore>
0.000714677 

> <ConfOneFourInteractionScore>
-0.917907 

> <ConfScore>
0.117776 

> <ConfScorePBest>
0.00621043 

> <ConfTolerance>
0.376785 

> <RosettaParamsInstructions>
M  ROOT 3
M  POLY_N_BB 3
M  POLY_CA_BB 4
M  POLY_C_BB 2
M  POLY_O_BB 5
M  POLY_IGNORE 9 10 11 12 13 14 15 16 17 18 
M  POLY_UPPER 6
M  POLY_LOWER 8
M  POLY_CHG 0
M  POLY_PROPERTIES ALPHA_AA D_AA PROTEIN AROMATIC POLYMER 
M  END

$$$$



 34 34  0  0  0  0  0  0  0  0999 V2000
   -0.2095    4.1863   -0.3838 H   0  0  0  1  0  0  0  0  0  0  0  0
   -2.0630    4.2610    0.5941 C   0  0  0  1  0  0  0  0  0  0  0  0
   -1.5110    5.2000   -1.6020 N   0  0  0  1  0  0  0  0  0  0  0  0
   -1.2360    4.1076   -0.6755 C   0  0  0  1  0  0  0  0  0  0  0  0
   -2.3193    5.3748    1.0495 O   0  0  0  1  0  0  0  0  0  0  0  0
   -2.5005    3.1517    1.1967 N   0  0  0  1  0  0  0  0  0  0  0  0
   -2.2008    5.8620   -1.3865 H   0  0  0  1  0  0  0  0  0  0  0  0
   -0.8215    5.3006   -2.7486 C   0  0  0  1  0  0  0  0  0  0  0  0
   -3.3028    3.1910    2.4102 C   0  0  0  1  0  0  0  0  0  0  0  0
   -1.1206    6.4754   -3.6595 C   0  0  0  1  0  0  0  0  0  0  0  0
    0.0287    4.4656   -3.0543 O   0  0  0  1  0  0  0  0  0  0  0  0
   -2.2731    2.2813    0.8080 H   0  0  0  1  0  0  0  0  0  0  0  0
   -3.9756    4.0219    2.3669 H   0  0  0  1  0  0  0  0  0  0  0  0
   -2.6601    3.2967    3.2591 H   0  0  0  1  0  0  0  0  0  0  0  0
   -3.8626    2.2832    2.4969 H   0  0  0  1  0  0  0  0  0  0  0  0
   -1.4227    7.3161   -3.0706 H   0  0  0  1  0  0  0  0  0  0  0  0
   -1.9078    6.2117   -4.3345 H   0  0  0  1  0  0  0  0  0  0  0  0
   -0.2422    6.7274   -4.2161 H   0  0  0  1  0  0  0  0  0  0  0  0
   -1.4049    2.7331   -1.3094 C   0  0  0  1  0  0  0  0  0  0  0  0
   -2.7879    2.5748   -1.8789 C   0  0  0  1  0  0  0  0  0  0  0  0
   -3.0581    2.9968   -3.1670 C   0  0  0  1  0  0  0  0  0  0  0  0
   -4.3316    2.8458   -3.6932 C   0  0  0  1  0  0  0  0  0  0  0  0
   -5.3326    2.2780   -2.9276 C   0  0  0  1  0  0  0  0  0  0  0  0
   -5.0618    1.8547   -1.6358 C   0  0  0  1  0  0  0  0  0  0  0  0
   -3.7920    2.0054   -1.1113 C   0  0  0  1  0  0  0  0  0  0  0  0
   -6.5844    2.1769   -3.5526 N   0  0  0  1  0  0  0  0  0  0  0  0
   -1.2438    1.9813   -0.5652 H   0  0  0  1  0  0  0  0  0  0  0  0
   -0.6870    2.6182   -2.0945 H   0  0  0  1  0  0  0  0  0  0  0  0
   -2.3058    3.4276   -3.7415 H   0  0  0  1  0  0  0  0  0  0  0  0
   -4.5339    3.1596   -4.6638 H   0  0  0  1  0  0  0  0  0  0  0  0
   -5.8140    1.4239   -1.0612 H   0  0  0  1  0  0  0  0  0  0  0  0
   -3.5898    1.6915   -0.1406 H   0  0  0  1  0  0  0  0  0  0  0  0
   -7.3435    1.7890   -3.0692 H   0  0  0  1  0  0  0  0  0  0  0  0
   -6.6998    2.4942   -4.4726 H   0  0  0  1  0  0  0  0  0  0  0  0
  1  4  1  0  0  0  0
  2  4  1  0  0  0  0
  2  5  2  0  0  0  0
  2  6  1  0  0  0  0
  3  4  1  0  0  0  0
  3  7  1  0  0  0  0
  3  8  1  0  0  0  0
  4 19  1  0  0  0  0
  6  9  1  0  0  0  0
  6 12  1  0  0  0  0
  8 10  1  0  0  0  0
  8 11  2  0  0  0  0
  9 13  1  0  0  0  0
  9 14  1  0  0  0  0
  9 15  1  0  0  0  0
 10 16  1  0  0  0  0
 10 17  1  0  0  0  0
 10 18  1  0  0  0  0
 19 20  1  0  0  0  0
 19 27  1  0  0  0  0
 19 28  1  0  0  0  0
 20 21  4  0  0  0  0
 20 25  4  0  0  0  0
 21 22  4  0  0  0  0
 21 29  1  0  0  0  0
 22 23  4  0  0  0  0
 22 30  1  0  0  0  0
 23 24  4  0  0  0  0
 23 26  1  0  0  0  0
 24 25  4  0  0  0  0
 24 31  1  0  0  0  0
 25 32  1  0  0  0  0
 26 33  1  0  0  0  0
 26 34  1  0  0  0  0
M  END
> <BCLConfClusterSize>
1

> <ConfClashScore>
0 

> <ConfOneFourInteractionScore>
-0.927466 

> <ConfScore>
0.118194 

> <ConfScorePBest>
0.00618195 

> <ConfTolerance>
0.319959 

> <RosettaParamsInstructions>
M  ROOT 3
M  POLY_N_BB 3
M  POLY_CA_BB 4
M  POLY_C_BB 2
M  POLY_O_BB 5
M  POLY_IGNORE 9 10 11 12 13 14 15 16 17 18 
M  POLY_UPPER 6
M  POLY_LOWER 8
M  POLY_CHG 0
M  POLY_PROPERTIES ALPHA_AA D_AA PROTEIN AROMATIC POLYMER 
M  END

$$$$



 34 34  0  0  0  0  0  0  0  0999 V2000
   -1.6309    4.7997   -0.9599 H   0  0  0  1  0  0  0  0  0  0  0  0
    0.0454    4.2389    0.1785 C   0  0  0  1  0  0  0  0  0  0  0  0
   -2.2872    3.8198    0.7402 N   0  0  0  1  0  0  0  0  0  0  0  0
   -1.3377    3.9539   -0.3737 C   0  0  0  1  0  0  0  0  0  0  0  0
    0.3007    5.3002    0.7415 O   0  0  0  1  0  0  0  0  0  0  0  0
    0.9529    3.2642    0.0098 N   0  0  0  1  0  0  0  0  0  0  0  0
   -3.1281    4.3196    0.6815 H   0  0  0  1  0  0  0  0  0  0  0  0
   -2.0894    3.0646    1.8314 C   0  0  0  1  0  0  0  0  0  0  0  0
    2.3691    3.3808    0.3242 C   0  0  0  1  0  0  0  0  0  0  0  0
   -3.1113    3.1447    2.9487 C   0  0  0  1  0  0  0  0  0  0  0  0
   -1.1085    2.3279    1.9252 O   0  0  0  1  0  0  0  0  0  0  0  0
    0.6381    2.4097   -0.3522 H   0  0  0  1  0  0  0  0  0  0  0  0
    2.8814    2.5006   -0.0039 H   0  0  0  1  0  0  0  0  0  0  0  0
    2.4916    3.4913    1.3814 H   0  0  0  1  0  0  0  0  0  0  0  0
    2.7754    4.2362   -0.1738 H   0  0  0  1  0  0  0  0  0  0  0  0
   -3.8845    2.4251    2.7779 H   0  0  0  1  0  0  0  0  0  0  0  0
   -3.5369    4.1262    2.9727 H   0  0  0  1  0  0  0  0  0  0  0  0
   -2.6338    2.9395    3.8840 H   0  0  0  1  0  0  0  0  0  0  0  0
   -1.4092    2.7211   -1.2839 C   0  0  0  1  0  0  0  0  0  0  0  0
   -2.7854    2.5738   -1.8759 C   0  0  0  1  0  0  0  0  0  0  0  0
   -3.0349    3.0098   -3.1635 C   0  0  0  1  0  0  0  0  0  0  0  0
   -4.3010    2.8690   -3.7100 C   0  0  0  1  0  0  0  0  0  0  0  0
   -5.3153    2.2974   -2.9651 C   0  0  0  1  0  0  0  0  0  0  0  0
   -5.0653    1.8601   -1.6738 C   0  0  0  1  0  0  0  0  0  0  0  0
   -3.8028    2.0005   -1.1291 C   0  0  0  1  0  0  0  0  0  0  0  0
   -6.6087    2.1587   -3.5207 N   0  0  0  1  0  0  0  0  0  0  0  0
   -1.1786    1.8477   -0.7104 H   0  0  0  1  0  0  0  0  0  0  0  0
   -0.6966    2.8274   -2.0750 H   0  0  0  1  0  0  0  0  0  0  0  0
   -2.2726    3.4436   -3.7224 H   0  0  0  1  0  0  0  0  0  0  0  0
   -4.4877    3.1935   -4.6803 H   0  0  0  1  0  0  0  0  0  0  0  0
   -5.8275    1.4263   -1.1148 H   0  0  0  1  0  0  0  0  0  0  0  0
   -3.6162    1.6761   -0.1588 H   0  0  0  1  0  0  0  0  0  0  0  0
   -7.3501    1.8424   -2.9633 H   0  0  0  1  0  0  0  0  0  0  0  0
   -6.7634    2.3789   -4.4630 H   0  0  0  1  0  0  0  0  0  0  0  0
  1  4  1  0  0  0  0
  2  4  1  0  0  0  0
  2  5  2  0  0  0  0
  2  6  1  0  0  0  0
  3  4  1  0  0  0  0
  3  7  1  0  0  0  0
  3  8  1  0  0  0  0
  4 19  1  0  0  0  0
  6  9  1  0  0  0  0
  6 12  1  0  0  0  0
  8 10  1  0  0  0  0
  8 11  2  0  0  0  0
  9 13  1  0  0  0  0
  9 14  1  0  0  0  0
  9 15  1  0  0  0  0
 10 16  1  0  0  0  0
 10 17  1  0  0  0  0
 10 18  1  0  0  0  0
 19 20  1  0  0  0  0
 19 27  1  0  0  0  0
 19 28  1  0  0  0  0
 20 21  4  0  0  0  0
 20 25  4  0  0  0  0
 21 22  4  0  0  0  0
 21 29  1  0  0  0  0
 22 23  4  0  0  0  0
 22 30  1  0  0  0  0
 23 24  4  0  0  0  0
 23 26  1  0  0  0  0
 24 25  4  0  0  0  0
 24 31  1  0  0  0  0
 25 32  1  0  0  0  0
 26 33  1  0  0  0  0
 26 34  1  0  0  0  0
M  END
> <BCLConfClusterSize>
1

> <ConfClashScore>
0 

> <ConfOneFourInteractionScore>
-0.927621 

> <ConfScore>
0.121901 

> <ConfScorePBest>
0.00615347 

> <ConfTolerance>
0.431451 

> <RosettaParamsInstructions>
M  ROOT 3
M  POLY_N_BB 3
M  POLY_CA_BB 4
M  POLY_C_BB 2
M  POLY_O_BB 5
M  POLY_IGNORE 9 10 11 12 13 14 15 16 17 18 
M  POLY_UPPER 6
M  POLY_LOWER 8
M  POLY_CHG 0
M  POLY_PROPERTIES ALPHA_AA D_AA PROTEIN AROMATIC POLYMER 
M  END

$$$$



 34 34  0  0  0  0  0  0  0  0999 V2000
   -0.3028    3.8200    0.1468 H   0  0  0  1  0  0  0  0  0  0  0  0
   -2.3249    4.1295    0.6337 C   0  0  0  1  0  0  0  0  0  0  0  0
   -1.0936    5.1028   -1.2724 N   0  0  0  1  0  0  0  0  0  0  0  0
   -1.2231    3.9432   -0.3848 C   0  0  0  1  0  0  0  0  0  0  0  0
   -2.9718    3.1701    1.0590 O   0  0  0  1  0  0  0  0  0  0  0  0
   -2.5411    5.3845    1.0305 N   0  0  0  1  0  0  0  0  0  0  0  0
   -0.2045    5.4358   -1.5152 H   0  0  0  1  0  0  0  0  0  0  0  0
   -2.1959    5.7124   -1.7556 C   0  0  0  1  0  0  0  0  0  0  0  0
   -3.6147    5.7357    1.9480 C   0  0  0  1  0  0  0  0  0  0  0  0
   -1.9482    6.8401   -2.7318 C   0  0  0  1  0  0  0  0  0  0  0  0
   -3.3376    5.3855   -1.4341 O   0  0  0  1  0  0  0  0  0  0  0  0
   -1.9567    6.0948    0.6924 H   0  0  0  1  0  0  0  0  0  0  0  0
   -3.8748    4.8813    2.5373 H   0  0  0  1  0  0  0  0  0  0  0  0
   -4.4693    6.0574    1.3903 H   0  0  0  1  0  0  0  0  0  0  0  0
   -3.2895    6.5266    2.5911 H   0  0  0  1  0  0  0  0  0  0  0  0
   -1.4932    6.4512   -3.6188 H   0  0  0  1  0  0  0  0  0  0  0  0
   -1.2975    7.5621   -2.2846 H   0  0  0  1  0  0  0  0  0  0  0  0
   -2.8787    7.3049   -2.9830 H   0  0  0  1  0  0  0  0  0  0  0  0
   -1.4265    2.7048   -1.2423 C   0  0  0  1  0  0  0  0  0  0  0  0
   -2.7826    2.5796   -1.8835 C   0  0  0  1  0  0  0  0  0  0  0  0
   -3.0312    2.9972   -3.1774 C   0  0  0  1  0  0  0  0  0  0  0  0
   -4.2983    2.8534   -3.7209 C   0  0  0  1  0  0  0  0  0  0  0  0
   -5.3144    2.2972   -2.9669 C   0  0  0  1  0  0  0  0  0  0  0  0
   -5.0653    1.8784   -1.6693 C   0  0  0  1  0  0  0  0  0  0  0  0
   -3.8019    2.0218   -1.1276 C   0  0  0  1  0  0  0  0  0  0  0  0
   -6.6088    2.1555   -3.5195 N   0  0  0  1  0  0  0  0  0  0  0  0
   -1.2736    1.8457   -0.6230 H   0  0  0  1  0  0  0  0  0  0  0  0
   -0.6931    2.7187   -2.0213 H   0  0  0  1  0  0  0  0  0  0  0  0
   -2.2676    3.4193   -3.7433 H   0  0  0  1  0  0  0  0  0  0  0  0
   -4.4843    3.1639   -4.6959 H   0  0  0  1  0  0  0  0  0  0  0  0
   -5.8289    1.4562   -1.1034 H   0  0  0  1  0  0  0  0  0  0  0  0
   -3.6159    1.7113   -0.1526 H   0  0  0  1  0  0  0  0  0  0  0  0
   -7.2951    1.6494   -3.0365 H   0  0  0  1  0  0  0  0  0  0  0  0
   -6.8192    2.5633   -4.3854 H   0  0  0  1  0  0  0  0  0  0  0  0
  1  4  1  0  0  0  0
  2  4  1  0  0  0  0
  2  5  2  0  0  0  0
  2  6  1  0  0  0  0
  3  4  1  0  0  0  0
  3  7  1  0  0  0  0
  3  8  1  0  0  0  0
  4 19  1  0  0  0  0
  6  9  1  0  0  0  0
  6 12  1  0  0  0  0
  8 10  1  0  0  0  0
  8 11  2  0  0  0  0
  9 13  1  0  0  0  0
  9 14  1  0  0  0  0
  9 15  1  0  0  0  0
 10 16  1  0  0  0  0
 10 17  1  0  0  0  0
 10 18  1  0  0  0  0
 19 20  1  0  0  0  0
 19 27  1  0  0  0  0
 19 28  1  0  0  0  0
 20 21  4  0  0  0  0
 20 25  4  0  0  0  0
 21 22  4  0  0  0  0
 21 29  1  0  0  0  0
 22 23  4  0  0  0  0
 22 30  1  0  0  0  0
 23 24  4  0  0  0  0
 23 26  1  0  0  0  0
 24 25  4  0  0  0  0
 24 31  1  0  0  0  0
 25 32  1  0  0  0  0
 26 33  1  0  0  0  0
 26 34  1  0  0  0  0
M  END
> <BCLConfClusterSize>
1

> <ConfClashScore>
0 

> <ConfOneFourInteractionScore>
-0.95412 

> <ConfScore>
0.123232 

> <ConfScorePBest>
0.00612499 

> <ConfTolerance>
0.248028 

> <RosettaParamsInstructions>
M  ROOT 3
M  POLY_N_BB 3
M  POLY_CA_BB 4
M  POLY_C_BB 2
M  POLY_O_BB 5
M  POLY_IGNORE 9 10 11 12 13 14 15 16 17 18 
M  POLY_UPPER 6
M  POLY_LOWER 8
M  POLY_CHG 0
M  POLY_PROPERTIES ALPHA_AA D_AA PROTEIN AROMATIC POLYMER 
M  END

$$$$



 34 34  0  0  0  0  0  0  0  0999 V2000
   -1.1397    0.6840   -0.9466 H   0  0  0  1  0  0  0  0  0  0  0  0
    0.7069    1.5343   -0.4584 C   0  0  0  1  0  0  0  0  0  0  0  0
   -0.1745    1.0920   -2.7128 N   0  0  0  1  0  0  0  0  0  0  0  0
   -0.5394    1.4789   -1.3373 C   0  0  0  1  0  0  0  0  0  0  0  0
    0.7013    1.0565    0.6753 O   0  0  0  1  0  0  0  0  0  0  0  0
    1.7998    2.1152   -0.9559 N   0  0  0  1  0  0  0  0  0  0  0  0
   -0.4062    1.6939   -3.4506 H   0  0  0  1  0  0  0  0  0  0  0  0
    0.4673   -0.0617   -2.9907 C   0  0  0  1  0  0  0  0  0  0  0  0
    3.0728    2.2293   -0.2600 C   0  0  0  1  0  0  0  0  0  0  0  0
    0.6332   -0.4510   -4.4422 C   0  0  0  1  0  0  0  0  0  0  0  0
    0.9056   -0.7777   -2.0913 O   0  0  0  1  0  0  0  0  0  0  0  0
    1.7410    2.4937   -1.8579 H   0  0  0  1  0  0  0  0  0  0  0  0
    3.7438    2.8291   -0.8388 H   0  0  0  1  0  0  0  0  0  0  0  0
    3.4931    1.2548   -0.1237 H   0  0  0  1  0  0  0  0  0  0  0  0
    2.9176    2.6879    0.6942 H   0  0  0  1  0  0  0  0  0  0  0  0
    0.1267   -1.3759   -4.6241 H   0  0  0  1  0  0  0  0  0  0  0  0
    1.6737   -0.5649   -4.6640 H   0  0  0  1  0  0  0  0  0  0  0  0
    0.2165    0.3122   -5.0658 H   0  0  0  1  0  0  0  0  0  0  0  0
   -1.4099    2.7237   -1.2830 C   0  0  0  1  0  0  0  0  0  0  0  0
   -2.7858    2.5752   -1.8754 C   0  0  0  1  0  0  0  0  0  0  0  0
   -3.0315    2.9977   -3.1682 C   0  0  0  1  0  0  0  0  0  0  0  0
   -4.2974    2.8558   -3.7150 C   0  0  0  1  0  0  0  0  0  0  0  0
   -5.3151    2.2967   -2.9654 C   0  0  0  1  0  0  0  0  0  0  0  0
   -5.0688    1.8729   -1.6688 C   0  0  0  1  0  0  0  0  0  0  0  0
   -3.8066    2.0145   -1.1237 C   0  0  0  1  0  0  0  0  0  0  0  0
   -6.6082    2.1569   -3.5214 N   0  0  0  1  0  0  0  0  0  0  0  0
   -0.9045    3.5034   -1.8135 H   0  0  0  1  0  0  0  0  0  0  0  0
   -1.5210    3.0042   -0.2564 H   0  0  0  1  0  0  0  0  0  0  0  0
   -2.2667    3.4221   -3.7308 H   0  0  0  1  0  0  0  0  0  0  0  0
   -4.4813    3.1701   -4.6892 H   0  0  0  1  0  0  0  0  0  0  0  0
   -5.8336    1.4485   -1.1062 H   0  0  0  1  0  0  0  0  0  0  0  0
   -3.6228    1.7002   -0.1496 H   0  0  0  1  0  0  0  0  0  0  0  0
   -7.3093    1.6903   -3.0202 H   0  0  0  1  0  0  0  0  0  0  0  0
   -6.8030    2.5266   -4.4078 H   0  0  0  1  0  0  0  0  0  0  0  0
  1  4  1  0  0  0  0
  2  4  1  0  0  0  0
  2  5  2  0  0  0  0
  2  6  1  0  0  0  0
  3  4  1  0  0  0  0
  3  7  1  0  0  0  0
  3  8  1  0  0  0  0
  4 19  1  0  0  0  0
  6  9  1  0  0  0  0
  6 12  1  0  0  0  0
  8 10  1  0  0  0  0
  8 11  2  0  0  0  0
  9 13  1  0  0  0  0
  9 14  1  0  0  0  0
  9 15  1  0  0  0  0
 10 16  1  0  0  0  0
 10 17  1  0  0  0  0
 10 18  1  0  0  0  0
 19 20  1  0  0  0  0
 19 27  1  0  0  0  0
 19 28  1  0  0  0  0
 20 21  4  0  0  0  0
 20 25  4  0  0  0  0
 21 22  4  0  0  0  0
 21 29  1  0  0  0  0
 22 23  4  0  0  0  0
 22 30  1  0  0  0  0
 23 24  4  0  0  0  0
 23 26  1  0  0  0  0
 24 25  4  0  0  0  0
 24 31  1  0  0  0  0
 25 32  1  0  0  0  0
 26 33  1  0  0  0  0
 26 34  1  0  0  0  0
M  END
> <BCLConfClusterSize>
1

> <ConfClashScore>
0 

> <ConfOneFourInteractionScore>
-0.960318 

> <ConfScore>
0.123998 

> <ConfScorePBest>
0.00609651 

> <ConfTolerance>
0.32784 

> <RosettaParamsInstructions>
M  ROOT 3
M  POLY_N_BB 3
M  POLY_CA_BB 4
M  POLY_C_BB 2
M  POLY_O_BB 5
M  POLY_IGNORE 9 10 11 12 13 14 15 16 17 18 
M  POLY_UPPER 6
M  POLY_LOWER 8
M  POLY_CHG 0
M  POLY_PROPERTIES ALPHA_AA D_AA PROTEIN AROMATIC POLYMER 
M  END

$$$$



 34 34  0  0  0  0  0  0  0  0999 V2000
   -1.7714    4.8758   -1.1927 H   0  0  0  1  0  0  0  0  0  0  0  0
    0.0626    4.4506   -0.2120 C   0  0  0  1  0  0  0  0  0  0  0  0
   -2.1748    4.0558    0.6749 N   0  0  0  1  0  0  0  0  0  0  0  0
   -1.3804    4.1219   -0.5419 C   0  0  0  1  0  0  0  0  0  0  0  0
    0.7381    3.7090    0.4824 O   0  0  0  1  0  0  0  0  0  0  0  0
    0.5330    5.5961   -0.7304 N   0  0  0  1  0  0  0  0  0  0  0  0
   -2.2759    3.1801    1.1031 H   0  0  0  1  0  0  0  0  0  0  0  0
   -2.7770    5.0991    1.2528 C   0  0  0  1  0  0  0  0  0  0  0  0
    1.9162    6.0156   -0.5614 C   0  0  0  1  0  0  0  0  0  0  0  0
   -3.7169    4.7672    2.3955 C   0  0  0  1  0  0  0  0  0  0  0  0
   -2.5947    6.2519    0.8975 O   0  0  0  1  0  0  0  0  0  0  0  0
   -0.0763    6.1697   -1.2405 H   0  0  0  1  0  0  0  0  0  0  0  0
    2.5552    5.1578   -0.5862 H   0  0  0  1  0  0  0  0  0  0  0  0
    2.0251    6.5141    0.3792 H   0  0  0  1  0  0  0  0  0  0  0  0
    2.1853    6.6835   -1.3528 H   0  0  0  1  0  0  0  0  0  0  0  0
   -4.4974    4.1266    2.0414 H   0  0  0  1  0  0  0  0  0  0  0  0
   -4.1437    5.6701    2.7797 H   0  0  0  1  0  0  0  0  0  0  0  0
   -3.1729    4.2708    3.1717 H   0  0  0  1  0  0  0  0  0  0  0  0
   -1.4305    2.7766   -1.2542 C   0  0  0  1  0  0  0  0  0  0  0  0
   -2.7837    2.5508   -1.8738 C   0  0  0  1  0  0  0  0  0  0  0  0
   -3.0308    3.0068   -3.1549 C   0  0  0  1  0  0  0  0  0  0  0  0
   -4.2970    2.8784   -3.7043 C   0  0  0  1  0  0  0  0  0  0  0  0
   -5.3137    2.2991   -2.9688 C   0  0  0  1  0  0  0  0  0  0  0  0
   -5.0660    1.8416   -1.6839 C   0  0  0  1  0  0  0  0  0  0  0  0
   -3.8035    1.9698   -1.1364 C   0  0  0  1  0  0  0  0  0  0  0  0
   -6.6071    2.1729   -3.5273 N   0  0  0  1  0  0  0  0  0  0  0  0
   -1.2340    1.9978   -0.5473 H   0  0  0  1  0  0  0  0  0  0  0  0
   -0.6856    2.7583   -2.0221 H   0  0  0  1  0  0  0  0  0  0  0  0
   -2.2667    3.4464   -3.7068 H   0  0  0  1  0  0  0  0  0  0  0  0
   -4.4819    3.2180   -4.6698 H   0  0  0  1  0  0  0  0  0  0  0  0
   -5.8301    1.4021   -1.1321 H   0  0  0  1  0  0  0  0  0  0  0  0
   -3.6187    1.6302   -0.1709 H   0  0  0  1  0  0  0  0  0  0  0  0
   -6.8147    2.6008   -4.3841 H   0  0  0  1  0  0  0  0  0  0  0  0
   -7.2956    1.6577   -3.0574 H   0  0  0  1  0  0  0  0  0  0  0  0
  1  4  1  0  0  0  0
  2  4  1  0  0  0  0
  2  5  2  0  0  0  0
  2  6  1  0  0  0  0
  3  4  1  0  0  0  0
  3  7  1  0  0  0  0
  3  8  1  0  0  0  0
  4 19  1  0  0  0  0
  6  9  1  0  0  0  0
  6 12  1  0  0  0  0
  8 10  1  0  0  0  0
  8 11  2  0  0  0  0
  9 13  1  0  0  0  0
  9 14  1  0  0  0  0
  9 15  1  0  0  0  0
 10 16  1  0  0  0  0
 10 17  1  0  0  0  0
 10 18  1  0  0  0  0
 19 20  1  0  0  0  0
 19 27  1  0  0  0  0
 19 28  1  0  0  0  0
 20 21  4  0  0  0  0
 20 25  4  0  0  0  0
 21 22  4  0  0  0  0
 21 29  1  0  0  0  0
 22 23  4  0  0  0  0
 22 30  1  0  0  0  0
 23 24  4  0  0  0  0
 23 26  1  0  0  0  0
 24 25  4  0  0  0  0
 24 31  1  0  0  0  0
 25 32  1  0  0  0  0
 26 33  1  0  0  0  0
 26 34  1  0  0  0  0
M  END
> <BCLConfClusterSize>
1

> <ConfClashScore>
0 

> <ConfOneFourInteractionScore>
-0.967579 

> <ConfScore>
0.125355 

> <ConfScorePBest>
0.00606803 

> <ConfTolerance>
0.318345 

> <RosettaParamsInstructions>
M  ROOT 3
M  POLY_N_BB 3
M  POLY_CA_BB 4
M  POLY_C_BB 2
M  POLY_O_BB 5
M  POLY_IGNORE 9 10 11 12 13 14 15 16 17 18 
M  POLY_UPPER 6
M  POLY_LOWER 8
M  POLY_CHG 0
M  POLY_PROPERTIES ALPHA_AA D_AA PROTEIN AROMATIC POLYMER 
M  END

$$$$



 34 34  0  0  0  0  0  0  0  0999 V2000
   -1.6995    4.7829   -0.9391 H   0  0  0  1  0  0  0  0  0  0  0  0
    0.0875    4.2410    0.0422 C   0  0  0  1  0  0  0  0  0  0  0  0
   -2.1722    3.7862    0.8043 N   0  0  0  1  0  0  0  0  0  0  0  0
   -1.3410    3.9475   -0.3747 C   0  0  0  1  0  0  0  0  0  0  0  0
    0.7466    5.1010   -0.5183 O   0  0  0  1  0  0  0  0  0  0  0  0
    0.5636    3.4991    1.0537 N   0  0  0  1  0  0  0  0  0  0  0  0
   -2.1790    2.9436    1.3047 H   0  0  0  1  0  0  0  0  0  0  0  0
   -2.9277    4.8192    1.1881 C   0  0  0  1  0  0  0  0  0  0  0  0
    1.8556    3.7620    1.6696 C   0  0  0  1  0  0  0  0  0  0  0  0
   -3.8492    4.5603    2.3641 C   0  0  0  1  0  0  0  0  0  0  0  0
   -2.8917    5.9175    0.6348 O   0  0  0  1  0  0  0  0  0  0  0  0
    0.0224    2.7542    1.3894 H   0  0  0  1  0  0  0  0  0  0  0  0
    2.6020    3.1486    1.2097 H   0  0  0  1  0  0  0  0  0  0  0  0
    1.8045    3.5380    2.7147 H   0  0  0  1  0  0  0  0  0  0  0  0
    2.1103    4.7928    1.5374 H   0  0  0  1  0  0  0  0  0  0  0  0
   -3.3786    3.8812    3.0439 H   0  0  0  1  0  0  0  0  0  0  0  0
   -4.7655    4.1344    2.0119 H   0  0  0  1  0  0  0  0  0  0  0  0
   -4.0539    5.4827    2.8662 H   0  0  0  1  0  0  0  0  0  0  0  0
   -1.4146    2.7140   -1.2697 C   0  0  0  1  0  0  0  0  0  0  0  0
   -2.7884    2.5699   -1.8680 C   0  0  0  1  0  0  0  0  0  0  0  0
   -3.0338    3.0170   -3.1526 C   0  0  0  1  0  0  0  0  0  0  0  0
   -4.2977    2.8791   -3.7050 C   0  0  0  1  0  0  0  0  0  0  0  0
   -5.3138    2.2994   -2.9691 C   0  0  0  1  0  0  0  0  0  0  0  0
   -5.0679    1.8510   -1.6807 C   0  0  0  1  0  0  0  0  0  0  0  0
   -3.8077    1.9885   -1.1301 C   0  0  0  1  0  0  0  0  0  0  0  0
   -6.6049    2.1636   -3.5306 N   0  0  0  1  0  0  0  0  0  0  0  0
   -1.1926    1.8443   -0.6873 H   0  0  0  1  0  0  0  0  0  0  0  0
   -0.6970    2.8090   -2.0577 H   0  0  0  1  0  0  0  0  0  0  0  0
   -2.2701    3.4568   -3.7049 H   0  0  0  1  0  0  0  0  0  0  0  0
   -4.4813    3.2119   -4.6731 H   0  0  0  1  0  0  0  0  0  0  0  0
   -5.8315    1.4111   -1.1284 H   0  0  0  1  0  0  0  0  0  0  0  0
   -3.6241    1.6557   -0.1620 H   0  0  0  1  0  0  0  0  0  0  0  0
   -6.7982    2.5445   -4.4127 H   0  0  0  1  0  0  0  0  0  0  0  0
   -7.3063    1.6887   -3.0377 H   0  0  0  1  0  0  0  0  0  0  0  0
  1  4  1  0  0  0  0
  2  4  1  0  0  0  0
  2  5  2  0  0  0  0
  2  6  1  0  0  0  0
  3  4  1  0  0  0  0
  3  7  1  0  0  0  0
  3  8  1  0  0  0  0
  4 19  1  0  0  0  0
  6  9  1  0  0  0  0
  6 12  1  0  0  0  0
  8 10  1  0  0  0  0
  8 11  2  0  0  0  0
  9 13  1  0  0  0  0
  9 14  1  0  0  0  0
  9 15  1  0  0  0  0
 10 16  1  0  0  0  0
 10 17  1  0  0  0  0
 10 18  1  0  0  0  0
 19 20  1  0  0  0  0
 19 27  1  0  0  0  0
 19 28  1  0  0  0  0
 20 21  4  0  0  0  0
 20 25  4  0  0  0  0
 21 22  4  0  0  0  0
 21 29  1  0  0  0  0
 22 23  4  0  0  0  0
 22 30  1  0  0  0  0
 23 24  4  0  0  0  0
 23 26  1  0  0  0  0
 24 25  4  0  0  0  0
 24 31  1  0  0  0  0
 25 32  1  0  0  0  0
 26 33  1  0  0  0  0
 26 34  1  0  0  0  0
M  END
> <BCLConfClusterSize>
1

> <ConfClashScore>
0 

> <ConfOneFourInteractionScore>
-0.952638 

> <ConfScore>
0.126003 

> <ConfScorePBest>
0.00603955 

> <ConfTolerance>
0.378782 

> <RosettaParamsInstructions>
M  ROOT 3
M  POLY_N_BB 3
M  POLY_CA_BB 4
M  POLY_C_BB 2
M  POLY_O_BB 5
M  POLY_IGNORE 9 10 11 12 13 14 15 16 17 18 
M  POLY_UPPER 6
M  POLY_LOWER 8
M  POLY_CHG 0
M  POLY_PROPERTIES ALPHA_AA D_AA PROTEIN AROMATIC POLYMER 
M  END

$$$$



 34 34  0  0  0  0  0  0  0  0999 V2000
   -0.3254    3.8502    0.1413 H   0  0  0  1  0  0  0  0  0  0  0  0
   -2.2411    3.5601    0.9551 C   0  0  0  1  0  0  0  0  0  0  0  0
   -1.6087    5.1218   -0.8442 N   0  0  0  1  0  0  0  0  0  0  0  0
   -1.3304    3.8342   -0.2258 C   0  0  0  1  0  0  0  0  0  0  0  0
   -3.4115    3.9386    0.9599 O   0  0  0  1  0  0  0  0  0  0  0  0
   -1.6869    2.8873    1.9746 N   0  0  0  1  0  0  0  0  0  0  0  0
   -1.8970    5.1444   -1.7805 H   0  0  0  1  0  0  0  0  0  0  0  0
   -1.4850    6.2743   -0.1797 C   0  0  0  1  0  0  0  0  0  0  0  0
   -2.3570    2.7271    3.2551 C   0  0  0  1  0  0  0  0  0  0  0  0
   -1.9018    7.5197   -0.9376 C   0  0  0  1  0  0  0  0  0  0  0  0
   -1.0655    6.3399    0.9641 O   0  0  0  1  0  0  0  0  0  0  0  0
   -0.7995    2.4899    1.8522 H   0  0  0  1  0  0  0  0  0  0  0  0
   -3.0840    3.5026    3.3773 H   0  0  0  1  0  0  0  0  0  0  0  0
   -1.6367    2.7862    4.0442 H   0  0  0  1  0  0  0  0  0  0  0  0
   -2.8434    1.7745    3.2861 H   0  0  0  1  0  0  0  0  0  0  0  0
   -2.9250    7.4297   -1.2373 H   0  0  0  1  0  0  0  0  0  0  0  0
   -1.2850    7.6324   -1.8046 H   0  0  0  1  0  0  0  0  0  0  0  0
   -1.7896    8.3758   -0.3056 H   0  0  0  1  0  0  0  0  0  0  0  0
   -1.4152    2.7160   -1.2689 C   0  0  0  1  0  0  0  0  0  0  0  0
   -2.7887    2.5710   -1.8676 C   0  0  0  1  0  0  0  0  0  0  0  0
   -3.0312    3.0077   -3.1563 C   0  0  0  1  0  0  0  0  0  0  0  0
   -4.2949    2.8690   -3.7090 C   0  0  0  1  0  0  0  0  0  0  0  0
   -5.3137    2.2988   -2.9693 C   0  0  0  1  0  0  0  0  0  0  0  0
   -5.0706    1.8608   -1.6768 C   0  0  0  1  0  0  0  0  0  0  0  0
   -3.8106    1.9991   -1.1259 C   0  0  0  1  0  0  0  0  0  0  0  0
   -6.6046    2.1623   -3.5312 N   0  0  0  1  0  0  0  0  0  0  0  0
   -1.1487    1.7919   -0.7999 H   0  0  0  1  0  0  0  0  0  0  0  0
   -0.7218    2.9304   -2.0552 H   0  0  0  1  0  0  0  0  0  0  0  0
   -2.2655    3.4404   -3.7114 H   0  0  0  1  0  0  0  0  0  0  0  0
   -4.4763    3.1940   -4.6801 H   0  0  0  1  0  0  0  0  0  0  0  0
   -5.8363    1.4281   -1.1217 H   0  0  0  1  0  0  0  0  0  0  0  0
   -3.6292    1.6742   -0.1548 H   0  0  0  1  0  0  0  0  0  0  0  0
   -6.7653    2.4295   -4.4602 H   0  0  0  1  0  0  0  0  0  0  0  0
   -7.3381    1.8004   -2.9915 H   0  0  0  1  0  0  0  0  0  0  0  0
  1  4  1  0  0  0  0
  2  4  1  0  0  0  0
  2  5  2  0  0  0  0
  2  6  1  0  0  0  0
  3  4  1  0  0  0  0
  3  7  1  0  0  0  0
  3  8  1  0  0  0  0
  4 19  1  0  0  0  0
  6  9  1  0  0  0  0
  6 12  1  0  0  0  0
  8 10  1  0  0  0  0
  8 11  2  0  0  0  0
  9 13  1  0  0  0  0
  9 14  1  0  0  0  0
  9 15  1  0  0  0  0
 10 16  1  0  0  0  0
 10 17  1  0  0  0  0
 10 18  1  0  0  0  0
 19 20  1  0  0  0  0
 19 27  1  0  0  0  0
 19 28  1  0  0  0  0
 20 21  4  0  0  0  0
 20 25  4  0  0  0  0
 21 22  4  0  0  0  0
 21 29  1  0  0  0  0
 22 23  4  0  0  0  0
 22 30  1  0  0  0  0
 23 24  4  0  0  0  0
 23 26  1  0  0  0  0
 24 25  4  0  0  0  0
 24 31  1  0  0  0  0
 25 32  1  0  0  0  0
 26 33  1  0  0  0  0
 26 34  1  0  0  0  0
M  END
> <BCLConfClusterSize>
1

> <ConfClashScore>
0 

> <ConfOneFourInteractionScore>
-0.976093 

> <ConfScore>
0.126083 

> <ConfScorePBest>
0.00601107 

> <ConfTolerance>
0.35863 

> <RosettaParamsInstructions>
M  ROOT 3
M  POLY_N_BB 3
M  POLY_CA_BB 4
M  POLY_C_BB 2
M  POLY_O_BB 5
M  POLY_IGNORE 9 10 11 12 13 14 15 16 17 18 
M  POLY_UPPER 6
M  POLY_LOWER 8
M  POLY_CHG 0
M  POLY_PROPERTIES ALPHA_AA D_AA PROTEIN AROMATIC POLYMER 
M  END

$$$$



 34 34  0  0  0  0  0  0  0  0999 V2000
    0.4706    1.7589   -1.0710 H   0  0  0  1  0  0  0  0  0  0  0  0
   -0.0869    1.7243   -3.1289 C   0  0  0  1  0  0  0  0  0  0  0  0
   -1.0272    0.2709   -1.2618 N   0  0  0  1  0  0  0  0  0  0  0  0
   -0.4259    1.6058   -1.6348 C   0  0  0  1  0  0  0  0  0  0  0  0
   -0.0113    2.8209   -3.6815 O   0  0  0  1  0  0  0  0  0  0  0  0
    0.1240    0.5234   -3.7975 N   0  0  0  1  0  0  0  0  0  0  0  0
   -1.9819    0.2261   -1.0454 H   0  0  0  1  0  0  0  0  0  0  0  0
   -0.2850   -0.8776   -1.2156 C   0  0  0  1  0  0  0  0  0  0  0  0
    0.2925    0.3896   -5.2368 C   0  0  0  1  0  0  0  0  0  0  0  0
   -1.0459   -2.1396   -0.8584 C   0  0  0  1  0  0  0  0  0  0  0  0
    0.9211   -0.9041   -1.4456 O   0  0  0  1  0  0  0  0  0  0  0  0
    0.1622   -0.2944   -3.2589 H   0  0  0  1  0  0  0  0  0  0  0  0
    1.0223    1.0937   -5.5780 H   0  0  0  1  0  0  0  0  0  0  0  0
   -0.6410    0.5795   -5.7240 H   0  0  0  1  0  0  0  0  0  0  0  0
    0.6199   -0.6028   -5.4666 H   0  0  0  1  0  0  0  0  0  0  0  0
   -1.8464   -2.2829   -1.5538 H   0  0  0  1  0  0  0  0  0  0  0  0
   -1.4448   -2.0476    0.1302 H   0  0  0  1  0  0  0  0  0  0  0  0
   -0.3835   -2.9789   -0.8996 H   0  0  0  1  0  0  0  0  0  0  0  0
   -1.4084    2.7175   -1.2848 C   0  0  0  1  0  0  0  0  0  0  0  0
   -2.7850    2.5718   -1.8763 C   0  0  0  1  0  0  0  0  0  0  0  0
   -3.0394    3.0262   -3.1566 C   0  0  0  1  0  0  0  0  0  0  0  0
   -4.3058    2.8870   -3.7028 C   0  0  0  1  0  0  0  0  0  0  0  0
   -5.3155    2.2984   -2.9649 C   0  0  0  1  0  0  0  0  0  0  0  0
   -5.0605    1.8426   -1.6809 C   0  0  0  1  0  0  0  0  0  0  0  0
   -3.7978    1.9816   -1.1365 C   0  0  0  1  0  0  0  0  0  0  0  0
   -6.6093    2.1612   -3.5201 N   0  0  0  1  0  0  0  0  0  0  0  0
   -0.9968    3.6427   -1.6305 H   0  0  0  1  0  0  0  0  0  0  0  0
   -1.5082    2.7466   -0.2199 H   0  0  0  1  0  0  0  0  0  0  0  0
   -2.2806    3.4727   -3.7102 H   0  0  0  1  0  0  0  0  0  0  0  0
   -4.4962    3.2253   -4.6676 H   0  0  0  1  0  0  0  0  0  0  0  0
   -5.8193    1.3962   -1.1273 H   0  0  0  1  0  0  0  0  0  0  0  0
   -3.6075    1.6432   -0.1717 H   0  0  0  1  0  0  0  0  0  0  0  0
   -7.3876    2.0687   -2.9319 H   0  0  0  1  0  0  0  0  0  0  0  0
   -6.7272    2.1588   -4.4930 H   0  0  0  1  0  0  0  0  0  0  0  0
  1  4  1  0  0  0  0
  2  4  1  0  0  0  0
  2  5  2  0  0  0  0
  2  6  1  0  0  0  0
  3  4  1  0  0  0  0
  3  7  1  0  0  0  0
  3  8  1  0  0  0  0
  4 19  1  0  0  0  0
  6  9  1  0  0  0  0
  6 12  1  0  0  0  0
  8 10  1  0  0  0  0
  8 11  2  0  0  0  0
  9 13  1  0  0  0  0
  9 14  1  0  0  0  0
  9 15  1  0  0  0  0
 10 16  1  0  0  0  0
 10 17  1  0  0  0  0
 10 18  1  0  0  0  0
 19 20  1  0  0  0  0
 19 27  1  0  0  0  0
 19 28  1  0  0  0  0
 20 21  4  0  0  0  0
 20 25  4  0  0  0  0
 21 22  4  0  0  0  0
 21 29  1  0  0  0  0
 22 23  4  0  0  0  0
 22 30  1  0  0  0  0
 23 24  4  0  0  0  0
 23 26  1  0  0  0  0
 24 25  4  0  0  0  0
 24 31  1  0  0  0  0
 25 32  1  0  0  0  0
 26 33  1  0  0  0  0
 26 34  1  0  0  0  0
M  END
> <BCLConfClusterSize>
1

> <ConfClashScore>
0.00289894 

> <ConfOneFourInteractionScore>
-0.950246 

> <ConfScore>
0.127427 

> <ConfScorePBest>
0.00598259 

> <ConfTolerance>
0.222154 

> <RosettaParamsInstructions>
M  ROOT 3
M  POLY_N_BB 3
M  POLY_CA_BB 4
M  POLY_C_BB 2
M  POLY_O_BB 5
M  POLY_IGNORE 9 10 11 12 13 14 15 16 17 18 
M  POLY_UPPER 6
M  POLY_LOWER 8
M  POLY_CHG 0
M  POLY_PROPERTIES ALPHA_AA D_AA PROTEIN AROMATIC POLYMER 
M  END

$$$$



 34 34  0  0  0  0  0  0  0  0999 V2000
   -1.2017    0.9482   -0.1176 H   0  0  0  1  0  0  0  0  0  0  0  0
    0.7353    1.7008   -0.5478 C   0  0  0  1  0  0  0  0  0  0  0  0
   -0.7214    0.4961   -2.0862 N   0  0  0  1  0  0  0  0  0  0  0  0
   -0.7051    1.4068   -0.9470 C   0  0  0  1  0  0  0  0  0  0  0  0
    1.6522    0.9634   -0.8720 O   0  0  0  1  0  0  0  0  0  0  0  0
    0.8755    2.8158    0.1708 N   0  0  0  1  0  0  0  0  0  0  0  0
   -1.4136   -0.1974   -2.1019 H   0  0  0  1  0  0  0  0  0  0  0  0
    0.1349    0.5360   -3.1081 C   0  0  0  1  0  0  0  0  0  0  0  0
    2.1244    3.2762    0.7592 C   0  0  0  1  0  0  0  0  0  0  0  0
   -0.1731   -0.3976   -4.2625 C   0  0  0  1  0  0  0  0  0  0  0  0
    1.1091    1.2701   -3.1302 O   0  0  0  1  0  0  0  0  0  0  0  0
    0.0775    3.3665    0.3131 H   0  0  0  1  0  0  0  0  0  0  0  0
    2.3268    4.2746    0.4318 H   0  0  0  1  0  0  0  0  0  0  0  0
    2.9217    2.6320    0.4525 H   0  0  0  1  0  0  0  0  0  0  0  0
    2.0428    3.2606    1.8260 H   0  0  0  1  0  0  0  0  0  0  0  0
   -0.8161    0.0971   -4.9602 H   0  0  0  1  0  0  0  0  0  0  0  0
   -0.6588   -1.2757   -3.8910 H   0  0  0  1  0  0  0  0  0  0  0  0
    0.7381   -0.6732   -4.7510 H   0  0  0  1  0  0  0  0  0  0  0  0
   -1.4139    2.7118   -1.2709 C   0  0  0  1  0  0  0  0  0  0  0  0
   -2.7880    2.5687   -1.8686 C   0  0  0  1  0  0  0  0  0  0  0  0
   -3.0369    3.0277   -3.1483 C   0  0  0  1  0  0  0  0  0  0  0  0
   -4.3011    2.8908   -3.7003 C   0  0  0  1  0  0  0  0  0  0  0  0
   -5.3140    2.3000   -2.9687 C   0  0  0  1  0  0  0  0  0  0  0  0
   -5.0645    1.8396   -1.6853 C   0  0  0  1  0  0  0  0  0  0  0  0
   -3.8041    1.9762   -1.1352 C   0  0  0  1  0  0  0  0  0  0  0  0
   -6.6055    2.1652   -3.5298 N   0  0  0  1  0  0  0  0  0  0  0  0
   -0.8066    3.2537   -1.9654 H   0  0  0  1  0  0  0  0  0  0  0  0
   -1.5052    3.2718   -0.3637 H   0  0  0  1  0  0  0  0  0  0  0  0
   -2.2756    3.4759   -3.6972 H   0  0  0  1  0  0  0  0  0  0  0  0
   -4.4873    3.2326   -4.6647 H   0  0  0  1  0  0  0  0  0  0  0  0
   -5.8258    1.3914   -1.1364 H   0  0  0  1  0  0  0  0  0  0  0  0
   -3.6179    1.6343   -0.1708 H   0  0  0  1  0  0  0  0  0  0  0  0
   -6.8451    2.6701   -4.3348 H   0  0  0  1  0  0  0  0  0  0  0  0
   -7.2605    1.5668   -3.1136 H   0  0  0  1  0  0  0  0  0  0  0  0
  1  4  1  0  0  0  0
  2  4  1  0  0  0  0
  2  5  2  0  0  0  0
  2  6  1  0  0  0  0
  3  4  1  0  0  0  0
  3  7  1  0  0  0  0
  3  8  1  0  0  0  0
  4 19  1  0  0  0  0
  6  9  1  0  0  0  0
  6 12  1  0  0  0  0
  8 10  1  0  0  0  0
  8 11  2  0  0  0  0
  9 13  1  0  0  0  0
  9 14  1  0  0  0  0
  9 15  1  0  0  0  0
 10 16  1  0  0  0  0
 10 17  1  0  0  0  0
 10 18  1  0  0  0  0
 19 20  1  0  0  0  0
 19 27  1  0  0  0  0
 19 28  1  0  0  0  0
 20 21  4  0  0  0  0
 20 25  4  0  0  0  0
 21 22  4  0  0  0  0
 21 29  1  0  0  0  0
 22 23  4  0  0  0  0
 22 30  1  0  0  0  0
 23 24  4  0  0  0  0
 23 26  1  0  0  0  0
 24 25  4  0  0  0  0
 24 31  1  0  0  0  0
 25 32  1  0  0  0  0
 26 33  1  0  0  0  0
 26 34  1  0  0  0  0
M  END
> <BCLConfClusterSize>
1

> <ConfClashScore>
0 

> <ConfOneFourInteractionScore>
-0.935823 

> <ConfScore>
0.129645 

> <ConfScorePBest>
0.00595411 

> <ConfTolerance>
0.368403 

> <RosettaParamsInstructions>
M  ROOT 3
M  POLY_N_BB 3
M  POLY_CA_BB 4
M  POLY_C_BB 2
M  POLY_O_BB 5
M  POLY_IGNORE 9 10 11 12 13 14 15 16 17 18 
M  POLY_UPPER 6
M  POLY_LOWER 8
M  POLY_CHG 0
M  POLY_PROPERTIES ALPHA_AA D_AA PROTEIN AROMATIC POLYMER 
M  END

$$$$



 34 34  0  0  0  0  0  0  0  0999 V2000
    0.2733    1.6036   -0.6905 H   0  0  0  1  0  0  0  0  0  0  0  0
    0.1171    1.4391   -2.7796 C   0  0  0  1  0  0  0  0  0  0  0  0
   -1.2536    0.2788   -1.0870 N   0  0  0  1  0  0  0  0  0  0  0  0
   -0.5174    1.4976   -1.4036 C   0  0  0  1  0  0  0  0  0  0  0  0
    0.9182    2.2937   -3.1488 O   0  0  0  1  0  0  0  0  0  0  0  0
   -0.2544    0.4042   -3.5497 N   0  0  0  1  0  0  0  0  0  0  0  0
   -2.2128    0.3417   -0.8966 H   0  0  0  1  0  0  0  0  0  0  0  0
   -0.6656   -0.9202   -1.0476 C   0  0  0  1  0  0  0  0  0  0  0  0
    0.2863    0.1949   -4.8844 C   0  0  0  1  0  0  0  0  0  0  0  0
   -1.5497   -2.1502   -0.8745 C   0  0  0  1  0  0  0  0  0  0  0  0
    0.5488   -1.0926   -1.1428 O   0  0  0  1  0  0  0  0  0  0  0  0
   -0.9126   -0.2326   -3.2008 H   0  0  0  1  0  0  0  0  0  0  0  0
   -0.3801    0.6134   -5.6095 H   0  0  0  1  0  0  0  0  0  0  0  0
    0.3954   -0.8542   -5.0643 H   0  0  0  1  0  0  0  0  0  0  0  0
    1.2412    0.6716   -4.9609 H   0  0  0  1  0  0  0  0  0  0  0  0
   -1.7717   -2.2873    0.1632 H   0  0  0  1  0  0  0  0  0  0  0  0
   -1.0372   -3.0128   -1.2463 H   0  0  0  1  0  0  0  0  0  0  0  0
   -2.4607   -2.0138   -1.4188 H   0  0  0  1  0  0  0  0  0  0  0  0
   -1.4239    2.7131   -1.2602 C   0  0  0  1  0  0  0  0  0  0  0  0
   -2.7897    2.5747   -1.8744 C   0  0  0  1  0  0  0  0  0  0  0  0
   -3.0117    3.0003   -3.1705 C   0  0  0  1  0  0  0  0  0  0  0  0
   -4.2695    2.8676   -3.7380 C   0  0  0  1  0  0  0  0  0  0  0  0
   -5.3030    2.3146   -3.0056 C   0  0  0  1  0  0  0  0  0  0  0  0
   -5.0805    1.8877   -1.7057 C   0  0  0  1  0  0  0  0  0  0  0  0
   -3.8264    2.0201   -1.1401 C   0  0  0  1  0  0  0  0  0  0  0  0
   -6.6112    2.1398   -3.4812 N   0  0  0  1  0  0  0  0  0  0  0  0
   -0.9362    3.5450   -1.7239 H   0  0  0  1  0  0  0  0  0  0  0  0
   -1.5499    2.9096   -0.2160 H   0  0  0  1  0  0  0  0  0  0  0  0
   -2.2350    3.4201   -3.7202 H   0  0  0  1  0  0  0  0  0  0  0  0
   -4.4355    3.1841   -4.7146 H   0  0  0  1  0  0  0  0  0  0  0  0
   -5.8572    1.4679   -1.1560 H   0  0  0  1  0  0  0  0  0  0  0  0
   -3.6605    1.7035   -0.1635 H   0  0  0  1  0  0  0  0  0  0  0  0
   -7.2598    1.6278   -2.9544 H   0  0  0  1  0  0  0  0  0  0  0  0
   -6.8764    2.5298   -4.3402 H   0  0  0  1  0  0  0  0  0  0  0  0
  1  4  1  0  0  0  0
  2  4  1  0  0  0  0
  2  5  2  0  0  0  0
  2  6  1  0  0  0  0
  3  4  1  0  0  0  0
  3  7  1  0  0  0  0
  3  8  1  0  0  0  0
  4 19  1  0  0  0  0
  6  9  1  0  0  0  0
  6 12  1  0  0  0  0
  8 10  1  0  0  0  0
  8 11  2  0  0  0  0
  9 13  1  0  0  0  0
  9 14  1  0  0  0  0
  9 15  1  0  0  0  0
 10 16  1  0  0  0  0
 10 17  1  0  0  0  0
 10 18  1  0  0  0  0
 19 20  1  0  0  0  0
 19 27  1  0  0  0  0
 19 28  1  0  0  0  0
 20 21  4  0  0  0  0
 20 25  4  0  0  0  0
 21 22  4  0  0  0  0
 21 29  1  0  0  0  0
 22 23  4  0  0  0  0
 22 30  1  0  0  0  0
 23 24  4  0  0  0  0
 23 26  1  0  0  0  0
 24 25  4  0  0  0  0
 24 31  1  0  0  0  0
 25 32  1  0  0  0  0
 26 33  1  0  0  0  0
 26 34  1  0  0  0  0
M  END
> <BCLConfClusterSize>
1

> <ConfClashScore>
0 

> <ConfOneFourInteractionScore>
-0.931937 

> <ConfScore>
0.130367 

> <ConfScorePBest>
0.00592562 

> <ConfTolerance>
0.340122 

> <RosettaParamsInstructions>
M  ROOT 3
M  POLY_N_BB 3
M  POLY_CA_BB 4
M  POLY_C_BB 2
M  POLY_O_BB 5
M  POLY_IGNORE 9 10 11 12 13 14 15 16 17 18 
M  POLY_UPPER 6
M  POLY_LOWER 8
M  POLY_CHG 0
M  POLY_PROPERTIES ALPHA_AA D_AA PROTEIN AROMATIC POLYMER 
M  END

$$$$



 34 34  0  0  0  0  0  0  0  0999 V2000
   -1.0666    0.6752   -0.8182 H   0  0  0  1  0  0  0  0  0  0  0  0
    0.8108    1.5970   -0.6579 C   0  0  0  1  0  0  0  0  0  0  0  0
   -0.4001    1.0446   -2.7356 N   0  0  0  1  0  0  0  0  0  0  0  0
   -0.5499    1.4612   -1.3283 C   0  0  0  1  0  0  0  0  0  0  0  0
    1.6460    0.7090   -0.7334 O   0  0  0  1  0  0  0  0  0  0  0  0
    1.0205    2.7428    0.0093 N   0  0  0  1  0  0  0  0  0  0  0  0
   -0.8304    1.5981   -3.4202 H   0  0  0  1  0  0  0  0  0  0  0  0
    0.3037   -0.0712   -3.1624 C   0  0  0  1  0  0  0  0  0  0  0  0
    2.3337    3.0356    0.5640 C   0  0  0  1  0  0  0  0  0  0  0  0
    0.3459   -0.3907   -4.6304 C   0  0  0  1  0  0  0  0  0  0  0  0
    0.8667   -0.7582   -2.3297 O   0  0  0  1  0  0  0  0  0  0  0  0
    0.2877    3.3835    0.1231 H   0  0  0  1  0  0  0  0  0  0  0  0
    2.8326    2.1199    0.8034 H   0  0  0  1  0  0  0  0  0  0  0  0
    2.2228    3.6236    1.4511 H   0  0  0  1  0  0  0  0  0  0  0  0
    2.9111    3.5788   -0.1547 H   0  0  0  1  0  0  0  0  0  0  0  0
   -0.2896    0.2866   -5.1617 H   0  0  0  1  0  0  0  0  0  0  0  0
    0.0077   -1.3937   -4.7868 H   0  0  0  1  0  0  0  0  0  0  0  0
    1.3496   -0.2923   -4.9879 H   0  0  0  1  0  0  0  0  0  0  0  0
   -1.4313    2.6955   -1.2294 C   0  0  0  1  0  0  0  0  0  0  0  0
   -2.7853    2.5750   -1.8761 C   0  0  0  1  0  0  0  0  0  0  0  0
   -3.0324    3.0125   -3.1637 C   0  0  0  1  0  0  0  0  0  0  0  0
   -4.2974    2.8722   -3.7128 C   0  0  0  1  0  0  0  0  0  0  0  0
   -5.3131    2.2996   -2.9706 C   0  0  0  1  0  0  0  0  0  0  0  0
   -5.0655    1.8608   -1.6792 C   0  0  0  1  0  0  0  0  0  0  0  0
   -3.8041    2.0008   -1.1320 C   0  0  0  1  0  0  0  0  0  0  0  0
   -6.6054    2.1614   -3.5288 N   0  0  0  1  0  0  0  0  0  0  0  0
   -0.9143    3.5084   -1.6950 H   0  0  0  1  0  0  0  0  0  0  0  0
   -1.5791    2.9134   -0.1923 H   0  0  0  1  0  0  0  0  0  0  0  0
   -2.2691    3.4470   -3.7207 H   0  0  0  1  0  0  0  0  0  0  0  0
   -4.4823    3.1978   -4.6831 H   0  0  0  1  0  0  0  0  0  0  0  0
   -5.8287    1.4263   -1.1222 H   0  0  0  1  0  0  0  0  0  0  0  0
   -3.6193    1.6752   -0.1617 H   0  0  0  1  0  0  0  0  0  0  0  0
   -6.7749    2.4506   -4.4497 H   0  0  0  1  0  0  0  0  0  0  0  0
   -7.3313    1.7765   -2.9946 H   0  0  0  1  0  0  0  0  0  0  0  0
  1  4  1  0  0  0  0
  2  4  1  0  0  0  0
  2  5  2  0  0  0  0
  2  6  1  0  0  0  0
  3  4  1  0  0  0  0
  3  7  1  0  0  0  0
  3  8  1  0  0  0  0
  4 19  1  0  0  0  0
  6  9  1  0  0  0  0
  6 12  1  0  0  0  0
  8 10  1  0  0  0  0
  8 11  2  0  0  0  0
  9 13  1  0  0  0  0
  9 14  1  0  0  0  0
  9 15  1  0  0  0  0
 10 16  1  0  0  0  0
 10 17  1  0  0  0  0
 10 18  1  0  0  0  0
 19 20  1  0  0  0  0
 19 27  1  0  0  0  0
 19 28  1  0  0  0  0
 20 21  4  0  0  0  0
 20 25  4  0  0  0  0
 21 22  4  0  0  0  0
 21 29  1  0  0  0  0
 22 23  4  0  0  0  0
 22 30  1  0  0  0  0
 23 24  4  0  0  0  0
 23 26  1  0  0  0  0
 24 25  4  0  0  0  0
 24 31  1  0  0  0  0
 25 32  1  0  0  0  0
 26 33  1  0  0  0  0
 26 34  1  0  0  0  0
M  END
> <BCLConfClusterSize>
1

> <ConfClashScore>
0 

> <ConfOneFourInteractionScore>
-0.952541 

> <ConfScore>
0.131095 

> <ConfScorePBest>
0.00589714 

> <ConfTolerance>
0.336909 

> <RosettaParamsInstructions>
M  ROOT 3
M  POLY_N_BB 3
M  POLY_CA_BB 4
M  POLY_C_BB 2
M  POLY_O_BB 5
M  POLY_IGNORE 9 10 11 12 13 14 15 16 17 18 
M  POLY_UPPER 6
M  POLY_LOWER 8
M  POLY_CHG 0
M  POLY_PROPERTIES ALPHA_AA D_AA PROTEIN AROMATIC POLYMER 
M  END

$$$$



 34 34  0  0  0  0  0  0  0  0999 V2000
   -0.3406    1.5492   -2.6696 H   0  0  0  1  0  0  0  0  0  0  0  0
   -1.1303    0.2255   -1.2412 C   0  0  0  1  0  0  0  0  0  0  0  0
    0.8023    1.7312   -0.9688 N   0  0  0  1  0  0  0  0  0  0  0  0
   -0.4910    1.5505   -1.6102 C   0  0  0  1  0  0  0  0  0  0  0  0
   -0.7829   -0.3899   -0.2467 O   0  0  0  1  0  0  0  0  0  0  0  0
   -2.0877   -0.2115   -2.0734 N   0  0  0  1  0  0  0  0  0  0  0  0
    0.9313    2.5386   -0.4286 H   0  0  0  1  0  0  0  0  0  0  0  0
    1.8361    0.8722   -1.0617 C   0  0  0  1  0  0  0  0  0  0  0  0
   -2.8414   -1.4303   -1.8196 C   0  0  0  1  0  0  0  0  0  0  0  0
    2.9857    1.1989   -0.1285 C   0  0  0  1  0  0  0  0  0  0  0  0
    1.8765   -0.0954   -1.8206 O   0  0  0  1  0  0  0  0  0  0  0  0
   -2.2863    0.3080   -2.8803 H   0  0  0  1  0  0  0  0  0  0  0  0
   -3.2067   -1.8237   -2.7452 H   0  0  0  1  0  0  0  0  0  0  0  0
   -3.6669   -1.2111   -1.1750 H   0  0  0  1  0  0  0  0  0  0  0  0
   -2.2049   -2.1521   -1.3520 H   0  0  0  1  0  0  0  0  0  0  0  0
    3.8637    0.6769   -0.4471 H   0  0  0  1  0  0  0  0  0  0  0  0
    2.7334    0.8977    0.8667 H   0  0  0  1  0  0  0  0  0  0  0  0
    3.1711    2.2525   -0.1467 H   0  0  0  1  0  0  0  0  0  0  0  0
   -1.4092    2.7211   -1.2840 C   0  0  0  1  0  0  0  0  0  0  0  0
   -2.7854    2.5738   -1.8759 C   0  0  0  1  0  0  0  0  0  0  0  0
   -3.0349    3.0101   -3.1634 C   0  0  0  1  0  0  0  0  0  0  0  0
   -4.3011    2.8693   -3.7099 C   0  0  0  1  0  0  0  0  0  0  0  0
   -5.3153    2.2974   -2.9651 C   0  0  0  1  0  0  0  0  0  0  0  0
   -5.0652    1.8598   -1.6739 C   0  0  0  1  0  0  0  0  0  0  0  0
   -3.8027    2.0002   -1.1292 C   0  0  0  1  0  0  0  0  0  0  0  0
   -6.6087    2.1587   -3.5207 N   0  0  0  1  0  0  0  0  0  0  0  0
   -0.9678    3.6173   -1.6672 H   0  0  0  1  0  0  0  0  0  0  0  0
   -1.5020    2.7950   -0.2206 H   0  0  0  1  0  0  0  0  0  0  0  0
   -2.2727    3.4440   -3.7222 H   0  0  0  1  0  0  0  0  0  0  0  0
   -4.4878    3.1940   -4.6801 H   0  0  0  1  0  0  0  0  0  0  0  0
   -5.8274    1.4259   -1.1150 H   0  0  0  1  0  0  0  0  0  0  0  0
   -3.6160    1.6756   -0.1590 H   0  0  0  1  0  0  0  0  0  0  0  0
   -7.3508    1.8457   -2.9624 H   0  0  0  1  0  0  0  0  0  0  0  0
   -6.7627    2.3756   -4.4639 H   0  0  0  1  0  0  0  0  0  0  0  0
  1  4  1  0  0  0  0
  2  4  1  0  0  0  0
  2  5  2  0  0  0  0
  2  6  1  0  0  0  0
  3  4  1  0  0  0  0
  3  7  1  0  0  0  0
  3  8  1  0  0  0  0
  4 19  1  0  0  0  0
  6  9  1  0  0  0  0
  6 12  1  0  0  0  0
  8 10  1  0  0  0  0
  8 11  2  0  0  0  0
  9 13  1  0  0  0  0
  9 14  1  0  0  0  0
  9 15  1  0  0  0  0
 10 16  1  0  0  0  0
 10 17  1  0  0  0  0
 10 18  1  0  0  0  0
 19 20  1  0  0  0  0
 19 27  1  0  0  0  0
 19 28  1  0  0  0  0
 20 21  4  0  0  0  0
 20 25  4  0  0  0  0
 21 22  4  0  0  0  0
 21 29  1  0  0  0  0
 22 23  4  0  0  0  0
 22 30  1  0  0  0  0
 23 24  4  0  0  0  0
 23 26  1  0  0  0  0
 24 25  4  0  0  0  0
 24 31  1  0  0  0  0
 25 32  1  0  0  0  0
 26 33  1  0  0  0  0
 26 34  1  0  0  0  0
M  END
> <BCLConfClusterSize>
1

> <ConfClashScore>
0 

> <ConfOneFourInteractionScore>
-0.985807 

> <ConfScore>
0.136253 

> <ConfScorePBest>
0.00586866 

> <ConfTolerance>
0.39102 

> <RosettaParamsInstructions>
M  ROOT 3
M  POLY_N_BB 3
M  POLY_CA_BB 4
M  POLY_C_BB 2
M  POLY_O_BB 5
M  POLY_IGNORE 9 10 11 12 13 14 15 16 17 18 
M  POLY_UPPER 6
M  POLY_LOWER 8
M  POLY_CHG 0
M  POLY_PROPERTIES ALPHA_AA D_AA PROTEIN AROMATIC POLYMER 
M  END

$$$$



 34 34  0  0  0  0  0  0  0  0999 V2000
    0.6174    2.2239   -1.5577 H   0  0  0  1  0  0  0  0  0  0  0  0
   -0.0082    3.1634   -3.3357 C   0  0  0  1  0  0  0  0  0  0  0  0
   -0.5627    0.8720   -2.5898 N   0  0  0  1  0  0  0  0  0  0  0  0
   -0.2671    2.2419   -2.1597 C   0  0  0  1  0  0  0  0  0  0  0  0
    0.5285    4.2597   -3.1818 O   0  0  0  1  0  0  0  0  0  0  0  0
   -0.4006    2.7035   -4.5344 N   0  0  0  1  0  0  0  0  0  0  0  0
   -1.3555    0.4235   -2.2284 H   0  0  0  1  0  0  0  0  0  0  0  0
    0.2188    0.2072   -3.4660 C   0  0  0  1  0  0  0  0  0  0  0  0
   -0.1583    3.3087   -5.8355 C   0  0  0  1  0  0  0  0  0  0  0  0
   -0.1825   -1.1985   -3.8519 C   0  0  0  1  0  0  0  0  0  0  0  0
    1.2287    0.7272   -3.9384 O   0  0  0  1  0  0  0  0  0  0  0  0
   -0.9077    1.8649   -4.5330 H   0  0  0  1  0  0  0  0  0  0  0  0
   -0.3592    2.5931   -6.6052 H   0  0  0  1  0  0  0  0  0  0  0  0
    0.8627    3.6224   -5.8981 H   0  0  0  1  0  0  0  0  0  0  0  0
   -0.8004    4.1555   -5.9598 H   0  0  0  1  0  0  0  0  0  0  0  0
   -0.7751   -1.6278   -3.0712 H   0  0  0  1  0  0  0  0  0  0  0  0
    0.6955   -1.7918   -4.0002 H   0  0  0  1  0  0  0  0  0  0  0  0
   -0.7520   -1.1707   -4.7573 H   0  0  0  1  0  0  0  0  0  0  0  0
   -1.4103    2.7250   -1.2823 C   0  0  0  1  0  0  0  0  0  0  0  0
   -2.7860    2.5759   -1.8750 C   0  0  0  1  0  0  0  0  0  0  0  0
   -3.0298    2.9912   -3.1706 C   0  0  0  1  0  0  0  0  0  0  0  0
   -4.2955    2.8488   -3.7176 C   0  0  0  1  0  0  0  0  0  0  0  0
   -5.3150    2.2963   -2.9656 C   0  0  0  1  0  0  0  0  0  0  0  0
   -5.0707    1.8798   -1.6662 C   0  0  0  1  0  0  0  0  0  0  0  0
   -3.8087    2.0219   -1.1209 C   0  0  0  1  0  0  0  0  0  0  0  0
   -6.6079    2.1559   -3.5219 N   0  0  0  1  0  0  0  0  0  0  0  0
   -1.2512    3.7625   -1.0744 H   0  0  0  1  0  0  0  0  0  0  0  0
   -1.3827    2.1692   -0.3684 H   0  0  0  1  0  0  0  0  0  0  0  0
   -2.2635    3.4106   -3.7350 H   0  0  0  1  0  0  0  0  0  0  0  0
   -4.4779    3.1575   -4.6939 H   0  0  0  1  0  0  0  0  0  0  0  0
   -5.8369    1.4604   -1.1018 H   0  0  0  1  0  0  0  0  0  0  0  0
   -3.6263    1.7131   -0.1447 H   0  0  0  1  0  0  0  0  0  0  0  0
   -7.2829    1.6140   -3.0623 H   0  0  0  1  0  0  0  0  0  0  0  0
   -6.8287    2.6006   -4.3668 H   0  0  0  1  0  0  0  0  0  0  0  0
  1  4  1  0  0  0  0
  2  4  1  0  0  0  0
  2  5  2  0  0  0  0
  2  6  1  0  0  0  0
  3  4  1  0  0  0  0
  3  7  1  0  0  0  0
  3  8  1  0  0  0  0
  4 19  1  0  0  0  0
  6  9  1  0  0  0  0
  6 12  1  0  0  0  0
  8 10  1  0  0  0  0
  8 11  2  0  0  0  0
  9 13  1  0  0  0  0
  9 14  1  0  0  0  0
  9 15  1  0  0  0  0
 10 16  1  0  0  0  0
 10 17  1  0  0  0  0
 10 18  1  0  0  0  0
 19 20  1  0  0  0  0
 19 27  1  0  0  0  0
 19 28  1  0  0  0  0
 20 21  4  0  0  0  0
 20 25  4  0  0  0  0
 21 22  4  0  0  0  0
 21 29  1  0  0  0  0
 22 23  4  0  0  0  0
 22 30  1  0  0  0  0
 23 24  4  0  0  0  0
 23 26  1  0  0  0  0
 24 25  4  0  0  0  0
 24 31  1  0  0  0  0
 25 32  1  0  0  0  0
 26 33  1  0  0  0  0
 26 34  1  0  0  0  0
M  END
> <BCLConfClusterSize>
1

> <ConfClashScore>
0.000382538 

> <ConfOneFourInteractionScore>
-0.931937 

> <ConfScore>
0.13852 

> <ConfScorePBest>
0.00584018 

> <ConfTolerance>
0.373434 

> <RosettaParamsInstructions>
M  ROOT 3
M  POLY_N_BB 3
M  POLY_CA_BB 4
M  POLY_C_BB 2
M  POLY_O_BB 5
M  POLY_IGNORE 9 10 11 12 13 14 15 16 17 18 
M  POLY_UPPER 6
M  POLY_LOWER 8
M  POLY_CHG 0
M  POLY_PROPERTIES ALPHA_AA D_AA PROTEIN AROMATIC POLYMER 
M  END

$$$$



 34 34  0  0  0  0  0  0  0  0999 V2000
   -0.6950    0.7624   -1.4521 H   0  0  0  1  0  0  0  0  0  0  0  0
    0.9132    1.9995   -0.9172 C   0  0  0  1  0  0  0  0  0  0  0  0
   -0.1511    1.7686   -3.1606 N   0  0  0  1  0  0  0  0  0  0  0  0
   -0.3508    1.7405   -1.7160 C   0  0  0  1  0  0  0  0  0  0  0  0
    0.8895    2.0677    0.3089 O   0  0  0  1  0  0  0  0  0  0  0  0
    2.0299    2.1448   -1.6310 N   0  0  0  1  0  0  0  0  0  0  0  0
   -0.3631    0.9544   -3.6632 H   0  0  0  1  0  0  0  0  0  0  0  0
    0.2990    2.8207   -3.8502 C   0  0  0  1  0  0  0  0  0  0  0  0
    3.2928    2.5418   -1.0265 C   0  0  0  1  0  0  0  0  0  0  0  0
    0.4911    2.5998   -5.3380 C   0  0  0  1  0  0  0  0  0  0  0  0
    0.5451    3.8979   -3.3331 O   0  0  0  1  0  0  0  0  0  0  0  0
    1.9992    1.9785   -2.5963 H   0  0  0  1  0  0  0  0  0  0  0  0
    3.8516    3.1325   -1.7220 H   0  0  0  1  0  0  0  0  0  0  0  0
    3.8546    1.6685   -0.7686 H   0  0  0  1  0  0  0  0  0  0  0  0
    3.1007    3.1163   -0.1445 H   0  0  0  1  0  0  0  0  0  0  0  0
    0.7986    1.5898   -5.5124 H   0  0  0  1  0  0  0  0  0  0  0  0
    1.2416    3.2690   -5.7037 H   0  0  0  1  0  0  0  0  0  0  0  0
   -0.4313    2.7846   -5.8478 H   0  0  0  1  0  0  0  0  0  0  0  0
   -1.4146    2.7164   -1.2710 C   0  0  0  1  0  0  0  0  0  0  0  0
   -2.7862    2.5741   -1.8747 C   0  0  0  1  0  0  0  0  0  0  0  0
   -3.0221    3.0078   -3.1657 C   0  0  0  1  0  0  0  0  0  0  0  0
   -4.2841    2.8716   -3.7230 C   0  0  0  1  0  0  0  0  0  0  0  0
   -5.3077    2.3069   -2.9856 C   0  0  0  1  0  0  0  0  0  0  0  0
   -5.0712    1.8720   -1.6909 C   0  0  0  1  0  0  0  0  0  0  0  0
   -3.8130    2.0078   -1.1354 C   0  0  0  1  0  0  0  0  0  0  0  0
   -6.6150    2.1485   -3.5019 N   0  0  0  1  0  0  0  0  0  0  0  0
   -1.0634    3.7003   -1.5024 H   0  0  0  1  0  0  0  0  0  0  0  0
   -1.5192    2.6146   -0.2110 H   0  0  0  1  0  0  0  0  0  0  0  0
   -2.2528    3.4363   -3.7190 H   0  0  0  1  0  0  0  0  0  0  0  0
   -4.4606    3.1942   -4.6958 H   0  0  0  1  0  0  0  0  0  0  0  0
   -5.8405    1.4434   -1.1376 H   0  0  0  1  0  0  0  0  0  0  0  0
   -3.6365    1.6851   -0.1626 H   0  0  0  1  0  0  0  0  0  0  0  0
   -7.3194    1.7606   -2.9416 H   0  0  0  1  0  0  0  0  0  0  0  0
   -6.8165    2.4265   -4.4197 H   0  0  0  1  0  0  0  0  0  0  0  0
  1  4  1  0  0  0  0
  2  4  1  0  0  0  0
  2  5  2  0  0  0  0
  2  6  1  0  0  0  0
  3  4  1  0  0  0  0
  3  7  1  0  0  0  0
  3  8  1  0  0  0  0
  4 19  1  0  0  0  0
  6  9  1  0  0  0  0
  6 12  1  0  0  0  0
  8 10  1  0  0  0  0
  8 11  2  0  0  0  0
  9 13  1  0  0  0  0
  9 14  1  0  0  0  0
  9 15  1  0  0  0  0
 10 16  1  0  0  0  0
 10 17  1  0  0  0  0
 10 18  1  0  0  0  0
 19 20  1  0  0  0  0
 19 27  1  0  0  0  0
 19 28  1  0  0  0  0
 20 21  4  0  0  0  0
 20 25  4  0  0  0  0
 21 22  4  0  0  0  0
 21 29  1  0  0  0  0
 22 23  4  0  0  0  0
 22 30  1  0  0  0  0
 23 24  4  0  0  0  0
 23 26  1  0  0  0  0
 24 25  4  0  0  0  0
 24 31  1  0  0  0  0
 25 32  1  0  0  0  0
 26 33  1  0  0  0  0
 26 34  1  0  0  0  0
M  END
> <BCLConfClusterSize>
1

> <ConfClashScore>
0 

> <ConfOneFourInteractionScore>
-0.938662 

> <ConfScore>
0.139306 

> <ConfScorePBest>
0.0058117 

> <ConfTolerance>
0.272385 

> <RosettaParamsInstructions>
M  ROOT 3
M  POLY_N_BB 3
M  POLY_CA_BB 4
M  POLY_C_BB 2
M  POLY_O_BB 5
M  POLY_IGNORE 9 10 11 12 13 14 15 16 17 18 
M  POLY_UPPER 6
M  POLY_LOWER 8
M  POLY_CHG 0
M  POLY_PROPERTIES ALPHA_AA D_AA PROTEIN AROMATIC POLYMER 
M  END

$$$$



 34 34  0  0  0  0  0  0  0  0999 V2000
   -1.7361    4.5733   -0.3243 H   0  0  0  1  0  0  0  0  0  0  0  0
    0.0604    3.8107    0.4452 C   0  0  0  1  0  0  0  0  0  0  0  0
   -2.2624    3.0433    0.9413 N   0  0  0  1  0  0  0  0  0  0  0  0
   -1.3592    3.6106   -0.0488 C   0  0  0  1  0  0  0  0  0  0  0  0
    0.9500    4.1936   -0.3101 O   0  0  0  1  0  0  0  0  0  0  0  0
    0.2680    3.5447    1.7379 N   0  0  0  1  0  0  0  0  0  0  0  0
   -2.3934    2.0723    0.9606 H   0  0  0  1  0  0  0  0  0  0  0  0
   -2.9441    3.8288    1.8583 C   0  0  0  1  0  0  0  0  0  0  0  0
    1.5730    3.6984    2.3634 C   0  0  0  1  0  0  0  0  0  0  0  0
   -3.8600    3.1668    2.8490 C   0  0  0  1  0  0  0  0  0  0  0  0
   -2.7766    5.0370    1.8299 O   0  0  0  1  0  0  0  0  0  0  0  0
   -0.4847    3.2354    2.2840 H   0  0  0  1  0  0  0  0  0  0  0  0
    2.2969    3.9593    1.6198 H   0  0  0  1  0  0  0  0  0  0  0  0
    1.8560    2.7773    2.8286 H   0  0  0  1  0  0  0  0  0  0  0  0
    1.5257    4.4716    3.1015 H   0  0  0  1  0  0  0  0  0  0  0  0
   -3.3128    2.9274    3.7368 H   0  0  0  1  0  0  0  0  0  0  0  0
   -4.2576    2.2696    2.4226 H   0  0  0  1  0  0  0  0  0  0  0  0
   -4.6618    3.8321    3.0930 H   0  0  0  1  0  0  0  0  0  0  0  0
   -1.4031    2.7364   -1.3064 C   0  0  0  1  0  0  0  0  0  0  0  0
   -2.7930    2.5684   -1.8596 C   0  0  0  1  0  0  0  0  0  0  0  0
   -3.0284    2.9937   -3.1534 C   0  0  0  1  0  0  0  0  0  0  0  0
   -4.2905    2.8556   -3.7097 C   0  0  0  1  0  0  0  0  0  0  0  0
   -5.3149    2.2974   -2.9686 C   0  0  0  1  0  0  0  0  0  0  0  0
   -5.0790    1.8708   -1.6710 C   0  0  0  1  0  0  0  0  0  0  0  0
   -3.8205    2.0086   -1.1165 C   0  0  0  1  0  0  0  0  0  0  0  0
   -6.5997    2.1619   -3.5323 N   0  0  0  1  0  0  0  0  0  0  0  0
   -1.0143    1.7697   -1.0630 H   0  0  0  1  0  0  0  0  0  0  0  0
   -0.7900    3.1891   -2.0575 H   0  0  0  1  0  0  0  0  0  0  0  0
   -2.2585    3.4174   -3.7096 H   0  0  0  1  0  0  0  0  0  0  0  0
   -4.4666    3.1720   -4.6847 H   0  0  0  1  0  0  0  0  0  0  0  0
   -5.8488    1.4471   -1.1147 H   0  0  0  1  0  0  0  0  0  0  0  0
   -3.6445    1.6922   -0.1415 H   0  0  0  1  0  0  0  0  0  0  0  0
   -6.7273    2.2843   -4.4962 H   0  0  0  1  0  0  0  0  0  0  0  0
   -7.3654    1.9454   -2.9603 H   0  0  0  1  0  0  0  0  0  0  0  0
  1  4  1  0  0  0  0
  2  4  1  0  0  0  0
  2  5  2  0  0  0  0
  2  6  1  0  0  0  0
  3  4  1  0  0  0  0
  3  7  1  0  0  0  0
  3  8  1  0  0  0  0
  4 19  1  0  0  0  0
  6  9  1  0  0  0  0
  6 12  1  0  0  0  0
  8 10  1  0  0  0  0
  8 11  2  0  0  0  0
  9 13  1  0  0  0  0
  9 14  1  0  0  0  0
  9 15  1  0  0  0  0
 10 16  1  0  0  0  0
 10 17  1  0  0  0  0
 10 18  1  0  0  0  0
 19 20  1  0  0  0  0
 19 27  1  0  0  0  0
 19 28  1  0  0  0  0
 20 21  4  0  0  0  0
 20 25  4  0  0  0  0
 21 22  4  0  0  0  0
 21 29  1  0  0  0  0
 22 23  4  0  0  0  0
 22 30  1  0  0  0  0
 23 24  4  0  0  0  0
 23 26  1  0  0  0  0
 24 25  4  0  0  0  0
 24 31  1  0  0  0  0
 25 32  1  0  0  0  0
 26 33  1  0  0  0  0
 26 34  1  0  0  0  0
M  END
> <BCLConfClusterSize>
1

> <ConfClashScore>
0 

> <ConfOneFourInteractionScore>
-0.956443 

> <ConfScore>
0.140402 

> <ConfScorePBest>
0.00578322 

> <ConfTolerance>
0.318458 

> <RosettaParamsInstructions>
M  ROOT 3
M  POLY_N_BB 3
M  POLY_CA_BB 4
M  POLY_C_BB 2
M  POLY_O_BB 5
M  POLY_IGNORE 9 10 11 12 13 14 15 16 17 18 
M  POLY_UPPER 6
M  POLY_LOWER 8
M  POLY_CHG 0
M  POLY_PROPERTIES ALPHA_AA D_AA PROTEIN AROMATIC POLYMER 
M  END

$$$$



 34 34  0  0  0  0  0  0  0  0999 V2000
   -1.5485    1.2771    0.2674 H   0  0  0  1  0  0  0  0  0  0  0  0
   -2.2239    3.0726    1.1268 C   0  0  0  1  0  0  0  0  0  0  0  0
    0.0909    2.4767    0.6587 N   0  0  0  1  0  0  0  0  0  0  0  0
   -1.2954    2.3144    0.1982 C   0  0  0  1  0  0  0  0  0  0  0  0
   -2.2540    2.8349    2.3314 O   0  0  0  1  0  0  0  0  0  0  0  0
   -2.9957    4.0049    0.5462 N   0  0  0  1  0  0  0  0  0  0  0  0
    0.7384    2.8491    0.0244 H   0  0  0  1  0  0  0  0  0  0  0  0
    0.5391    2.1515    1.8890 C   0  0  0  1  0  0  0  0  0  0  0  0
   -4.1092    4.5891    1.2764 C   0  0  0  1  0  0  0  0  0  0  0  0
    1.9767    2.4629    2.2255 C   0  0  0  1  0  0  0  0  0  0  0  0
   -0.2005    1.6168    2.7141 O   0  0  0  1  0  0  0  0  0  0  0  0
   -2.8082    4.2925   -0.3718 H   0  0  0  1  0  0  0  0  0  0  0  0
   -3.7611    4.9702    2.2136 H   0  0  0  1  0  0  0  0  0  0  0  0
   -4.8534    3.8402    1.4504 H   0  0  0  1  0  0  0  0  0  0  0  0
   -4.5326    5.3867    0.7024 H   0  0  0  1  0  0  0  0  0  0  0  0
    2.6205    1.9924    1.5120 H   0  0  0  1  0  0  0  0  0  0  0  0
    2.2012    2.0954    3.2050 H   0  0  0  1  0  0  0  0  0  0  0  0
    2.1279    3.5218    2.1981 H   0  0  0  1  0  0  0  0  0  0  0  0
   -1.4150    2.7153   -1.2692 C   0  0  0  1  0  0  0  0  0  0  0  0
   -2.7886    2.5706   -1.8677 C   0  0  0  1  0  0  0  0  0  0  0  0
   -3.0320    3.0108   -3.1551 C   0  0  0  1  0  0  0  0  0  0  0  0
   -4.2958    2.8724   -3.7077 C   0  0  0  1  0  0  0  0  0  0  0  0
   -5.3137    2.2990   -2.9692 C   0  0  0  1  0  0  0  0  0  0  0  0
   -5.0697    1.8575   -1.6781 C   0  0  0  1  0  0  0  0  0  0  0  0
   -3.8097    1.9956   -1.1273 C   0  0  0  1  0  0  0  0  0  0  0  0
   -6.6047    2.1627   -3.5310 N   0  0  0  1  0  0  0  0  0  0  0  0
   -0.7426    2.1041   -1.8342 H   0  0  0  1  0  0  0  0  0  0  0  0
   -1.1236    3.7412   -1.3558 H   0  0  0  1  0  0  0  0  0  0  0  0
   -2.2670    3.4459   -3.7092 H   0  0  0  1  0  0  0  0  0  0  0  0
   -4.4779    3.2000   -4.6778 H   0  0  0  1  0  0  0  0  0  0  0  0
   -5.8347    1.4224   -1.1239 H   0  0  0  1  0  0  0  0  0  0  0  0
   -3.6275    1.6680   -0.1572 H   0  0  0  1  0  0  0  0  0  0  0  0
   -6.7756    2.4687   -4.4462 H   0  0  0  1  0  0  0  0  0  0  0  0
   -7.3282    1.7623   -3.0051 H   0  0  0  1  0  0  0  0  0  0  0  0
  1  4  1  0  0  0  0
  2  4  1  0  0  0  0
  2  5  2  0  0  0  0
  2  6  1  0  0  0  0
  3  4  1  0  0  0  0
  3  7  1  0  0  0  0
  3  8  1  0  0  0  0
  4 19  1  0  0  0  0
  6  9  1  0  0  0  0
  6 12  1  0  0  0  0
  8 10  1  0  0  0  0
  8 11  2  0  0  0  0
  9 13  1  0  0  0  0
  9 14  1  0  0  0  0
  9 15  1  0  0  0  0
 10 16  1  0  0  0  0
 10 17  1  0  0  0  0
 10 18  1  0  0  0  0
 19 20  1  0  0  0  0
 19 27  1  0  0  0  0
 19 28  1  0  0  0  0
 20 21  4  0  0  0  0
 20 25  4  0  0  0  0
 21 22  4  0  0  0  0
 21 29  1  0  0  0  0
 22 23  4  0  0  0  0
 22 30  1  0  0  0  0
 23 24  4  0  0  0  0
 23 26  1  0  0  0  0
 24 25  4  0  0  0  0
 24 31  1  0  0  0  0
 25 32  1  0  0  0  0
 26 33  1  0  0  0  0
 26 34  1  0  0  0  0
M  END
> <BCLConfClusterSize>
1

> <ConfClashScore>
0 

> <ConfOneFourInteractionScore>
-0.941225 

> <ConfScore>
0.140797 

> <ConfScorePBest>
0.00575474 

> <ConfTolerance>
0.574279 

> <RosettaParamsInstructions>
M  ROOT 3
M  POLY_N_BB 3
M  POLY_CA_BB 4
M  POLY_C_BB 2
M  POLY_O_BB 5
M  POLY_IGNORE 9 10 11 12 13 14 15 16 17 18 
M  POLY_UPPER 6
M  POLY_LOWER 8
M  POLY_CHG 0
M  POLY_PROPERTIES ALPHA_AA D_AA PROTEIN AROMATIC POLYMER 
M  END

$$$$



 34 34  0  0  0  0  0  0  0  0999 V2000
   -0.2188    4.0327   -0.1638 H   0  0  0  1  0  0  0  0  0  0  0  0
   -2.1669    4.3312    0.5403 C   0  0  0  1  0  0  0  0  0  0  0  0
   -1.1935    5.1224   -1.6117 N   0  0  0  1  0  0  0  0  0  0  0  0
   -1.1976    4.0646   -0.5948 C   0  0  0  1  0  0  0  0  0  0  0  0
   -2.4099    3.4647    1.3792 O   0  0  0  1  0  0  0  0  0  0  0  0
   -2.7503    5.5387    0.6015 N   0  0  0  1  0  0  0  0  0  0  0  0
   -1.9605    5.2512   -2.2080 H   0  0  0  1  0  0  0  0  0  0  0  0
   -0.1054    5.9117   -1.7023 C   0  0  0  1  0  0  0  0  0  0  0  0
   -3.6063    5.9786    1.6932 C   0  0  0  1  0  0  0  0  0  0  0  0
   -0.1108    7.0169   -2.7403 C   0  0  0  1  0  0  0  0  0  0  0  0
    0.8654    5.7427   -0.9656 O   0  0  0  1  0  0  0  0  0  0  0  0
   -2.5896    6.1638   -0.1359 H   0  0  0  1  0  0  0  0  0  0  0  0
   -3.2759    5.5327    2.6080 H   0  0  0  1  0  0  0  0  0  0  0  0
   -4.6154    5.6823    1.4964 H   0  0  0  1  0  0  0  0  0  0  0  0
   -3.5569    7.0441    1.7777 H   0  0  0  1  0  0  0  0  0  0  0  0
   -0.7839    7.7906   -2.4348 H   0  0  0  1  0  0  0  0  0  0  0  0
   -0.4279    6.6199   -3.6820 H   0  0  0  1  0  0  0  0  0  0  0  0
    0.8756    7.4202   -2.8367 H   0  0  0  1  0  0  0  0  0  0  0  0
   -1.4096    2.7227   -1.2834 C   0  0  0  1  0  0  0  0  0  0  0  0
   -2.7856    2.5747   -1.8756 C   0  0  0  1  0  0  0  0  0  0  0  0
   -3.0329    3.0026   -3.1663 C   0  0  0  1  0  0  0  0  0  0  0  0
   -4.2989    2.8611   -3.7130 C   0  0  0  1  0  0  0  0  0  0  0  0
   -5.3152    2.2970   -2.9653 C   0  0  0  1  0  0  0  0  0  0  0  0
   -5.0674    1.8678   -1.6708 C   0  0  0  1  0  0  0  0  0  0  0  0
   -3.8051    2.0089   -1.1259 C   0  0  0  1  0  0  0  0  0  0  0  0
   -6.6084    2.1576   -3.5211 N   0  0  0  1  0  0  0  0  0  0  0  0
   -1.2627    1.9440   -0.5644 H   0  0  0  1  0  0  0  0  0  0  0  0
   -0.6888    2.6249   -2.0681 H   0  0  0  1  0  0  0  0  0  0  0  0
   -2.2691    3.4308   -3.7275 H   0  0  0  1  0  0  0  0  0  0  0  0
   -4.4839    3.1795   -4.6856 H   0  0  0  1  0  0  0  0  0  0  0  0
   -5.8312    1.4396   -1.1096 H   0  0  0  1  0  0  0  0  0  0  0  0
   -3.6201    1.6905   -0.1532 H   0  0  0  1  0  0  0  0  0  0  0  0
   -7.3270    1.7501   -2.9939 H   0  0  0  1  0  0  0  0  0  0  0  0
   -6.7858    2.4686   -4.4334 H   0  0  0  1  0  0  0  0  0  0  0  0
  1  4  1  0  0  0  0
  2  4  1  0  0  0  0
  2  5  2  0  0  0  0
  2  6  1  0  0  0  0
  3  4  1  0  0  0  0
  3  7  1  0  0  0  0
  3  8  1  0  0  0  0
  4 19  1  0  0  0  0
  6  9  1  0  0  0  0
  6 12  1  0  0  0  0
  8 10  1  0  0  0  0
  8 11  2  0  0  0  0
  9 13  1  0  0  0  0
  9 14  1  0  0  0  0
  9 15  1  0  0  0  0
 10 16  1  0  0  0  0
 10 17  1  0  0  0  0
 10 18  1  0  0  0  0
 19 20  1  0  0  0  0
 19 27  1  0  0  0  0
 19 28  1  0  0  0  0
 20 21  4  0  0  0  0
 20 25  4  0  0  0  0
 21 22  4  0  0  0  0
 21 29  1  0  0  0  0
 22 23  4  0  0  0  0
 22 30  1  0  0  0  0
 23 24  4  0  0  0  0
 23 26  1  0  0  0  0
 24 25  4  0  0  0  0
 24 31  1  0  0  0  0
 25 32  1  0  0  0  0
 26 33  1  0  0  0  0
 26 34  1  0  0  0  0
M  END
> <BCLConfClusterSize>
1

> <ConfClashScore>
0 

> <ConfOneFourInteractionScore>
-0.950605 

> <ConfScore>
0.142234 

> <ConfScorePBest>
0.00572626 

> <ConfTolerance>
0.379861 

> <RosettaParamsInstructions>
M  ROOT 3
M  POLY_N_BB 3
M  POLY_CA_BB 4
M  POLY_C_BB 2
M  POLY_O_BB 5
M  POLY_IGNORE 9 10 11 12 13 14 15 16 17 18 
M  POLY_UPPER 6
M  POLY_LOWER 8
M  POLY_CHG 0
M  POLY_PROPERTIES ALPHA_AA D_AA PROTEIN AROMATIC POLYMER 
M  END

$$$$



 34 34  0  0  0  0  0  0  0  0999 V2000
   -0.1505    3.9925   -0.1978 H   0  0  0  1  0  0  0  0  0  0  0  0
   -1.9644    4.0148    0.8528 C   0  0  0  1  0  0  0  0  0  0  0  0
   -1.4437    5.1442   -1.3097 N   0  0  0  1  0  0  0  0  0  0  0  0
   -1.1890    3.9790   -0.4549 C   0  0  0  1  0  0  0  0  0  0  0  0
   -2.4708    2.9922    1.2882 O   0  0  0  1  0  0  0  0  0  0  0  0
   -1.9781    5.1818    1.5161 N   0  0  0  1  0  0  0  0  0  0  0  0
   -0.6805    5.6332   -1.6823 H   0  0  0  1  0  0  0  0  0  0  0  0
   -2.7079    5.5711   -1.6043 C   0  0  0  1  0  0  0  0  0  0  0  0
   -2.6289    5.4689    2.7858 C   0  0  0  1  0  0  0  0  0  0  0  0
   -2.7452    6.7058   -2.6094 C   0  0  0  1  0  0  0  0  0  0  0  0
   -3.6957    5.0698   -1.0931 O   0  0  0  1  0  0  0  0  0  0  0  0
   -1.4951    5.9249    1.0979 H   0  0  0  1  0  0  0  0  0  0  0  0
   -2.9713    6.4827    2.7904 H   0  0  0  1  0  0  0  0  0  0  0  0
   -1.9316    5.3246    3.5844 H   0  0  0  1  0  0  0  0  0  0  0  0
   -3.4623    4.8106    2.9160 H   0  0  0  1  0  0  0  0  0  0  0  0
   -2.6875    7.6416   -2.0938 H   0  0  0  1  0  0  0  0  0  0  0  0
   -3.6589    6.6604   -3.1643 H   0  0  0  1  0  0  0  0  0  0  0  0
   -1.9157    6.6161   -3.2792 H   0  0  0  1  0  0  0  0  0  0  0  0
   -1.4150    2.7155   -1.2691 C   0  0  0  1  0  0  0  0  0  0  0  0
   -2.7886    2.5707   -1.8677 C   0  0  0  1  0  0  0  0  0  0  0  0
   -3.0317    3.0097   -3.1555 C   0  0  0  1  0  0  0  0  0  0  0  0
   -4.2955    2.8712   -3.7081 C   0  0  0  1  0  0  0  0  0  0  0  0
   -5.3137    2.2989   -2.9692 C   0  0  0  1  0  0  0  0  0  0  0  0
   -5.0700    1.8586   -1.6776 C   0  0  0  1  0  0  0  0  0  0  0  0
   -3.8100    1.9968   -1.1268 C   0  0  0  1  0  0  0  0  0  0  0  0
   -6.6046    2.1626   -3.5311 N   0  0  0  1  0  0  0  0  0  0  0  0
   -1.2437    1.8754   -0.6290 H   0  0  0  1  0  0  0  0  0  0  0  0
   -0.7039    2.7064   -2.0685 H   0  0  0  1  0  0  0  0  0  0  0  0
   -2.2665    3.4440   -3.7100 H   0  0  0  1  0  0  0  0  0  0  0  0
   -4.4774    3.1979   -4.6786 H   0  0  0  1  0  0  0  0  0  0  0  0
   -5.8352    1.4244   -1.1232 H   0  0  0  1  0  0  0  0  0  0  0  0
   -3.6281    1.6701   -0.1564 H   0  0  0  1  0  0  0  0  0  0  0  0
   -6.7720    2.4554   -4.4512 H   0  0  0  1  0  0  0  0  0  0  0  0
   -7.3317    1.7753   -3.0002 H   0  0  0  1  0  0  0  0  0  0  0  0
  1  4  1  0  0  0  0
  2  4  1  0  0  0  0
  2  5  2  0  0  0  0
  2  6  1  0  0  0  0
  3  4  1  0  0  0  0
  3  7  1  0  0  0  0
  3  8  1  0  0  0  0
  4 19  1  0  0  0  0
  6  9  1  0  0  0  0
  6 12  1  0  0  0  0
  8 10  1  0  0  0  0
  8 11  2  0  0  0  0
  9 13  1  0  0  0  0
  9 14  1  0  0  0  0
  9 15  1  0  0  0  0
 10 16  1  0  0  0  0
 10 17  1  0  0  0  0
 10 18  1  0  0  0  0
 19 20  1  0  0  0  0
 19 27  1  0  0  0  0
 19 28  1  0  0  0  0
 20 21  4  0  0  0  0
 20 25  4  0  0  0  0
 21 22  4  0  0  0  0
 21 29  1  0  0  0  0
 22 23  4  0  0  0  0
 22 30  1  0  0  0  0
 23 24  4  0  0  0  0
 23 26  1  0  0  0  0
 24 25  4  0  0  0  0
 24 31  1  0  0  0  0
 25 32  1  0  0  0  0
 26 33  1  0  0  0  0
 26 34  1  0  0  0  0
M  END
> <BCLConfClusterSize>
1

> <ConfClashScore>
0 

> <ConfOneFourInteractionScore>
-0.966825 

> <ConfScore>
0.145742 

> <ConfScorePBest>
0.00569778 

> <ConfTolerance>
0.224481 

> <RosettaParamsInstructions>
M  ROOT 3
M  POLY_N_BB 3
M  POLY_CA_BB 4
M  POLY_C_BB 2
M  POLY_O_BB 5
M  POLY_IGNORE 9 10 11 12 13 14 15 16 17 18 
M  POLY_UPPER 6
M  POLY_LOWER 8
M  POLY_CHG 0
M  POLY_PROPERTIES ALPHA_AA D_AA PROTEIN AROMATIC POLYMER 
M  END

$$$$



 34 34  0  0  0  0  0  0  0  0999 V2000
   -1.8028    4.5067   -0.2045 H   0  0  0  1  0  0  0  0  0  0  0  0
   -0.8961    5.0653   -2.0486 C   0  0  0  1  0  0  0  0  0  0  0  0
    0.2443    4.1016   -0.1251 N   0  0  0  1  0  0  0  0  0  0  0  0
   -1.0356    4.1300   -0.8481 C   0  0  0  1  0  0  0  0  0  0  0  0
   -0.0261    4.8843   -2.9030 O   0  0  0  1  0  0  0  0  0  0  0  0
   -1.7742    6.0793   -2.1031 N   0  0  0  1  0  0  0  0  0  0  0  0
    1.0364    3.7093   -0.5482 H   0  0  0  1  0  0  0  0  0  0  0  0
    0.3296    4.6088    1.1057 C   0  0  0  1  0  0  0  0  0  0  0  0
   -1.7387    7.1387   -3.1001 C   0  0  0  1  0  0  0  0  0  0  0  0
    1.6805    4.4745    1.7813 C   0  0  0  1  0  0  0  0  0  0  0  0
   -0.6084    5.1496    1.6678 O   0  0  0  1  0  0  0  0  0  0  0  0
   -2.4844    6.1078   -1.4284 H   0  0  0  1  0  0  0  0  0  0  0  0
   -2.7369    7.4528   -3.3233 H   0  0  0  1  0  0  0  0  0  0  0  0
   -1.2722    6.7740   -3.9913 H   0  0  0  1  0  0  0  0  0  0  0  0
   -1.1809    7.9684   -2.7189 H   0  0  0  1  0  0  0  0  0  0  0  0
    2.3959    5.0876    1.2743 H   0  0  0  1  0  0  0  0  0  0  0  0
    1.9971    3.4530    1.7451 H   0  0  0  1  0  0  0  0  0  0  0  0
    1.6016    4.7880    2.8013 H   0  0  0  1  0  0  0  0  0  0  0  0
   -1.4096    2.7226   -1.2834 C   0  0  0  1  0  0  0  0  0  0  0  0
   -2.7856    2.5746   -1.8756 C   0  0  0  1  0  0  0  0  0  0  0  0
   -3.0330    3.0029   -3.1662 C   0  0  0  1  0  0  0  0  0  0  0  0
   -4.2990    2.8615   -3.7129 C   0  0  0  1  0  0  0  0  0  0  0  0
   -5.3152    2.2970   -2.9653 C   0  0  0  1  0  0  0  0  0  0  0  0
   -5.0673    1.8674   -1.6709 C   0  0  0  1  0  0  0  0  0  0  0  0
   -3.8050    2.0085   -1.1260 C   0  0  0  1  0  0  0  0  0  0  0  0
   -6.6084    2.1576   -3.5211 N   0  0  0  1  0  0  0  0  0  0  0  0
   -1.3488    2.0849   -0.4264 H   0  0  0  1  0  0  0  0  0  0  0  0
   -0.6986    2.4040   -2.0168 H   0  0  0  1  0  0  0  0  0  0  0  0
   -2.2692    3.4314   -3.7272 H   0  0  0  1  0  0  0  0  0  0  0  0
   -4.4841    3.1801   -4.6854 H   0  0  0  1  0  0  0  0  0  0  0  0
   -5.8310    1.4390   -1.1099 H   0  0  0  1  0  0  0  0  0  0  0  0
   -3.6199    1.6898   -0.1535 H   0  0  0  1  0  0  0  0  0  0  0  0
   -7.3282    1.7544   -2.9922 H   0  0  0  1  0  0  0  0  0  0  0  0
   -6.7846    2.4644   -4.4350 H   0  0  0  1  0  0  0  0  0  0  0  0
  1  4  1  0  0  0  0
  2  4  1  0  0  0  0
  2  5  2  0  0  0  0
  2  6  1  0  0  0  0
  3  4  1  0  0  0  0
  3  7  1  0  0  0  0
  3  8  1  0  0  0  0
  4 19  1  0  0  0  0
  6  9  1  0  0  0  0
  6 12  1  0  0  0  0
  8 10  1  0  0  0  0
  8 11  2  0  0  0  0
  9 13  1  0  0  0  0
  9 14  1  0  0  0  0
  9 15  1  0  0  0  0
 10 16  1  0  0  0  0
 10 17  1  0  0  0  0
 10 18  1  0  0  0  0
 19 20  1  0  0  0  0
 19 27  1  0  0  0  0
 19 28  1  0  0  0  0
 20 21  4  0  0  0  0
 20 25  4  0  0  0  0
 21 22  4  0  0  0  0
 21 29  1  0  0  0  0
 22 23  4  0  0  0  0
 22 30  1  0  0  0  0
 23 24  4  0  0  0  0
 23 26  1  0  0  0  0
 24 25  4  0  0  0  0
 24 31  1  0  0  0  0
 25 32  1  0  0  0  0
 26 33  1  0  0  0  0
 26 34  1  0  0  0  0
M  END
> <BCLConfClusterSize>
1

> <ConfClashScore>
0 

> <ConfOneFourInteractionScore>
-0.978127 

> <ConfScore>
0.148769 

> <ConfScorePBest>
0.0056693 

> <ConfTolerance>
0.288826 

> <RosettaParamsInstructions>
M  ROOT 3
M  POLY_N_BB 3
M  POLY_CA_BB 4
M  POLY_C_BB 2
M  POLY_O_BB 5
M  POLY_IGNORE 9 10 11 12 13 14 15 16 17 18 
M  POLY_UPPER 6
M  POLY_LOWER 8
M  POLY_CHG 0
M  POLY_PROPERTIES ALPHA_AA D_AA PROTEIN AROMATIC POLYMER 
M  END

$$$$



 34 34  0  0  0  0  0  0  0  0999 V2000
   -1.4954    4.7729   -0.8371 H   0  0  0  1  0  0  0  0  0  0  0  0
    0.1687    4.0451    0.2235 C   0  0  0  1  0  0  0  0  0  0  0  0
   -2.1732    3.7443    0.8253 N   0  0  0  1  0  0  0  0  0  0  0  0
   -1.2439    3.8790   -0.3054 C   0  0  0  1  0  0  0  0  0  0  0  0
    0.3724    4.5434    1.3189 O   0  0  0  1  0  0  0  0  0  0  0  0
    1.1799    3.6302   -0.5447 N   0  0  0  1  0  0  0  0  0  0  0  0
   -2.3735    2.8485    1.1687 H   0  0  0  1  0  0  0  0  0  0  0  0
   -2.7676    4.8245    1.4143 C   0  0  0  1  0  0  0  0  0  0  0  0
    2.5684    3.7215   -0.1184 C   0  0  0  1  0  0  0  0  0  0  0  0
   -3.7507    4.4536    2.5075 C   0  0  0  1  0  0  0  0  0  0  0  0
   -2.5137    5.9683    1.0742 O   0  0  0  1  0  0  0  0  0  0  0  0
    0.9797    3.2512   -1.4260 H   0  0  0  1  0  0  0  0  0  0  0  0
    2.6075    3.8853    0.9382 H   0  0  0  1  0  0  0  0  0  0  0  0
    3.0434    4.5366   -0.6233 H   0  0  0  1  0  0  0  0  0  0  0  0
    3.0751    2.8097   -0.3568 H   0  0  0  1  0  0  0  0  0  0  0  0
   -3.2297    3.9706    3.3077 H   0  0  0  1  0  0  0  0  0  0  0  0
   -4.4902    3.7894    2.1115 H   0  0  0  1  0  0  0  0  0  0  0  0
   -4.2260    5.3391    2.8749 H   0  0  0  1  0  0  0  0  0  0  0  0
   -1.4152    2.7160   -1.2689 C   0  0  0  1  0  0  0  0  0  0  0  0
   -2.7887    2.5710   -1.8676 C   0  0  0  1  0  0  0  0  0  0  0  0
   -3.0311    3.0075   -3.1564 C   0  0  0  1  0  0  0  0  0  0  0  0
   -4.2948    2.8688   -3.7091 C   0  0  0  1  0  0  0  0  0  0  0  0
   -5.3137    2.2988   -2.9693 C   0  0  0  1  0  0  0  0  0  0  0  0
   -5.0707    1.8610   -1.6767 C   0  0  0  1  0  0  0  0  0  0  0  0
   -3.8107    1.9993   -1.1258 C   0  0  0  1  0  0  0  0  0  0  0  0
   -6.6045    2.1622   -3.5312 N   0  0  0  1  0  0  0  0  0  0  0  0
   -1.1884    1.8136   -0.7406 H   0  0  0  1  0  0  0  0  0  0  0  0
   -0.7179    2.8457   -2.0701 H   0  0  0  1  0  0  0  0  0  0  0  0
   -2.2654    3.4401   -3.7115 H   0  0  0  1  0  0  0  0  0  0  0  0
   -4.4762    3.1936   -4.6802 H   0  0  0  1  0  0  0  0  0  0  0  0
   -5.8364    1.4284   -1.1216 H   0  0  0  1  0  0  0  0  0  0  0  0
   -3.6293    1.6745   -0.1546 H   0  0  0  1  0  0  0  0  0  0  0  0
   -6.7648    2.4272   -4.4610 H   0  0  0  1  0  0  0  0  0  0  0  0
   -7.3387    1.8026   -2.9907 H   0  0  0  1  0  0  0  0  0  0  0  0
  1  4  1  0  0  0  0
  2  4  1  0  0  0  0
  2  5  2  0  0  0  0
  2  6  1  0  0  0  0
  3  4  1  0  0  0  0
  3  7  1  0  0  0  0
  3  8  1  0  0  0  0
  4 19  1  0  0  0  0
  6  9  1  0  0  0  0
  6 12  1  0  0  0  0
  8 10  1  0  0  0  0
  8 11  2  0  0  0  0
  9 13  1  0  0  0  0
  9 14  1  0  0  0  0
  9 15  1  0  0  0  0
 10 16  1  0  0  0  0
 10 17  1  0  0  0  0
 10 18  1  0  0  0  0
 19 20  1  0  0  0  0
 19 27  1  0  0  0  0
 19 28  1  0  0  0  0
 20 21  4  0  0  0  0
 20 25  4  0  0  0  0
 21 22  4  0  0  0  0
 21 29  1  0  0  0  0
 22 23  4  0  0  0  0
 22 30  1  0  0  0  0
 23 24  4  0  0  0  0
 23 26  1  0  0  0  0
 24 25  4  0  0  0  0
 24 31  1  0  0  0  0
 25 32  1  0  0  0  0
 26 33  1  0  0  0  0
 26 34  1  0  0  0  0
M  END
> <BCLConfClusterSize>
1

> <ConfClashScore>
0 

> <ConfOneFourInteractionScore>
-0.958855 

> <ConfScore>
0.14941 

> <ConfScorePBest>
0.00564082 

> <ConfTolerance>
0.440583 

> <RosettaParamsInstructions>
M  ROOT 3
M  POLY_N_BB 3
M  POLY_CA_BB 4
M  POLY_C_BB 2
M  POLY_O_BB 5
M  POLY_IGNORE 9 10 11 12 13 14 15 16 17 18 
M  POLY_UPPER 6
M  POLY_LOWER 8
M  POLY_CHG 0
M  POLY_PROPERTIES ALPHA_AA D_AA PROTEIN AROMATIC POLYMER 
M  END

$$$$



 34 34  0  0  0  0  0  0  0  0999 V2000
    0.2631    1.6859   -0.6191 H   0  0  0  1  0  0  0  0  0  0  0  0
   -0.8176    0.3479   -1.8137 C   0  0  0  1  0  0  0  0  0  0  0  0
   -1.3529    1.1042    0.4956 N   0  0  0  1  0  0  0  0  0  0  0  0
   -0.7719    1.4749   -0.7899 C   0  0  0  1  0  0  0  0  0  0  0  0
   -0.7363   -0.8212   -1.4727 O   0  0  0  1  0  0  0  0  0  0  0  0
   -0.9517    0.7296   -3.0988 N   0  0  0  1  0  0  0  0  0  0  0  0
   -2.1763    1.5272    0.8173 H   0  0  0  1  0  0  0  0  0  0  0  0
   -0.7306    0.1715    1.2221 C   0  0  0  1  0  0  0  0  0  0  0  0
   -0.9073   -0.2611   -4.1638 C   0  0  0  1  0  0  0  0  0  0  0  0
   -1.3758   -0.2736    2.5201 C   0  0  0  1  0  0  0  0  0  0  0  0
    0.3364   -0.3492    0.9013 O   0  0  0  1  0  0  0  0  0  0  0  0
   -1.0795    1.6765   -3.3168 H   0  0  0  1  0  0  0  0  0  0  0  0
   -0.4226   -1.1463   -3.8082 H   0  0  0  1  0  0  0  0  0  0  0  0
   -0.3623    0.1339   -4.9956 H   0  0  0  1  0  0  0  0  0  0  0  0
   -1.9043   -0.4995   -4.4707 H   0  0  0  1  0  0  0  0  0  0  0  0
   -2.4356   -0.1404    2.4562 H   0  0  0  1  0  0  0  0  0  0  0  0
   -0.9910    0.3122    3.3286 H   0  0  0  1  0  0  0  0  0  0  0  0
   -1.1561   -1.3067    2.6913 H   0  0  0  1  0  0  0  0  0  0  0  0
   -1.3808    2.7570   -1.3425 C   0  0  0  1  0  0  0  0  0  0  0  0
   -2.7933    2.5690   -1.8583 C   0  0  0  1  0  0  0  0  0  0  0  0
   -3.0163    2.9840   -3.1577 C   0  0  0  1  0  0  0  0  0  0  0  0
   -4.2752    2.8488   -3.7222 C   0  0  0  1  0  0  0  0  0  0  0  0
   -5.3086    2.3040   -2.9837 C   0  0  0  1  0  0  0  0  0  0  0  0
   -5.0851    1.8879   -1.6805 C   0  0  0  1  0  0  0  0  0  0  0  0
   -3.8300    2.0227   -1.1178 C   0  0  0  1  0  0  0  0  0  0  0  0
   -6.6134    2.1476   -3.5071 N   0  0  0  1  0  0  0  0  0  0  0  0
   -0.7680    3.1057   -2.1473 H   0  0  0  1  0  0  0  0  0  0  0  0
   -1.3976    3.4897   -0.5629 H   0  0  0  1  0  0  0  0  0  0  0  0
   -2.2396    3.3976   -3.7120 H   0  0  0  1  0  0  0  0  0  0  0  0
   -4.4419    3.1574   -4.7013 H   0  0  0  1  0  0  0  0  0  0  0  0
   -5.8618    1.4742   -1.1262 H   0  0  0  1  0  0  0  0  0  0  0  0
   -3.6633    1.7141   -0.1387 H   0  0  0  1  0  0  0  0  0  0  0  0
   -7.2483    1.5437   -3.0682 H   0  0  0  1  0  0  0  0  0  0  0  0
   -6.8825    2.6432   -4.3086 H   0  0  0  1  0  0  0  0  0  0  0  0
  1  4  1  0  0  0  0
  2  4  1  0  0  0  0
  2  5  2  0  0  0  0
  2  6  1  0  0  0  0
  3  4  1  0  0  0  0
  3  7  1  0  0  0  0
  3  8  1  0  0  0  0
  4 19  1  0  0  0  0
  6  9  1  0  0  0  0
  6 12  1  0  0  0  0
  8 10  1  0  0  0  0
  8 11  2  0  0  0  0
  9 13  1  0  0  0  0
  9 14  1  0  0  0  0
  9 15  1  0  0  0  0
 10 16  1  0  0  0  0
 10 17  1  0  0  0  0
 10 18  1  0  0  0  0
 19 20  1  0  0  0  0
 19 27  1  0  0  0  0
 19 28  1  0  0  0  0
 20 21  4  0  0  0  0
 20 25  4  0  0  0  0
 21 22  4  0  0  0  0
 21 29  1  0  0  0  0
 22 23  4  0  0  0  0
 22 30  1  0  0  0  0
 23 24  4  0  0  0  0
 23 26  1  0  0  0  0
 24 25  4  0  0  0  0
 24 31  1  0  0  0  0
 25 32  1  0  0  0  0
 26 33  1  0  0  0  0
 26 34  1  0  0  0  0
M  END
> <BCLConfClusterSize>
1

> <ConfClashScore>
0 

> <ConfOneFourInteractionScore>
-0.955611 

> <ConfScore>
0.150173 

> <ConfScorePBest>
0.00561234 

> <ConfTolerance>
0.602821 

> <RosettaParamsInstructions>
M  ROOT 3
M  POLY_N_BB 3
M  POLY_CA_BB 4
M  POLY_C_BB 2
M  POLY_O_BB 5
M  POLY_IGNORE 9 10 11 12 13 14 15 16 17 18 
M  POLY_UPPER 6
M  POLY_LOWER 8
M  POLY_CHG 0
M  POLY_PROPERTIES ALPHA_AA D_AA PROTEIN AROMATIC POLYMER 
M  END

$$$$



 34 34  0  0  0  0  0  0  0  0999 V2000
   -1.1120    0.8554   -0.3858 H   0  0  0  1  0  0  0  0  0  0  0  0
    0.8088    1.6711   -0.6146 C   0  0  0  1  0  0  0  0  0  0  0  0
   -0.6394    0.7513   -2.3912 N   0  0  0  1  0  0  0  0  0  0  0  0
   -0.6223    1.4764   -1.1065 C   0  0  0  1  0  0  0  0  0  0  0  0
    1.7075    1.9961   -1.3738 O   0  0  0  1  0  0  0  0  0  0  0  0
    0.9616    1.4521    0.7010 N   0  0  0  1  0  0  0  0  0  0  0  0
   -1.1377    1.1162   -3.1520 H   0  0  0  1  0  0  0  0  0  0  0  0
    0.0481   -0.4455   -2.5243 C   0  0  0  1  0  0  0  0  0  0  0  0
    2.2351    1.6448    1.3783 C   0  0  0  1  0  0  0  0  0  0  0  0
   -0.0855   -1.2264   -3.8014 C   0  0  0  1  0  0  0  0  0  0  0  0
    0.7418   -0.8262   -1.5957 O   0  0  0  1  0  0  0  0  0  0  0  0
    0.1886    1.1521    1.2234 H   0  0  0  1  0  0  0  0  0  0  0  0
    2.5801    2.6441    1.2129 H   0  0  0  1  0  0  0  0  0  0  0  0
    2.9527    0.9515    0.9920 H   0  0  0  1  0  0  0  0  0  0  0  0
    2.1089    1.4805    2.4281 H   0  0  0  1  0  0  0  0  0  0  0  0
    0.1393   -0.5920   -4.6332 H   0  0  0  1  0  0  0  0  0  0  0  0
   -1.0870   -1.5920   -3.8925 H   0  0  0  1  0  0  0  0  0  0  0  0
    0.5959   -2.0512   -3.7878 H   0  0  0  1  0  0  0  0  0  0  0  0
   -1.4397    2.7577   -1.2062 C   0  0  0  1  0  0  0  0  0  0  0  0
   -2.7813    2.5552   -1.8827 C   0  0  0  1  0  0  0  0  0  0  0  0
   -3.0199    3.0063   -3.1671 C   0  0  0  1  0  0  0  0  0  0  0  0
   -4.2838    2.8806   -3.7225 C   0  0  0  1  0  0  0  0  0  0  0  0
   -5.3067    2.3090   -2.9896 C   0  0  0  1  0  0  0  0  0  0  0  0
   -5.0676    1.8565   -1.7014 C   0  0  0  1  0  0  0  0  0  0  0  0
   -3.8074    1.9819   -1.1479 C   0  0  0  1  0  0  0  0  0  0  0  0
   -6.6160    2.1605   -3.5040 N   0  0  0  1  0  0  0  0  0  0  0  0
   -0.8799    3.4759   -1.7681 H   0  0  0  1  0  0  0  0  0  0  0  0
   -1.6094    3.1311   -0.2179 H   0  0  0  1  0  0  0  0  0  0  0  0
   -2.2511    3.4401   -3.7171 H   0  0  0  1  0  0  0  0  0  0  0  0
   -4.4623    3.2165   -4.6905 H   0  0  0  1  0  0  0  0  0  0  0  0
   -5.8363    1.4227   -1.1514 H   0  0  0  1  0  0  0  0  0  0  0  0
   -3.6289    1.6460   -0.1799 H   0  0  0  1  0  0  0  0  0  0  0  0
   -6.8332    2.5013   -4.3968 H   0  0  0  1  0  0  0  0  0  0  0  0
   -7.3058    1.7169   -2.9676 H   0  0  0  1  0  0  0  0  0  0  0  0
  1  4  1  0  0  0  0
  2  4  1  0  0  0  0
  2  5  2  0  0  0  0
  2  6  1  0  0  0  0
  3  4  1  0  0  0  0
  3  7  1  0  0  0  0
  3  8  1  0  0  0  0
  4 19  1  0  0  0  0
  6  9  1  0  0  0  0
  6 12  1  0  0  0  0
  8 10  1  0  0  0  0
  8 11  2  0  0  0  0
  9 13  1  0  0  0  0
  9 14  1  0  0  0  0
  9 15  1  0  0  0  0
 10 16  1  0  0  0  0
 10 17  1  0  0  0  0
 10 18  1  0  0  0  0
 19 20  1  0  0  0  0
 19 27  1  0  0  0  0
 19 28  1  0  0  0  0
 20 21  4  0  0  0  0
 20 25  4  0  0  0  0
 21 22  4  0  0  0  0
 21 29  1  0  0  0  0
 22 23  4  0  0  0  0
 22 30  1  0  0  0  0
 23 24  4  0  0  0  0
 23 26  1  0  0  0  0
 24 25  4  0  0  0  0
 24 31  1  0  0  0  0
 25 32  1  0  0  0  0
 26 33  1  0  0  0  0
 26 34  1  0  0  0  0
M  END
> <BCLConfClusterSize>
1

> <ConfClashScore>
0 

> <ConfOneFourInteractionScore>
-0.985807 

> <ConfScore>
0.15325 

> <ConfScorePBest>
0.00558386 

> <ConfTolerance>
0.311014 

> <RosettaParamsInstructions>
M  ROOT 3
M  POLY_N_BB 3
M  POLY_CA_BB 4
M  POLY_C_BB 2
M  POLY_O_BB 5
M  POLY_IGNORE 9 10 11 12 13 14 15 16 17 18 
M  POLY_UPPER 6
M  POLY_LOWER 8
M  POLY_CHG 0
M  POLY_PROPERTIES ALPHA_AA D_AA PROTEIN AROMATIC POLYMER 
M  END

$$$$



 34 34  0  0  0  0  0  0  0  0999 V2000
   -0.3567    3.8079    0.2075 H   0  0  0  1  0  0  0  0  0  0  0  0
   -2.2877    3.4200    0.9684 C   0  0  0  1  0  0  0  0  0  0  0  0
   -1.6827    5.0835   -0.7467 N   0  0  0  1  0  0  0  0  0  0  0  0
   -1.3564    3.7791   -0.1730 C   0  0  0  1  0  0  0  0  0  0  0  0
   -2.1620    2.3616    1.5878 O   0  0  0  1  0  0  0  0  0  0  0  0
   -3.2148    4.2977    1.2416 N   0  0  0  1  0  0  0  0  0  0  0  0
   -2.1620    5.1180   -1.6008 H   0  0  0  1  0  0  0  0  0  0  0  0
   -1.3503    6.2302   -0.1471 C   0  0  0  1  0  0  0  0  0  0  0  0
   -4.2626    3.9251    2.2241 C   0  0  0  1  0  0  0  0  0  0  0  0
   -1.6234    7.4924   -0.9418 C   0  0  0  1  0  0  0  0  0  0  0  0
   -0.8543    6.2786    0.9754 O   0  0  0  1  0  0  0  0  0  0  0  0
   -3.2186    5.1775    0.8101 H   0  0  0  1  0  0  0  0  0  0  0  0
   -4.5076    4.7759    2.8249 H   0  0  0  1  0  0  0  0  0  0  0  0
   -3.8991    3.1383    2.8516 H   0  0  0  1  0  0  0  0  0  0  0  0
   -5.1366    3.5924    1.7041 H   0  0  0  1  0  0  0  0  0  0  0  0
   -1.9823    7.2309   -1.9153 H   0  0  0  1  0  0  0  0  0  0  0  0
   -0.7196    8.0574   -1.0351 H   0  0  0  1  0  0  0  0  0  0  0  0
   -2.3611    8.0795   -0.4358 H   0  0  0  1  0  0  0  0  0  0  0  0
   -1.4192    2.7139   -1.2598 C   0  0  0  1  0  0  0  0  0  0  0  0
   -2.7887    2.5727   -1.8685 C   0  0  0  1  0  0  0  0  0  0  0  0
   -3.0181    3.0011   -3.1624 C   0  0  0  1  0  0  0  0  0  0  0  0
   -4.2780    2.8659   -3.7244 C   0  0  0  1  0  0  0  0  0  0  0  0
   -5.3063    2.3075   -2.9887 C   0  0  0  1  0  0  0  0  0  0  0  0
   -5.0764    1.8778   -1.6911 C   0  0  0  1  0  0  0  0  0  0  0  0
   -3.8202    2.0127   -1.1310 C   0  0  0  1  0  0  0  0  0  0  0  0
   -6.6119    2.1503   -3.5097 N   0  0  0  1  0  0  0  0  0  0  0  0
   -1.1381    1.7742   -0.8322 H   0  0  0  1  0  0  0  0  0  0  0  0
   -0.7279    2.9754   -2.0334 H   0  0  0  1  0  0  0  0  0  0  0  0
   -2.2453    3.4249   -3.7145 H   0  0  0  1  0  0  0  0  0  0  0  0
   -4.4496    3.1846   -4.6994 H   0  0  0  1  0  0  0  0  0  0  0  0
   -5.8492    1.4540   -1.1390 H   0  0  0  1  0  0  0  0  0  0  0  0
   -3.6487    1.6940   -0.1560 H   0  0  0  1  0  0  0  0  0  0  0  0
   -6.7755    2.2754   -4.4678 H   0  0  0  1  0  0  0  0  0  0  0  0
   -7.3529    1.9165   -2.9125 H   0  0  0  1  0  0  0  0  0  0  0  0
  1  4  1  0  0  0  0
  2  4  1  0  0  0  0
  2  5  2  0  0  0  0
  2  6  1  0  0  0  0
  3  4  1  0  0  0  0
  3  7  1  0  0  0  0
  3  8  1  0  0  0  0
  4 19  1  0  0  0  0
  6  9  1  0  0  0  0
  6 12  1  0  0  0  0
  8 10  1  0  0  0  0
  8 11  2  0  0  0  0
  9 13  1  0  0  0  0
  9 14  1  0  0  0  0
  9 15  1  0  0  0  0
 10 16  1  0  0  0  0
 10 17  1  0  0  0  0
 10 18  1  0  0  0  0
 19 20  1  0  0  0  0
 19 27  1  0  0  0  0
 19 28  1  0  0  0  0
 20 21  4  0  0  0  0
 20 25  4  0  0  0  0
 21 22  4  0  0  0  0
 21 29  1  0  0  0  0
 22 23  4  0  0  0  0
 22 30  1  0  0  0  0
 23 24  4  0  0  0  0
 23 26  1  0  0  0  0
 24 25  4  0  0  0  0
 24 31  1  0  0  0  0
 25 32  1  0  0  0  0
 26 33  1  0  0  0  0
 26 34  1  0  0  0  0
M  END
> <BCLConfClusterSize>
1

> <ConfClashScore>
0 

> <ConfOneFourInteractionScore>
-0.931937 

> <ConfScore>
0.157486 

> <ConfScorePBest>
0.00555537 

> <ConfTolerance>
0.34121 

> <RosettaParamsInstructions>
M  ROOT 3
M  POLY_N_BB 3
M  POLY_CA_BB 4
M  POLY_C_BB 2
M  POLY_O_BB 5
M  POLY_IGNORE 9 10 11 12 13 14 15 16 17 18 
M  POLY_UPPER 6
M  POLY_LOWER 8
M  POLY_CHG 0
M  POLY_PROPERTIES ALPHA_AA D_AA PROTEIN AROMATIC POLYMER 
M  END

$$$$



 34 34  0  0  0  0  0  0  0  0999 V2000
    0.4849    1.7956   -1.2416 H   0  0  0  1  0  0  0  0  0  0  0  0
   -0.3715    1.3283   -3.1070 C   0  0  0  1  0  0  0  0  0  0  0  0
   -1.0005    0.4057   -0.8879 N   0  0  0  1  0  0  0  0  0  0  0  0
   -0.4881    1.5563   -1.6169 C   0  0  0  1  0  0  0  0  0  0  0  0
   -0.5177    2.2530   -3.9090 O   0  0  0  1  0  0  0  0  0  0  0  0
   -0.1022    0.0686   -3.4849 N   0  0  0  1  0  0  0  0  0  0  0  0
   -1.3192   -0.3709   -1.3936 H   0  0  0  1  0  0  0  0  0  0  0  0
   -1.0515    0.3712    0.4467 C   0  0  0  1  0  0  0  0  0  0  0  0
   -0.1215   -0.3455   -4.8799 C   0  0  0  1  0  0  0  0  0  0  0  0
   -1.5379   -0.9302    1.0540 C   0  0  0  1  0  0  0  0  0  0  0  0
   -0.7290    1.3229    1.1530 O   0  0  0  1  0  0  0  0  0  0  0  0
    0.1150   -0.5952   -2.7975 H   0  0  0  1  0  0  0  0  0  0  0  0
   -0.7902    0.2832   -5.4299 H   0  0  0  1  0  0  0  0  0  0  0  0
   -0.4520   -1.3611   -4.9457 H   0  0  0  1  0  0  0  0  0  0  0  0
    0.8634   -0.2631   -5.2898 H   0  0  0  1  0  0  0  0  0  0  0  0
   -0.6993   -1.5580    1.2720 H   0  0  0  1  0  0  0  0  0  0  0  0
   -2.1844   -1.4271    0.3612 H   0  0  0  1  0  0  0  0  0  0  0  0
   -2.0731   -0.7240    1.9572 H   0  0  0  1  0  0  0  0  0  0  0  0
   -1.4095    2.7223   -1.2835 C   0  0  0  1  0  0  0  0  0  0  0  0
   -2.7856    2.5745   -1.8757 C   0  0  0  1  0  0  0  0  0  0  0  0
   -3.0333    3.0042   -3.1657 C   0  0  0  1  0  0  0  0  0  0  0  0
   -4.2994    2.8629   -3.7123 C   0  0  0  1  0  0  0  0  0  0  0  0
   -5.3152    2.2971   -2.9652 C   0  0  0  1  0  0  0  0  0  0  0  0
   -5.0669    1.8660   -1.6714 C   0  0  0  1  0  0  0  0  0  0  0  0
   -3.8046    2.0070   -1.1266 C   0  0  0  1  0  0  0  0  0  0  0  0
   -6.6085    2.1578   -3.5210 N   0  0  0  1  0  0  0  0  0  0  0  0
   -0.9708    3.6220   -1.6618 H   0  0  0  1  0  0  0  0  0  0  0  0
   -1.5020    2.7899   -0.2197 H   0  0  0  1  0  0  0  0  0  0  0  0
   -2.2699    3.4337   -3.7263 H   0  0  0  1  0  0  0  0  0  0  0  0
   -4.4848    3.1827   -4.6844 H   0  0  0  1  0  0  0  0  0  0  0  0
   -5.8303    1.4366   -1.1108 H   0  0  0  1  0  0  0  0  0  0  0  0
   -3.6192    1.6872   -0.1545 H   0  0  0  1  0  0  0  0  0  0  0  0
   -7.3326    1.7708   -2.9861 H   0  0  0  1  0  0  0  0  0  0  0  0
   -6.7803    2.4484   -4.4410 H   0  0  0  1  0  0  0  0  0  0  0  0
  1  4  1  0  0  0  0
  2  4  1  0  0  0  0
  2  5  2  0  0  0  0
  2  6  1  0  0  0  0
  3  4  1  0  0  0  0
  3  7  1  0  0  0  0
  3  8  1  0  0  0  0
  4 19  1  0  0  0  0
  6  9  1  0  0  0  0
  6 12  1  0  0  0  0
  8 10  1  0  0  0  0
  8 11  2  0  0  0  0
  9 13  1  0  0  0  0
  9 14  1  0  0  0  0
  9 15  1  0  0  0  0
 10 16  1  0  0  0  0
 10 17  1  0  0  0  0
 10 18  1  0  0  0  0
 19 20  1  0  0  0  0
 19 27  1  0  0  0  0
 19 28  1  0  0  0  0
 20 21  4  0  0  0  0
 20 25  4  0  0  0  0
 21 22  4  0  0  0  0
 21 29  1  0  0  0  0
 22 23  4  0  0  0  0
 22 30  1  0  0  0  0
 23 24  4  0  0  0  0
 23 26  1  0  0  0  0
 24 25  4  0  0  0  0
 24 31  1  0  0  0  0
 25 32  1  0  0  0  0
 26 33  1  0  0  0  0
 26 34  1  0  0  0  0
M  END
> <BCLConfClusterSize>
1

> <ConfClashScore>
0 

> <ConfOneFourInteractionScore>
-0.950895 

> <ConfScore>
0.158241 

> <ConfScorePBest>
0.00552689 

> <ConfTolerance>
0.314039 

> <RosettaParamsInstructions>
M  ROOT 3
M  POLY_N_BB 3
M  POLY_CA_BB 4
M  POLY_C_BB 2
M  POLY_O_BB 5
M  POLY_IGNORE 9 10 11 12 13 14 15 16 17 18 
M  POLY_UPPER 6
M  POLY_LOWER 8
M  POLY_CHG 0
M  POLY_PROPERTIES ALPHA_AA D_AA PROTEIN AROMATIC POLYMER 
M  END

$$$$



 34 34  0  0  0  0  0  0  0  0999 V2000
   -2.0027    2.7933    0.7707 H   0  0  0  1  0  0  0  0  0  0  0  0
   -2.1064    4.7843    0.0867 C   0  0  0  1  0  0  0  0  0  0  0  0
   -0.0778    3.5398    0.6310 N   0  0  0  1  0  0  0  0  0  0  0  0
   -1.4430    3.4131    0.1017 C   0  0  0  1  0  0  0  0  0  0  0  0
   -1.6644    5.6939   -0.5957 O   0  0  0  1  0  0  0  0  0  0  0  0
   -3.1924    4.9153    0.8649 N   0  0  0  1  0  0  0  0  0  0  0  0
    0.6621    3.1331    0.1333 H   0  0  0  1  0  0  0  0  0  0  0  0
    0.1920    4.1956    1.7765 C   0  0  0  1  0  0  0  0  0  0  0  0
   -3.8806    6.1867    1.0313 C   0  0  0  1  0  0  0  0  0  0  0  0
    1.6512    4.1350    2.1843 C   0  0  0  1  0  0  0  0  0  0  0  0
   -0.6420    4.7968    2.4523 O   0  0  0  1  0  0  0  0  0  0  0  0
   -3.5335    4.1274    1.3373 H   0  0  0  1  0  0  0  0  0  0  0  0
   -3.9963    6.6578    0.0776 H   0  0  0  1  0  0  0  0  0  0  0  0
   -3.3073    6.8208    1.6748 H   0  0  0  1  0  0  0  0  0  0  0  0
   -4.8444    6.0163    1.4638 H   0  0  0  1  0  0  0  0  0  0  0  0
    2.2567    4.5544    1.4082 H   0  0  0  1  0  0  0  0  0  0  0  0
    1.9341    3.1157    2.3457 H   0  0  0  1  0  0  0  0  0  0  0  0
    1.7925    4.6920    3.0869 H   0  0  0  1  0  0  0  0  0  0  0  0
   -1.4210    2.7119   -1.2597 C   0  0  0  1  0  0  0  0  0  0  0  0
   -2.7883    2.5742   -1.8742 C   0  0  0  1  0  0  0  0  0  0  0  0
   -3.0120    3.0062   -3.1679 C   0  0  0  1  0  0  0  0  0  0  0  0
   -4.2699    2.8741   -3.7351 C   0  0  0  1  0  0  0  0  0  0  0  0
   -5.3019    2.3153   -3.0049 C   0  0  0  1  0  0  0  0  0  0  0  0
   -5.0777    1.8820   -1.7075 C   0  0  0  1  0  0  0  0  0  0  0  0
   -3.8234    2.0137   -1.1421 C   0  0  0  1  0  0  0  0  0  0  0  0
   -6.6163    2.1399   -3.4828 N   0  0  0  1  0  0  0  0  0  0  0  0
   -1.0047    1.7345   -1.1327 H   0  0  0  1  0  0  0  0  0  0  0  0
   -0.8042    3.2792   -1.9250 H   0  0  0  1  0  0  0  0  0  0  0  0
   -2.2365    3.4303   -3.7159 H   0  0  0  1  0  0  0  0  0  0  0  0
   -4.4372    3.1955   -4.7100 H   0  0  0  1  0  0  0  0  0  0  0  0
   -5.8532    1.4579   -1.1595 H   0  0  0  1  0  0  0  0  0  0  0  0
   -3.6562    1.6923   -0.1673 H   0  0  0  1  0  0  0  0  0  0  0  0
   -7.2861    1.6952   -2.9224 H   0  0  0  1  0  0  0  0  0  0  0  0
   -6.8604    2.4626   -4.3754 H   0  0  0  1  0  0  0  0  0  0  0  0
  1  4  1  0  0  0  0
  2  4  1  0  0  0  0
  2  5  2  0  0  0  0
  2  6  1  0  0  0  0
  3  4  1  0  0  0  0
  3  7  1  0  0  0  0
  3  8  1  0  0  0  0
  4 19  1  0  0  0  0
  6  9  1  0  0  0  0
  6 12  1  0  0  0  0
  8 10  1  0  0  0  0
  8 11  2  0  0  0  0
  9 13  1  0  0  0  0
  9 14  1  0  0  0  0
  9 15  1  0  0  0  0
 10 16  1  0  0  0  0
 10 17  1  0  0  0  0
 10 18  1  0  0  0  0
 19 20  1  0  0  0  0
 19 27  1  0  0  0  0
 19 28  1  0  0  0  0
 20 21  4  0  0  0  0
 20 25  4  0  0  0  0
 21 22  4  0  0  0  0
 21 29  1  0  0  0  0
 22 23  4  0  0  0  0
 22 30  1  0  0  0  0
 23 24  4  0  0  0  0
 23 26  1  0  0  0  0
 24 25  4  0  0  0  0
 24 31  1  0  0  0  0
 25 32  1  0  0  0  0
 26 33  1  0  0  0  0
 26 34  1  0  0  0  0
M  END
> <BCLConfClusterSize>
1

> <ConfClashScore>
0 

> <ConfOneFourInteractionScore>
-0.985807 

> <ConfScore>
0.158642 

> <ConfScorePBest>
0.00549841 

> <ConfTolerance>
0.471198 

> <RosettaParamsInstructions>
M  ROOT 3
M  POLY_N_BB 3
M  POLY_CA_BB 4
M  POLY_C_BB 2
M  POLY_O_BB 5
M  POLY_IGNORE 9 10 11 12 13 14 15 16 17 18 
M  POLY_UPPER 6
M  POLY_LOWER 8
M  POLY_CHG 0
M  POLY_PROPERTIES ALPHA_AA D_AA PROTEIN AROMATIC POLYMER 
M  END

$$$$



 34 34  0  0  0  0  0  0  0  0999 V2000
   -0.6815    0.8238   -1.8664 H   0  0  0  1  0  0  0  0  0  0  0  0
   -1.4268    0.6490    0.1010 C   0  0  0  1  0  0  0  0  0  0  0  0
    0.6866    1.7010   -0.5883 N   0  0  0  1  0  0  0  0  0  0  0  0
   -0.6870    1.4178   -0.9765 C   0  0  0  1  0  0  0  0  0  0  0  0
   -2.4656    0.0429   -0.1478 O   0  0  0  1  0  0  0  0  0  0  0  0
   -0.8730    0.6792    1.3235 N   0  0  0  1  0  0  0  0  0  0  0  0
    1.0184    2.6204   -0.6599 H   0  0  0  1  0  0  0  0  0  0  0  0
    1.5112    0.7513   -0.1377 C   0  0  0  1  0  0  0  0  0  0  0  0
   -1.4370   -0.0484    2.4506 C   0  0  0  1  0  0  0  0  0  0  0  0
    2.8927    1.2202    0.2757 C   0  0  0  1  0  0  0  0  0  0  0  0
    1.1886   -0.4310   -0.0563 O   0  0  0  1  0  0  0  0  0  0  0  0
   -0.0606    1.2096    1.4617 H   0  0  0  1  0  0  0  0  0  0  0  0
   -1.5277   -1.0841    2.1978 H   0  0  0  1  0  0  0  0  0  0  0  0
   -2.4034    0.3477    2.6829 H   0  0  0  1  0  0  0  0  0  0  0  0
   -0.7945    0.0562    3.2998 H   0  0  0  1  0  0  0  0  0  0  0  0
    2.8083    2.1229    0.8439 H   0  0  0  1  0  0  0  0  0  0  0  0
    3.4833    1.4027   -0.5977 H   0  0  0  1  0  0  0  0  0  0  0  0
    3.3614    0.4658    0.8725 H   0  0  0  1  0  0  0  0  0  0  0  0
   -1.4097    2.7229   -1.2833 C   0  0  0  1  0  0  0  0  0  0  0  0
   -2.7856    2.5748   -1.8755 C   0  0  0  1  0  0  0  0  0  0  0  0
   -3.0325    3.0013   -3.1668 C   0  0  0  1  0  0  0  0  0  0  0  0
   -4.2985    2.8598   -3.7135 C   0  0  0  1  0  0  0  0  0  0  0  0
   -5.3152    2.2969   -2.9653 C   0  0  0  1  0  0  0  0  0  0  0  0
   -5.0677    1.8691   -1.6703 C   0  0  0  1  0  0  0  0  0  0  0  0
   -3.8055    2.0103   -1.1253 C   0  0  0  1  0  0  0  0  0  0  0  0
   -6.6084    2.1574   -3.5212 N   0  0  0  1  0  0  0  0  0  0  0  0
   -0.8105    3.2773   -1.9751 H   0  0  0  1  0  0  0  0  0  0  0  0
   -1.5010    3.2723   -0.3697 H   0  0  0  1  0  0  0  0  0  0  0  0
   -2.2685    3.4286   -3.7283 H   0  0  0  1  0  0  0  0  0  0  0  0
   -4.4832    3.1771   -4.6866 H   0  0  0  1  0  0  0  0  0  0  0  0
   -5.8318    1.4419   -1.1087 H   0  0  0  1  0  0  0  0  0  0  0  0
   -3.6208    1.6930   -0.1523 H   0  0  0  1  0  0  0  0  0  0  0  0
   -7.3227    1.7347   -3.0002 H   0  0  0  1  0  0  0  0  0  0  0  0
   -6.7900    2.4835   -4.4273 H   0  0  0  1  0  0  0  0  0  0  0  0
  1  4  1  0  0  0  0
  2  4  1  0  0  0  0
  2  5  2  0  0  0  0
  2  6  1  0  0  0  0
  3  4  1  0  0  0  0
  3  7  1  0  0  0  0
  3  8  1  0  0  0  0
  4 19  1  0  0  0  0
  6  9  1  0  0  0  0
  6 12  1  0  0  0  0
  8 10  1  0  0  0  0
  8 11  2  0  0  0  0
  9 13  1  0  0  0  0
  9 14  1  0  0  0  0
  9 15  1  0  0  0  0
 10 16  1  0  0  0  0
 10 17  1  0  0  0  0
 10 18  1  0  0  0  0
 19 20  1  0  0  0  0
 19 27  1  0  0  0  0
 19 28  1  0  0  0  0
 20 21  4  0  0  0  0
 20 25  4  0  0  0  0
 21 22  4  0  0  0  0
 21 29  1  0  0  0  0
 22 23  4  0  0  0  0
 22 30  1  0  0  0  0
 23 24  4  0  0  0  0
 23 26  1  0  0  0  0
 24 25  4  0  0  0  0
 24 31  1  0  0  0  0
 25 32  1  0  0  0  0
 26 33  1  0  0  0  0
 26 34  1  0  0  0  0
M  END
> <BCLConfClusterSize>
1

> <ConfClashScore>
0 

> <ConfOneFourInteractionScore>
-0.960318 

> <ConfScore>
0.159101 

> <ConfScorePBest>
0.00546993 

> <ConfTolerance>
0.365725 

> <RosettaParamsInstructions>
M  ROOT 3
M  POLY_N_BB 3
M  POLY_CA_BB 4
M  POLY_C_BB 2
M  POLY_O_BB 5
M  POLY_IGNORE 9 10 11 12 13 14 15 16 17 18 
M  POLY_UPPER 6
M  POLY_LOWER 8
M  POLY_CHG 0
M  POLY_PROPERTIES ALPHA_AA D_AA PROTEIN AROMATIC POLYMER 
M  END

$$$$



 34 34  0  0  0  0  0  0  0  0999 V2000
    0.2208    1.4925   -0.5845 H   0  0  0  1  0  0  0  0  0  0  0  0
   -0.0648    1.0616   -2.6506 C   0  0  0  1  0  0  0  0  0  0  0  0
   -1.4493    0.2599   -0.8149 N   0  0  0  1  0  0  0  0  0  0  0  0
   -0.6042    1.3790   -1.2564 C   0  0  0  1  0  0  0  0  0  0  0  0
   -0.0629    1.9075   -3.5411 O   0  0  0  1  0  0  0  0  0  0  0  0
    0.3980   -0.1861   -2.8267 N   0  0  0  1  0  0  0  0  0  0  0  0
   -1.8921   -0.2939   -1.4914 H   0  0  0  1  0  0  0  0  0  0  0  0
   -1.6347   -0.0284    0.4764 C   0  0  0  1  0  0  0  0  0  0  0  0
    0.8874   -0.7229   -4.0878 C   0  0  0  1  0  0  0  0  0  0  0  0
   -2.4545   -1.2714    0.7628 C   0  0  0  1  0  0  0  0  0  0  0  0
   -1.1811    0.6532    1.3809 O   0  0  0  1  0  0  0  0  0  0  0  0
    0.4069   -0.7803   -2.0474 H   0  0  0  1  0  0  0  0  0  0  0  0
    1.4415    0.0315   -4.6061 H   0  0  0  1  0  0  0  0  0  0  0  0
    0.0583   -1.0326   -4.6891 H   0  0  0  1  0  0  0  0  0  0  0  0
    1.5223   -1.5625   -3.8953 H   0  0  0  1  0  0  0  0  0  0  0  0
   -2.8000   -1.6915   -0.1586 H   0  0  0  1  0  0  0  0  0  0  0  0
   -3.2941   -1.0118    1.3732 H   0  0  0  1  0  0  0  0  0  0  0  0
   -1.8478   -1.9880    1.2760 H   0  0  0  1  0  0  0  0  0  0  0  0
   -1.4149    2.6647   -1.2560 C   0  0  0  1  0  0  0  0  0  0  0  0
   -2.7781    2.5681   -1.8871 C   0  0  0  1  0  0  0  0  0  0  0  0
   -3.0298    3.0005   -3.1755 C   0  0  0  1  0  0  0  0  0  0  0  0
   -4.3035    2.8830   -3.7098 C   0  0  0  1  0  0  0  0  0  0  0  0
   -5.3230    2.3382   -2.9521 C   0  0  0  1  0  0  0  0  0  0  0  0
   -5.0707    1.9044   -1.6600 C   0  0  0  1  0  0  0  0  0  0  0  0
   -3.8008    2.0217   -1.1274 C   0  0  0  1  0  0  0  0  0  0  0  0
   -6.6098    2.1338   -3.5291 N   0  0  0  1  0  0  0  0  0  0  0  0
   -0.8569    3.4070   -1.7876 H   0  0  0  1  0  0  0  0  0  0  0  0
   -1.5429    2.9739   -0.2396 H   0  0  0  1  0  0  0  0  0  0  0  0
   -2.2635    3.4141   -3.7442 H   0  0  0  1  0  0  0  0  0  0  0  0
   -4.4919    3.2047   -4.6807 H   0  0  0  1  0  0  0  0  0  0  0  0
   -5.8370    1.4908   -1.0913 H   0  0  0  1  0  0  0  0  0  0  0  0
   -3.6124    1.7000   -0.1565 H   0  0  0  1  0  0  0  0  0  0  0  0
   -7.2943    1.6352   -3.0359 H   0  0  0  1  0  0  0  0  0  0  0  0
   -6.8102    2.4920   -4.4190 H   0  0  0  1  0  0  0  0  0  0  0  0
  1  4  1  0  0  0  0
  2  4  1  0  0  0  0
  2  5  2  0  0  0  0
  2  6  1  0  0  0  0
  3  4  1  0  0  0  0
  3  7  1  0  0  0  0
  3  8  1  0  0  0  0
  4 19  1  0  0  0  0
  6  9  1  0  0  0  0
  6 12  1  0  0  0  0
  8 10  1  0  0  0  0
  8 11  2  0  0  0  0
  9 13  1  0  0  0  0
  9 14  1  0  0  0  0
  9 15  1  0  0  0  0
 10 16  1  0  0  0  0
 10 17  1  0  0  0  0
 10 18  1  0  0  0  0
 19 20  1  0  0  0  0
 19 27  1  0  0  0  0
 19 28  1  0  0  0  0
 20 21  4  0  0  0  0
 20 25  4  0  0  0  0
 21 22  4  0  0  0  0
 21 29  1  0  0  0  0
 22 23  4  0  0  0  0
 22 30  1  0  0  0  0
 23 24  4  0  0  0  0
 23 26  1  0  0  0  0
 24 25  4  0  0  0  0
 24 31  1  0  0  0  0
 25 32  1  0  0  0  0
 26 33  1  0  0  0  0
 26 34  1  0  0  0  0
M  END
> <BCLConfClusterSize>
1

> <ConfClashScore>
0 

> <ConfOneFourInteractionScore>
-0.932227 

> <ConfScore>
0.159648 

> <ConfScorePBest>
0.00544145 

> <ConfTolerance>
0.47306 

> <RosettaParamsInstructions>
M  ROOT 3
M  POLY_N_BB 3
M  POLY_CA_BB 4
M  POLY_C_BB 2
M  POLY_O_BB 5
M  POLY_IGNORE 9 10 11 12 13 14 15 16 17 18 
M  POLY_UPPER 6
M  POLY_LOWER 8
M  POLY_CHG 0
M  POLY_PROPERTIES ALPHA_AA D_AA PROTEIN AROMATIC POLYMER 
M  END

$$$$



 34 34  0  0  0  0  0  0  0  0999 V2000
   -1.0006    0.6571   -1.3292 H   0  0  0  1  0  0  0  0  0  0  0  0
    0.7306    1.6006   -0.6004 C   0  0  0  1  0  0  0  0  0  0  0  0
   -0.0589    1.5323   -2.9356 N   0  0  0  1  0  0  0  0  0  0  0  0
   -0.4622    1.5580   -1.5376 C   0  0  0  1  0  0  0  0  0  0  0  0
    0.6497    2.1739    0.4741 O   0  0  0  1  0  0  0  0  0  0  0  0
    1.8787    1.0671   -1.0469 N   0  0  0  1  0  0  0  0  0  0  0  0
   -0.5846    1.0015   -3.5699 H   0  0  0  1  0  0  0  0  0  0  0  0
    1.0032    2.2073   -3.3845 C   0  0  0  1  0  0  0  0  0  0  0  0
    3.1248    1.0243   -0.2964 C   0  0  0  1  0  0  0  0  0  0  0  0
    1.2757    2.1196   -4.8736 C   0  0  0  1  0  0  0  0  0  0  0  0
    1.6824    2.9296   -2.6561 O   0  0  0  1  0  0  0  0  0  0  0  0
    1.8776    0.6771   -1.9460 H   0  0  0  1  0  0  0  0  0  0  0  0
    3.0074    1.5608    0.6218 H   0  0  0  1  0  0  0  0  0  0  0  0
    3.9048    1.4740   -0.8747 H   0  0  0  1  0  0  0  0  0  0  0  0
    3.3785    0.0066   -0.0847 H   0  0  0  1  0  0  0  0  0  0  0  0
    0.3696    2.2991   -5.4137 H   0  0  0  1  0  0  0  0  0  0  0  0
    1.6451    1.1440   -5.1115 H   0  0  0  1  0  0  0  0  0  0  0  0
    2.0046    2.8538   -5.1464 H   0  0  0  1  0  0  0  0  0  0  0  0
   -1.4107    2.7224   -1.2839 C   0  0  0  1  0  0  0  0  0  0  0  0
   -2.7855    2.5746   -1.8756 C   0  0  0  1  0  0  0  0  0  0  0  0
   -3.0330    3.0034   -3.1660 C   0  0  0  1  0  0  0  0  0  0  0  0
   -4.2990    2.8620   -3.7126 C   0  0  0  1  0  0  0  0  0  0  0  0
   -5.3151    2.2970   -2.9652 C   0  0  0  1  0  0  0  0  0  0  0  0
   -5.0670    1.8669   -1.6711 C   0  0  0  1  0  0  0  0  0  0  0  0
   -3.8047    2.0079   -1.1262 C   0  0  0  1  0  0  0  0  0  0  0  0
   -6.6084    2.1577   -3.5210 N   0  0  0  1  0  0  0  0  0  0  0  0
   -0.9673    3.6049   -1.6956 H   0  0  0  1  0  0  0  0  0  0  0  0
   -1.5174    2.8366   -0.2254 H   0  0  0  1  0  0  0  0  0  0  0  0
   -2.2694    3.4322   -3.7269 H   0  0  0  1  0  0  0  0  0  0  0  0
   -4.4842    3.1811   -4.6850 H   0  0  0  1  0  0  0  0  0  0  0  0
   -5.8306    1.4381   -1.1102 H   0  0  0  1  0  0  0  0  0  0  0  0
   -3.6196    1.6889   -0.1538 H   0  0  0  1  0  0  0  0  0  0  0  0
   -7.3298    1.7603   -2.9899 H   0  0  0  1  0  0  0  0  0  0  0  0
   -6.7830    2.4586   -4.4372 H   0  0  0  1  0  0  0  0  0  0  0  0
  1  4  1  0  0  0  0
  2  4  1  0  0  0  0
  2  5  2  0  0  0  0
  2  6  1  0  0  0  0
  3  4  1  0  0  0  0
  3  7  1  0  0  0  0
  3  8  1  0  0  0  0
  4 19  1  0  0  0  0
  6  9  1  0  0  0  0
  6 12  1  0  0  0  0
  8 10  1  0  0  0  0
  8 11  2  0  0  0  0
  9 13  1  0  0  0  0
  9 14  1  0  0  0  0
  9 15  1  0  0  0  0
 10 16  1  0  0  0  0
 10 17  1  0  0  0  0
 10 18  1  0  0  0  0
 19 20  1  0  0  0  0
 19 27  1  0  0  0  0
 19 28  1  0  0  0  0
 20 21  4  0  0  0  0
 20 25  4  0  0  0  0
 21 22  4  0  0  0  0
 21 29  1  0  0  0  0
 22 23  4  0  0  0  0
 22 30  1  0  0  0  0
 23 24  4  0  0  0  0
 23 26  1  0  0  0  0
 24 25  4  0  0  0  0
 24 31  1  0  0  0  0
 25 32  1  0  0  0  0
 26 33  1  0  0  0  0
 26 34  1  0  0  0  0
M  END
> <BCLConfClusterSize>
1

> <ConfClashScore>
0 

> <ConfOneFourInteractionScore>
-0.953489 

> <ConfScore>
0.166389 

> <ConfScorePBest>
0.00541297 

> <ConfTolerance>
0.262628 

> <RosettaParamsInstructions>
M  ROOT 3
M  POLY_N_BB 3
M  POLY_CA_BB 4
M  POLY_C_BB 2
M  POLY_O_BB 5
M  POLY_IGNORE 9 10 11 12 13 14 15 16 17 18 
M  POLY_UPPER 6
M  POLY_LOWER 8
M  POLY_CHG 0
M  POLY_PROPERTIES ALPHA_AA D_AA PROTEIN AROMATIC POLYMER 
M  END

$$$$



 34 34  0  0  0  0  0  0  0  0999 V2000
   -0.4994    2.8193   -3.2132 H   0  0  0  1  0  0  0  0  0  0  0  0
    1.0043    3.3754   -1.8732 C   0  0  0  1  0  0  0  0  0  0  0  0
   -0.9339    4.7418   -2.6231 N   0  0  0  1  0  0  0  0  0  0  0  0
   -0.4422    3.3946   -2.3129 C   0  0  0  1  0  0  0  0  0  0  0  0
    1.6244    2.3183   -1.7933 O   0  0  0  1  0  0  0  0  0  0  0  0
    1.5885    4.5464   -1.5737 N   0  0  0  1  0  0  0  0  0  0  0  0
   -1.5649    5.1836   -2.0172 H   0  0  0  1  0  0  0  0  0  0  0  0
   -0.5216    5.3701   -3.7347 C   0  0  0  1  0  0  0  0  0  0  0  0
    3.0034    4.6487   -1.2492 C   0  0  0  1  0  0  0  0  0  0  0  0
   -1.1310    6.7361   -3.9837 C   0  0  0  1  0  0  0  0  0  0  0  0
    0.2962    4.8856   -4.5124 O   0  0  0  1  0  0  0  0  0  0  0  0
    1.0431    5.3606   -1.5734 H   0  0  0  1  0  0  0  0  0  0  0  0
    3.3336    3.7359   -0.7990 H   0  0  0  1  0  0  0  0  0  0  0  0
    3.1548    5.4582   -0.5661 H   0  0  0  1  0  0  0  0  0  0  0  0
    3.5622    4.8273   -2.1441 H   0  0  0  1  0  0  0  0  0  0  0  0
   -0.4077    7.3696   -4.4531 H   0  0  0  1  0  0  0  0  0  0  0  0
   -1.4315    7.1676   -3.0519 H   0  0  0  1  0  0  0  0  0  0  0  0
   -1.9838    6.6349   -4.6220 H   0  0  0  1  0  0  0  0  0  0  0  0
   -1.3958    2.7401   -1.3220 C   0  0  0  1  0  0  0  0  0  0  0  0
   -2.7883    2.5702   -1.8680 C   0  0  0  1  0  0  0  0  0  0  0  0
   -3.0337    3.0053   -3.1567 C   0  0  0  1  0  0  0  0  0  0  0  0
   -4.2986    2.8659   -3.7064 C   0  0  0  1  0  0  0  0  0  0  0  0
   -5.3158    2.2966   -2.9638 C   0  0  0  1  0  0  0  0  0  0  0  0
   -5.0698    1.8602   -1.6713 C   0  0  0  1  0  0  0  0  0  0  0  0
   -3.8086    1.9992   -1.1234 C   0  0  0  1  0  0  0  0  0  0  0  0
   -6.6079    2.1594   -3.5227 N   0  0  0  1  0  0  0  0  0  0  0  0
   -1.4463    3.3499   -0.4442 H   0  0  0  1  0  0  0  0  0  0  0  0
   -1.0107    1.7754   -1.0650 H   0  0  0  1  0  0  0  0  0  0  0  0
   -2.2692    3.4373   -3.7140 H   0  0  0  1  0  0  0  0  0  0  0  0
   -4.4822    3.1897   -4.6776 H   0  0  0  1  0  0  0  0  0  0  0  0
   -5.8342    1.4282   -1.1140 H   0  0  0  1  0  0  0  0  0  0  0  0
   -3.6251    1.6754   -0.1523 H   0  0  0  1  0  0  0  0  0  0  0  0
   -7.3456    1.8203   -2.9739 H   0  0  0  1  0  0  0  0  0  0  0  0
   -6.7653    2.4033   -4.4587 H   0  0  0  1  0  0  0  0  0  0  0  0
  1  4  1  0  0  0  0
  2  4  1  0  0  0  0
  2  5  2  0  0  0  0
  2  6  1  0  0  0  0
  3  4  1  0  0  0  0
  3  7  1  0  0  0  0
  3  8  1  0  0  0  0
  4 19  1  0  0  0  0
  6  9  1  0  0  0  0
  6 12  1  0  0  0  0
  8 10  1  0  0  0  0
  8 11  2  0  0  0  0
  9 13  1  0  0  0  0
  9 14  1  0  0  0  0
  9 15  1  0  0  0  0
 10 16  1  0  0  0  0
 10 17  1  0  0  0  0
 10 18  1  0  0  0  0
 19 20  1  0  0  0  0
 19 27  1  0  0  0  0
 19 28  1  0  0  0  0
 20 21  4  0  0  0  0
 20 25  4  0  0  0  0
 21 22  4  0  0  0  0
 21 29  1  0  0  0  0
 22 23  4  0  0  0  0
 22 30  1  0  0  0  0
 23 24  4  0  0  0  0
 23 26  1  0  0  0  0
 24 25  4  0  0  0  0
 24 31  1  0  0  0  0
 25 32  1  0  0  0  0
 26 33  1  0  0  0  0
 26 34  1  0  0  0  0
M  END
> <BCLConfClusterSize>
1

> <ConfClashScore>
0 

> <ConfOneFourInteractionScore>
-0.949001 

> <ConfScore>
0.167511 

> <ConfScorePBest>
0.00538449 

> <ConfTolerance>
0.301608 

> <RosettaParamsInstructions>
M  ROOT 3
M  POLY_N_BB 3
M  POLY_CA_BB 4
M  POLY_C_BB 2
M  POLY_O_BB 5
M  POLY_IGNORE 9 10 11 12 13 14 15 16 17 18 
M  POLY_UPPER 6
M  POLY_LOWER 8
M  POLY_CHG 0
M  POLY_PROPERTIES ALPHA_AA D_AA PROTEIN AROMATIC POLYMER 
M  END

$$$$



 34 34  0  0  0  0  0  0  0  0999 V2000
   -1.2999    4.8117   -1.2787 H   0  0  0  1  0  0  0  0  0  0  0  0
    0.3040    4.1508   -0.0880 C   0  0  0  1  0  0  0  0  0  0  0  0
   -2.0738    4.2692    0.5490 N   0  0  0  1  0  0  0  0  0  0  0  0
   -1.1468    4.0318   -0.5622 C   0  0  0  1  0  0  0  0  0  0  0  0
    1.0562    3.2006   -0.2995 O   0  0  0  1  0  0  0  0  0  0  0  0
    0.6345    5.2875    0.5216 N   0  0  0  1  0  0  0  0  0  0  0  0
   -2.8205    4.8901    0.4176 H   0  0  0  1  0  0  0  0  0  0  0  0
   -1.9343    3.6625    1.7460 C   0  0  0  1  0  0  0  0  0  0  0  0
    1.9878    5.5564    0.9844 C   0  0  0  1  0  0  0  0  0  0  0  0
   -2.8502    4.0939    2.8748 C   0  0  0  1  0  0  0  0  0  0  0  0
   -1.0897    2.7848    1.9191 O   0  0  0  1  0  0  0  0  0  0  0  0
   -0.0576    5.9666    0.6635 H   0  0  0  1  0  0  0  0  0  0  0  0
    2.4030    4.6670    1.4104 H   0  0  0  1  0  0  0  0  0  0  0  0
    1.9645    6.3288    1.7246 H   0  0  0  1  0  0  0  0  0  0  0  0
    2.5910    5.8712    0.1586 H   0  0  0  1  0  0  0  0  0  0  0  0
   -2.7805    5.1536    3.0061 H   0  0  0  1  0  0  0  0  0  0  0  0
   -2.5571    3.6027    3.7791 H   0  0  0  1  0  0  0  0  0  0  0  0
   -3.8592    3.8299    2.6358 H   0  0  0  1  0  0  0  0  0  0  0  0
   -1.4090    2.7202   -1.2842 C   0  0  0  1  0  0  0  0  0  0  0  0
   -2.7853    2.5733   -1.8760 C   0  0  0  1  0  0  0  0  0  0  0  0
   -3.0360    3.0141   -3.1618 C   0  0  0  1  0  0  0  0  0  0  0  0
   -4.3023    2.8737   -3.7081 C   0  0  0  1  0  0  0  0  0  0  0  0
   -5.3154    2.2977   -2.9651 C   0  0  0  1  0  0  0  0  0  0  0  0
   -5.0640    1.8556   -1.6756 C   0  0  0  1  0  0  0  0  0  0  0  0
   -3.8015    1.9957   -1.1310 C   0  0  0  1  0  0  0  0  0  0  0  0
   -6.6089    2.1593   -3.5205 N   0  0  0  1  0  0  0  0  0  0  0  0
   -1.2637    1.9236   -0.5847 H   0  0  0  1  0  0  0  0  0  0  0  0
   -0.6972    2.6325   -2.0783 H   0  0  0  1  0  0  0  0  0  0  0  0
   -2.2747    3.4511   -3.7194 H   0  0  0  1  0  0  0  0  0  0  0  0
   -4.4899    3.2017   -4.6771 H   0  0  0  1  0  0  0  0  0  0  0  0
   -5.8254    1.4185   -1.1179 H   0  0  0  1  0  0  0  0  0  0  0  0
   -3.6139    1.6676   -0.1621 H   0  0  0  1  0  0  0  0  0  0  0  0
   -7.3618    1.8985   -2.9500 H   0  0  0  1  0  0  0  0  0  0  0  0
   -6.7521    2.3243   -4.4759 H   0  0  0  1  0  0  0  0  0  0  0  0
  1  4  1  0  0  0  0
  2  4  1  0  0  0  0
  2  5  2  0  0  0  0
  2  6  1  0  0  0  0
  3  4  1  0  0  0  0
  3  7  1  0  0  0  0
  3  8  1  0  0  0  0
  4 19  1  0  0  0  0
  6  9  1  0  0  0  0
  6 12  1  0  0  0  0
  8 10  1  0  0  0  0
  8 11  2  0  0  0  0
  9 13  1  0  0  0  0
  9 14  1  0  0  0  0
  9 15  1  0  0  0  0
 10 16  1  0  0  0  0
 10 17  1  0  0  0  0
 10 18  1  0  0  0  0
 19 20  1  0  0  0  0
 19 27  1  0  0  0  0
 19 28  1  0  0  0  0
 20 21  4  0  0  0  0
 20 25  4  0  0  0  0
 21 22  4  0  0  0  0
 21 29  1  0  0  0  0
 22 23  4  0  0  0  0
 22 30  1  0  0  0  0
 23 24  4  0  0  0  0
 23 26  1  0  0  0  0
 24 25  4  0  0  0  0
 24 31  1  0  0  0  0
 25 32  1  0  0  0  0
 26 33  1  0  0  0  0
 26 34  1  0  0  0  0
M  END
> <BCLConfClusterSize>
1

> <ConfClashScore>
0 

> <ConfOneFourInteractionScore>
-0.976539 

> <ConfScore>
0.167959 

> <ConfScorePBest>
0.00535601 

> <ConfTolerance>
0.24972 

> <RosettaParamsInstructions>
M  ROOT 3
M  POLY_N_BB 3
M  POLY_CA_BB 4
M  POLY_C_BB 2
M  POLY_O_BB 5
M  POLY_IGNORE 9 10 11 12 13 14 15 16 17 18 
M  POLY_UPPER 6
M  POLY_LOWER 8
M  POLY_CHG 0
M  POLY_PROPERTIES ALPHA_AA D_AA PROTEIN AROMATIC POLYMER 
M  END

$$$$



 34 34  0  0  0  0  0  0  0  0999 V2000
   -2.0444    4.1438    0.1556 H   0  0  0  1  0  0  0  0  0  0  0  0
   -1.2461    5.2237   -1.4992 C   0  0  0  1  0  0  0  0  0  0  0  0
    0.0182    3.9852    0.2393 N   0  0  0  1  0  0  0  0  0  0  0  0
   -1.2244    4.0343   -0.5230 C   0  0  0  1  0  0  0  0  0  0  0  0
   -1.0843    5.0563   -2.7371 O   0  0  0  1  0  0  0  0  0  0  0  0
   -1.4524    6.4659   -0.9281 N   0  0  0  1  0  0  0  0  0  0  0  0
    0.6321    3.2350    0.0953 H   0  0  0  1  0  0  0  0  0  0  0  0
    0.3500    4.9313    1.1309 C   0  0  0  1  0  0  0  0  0  0  0  0
   -1.5645    7.6788   -1.7245 C   0  0  0  1  0  0  0  0  0  0  0  0
    1.7685    4.8668    1.6628 C   0  0  0  1  0  0  0  0  0  0  0  0
   -0.4265    5.7961    1.5018 O   0  0  0  1  0  0  0  0  0  0  0  0
   -1.5257    6.5319    0.0470 H   0  0  0  1  0  0  0  0  0  0  0  0
   -1.0451    7.5472   -2.6506 H   0  0  0  1  0  0  0  0  0  0  0  0
   -1.1344    8.4985   -1.1879 H   0  0  0  1  0  0  0  0  0  0  0  0
   -2.5966    7.8823   -1.9204 H   0  0  0  1  0  0  0  0  0  0  0  0
    2.4249    5.3820    0.9930 H   0  0  0  1  0  0  0  0  0  0  0  0
    2.0726    3.8442    1.7438 H   0  0  0  1  0  0  0  0  0  0  0  0
    1.8089    5.3289    2.6271 H   0  0  0  1  0  0  0  0  0  0  0  0
   -1.4099    2.7237   -1.2830 C   0  0  0  1  0  0  0  0  0  0  0  0
   -2.7858    2.5752   -1.8754 C   0  0  0  1  0  0  0  0  0  0  0  0
   -3.0316    2.9978   -3.1681 C   0  0  0  1  0  0  0  0  0  0  0  0
   -4.2974    2.8559   -3.7150 C   0  0  0  1  0  0  0  0  0  0  0  0
   -5.3151    2.2967   -2.9654 C   0  0  0  1  0  0  0  0  0  0  0  0
   -5.0688    1.8728   -1.6688 C   0  0  0  1  0  0  0  0  0  0  0  0
   -3.8066    2.0144   -1.1238 C   0  0  0  1  0  0  0  0  0  0  0  0
   -6.6082    2.1569   -3.5214 N   0  0  0  1  0  0  0  0  0  0  0  0
   -1.2405    1.9114   -0.6074 H   0  0  0  1  0  0  0  0  0  0  0  0
   -0.6919    2.6849   -2.0754 H   0  0  0  1  0  0  0  0  0  0  0  0
   -2.2667    3.4223   -3.7307 H   0  0  0  1  0  0  0  0  0  0  0  0
   -4.4814    3.1702   -4.6891 H   0  0  0  1  0  0  0  0  0  0  0  0
   -5.8336    1.4484   -1.1063 H   0  0  0  1  0  0  0  0  0  0  0  0
   -3.6227    1.7000   -0.1496 H   0  0  0  1  0  0  0  0  0  0  0  0
   -7.3096    1.6915   -3.0196 H   0  0  0  1  0  0  0  0  0  0  0  0
   -6.8027    2.5255   -4.4084 H   0  0  0  1  0  0  0  0  0  0  0  0
  1  4  1  0  0  0  0
  2  4  1  0  0  0  0
  2  5  2  0  0  0  0
  2  6  1  0  0  0  0
  3  4  1  0  0  0  0
  3  7  1  0  0  0  0
  3  8  1  0  0  0  0
  4 19  1  0  0  0  0
  6  9  1  0  0  0  0
  6 12  1  0  0  0  0
  8 10  1  0  0  0  0
  8 11  2  0  0  0  0
  9 13  1  0  0  0  0
  9 14  1  0  0  0  0
  9 15  1  0  0  0  0
 10 16  1  0  0  0  0
 10 17  1  0  0  0  0
 10 18  1  0  0  0  0
 19 20  1  0  0  0  0
 19 27  1  0  0  0  0
 19 28  1  0  0  0  0
 20 21  4  0  0  0  0
 20 25  4  0  0  0  0
 21 22  4  0  0  0  0
 21 29  1  0  0  0  0
 22 23  4  0  0  0  0
 22 30  1  0  0  0  0
 23 24  4  0  0  0  0
 23 26  1  0  0  0  0
 24 25  4  0  0  0  0
 24 31  1  0  0  0  0
 25 32  1  0  0  0  0
 26 33  1  0  0  0  0
 26 34  1  0  0  0  0
M  END
> <BCLConfClusterSize>
1

> <ConfClashScore>
0.000994661 

> <ConfOneFourInteractionScore>
-0.979134 

> <ConfScore>
0.168513 

> <ConfScorePBest>
0.00532753 

> <ConfTolerance>
0.403759 

> <RosettaParamsInstructions>
M  ROOT 3
M  POLY_N_BB 3
M  POLY_CA_BB 4
M  POLY_C_BB 2
M  POLY_O_BB 5
M  POLY_IGNORE 9 10 11 12 13 14 15 16 17 18 
M  POLY_UPPER 6
M  POLY_LOWER 8
M  POLY_CHG 0
M  POLY_PROPERTIES ALPHA_AA D_AA PROTEIN AROMATIC POLYMER 
M  END

$$$$



 34 34  0  0  0  0  0  0  0  0999 V2000
    0.4055    1.7674   -0.9353 H   0  0  0  1  0  0  0  0  0  0  0  0
   -0.1541    1.3484   -2.9211 C   0  0  0  1  0  0  0  0  0  0  0  0
   -1.1110    0.3871   -0.8220 N   0  0  0  1  0  0  0  0  0  0  0  0
   -0.5080    1.5534   -1.4498 C   0  0  0  1  0  0  0  0  0  0  0  0
   -0.0114    2.2586   -3.7217 O   0  0  0  1  0  0  0  0  0  0  0  0
    0.0001    0.0752   -3.3154 N   0  0  0  1  0  0  0  0  0  0  0  0
   -0.7917    0.0830    0.0531 H   0  0  0  1  0  0  0  0  0  0  0  0
   -2.1032   -0.2726   -1.4390 C   0  0  0  1  0  0  0  0  0  0  0  0
    0.3253   -0.2261   -4.7015 C   0  0  0  1  0  0  0  0  0  0  0  0
   -2.6486   -1.4396   -0.6392 C   0  0  0  1  0  0  0  0  0  0  0  0
   -2.5482    0.0127   -2.5385 O   0  0  0  1  0  0  0  0  0  0  0  0
   -0.1065   -0.6533   -2.6687 H   0  0  0  1  0  0  0  0  0  0  0  0
   -0.5586   -0.1524   -5.3000 H   0  0  0  1  0  0  0  0  0  0  0  0
    0.7187   -1.2190   -4.7676 H   0  0  0  1  0  0  0  0  0  0  0  0
    1.0550    0.4715   -5.0562 H   0  0  0  1  0  0  0  0  0  0  0  0
   -3.5482   -1.7962   -1.0958 H   0  0  0  1  0  0  0  0  0  0  0  0
   -2.8587   -1.1197    0.3600 H   0  0  0  1  0  0  0  0  0  0  0  0
   -1.9239   -2.2265   -0.6173 H   0  0  0  1  0  0  0  0  0  0  0  0
   -1.3907    2.7918   -1.3259 C   0  0  0  1  0  0  0  0  0  0  0  0
   -2.7967    2.5732   -1.8472 C   0  0  0  1  0  0  0  0  0  0  0  0
   -3.0316    3.0102   -3.1372 C   0  0  0  1  0  0  0  0  0  0  0  0
   -4.2856    2.8500   -3.7059 C   0  0  0  1  0  0  0  0  0  0  0  0
   -5.3025    2.2580   -2.9808 C   0  0  0  1  0  0  0  0  0  0  0  0
   -5.0671    1.8197   -1.6870 C   0  0  0  1  0  0  0  0  0  0  0  0
   -3.8168    1.9795   -1.1202 C   0  0  0  1  0  0  0  0  0  0  0  0
   -6.6151    2.1863   -3.5307 N   0  0  0  1  0  0  0  0  0  0  0  0
   -0.9411    3.5875   -1.8822 H   0  0  0  1  0  0  0  0  0  0  0  0
   -1.4491    3.0664   -0.2934 H   0  0  0  1  0  0  0  0  0  0  0  0
   -2.2674    3.4593   -3.6813 H   0  0  0  1  0  0  0  0  0  0  0  0
   -4.4612    3.1753   -4.6780 H   0  0  0  1  0  0  0  0  0  0  0  0
   -5.8313    1.3706   -1.1430 H   0  0  0  1  0  0  0  0  0  0  0  0
   -3.6412    1.6542   -0.1481 H   0  0  0  1  0  0  0  0  0  0  0  0
   -6.8024    2.5860   -4.4056 H   0  0  0  1  0  0  0  0  0  0  0  0
   -7.3306    1.7372   -3.0339 H   0  0  0  1  0  0  0  0  0  0  0  0
  1  4  1  0  0  0  0
  2  4  1  0  0  0  0
  2  5  2  0  0  0  0
  2  6  1  0  0  0  0
  3  4  1  0  0  0  0
  3  7  1  0  0  0  0
  3  8  1  0  0  0  0
  4 19  1  0  0  0  0
  6  9  1  0  0  0  0
  6 12  1  0  0  0  0
  8 10  1  0  0  0  0
  8 11  2  0  0  0  0
  9 13  1  0  0  0  0
  9 14  1  0  0  0  0
  9 15  1  0  0  0  0
 10 16  1  0  0  0  0
 10 17  1  0  0  0  0
 10 18  1  0  0  0  0
 19 20  1  0  0  0  0
 19 27  1  0  0  0  0
 19 28  1  0  0  0  0
 20 21  4  0  0  0  0
 20 25  4  0  0  0  0
 21 22  4  0  0  0  0
 21 29  1  0  0  0  0
 22 23  4  0  0  0  0
 22 30  1  0  0  0  0
 23 24  4  0  0  0  0
 23 26  1  0  0  0  0
 24 25  4  0  0  0  0
 24 31  1  0  0  0  0
 25 32  1  0  0  0  0
 26 33  1  0  0  0  0
 26 34  1  0  0  0  0
M  END
> <BCLConfClusterSize>
1

> <ConfClashScore>
0 

> <ConfOneFourInteractionScore>
-0.928983 

> <ConfScore>
0.168989 

> <ConfScorePBest>
0.00529905 

> <ConfTolerance>
0.248812 

> <RosettaParamsInstructions>
M  ROOT 3
M  POLY_N_BB 3
M  POLY_CA_BB 4
M  POLY_C_BB 2
M  POLY_O_BB 5
M  POLY_IGNORE 9 10 11 12 13 14 15 16 17 18 
M  POLY_UPPER 6
M  POLY_LOWER 8
M  POLY_CHG 0
M  POLY_PROPERTIES ALPHA_AA D_AA PROTEIN AROMATIC POLYMER 
M  END

$$$$



 34 34  0  0  0  0  0  0  0  0999 V2000
   -0.2787    1.8059   -2.7892 H   0  0  0  1  0  0  0  0  0  0  0  0
   -0.9449    0.2300   -1.5685 C   0  0  0  1  0  0  0  0  0  0  0  0
    0.8483    1.7961   -1.0548 N   0  0  0  1  0  0  0  0  0  0  0  0
   -0.4420    1.6497   -1.7433 C   0  0  0  1  0  0  0  0  0  0  0  0
   -2.1276   -0.0369   -1.7090 O   0  0  0  1  0  0  0  0  0  0  0  0
   -0.0559   -0.7174   -1.2568 N   0  0  0  1  0  0  0  0  0  0  0  0
    1.6002    2.2274   -1.5119 H   0  0  0  1  0  0  0  0  0  0  0  0
    0.9987    1.3406    0.1982 C   0  0  0  1  0  0  0  0  0  0  0  0
   -0.4569   -2.0510   -0.8342 C   0  0  0  1  0  0  0  0  0  0  0  0
    2.3140    1.6835    0.8703 C   0  0  0  1  0  0  0  0  0  0  0  0
    0.1374    0.6862    0.7798 O   0  0  0  1  0  0  0  0  0  0  0  0
    0.8995   -0.5069   -1.3147 H   0  0  0  1  0  0  0  0  0  0  0  0
   -1.5244   -2.1037   -0.7835 H   0  0  0  1  0  0  0  0  0  0  0  0
   -0.0436   -2.2584    0.1307 H   0  0  0  1  0  0  0  0  0  0  0  0
   -0.0976   -2.7713   -1.5391 H   0  0  0  1  0  0  0  0  0  0  0  0
    3.1256    1.3849    0.2402 H   0  0  0  1  0  0  0  0  0  0  0  0
    2.3810    1.1686    1.8059 H   0  0  0  1  0  0  0  0  0  0  0  0
    2.3635    2.7389    1.0390 H   0  0  0  1  0  0  0  0  0  0  0  0
   -1.4149    2.7175   -1.2706 C   0  0  0  1  0  0  0  0  0  0  0  0
   -2.7864    2.5747   -1.8745 C   0  0  0  1  0  0  0  0  0  0  0  0
   -3.0208    3.0028   -3.1676 C   0  0  0  1  0  0  0  0  0  0  0  0
   -4.2826    2.8661   -3.7251 C   0  0  0  1  0  0  0  0  0  0  0  0
   -5.3076    2.3065   -2.9858 C   0  0  0  1  0  0  0  0  0  0  0  0
   -5.0726    1.8771   -1.6889 C   0  0  0  1  0  0  0  0  0  0  0  0
   -3.8145    2.0135   -1.1333 C   0  0  0  1  0  0  0  0  0  0  0  0
   -6.6149    2.1478   -3.5021 N   0  0  0  1  0  0  0  0  0  0  0  0
   -1.0236    3.6770   -1.5373 H   0  0  0  1  0  0  0  0  0  0  0  0
   -1.5028    2.6510   -0.2063 H   0  0  0  1  0  0  0  0  0  0  0  0
   -2.2505    3.4276   -3.7224 H   0  0  0  1  0  0  0  0  0  0  0  0
   -4.4579    3.1846   -4.6994 H   0  0  0  1  0  0  0  0  0  0  0  0
   -5.8429    1.4524   -1.1341 H   0  0  0  1  0  0  0  0  0  0  0  0
   -3.6392    1.6950   -0.1589 H   0  0  0  1  0  0  0  0  0  0  0  0
   -7.3022    1.6996   -2.9663 H   0  0  0  1  0  0  0  0  0  0  0  0
   -6.8332    2.4860   -4.3956 H   0  0  0  1  0  0  0  0  0  0  0  0
  1  4  1  0  0  0  0
  2  4  1  0  0  0  0
  2  5  2  0  0  0  0
  2  6  1  0  0  0  0
  3  4  1  0  0  0  0
  3  7  1  0  0  0  0
  3  8  1  0  0  0  0
  4 19  1  0  0  0  0
  6  9  1  0  0  0  0
  6 12  1  0  0  0  0
  8 10  1  0  0  0  0
  8 11  2  0  0  0  0
  9 13  1  0  0  0  0
  9 14  1  0  0  0  0
  9 15  1  0  0  0  0
 10 16  1  0  0  0  0
 10 17  1  0  0  0  0
 10 18  1  0  0  0  0
 19 20  1  0  0  0  0
 19 27  1  0  0  0  0
 19 28  1  0  0  0  0
 20 21  4  0  0  0  0
 20 25  4  0  0  0  0
 21 22  4  0  0  0  0
 21 29  1  0  0  0  0
 22 23  4  0  0  0  0
 22 30  1  0  0  0  0
 23 24  4  0  0  0  0
 23 26  1  0  0  0  0
 24 25  4  0  0  0  0
 24 31  1  0  0  0  0
 25 32  1  0  0  0  0
 26 33  1  0  0  0  0
 26 34  1  0  0  0  0
M  END
> <BCLConfClusterSize>
1

> <ConfClashScore>
0 

> <ConfOneFourInteractionScore>
-0.957723 

> <ConfScore>
0.169565 

> <ConfScorePBest>
0.00527057 

> <ConfTolerance>
0.280483 

> <RosettaParamsInstructions>
M  ROOT 3
M  POLY_N_BB 3
M  POLY_CA_BB 4
M  POLY_C_BB 2
M  POLY_O_BB 5
M  POLY_IGNORE 9 10 11 12 13 14 15 16 17 18 
M  POLY_UPPER 6
M  POLY_LOWER 8
M  POLY_CHG 0
M  POLY_PROPERTIES ALPHA_AA D_AA PROTEIN AROMATIC POLYMER 
M  END

$$$$



 34 34  0  0  0  0  0  0  0  0999 V2000
   -0.9523    0.6537   -1.2701 H   0  0  0  1  0  0  0  0  0  0  0  0
    0.7943    1.7312   -0.6899 C   0  0  0  1  0  0  0  0  0  0  0  0
   -0.0253    1.5072   -2.9283 N   0  0  0  1  0  0  0  0  0  0  0  0
   -0.4613    1.5650   -1.5411 C   0  0  0  1  0  0  0  0  0  0  0  0
    1.7770    2.3333   -1.1144 O   0  0  0  1  0  0  0  0  0  0  0  0
    0.7464    1.1815    0.5331 N   0  0  0  1  0  0  0  0  0  0  0  0
   -0.3554    2.1832   -3.5564 H   0  0  0  1  0  0  0  0  0  0  0  0
    0.8093    0.5645   -3.3754 C   0  0  0  1  0  0  0  0  0  0  0  0
    1.8880    1.1923    1.4355 C   0  0  0  1  0  0  0  0  0  0  0  0
    1.1424    0.6268   -4.8533 C   0  0  0  1  0  0  0  0  0  0  0  0
    1.2861   -0.3048   -2.6507 O   0  0  0  1  0  0  0  0  0  0  0  0
   -0.0864    0.7579    0.8290 H   0  0  0  1  0  0  0  0  0  0  0  0
    2.4461    2.0943    1.2947 H   0  0  0  1  0  0  0  0  0  0  0  0
    2.5142    0.3497    1.2283 H   0  0  0  1  0  0  0  0  0  0  0  0
    1.5432    1.1408    2.4472 H   0  0  0  1  0  0  0  0  0  0  0  0
    1.1670   -0.3642   -5.2560 H   0  0  0  1  0  0  0  0  0  0  0  0
    2.0988    1.0885   -4.9840 H   0  0  0  1  0  0  0  0  0  0  0  0
    0.3964    1.2002   -5.3630 H   0  0  0  1  0  0  0  0  0  0  0  0
   -1.4057    2.7303   -1.2953 C   0  0  0  1  0  0  0  0  0  0  0  0
   -2.7858    2.5760   -1.8762 C   0  0  0  1  0  0  0  0  0  0  0  0
   -3.0417    2.9888   -3.1702 C   0  0  0  1  0  0  0  0  0  0  0  0
   -4.3115    2.8415   -3.7065 C   0  0  0  1  0  0  0  0  0  0  0  0
   -5.3229    2.2868   -2.9452 C   0  0  0  1  0  0  0  0  0  0  0  0
   -5.0664    1.8728   -1.6474 C   0  0  0  1  0  0  0  0  0  0  0  0
   -3.8003    2.0197   -1.1129 C   0  0  0  1  0  0  0  0  0  0  0  0
   -6.6002    2.1655   -3.5406 N   0  0  0  1  0  0  0  0  0  0  0  0
   -0.9648    3.6078   -1.7203 H   0  0  0  1  0  0  0  0  0  0  0  0
   -1.5051    2.8572   -0.2375 H   0  0  0  1  0  0  0  0  0  0  0  0
   -2.2816    3.4099   -3.7416 H   0  0  0  1  0  0  0  0  0  0  0  0
   -4.5031    3.1484   -4.6815 H   0  0  0  1  0  0  0  0  0  0  0  0
   -5.8265    1.4517   -1.0760 H   0  0  0  1  0  0  0  0  0  0  0  0
   -3.6088    1.7128   -0.1378 H   0  0  0  1  0  0  0  0  0  0  0  0
   -7.2986    1.6384   -3.0991 H   0  0  0  1  0  0  0  0  0  0  0  0
   -6.7869    2.6085   -4.3946 H   0  0  0  1  0  0  0  0  0  0  0  0
  1  4  1  0  0  0  0
  2  4  1  0  0  0  0
  2  5  2  0  0  0  0
  2  6  1  0  0  0  0
  3  4  1  0  0  0  0
  3  7  1  0  0  0  0
  3  8  1  0  0  0  0
  4 19  1  0  0  0  0
  6  9  1  0  0  0  0
  6 12  1  0  0  0  0
  8 10  1  0  0  0  0
  8 11  2  0  0  0  0
  9 13  1  0  0  0  0
  9 14  1  0  0  0  0
  9 15  1  0  0  0  0
 10 16  1  0  0  0  0
 10 17  1  0  0  0  0
 10 18  1  0  0  0  0
 19 20  1  0  0  0  0
 19 27  1  0  0  0  0
 19 28  1  0  0  0  0
 20 21  4  0  0  0  0
 20 25  4  0  0  0  0
 21 22  4  0  0  0  0
 21 29  1  0  0  0  0
 22 23  4  0  0  0  0
 22 30  1  0  0  0  0
 23 24  4  0  0  0  0
 23 26  1  0  0  0  0
 24 25  4  0  0  0  0
 24 31  1  0  0  0  0
 25 32  1  0  0  0  0
 26 33  1  0  0  0  0
 26 34  1  0  0  0  0
M  END
> <BCLConfClusterSize>
1

> <ConfClashScore>
0 

> <ConfOneFourInteractionScore>
-0.981931 

> <ConfScore>
0.169917 

> <ConfScorePBest>
0.00524209 

> <ConfTolerance>
0.431056 

> <RosettaParamsInstructions>
M  ROOT 3
M  POLY_N_BB 3
M  POLY_CA_BB 4
M  POLY_C_BB 2
M  POLY_O_BB 5
M  POLY_IGNORE 9 10 11 12 13 14 15 16 17 18 
M  POLY_UPPER 6
M  POLY_LOWER 8
M  POLY_CHG 0
M  POLY_PROPERTIES ALPHA_AA D_AA PROTEIN AROMATIC POLYMER 
M  END

$$$$



 34 34  0  0  0  0  0  0  0  0999 V2000
   -1.1587    4.7957   -1.4769 H   0  0  0  1  0  0  0  0  0  0  0  0
    0.1899    4.1675    0.0116 C   0  0  0  1  0  0  0  0  0  0  0  0
   -2.2524    4.4526    0.2320 N   0  0  0  1  0  0  0  0  0  0  0  0
   -1.1678    4.0937   -0.6695 C   0  0  0  1  0  0  0  0  0  0  0  0
    0.4281    3.5009    1.0179 O   0  0  0  1  0  0  0  0  0  0  0  0
    1.1136    4.9764   -0.5150 N   0  0  0  1  0  0  0  0  0  0  0  0
   -2.8120    3.7402    0.6059 H   0  0  0  1  0  0  0  0  0  0  0  0
   -2.5139    5.7302    0.5705 C   0  0  0  1  0  0  0  0  0  0  0  0
    2.4416    5.1215    0.0640 C   0  0  0  1  0  0  0  0  0  0  0  0
   -3.6084    5.8734    1.6101 C   0  0  0  1  0  0  0  0  0  0  0  0
   -1.9395    6.7092    0.1014 O   0  0  0  1  0  0  0  0  0  0  0  0
    0.8895    5.4900   -1.3191 H   0  0  0  1  0  0  0  0  0  0  0  0
    2.3554    5.4638    1.0741 H   0  0  0  1  0  0  0  0  0  0  0  0
    3.0034    5.8316   -0.5061 H   0  0  0  1  0  0  0  0  0  0  0  0
    2.9420    4.1759    0.0496 H   0  0  0  1  0  0  0  0  0  0  0  0
   -4.1857    6.7500    1.4025 H   0  0  0  1  0  0  0  0  0  0  0  0
   -3.1682    5.9584    2.5817 H   0  0  0  1  0  0  0  0  0  0  0  0
   -4.2436    5.0128    1.5798 H   0  0  0  1  0  0  0  0  0  0  0  0
   -1.4150    2.7156   -1.2691 C   0  0  0  1  0  0  0  0  0  0  0  0
   -2.7886    2.5707   -1.8677 C   0  0  0  1  0  0  0  0  0  0  0  0
   -3.0317    3.0097   -3.1555 C   0  0  0  1  0  0  0  0  0  0  0  0
   -4.2954    2.8712   -3.7082 C   0  0  0  1  0  0  0  0  0  0  0  0
   -5.3137    2.2989   -2.9692 C   0  0  0  1  0  0  0  0  0  0  0  0
   -5.0700    1.8587   -1.6776 C   0  0  0  1  0  0  0  0  0  0  0  0
   -3.8100    1.9969   -1.1268 C   0  0  0  1  0  0  0  0  0  0  0  0
   -6.6046    2.1626   -3.5311 N   0  0  0  1  0  0  0  0  0  0  0  0
   -1.3008    1.9830   -0.4976 H   0  0  0  1  0  0  0  0  0  0  0  0
   -0.6893    2.5427   -2.0361 H   0  0  0  1  0  0  0  0  0  0  0  0
   -2.2665    3.4439   -3.7100 H   0  0  0  1  0  0  0  0  0  0  0  0
   -4.4773    3.1978   -4.6786 H   0  0  0  1  0  0  0  0  0  0  0  0
   -5.8353    1.4245   -1.1231 H   0  0  0  1  0  0  0  0  0  0  0  0
   -3.6282    1.6702   -0.1563 H   0  0  0  1  0  0  0  0  0  0  0  0
   -6.7717    2.4544   -4.4516 H   0  0  0  1  0  0  0  0  0  0  0  0
   -7.3319    1.7762   -2.9999 H   0  0  0  1  0  0  0  0  0  0  0  0
  1  4  1  0  0  0  0
  2  4  1  0  0  0  0
  2  5  2  0  0  0  0
  2  6  1  0  0  0  0
  3  4  1  0  0  0  0
  3  7  1  0  0  0  0
  3  8  1  0  0  0  0
  4 19  1  0  0  0  0
  6  9  1  0  0  0  0
  6 12  1  0  0  0  0
  8 10  1  0  0  0  0
  8 11  2  0  0  0  0
  9 13  1  0  0  0  0
  9 14  1  0  0  0  0
  9 15  1  0  0  0  0
 10 16  1  0  0  0  0
 10 17  1  0  0  0  0
 10 18  1  0  0  0  0
 19 20  1  0  0  0  0
 19 27  1  0  0  0  0
 19 28  1  0  0  0  0
 20 21  4  0  0  0  0
 20 25  4  0  0  0  0
 21 22  4  0  0  0  0
 21 29  1  0  0  0  0
 22 23  4  0  0  0  0
 22 30  1  0  0  0  0
 23 24  4  0  0  0  0
 23 26  1  0  0  0  0
 24 25  4  0  0  0  0
 24 31  1  0  0  0  0
 25 32  1  0  0  0  0
 26 33  1  0  0  0  0
 26 34  1  0  0  0  0
M  END
> <BCLConfClusterSize>
1

> <ConfClashScore>
0 

> <ConfOneFourInteractionScore>
-0.985807 

> <ConfScore>
0.171573 

> <ConfScorePBest>
0.00521361 

> <ConfTolerance>
0.411863 

> <RosettaParamsInstructions>
M  ROOT 3
M  POLY_N_BB 3
M  POLY_CA_BB 4
M  POLY_C_BB 2
M  POLY_O_BB 5
M  POLY_IGNORE 9 10 11 12 13 14 15 16 17 18 
M  POLY_UPPER 6
M  POLY_LOWER 8
M  POLY_CHG 0
M  POLY_PROPERTIES ALPHA_AA D_AA PROTEIN AROMATIC POLYMER 
M  END

$$$$



 34 34  0  0  0  0  0  0  0  0999 V2000
   -0.3614    2.5903    0.5333 H   0  0  0  1  0  0  0  0  0  0  0  0
   -1.6004    0.8879    0.4215 C   0  0  0  1  0  0  0  0  0  0  0  0
   -2.2783    3.2652    0.8779 N   0  0  0  1  0  0  0  0  0  0  0  0
   -1.3533    2.3722    0.1962 C   0  0  0  1  0  0  0  0  0  0  0  0
   -1.1806    0.0486   -0.3779 O   0  0  0  1  0  0  0  0  0  0  0  0
   -2.2879    0.5214    1.5147 N   0  0  0  1  0  0  0  0  0  0  0  0
   -2.9071    3.7931    0.3428 H   0  0  0  1  0  0  0  0  0  0  0  0
   -2.3003    3.3917    2.2210 C   0  0  0  1  0  0  0  0  0  0  0  0
   -2.4875   -0.8742    1.8759 C   0  0  0  1  0  0  0  0  0  0  0  0
   -3.2140    4.4359    2.8217 C   0  0  0  1  0  0  0  0  0  0  0  0
   -1.5984    2.6797    2.9380 O   0  0  0  1  0  0  0  0  0  0  0  0
   -2.6686    1.2178    2.0895 H   0  0  0  1  0  0  0  0  0  0  0  0
   -3.4699   -1.0015    2.2802 H   0  0  0  1  0  0  0  0  0  0  0  0
   -1.7611   -1.1603    2.6076 H   0  0  0  1  0  0  0  0  0  0  0  0
   -2.3781   -1.4867    1.0054 H   0  0  0  1  0  0  0  0  0  0  0  0
   -2.7949    5.4083    2.6680 H   0  0  0  1  0  0  0  0  0  0  0  0
   -3.3202    4.2553    3.8710 H   0  0  0  1  0  0  0  0  0  0  0  0
   -4.1735    4.3829    2.3512 H   0  0  0  1  0  0  0  0  0  0  0  0
   -1.3991    2.6616   -1.2984 C   0  0  0  1  0  0  0  0  0  0  0  0
   -2.7904    2.5951   -1.8694 C   0  0  0  1  0  0  0  0  0  0  0  0
   -3.0324    3.0019   -3.1680 C   0  0  0  1  0  0  0  0  0  0  0  0
   -4.2958    2.8501   -3.7179 C   0  0  0  1  0  0  0  0  0  0  0  0
   -5.3148    2.2967   -2.9657 C   0  0  0  1  0  0  0  0  0  0  0  0
   -5.0721    1.8887   -1.6633 C   0  0  0  1  0  0  0  0  0  0  0  0
   -3.8125    2.0401   -1.1152 C   0  0  0  1  0  0  0  0  0  0  0  0
   -6.6053    2.1467   -3.5249 N   0  0  0  1  0  0  0  0  0  0  0  0
   -0.7890    1.9422   -1.8034 H   0  0  0  1  0  0  0  0  0  0  0  0
   -1.0082    3.6431   -1.4674 H   0  0  0  1  0  0  0  0  0  0  0  0
   -2.2667    3.4220   -3.7326 H   0  0  0  1  0  0  0  0  0  0  0  0
   -4.4769    3.1525   -4.6963 H   0  0  0  1  0  0  0  0  0  0  0  0
   -5.8379    1.4686   -1.0988 H   0  0  0  1  0  0  0  0  0  0  0  0
   -3.6314    1.7377   -0.1368 H   0  0  0  1  0  0  0  0  0  0  0  0
   -7.2636    1.5658   -3.0894 H   0  0  0  1  0  0  0  0  0  0  0  0
   -6.8412    2.6238   -4.3478 H   0  0  0  1  0  0  0  0  0  0  0  0
  1  4  1  0  0  0  0
  2  4  1  0  0  0  0
  2  5  2  0  0  0  0
  2  6  1  0  0  0  0
  3  4  1  0  0  0  0
  3  7  1  0  0  0  0
  3  8  1  0  0  0  0
  4 19  1  0  0  0  0
  6  9  1  0  0  0  0
  6 12  1  0  0  0  0
  8 10  1  0  0  0  0
  8 11  2  0  0  0  0
  9 13  1  0  0  0  0
  9 14  1  0  0  0  0
  9 15  1  0  0  0  0
 10 16  1  0  0  0  0
 10 17  1  0  0  0  0
 10 18  1  0  0  0  0
 19 20  1  0  0  0  0
 19 27  1  0  0  0  0
 19 28  1  0  0  0  0
 20 21  4  0  0  0  0
 20 25  4  0  0  0  0
 21 22  4  0  0  0  0
 21 29  1  0  0  0  0
 22 23  4  0  0  0  0
 22 30  1  0  0  0  0
 23 24  4  0  0  0  0
 23 26  1  0  0  0  0
 24 25  4  0  0  0  0
 24 31  1  0  0  0  0
 25 32  1  0  0  0  0
 26 33  1  0  0  0  0
 26 34  1  0  0  0  0
M  END
> <BCLConfClusterSize>
1

> <ConfClashScore>
0.00179912 

> <ConfOneFourInteractionScore>
-0.942805 

> <ConfScore>
0.174264 

> <ConfScorePBest>
0.00518512 

> <ConfTolerance>
0.446703 

> <RosettaParamsInstructions>
M  ROOT 3
M  POLY_N_BB 3
M  POLY_CA_BB 4
M  POLY_C_BB 2
M  POLY_O_BB 5
M  POLY_IGNORE 9 10 11 12 13 14 15 16 17 18 
M  POLY_UPPER 6
M  POLY_LOWER 8
M  POLY_CHG 0
M  POLY_PROPERTIES ALPHA_AA D_AA PROTEIN AROMATIC POLYMER 
M  END

$$$$



 34 34  0  0  0  0  0  0  0  0999 V2000
   -0.1431    4.1453   -0.3818 H   0  0  0  1  0  0  0  0  0  0  0  0
   -2.0238    4.3101    0.5347 C   0  0  0  1  0  0  0  0  0  0  0  0
   -1.3454    5.1422   -1.7277 N   0  0  0  1  0  0  0  0  0  0  0  0
   -1.1644    4.1147   -0.6993 C   0  0  0  1  0  0  0  0  0  0  0  0
   -2.8016    5.2339    0.6824 O   0  0  0  1  0  0  0  0  0  0  0  0
   -1.8874    3.3895    1.4933 N   0  0  0  1  0  0  0  0  0  0  0  0
   -1.2928    4.8393   -2.6582 H   0  0  0  1  0  0  0  0  0  0  0  0
   -1.5735    6.4426   -1.5415 C   0  0  0  1  0  0  0  0  0  0  0  0
   -2.5810    3.4868    2.7689 C   0  0  0  1  0  0  0  0  0  0  0  0
   -1.6257    7.2888   -2.7986 C   0  0  0  1  0  0  0  0  0  0  0  0
   -1.7335    6.9411   -0.4305 O   0  0  0  1  0  0  0  0  0  0  0  0
   -1.2999    2.6220    1.3317 H   0  0  0  1  0  0  0  0  0  0  0  0
   -2.0350    4.1331    3.4239 H   0  0  0  1  0  0  0  0  0  0  0  0
   -2.6561    2.5143    3.2089 H   0  0  0  1  0  0  0  0  0  0  0  0
   -3.5619    3.8845    2.6119 H   0  0  0  1  0  0  0  0  0  0  0  0
   -2.1884    8.1785   -2.6072 H   0  0  0  1  0  0  0  0  0  0  0  0
   -2.0943    6.7326   -3.5834 H   0  0  0  1  0  0  0  0  0  0  0  0
   -0.6311    7.5524   -3.0924 H   0  0  0  1  0  0  0  0  0  0  0  0
   -1.3927    2.7488   -1.3335 C   0  0  0  1  0  0  0  0  0  0  0  0
   -2.7888    2.5728   -1.8681 C   0  0  0  1  0  0  0  0  0  0  0  0
   -3.0400    2.9824   -3.1640 C   0  0  0  1  0  0  0  0  0  0  0  0
   -4.3084    2.8363   -3.7037 C   0  0  0  1  0  0  0  0  0  0  0  0
   -5.3234    2.2860   -2.9438 C   0  0  0  1  0  0  0  0  0  0  0  0
   -5.0716    1.8752   -1.6441 C   0  0  0  1  0  0  0  0  0  0  0  0
   -3.8069    2.0209   -1.1062 C   0  0  0  1  0  0  0  0  0  0  0  0
   -6.5991    2.1657   -3.5427 N   0  0  0  1  0  0  0  0  0  0  0  0
   -1.2136    1.9960   -0.5945 H   0  0  0  1  0  0  0  0  0  0  0  0
   -0.7011    2.6284   -2.1410 H   0  0  0  1  0  0  0  0  0  0  0  0
   -2.2772    3.4002   -3.7343 H   0  0  0  1  0  0  0  0  0  0  0  0
   -4.4964    3.1408   -4.6802 H   0  0  0  1  0  0  0  0  0  0  0  0
   -5.8344    1.4574   -1.0738 H   0  0  0  1  0  0  0  0  0  0  0  0
   -3.6190    1.7164   -0.1297 H   0  0  0  1  0  0  0  0  0  0  0  0
   -7.2818    1.5956   -3.1313 H   0  0  0  1  0  0  0  0  0  0  0  0
   -6.8004    2.6526   -4.3691 H   0  0  0  1  0  0  0  0  0  0  0  0
  1  4  1  0  0  0  0
  2  4  1  0  0  0  0
  2  5  2  0  0  0  0
  2  6  1  0  0  0  0
  3  4  1  0  0  0  0
  3  7  1  0  0  0  0
  3  8  1  0  0  0  0
  4 19  1  0  0  0  0
  6  9  1  0  0  0  0
  6 12  1  0  0  0  0
  8 10  1  0  0  0  0
  8 11  2  0  0  0  0
  9 13  1  0  0  0  0
  9 14  1  0  0  0  0
  9 15  1  0  0  0  0
 10 16  1  0  0  0  0
 10 17  1  0  0  0  0
 10 18  1  0  0  0  0
 19 20  1  0  0  0  0
 19 27  1  0  0  0  0
 19 28  1  0  0  0  0
 20 21  4  0  0  0  0
 20 25  4  0  0  0  0
 21 22  4  0  0  0  0
 21 29  1  0  0  0  0
 22 23  4  0  0  0  0
 22 30  1  0  0  0  0
 23 24  4  0  0  0  0
 23 26  1  0  0  0  0
 24 25  4  0  0  0  0
 24 31  1  0  0  0  0
 25 32  1  0  0  0  0
 26 33  1  0  0  0  0
 26 34  1  0  0  0  0
M  END
> <BCLConfClusterSize>
1

> <ConfClashScore>
0 

> <ConfOneFourInteractionScore>
-0.976093 

> <ConfScore>
0.177929 

> <ConfScorePBest>
0.00515664 

> <ConfTolerance>
0.448826 

> <RosettaParamsInstructions>
M  ROOT 3
M  POLY_N_BB 3
M  POLY_CA_BB 4
M  POLY_C_BB 2
M  POLY_O_BB 5
M  POLY_IGNORE 9 10 11 12 13 14 15 16 17 18 
M  POLY_UPPER 6
M  POLY_LOWER 8
M  POLY_CHG 0
M  POLY_PROPERTIES ALPHA_AA D_AA PROTEIN AROMATIC POLYMER 
M  END

$$$$



 34 34  0  0  0  0  0  0  0  0999 V2000
   -1.5380    4.8374   -1.0133 H   0  0  0  1  0  0  0  0  0  0  0  0
    0.0894    4.1678    0.1638 C   0  0  0  1  0  0  0  0  0  0  0  0
   -2.2824    3.9266    0.6887 N   0  0  0  1  0  0  0  0  0  0  0  0
   -1.3163    3.9874   -0.4024 C   0  0  0  1  0  0  0  0  0  0  0  0
    1.0772    3.7869   -0.4588 O   0  0  0  1  0  0  0  0  0  0  0  0
    0.1830    4.8382    1.3230 N   0  0  0  1  0  0  0  0  0  0  0  0
   -2.8244    4.7136    0.9063 H   0  0  0  1  0  0  0  0  0  0  0  0
   -2.4312    2.7909    1.3981 C   0  0  0  1  0  0  0  0  0  0  0  0
    1.4570    5.0657    1.9888 C   0  0  0  1  0  0  0  0  0  0  0  0
   -3.4878    2.8832    2.4817 C   0  0  0  1  0  0  0  0  0  0  0  0
   -1.7887    1.7609    1.2115 O   0  0  0  1  0  0  0  0  0  0  0  0
   -0.6349    5.1866    1.7353 H   0  0  0  1  0  0  0  0  0  0  0  0
    2.2290    5.1729    1.2557 H   0  0  0  1  0  0  0  0  0  0  0  0
    1.6810    4.2338    2.6233 H   0  0  0  1  0  0  0  0  0  0  0  0
    1.3975    5.9577    2.5768 H   0  0  0  1  0  0  0  0  0  0  0  0
   -3.1907    3.6091    3.2095 H   0  0  0  1  0  0  0  0  0  0  0  0
   -3.5982    1.9294    2.9541 H   0  0  0  1  0  0  0  0  0  0  0  0
   -4.4203    3.1761    2.0462 H   0  0  0  1  0  0  0  0  0  0  0  0
   -1.4039    2.7456   -1.2800 C   0  0  0  1  0  0  0  0  0  0  0  0
   -2.7768    2.5432   -1.8861 C   0  0  0  1  0  0  0  0  0  0  0  0
   -3.0313    3.0026   -3.1646 C   0  0  0  1  0  0  0  0  0  0  0  0
   -4.3064    2.8973   -3.6981 C   0  0  0  1  0  0  0  0  0  0  0  0
   -5.3245    2.3376   -2.9493 C   0  0  0  1  0  0  0  0  0  0  0  0
   -5.0694    1.8768   -1.6671 C   0  0  0  1  0  0  0  0  0  0  0  0
   -3.7981    1.9820   -1.1354 C   0  0  0  1  0  0  0  0  0  0  0  0
   -6.6128    2.1463   -3.5272 N   0  0  0  1  0  0  0  0  0  0  0  0
   -1.1652    1.8897   -0.6838 H   0  0  0  1  0  0  0  0  0  0  0  0
   -0.6917    2.8383   -2.0732 H   0  0  0  1  0  0  0  0  0  0  0  0
   -2.2661    3.4274   -3.7264 H   0  0  0  1  0  0  0  0  0  0  0  0
   -4.4969    3.2393   -4.6615 H   0  0  0  1  0  0  0  0  0  0  0  0
   -5.8346    1.4521   -1.1053 H   0  0  0  1  0  0  0  0  0  0  0  0
   -3.6075    1.6400   -0.1719 H   0  0  0  1  0  0  0  0  0  0  0  0
   -7.3701    1.8874   -2.9615 H   0  0  0  1  0  0  0  0  0  0  0  0
   -6.7417    2.2736   -4.4903 H   0  0  0  1  0  0  0  0  0  0  0  0
  1  4  1  0  0  0  0
  2  4  1  0  0  0  0
  2  5  2  0  0  0  0
  2  6  1  0  0  0  0
  3  4  1  0  0  0  0
  3  7  1  0  0  0  0
  3  8  1  0  0  0  0
  4 19  1  0  0  0  0
  6  9  1  0  0  0  0
  6 12  1  0  0  0  0
  8 10  1  0  0  0  0
  8 11  2  0  0  0  0
  9 13  1  0  0  0  0
  9 14  1  0  0  0  0
  9 15  1  0  0  0  0
 10 16  1  0  0  0  0
 10 17  1  0  0  0  0
 10 18  1  0  0  0  0
 19 20  1  0  0  0  0
 19 27  1  0  0  0  0
 19 28  1  0  0  0  0
 20 21  4  0  0  0  0
 20 25  4  0  0  0  0
 21 22  4  0  0  0  0
 21 29  1  0  0  0  0
 22 23  4  0  0  0  0
 22 30  1  0  0  0  0
 23 24  4  0  0  0  0
 23 26  1  0  0  0  0
 24 25  4  0  0  0  0
 24 31  1  0  0  0  0
 25 32  1  0  0  0  0
 26 33  1  0  0  0  0
 26 34  1  0  0  0  0
M  END
> <BCLConfClusterSize>
1

> <ConfClashScore>
1.86734e-05 

> <ConfOneFourInteractionScore>
-0.956972 

> <ConfScore>
0.181584 

> <ConfScorePBest>
0.00512816 

> <ConfTolerance>
0.250273 

> <RosettaParamsInstructions>
M  ROOT 3
M  POLY_N_BB 3
M  POLY_CA_BB 4
M  POLY_C_BB 2
M  POLY_O_BB 5
M  POLY_IGNORE 9 10 11 12 13 14 15 16 17 18 
M  POLY_UPPER 6
M  POLY_LOWER 8
M  POLY_CHG 0
M  POLY_PROPERTIES ALPHA_AA D_AA PROTEIN AROMATIC POLYMER 
M  END

$$$$



 34 34  0  0  0  0  0  0  0  0999 V2000
   -1.7739    3.8582    0.4196 H   0  0  0  1  0  0  0  0  0  0  0  0
   -1.5940    5.2696   -1.1227 C   0  0  0  1  0  0  0  0  0  0  0  0
    0.2289    4.0677   -0.0516 N   0  0  0  1  0  0  0  0  0  0  0  0
   -1.1792    3.9743   -0.4623 C   0  0  0  1  0  0  0  0  0  0  0  0
   -2.0646    6.1954   -0.4587 O   0  0  0  1  0  0  0  0  0  0  0  0
   -1.4343    5.3800   -2.4510 N   0  0  0  1  0  0  0  0  0  0  0  0
    0.7274    3.2303    0.0513 H   0  0  0  1  0  0  0  0  0  0  0  0
    0.8860    5.2180    0.1941 C   0  0  0  1  0  0  0  0  0  0  0  0
   -1.7843    6.5912   -3.1780 C   0  0  0  1  0  0  0  0  0  0  0  0
    2.3452    5.0184    0.5834 C   0  0  0  1  0  0  0  0  0  0  0  0
    0.3912    6.3277    0.1213 O   0  0  0  1  0  0  0  0  0  0  0  0
   -1.0695    4.6186   -2.9485 H   0  0  0  1  0  0  0  0  0  0  0  0
   -1.5730    7.4462   -2.5703 H   0  0  0  1  0  0  0  0  0  0  0  0
   -2.8267    6.5738   -3.4187 H   0  0  0  1  0  0  0  0  0  0  0  0
   -1.2104    6.6442   -4.0795 H   0  0  0  1  0  0  0  0  0  0  0  0
    2.7920    4.2940   -0.0651 H   0  0  0  1  0  0  0  0  0  0  0  0
    2.4003    4.6735    1.5947 H   0  0  0  1  0  0  0  0  0  0  0  0
    2.8682    5.9476    0.4938 H   0  0  0  1  0  0  0  0  0  0  0  0
   -1.3958    2.7398   -1.3221 C   0  0  0  1  0  0  0  0  0  0  0  0
   -2.7883    2.5700   -1.8681 C   0  0  0  1  0  0  0  0  0  0  0  0
   -3.0341    3.0069   -3.1561 C   0  0  0  1  0  0  0  0  0  0  0  0
   -4.2990    2.8676   -3.7058 C   0  0  0  1  0  0  0  0  0  0  0  0
   -5.3158    2.2967   -2.9637 C   0  0  0  1  0  0  0  0  0  0  0  0
   -5.0694    1.8585   -1.6719 C   0  0  0  1  0  0  0  0  0  0  0  0
   -3.8081    1.9974   -1.1241 C   0  0  0  1  0  0  0  0  0  0  0  0
   -6.6079    2.1596   -3.5226 N   0  0  0  1  0  0  0  0  0  0  0  0
   -1.1669    1.8796   -0.7282 H   0  0  0  1  0  0  0  0  0  0  0  0
   -0.7205    2.7919   -2.1504 H   0  0  0  1  0  0  0  0  0  0  0  0
   -2.2700    3.4401   -3.7129 H   0  0  0  1  0  0  0  0  0  0  0  0
   -4.4830    3.1927   -4.6764 H   0  0  0  1  0  0  0  0  0  0  0  0
   -5.8335    1.4253   -1.1151 H   0  0  0  1  0  0  0  0  0  0  0  0
   -3.6242    1.6723   -0.1535 H   0  0  0  1  0  0  0  0  0  0  0  0
   -7.3503    1.8405   -2.9681 H   0  0  0  1  0  0  0  0  0  0  0  0
   -6.7608    2.3837   -4.4643 H   0  0  0  1  0  0  0  0  0  0  0  0
  1  4  1  0  0  0  0
  2  4  1  0  0  0  0
  2  5  2  0  0  0  0
  2  6  1  0  0  0  0
  3  4  1  0  0  0  0
  3  7  1  0  0  0  0
  3  8  1  0  0  0  0
  4 19  1  0  0  0  0
  6  9  1  0  0  0  0
  6 12  1  0  0  0  0
  8 10  1  0  0  0  0
  8 11  2  0  0  0  0
  9 13  1  0  0  0  0
  9 14  1  0  0  0  0
  9 15  1  0  0  0  0
 10 16  1  0  0  0  0
 10 17  1  0  0  0  0
 10 18  1  0  0  0  0
 19 20  1  0  0  0  0
 19 27  1  0  0  0  0
 19 28  1  0  0  0  0
 20 21  4  0  0  0  0
 20 25  4  0  0  0  0
 21 22  4  0  0  0  0
 21 29  1  0  0  0  0
 22 23  4  0  0  0  0
 22 30  1  0  0  0  0
 23 24  4  0  0  0  0
 23 26  1  0  0  0  0
 24 25  4  0  0  0  0
 24 31  1  0  0  0  0
 25 32  1  0  0  0  0
 26 33  1  0  0  0  0
 26 34  1  0  0  0  0
M  END
> <BCLConfClusterSize>
1

> <ConfClashScore>
0 

> <ConfOneFourInteractionScore>
-0.938444 

> <ConfScore>
0.183941 

> <ConfScorePBest>
0.00509968 

> <ConfTolerance>
0.332454 

> <RosettaParamsInstructions>
M  ROOT 3
M  POLY_N_BB 3
M  POLY_CA_BB 4
M  POLY_C_BB 2
M  POLY_O_BB 5
M  POLY_IGNORE 9 10 11 12 13 14 15 16 17 18 
M  POLY_UPPER 6
M  POLY_LOWER 8
M  POLY_CHG 0
M  POLY_PROPERTIES ALPHA_AA D_AA PROTEIN AROMATIC POLYMER 
M  END

$$$$



 34 34  0  0  0  0  0  0  0  0999 V2000
   -0.5088    2.8167   -3.1755 H   0  0  0  1  0  0  0  0  0  0  0  0
    1.0426    3.2093   -1.8280 C   0  0  0  1  0  0  0  0  0  0  0  0
   -0.7493    4.7538   -2.5094 N   0  0  0  1  0  0  0  0  0  0  0  0
   -0.4080    3.3424   -2.2490 C   0  0  0  1  0  0  0  0  0  0  0  0
    1.8724    4.0479   -2.1408 O   0  0  0  1  0  0  0  0  0  0  0  0
    1.3411    2.1218   -1.0998 N   0  0  0  1  0  0  0  0  0  0  0  0
   -1.3264    4.9679   -3.2720 H   0  0  0  1  0  0  0  0  0  0  0  0
   -0.2990    5.7504   -1.7418 C   0  0  0  1  0  0  0  0  0  0  0  0
    2.6948    1.8358   -0.6487 C   0  0  0  1  0  0  0  0  0  0  0  0
   -0.6560    7.1500   -2.2030 C   0  0  0  1  0  0  0  0  0  0  0  0
    0.3588    5.5652   -0.7312 O   0  0  0  1  0  0  0  0  0  0  0  0
    0.6223    1.4988   -0.8638 H   0  0  0  1  0  0  0  0  0  0  0  0
    3.0948    1.0201   -1.2139 H   0  0  0  1  0  0  0  0  0  0  0  0
    2.6771    1.5756    0.3891 H   0  0  0  1  0  0  0  0  0  0  0  0
    3.3077    2.7014   -0.7895 H   0  0  0  1  0  0  0  0  0  0  0  0
   -0.2548    7.8656   -1.5160 H   0  0  0  1  0  0  0  0  0  0  0  0
   -1.7204    7.2517   -2.2423 H   0  0  0  1  0  0  0  0  0  0  0  0
   -0.2447    7.3205   -3.1759 H   0  0  0  1  0  0  0  0  0  0  0  0
   -1.4091    2.7208   -1.2840 C   0  0  0  1  0  0  0  0  0  0  0  0
   -2.7853    2.5736   -1.8759 C   0  0  0  1  0  0  0  0  0  0  0  0
   -3.0353    3.0113   -3.1629 C   0  0  0  1  0  0  0  0  0  0  0  0
   -4.3015    2.8707   -3.7093 C   0  0  0  1  0  0  0  0  0  0  0  0
   -5.3153    2.2975   -2.9651 C   0  0  0  1  0  0  0  0  0  0  0  0
   -5.0648    1.8585   -1.6744 C   0  0  0  1  0  0  0  0  0  0  0  0
   -3.8024    1.9988   -1.1298 C   0  0  0  1  0  0  0  0  0  0  0  0
   -6.6088    2.1589   -3.5206 N   0  0  0  1  0  0  0  0  0  0  0  0
   -1.4765    3.3425   -0.4158 H   0  0  0  1  0  0  0  0  0  0  0  0
   -1.0540    1.7515   -1.0025 H   0  0  0  1  0  0  0  0  0  0  0  0
   -2.2733    3.4463   -3.7213 H   0  0  0  1  0  0  0  0  0  0  0  0
   -4.4885    3.1964   -4.6791 H   0  0  0  1  0  0  0  0  0  0  0  0
   -5.8267    1.4235   -1.1159 H   0  0  0  1  0  0  0  0  0  0  0  0
   -3.6154    1.6731   -0.1599 H   0  0  0  1  0  0  0  0  0  0  0  0
   -7.3544    1.8623   -2.9582 H   0  0  0  1  0  0  0  0  0  0  0  0
   -6.7592    2.3595   -4.4680 H   0  0  0  1  0  0  0  0  0  0  0  0
  1  4  1  0  0  0  0
  2  4  1  0  0  0  0
  2  5  2  0  0  0  0
  2  6  1  0  0  0  0
  3  4  1  0  0  0  0
  3  7  1  0  0  0  0
  3  8  1  0  0  0  0
  4 19  1  0  0  0  0
  6  9  1  0  0  0  0
  6 12  1  0  0  0  0
  8 10  1  0  0  0  0
  8 11  2  0  0  0  0
  9 13  1  0  0  0  0
  9 14  1  0  0  0  0
  9 15  1  0  0  0  0
 10 16  1  0  0  0  0
 10 17  1  0  0  0  0
 10 18  1  0  0  0  0
 19 20  1  0  0  0  0
 19 27  1  0  0  0  0
 19 28  1  0  0  0  0
 20 21  4  0  0  0  0
 20 25  4  0  0  0  0
 21 22  4  0  0  0  0
 21 29  1  0  0  0  0
 22 23  4  0  0  0  0
 22 30  1  0  0  0  0
 23 24  4  0  0  0  0
 23 26  1  0  0  0  0
 24 25  4  0  0  0  0
 24 31  1  0  0  0  0
 25 32  1  0  0  0  0
 26 33  1  0  0  0  0
 26 34  1  0  0  0  0
M  END
> <BCLConfClusterSize>
1

> <ConfClashScore>
0 

> <ConfOneFourInteractionScore>
-0.922618 

> <ConfScore>
0.18916 

> <ConfScorePBest>
0.0050712 

> <ConfTolerance>
0.465988 

> <RosettaParamsInstructions>
M  ROOT 3
M  POLY_N_BB 3
M  POLY_CA_BB 4
M  POLY_C_BB 2
M  POLY_O_BB 5
M  POLY_IGNORE 9 10 11 12 13 14 15 16 17 18 
M  POLY_UPPER 6
M  POLY_LOWER 8
M  POLY_CHG 0
M  POLY_PROPERTIES ALPHA_AA D_AA PROTEIN AROMATIC POLYMER 
M  END

$$$$



 34 34  0  0  0  0  0  0  0  0999 V2000
   -1.6305    4.8171   -0.9209 H   0  0  0  1  0  0  0  0  0  0  0  0
   -0.4959    4.6416   -2.7142 C   0  0  0  1  0  0  0  0  0  0  0  0
    0.3253    4.2535   -0.4549 N   0  0  0  1  0  0  0  0  0  0  0  0
   -0.8692    4.1728   -1.3083 C   0  0  0  1  0  0  0  0  0  0  0  0
    0.5300    4.2437   -3.2700 O   0  0  0  1  0  0  0  0  0  0  0  0
   -1.3514    5.5023   -3.2882 N   0  0  0  1  0  0  0  0  0  0  0  0
    0.6448    3.4284   -0.0336 H   0  0  0  1  0  0  0  0  0  0  0  0
    1.0057    5.3850   -0.2160 C   0  0  0  1  0  0  0  0  0  0  0  0
   -1.2314    6.0166   -4.6443 C   0  0  0  1  0  0  0  0  0  0  0  0
    2.1860    5.2572    0.7273 C   0  0  0  1  0  0  0  0  0  0  0  0
    0.7085    6.4571   -0.7166 O   0  0  0  1  0  0  0  0  0  0  0  0
   -2.1142    5.8072   -2.7539 H   0  0  0  1  0  0  0  0  0  0  0  0
   -0.2630    6.4519   -4.7768 H   0  0  0  1  0  0  0  0  0  0  0  0
   -1.9823    6.7603   -4.8112 H   0  0  0  1  0  0  0  0  0  0  0  0
   -1.3606    5.2157   -5.3420 H   0  0  0  1  0  0  0  0  0  0  0  0
    2.3760    6.2023    1.1917 H   0  0  0  1  0  0  0  0  0  0  0  0
    3.0506    4.9504    0.1767 H   0  0  0  1  0  0  0  0  0  0  0  0
    1.9642    4.5288    1.4790 H   0  0  0  1  0  0  0  0  0  0  0  0
   -1.3961    2.7409   -1.3217 C   0  0  0  1  0  0  0  0  0  0  0  0
   -2.7885    2.5707   -1.8678 C   0  0  0  1  0  0  0  0  0  0  0  0
   -3.0324    3.0008   -3.1585 C   0  0  0  1  0  0  0  0  0  0  0  0
   -4.2972    2.8610   -3.7083 C   0  0  0  1  0  0  0  0  0  0  0  0
   -5.3157    2.2964   -2.9639 C   0  0  0  1  0  0  0  0  0  0  0  0
   -5.0711    1.8650   -1.6694 C   0  0  0  1  0  0  0  0  0  0  0  0
   -3.8101    2.0045   -1.1214 C   0  0  0  1  0  0  0  0  0  0  0  0
   -6.6077    2.1587   -3.5229 N   0  0  0  1  0  0  0  0  0  0  0  0
   -1.3895    2.3773   -0.3154 H   0  0  0  1  0  0  0  0  0  0  0  0
   -0.7328    2.1507   -1.9190 H   0  0  0  1  0  0  0  0  0  0  0  0
   -2.2670    3.4294   -3.7172 H   0  0  0  1  0  0  0  0  0  0  0  0
   -4.4798    3.1810   -4.6809 H   0  0  0  1  0  0  0  0  0  0  0  0
   -5.8365    1.4365   -1.1107 H   0  0  0  1  0  0  0  0  0  0  0  0
   -3.6275    1.6845   -0.1488 H   0  0  0  1  0  0  0  0  0  0  0  0
   -7.3311    1.7628   -2.9934 H   0  0  0  1  0  0  0  0  0  0  0  0
   -6.7794    2.4591   -4.4398 H   0  0  0  1  0  0  0  0  0  0  0  0
  1  4  1  0  0  0  0
  2  4  1  0  0  0  0
  2  5  2  0  0  0  0
  2  6  1  0  0  0  0
  3  4  1  0  0  0  0
  3  7  1  0  0  0  0
  3  8  1  0  0  0  0
  4 19  1  0  0  0  0
  6  9  1  0  0  0  0
  6 12  1  0  0  0  0
  8 10  1  0  0  0  0
  8 11  2  0  0  0  0
  9 13  1  0  0  0  0
  9 14  1  0  0  0  0
  9 15  1  0  0  0  0
 10 16  1  0  0  0  0
 10 17  1  0  0  0  0
 10 18  1  0  0  0  0
 19 20  1  0  0  0  0
 19 27  1  0  0  0  0
 19 28  1  0  0  0  0
 20 21  4  0  0  0  0
 20 25  4  0  0  0  0
 21 22  4  0  0  0  0
 21 29  1  0  0  0  0
 22 23  4  0  0  0  0
 22 30  1  0  0  0  0
 23 24  4  0  0  0  0
 23 26  1  0  0  0  0
 24 25  4  0  0  0  0
 24 31  1  0  0  0  0
 25 32  1  0  0  0  0
 26 33  1  0  0  0  0
 26 34  1  0  0  0  0
M  END
> <BCLConfClusterSize>
1

> <ConfClashScore>
0 

> <ConfOneFourInteractionScore>
-0.978127 

> <ConfScore>
0.190626 

> <ConfScorePBest>
0.00504272 

> <ConfTolerance>
0.615813 

> <RosettaParamsInstructions>
M  ROOT 3
M  POLY_N_BB 3
M  POLY_CA_BB 4
M  POLY_C_BB 2
M  POLY_O_BB 5
M  POLY_IGNORE 9 10 11 12 13 14 15 16 17 18 
M  POLY_UPPER 6
M  POLY_LOWER 8
M  POLY_CHG 0
M  POLY_PROPERTIES ALPHA_AA D_AA PROTEIN AROMATIC POLYMER 
M  END

$$$$



 34 34  0  0  0  0  0  0  0  0999 V2000
    0.2995    1.6175   -0.8102 H   0  0  0  1  0  0  0  0  0  0  0  0
   -0.0125    1.3846   -2.8794 C   0  0  0  1  0  0  0  0  0  0  0  0
   -1.2646    0.3022   -1.0082 N   0  0  0  1  0  0  0  0  0  0  0  0
   -0.5463    1.4860   -1.4522 C   0  0  0  1  0  0  0  0  0  0  0  0
    1.0875    1.8004   -3.1947 O   0  0  0  1  0  0  0  0  0  0  0  0
   -0.7758    0.8203   -3.8196 N   0  0  0  1  0  0  0  0  0  0  0  0
   -2.2334    0.2391   -1.1422 H   0  0  0  1  0  0  0  0  0  0  0  0
   -0.6067   -0.6996   -0.4178 C   0  0  0  1  0  0  0  0  0  0  0  0
   -0.3239    0.6573   -5.1934 C   0  0  0  1  0  0  0  0  0  0  0  0
   -1.4405   -1.9141   -0.0586 C   0  0  0  1  0  0  0  0  0  0  0  0
    0.5882   -0.6578   -0.1752 O   0  0  0  1  0  0  0  0  0  0  0  0
   -1.6711    0.5051   -3.5757 H   0  0  0  1  0  0  0  0  0  0  0  0
   -1.0263    0.0556   -5.7314 H   0  0  0  1  0  0  0  0  0  0  0  0
    0.6333    0.1790   -5.1993 H   0  0  0  1  0  0  0  0  0  0  0  0
   -0.2464    1.6174   -5.6593 H   0  0  0  1  0  0  0  0  0  0  0  0
   -2.4755   -1.6980   -0.2229 H   0  0  0  1  0  0  0  0  0  0  0  0
   -1.2869   -2.1599    0.9714 H   0  0  0  1  0  0  0  0  0  0  0  0
   -1.1475   -2.7413   -0.6708 H   0  0  0  1  0  0  0  0  0  0  0  0
   -1.3930    2.7466   -1.3349 C   0  0  0  1  0  0  0  0  0  0  0  0
   -2.7893    2.5710   -1.8693 C   0  0  0  1  0  0  0  0  0  0  0  0
   -3.0448    2.9966   -3.1592 C   0  0  0  1  0  0  0  0  0  0  0  0
   -4.3136    2.8517   -3.6984 C   0  0  0  1  0  0  0  0  0  0  0  0
   -5.3245    2.2864   -2.9441 C   0  0  0  1  0  0  0  0  0  0  0  0
   -5.0683    1.8596   -1.6504 C   0  0  0  1  0  0  0  0  0  0  0  0
   -3.8032    2.0041   -1.1129 C   0  0  0  1  0  0  0  0  0  0  0  0
   -6.5964    2.1684   -3.5401 N   0  0  0  1  0  0  0  0  0  0  0  0
   -0.9144    3.5306   -1.8838 H   0  0  0  1  0  0  0  0  0  0  0  0
   -1.4553    3.0201   -0.3024 H   0  0  0  1  0  0  0  0  0  0  0  0
   -2.2852    3.4256   -3.7253 H   0  0  0  1  0  0  0  0  0  0  0  0
   -4.5049    3.1682   -4.6704 H   0  0  0  1  0  0  0  0  0  0  0  0
   -5.8279    1.4306   -1.0842 H   0  0  0  1  0  0  0  0  0  0  0  0
   -3.6120    1.6876   -0.1409 H   0  0  0  1  0  0  0  0  0  0  0  0
   -7.3369    1.7670   -3.0392 H   0  0  0  1  0  0  0  0  0  0  0  0
   -6.7401    2.4878   -4.4553 H   0  0  0  1  0  0  0  0  0  0  0  0
  1  4  1  0  0  0  0
  2  4  1  0  0  0  0
  2  5  2  0  0  0  0
  2  6  1  0  0  0  0
  3  4  1  0  0  0  0
  3  7  1  0  0  0  0
  3  8  1  0  0  0  0
  4 19  1  0  0  0  0
  6  9  1  0  0  0  0
  6 12  1  0  0  0  0
  8 10  1  0  0  0  0
  8 11  2  0  0  0  0
  9 13  1  0  0  0  0
  9 14  1  0  0  0  0
  9 15  1  0  0  0  0
 10 16  1  0  0  0  0
 10 17  1  0  0  0  0
 10 18  1  0  0  0  0
 19 20  1  0  0  0  0
 19 27  1  0  0  0  0
 19 28  1  0  0  0  0
 20 21  4  0  0  0  0
 20 25  4  0  0  0  0
 21 22  4  0  0  0  0
 21 29  1  0  0  0  0
 22 23  4  0  0  0  0
 22 30  1  0  0  0  0
 23 24  4  0  0  0  0
 23 26  1  0  0  0  0
 24 25  4  0  0  0  0
 24 31  1  0  0  0  0
 25 32  1  0  0  0  0
 26 33  1  0  0  0  0
 26 34  1  0  0  0  0
M  END
> <BCLConfClusterSize>
1

> <ConfClashScore>
0 

> <ConfOneFourInteractionScore>
-0.950605 

> <ConfScore>
0.19495 

> <ConfScorePBest>
0.00501424 

> <ConfTolerance>
0.569976 

> <RosettaParamsInstructions>
M  ROOT 3
M  POLY_N_BB 3
M  POLY_CA_BB 4
M  POLY_C_BB 2
M  POLY_O_BB 5
M  POLY_IGNORE 9 10 11 12 13 14 15 16 17 18 
M  POLY_UPPER 6
M  POLY_LOWER 8
M  POLY_CHG 0
M  POLY_PROPERTIES ALPHA_AA D_AA PROTEIN AROMATIC POLYMER 
M  END

$$$$



 34 34  0  0  0  0  0  0  0  0999 V2000
   -2.0446    3.2298    0.6046 H   0  0  0  1  0  0  0  0  0  0  0  0
   -1.7880    5.0605   -0.3409 C   0  0  0  1  0  0  0  0  0  0  0  0
   -0.0265    3.5712    0.5564 N   0  0  0  1  0  0  0  0  0  0  0  0
   -1.3433    3.6396   -0.0919 C   0  0  0  1  0  0  0  0  0  0  0  0
   -1.9889    5.8408    0.5921 O   0  0  0  1  0  0  0  0  0  0  0  0
   -1.9454    5.4051   -1.6288 N   0  0  0  1  0  0  0  0  0  0  0  0
    0.1561    2.8377    1.1801 H   0  0  0  1  0  0  0  0  0  0  0  0
    0.9306    4.4744    0.3253 C   0  0  0  1  0  0  0  0  0  0  0  0
   -2.3376    6.7620   -1.9795 C   0  0  0  1  0  0  0  0  0  0  0  0
    2.2519    4.2283    1.0272 C   0  0  0  1  0  0  0  0  0  0  0  0
    0.7699    5.4414   -0.4010 O   0  0  0  1  0  0  0  0  0  0  0  0
   -1.7959    4.7415   -2.3343 H   0  0  0  1  0  0  0  0  0  0  0  0
   -1.7934    7.4583   -1.3762 H   0  0  0  1  0  0  0  0  0  0  0  0
   -3.3865    6.8854   -1.8079 H   0  0  0  1  0  0  0  0  0  0  0  0
   -2.1212    6.9399   -3.0121 H   0  0  0  1  0  0  0  0  0  0  0  0
    2.9214    5.0374    0.8222 H   0  0  0  1  0  0  0  0  0  0  0  0
    2.6791    3.3137    0.6724 H   0  0  0  1  0  0  0  0  0  0  0  0
    2.0877    4.1601    2.0823 H   0  0  0  1  0  0  0  0  0  0  0  0
   -1.3993    2.7363   -1.3169 C   0  0  0  1  0  0  0  0  0  0  0  0
   -2.7927    2.5645   -1.8597 C   0  0  0  1  0  0  0  0  0  0  0  0
   -3.0468    3.0177   -3.1405 C   0  0  0  1  0  0  0  0  0  0  0  0
   -4.3130    2.8774   -3.6871 C   0  0  0  1  0  0  0  0  0  0  0  0
   -5.3227    2.2891   -2.9491 C   0  0  0  1  0  0  0  0  0  0  0  0
   -5.0681    1.8345   -1.6646 C   0  0  0  1  0  0  0  0  0  0  0  0
   -3.8056    1.9744   -1.1198 C   0  0  0  1  0  0  0  0  0  0  0  0
   -6.5920    2.1770   -3.5519 N   0  0  0  1  0  0  0  0  0  0  0  0
   -1.0174    1.7736   -1.0479 H   0  0  0  1  0  0  0  0  0  0  0  0
   -0.7856    3.1627   -2.0828 H   0  0  0  1  0  0  0  0  0  0  0  0
   -2.2880    3.4640   -3.6942 H   0  0  0  1  0  0  0  0  0  0  0  0
   -4.5031    3.2149   -4.6523 H   0  0  0  1  0  0  0  0  0  0  0  0
   -5.8269    1.3882   -1.1109 H   0  0  0  1  0  0  0  0  0  0  0  0
   -3.6155    1.6370   -0.1546 H   0  0  0  1  0  0  0  0  0  0  0  0
   -6.7823    2.6550   -4.3860 H   0  0  0  1  0  0  0  0  0  0  0  0
   -7.2842    1.6211   -3.1369 H   0  0  0  1  0  0  0  0  0  0  0  0
  1  4  1  0  0  0  0
  2  4  1  0  0  0  0
  2  5  2  0  0  0  0
  2  6  1  0  0  0  0
  3  4  1  0  0  0  0
  3  7  1  0  0  0  0
  3  8  1  0  0  0  0
  4 19  1  0  0  0  0
  6  9  1  0  0  0  0
  6 12  1  0  0  0  0
  8 10  1  0  0  0  0
  8 11  2  0  0  0  0
  9 13  1  0  0  0  0
  9 14  1  0  0  0  0
  9 15  1  0  0  0  0
 10 16  1  0  0  0  0
 10 17  1  0  0  0  0
 10 18  1  0  0  0  0
 19 20  1  0  0  0  0
 19 27  1  0  0  0  0
 19 28  1  0  0  0  0
 20 21  4  0  0  0  0
 20 25  4  0  0  0  0
 21 22  4  0  0  0  0
 21 29  1  0  0  0  0
 22 23  4  0  0  0  0
 22 30  1  0  0  0  0
 23 24  4  0  0  0  0
 23 26  1  0  0  0  0
 24 25  4  0  0  0  0
 24 31  1  0  0  0  0
 25 32  1  0  0  0  0
 26 33  1  0  0  0  0
 26 34  1  0  0  0  0
M  END
> <BCLConfClusterSize>
1

> <ConfClashScore>
0 

> <ConfOneFourInteractionScore>
-0.927621 

> <ConfScore>
0.196113 

> <ConfScorePBest>
0.00498576 

> <ConfTolerance>
0.50172 

> <RosettaParamsInstructions>
M  ROOT 3
M  POLY_N_BB 3
M  POLY_CA_BB 4
M  POLY_C_BB 2
M  POLY_O_BB 5
M  POLY_IGNORE 9 10 11 12 13 14 15 16 17 18 
M  POLY_UPPER 6
M  POLY_LOWER 8
M  POLY_CHG 0
M  POLY_PROPERTIES ALPHA_AA D_AA PROTEIN AROMATIC POLYMER 
M  END

$$$$



 34 34  0  0  0  0  0  0  0  0999 V2000
   -0.3604    3.3597   -3.0019 H   0  0  0  1  0  0  0  0  0  0  0  0
    0.8508    3.7936   -1.3392 C   0  0  0  1  0  0  0  0  0  0  0  0
   -1.1891    4.9840   -2.0480 N   0  0  0  1  0  0  0  0  0  0  0  0
   -0.5128    3.6964   -1.9978 C   0  0  0  1  0  0  0  0  0  0  0  0
    1.4837    4.8331   -1.3015 O   0  0  0  1  0  0  0  0  0  0  0  0
    1.3807    2.7025   -0.7791 N   0  0  0  1  0  0  0  0  0  0  0  0
   -1.9761    5.1273   -1.4819 H   0  0  0  1  0  0  0  0  0  0  0  0
   -0.7751    5.9760   -2.8379 C   0  0  0  1  0  0  0  0  0  0  0  0
    2.7314    2.6844   -0.2376 C   0  0  0  1  0  0  0  0  0  0  0  0
   -1.4841    7.3271   -2.6800 C   0  0  0  1  0  0  0  0  0  0  0  0
    0.1767    5.8706   -3.6068 O   0  0  0  1  0  0  0  0  0  0  0  0
    0.8410    1.8859   -0.7312 H   0  0  0  1  0  0  0  0  0  0  0  0
    3.1577    1.7125   -0.3736 H   0  0  0  1  0  0  0  0  0  0  0  0
    2.7000    2.9169    0.8063 H   0  0  0  1  0  0  0  0  0  0  0  0
    3.3295    3.4105   -0.7474 H   0  0  0  1  0  0  0  0  0  0  0  0
   -0.9336    7.9420   -1.9990 H   0  0  0  1  0  0  0  0  0  0  0  0
   -2.4715    7.1691   -2.2992 H   0  0  0  1  0  0  0  0  0  0  0  0
   -1.5418    7.8127   -3.6318 H   0  0  0  1  0  0  0  0  0  0  0  0
   -1.3982    2.6596   -1.3002 C   0  0  0  1  0  0  0  0  0  0  0  0
   -2.7900    2.5938   -1.8699 C   0  0  0  1  0  0  0  0  0  0  0  0
   -3.0354    3.0126   -3.1640 C   0  0  0  1  0  0  0  0  0  0  0  0
   -4.2991    2.8617   -3.7136 C   0  0  0  1  0  0  0  0  0  0  0  0
   -5.3150    2.2973   -2.9654 C   0  0  0  1  0  0  0  0  0  0  0  0
   -5.0690    1.8773   -1.6675 C   0  0  0  1  0  0  0  0  0  0  0  0
   -3.8090    2.0278   -1.1197 C   0  0  0  1  0  0  0  0  0  0  0  0
   -6.6058    2.1483   -3.5242 N   0  0  0  1  0  0  0  0  0  0  0  0
   -1.4664    2.9128   -0.2628 H   0  0  0  1  0  0  0  0  0  0  0  0
   -0.9420    1.6973   -1.4037 H   0  0  0  1  0  0  0  0  0  0  0  0
   -2.2720    3.4409   -3.7255 H   0  0  0  1  0  0  0  0  0  0  0  0
   -4.4827    3.1731   -4.6887 H   0  0  0  1  0  0  0  0  0  0  0  0
   -5.8324    1.4490   -1.1060 H   0  0  0  1  0  0  0  0  0  0  0  0
   -3.6255    1.7164   -0.1446 H   0  0  0  1  0  0  0  0  0  0  0  0
   -7.3091    1.6906   -3.0179 H   0  0  0  1  0  0  0  0  0  0  0  0
   -6.7969    2.5027   -4.4176 H   0  0  0  1  0  0  0  0  0  0  0  0
  1  4  1  0  0  0  0
  2  4  1  0  0  0  0
  2  5  2  0  0  0  0
  2  6  1  0  0  0  0
  3  4  1  0  0  0  0
  3  7  1  0  0  0  0
  3  8  1  0  0  0  0
  4 19  1  0  0  0  0
  6  9  1  0  0  0  0
  6 12  1  0  0  0  0
  8 10  1  0  0  0  0
  8 11  2  0  0  0  0
  9 13  1  0  0  0  0
  9 14  1  0  0  0  0
  9 15  1  0  0  0  0
 10 16  1  0  0  0  0
 10 17  1  0  0  0  0
 10 18  1  0  0  0  0
 19 20  1  0  0  0  0
 19 27  1  0  0  0  0
 19 28  1  0  0  0  0
 20 21  4  0  0  0  0
 20 25  4  0  0  0  0
 21 22  4  0  0  0  0
 21 29  1  0  0  0  0
 22 23  4  0  0  0  0
 22 30  1  0  0  0  0
 23 24  4  0  0  0  0
 23 26  1  0  0  0  0
 24 25  4  0  0  0  0
 24 31  1  0  0  0  0
 25 32  1  0  0  0  0
 26 33  1  0  0  0  0
 26 34  1  0  0  0  0
M  END
> <BCLConfClusterSize>
1

> <ConfClashScore>
0 

> <ConfOneFourInteractionScore>
-0.951414 

> <ConfScore>
0.199011 

> <ConfScorePBest>
0.00495728 

> <ConfTolerance>
0.590354 

> <RosettaParamsInstructions>
M  ROOT 3
M  POLY_N_BB 3
M  POLY_CA_BB 4
M  POLY_C_BB 2
M  POLY_O_BB 5
M  POLY_IGNORE 9 10 11 12 13 14 15 16 17 18 
M  POLY_UPPER 6
M  POLY_LOWER 8
M  POLY_CHG 0
M  POLY_PROPERTIES ALPHA_AA D_AA PROTEIN AROMATIC POLYMER 
M  END

$$$$



 34 34  0  0  0  0  0  0  0  0999 V2000
   -0.7076    0.7569   -0.9235 H   0  0  0  1  0  0  0  0  0  0  0  0
    0.9679    2.0502   -1.1181 C   0  0  0  1  0  0  0  0  0  0  0  0
   -0.3576    1.2190   -2.9420 N   0  0  0  1  0  0  0  0  0  0  0  0
   -0.4243    1.6004   -1.5179 C   0  0  0  1  0  0  0  0  0  0  0  0
    1.1335    3.0659   -0.4438 O   0  0  0  1  0  0  0  0  0  0  0  0
    2.0062    1.3116   -1.5197 N   0  0  0  1  0  0  0  0  0  0  0  0
   -0.8356    0.4170   -3.2398 H   0  0  0  1  0  0  0  0  0  0  0  0
    0.3305    1.9277   -3.8376 C   0  0  0  1  0  0  0  0  0  0  0  0
    3.3599    1.5475   -1.0403 C   0  0  0  1  0  0  0  0  0  0  0  0
    0.2894    1.4077   -5.2614 C   0  0  0  1  0  0  0  0  0  0  0  0
    0.9629    2.9396   -3.5467 O   0  0  0  1  0  0  0  0  0  0  0  0
    1.8509    0.5856   -2.1594 H   0  0  0  1  0  0  0  0  0  0  0  0
    3.9776    1.8624   -1.8552 H   0  0  0  1  0  0  0  0  0  0  0  0
    3.7530    0.6438   -0.6235 H   0  0  0  1  0  0  0  0  0  0  0  0
    3.3443    2.3099   -0.2896 H   0  0  0  1  0  0  0  0  0  0  0  0
    1.1860    1.6920   -5.7715 H   0  0  0  1  0  0  0  0  0  0  0  0
   -0.5562    1.8234   -5.7684 H   0  0  0  1  0  0  0  0  0  0  0  0
    0.2094    0.3407   -5.2489 H   0  0  0  1  0  0  0  0  0  0  0  0
   -1.4093    2.7215   -1.2838 C   0  0  0  1  0  0  0  0  0  0  0  0
   -2.7854    2.5740   -1.8758 C   0  0  0  1  0  0  0  0  0  0  0  0
   -3.0344    3.0082   -3.1641 C   0  0  0  1  0  0  0  0  0  0  0  0
   -4.3005    2.8672   -3.7107 C   0  0  0  1  0  0  0  0  0  0  0  0
   -5.3153    2.2973   -2.9652 C   0  0  0  1  0  0  0  0  0  0  0  0
   -5.0657    1.8618   -1.6731 C   0  0  0  1  0  0  0  0  0  0  0  0
   -3.8033    2.0024   -1.1283 C   0  0  0  1  0  0  0  0  0  0  0  0
   -6.6086    2.1584   -3.5208 N   0  0  0  1  0  0  0  0  0  0  0  0
   -0.9805    3.6142   -1.6889 H   0  0  0  1  0  0  0  0  0  0  0  0
   -1.5258    2.8295   -0.2257 H   0  0  0  1  0  0  0  0  0  0  0  0
   -2.2718    3.4407   -3.7236 H   0  0  0  1  0  0  0  0  0  0  0  0
   -4.4868    3.1903   -4.6815 H   0  0  0  1  0  0  0  0  0  0  0  0
   -5.8283    1.4293   -1.1136 H   0  0  0  1  0  0  0  0  0  0  0  0
   -3.6171    1.6794   -0.1575 H   0  0  0  1  0  0  0  0  0  0  0  0
   -7.3452    1.8210   -2.9694 H   0  0  0  1  0  0  0  0  0  0  0  0
   -6.7682    2.3996   -4.4572 H   0  0  0  1  0  0  0  0  0  0  0  0
  1  4  1  0  0  0  0
  2  4  1  0  0  0  0
  2  5  2  0  0  0  0
  2  6  1  0  0  0  0
  3  4  1  0  0  0  0
  3  7  1  0  0  0  0
  3  8  1  0  0  0  0
  4 19  1  0  0  0  0
  6  9  1  0  0  0  0
  6 12  1  0  0  0  0
  8 10  1  0  0  0  0
  8 11  2  0  0  0  0
  9 13  1  0  0  0  0
  9 14  1  0  0  0  0
  9 15  1  0  0  0  0
 10 16  1  0  0  0  0
 10 17  1  0  0  0  0
 10 18  1  0  0  0  0
 19 20  1  0  0  0  0
 19 27  1  0  0  0  0
 19 28  1  0  0  0  0
 20 21  4  0  0  0  0
 20 25  4  0  0  0  0
 21 22  4  0  0  0  0
 21 29  1  0  0  0  0
 22 23  4  0  0  0  0
 22 30  1  0  0  0  0
 23 24  4  0  0  0  0
 23 26  1  0  0  0  0
 24 25  4  0  0  0  0
 24 31  1  0  0  0  0
 25 32  1  0  0  0  0
 26 33  1  0  0  0  0
 26 34  1  0  0  0  0
M  END
> <BCLConfClusterSize>
1

> <ConfClashScore>
0 

> <ConfOneFourInteractionScore>
-0.938696 

> <ConfScore>
0.205797 

> <ConfScorePBest>
0.0049288 

> <ConfTolerance>
0.290676 

> <RosettaParamsInstructions>
M  ROOT 3
M  POLY_N_BB 3
M  POLY_CA_BB 4
M  POLY_C_BB 2
M  POLY_O_BB 5
M  POLY_IGNORE 9 10 11 12 13 14 15 16 17 18 
M  POLY_UPPER 6
M  POLY_LOWER 8
M  POLY_CHG 0
M  POLY_PROPERTIES ALPHA_AA D_AA PROTEIN AROMATIC POLYMER 
M  END

$$$$



 34 34  0  0  0  0  0  0  0  0999 V2000
   -0.6443    1.0537   -2.2966 H   0  0  0  1  0  0  0  0  0  0  0  0
    0.9635    1.9205   -1.2532 C   0  0  0  1  0  0  0  0  0  0  0  0
   -0.1148    2.7675   -3.3048 N   0  0  0  1  0  0  0  0  0  0  0  0
   -0.3192    2.0449   -2.0583 C   0  0  0  1  0  0  0  0  0  0  0  0
    1.0381    1.1579   -0.2934 O   0  0  0  1  0  0  0  0  0  0  0  0
    2.0142    2.6133   -1.7017 N   0  0  0  1  0  0  0  0  0  0  0  0
   -0.5999    3.6065   -3.4501 H   0  0  0  1  0  0  0  0  0  0  0  0
    0.7147    2.3250   -4.2621 C   0  0  0  1  0  0  0  0  0  0  0  0
    3.3445    2.4644   -1.1307 C   0  0  0  1  0  0  0  0  0  0  0  0
    0.9355    3.2052   -5.4769 C   0  0  0  1  0  0  0  0  0  0  0  0
    1.2807    1.2374   -4.1597 O   0  0  0  1  0  0  0  0  0  0  0  0
    1.8846    3.2436   -2.4408 H   0  0  0  1  0  0  0  0  0  0  0  0
    3.2737    2.4324   -0.0636 H   0  0  0  1  0  0  0  0  0  0  0  0
    3.9527    3.2948   -1.4229 H   0  0  0  1  0  0  0  0  0  0  0  0
    3.7853    1.5564   -1.4860 H   0  0  0  1  0  0  0  0  0  0  0  0
    0.3960    2.8058   -6.3102 H   0  0  0  1  0  0  0  0  0  0  0  0
    1.9794    3.2360   -5.7097 H   0  0  0  1  0  0  0  0  0  0  0  0
    0.5868    4.1950   -5.2679 H   0  0  0  1  0  0  0  0  0  0  0  0
   -1.4257    2.7019   -1.2435 C   0  0  0  1  0  0  0  0  0  0  0  0
   -2.7823    2.5783   -1.8840 C   0  0  0  1  0  0  0  0  0  0  0  0
   -3.0345    3.0091   -3.1729 C   0  0  0  1  0  0  0  0  0  0  0  0
   -4.3019    2.8663   -3.7160 C   0  0  0  1  0  0  0  0  0  0  0  0
   -5.3146    2.2979   -2.9667 C   0  0  0  1  0  0  0  0  0  0  0  0
   -5.0618    1.8659   -1.6740 C   0  0  0  1  0  0  0  0  0  0  0  0
   -3.7982    2.0083   -1.1327 C   0  0  0  1  0  0  0  0  0  0  0  0
   -6.6093    2.1571   -3.5188 N   0  0  0  1  0  0  0  0  0  0  0  0
   -1.1952    3.7408   -1.1316 H   0  0  0  1  0  0  0  0  0  0  0  0
   -1.4604    2.2379   -0.2800 H   0  0  0  1  0  0  0  0  0  0  0  0
   -2.2734    3.4405   -3.7353 H   0  0  0  1  0  0  0  0  0  0  0  0
   -4.4906    3.1868   -4.6872 H   0  0  0  1  0  0  0  0  0  0  0  0
   -5.8229    1.4345   -1.1117 H   0  0  0  1  0  0  0  0  0  0  0  0
   -3.6095    1.6878   -0.1615 H   0  0  0  1  0  0  0  0  0  0  0  0
   -7.3379    1.7944   -2.9731 H   0  0  0  1  0  0  0  0  0  0  0  0
   -6.7775    2.4223   -4.4472 H   0  0  0  1  0  0  0  0  0  0  0  0
  1  4  1  0  0  0  0
  2  4  1  0  0  0  0
  2  5  2  0  0  0  0
  2  6  1  0  0  0  0
  3  4  1  0  0  0  0
  3  7  1  0  0  0  0
  3  8  1  0  0  0  0
  4 19  1  0  0  0  0
  6  9  1  0  0  0  0
  6 12  1  0  0  0  0
  8 10  1  0  0  0  0
  8 11  2  0  0  0  0
  9 13  1  0  0  0  0
  9 14  1  0  0  0  0
  9 15  1  0  0  0  0
 10 16  1  0  0  0  0
 10 17  1  0  0  0  0
 10 18  1  0  0  0  0
 19 20  1  0  0  0  0
 19 27  1  0  0  0  0
 19 28  1  0  0  0  0
 20 21  4  0  0  0  0
 20 25  4  0  0  0  0
 21 22  4  0  0  0  0
 21 29  1  0  0  0  0
 22 23  4  0  0  0  0
 22 30  1  0  0  0  0
 23 24  4  0  0  0  0
 23 26  1  0  0  0  0
 24 25  4  0  0  0  0
 24 31  1  0  0  0  0
 25 32  1  0  0  0  0
 26 33  1  0  0  0  0
 26 34  1  0  0  0  0
M  END
> <BCLConfClusterSize>
1

> <ConfClashScore>
0 

> <ConfOneFourInteractionScore>
-0.956443 

> <ConfScore>
0.206181 

> <ConfScorePBest>
0.00490032 

> <ConfTolerance>
0.288951 

> <RosettaParamsInstructions>
M  ROOT 3
M  POLY_N_BB 3
M  POLY_CA_BB 4
M  POLY_C_BB 2
M  POLY_O_BB 5
M  POLY_IGNORE 9 10 11 12 13 14 15 16 17 18 
M  POLY_UPPER 6
M  POLY_LOWER 8
M  POLY_CHG 0
M  POLY_PROPERTIES ALPHA_AA D_AA PROTEIN AROMATIC POLYMER 
M  END

$$$$



 34 34  0  0  0  0  0  0  0  0999 V2000
   -0.9668    0.6794   -1.2270 H   0  0  0  1  0  0  0  0  0  0  0  0
    0.8430    1.6723   -0.8923 C   0  0  0  1  0  0  0  0  0  0  0  0
   -0.3449    1.3646   -3.0501 N   0  0  0  1  0  0  0  0  0  0  0  0
   -0.4889    1.5547   -1.6149 C   0  0  0  1  0  0  0  0  0  0  0  0
    1.7387    2.3996   -1.2886 O   0  0  0  1  0  0  0  0  0  0  0  0
    1.0454    0.9558    0.2170 N   0  0  0  1  0  0  0  0  0  0  0  0
   -0.8525    0.6594   -3.5033 H   0  0  0  1  0  0  0  0  0  0  0  0
    0.4860    2.1572   -3.7584 C   0  0  0  1  0  0  0  0  0  0  0  0
    2.3089    0.9804    0.9387 C   0  0  0  1  0  0  0  0  0  0  0  0
    0.7962    1.6934   -5.1683 C   0  0  0  1  0  0  0  0  0  0  0  0
    0.9707    3.1936   -3.3061 O   0  0  0  1  0  0  0  0  0  0  0  0
    0.3177    0.3940    0.5565 H   0  0  0  1  0  0  0  0  0  0  0  0
    2.5547   -0.0093    1.2624 H   0  0  0  1  0  0  0  0  0  0  0  0
    2.2205    1.6223    1.7902 H   0  0  0  1  0  0  0  0  0  0  0  0
    3.0804    1.3466    0.2940 H   0  0  0  1  0  0  0  0  0  0  0  0
   -0.1176    1.5484   -5.7058 H   0  0  0  1  0  0  0  0  0  0  0  0
    1.3368    0.7708   -5.1291 H   0  0  0  1  0  0  0  0  0  0  0  0
    1.3882    2.4335   -5.6648 H   0  0  0  1  0  0  0  0  0  0  0  0
   -1.4094    2.7220   -1.2836 C   0  0  0  1  0  0  0  0  0  0  0  0
   -2.7855    2.5743   -1.8757 C   0  0  0  1  0  0  0  0  0  0  0  0
   -3.0337    3.0056   -3.1652 C   0  0  0  1  0  0  0  0  0  0  0  0
   -4.2998    2.8644   -3.7118 C   0  0  0  1  0  0  0  0  0  0  0  0
   -5.3153    2.2972   -2.9652 C   0  0  0  1  0  0  0  0  0  0  0  0
   -5.0665    1.8646   -1.6720 C   0  0  0  1  0  0  0  0  0  0  0  0
   -3.8042    2.0055   -1.1272 C   0  0  0  1  0  0  0  0  0  0  0  0
   -6.6085    2.1580   -3.5209 N   0  0  0  1  0  0  0  0  0  0  0  0
   -0.9700    3.6207   -1.6634 H   0  0  0  1  0  0  0  0  0  0  0  0
   -1.5020    2.7915   -0.2199 H   0  0  0  1  0  0  0  0  0  0  0  0
   -2.2705    3.4360   -3.7254 H   0  0  0  1  0  0  0  0  0  0  0  0
   -4.4855    3.1852   -4.6835 H   0  0  0  1  0  0  0  0  0  0  0  0
   -5.8297    1.4342   -1.1117 H   0  0  0  1  0  0  0  0  0  0  0  0
   -3.6185    1.6846   -0.1555 H   0  0  0  1  0  0  0  0  0  0  0  0
   -7.3369    1.7873   -2.9802 H   0  0  0  1  0  0  0  0  0  0  0  0
   -6.7762    2.4324   -4.4467 H   0  0  0  1  0  0  0  0  0  0  0  0
  1  4  1  0  0  0  0
  2  4  1  0  0  0  0
  2  5  2  0  0  0  0
  2  6  1  0  0  0  0
  3  4  1  0  0  0  0
  3  7  1  0  0  0  0
  3  8  1  0  0  0  0
  4 19  1  0  0  0  0
  6  9  1  0  0  0  0
  6 12  1  0  0  0  0
  8 10  1  0  0  0  0
  8 11  2  0  0  0  0
  9 13  1  0  0  0  0
  9 14  1  0  0  0  0
  9 15  1  0  0  0  0
 10 16  1  0  0  0  0
 10 17  1  0  0  0  0
 10 18  1  0  0  0  0
 19 20  1  0  0  0  0
 19 27  1  0  0  0  0
 19 28  1  0  0  0  0
 20 21  4  0  0  0  0
 20 25  4  0  0  0  0
 21 22  4  0  0  0  0
 21 29  1  0  0  0  0
 22 23  4  0  0  0  0
 22 30  1  0  0  0  0
 23 24  4  0  0  0  0
 23 26  1  0  0  0  0
 24 25  4  0  0  0  0
 24 31  1  0  0  0  0
 25 32  1  0  0  0  0
 26 33  1  0  0  0  0
 26 34  1  0  0  0  0
M  END
> <BCLConfClusterSize>
1

> <ConfClashScore>
0 

> <ConfOneFourInteractionScore>
-0.987258 

> <ConfScore>
0.207994 

> <ConfScorePBest>
0.00487184 

> <ConfTolerance>
0.327177 

> <RosettaParamsInstructions>
M  ROOT 3
M  POLY_N_BB 3
M  POLY_CA_BB 4
M  POLY_C_BB 2
M  POLY_O_BB 5
M  POLY_IGNORE 9 10 11 12 13 14 15 16 17 18 
M  POLY_UPPER 6
M  POLY_LOWER 8
M  POLY_CHG 0
M  POLY_PROPERTIES ALPHA_AA D_AA PROTEIN AROMATIC POLYMER 
M  END

$$$$



 34 34  0  0  0  0  0  0  0  0999 V2000
   -2.0339    3.9915    0.2928 H   0  0  0  1  0  0  0  0  0  0  0  0
   -1.1996    5.2262   -1.1992 C   0  0  0  1  0  0  0  0  0  0  0  0
    0.0204    3.8380    0.3727 N   0  0  0  1  0  0  0  0  0  0  0  0
   -1.2096    3.9453   -0.3878 C   0  0  0  1  0  0  0  0  0  0  0  0
   -0.1504    5.6718   -1.6620 O   0  0  0  1  0  0  0  0  0  0  0  0
   -2.3678    5.8575   -1.3964 N   0  0  0  1  0  0  0  0  0  0  0  0
    0.8731    3.8044   -0.1093 H   0  0  0  1  0  0  0  0  0  0  0  0
    0.0317    3.7833    1.7076 C   0  0  0  1  0  0  0  0  0  0  0  0
   -2.4595    7.1126   -2.1273 C   0  0  0  1  0  0  0  0  0  0  0  0
    1.3730    3.6939    2.4092 C   0  0  0  1  0  0  0  0  0  0  0  0
   -0.9824    3.8011    2.4038 O   0  0  0  1  0  0  0  0  0  0  0  0
   -3.1874    5.4593   -1.0356 H   0  0  0  1  0  0  0  0  0  0  0  0
   -1.5774    7.6926   -1.9532 H   0  0  0  1  0  0  0  0  0  0  0  0
   -3.3167    7.6583   -1.7924 H   0  0  0  1  0  0  0  0  0  0  0  0
   -2.5518    6.9096   -3.1739 H   0  0  0  1  0  0  0  0  0  0  0  0
    1.8582    2.7799    2.1371 H   0  0  0  1  0  0  0  0  0  0  0  0
    1.2233    3.7164    3.4684 H   0  0  0  1  0  0  0  0  0  0  0  0
    1.9839    4.5225    2.1171 H   0  0  0  1  0  0  0  0  0  0  0  0
   -1.4096    2.7225   -1.2834 C   0  0  0  1  0  0  0  0  0  0  0  0
   -2.7856    2.5746   -1.8756 C   0  0  0  1  0  0  0  0  0  0  0  0
   -3.0331    3.0032   -3.1661 C   0  0  0  1  0  0  0  0  0  0  0  0
   -4.2991    2.8618   -3.7127 C   0  0  0  1  0  0  0  0  0  0  0  0
   -5.3152    2.2970   -2.9653 C   0  0  0  1  0  0  0  0  0  0  0  0
   -5.0672    1.8671   -1.6710 C   0  0  0  1  0  0  0  0  0  0  0  0
   -3.8049    2.0081   -1.1262 C   0  0  0  1  0  0  0  0  0  0  0  0
   -6.6084    2.1577   -3.5211 N   0  0  0  1  0  0  0  0  0  0  0  0
   -1.2057    1.8491   -0.6999 H   0  0  0  1  0  0  0  0  0  0  0  0
   -0.7085    2.7854   -2.0893 H   0  0  0  1  0  0  0  0  0  0  0  0
   -2.2694    3.4319   -3.7270 H   0  0  0  1  0  0  0  0  0  0  0  0
   -4.4842    3.1807   -4.6852 H   0  0  0  1  0  0  0  0  0  0  0  0
   -5.8308    1.4384   -1.1101 H   0  0  0  1  0  0  0  0  0  0  0  0
   -3.6197    1.6893   -0.1537 H   0  0  0  1  0  0  0  0  0  0  0  0
   -7.3292    1.7580   -2.9908 H   0  0  0  1  0  0  0  0  0  0  0  0
   -6.7837    2.4608   -4.4364 H   0  0  0  1  0  0  0  0  0  0  0  0
  1  4  1  0  0  0  0
  2  4  1  0  0  0  0
  2  5  2  0  0  0  0
  2  6  1  0  0  0  0
  3  4  1  0  0  0  0
  3  7  1  0  0  0  0
  3  8  1  0  0  0  0
  4 19  1  0  0  0  0
  6  9  1  0  0  0  0
  6 12  1  0  0  0  0
  8 10  1  0  0  0  0
  8 11  2  0  0  0  0
  9 13  1  0  0  0  0
  9 14  1  0  0  0  0
  9 15  1  0  0  0  0
 10 16  1  0  0  0  0
 10 17  1  0  0  0  0
 10 18  1  0  0  0  0
 19 20  1  0  0  0  0
 19 27  1  0  0  0  0
 19 28  1  0  0  0  0
 20 21  4  0  0  0  0
 20 25  4  0  0  0  0
 21 22  4  0  0  0  0
 21 29  1  0  0  0  0
 22 23  4  0  0  0  0
 22 30  1  0  0  0  0
 23 24  4  0  0  0  0
 23 26  1  0  0  0  0
 24 25  4  0  0  0  0
 24 31  1  0  0  0  0
 25 32  1  0  0  0  0
 26 33  1  0  0  0  0
 26 34  1  0  0  0  0
M  END
> <BCLConfClusterSize>
1

> <ConfClashScore>
0 

> <ConfOneFourInteractionScore>
-0.990503 

> <ConfScore>
0.20894 

> <ConfScorePBest>
0.00484336 

> <ConfTolerance>
0.484171 

> <RosettaParamsInstructions>
M  ROOT 3
M  POLY_N_BB 3
M  POLY_CA_BB 4
M  POLY_C_BB 2
M  POLY_O_BB 5
M  POLY_IGNORE 9 10 11 12 13 14 15 16 17 18 
M  POLY_UPPER 6
M  POLY_LOWER 8
M  POLY_CHG 0
M  POLY_PROPERTIES ALPHA_AA D_AA PROTEIN AROMATIC POLYMER 
M  END

$$$$



 34 34  0  0  0  0  0  0  0  0999 V2000
   -1.0918    0.6250   -1.3608 H   0  0  0  1  0  0  0  0  0  0  0  0
    0.7204    1.5522   -0.7793 C   0  0  0  1  0  0  0  0  0  0  0  0
   -0.1988    1.4753   -3.0271 N   0  0  0  1  0  0  0  0  0  0  0  0
   -0.5460    1.5097   -1.6143 C   0  0  0  1  0  0  0  0  0  0  0  0
    0.6737    1.6113    0.4512 O   0  0  0  1  0  0  0  0  0  0  0  0
    1.8689    1.5215   -1.4637 N   0  0  0  1  0  0  0  0  0  0  0  0
    0.3641    2.1804   -3.4097 H   0  0  0  1  0  0  0  0  0  0  0  0
   -0.6450    0.4858   -3.8025 C   0  0  0  1  0  0  0  0  0  0  0  0
    3.1249    1.8328   -0.7978 C   0  0  0  1  0  0  0  0  0  0  0  0
   -0.2406    0.4835   -5.2639 C   0  0  0  1  0  0  0  0  0  0  0  0
   -1.3652   -0.4256   -3.4037 O   0  0  0  1  0  0  0  0  0  0  0  0
    1.8647    1.2888   -2.4157 H   0  0  0  1  0  0  0  0  0  0  0  0
    3.7882    2.3075   -1.4904 H   0  0  0  1  0  0  0  0  0  0  0  0
    3.5715    0.9292   -0.4388 H   0  0  0  1  0  0  0  0  0  0  0  0
    2.9384    2.4907    0.0252 H   0  0  0  1  0  0  0  0  0  0  0  0
   -1.1139    0.3969   -5.8760 H   0  0  0  1  0  0  0  0  0  0  0  0
    0.4103   -0.3446   -5.4523 H   0  0  0  1  0  0  0  0  0  0  0  0
    0.2672    1.3966   -5.4946 H   0  0  0  1  0  0  0  0  0  0  0  0
   -1.4093    2.7217   -1.2837 C   0  0  0  1  0  0  0  0  0  0  0  0
   -2.7855    2.5741   -1.8758 C   0  0  0  1  0  0  0  0  0  0  0  0
   -3.0341    3.0071   -3.1646 C   0  0  0  1  0  0  0  0  0  0  0  0
   -4.3002    2.8661   -3.7111 C   0  0  0  1  0  0  0  0  0  0  0  0
   -5.3153    2.2973   -2.9652 C   0  0  0  1  0  0  0  0  0  0  0  0
   -5.0660    1.8629   -1.6726 C   0  0  0  1  0  0  0  0  0  0  0  0
   -3.8037    2.0036   -1.1279 C   0  0  0  1  0  0  0  0  0  0  0  0
   -6.6086    2.1583   -3.5209 N   0  0  0  1  0  0  0  0  0  0  0  0
   -0.9480    3.6006   -1.6833 H   0  0  0  1  0  0  0  0  0  0  0  0
   -1.4927    2.8137   -0.2210 H   0  0  0  1  0  0  0  0  0  0  0  0
   -2.2713    3.4388   -3.7243 H   0  0  0  1  0  0  0  0  0  0  0  0
   -4.4863    3.1883   -4.6823 H   0  0  0  1  0  0  0  0  0  0  0  0
   -5.8289    1.4312   -1.1129 H   0  0  0  1  0  0  0  0  0  0  0  0
   -3.6176    1.6815   -0.1567 H   0  0  0  1  0  0  0  0  0  0  0  0
   -7.3420    1.8076   -2.9735 H   0  0  0  1  0  0  0  0  0  0  0  0
   -6.7713    2.4126   -4.4532 H   0  0  0  1  0  0  0  0  0  0  0  0
  1  4  1  0  0  0  0
  2  4  1  0  0  0  0
  2  5  2  0  0  0  0
  2  6  1  0  0  0  0
  3  4  1  0  0  0  0
  3  7  1  0  0  0  0
  3  8  1  0  0  0  0
  4 19  1  0  0  0  0
  6  9  1  0  0  0  0
  6 12  1  0  0  0  0
  8 10  1  0  0  0  0
  8 11  2  0  0  0  0
  9 13  1  0  0  0  0
  9 14  1  0  0  0  0
  9 15  1  0  0  0  0
 10 16  1  0  0  0  0
 10 17  1  0  0  0  0
 10 18  1  0  0  0  0
 19 20  1  0  0  0  0
 19 27  1  0  0  0  0
 19 28  1  0  0  0  0
 20 21  4  0  0  0  0
 20 25  4  0  0  0  0
 21 22  4  0  0  0  0
 21 29  1  0  0  0  0
 22 23  4  0  0  0  0
 22 30  1  0  0  0  0
 23 24  4  0  0  0  0
 23 26  1  0  0  0  0
 24 25  4  0  0  0  0
 24 31  1  0  0  0  0
 25 32  1  0  0  0  0
 26 33  1  0  0  0  0
 26 34  1  0  0  0  0
M  END
> <BCLConfClusterSize>
1

> <ConfClashScore>
0 

> <ConfOneFourInteractionScore>
-0.938666 

> <ConfScore>
0.209015 

> <ConfScorePBest>
0.00481488 

> <ConfTolerance>
0.442818 

> <RosettaParamsInstructions>
M  ROOT 3
M  POLY_N_BB 3
M  POLY_CA_BB 4
M  POLY_C_BB 2
M  POLY_O_BB 5
M  POLY_IGNORE 9 10 11 12 13 14 15 16 17 18 
M  POLY_UPPER 6
M  POLY_LOWER 8
M  POLY_CHG 0
M  POLY_PROPERTIES ALPHA_AA D_AA PROTEIN AROMATIC POLYMER 
M  END

$$$$



 34 34  0  0  0  0  0  0  0  0999 V2000
   -1.8141    4.3848   -0.1223 H   0  0  0  1  0  0  0  0  0  0  0  0
    0.1242    3.6688    0.3763 C   0  0  0  1  0  0  0  0  0  0  0  0
   -2.0038    2.6900    1.0684 N   0  0  0  1  0  0  0  0  0  0  0  0
   -1.3341    3.4385    0.0153 C   0  0  0  1  0  0  0  0  0  0  0  0
    0.7375    4.6472   -0.0420 O   0  0  0  1  0  0  0  0  0  0  0  0
    0.6818    2.7414    1.1708 N   0  0  0  1  0  0  0  0  0  0  0  0
   -2.2917    1.7712    0.8859 H   0  0  0  1  0  0  0  0  0  0  0  0
   -2.2407    3.2141    2.2806 C   0  0  0  1  0  0  0  0  0  0  0  0
    2.1174    2.6756    1.3999 C   0  0  0  1  0  0  0  0  0  0  0  0
   -3.1064    2.4236    3.2423 C   0  0  0  1  0  0  0  0  0  0  0  0
   -1.7704    4.3038    2.6048 O   0  0  0  1  0  0  0  0  0  0  0  0
    0.1019    2.0860    1.6118 H   0  0  0  1  0  0  0  0  0  0  0  0
    2.3394    1.8470    2.0395 H   0  0  0  1  0  0  0  0  0  0  0  0
    2.4463    3.5820    1.8637 H   0  0  0  1  0  0  0  0  0  0  0  0
    2.6221    2.5493    0.4649 H   0  0  0  1  0  0  0  0  0  0  0  0
   -4.1131    2.4007    2.8803 H   0  0  0  1  0  0  0  0  0  0  0  0
   -3.0846    2.8883    4.2059 H   0  0  0  1  0  0  0  0  0  0  0  0
   -2.7325    1.4240    3.3192 H   0  0  0  1  0  0  0  0  0  0  0  0
   -1.4027    2.6522   -1.2889 C   0  0  0  1  0  0  0  0  0  0  0  0
   -2.7904    2.5925   -1.8692 C   0  0  0  1  0  0  0  0  0  0  0  0
   -3.0264    3.0237   -3.1610 C   0  0  0  1  0  0  0  0  0  0  0  0
   -4.2861    2.8787   -3.7210 C   0  0  0  1  0  0  0  0  0  0  0  0
   -5.3076    2.3077   -2.9856 C   0  0  0  1  0  0  0  0  0  0  0  0
   -5.0711    1.8752   -1.6900 C   0  0  0  1  0  0  0  0  0  0  0  0
   -3.8150    2.0199   -1.1318 C   0  0  0  1  0  0  0  0  0  0  0  0
   -6.6127    2.1400   -3.5046 N   0  0  0  1  0  0  0  0  0  0  0  0
   -1.0684    1.6531   -1.1022 H   0  0  0  1  0  0  0  0  0  0  0  0
   -0.7552    3.1181   -2.0020 H   0  0  0  1  0  0  0  0  0  0  0  0
   -2.2587    3.4570   -3.7128 H   0  0  0  1  0  0  0  0  0  0  0  0
   -4.4626    3.1995   -4.6944 H   0  0  0  1  0  0  0  0  0  0  0  0
   -5.8387    1.4419   -1.1381 H   0  0  0  1  0  0  0  0  0  0  0  0
   -3.6386    1.6991   -0.1584 H   0  0  0  1  0  0  0  0  0  0  0  0
   -7.3230    1.7756   -2.9363 H   0  0  0  1  0  0  0  0  0  0  0  0
   -6.8065    2.3883   -4.4326 H   0  0  0  1  0  0  0  0  0  0  0  0
  1  4  1  0  0  0  0
  2  4  1  0  0  0  0
  2  5  2  0  0  0  0
  2  6  1  0  0  0  0
  3  4  1  0  0  0  0
  3  7  1  0  0  0  0
  3  8  1  0  0  0  0
  4 19  1  0  0  0  0
  6  9  1  0  0  0  0
  6 12  1  0  0  0  0
  8 10  1  0  0  0  0
  8 11  2  0  0  0  0
  9 13  1  0  0  0  0
  9 14  1  0  0  0  0
  9 15  1  0  0  0  0
 10 16  1  0  0  0  0
 10 17  1  0  0  0  0
 10 18  1  0  0  0  0
 19 20  1  0  0  0  0
 19 27  1  0  0  0  0
 19 28  1  0  0  0  0
 20 21  4  0  0  0  0
 20 25  4  0  0  0  0
 21 22  4  0  0  0  0
 21 29  1  0  0  0  0
 22 23  4  0  0  0  0
 22 30  1  0  0  0  0
 23 24  4  0  0  0  0
 23 26  1  0  0  0  0
 24 25  4  0  0  0  0
 24 31  1  0  0  0  0
 25 32  1  0  0  0  0
 26 33  1  0  0  0  0
 26 34  1  0  0  0  0
M  END
> <BCLConfClusterSize>
1

> <ConfClashScore>
0 

> <ConfOneFourInteractionScore>
-0.956443 

> <ConfScore>
0.209913 

> <ConfScorePBest>
0.00478639 

> <ConfTolerance>
0.471948 

> <RosettaParamsInstructions>
M  ROOT 3
M  POLY_N_BB 3
M  POLY_CA_BB 4
M  POLY_C_BB 2
M  POLY_O_BB 5
M  POLY_IGNORE 9 10 11 12 13 14 15 16 17 18 
M  POLY_UPPER 6
M  POLY_LOWER 8
M  POLY_CHG 0
M  POLY_PROPERTIES ALPHA_AA D_AA PROTEIN AROMATIC POLYMER 
M  END

$$$$



 34 34  0  0  0  0  0  0  0  0999 V2000
   -1.4479    4.2403    0.1858 H   0  0  0  1  0  0  0  0  0  0  0  0
   -1.8463    5.1583   -1.6713 C   0  0  0  1  0  0  0  0  0  0  0  0
    0.3251    4.4086   -0.8675 N   0  0  0  1  0  0  0  0  0  0  0  0
   -1.1088    4.1398   -0.8240 C   0  0  0  1  0  0  0  0  0  0  0  0
   -2.9724    5.5480   -1.3653 O   0  0  0  1  0  0  0  0  0  0  0  0
   -1.1954    5.5930   -2.7540 N   0  0  0  1  0  0  0  0  0  0  0  0
    0.9002    3.6574   -1.1230 H   0  0  0  1  0  0  0  0  0  0  0  0
    0.9426    5.5624   -0.5985 C   0  0  0  1  0  0  0  0  0  0  0  0
   -1.8349    6.4218   -3.7650 C   0  0  0  1  0  0  0  0  0  0  0  0
    2.4515    5.5525   -0.7483 C   0  0  0  1  0  0  0  0  0  0  0  0
    0.3423    6.5783   -0.2502 O   0  0  0  1  0  0  0  0  0  0  0  0
   -0.2545    5.3452   -2.8715 H   0  0  0  1  0  0  0  0  0  0  0  0
   -2.8547    6.1197   -3.8817 H   0  0  0  1  0  0  0  0  0  0  0  0
   -1.3208    6.3081   -4.6965 H   0  0  0  1  0  0  0  0  0  0  0  0
   -1.7994    7.4468   -3.4603 H   0  0  0  1  0  0  0  0  0  0  0  0
    2.7110    5.2044   -1.7262 H   0  0  0  1  0  0  0  0  0  0  0  0
    2.8784    4.9023   -0.0135 H   0  0  0  1  0  0  0  0  0  0  0  0
    2.8298    6.5439   -0.6108 H   0  0  0  1  0  0  0  0  0  0  0  0
   -1.4126    2.7183   -1.2787 C   0  0  0  1  0  0  0  0  0  0  0  0
   -2.7900    2.5692   -1.8673 C   0  0  0  1  0  0  0  0  0  0  0  0
   -3.0459    3.0147   -3.1504 C   0  0  0  1  0  0  0  0  0  0  0  0
   -4.3132    2.8723   -3.6939 C   0  0  0  1  0  0  0  0  0  0  0  0
   -5.3222    2.2895   -2.9505 C   0  0  0  1  0  0  0  0  0  0  0  0
   -5.0657    1.8427   -1.6637 C   0  0  0  1  0  0  0  0  0  0  0  0
   -3.8022    1.9848   -1.1220 C   0  0  0  1  0  0  0  0  0  0  0  0
   -6.5926    2.1750   -3.5504 N   0  0  0  1  0  0  0  0  0  0  0  0
   -1.3305    2.0659   -0.4346 H   0  0  0  1  0  0  0  0  0  0  0  0
   -0.6935    2.4365   -2.0192 H   0  0  0  1  0  0  0  0  0  0  0  0
   -2.2876    3.4568   -3.7082 H   0  0  0  1  0  0  0  0  0  0  0  0
   -4.5046    3.2039   -4.6608 H   0  0  0  1  0  0  0  0  0  0  0  0
   -5.8240    1.4006   -1.1059 H   0  0  0  1  0  0  0  0  0  0  0  0
   -3.6108    1.6532   -0.1550 H   0  0  0  1  0  0  0  0  0  0  0  0
   -6.7601    2.5838   -4.4251 H   0  0  0  1  0  0  0  0  0  0  0  0
   -7.3084    1.6865   -3.0927 H   0  0  0  1  0  0  0  0  0  0  0  0
  1  4  1  0  0  0  0
  2  4  1  0  0  0  0
  2  5  2  0  0  0  0
  2  6  1  0  0  0  0
  3  4  1  0  0  0  0
  3  7  1  0  0  0  0
  3  8  1  0  0  0  0
  4 19  1  0  0  0  0
  6  9  1  0  0  0  0
  6 12  1  0  0  0  0
  8 10  1  0  0  0  0
  8 11  2  0  0  0  0
  9 13  1  0  0  0  0
  9 14  1  0  0  0  0
  9 15  1  0  0  0  0
 10 16  1  0  0  0  0
 10 17  1  0  0  0  0
 10 18  1  0  0  0  0
 19 20  1  0  0  0  0
 19 27  1  0  0  0  0
 19 28  1  0  0  0  0
 20 21  4  0  0  0  0
 20 25  4  0  0  0  0
 21 22  4  0  0  0  0
 21 29  1  0  0  0  0
 22 23  4  0  0  0  0
 22 30  1  0  0  0  0
 23 24  4  0  0  0  0
 23 26  1  0  0  0  0
 24 25  4  0  0  0  0
 24 31  1  0  0  0  0
 25 32  1  0  0  0  0
 26 33  1  0  0  0  0
 26 34  1  0  0  0  0
M  END
> <BCLConfClusterSize>
1

> <ConfClashScore>
0 

> <ConfOneFourInteractionScore>
-0.942345 

> <ConfScore>
0.210545 

> <ConfScorePBest>
0.00475791 

> <ConfTolerance>
0.433702 

> <RosettaParamsInstructions>
M  ROOT 3
M  POLY_N_BB 3
M  POLY_CA_BB 4
M  POLY_C_BB 2
M  POLY_O_BB 5
M  POLY_IGNORE 9 10 11 12 13 14 15 16 17 18 
M  POLY_UPPER 6
M  POLY_LOWER 8
M  POLY_CHG 0
M  POLY_PROPERTIES ALPHA_AA D_AA PROTEIN AROMATIC POLYMER 
M  END

$$$$



 34 34  0  0  0  0  0  0  0  0999 V2000
   -1.3593    4.7610   -1.7100 H   0  0  0  1  0  0  0  0  0  0  0  0
    0.1554    4.4787   -0.2946 C   0  0  0  1  0  0  0  0  0  0  0  0
   -2.2691    4.5503    0.1288 N   0  0  0  1  0  0  0  0  0  0  0  0
   -1.2246    4.1581   -0.8363 C   0  0  0  1  0  0  0  0  0  0  0  0
    1.1238    3.7646   -0.5514 O   0  0  0  1  0  0  0  0  0  0  0  0
    0.2400    5.5728    0.4674 N   0  0  0  1  0  0  0  0  0  0  0  0
   -2.8518    5.2999   -0.1139 H   0  0  0  1  0  0  0  0  0  0  0  0
   -2.4805    3.9605    1.3089 C   0  0  0  1  0  0  0  0  0  0  0  0
    1.5116    5.9493    1.0667 C   0  0  0  1  0  0  0  0  0  0  0  0
   -3.5093    4.6501    2.2020 C   0  0  0  1  0  0  0  0  0  0  0  0
   -1.8550    2.9803    1.7044 O   0  0  0  1  0  0  0  0  0  0  0  0
   -0.5559    6.1230    0.6231 H   0  0  0  1  0  0  0  0  0  0  0  0
    1.6228    7.0129    1.0300 H   0  0  0  1  0  0  0  0  0  0  0  0
    2.3112    5.4885    0.5252 H   0  0  0  1  0  0  0  0  0  0  0  0
    1.5358    5.6234    2.0856 H   0  0  0  1  0  0  0  0  0  0  0  0
   -4.4941    4.4404    1.8401 H   0  0  0  1  0  0  0  0  0  0  0  0
   -3.3420    5.7068    2.1881 H   0  0  0  1  0  0  0  0  0  0  0  0
   -3.4127    4.2863    3.2036 H   0  0  0  1  0  0  0  0  0  0  0  0
   -1.4156    2.7139   -1.2701 C   0  0  0  1  0  0  0  0  0  0  0  0
   -2.7893    2.5698   -1.8684 C   0  0  0  1  0  0  0  0  0  0  0  0
   -3.0346    3.0166   -3.1531 C   0  0  0  1  0  0  0  0  0  0  0  0
   -4.2985    2.8787   -3.7055 C   0  0  0  1  0  0  0  0  0  0  0  0
   -5.3148    2.2993   -2.9695 C   0  0  0  1  0  0  0  0  0  0  0  0
   -5.0689    1.8512   -1.6810 C   0  0  0  1  0  0  0  0  0  0  0  0
   -3.8087    1.9887   -1.1304 C   0  0  0  1  0  0  0  0  0  0  0  0
   -6.6014    2.1640   -3.5292 N   0  0  0  1  0  0  0  0  0  0  0  0
   -1.3222    2.0678   -0.4223 H   0  0  0  1  0  0  0  0  0  0  0  0
   -0.6761    2.4558   -1.9991 H   0  0  0  1  0  0  0  0  0  0  0  0
   -2.2709    3.4562   -3.7054 H   0  0  0  1  0  0  0  0  0  0  0  0
   -4.4820    3.2113   -4.6737 H   0  0  0  1  0  0  0  0  0  0  0  0
   -5.8326    1.4115   -1.1287 H   0  0  0  1  0  0  0  0  0  0  0  0
   -3.6253    1.6561   -0.1622 H   0  0  0  1  0  0  0  0  0  0  0  0
   -6.7936    2.5417   -4.4128 H   0  0  0  1  0  0  0  0  0  0  0  0
   -7.3037    1.6922   -3.0346 H   0  0  0  1  0  0  0  0  0  0  0  0
  1  4  1  0  0  0  0
  2  4  1  0  0  0  0
  2  5  2  0  0  0  0
  2  6  1  0  0  0  0
  3  4  1  0  0  0  0
  3  7  1  0  0  0  0
  3  8  1  0  0  0  0
  4 19  1  0  0  0  0
  6  9  1  0  0  0  0
  6 12  1  0  0  0  0
  8 10  1  0  0  0  0
  8 11  2  0  0  0  0
  9 13  1  0  0  0  0
  9 14  1  0  0  0  0
  9 15  1  0  0  0  0
 10 16  1  0  0  0  0
 10 17  1  0  0  0  0
 10 18  1  0  0  0  0
 19 20  1  0  0  0  0
 19 27  1  0  0  0  0
 19 28  1  0  0  0  0
 20 21  4  0  0  0  0
 20 25  4  0  0  0  0
 21 22  4  0  0  0  0
 21 29  1  0  0  0  0
 22 23  4  0  0  0  0
 22 30  1  0  0  0  0
 23 24  4  0  0  0  0
 23 26  1  0  0  0  0
 24 25  4  0  0  0  0
 24 31  1  0  0  0  0
 25 32  1  0  0  0  0
 26 33  1  0  0  0  0
 26 34  1  0  0  0  0
M  END
> <BCLConfClusterSize>
1

> <ConfClashScore>
0 

> <ConfOneFourInteractionScore>
-0.956972 

> <ConfScore>
0.211552 

> <ConfScorePBest>
0.00472943 

> <ConfTolerance>
0.323569 

> <RosettaParamsInstructions>
M  ROOT 3
M  POLY_N_BB 3
M  POLY_CA_BB 4
M  POLY_C_BB 2
M  POLY_O_BB 5
M  POLY_IGNORE 9 10 11 12 13 14 15 16 17 18 
M  POLY_UPPER 6
M  POLY_LOWER 8
M  POLY_CHG 0
M  POLY_PROPERTIES ALPHA_AA D_AA PROTEIN AROMATIC POLYMER 
M  END

$$$$



 34 34  0  0  0  0  0  0  0  0999 V2000
   -1.3192    0.8989   -0.2225 H   0  0  0  1  0  0  0  0  0  0  0  0
    0.6669    1.4820   -0.5858 C   0  0  0  1  0  0  0  0  0  0  0  0
   -0.9177    0.5060   -2.2022 N   0  0  0  1  0  0  0  0  0  0  0  0
   -0.7781    1.3523   -1.0266 C   0  0  0  1  0  0  0  0  0  0  0  0
    1.0004    2.2893    0.2841 O   0  0  0  1  0  0  0  0  0  0  0  0
    1.5395    0.6684   -1.2011 N   0  0  0  1  0  0  0  0  0  0  0  0
   -1.2237   -0.4147   -2.0639 H   0  0  0  1  0  0  0  0  0  0  0  0
   -0.6604    0.8889   -3.4538 C   0  0  0  1  0  0  0  0  0  0  0  0
    2.9757    0.6566   -0.9664 C   0  0  0  1  0  0  0  0  0  0  0  0
   -0.9370   -0.1441   -4.5288 C   0  0  0  1  0  0  0  0  0  0  0  0
   -0.2263    2.0046   -3.7371 O   0  0  0  1  0  0  0  0  0  0  0  0
    1.1826    0.0346   -1.8578 H   0  0  0  1  0  0  0  0  0  0  0  0
    3.1771    0.9843    0.0321 H   0  0  0  1  0  0  0  0  0  0  0  0
    3.4558    1.3139   -1.6609 H   0  0  0  1  0  0  0  0  0  0  0  0
    3.3502   -0.3371   -1.0977 H   0  0  0  1  0  0  0  0  0  0  0  0
   -1.7068    0.2149   -5.1796 H   0  0  0  1  0  0  0  0  0  0  0  0
   -1.2543   -1.0580   -4.0717 H   0  0  0  1  0  0  0  0  0  0  0  0
   -0.0451   -0.3181   -5.0937 H   0  0  0  1  0  0  0  0  0  0  0  0
   -1.4099    2.7237   -1.2829 C   0  0  0  1  0  0  0  0  0  0  0  0
   -2.7858    2.5752   -1.8753 C   0  0  0  1  0  0  0  0  0  0  0  0
   -3.0315    2.9975   -3.1683 C   0  0  0  1  0  0  0  0  0  0  0  0
   -4.2973    2.8556   -3.7151 C   0  0  0  1  0  0  0  0  0  0  0  0
   -5.3151    2.2967   -2.9654 C   0  0  0  1  0  0  0  0  0  0  0  0
   -5.0689    1.8732   -1.6687 C   0  0  0  1  0  0  0  0  0  0  0  0
   -3.8067    2.0147   -1.1236 C   0  0  0  1  0  0  0  0  0  0  0  0
   -6.6082    2.1568   -3.5214 N   0  0  0  1  0  0  0  0  0  0  0  0
   -0.7926    3.2728   -1.9629 H   0  0  0  1  0  0  0  0  0  0  0  0
   -1.4821    3.2553   -0.3571 H   0  0  0  1  0  0  0  0  0  0  0  0
   -2.2666    3.4217   -3.7309 H   0  0  0  1  0  0  0  0  0  0  0  0
   -4.4812    3.1696   -4.6894 H   0  0  0  1  0  0  0  0  0  0  0  0
   -5.8337    1.4490   -1.1060 H   0  0  0  1  0  0  0  0  0  0  0  0
   -3.6229    1.7007   -0.1494 H   0  0  0  1  0  0  0  0  0  0  0  0
   -7.3084    1.6874   -3.0216 H   0  0  0  1  0  0  0  0  0  0  0  0
   -6.8039    2.5294   -4.4065 H   0  0  0  1  0  0  0  0  0  0  0  0
  1  4  1  0  0  0  0
  2  4  1  0  0  0  0
  2  5  2  0  0  0  0
  2  6  1  0  0  0  0
  3  4  1  0  0  0  0
  3  7  1  0  0  0  0
  3  8  1  0  0  0  0
  4 19  1  0  0  0  0
  6  9  1  0  0  0  0
  6 12  1  0  0  0  0
  8 10  1  0  0  0  0
  8 11  2  0  0  0  0
  9 13  1  0  0  0  0
  9 14  1  0  0  0  0
  9 15  1  0  0  0  0
 10 16  1  0  0  0  0
 10 17  1  0  0  0  0
 10 18  1  0  0  0  0
 19 20  1  0  0  0  0
 19 27  1  0  0  0  0
 19 28  1  0  0  0  0
 20 21  4  0  0  0  0
 20 25  4  0  0  0  0
 21 22  4  0  0  0  0
 21 29  1  0  0  0  0
 22 23  4  0  0  0  0
 22 30  1  0  0  0  0
 23 24  4  0  0  0  0
 23 26  1  0  0  0  0
 24 25  4  0  0  0  0
 24 31  1  0  0  0  0
 25 32  1  0  0  0  0
 26 33  1  0  0  0  0
 26 34  1  0  0  0  0
M  END
> <BCLConfClusterSize>
1

> <ConfClashScore>
0 

> <ConfOneFourInteractionScore>
-0.938662 

> <ConfScore>
0.213376 

> <ConfScorePBest>
0.00470095 

> <ConfTolerance>
0.412616 

> <RosettaParamsInstructions>
M  ROOT 3
M  POLY_N_BB 3
M  POLY_CA_BB 4
M  POLY_C_BB 2
M  POLY_O_BB 5
M  POLY_IGNORE 9 10 11 12 13 14 15 16 17 18 
M  POLY_UPPER 6
M  POLY_LOWER 8
M  POLY_CHG 0
M  POLY_PROPERTIES ALPHA_AA D_AA PROTEIN AROMATIC POLYMER 
M  END

$$$$



 34 34  0  0  0  0  0  0  0  0999 V2000
   -0.1359    2.8221   -2.8617 H   0  0  0  1  0  0  0  0  0  0  0  0
    0.9150    3.7205   -1.3007 C   0  0  0  1  0  0  0  0  0  0  0  0
   -0.9078    4.7084   -2.6158 N   0  0  0  1  0  0  0  0  0  0  0  0
   -0.3874    3.4558   -2.0371 C   0  0  0  1  0  0  0  0  0  0  0  0
    1.8609    2.9555   -1.3924 O   0  0  0  1  0  0  0  0  0  0  0  0
    0.9472    4.8299   -0.5607 N   0  0  0  1  0  0  0  0  0  0  0  0
   -1.8219    4.9863   -2.3977 H   0  0  0  1  0  0  0  0  0  0  0  0
   -0.1763    5.4776   -3.4272 C   0  0  0  1  0  0  0  0  0  0  0  0
    2.0806    5.1656    0.2880 C   0  0  0  1  0  0  0  0  0  0  0  0
   -0.9167    6.6174   -4.1321 C   0  0  0  1  0  0  0  0  0  0  0  0
    1.0263    5.3491   -3.6528 O   0  0  0  1  0  0  0  0  0  0  0  0
    0.1809    5.4401   -0.5896 H   0  0  0  1  0  0  0  0  0  0  0  0
    2.9209    5.4218   -0.3229 H   0  0  0  1  0  0  0  0  0  0  0  0
    2.3288    4.3241    0.9006 H   0  0  0  1  0  0  0  0  0  0  0  0
    1.8257    5.9977    0.9105 H   0  0  0  1  0  0  0  0  0  0  0  0
   -1.9703    6.5046   -3.9835 H   0  0  0  1  0  0  0  0  0  0  0  0
   -0.6995    6.5896   -5.1794 H   0  0  0  1  0  0  0  0  0  0  0  0
   -0.5978    7.5545   -3.7259 H   0  0  0  1  0  0  0  0  0  0  0  0
   -1.4315    2.6962   -1.2292 C   0  0  0  1  0  0  0  0  0  0  0  0
   -2.7854    2.5753   -1.8760 C   0  0  0  1  0  0  0  0  0  0  0  0
   -3.0316    3.0098   -3.1648 C   0  0  0  1  0  0  0  0  0  0  0  0
   -4.2967    2.8693   -3.7139 C   0  0  0  1  0  0  0  0  0  0  0  0
   -5.3131    2.2995   -2.9706 C   0  0  0  1  0  0  0  0  0  0  0  0
   -5.0662    1.8636   -1.6781 C   0  0  0  1  0  0  0  0  0  0  0  0
   -3.8049    2.0038   -1.1308 C   0  0  0  1  0  0  0  0  0  0  0  0
   -6.6053    2.1610   -3.5289 N   0  0  0  1  0  0  0  0  0  0  0  0
   -1.5564    3.2008   -0.2939 H   0  0  0  1  0  0  0  0  0  0  0  0
   -1.0595    1.7082   -1.0551 H   0  0  0  1  0  0  0  0  0  0  0  0
   -2.2678    3.4423   -3.7225 H   0  0  0  1  0  0  0  0  0  0  0  0
   -4.4809    3.1927   -4.6850 H   0  0  0  1  0  0  0  0  0  0  0  0
   -5.8301    1.4311   -1.1203 H   0  0  0  1  0  0  0  0  0  0  0  0
   -3.6207    1.6804   -0.1597 H   0  0  0  1  0  0  0  0  0  0  0  0
   -6.7664    2.4171   -4.4611 H   0  0  0  1  0  0  0  0  0  0  0  0
   -7.3396    1.8091   -2.9836 H   0  0  0  1  0  0  0  0  0  0  0  0
  1  4  1  0  0  0  0
  2  4  1  0  0  0  0
  2  5  2  0  0  0  0
  2  6  1  0  0  0  0
  3  4  1  0  0  0  0
  3  7  1  0  0  0  0
  3  8  1  0  0  0  0
  4 19  1  0  0  0  0
  6  9  1  0  0  0  0
  6 12  1  0  0  0  0
  8 10  1  0  0  0  0
  8 11  2  0  0  0  0
  9 13  1  0  0  0  0
  9 14  1  0  0  0  0
  9 15  1  0  0  0  0
 10 16  1  0  0  0  0
 10 17  1  0  0  0  0
 10 18  1  0  0  0  0
 19 20  1  0  0  0  0
 19 27  1  0  0  0  0
 19 28  1  0  0  0  0
 20 21  4  0  0  0  0
 20 25  4  0  0  0  0
 21 22  4  0  0  0  0
 21 29  1  0  0  0  0
 22 23  4  0  0  0  0
 22 30  1  0  0  0  0
 23 24  4  0  0  0  0
 23 26  1  0  0  0  0
 24 25  4  0  0  0  0
 24 31  1  0  0  0  0
 25 32  1  0  0  0  0
 26 33  1  0  0  0  0
 26 34  1  0  0  0  0
M  END
> <BCLConfClusterSize>
1

> <ConfClashScore>
0 

> <ConfOneFourInteractionScore>
-0.934209 

> <ConfScore>
0.213746 

> <ConfScorePBest>
0.00467247 

> <ConfTolerance>
0.530655 

> <RosettaParamsInstructions>
M  ROOT 3
M  POLY_N_BB 3
M  POLY_CA_BB 4
M  POLY_C_BB 2
M  POLY_O_BB 5
M  POLY_IGNORE 9 10 11 12 13 14 15 16 17 18 
M  POLY_UPPER 6
M  POLY_LOWER 8
M  POLY_CHG 0
M  POLY_PROPERTIES ALPHA_AA D_AA PROTEIN AROMATIC POLYMER 
M  END

$$$$



 34 34  0  0  0  0  0  0  0  0999 V2000
   -2.0535    3.9745    0.2760 H   0  0  0  1  0  0  0  0  0  0  0  0
   -1.4107    5.2372   -1.2713 C   0  0  0  1  0  0  0  0  0  0  0  0
   -0.0007    3.8960    0.2918 N   0  0  0  1  0  0  0  0  0  0  0  0
   -1.2568    3.9796   -0.4383 C   0  0  0  1  0  0  0  0  0  0  0  0
   -1.9781    5.2070   -2.3515 O   0  0  0  1  0  0  0  0  0  0  0  0
   -0.9050    6.3819   -0.7853 N   0  0  0  1  0  0  0  0  0  0  0  0
   -0.0142    3.4572    1.1680 H   0  0  0  1  0  0  0  0  0  0  0  0
    1.1794    4.3763   -0.1461 C   0  0  0  1  0  0  0  0  0  0  0  0
   -0.9626    7.6334   -1.5258 C   0  0  0  1  0  0  0  0  0  0  0  0
    2.2805    4.3303    0.8955 C   0  0  0  1  0  0  0  0  0  0  0  0
    1.3792    4.8171   -1.2749 O   0  0  0  1  0  0  0  0  0  0  0  0
   -0.4824    6.3745    0.0988 H   0  0  0  1  0  0  0  0  0  0  0  0
   -0.1388    7.6837   -2.2067 H   0  0  0  1  0  0  0  0  0  0  0  0
   -0.9107    8.4548   -0.8421 H   0  0  0  1  0  0  0  0  0  0  0  0
   -1.8808    7.6817   -2.0731 H   0  0  0  1  0  0  0  0  0  0  0  0
    2.4483    3.3163    1.1932 H   0  0  0  1  0  0  0  0  0  0  0  0
    1.9895    4.9084    1.7475 H   0  0  0  1  0  0  0  0  0  0  0  0
    3.1806    4.7336    0.4807 H   0  0  0  1  0  0  0  0  0  0  0  0
   -1.4105    2.7222   -1.2839 C   0  0  0  1  0  0  0  0  0  0  0  0
   -2.7865    2.5743   -1.8760 C   0  0  0  1  0  0  0  0  0  0  0  0
   -3.0343    3.0042   -3.1661 C   0  0  0  1  0  0  0  0  0  0  0  0
   -4.3003    2.8629   -3.7127 C   0  0  0  1  0  0  0  0  0  0  0  0
   -5.3162    2.2970   -2.9657 C   0  0  0  1  0  0  0  0  0  0  0  0
   -5.0678    1.8658   -1.6719 C   0  0  0  1  0  0  0  0  0  0  0  0
   -3.8055    2.0068   -1.1270 C   0  0  0  1  0  0  0  0  0  0  0  0
   -6.6050    2.1582   -3.5195 N   0  0  0  1  0  0  0  0  0  0  0  0
   -1.2118    1.8706   -0.6672 H   0  0  0  1  0  0  0  0  0  0  0  0
   -0.6985    2.7593   -2.0818 H   0  0  0  1  0  0  0  0  0  0  0  0
   -2.2709    3.4337   -3.7267 H   0  0  0  1  0  0  0  0  0  0  0  0
   -4.4857    3.1827   -4.6848 H   0  0  0  1  0  0  0  0  0  0  0  0
   -5.8313    1.4364   -1.1113 H   0  0  0  1  0  0  0  0  0  0  0  0
   -3.6202    1.6870   -0.1549 H   0  0  0  1  0  0  0  0  0  0  0  0
   -7.3293    1.7718   -2.9843 H   0  0  0  1  0  0  0  0  0  0  0  0
   -6.7766    2.4482   -4.4398 H   0  0  0  1  0  0  0  0  0  0  0  0
  1  4  1  0  0  0  0
  2  4  1  0  0  0  0
  2  5  2  0  0  0  0
  2  6  1  0  0  0  0
  3  4  1  0  0  0  0
  3  7  1  0  0  0  0
  3  8  1  0  0  0  0
  4 19  1  0  0  0  0
  6  9  1  0  0  0  0
  6 12  1  0  0  0  0
  8 10  1  0  0  0  0
  8 11  2  0  0  0  0
  9 13  1  0  0  0  0
  9 14  1  0  0  0  0
  9 15  1  0  0  0  0
 10 16  1  0  0  0  0
 10 17  1  0  0  0  0
 10 18  1  0  0  0  0
 19 20  1  0  0  0  0
 19 27  1  0  0  0  0
 19 28  1  0  0  0  0
 20 21  4  0  0  0  0
 20 25  4  0  0  0  0
 21 22  4  0  0  0  0
 21 29  1  0  0  0  0
 22 23  4  0  0  0  0
 22 30  1  0  0  0  0
 23 24  4  0  0  0  0
 23 26  1  0  0  0  0
 24 25  4  0  0  0  0
 24 31  1  0  0  0  0
 25 32  1  0  0  0  0
 26 33  1  0  0  0  0
 26 34  1  0  0  0  0
M  END
> <BCLConfClusterSize>
1

> <ConfClashScore>
0 

> <ConfOneFourInteractionScore>
-0.957364 

> <ConfScore>
0.218147 

> <ConfScorePBest>
0.00464399 

> <ConfTolerance>
0.264178 

> <RosettaParamsInstructions>
M  ROOT 3
M  POLY_N_BB 3
M  POLY_CA_BB 4
M  POLY_C_BB 2
M  POLY_O_BB 5
M  POLY_IGNORE 9 10 11 12 13 14 15 16 17 18 
M  POLY_UPPER 6
M  POLY_LOWER 8
M  POLY_CHG 0
M  POLY_PROPERTIES ALPHA_AA D_AA PROTEIN AROMATIC POLYMER 
M  END

$$$$



 34 34  0  0  0  0  0  0  0  0999 V2000
    0.4187    1.6843   -1.0577 H   0  0  0  1  0  0  0  0  0  0  0  0
   -0.0982    1.5960   -3.1049 C   0  0  0  1  0  0  0  0  0  0  0  0
   -1.1045    0.2950   -1.2476 N   0  0  0  1  0  0  0  0  0  0  0  0
   -0.4792    1.5653   -1.6274 C   0  0  0  1  0  0  0  0  0  0  0  0
   -0.6965    0.9206   -3.9278 O   0  0  0  1  0  0  0  0  0  0  0  0
    0.9188    2.4010   -3.4254 N   0  0  0  1  0  0  0  0  0  0  0  0
   -1.4972   -0.2955   -1.9240 H   0  0  0  1  0  0  0  0  0  0  0  0
   -1.1236   -0.0349    0.0470 C   0  0  0  1  0  0  0  0  0  0  0  0
    1.5481    2.5536   -4.7287 C   0  0  0  1  0  0  0  0  0  0  0  0
   -1.8347   -1.3305    0.3861 C   0  0  0  1  0  0  0  0  0  0  0  0
   -0.6039    0.6545    0.9205 O   0  0  0  1  0  0  0  0  0  0  0  0
    1.2824    2.9511   -2.7005 H   0  0  0  1  0  0  0  0  0  0  0  0
    0.8253    2.9045   -5.4354 H   0  0  0  1  0  0  0  0  0  0  0  0
    1.9328    1.6088   -5.0516 H   0  0  0  1  0  0  0  0  0  0  0  0
    2.3488    3.2598   -4.6574 H   0  0  0  1  0  0  0  0  0  0  0  0
   -1.7702   -2.0015   -0.4448 H   0  0  0  1  0  0  0  0  0  0  0  0
   -2.8629   -1.1270    0.6010 H   0  0  0  1  0  0  0  0  0  0  0  0
   -1.3726   -1.7773    1.2416 H   0  0  0  1  0  0  0  0  0  0  0  0
   -1.4251    2.6996   -1.2443 C   0  0  0  1  0  0  0  0  0  0  0  0
   -2.7821    2.5774   -1.8843 C   0  0  0  1  0  0  0  0  0  0  0  0
   -3.0370    3.0182   -3.1692 C   0  0  0  1  0  0  0  0  0  0  0  0
   -4.3045    2.8762   -3.7122 C   0  0  0  1  0  0  0  0  0  0  0  0
   -5.3148    2.2985   -2.9665 C   0  0  0  1  0  0  0  0  0  0  0  0
   -5.0592    1.8563   -1.6778 C   0  0  0  1  0  0  0  0  0  0  0  0
   -3.7954    1.9980   -1.1367 C   0  0  0  1  0  0  0  0  0  0  0  0
   -6.6096    2.1585   -3.5184 N   0  0  0  1  0  0  0  0  0  0  0  0
   -0.9867    3.6266   -1.5498 H   0  0  0  1  0  0  0  0  0  0  0  0
   -1.5483    2.6959   -0.1814 H   0  0  0  1  0  0  0  0  0  0  0  0
   -2.2778    3.4565   -3.7288 H   0  0  0  1  0  0  0  0  0  0  0  0
   -4.4953    3.2042   -4.6805 H   0  0  0  1  0  0  0  0  0  0  0  0
   -5.8184    1.4180   -1.1183 H   0  0  0  1  0  0  0  0  0  0  0  0
   -3.6047    1.6700   -0.1684 H   0  0  0  1  0  0  0  0  0  0  0  0
   -7.3636    1.9125   -2.9428 H   0  0  0  1  0  0  0  0  0  0  0  0
   -6.7526    2.3074   -4.4764 H   0  0  0  1  0  0  0  0  0  0  0  0
  1  4  1  0  0  0  0
  2  4  1  0  0  0  0
  2  5  2  0  0  0  0
  2  6  1  0  0  0  0
  3  4  1  0  0  0  0
  3  7  1  0  0  0  0
  3  8  1  0  0  0  0
  4 19  1  0  0  0  0
  6  9  1  0  0  0  0
  6 12  1  0  0  0  0
  8 10  1  0  0  0  0
  8 11  2  0  0  0  0
  9 13  1  0  0  0  0
  9 14  1  0  0  0  0
  9 15  1  0  0  0  0
 10 16  1  0  0  0  0
 10 17  1  0  0  0  0
 10 18  1  0  0  0  0
 19 20  1  0  0  0  0
 19 27  1  0  0  0  0
 19 28  1  0  0  0  0
 20 21  4  0  0  0  0
 20 25  4  0  0  0  0
 21 22  4  0  0  0  0
 21 29  1  0  0  0  0
 22 23  4  0  0  0  0
 22 30  1  0  0  0  0
 23 24  4  0  0  0  0
 23 26  1  0  0  0  0
 24 25  4  0  0  0  0
 24 31  1  0  0  0  0
 25 32  1  0  0  0  0
 26 33  1  0  0  0  0
 26 34  1  0  0  0  0
M  END
> <BCLConfClusterSize>
1

> <ConfClashScore>
0 

> <ConfOneFourInteractionScore>
-0.978122 

> <ConfScore>
0.219374 

> <ConfScorePBest>
0.00461551 

> <ConfTolerance>
0.311608 

> <RosettaParamsInstructions>
M  ROOT 3
M  POLY_N_BB 3
M  POLY_CA_BB 4
M  POLY_C_BB 2
M  POLY_O_BB 5
M  POLY_IGNORE 9 10 11 12 13 14 15 16 17 18 
M  POLY_UPPER 6
M  POLY_LOWER 8
M  POLY_CHG 0
M  POLY_PROPERTIES ALPHA_AA D_AA PROTEIN AROMATIC POLYMER 
M  END

$$$$



 34 34  0  0  0  0  0  0  0  0999 V2000
   -0.9991    0.7060   -0.8490 H   0  0  0  1  0  0  0  0  0  0  0  0
    0.8277    1.7505   -0.8783 C   0  0  0  1  0  0  0  0  0  0  0  0
   -0.5824    1.0605   -2.8360 N   0  0  0  1  0  0  0  0  0  0  0  0
   -0.5531    1.4770   -1.4419 C   0  0  0  1  0  0  0  0  0  0  0  0
    1.0106    1.8616    0.3228 O   0  0  0  1  0  0  0  0  0  0  0  0
    1.8151    1.8593   -1.7812 N   0  0  0  1  0  0  0  0  0  0  0  0
   -1.2936    1.4254   -3.4031 H   0  0  0  1  0  0  0  0  0  0  0  0
    0.2871    0.2181   -3.4011 C   0  0  0  1  0  0  0  0  0  0  0  0
    3.2203    1.8349   -1.4032 C   0  0  0  1  0  0  0  0  0  0  0  0
    0.0575   -0.1034   -4.8803 C   0  0  0  1  0  0  0  0  0  0  0  0
    1.2362   -0.3096   -2.8451 O   0  0  0  1  0  0  0  0  0  0  0  0
    1.5817    1.9585   -2.7277 H   0  0  0  1  0  0  0  0  0  0  0  0
    3.8221    2.0959   -2.2485 H   0  0  0  1  0  0  0  0  0  0  0  0
    3.4824    0.8529   -1.0686 H   0  0  0  1  0  0  0  0  0  0  0  0
    3.3895    2.5380   -0.6145 H   0  0  0  1  0  0  0  0  0  0  0  0
   -0.5025    0.6869   -5.3349 H   0  0  0  1  0  0  0  0  0  0  0  0
   -0.4870   -1.0206   -4.9653 H   0  0  0  1  0  0  0  0  0  0  0  0
    1.0015   -0.2014   -5.3744 H   0  0  0  1  0  0  0  0  0  0  0  0
   -1.4105    2.7257   -1.2820 C   0  0  0  1  0  0  0  0  0  0  0  0
   -2.7861    2.5763   -1.8748 C   0  0  0  1  0  0  0  0  0  0  0  0
   -3.0289    2.9880   -3.1717 C   0  0  0  1  0  0  0  0  0  0  0  0
   -4.2945    2.8453   -3.7189 C   0  0  0  1  0  0  0  0  0  0  0  0
   -5.3150    2.2961   -2.9657 C   0  0  0  1  0  0  0  0  0  0  0  0
   -5.0716    1.8832   -1.6650 C   0  0  0  1  0  0  0  0  0  0  0  0
   -3.8097    2.0256   -1.1196 C   0  0  0  1  0  0  0  0  0  0  0  0
   -6.6078    2.1555   -3.5221 N   0  0  0  1  0  0  0  0  0  0  0  0
   -0.9174    3.5419   -1.7672 H   0  0  0  1  0  0  0  0  0  0  0  0
   -1.5108    2.9385   -0.2382 H   0  0  0  1  0  0  0  0  0  0  0  0
   -2.2619    3.4049   -3.7371 H   0  0  0  1  0  0  0  0  0  0  0  0
   -4.4761    3.1514   -4.6961 H   0  0  0  1  0  0  0  0  0  0  0  0
   -5.8386    1.4663   -1.0996 H   0  0  0  1  0  0  0  0  0  0  0  0
   -3.6281    1.7195   -0.1424 H   0  0  0  1  0  0  0  0  0  0  0  0
   -7.2686    1.5777   -3.0863 H   0  0  0  1  0  0  0  0  0  0  0  0
   -6.8426    2.6358   -4.3434 H   0  0  0  1  0  0  0  0  0  0  0  0
  1  4  1  0  0  0  0
  2  4  1  0  0  0  0
  2  5  2  0  0  0  0
  2  6  1  0  0  0  0
  3  4  1  0  0  0  0
  3  7  1  0  0  0  0
  3  8  1  0  0  0  0
  4 19  1  0  0  0  0
  6  9  1  0  0  0  0
  6 12  1  0  0  0  0
  8 10  1  0  0  0  0
  8 11  2  0  0  0  0
  9 13  1  0  0  0  0
  9 14  1  0  0  0  0
  9 15  1  0  0  0  0
 10 16  1  0  0  0  0
 10 17  1  0  0  0  0
 10 18  1  0  0  0  0
 19 20  1  0  0  0  0
 19 27  1  0  0  0  0
 19 28  1  0  0  0  0
 20 21  4  0  0  0  0
 20 25  4  0  0  0  0
 21 22  4  0  0  0  0
 21 29  1  0  0  0  0
 22 23  4  0  0  0  0
 22 30  1  0  0  0  0
 23 24  4  0  0  0  0
 23 26  1  0  0  0  0
 24 25  4  0  0  0  0
 24 31  1  0  0  0  0
 25 32  1  0  0  0  0
 26 33  1  0  0  0  0
 26 34  1  0  0  0  0
M  END
> <BCLConfClusterSize>
1

> <ConfClashScore>
0 

> <ConfOneFourInteractionScore>
-0.960318 

> <ConfScore>
0.22003 

> <ConfScorePBest>
0.00458703 

> <ConfTolerance>
0.385546 

> <RosettaParamsInstructions>
M  ROOT 3
M  POLY_N_BB 3
M  POLY_CA_BB 4
M  POLY_C_BB 2
M  POLY_O_BB 5
M  POLY_IGNORE 9 10 11 12 13 14 15 16 17 18 
M  POLY_UPPER 6
M  POLY_LOWER 8
M  POLY_CHG 0
M  POLY_PROPERTIES ALPHA_AA D_AA PROTEIN AROMATIC POLYMER 
M  END

$$$$



 34 34  0  0  0  0  0  0  0  0999 V2000
   -1.2280    4.8144   -1.2567 H   0  0  0  1  0  0  0  0  0  0  0  0
    0.2271    4.0816    0.0797 C   0  0  0  1  0  0  0  0  0  0  0  0
   -2.2139    4.2104    0.4608 N   0  0  0  1  0  0  0  0  0  0  0  0
   -1.1577    4.0242   -0.5387 C   0  0  0  1  0  0  0  0  0  0  0  0
    1.2082    4.5216   -0.4893 O   0  0  0  1  0  0  0  0  0  0  0  0
    0.3308    3.6083    1.3309 N   0  0  0  1  0  0  0  0  0  0  0  0
   -1.9884    4.0301    1.3973 H   0  0  0  1  0  0  0  0  0  0  0  0
   -3.4587    4.6068    0.1915 C   0  0  0  1  0  0  0  0  0  0  0  0
    1.6406    3.4419    1.9430 C   0  0  0  1  0  0  0  0  0  0  0  0
   -4.4332    4.5407    1.3456 C   0  0  0  1  0  0  0  0  0  0  0  0
   -3.8100    5.0037   -0.9188 O   0  0  0  1  0  0  0  0  0  0  0  0
   -0.4772    3.3741    1.8337 H   0  0  0  1  0  0  0  0  0  0  0  0
    2.2576    2.8407    1.3083 H   0  0  0  1  0  0  0  0  0  0  0  0
    1.5317    2.9616    2.8929 H   0  0  0  1  0  0  0  0  0  0  0  0
    2.0955    4.4010    2.0777 H   0  0  0  1  0  0  0  0  0  0  0  0
   -4.2229    5.3304    2.0363 H   0  0  0  1  0  0  0  0  0  0  0  0
   -4.3348    3.5978    1.8416 H   0  0  0  1  0  0  0  0  0  0  0  0
   -5.4316    4.6472    0.9756 H   0  0  0  1  0  0  0  0  0  0  0  0
   -1.4152    2.7162   -1.2688 C   0  0  0  1  0  0  0  0  0  0  0  0
   -2.7887    2.5711   -1.8675 C   0  0  0  1  0  0  0  0  0  0  0  0
   -3.0309    3.0065   -3.1568 C   0  0  0  1  0  0  0  0  0  0  0  0
   -4.2945    2.8678   -3.7095 C   0  0  0  1  0  0  0  0  0  0  0  0
   -5.3137    2.2988   -2.9693 C   0  0  0  1  0  0  0  0  0  0  0  0
   -5.0709    1.8620   -1.6763 C   0  0  0  1  0  0  0  0  0  0  0  0
   -3.8110    2.0005   -1.1254 C   0  0  0  1  0  0  0  0  0  0  0  0
   -6.6045    2.1621   -3.5313 N   0  0  0  1  0  0  0  0  0  0  0  0
   -1.2723    1.9161   -0.5730 H   0  0  0  1  0  0  0  0  0  0  0  0
   -0.6998    2.6335   -2.0601 H   0  0  0  1  0  0  0  0  0  0  0  0
   -2.2649    3.4383   -3.7122 H   0  0  0  1  0  0  0  0  0  0  0  0
   -4.4757    3.1917   -4.6810 H   0  0  0  1  0  0  0  0  0  0  0  0
   -5.8369    1.4302   -1.1208 H   0  0  0  1  0  0  0  0  0  0  0  0
   -3.6299    1.6765   -0.1539 H   0  0  0  1  0  0  0  0  0  0  0  0
   -6.7617    2.4146   -4.4650 H   0  0  0  1  0  0  0  0  0  0  0  0
   -7.3417    1.8148   -2.9868 H   0  0  0  1  0  0  0  0  0  0  0  0
  1  4  1  0  0  0  0
  2  4  1  0  0  0  0
  2  5  2  0  0  0  0
  2  6  1  0  0  0  0
  3  4  1  0  0  0  0
  3  7  1  0  0  0  0
  3  8  1  0  0  0  0
  4 19  1  0  0  0  0
  6  9  1  0  0  0  0
  6 12  1  0  0  0  0
  8 10  1  0  0  0  0
  8 11  2  0  0  0  0
  9 13  1  0  0  0  0
  9 14  1  0  0  0  0
  9 15  1  0  0  0  0
 10 16  1  0  0  0  0
 10 17  1  0  0  0  0
 10 18  1  0  0  0  0
 19 20  1  0  0  0  0
 19 27  1  0  0  0  0
 19 28  1  0  0  0  0
 20 21  4  0  0  0  0
 20 25  4  0  0  0  0
 21 22  4  0  0  0  0
 21 29  1  0  0  0  0
 22 23  4  0  0  0  0
 22 30  1  0  0  0  0
 23 24  4  0  0  0  0
 23 26  1  0  0  0  0
 24 25  4  0  0  0  0
 24 31  1  0  0  0  0
 25 32  1  0  0  0  0
 26 33  1  0  0  0  0
 26 34  1  0  0  0  0
M  END
> <BCLConfClusterSize>
1

> <ConfClashScore>
0 

> <ConfOneFourInteractionScore>
-0.965014 

> <ConfScore>
0.221767 

> <ConfScorePBest>
0.00455855 

> <ConfTolerance>
0.524229 

> <RosettaParamsInstructions>
M  ROOT 3
M  POLY_N_BB 3
M  POLY_CA_BB 4
M  POLY_C_BB 2
M  POLY_O_BB 5
M  POLY_IGNORE 9 10 11 12 13 14 15 16 17 18 
M  POLY_UPPER 6
M  POLY_LOWER 8
M  POLY_CHG 0
M  POLY_PROPERTIES ALPHA_AA D_AA PROTEIN AROMATIC POLYMER 
M  END

$$$$



 34 34  0  0  0  0  0  0  0  0999 V2000
   -1.6886    4.2353    0.1575 H   0  0  0  1  0  0  0  0  0  0  0  0
   -1.3869    5.2321   -1.6688 C   0  0  0  1  0  0  0  0  0  0  0  0
    0.3249    4.1548   -0.3118 N   0  0  0  1  0  0  0  0  0  0  0  0
   -1.0869    4.0917   -0.7156 C   0  0  0  1  0  0  0  0  0  0  0  0
   -2.4858    5.7618   -1.7069 O   0  0  0  1  0  0  0  0  0  0  0  0
   -0.3438    5.5804   -2.4386 N   0  0  0  1  0  0  0  0  0  0  0  0
    0.8840    4.8811   -0.6587 H   0  0  0  1  0  0  0  0  0  0  0  0
    0.8850    3.2361    0.5304 C   0  0  0  1  0  0  0  0  0  0  0  0
   -0.4440    6.6064   -3.4658 C   0  0  0  1  0  0  0  0  0  0  0  0
    2.3870    3.3623    0.6491 C   0  0  0  1  0  0  0  0  0  0  0  0
    0.2158    2.4057    1.1171 O   0  0  0  1  0  0  0  0  0  0  0  0
    0.5151    5.1280   -2.3042 H   0  0  0  1  0  0  0  0  0  0  0  0
   -1.2083    7.3059   -3.1986 H   0  0  0  1  0  0  0  0  0  0  0  0
   -0.6896    6.1506   -4.4022 H   0  0  0  1  0  0  0  0  0  0  0  0
    0.4923    7.1172   -3.5519 H   0  0  0  1  0  0  0  0  0  0  0  0
    2.7492    2.6559    1.3666 H   0  0  0  1  0  0  0  0  0  0  0  0
    2.6374    4.3530    0.9666 H   0  0  0  1  0  0  0  0  0  0  0  0
    2.8373    3.1674   -0.3017 H   0  0  0  1  0  0  0  0  0  0  0  0
   -1.4148    2.7147   -1.2694 C   0  0  0  1  0  0  0  0  0  0  0  0
   -2.7885    2.5703   -1.8679 C   0  0  0  1  0  0  0  0  0  0  0  0
   -3.0328    3.0137   -3.1539 C   0  0  0  1  0  0  0  0  0  0  0  0
   -4.2967    2.8756   -3.7064 C   0  0  0  1  0  0  0  0  0  0  0  0
   -5.3138    2.2992   -2.9691 C   0  0  0  1  0  0  0  0  0  0  0  0
   -5.0688    1.8544   -1.6793 C   0  0  0  1  0  0  0  0  0  0  0  0
   -3.8087    1.9922   -1.1286 C   0  0  0  1  0  0  0  0  0  0  0  0
   -6.6048    2.1632   -3.5308 N   0  0  0  1  0  0  0  0  0  0  0  0
   -1.3268    2.0082   -0.4707 H   0  0  0  1  0  0  0  0  0  0  0  0
   -0.6977    2.4854   -2.0298 H   0  0  0  1  0  0  0  0  0  0  0  0
   -2.2685    3.4510   -3.7072 H   0  0  0  1  0  0  0  0  0  0  0  0
   -4.4795    3.2056   -4.6756 H   0  0  0  1  0  0  0  0  0  0  0  0
   -5.8332    1.4171   -1.1261 H   0  0  0  1  0  0  0  0  0  0  0  0
   -3.6259    1.6622   -0.1595 H   0  0  0  1  0  0  0  0  0  0  0  0
   -6.7859    2.5049   -4.4313 H   0  0  0  1  0  0  0  0  0  0  0  0
   -7.3182    1.7272   -3.0196 H   0  0  0  1  0  0  0  0  0  0  0  0
  1  4  1  0  0  0  0
  2  4  1  0  0  0  0
  2  5  2  0  0  0  0
  2  6  1  0  0  0  0
  3  4  1  0  0  0  0
  3  7  1  0  0  0  0
  3  8  1  0  0  0  0
  4 19  1  0  0  0  0
  6  9  1  0  0  0  0
  6 12  1  0  0  0  0
  8 10  1  0  0  0  0
  8 11  2  0  0  0  0
  9 13  1  0  0  0  0
  9 14  1  0  0  0  0
  9 15  1  0  0  0  0
 10 16  1  0  0  0  0
 10 17  1  0  0  0  0
 10 18  1  0  0  0  0
 19 20  1  0  0  0  0
 19 27  1  0  0  0  0
 19 28  1  0  0  0  0
 20 21  4  0  0  0  0
 20 25  4  0  0  0  0
 21 22  4  0  0  0  0
 21 29  1  0  0  0  0
 22 23  4  0  0  0  0
 22 30  1  0  0  0  0
 23 24  4  0  0  0  0
 23 26  1  0  0  0  0
 24 25  4  0  0  0  0
 24 31  1  0  0  0  0
 25 32  1  0  0  0  0
 26 33  1  0  0  0  0
 26 34  1  0  0  0  0
M  END
> <BCLConfClusterSize>
1

> <ConfClashScore>
0 

> <ConfOneFourInteractionScore>
-0.958472 

> <ConfScore>
0.22209 

> <ConfScorePBest>
0.00453007 

> <ConfTolerance>
0.390427 

> <RosettaParamsInstructions>
M  ROOT 3
M  POLY_N_BB 3
M  POLY_CA_BB 4
M  POLY_C_BB 2
M  POLY_O_BB 5
M  POLY_IGNORE 9 10 11 12 13 14 15 16 17 18 
M  POLY_UPPER 6
M  POLY_LOWER 8
M  POLY_CHG 0
M  POLY_PROPERTIES ALPHA_AA D_AA PROTEIN AROMATIC POLYMER 
M  END

$$$$



 34 34  0  0  0  0  0  0  0  0999 V2000
    0.3280    1.6320   -0.8893 H   0  0  0  1  0  0  0  0  0  0  0  0
   -0.2727    1.1654   -2.8446 C   0  0  0  1  0  0  0  0  0  0  0  0
   -1.2987    0.3900   -0.7046 N   0  0  0  1  0  0  0  0  0  0  0  0
   -0.6002    1.4651   -1.3948 C   0  0  0  1  0  0  0  0  0  0  0  0
   -0.5135    1.9814   -3.7367 O   0  0  0  1  0  0  0  0  0  0  0  0
    0.2878   -0.0306   -3.0803 N   0  0  0  1  0  0  0  0  0  0  0  0
   -1.3287    0.4167    0.2745 H   0  0  0  1  0  0  0  0  0  0  0  0
   -1.9071   -0.6407   -1.3273 C   0  0  0  1  0  0  0  0  0  0  0  0
    0.7376   -0.4308   -4.4053 C   0  0  0  1  0  0  0  0  0  0  0  0
   -2.4355   -1.7774   -0.4741 C   0  0  0  1  0  0  0  0  0  0  0  0
   -2.0309   -0.6602   -2.5513 O   0  0  0  1  0  0  0  0  0  0  0  0
    0.3982   -0.6565   -2.3344 H   0  0  0  1  0  0  0  0  0  0  0  0
    1.6931   -0.9064   -4.3296 H   0  0  0  1  0  0  0  0  0  0  0  0
    0.8183    0.4338   -5.0305 H   0  0  0  1  0  0  0  0  0  0  0  0
    0.0321   -1.1140   -4.8299 H   0  0  0  1  0  0  0  0  0  0  0  0
   -1.7887   -1.9242    0.3655 H   0  0  0  1  0  0  0  0  0  0  0  0
   -2.4716   -2.6738   -1.0573 H   0  0  0  1  0  0  0  0  0  0  0  0
   -3.4190   -1.5363   -0.1286 H   0  0  0  1  0  0  0  0  0  0  0  0
   -1.4242    2.7521   -1.2540 C   0  0  0  1  0  0  0  0  0  0  0  0
   -2.7902    2.5806   -1.8629 C   0  0  0  1  0  0  0  0  0  0  0  0
   -3.0340    3.0213   -3.1499 C   0  0  0  1  0  0  0  0  0  0  0  0
   -4.2906    2.8583   -3.7121 C   0  0  0  1  0  0  0  0  0  0  0  0
   -5.3011    2.2598   -2.9833 C   0  0  0  1  0  0  0  0  0  0  0  0
   -5.0567    1.8178   -1.6925 C   0  0  0  1  0  0  0  0  0  0  0  0
   -3.8038    1.9804   -1.1322 C   0  0  0  1  0  0  0  0  0  0  0  0
   -6.6165    2.1849   -3.5260 N   0  0  0  1  0  0  0  0  0  0  0  0
   -0.9156    3.5506   -1.7525 H   0  0  0  1  0  0  0  0  0  0  0  0
   -1.5301    2.9891   -0.2159 H   0  0  0  1  0  0  0  0  0  0  0  0
   -2.2747    3.4752   -3.6968 H   0  0  0  1  0  0  0  0  0  0  0  0
   -4.4730    3.1862   -4.6820 H   0  0  0  1  0  0  0  0  0  0  0  0
   -5.8160    1.3639   -1.1457 H   0  0  0  1  0  0  0  0  0  0  0  0
   -3.6214    1.6524   -0.1623 H   0  0  0  1  0  0  0  0  0  0  0  0
   -6.8277    2.6462   -4.3644 H   0  0  0  1  0  0  0  0  0  0  0  0
   -7.3101    1.6722   -3.0607 H   0  0  0  1  0  0  0  0  0  0  0  0
  1  4  1  0  0  0  0
  2  4  1  0  0  0  0
  2  5  2  0  0  0  0
  2  6  1  0  0  0  0
  3  4  1  0  0  0  0
  3  7  1  0  0  0  0
  3  8  1  0  0  0  0
  4 19  1  0  0  0  0
  6  9  1  0  0  0  0
  6 12  1  0  0  0  0
  8 10  1  0  0  0  0
  8 11  2  0  0  0  0
  9 13  1  0  0  0  0
  9 14  1  0  0  0  0
  9 15  1  0  0  0  0
 10 16  1  0  0  0  0
 10 17  1  0  0  0  0
 10 18  1  0  0  0  0
 19 20  1  0  0  0  0
 19 27  1  0  0  0  0
 19 28  1  0  0  0  0
 20 21  4  0  0  0  0
 20 25  4  0  0  0  0
 21 22  4  0  0  0  0
 21 29  1  0  0  0  0
 22 23  4  0  0  0  0
 22 30  1  0  0  0  0
 23 24  4  0  0  0  0
 23 26  1  0  0  0  0
 24 25  4  0  0  0  0
 24 31  1  0  0  0  0
 25 32  1  0  0  0  0
 26 33  1  0  0  0  0
 26 34  1  0  0  0  0
M  END
> <BCLConfClusterSize>
1

> <ConfClashScore>
0.000546004 

> <ConfOneFourInteractionScore>
-0.966825 

> <ConfScore>
0.222642 

> <ConfScorePBest>
0.00450159 

> <ConfTolerance>
0.280749 

> <RosettaParamsInstructions>
M  ROOT 3
M  POLY_N_BB 3
M  POLY_CA_BB 4
M  POLY_C_BB 2
M  POLY_O_BB 5
M  POLY_IGNORE 9 10 11 12 13 14 15 16 17 18 
M  POLY_UPPER 6
M  POLY_LOWER 8
M  POLY_CHG 0
M  POLY_PROPERTIES ALPHA_AA D_AA PROTEIN AROMATIC POLYMER 
M  END

$$$$



 34 34  0  0  0  0  0  0  0  0999 V2000
   -1.1694    0.6671   -0.8434 H   0  0  0  1  0  0  0  0  0  0  0  0
    0.6721    1.5893   -0.4033 C   0  0  0  1  0  0  0  0  0  0  0  0
   -0.2487    1.1016   -2.6458 N   0  0  0  1  0  0  0  0  0  0  0  0
   -0.5719    1.4512   -1.2593 C   0  0  0  1  0  0  0  0  0  0  0  0
    1.7971    1.4181   -0.8773 O   0  0  0  1  0  0  0  0  0  0  0  0
    0.4618    1.9058    0.8843 N   0  0  0  1  0  0  0  0  0  0  0  0
   -0.4824    0.2087   -2.9752 H   0  0  0  1  0  0  0  0  0  0  0  0
    0.3595    1.9663   -3.4841 C   0  0  0  1  0  0  0  0  0  0  0  0
    1.5502    2.0275    1.8426 C   0  0  0  1  0  0  0  0  0  0  0  0
    0.6157    1.5177   -4.9050 C   0  0  0  1  0  0  0  0  0  0  0  0
    0.6966    3.0875   -3.1059 O   0  0  0  1  0  0  0  0  0  0  0  0
   -0.4566    2.0603    1.1894 H   0  0  0  1  0  0  0  0  0  0  0  0
    2.4690    2.1947    1.3203 H   0  0  0  1  0  0  0  0  0  0  0  0
    1.6242    1.1261    2.4143 H   0  0  0  1  0  0  0  0  0  0  0  0
    1.3577    2.8512    2.4978 H   0  0  0  1  0  0  0  0  0  0  0  0
    0.8054    0.4647   -4.9184 H   0  0  0  1  0  0  0  0  0  0  0  0
    1.4653    2.0379   -5.2953 H   0  0  0  1  0  0  0  0  0  0  0  0
   -0.2424    1.7329   -5.5069 H   0  0  0  1  0  0  0  0  0  0  0  0
   -1.4151    2.7158   -1.2690 C   0  0  0  1  0  0  0  0  0  0  0  0
   -2.7886    2.5709   -1.8676 C   0  0  0  1  0  0  0  0  0  0  0  0
   -3.0314    3.0086   -3.1560 C   0  0  0  1  0  0  0  0  0  0  0  0
   -4.2951    2.8700   -3.7086 C   0  0  0  1  0  0  0  0  0  0  0  0
   -5.3137    2.2989   -2.9692 C   0  0  0  1  0  0  0  0  0  0  0  0
   -5.0704    1.8599   -1.6771 C   0  0  0  1  0  0  0  0  0  0  0  0
   -3.8104    1.9981   -1.1263 C   0  0  0  1  0  0  0  0  0  0  0  0
   -6.6046    2.1624   -3.5311 N   0  0  0  1  0  0  0  0  0  0  0  0
   -0.8879    3.4598   -1.8288 H   0  0  0  1  0  0  0  0  0  0  0  0
   -1.5291    3.0443   -0.2570 H   0  0  0  1  0  0  0  0  0  0  0  0
   -2.2659    3.4419   -3.7108 H   0  0  0  1  0  0  0  0  0  0  0  0
   -4.4767    3.1956   -4.6795 H   0  0  0  1  0  0  0  0  0  0  0  0
   -5.8358    1.4265   -1.1223 H   0  0  0  1  0  0  0  0  0  0  0  0
   -3.6288    1.6725   -0.1554 H   0  0  0  1  0  0  0  0  0  0  0  0
   -6.7681    2.4404   -4.4566 H   0  0  0  1  0  0  0  0  0  0  0  0
   -7.3355    1.7898   -2.9950 H   0  0  0  1  0  0  0  0  0  0  0  0
  1  4  1  0  0  0  0
  2  4  1  0  0  0  0
  2  5  2  0  0  0  0
  2  6  1  0  0  0  0
  3  4  1  0  0  0  0
  3  7  1  0  0  0  0
  3  8  1  0  0  0  0
  4 19  1  0  0  0  0
  6  9  1  0  0  0  0
  6 12  1  0  0  0  0
  8 10  1  0  0  0  0
  8 11  2  0  0  0  0
  9 13  1  0  0  0  0
  9 14  1  0  0  0  0
  9 15  1  0  0  0  0
 10 16  1  0  0  0  0
 10 17  1  0  0  0  0
 10 18  1  0  0  0  0
 19 20  1  0  0  0  0
 19 27  1  0  0  0  0
 19 28  1  0  0  0  0
 20 21  4  0  0  0  0
 20 25  4  0  0  0  0
 21 22  4  0  0  0  0
 21 29  1  0  0  0  0
 22 23  4  0  0  0  0
 22 30  1  0  0  0  0
 23 24  4  0  0  0  0
 23 26  1  0  0  0  0
 24 25  4  0  0  0  0
 24 31  1  0  0  0  0
 25 32  1  0  0  0  0
 26 33  1  0  0  0  0
 26 34  1  0  0  0  0
M  END
> <BCLConfClusterSize>
1

> <ConfClashScore>
0 

> <ConfOneFourInteractionScore>
-0.984199 

> <ConfScore>
0.223248 

> <ConfScorePBest>
0.00447311 

> <ConfTolerance>
0.478347 

> <RosettaParamsInstructions>
M  ROOT 3
M  POLY_N_BB 3
M  POLY_CA_BB 4
M  POLY_C_BB 2
M  POLY_O_BB 5
M  POLY_IGNORE 9 10 11 12 13 14 15 16 17 18 
M  POLY_UPPER 6
M  POLY_LOWER 8
M  POLY_CHG 0
M  POLY_PROPERTIES ALPHA_AA D_AA PROTEIN AROMATIC POLYMER 
M  END

$$$$



 34 34  0  0  0  0  0  0  0  0999 V2000
   -0.7612    3.9256   -2.9133 H   0  0  0  1  0  0  0  0  0  0  0  0
   -0.0770    1.9764   -3.2984 C   0  0  0  1  0  0  0  0  0  0  0  0
    0.8550    3.5896   -1.6859 N   0  0  0  1  0  0  0  0  0  0  0  0
   -0.3550    3.1183   -2.3404 C   0  0  0  1  0  0  0  0  0  0  0  0
   -0.3917    0.8298   -3.0250 O   0  0  0  1  0  0  0  0  0  0  0  0
    0.5293    2.3137   -4.4476 N   0  0  0  1  0  0  0  0  0  0  0  0
    0.9680    3.4261   -0.7262 H   0  0  0  1  0  0  0  0  0  0  0  0
    1.8179    4.2379   -2.3472 C   0  0  0  1  0  0  0  0  0  0  0  0
    0.8239    1.2954   -5.4446 C   0  0  0  1  0  0  0  0  0  0  0  0
    3.1073    4.4617   -1.5813 C   0  0  0  1  0  0  0  0  0  0  0  0
    1.6864    4.6320   -3.4943 O   0  0  0  1  0  0  0  0  0  0  0  0
    0.7741    3.2477   -4.6155 H   0  0  0  1  0  0  0  0  0  0  0  0
    1.2344    0.4324   -4.9633 H   0  0  0  1  0  0  0  0  0  0  0  0
    1.5311    1.6805   -6.1493 H   0  0  0  1  0  0  0  0  0  0  0  0
   -0.0770    1.0245   -5.9544 H   0  0  0  1  0  0  0  0  0  0  0  0
    3.0204    4.0358   -0.6035 H   0  0  0  1  0  0  0  0  0  0  0  0
    3.2943    5.5119   -1.4973 H   0  0  0  1  0  0  0  0  0  0  0  0
    3.9170    3.9953   -2.1025 H   0  0  0  1  0  0  0  0  0  0  0  0
   -1.4053    2.7291   -1.2959 C   0  0  0  1  0  0  0  0  0  0  0  0
   -2.7856    2.5753   -1.8766 C   0  0  0  1  0  0  0  0  0  0  0  0
   -3.0437    2.9958   -3.1676 C   0  0  0  1  0  0  0  0  0  0  0  0
   -4.3136    2.8490   -3.7037 C   0  0  0  1  0  0  0  0  0  0  0  0
   -5.3230    2.2870   -2.9450 C   0  0  0  1  0  0  0  0  0  0  0  0
   -5.0643    1.8653   -1.6502 C   0  0  0  1  0  0  0  0  0  0  0  0
   -3.7981    2.0117   -1.1159 C   0  0  0  1  0  0  0  0  0  0  0  0
   -6.6006    2.1666   -3.5400 N   0  0  0  1  0  0  0  0  0  0  0  0
   -1.4351    3.4891   -0.5433 H   0  0  0  1  0  0  0  0  0  0  0  0
   -1.1166    1.7989   -0.8529 H   0  0  0  1  0  0  0  0  0  0  0  0
   -2.2851    3.4223   -3.7370 H   0  0  0  1  0  0  0  0  0  0  0  0
   -4.5068    3.1618   -4.6765 H   0  0  0  1  0  0  0  0  0  0  0  0
   -5.8229    1.4387   -1.0808 H   0  0  0  1  0  0  0  0  0  0  0  0
   -3.6049    1.6990   -0.1430 H   0  0  0  1  0  0  0  0  0  0  0  0
   -7.3268    1.7213   -3.0555 H   0  0  0  1  0  0  0  0  0  0  0  0
   -6.7595    2.5283   -4.4369 H   0  0  0  1  0  0  0  0  0  0  0  0
  1  4  1  0  0  0  0
  2  4  1  0  0  0  0
  2  5  2  0  0  0  0
  2  6  1  0  0  0  0
  3  4  1  0  0  0  0
  3  7  1  0  0  0  0
  3  8  1  0  0  0  0
  4 19  1  0  0  0  0
  6  9  1  0  0  0  0
  6 12  1  0  0  0  0
  8 10  1  0  0  0  0
  8 11  2  0  0  0  0
  9 13  1  0  0  0  0
  9 14  1  0  0  0  0
  9 15  1  0  0  0  0
 10 16  1  0  0  0  0
 10 17  1  0  0  0  0
 10 18  1  0  0  0  0
 19 20  1  0  0  0  0
 19 27  1  0  0  0  0
 19 28  1  0  0  0  0
 20 21  4  0  0  0  0
 20 25  4  0  0  0  0
 21 22  4  0  0  0  0
 21 29  1  0  0  0  0
 22 23  4  0  0  0  0
 22 30  1  0  0  0  0
 23 24  4  0  0  0  0
 23 26  1  0  0  0  0
 24 25  4  0  0  0  0
 24 31  1  0  0  0  0
 25 32  1  0  0  0  0
 26 33  1  0  0  0  0
 26 34  1  0  0  0  0
M  END
> <BCLConfClusterSize>
1

> <ConfClashScore>
0 

> <ConfOneFourInteractionScore>
-0.971693 

> <ConfScore>
0.22525 

> <ConfScorePBest>
0.00444463 

> <ConfTolerance>
0.597646 

> <RosettaParamsInstructions>
M  ROOT 3
M  POLY_N_BB 3
M  POLY_CA_BB 4
M  POLY_C_BB 2
M  POLY_O_BB 5
M  POLY_IGNORE 9 10 11 12 13 14 15 16 17 18 
M  POLY_UPPER 6
M  POLY_LOWER 8
M  POLY_CHG 0
M  POLY_PROPERTIES ALPHA_AA D_AA PROTEIN AROMATIC POLYMER 
M  END

$$$$



 34 34  0  0  0  0  0  0  0  0999 V2000
   -1.1639    4.7034   -2.0102 H   0  0  0  1  0  0  0  0  0  0  0  0
    0.4351    4.3368   -0.6850 C   0  0  0  1  0  0  0  0  0  0  0  0
   -1.8565    4.8644   -0.0711 N   0  0  0  1  0  0  0  0  0  0  0  0
   -1.0258    4.2100   -1.0708 C   0  0  0  1  0  0  0  0  0  0  0  0
    1.0728    3.3792   -0.2552 O   0  0  0  1  0  0  0  0  0  0  0  0
    0.9343    5.5706   -0.8602 N   0  0  0  1  0  0  0  0  0  0  0  0
   -2.4347    4.2964    0.4799 H   0  0  0  1  0  0  0  0  0  0  0  0
   -1.8903    6.1812    0.1522 C   0  0  0  1  0  0  0  0  0  0  0  0
    2.2806    5.8370   -0.3877 C   0  0  0  1  0  0  0  0  0  0  0  0
   -2.7517    6.6683    1.3178 C   0  0  0  1  0  0  0  0  0  0  0  0
   -1.3292    6.9901   -0.5857 O   0  0  0  1  0  0  0  0  0  0  0  0
    0.4048    6.2714   -1.2948 H   0  0  0  1  0  0  0  0  0  0  0  0
    2.9876    5.5179   -1.1248 H   0  0  0  1  0  0  0  0  0  0  0  0
    2.4506    5.3032    0.5239 H   0  0  0  1  0  0  0  0  0  0  0  0
    2.3962    6.8865   -0.2139 H   0  0  0  1  0  0  0  0  0  0  0  0
   -3.4996    5.9360    1.5396 H   0  0  0  1  0  0  0  0  0  0  0  0
   -3.2239    7.5906    1.0509 H   0  0  0  1  0  0  0  0  0  0  0  0
   -2.1342    6.8192    2.1786 H   0  0  0  1  0  0  0  0  0  0  0  0
   -1.4278    2.7485   -1.2455 C   0  0  0  1  0  0  0  0  0  0  0  0
   -2.7900    2.5815   -1.8641 C   0  0  0  1  0  0  0  0  0  0  0  0
   -3.0229    3.0216   -3.1534 C   0  0  0  1  0  0  0  0  0  0  0  0
   -4.2760    2.8627   -3.7245 C   0  0  0  1  0  0  0  0  0  0  0  0
   -5.2940    2.2689   -3.0024 C   0  0  0  1  0  0  0  0  0  0  0  0
   -5.0605    1.8274   -1.7093 C   0  0  0  1  0  0  0  0  0  0  0  0
   -3.8111    1.9859   -1.1402 C   0  0  0  1  0  0  0  0  0  0  0  0
   -6.6242    2.1741   -3.5042 N   0  0  0  1  0  0  0  0  0  0  0  0
   -1.4305    2.2788   -0.2841 H   0  0  0  1  0  0  0  0  0  0  0  0
   -0.7069    2.2699   -1.8749 H   0  0  0  1  0  0  0  0  0  0  0  0
   -2.2579    3.4721   -3.6952 H   0  0  0  1  0  0  0  0  0  0  0  0
   -4.4501    3.1903   -4.6960 H   0  0  0  1  0  0  0  0  0  0  0  0
   -5.8255    1.3770   -1.1675 H   0  0  0  1  0  0  0  0  0  0  0  0
   -3.6370    1.6584   -0.1686 H   0  0  0  1  0  0  0  0  0  0  0  0
   -6.8548    2.5876   -4.3623 H   0  0  0  1  0  0  0  0  0  0  0  0
   -7.3084    1.6954   -2.9914 H   0  0  0  1  0  0  0  0  0  0  0  0
  1  4  1  0  0  0  0
  2  4  1  0  0  0  0
  2  5  2  0  0  0  0
  2  6  1  0  0  0  0
  3  4  1  0  0  0  0
  3  7  1  0  0  0  0
  3  8  1  0  0  0  0
  4 19  1  0  0  0  0
  6  9  1  0  0  0  0
  6 12  1  0  0  0  0
  8 10  1  0  0  0  0
  8 11  2  0  0  0  0
  9 13  1  0  0  0  0
  9 14  1  0  0  0  0
  9 15  1  0  0  0  0
 10 16  1  0  0  0  0
 10 17  1  0  0  0  0
 10 18  1  0  0  0  0
 19 20  1  0  0  0  0
 19 27  1  0  0  0  0
 19 28  1  0  0  0  0
 20 21  4  0  0  0  0
 20 25  4  0  0  0  0
 21 22  4  0  0  0  0
 21 29  1  0  0  0  0
 22 23  4  0  0  0  0
 22 30  1  0  0  0  0
 23 24  4  0  0  0  0
 23 26  1  0  0  0  0
 24 25  4  0  0  0  0
 24 31  1  0  0  0  0
 25 32  1  0  0  0  0
 26 33  1  0  0  0  0
 26 34  1  0  0  0  0
M  END
> <BCLConfClusterSize>
1

> <ConfClashScore>
0 

> <ConfOneFourInteractionScore>
-0.979134 

> <ConfScore>
0.229017 

> <ConfScorePBest>
0.00441614 

> <ConfTolerance>
0.435709 

> <RosettaParamsInstructions>
M  ROOT 3
M  POLY_N_BB 3
M  POLY_CA_BB 4
M  POLY_C_BB 2
M  POLY_O_BB 5
M  POLY_IGNORE 9 10 11 12 13 14 15 16 17 18 
M  POLY_UPPER 6
M  POLY_LOWER 8
M  POLY_CHG 0
M  POLY_PROPERTIES ALPHA_AA D_AA PROTEIN AROMATIC POLYMER 
M  END

$$$$



 34 34  0  0  0  0  0  0  0  0999 V2000
   -0.6542    4.4520   -2.0310 H   0  0  0  1  0  0  0  0  0  0  0  0
    0.4863    3.9588   -0.3315 C   0  0  0  1  0  0  0  0  0  0  0  0
   -1.7929    4.9814   -0.4059 N   0  0  0  1  0  0  0  0  0  0  0  0
   -0.8560    4.0735   -1.0507 C   0  0  0  1  0  0  0  0  0  0  0  0
    1.5006    3.5872   -0.9254 O   0  0  0  1  0  0  0  0  0  0  0  0
    0.4801    4.2862    0.9704 N   0  0  0  1  0  0  0  0  0  0  0  0
   -2.4758    4.6107    0.1912 H   0  0  0  1  0  0  0  0  0  0  0  0
   -1.7535    6.3328   -0.6042 C   0  0  0  1  0  0  0  0  0  0  0  0
    1.7058    4.4290    1.7419 C   0  0  0  1  0  0  0  0  0  0  0  0
   -2.9826    7.0566   -0.0897 C   0  0  0  1  0  0  0  0  0  0  0  0
   -0.8074    6.8800   -1.1462 O   0  0  0  1  0  0  0  0  0  0  0  0
   -0.3796    4.4342    1.4168 H   0  0  0  1  0  0  0  0  0  0  0  0
    1.7168    3.7074    2.5318 H   0  0  0  1  0  0  0  0  0  0  0  0
    1.7524    5.4137    2.1580 H   0  0  0  1  0  0  0  0  0  0  0  0
    2.5495    4.2710    1.1030 H   0  0  0  1  0  0  0  0  0  0  0  0
   -3.0805    6.8906    0.9628 H   0  0  0  1  0  0  0  0  0  0  0  0
   -3.8514    6.6846   -0.5915 H   0  0  0  1  0  0  0  0  0  0  0  0
   -2.8833    8.1053   -0.2773 H   0  0  0  1  0  0  0  0  0  0  0  0
   -1.4345    2.6886   -1.2222 C   0  0  0  1  0  0  0  0  0  0  0  0
   -2.7847    2.5745   -1.8779 C   0  0  0  1  0  0  0  0  0  0  0  0
   -3.0244    3.0246   -3.1625 C   0  0  0  1  0  0  0  0  0  0  0  0
   -4.2863    2.8898   -3.7202 C   0  0  0  1  0  0  0  0  0  0  0  0
   -5.3062    2.3099   -2.9895 C   0  0  0  1  0  0  0  0  0  0  0  0
   -5.0660    1.8584   -1.7011 C   0  0  0  1  0  0  0  0  0  0  0  0
   -3.8078    1.9930   -1.1452 C   0  0  0  1  0  0  0  0  0  0  0  0
   -6.6134    2.1520   -3.5063 N   0  0  0  1  0  0  0  0  0  0  0  0
   -1.5134    2.2517   -0.2487 H   0  0  0  1  0  0  0  0  0  0  0  0
   -0.7433    2.1237   -1.8122 H   0  0  0  1  0  0  0  0  0  0  0  0
   -2.2579    3.4645   -3.7108 H   0  0  0  1  0  0  0  0  0  0  0  0
   -4.4656    3.2248   -4.6882 H   0  0  0  1  0  0  0  0  0  0  0  0
   -5.8324    1.4185   -1.1528 H   0  0  0  1  0  0  0  0  0  0  0  0
   -3.6285    1.6579   -0.1772 H   0  0  0  1  0  0  0  0  0  0  0  0
   -6.8447    2.5336   -4.3788 H   0  0  0  1  0  0  0  0  0  0  0  0
   -7.2877    1.6609   -2.9919 H   0  0  0  1  0  0  0  0  0  0  0  0
  1  4  1  0  0  0  0
  2  4  1  0  0  0  0
  2  5  2  0  0  0  0
  2  6  1  0  0  0  0
  3  4  1  0  0  0  0
  3  7  1  0  0  0  0
  3  8  1  0  0  0  0
  4 19  1  0  0  0  0
  6  9  1  0  0  0  0
  6 12  1  0  0  0  0
  8 10  1  0  0  0  0
  8 11  2  0  0  0  0
  9 13  1  0  0  0  0
  9 14  1  0  0  0  0
  9 15  1  0  0  0  0
 10 16  1  0  0  0  0
 10 17  1  0  0  0  0
 10 18  1  0  0  0  0
 19 20  1  0  0  0  0
 19 27  1  0  0  0  0
 19 28  1  0  0  0  0
 20 21  4  0  0  0  0
 20 25  4  0  0  0  0
 21 22  4  0  0  0  0
 21 29  1  0  0  0  0
 22 23  4  0  0  0  0
 22 30  1  0  0  0  0
 23 24  4  0  0  0  0
 23 26  1  0  0  0  0
 24 25  4  0  0  0  0
 24 31  1  0  0  0  0
 25 32  1  0  0  0  0
 26 33  1  0  0  0  0
 26 34  1  0  0  0  0
M  END
> <BCLConfClusterSize>
1

> <ConfClashScore>
0 

> <ConfOneFourInteractionScore>
-0.94165 

> <ConfScore>
0.230251 

> <ConfScorePBest>
0.00438766 

> <ConfTolerance>
0.460218 

> <RosettaParamsInstructions>
M  ROOT 3
M  POLY_N_BB 3
M  POLY_CA_BB 4
M  POLY_C_BB 2
M  POLY_O_BB 5
M  POLY_IGNORE 9 10 11 12 13 14 15 16 17 18 
M  POLY_UPPER 6
M  POLY_LOWER 8
M  POLY_CHG 0
M  POLY_PROPERTIES ALPHA_AA D_AA PROTEIN AROMATIC POLYMER 
M  END

$$$$



 34 34  0  0  0  0  0  0  0  0999 V2000
   -2.1192    3.0959    0.6895 H   0  0  0  1  0  0  0  0  0  0  0  0
   -1.8292    4.9876   -0.1794 C   0  0  0  1  0  0  0  0  0  0  0  0
   -0.0923    3.4977    0.6490 N   0  0  0  1  0  0  0  0  0  0  0  0
   -1.4161    3.5420    0.0175 C   0  0  0  1  0  0  0  0  0  0  0  0
   -3.0172    5.3159   -0.2033 O   0  0  0  1  0  0  0  0  0  0  0  0
   -0.8249    5.8667   -0.3231 N   0  0  0  1  0  0  0  0  0  0  0  0
    0.6477    3.1267    0.1244 H   0  0  0  1  0  0  0  0  0  0  0  0
    0.1796    3.9243    1.8832 C   0  0  0  1  0  0  0  0  0  0  0  0
   -0.9932    7.2963   -0.5373 C   0  0  0  1  0  0  0  0  0  0  0  0
    1.6288    3.8114    2.3148 C   0  0  0  1  0  0  0  0  0  0  0  0
   -0.6701    4.3793    2.6311 O   0  0  0  1  0  0  0  0  0  0  0  0
    0.0906    5.5196   -0.2806 H   0  0  0  1  0  0  0  0  0  0  0  0
   -0.1268    7.8149   -0.1833 H   0  0  0  1  0  0  0  0  0  0  0  0
   -1.8556    7.6375   -0.0036 H   0  0  0  1  0  0  0  0  0  0  0  0
   -1.1210    7.4875   -1.5822 H   0  0  0  1  0  0  0  0  0  0  0  0
    1.6889    3.8645    3.3818 H   0  0  0  1  0  0  0  0  0  0  0  0
    2.1921    4.6136    1.8857 H   0  0  0  1  0  0  0  0  0  0  0  0
    2.0281    2.8763    1.9814 H   0  0  0  1  0  0  0  0  0  0  0  0
   -1.4190    2.7128   -1.2601 C   0  0  0  1  0  0  0  0  0  0  0  0
   -2.7886    2.5721   -1.8687 C   0  0  0  1  0  0  0  0  0  0  0  0
   -3.0193    3.0056   -3.1606 C   0  0  0  1  0  0  0  0  0  0  0  0
   -4.2794    2.8709   -3.7225 C   0  0  0  1  0  0  0  0  0  0  0  0
   -5.3064    2.3079   -2.9886 C   0  0  0  1  0  0  0  0  0  0  0  0
   -5.0752    1.8731   -1.6929 C   0  0  0  1  0  0  0  0  0  0  0  0
   -3.8188    2.0074   -1.1329 C   0  0  0  1  0  0  0  0  0  0  0  0
   -6.6121    2.1510   -3.5095 N   0  0  0  1  0  0  0  0  0  0  0  0
   -1.0452    1.7362   -1.0331 H   0  0  0  1  0  0  0  0  0  0  0  0
   -0.7760    3.1844   -1.9736 H   0  0  0  1  0  0  0  0  0  0  0  0
   -2.2474    3.4330   -3.7113 H   0  0  0  1  0  0  0  0  0  0  0  0
   -4.4519    3.1935   -4.6960 H   0  0  0  1  0  0  0  0  0  0  0  0
   -5.8470    1.4458   -1.1422 H   0  0  0  1  0  0  0  0  0  0  0  0
   -3.6462    1.6849   -0.1594 H   0  0  0  1  0  0  0  0  0  0  0  0
   -6.7876    2.3358   -4.4558 H   0  0  0  1  0  0  0  0  0  0  0  0
   -7.3412    1.8574   -2.9241 H   0  0  0  1  0  0  0  0  0  0  0  0
  1  4  1  0  0  0  0
  2  4  1  0  0  0  0
  2  5  2  0  0  0  0
  2  6  1  0  0  0  0
  3  4  1  0  0  0  0
  3  7  1  0  0  0  0
  3  8  1  0  0  0  0
  4 19  1  0  0  0  0
  6  9  1  0  0  0  0
  6 12  1  0  0  0  0
  8 10  1  0  0  0  0
  8 11  2  0  0  0  0
  9 13  1  0  0  0  0
  9 14  1  0  0  0  0
  9 15  1  0  0  0  0
 10 16  1  0  0  0  0
 10 17  1  0  0  0  0
 10 18  1  0  0  0  0
 19 20  1  0  0  0  0
 19 27  1  0  0  0  0
 19 28  1  0  0  0  0
 20 21  4  0  0  0  0
 20 25  4  0  0  0  0
 21 22  4  0  0  0  0
 21 29  1  0  0  0  0
 22 23  4  0  0  0  0
 22 30  1  0  0  0  0
 23 24  4  0  0  0  0
 23 26  1  0  0  0  0
 24 25  4  0  0  0  0
 24 31  1  0  0  0  0
 25 32  1  0  0  0  0
 26 33  1  0  0  0  0
 26 34  1  0  0  0  0
M  END
> <BCLConfClusterSize>
1

> <ConfClashScore>
0 

> <ConfOneFourInteractionScore>
-0.960318 

> <ConfScore>
0.230285 

> <ConfScorePBest>
0.00435918 

> <ConfTolerance>
0.360251 

> <RosettaParamsInstructions>
M  ROOT 3
M  POLY_N_BB 3
M  POLY_CA_BB 4
M  POLY_C_BB 2
M  POLY_O_BB 5
M  POLY_IGNORE 9 10 11 12 13 14 15 16 17 18 
M  POLY_UPPER 6
M  POLY_LOWER 8
M  POLY_CHG 0
M  POLY_PROPERTIES ALPHA_AA D_AA PROTEIN AROMATIC POLYMER 
M  END

$$$$



 34 34  0  0  0  0  0  0  0  0999 V2000
   -1.7219    4.7313   -0.7849 H   0  0  0  1  0  0  0  0  0  0  0  0
    0.2262    4.2782   -0.1522 C   0  0  0  1  0  0  0  0  0  0  0  0
   -1.8731    3.6851    0.9799 N   0  0  0  1  0  0  0  0  0  0  0  0
   -1.2377    3.8953   -0.3248 C   0  0  0  1  0  0  0  0  0  0  0  0
    1.0971    3.8790   -0.9036 O   0  0  0  1  0  0  0  0  0  0  0  0
    0.5727    5.0805    0.8584 N   0  0  0  1  0  0  0  0  0  0  0  0
   -2.5853    4.2879    1.2797 H   0  0  0  1  0  0  0  0  0  0  0  0
   -1.4800    2.6651    1.7673 C   0  0  0  1  0  0  0  0  0  0  0  0
    1.9621    5.3744    1.1764 C   0  0  0  1  0  0  0  0  0  0  0  0
   -2.1870    2.5571    3.1138 C   0  0  0  1  0  0  0  0  0  0  0  0
   -0.6079    1.8621    1.4380 O   0  0  0  1  0  0  0  0  0  0  0  0
   -0.1333    5.4851    1.4045 H   0  0  0  1  0  0  0  0  0  0  0  0
    2.4580    5.7437    0.3031 H   0  0  0  1  0  0  0  0  0  0  0  0
    2.4476    4.4817    1.5114 H   0  0  0  1  0  0  0  0  0  0  0  0
    2.0022    6.1140    1.9486 H   0  0  0  1  0  0  0  0  0  0  0  0
   -2.5615    3.5181    3.3986 H   0  0  0  1  0  0  0  0  0  0  0  0
   -1.4952    2.2108    3.8529 H   0  0  0  1  0  0  0  0  0  0  0  0
   -3.0006    1.8667    3.0348 H   0  0  0  1  0  0  0  0  0  0  0  0
   -1.4154    2.7171   -1.2685 C   0  0  0  1  0  0  0  0  0  0  0  0
   -2.7888    2.5716   -1.8674 C   0  0  0  1  0  0  0  0  0  0  0  0
   -3.0297    3.0023   -3.1584 C   0  0  0  1  0  0  0  0  0  0  0  0
   -4.2933    2.8631   -3.7113 C   0  0  0  1  0  0  0  0  0  0  0  0
   -5.3136    2.2985   -2.9694 C   0  0  0  1  0  0  0  0  0  0  0  0
   -5.0722    1.8665   -1.6745 C   0  0  0  1  0  0  0  0  0  0  0  0
   -3.8123    2.0054   -1.1235 C   0  0  0  1  0  0  0  0  0  0  0  0
   -6.6043    2.1614   -3.5315 N   0  0  0  1  0  0  0  0  0  0  0  0
   -1.1961    1.8224   -0.7243 H   0  0  0  1  0  0  0  0  0  0  0  0
   -0.7157    2.8280   -2.0704 H   0  0  0  1  0  0  0  0  0  0  0  0
   -2.2629    3.4308   -3.7152 H   0  0  0  1  0  0  0  0  0  0  0  0
   -4.4735    3.1835   -4.6841 H   0  0  0  1  0  0  0  0  0  0  0  0
   -5.8390    1.4380   -1.1178 H   0  0  0  1  0  0  0  0  0  0  0  0
   -3.6321    1.6849   -0.1507 H   0  0  0  1  0  0  0  0  0  0  0  0
   -6.7492    2.3594   -4.4803 H   0  0  0  1  0  0  0  0  0  0  0  0
   -7.3538    1.8685   -2.9721 H   0  0  0  1  0  0  0  0  0  0  0  0
  1  4  1  0  0  0  0
  2  4  1  0  0  0  0
  2  5  2  0  0  0  0
  2  6  1  0  0  0  0
  3  4  1  0  0  0  0
  3  7  1  0  0  0  0
  3  8  1  0  0  0  0
  4 19  1  0  0  0  0
  6  9  1  0  0  0  0
  6 12  1  0  0  0  0
  8 10  1  0  0  0  0
  8 11  2  0  0  0  0
  9 13  1  0  0  0  0
  9 14  1  0  0  0  0
  9 15  1  0  0  0  0
 10 16  1  0  0  0  0
 10 17  1  0  0  0  0
 10 18  1  0  0  0  0
 19 20  1  0  0  0  0
 19 27  1  0  0  0  0
 19 28  1  0  0  0  0
 20 21  4  0  0  0  0
 20 25  4  0  0  0  0
 21 22  4  0  0  0  0
 21 29  1  0  0  0  0
 22 23  4  0  0  0  0
 22 30  1  0  0  0  0
 23 24  4  0  0  0  0
 23 26  1  0  0  0  0
 24 25  4  0  0  0  0
 24 31  1  0  0  0  0
 25 32  1  0  0  0  0
 26 33  1  0  0  0  0
 26 34  1  0  0  0  0
M  END
> <BCLConfClusterSize>
1

> <ConfClashScore>
0 

> <ConfOneFourInteractionScore>
-0.953489 

> <ConfScore>
0.24017 

> <ConfScorePBest>
0.0043307 

> <ConfTolerance>
0.347164 

> <RosettaParamsInstructions>
M  ROOT 3
M  POLY_N_BB 3
M  POLY_CA_BB 4
M  POLY_C_BB 2
M  POLY_O_BB 5
M  POLY_IGNORE 9 10 11 12 13 14 15 16 17 18 
M  POLY_UPPER 6
M  POLY_LOWER 8
M  POLY_CHG 0
M  POLY_PROPERTIES ALPHA_AA D_AA PROTEIN AROMATIC POLYMER 
M  END

$$$$



 34 34  0  0  0  0  0  0  0  0999 V2000
    0.2469    1.5712   -0.6931 H   0  0  0  1  0  0  0  0  0  0  0  0
   -0.4495    0.5669   -2.3596 C   0  0  0  1  0  0  0  0  0  0  0  0
   -1.3794    0.5134   -0.0445 N   0  0  0  1  0  0  0  0  0  0  0  0
   -0.7201    1.3370   -1.0869 C   0  0  0  1  0  0  0  0  0  0  0  0
    0.4516    0.9001   -3.1281 O   0  0  0  1  0  0  0  0  0  0  0  0
   -1.2460   -0.4820   -2.5837 N   0  0  0  1  0  0  0  0  0  0  0  0
   -1.9544   -0.2214   -0.3442 H   0  0  0  1  0  0  0  0  0  0  0  0
   -1.2444    0.7036    1.3140 C   0  0  0  1  0  0  0  0  0  0  0  0
   -1.0075   -1.4213   -3.6694 C   0  0  0  1  0  0  0  0  0  0  0  0
   -1.9920   -0.2599    2.1890 C   0  0  0  1  0  0  0  0  0  0  0  0
   -0.5516    1.6096    1.7372 O   0  0  0  1  0  0  0  0  0  0  0  0
   -2.0178   -0.6239   -1.9966 H   0  0  0  1  0  0  0  0  0  0  0  0
    0.0198   -1.3723   -3.9649 H   0  0  0  1  0  0  0  0  0  0  0  0
   -1.6303   -1.1692   -4.5021 H   0  0  0  1  0  0  0  0  0  0  0  0
   -1.2365   -2.4131   -3.3395 H   0  0  0  1  0  0  0  0  0  0  0  0
   -3.0072   -0.3288    1.8582 H   0  0  0  1  0  0  0  0  0  0  0  0
   -1.9696    0.0867    3.2010 H   0  0  0  1  0  0  0  0  0  0  0  0
   -1.5320   -1.2243    2.1314 H   0  0  0  1  0  0  0  0  0  0  0  0
   -1.3986    2.6844   -1.2961 C   0  0  0  1  0  0  0  0  0  0  0  0
   -2.7814    2.5641   -1.8787 C   0  0  0  1  0  0  0  0  0  0  0  0
   -3.0290    2.9969   -3.1678 C   0  0  0  1  0  0  0  0  0  0  0  0
   -4.3014    2.8810   -3.7056 C   0  0  0  1  0  0  0  0  0  0  0  0
   -5.3236    2.3374   -2.9507 C   0  0  0  1  0  0  0  0  0  0  0  0
   -5.0754    1.9033   -1.6579 C   0  0  0  1  0  0  0  0  0  0  0  0
   -3.8068    2.0190   -1.1218 C   0  0  0  1  0  0  0  0  0  0  0  0
   -6.6090    2.1347   -3.5312 N   0  0  0  1  0  0  0  0  0  0  0  0
   -0.7981    3.2684   -1.9620 H   0  0  0  1  0  0  0  0  0  0  0  0
   -1.4693    3.1806   -0.3508 H   0  0  0  1  0  0  0  0  0  0  0  0
   -2.2607    3.4096   -3.7343 H   0  0  0  1  0  0  0  0  0  0  0  0
   -4.4867    3.2030   -4.6770 H   0  0  0  1  0  0  0  0  0  0  0  0
   -5.8438    1.4906   -1.0914 H   0  0  0  1  0  0  0  0  0  0  0  0
   -3.6215    1.6970   -0.1504 H   0  0  0  1  0  0  0  0  0  0  0  0
   -7.2920    1.6276   -3.0445 H   0  0  0  1  0  0  0  0  0  0  0  0
   -6.8101    2.5023   -4.4171 H   0  0  0  1  0  0  0  0  0  0  0  0
  1  4  1  0  0  0  0
  2  4  1  0  0  0  0
  2  5  2  0  0  0  0
  2  6  1  0  0  0  0
  3  4  1  0  0  0  0
  3  7  1  0  0  0  0
  3  8  1  0  0  0  0
  4 19  1  0  0  0  0
  6  9  1  0  0  0  0
  6 12  1  0  0  0  0
  8 10  1  0  0  0  0
  8 11  2  0  0  0  0
  9 13  1  0  0  0  0
  9 14  1  0  0  0  0
  9 15  1  0  0  0  0
 10 16  1  0  0  0  0
 10 17  1  0  0  0  0
 10 18  1  0  0  0  0
 19 20  1  0  0  0  0
 19 27  1  0  0  0  0
 19 28  1  0  0  0  0
 20 21  4  0  0  0  0
 20 25  4  0  0  0  0
 21 22  4  0  0  0  0
 21 29  1  0  0  0  0
 22 23  4  0  0  0  0
 22 30  1  0  0  0  0
 23 24  4  0  0  0  0
 23 26  1  0  0  0  0
 24 25  4  0  0  0  0
 24 31  1  0  0  0  0
 25 32  1  0  0  0  0
 26 33  1  0  0  0  0
 26 34  1  0  0  0  0
M  END
> <BCLConfClusterSize>
1

> <ConfClashScore>
0 

> <ConfOneFourInteractionScore>
-0.9553 

> <ConfScore>
0.241754 

> <ConfScorePBest>
0.00430222 

> <ConfTolerance>
0.567389 

> <RosettaParamsInstructions>
M  ROOT 3
M  POLY_N_BB 3
M  POLY_CA_BB 4
M  POLY_C_BB 2
M  POLY_O_BB 5
M  POLY_IGNORE 9 10 11 12 13 14 15 16 17 18 
M  POLY_UPPER 6
M  POLY_LOWER 8
M  POLY_CHG 0
M  POLY_PROPERTIES ALPHA_AA D_AA PROTEIN AROMATIC POLYMER 
M  END

$$$$



 34 34  0  0  0  0  0  0  0  0999 V2000
   -1.7313    3.7867    0.5038 H   0  0  0  1  0  0  0  0  0  0  0  0
   -1.5712    5.2217   -1.0614 C   0  0  0  1  0  0  0  0  0  0  0  0
    0.2706    3.9863   -0.0559 N   0  0  0  1  0  0  0  0  0  0  0  0
   -1.1589    3.9114   -0.3915 C   0  0  0  1  0  0  0  0  0  0  0  0
   -2.5584    5.2750   -1.7783 O   0  0  0  1  0  0  0  0  0  0  0  0
   -0.8168    6.3094   -0.8380 N   0  0  0  1  0  0  0  0  0  0  0  0
    0.8382    4.6621   -0.4820 H   0  0  0  1  0  0  0  0  0  0  0  0
    0.7974    3.1350    0.8289 C   0  0  0  1  0  0  0  0  0  0  0  0
   -1.1009    7.6405   -1.3532 C   0  0  0  1  0  0  0  0  0  0  0  0
    2.2458    3.3849    1.2016 C   0  0  0  1  0  0  0  0  0  0  0  0
    0.1639    2.2029    1.3202 O   0  0  0  1  0  0  0  0  0  0  0  0
   -0.0144    6.1988   -0.2864 H   0  0  0  1  0  0  0  0  0  0  0  0
   -1.6281    7.5594   -2.2807 H   0  0  0  1  0  0  0  0  0  0  0  0
   -0.1818    8.1655   -1.5102 H   0  0  0  1  0  0  0  0  0  0  0  0
   -1.7015    8.1752   -0.6473 H   0  0  0  1  0  0  0  0  0  0  0  0
    2.7431    2.4491    1.3495 H   0  0  0  1  0  0  0  0  0  0  0  0
    2.2878    3.9575    2.1045 H   0  0  0  1  0  0  0  0  0  0  0  0
    2.7286    3.9244    0.4137 H   0  0  0  1  0  0  0  0  0  0  0  0
   -1.4081    2.7283   -1.2972 C   0  0  0  1  0  0  0  0  0  0  0  0
   -2.7877    2.5748   -1.8776 C   0  0  0  1  0  0  0  0  0  0  0  0
   -3.0463    2.9975   -3.1678 C   0  0  0  1  0  0  0  0  0  0  0  0
   -4.3163    2.8509   -3.7039 C   0  0  0  1  0  0  0  0  0  0  0  0
   -5.3252    2.2869   -2.9461 C   0  0  0  1  0  0  0  0  0  0  0  0
   -5.0660    1.8630   -1.6521 C   0  0  0  1  0  0  0  0  0  0  0  0
   -3.7998    2.0092   -1.1177 C   0  0  0  1  0  0  0  0  0  0  0  0
   -6.5924    2.1677   -3.5362 N   0  0  0  1  0  0  0  0  0  0  0  0
   -1.1977    1.8436   -0.7333 H   0  0  0  1  0  0  0  0  0  0  0  0
   -0.7228    2.8017   -2.1156 H   0  0  0  1  0  0  0  0  0  0  0  0
   -2.2881    3.4256   -3.7365 H   0  0  0  1  0  0  0  0  0  0  0  0
   -4.5098    3.1653   -4.6761 H   0  0  0  1  0  0  0  0  0  0  0  0
   -5.8242    1.4349   -1.0833 H   0  0  0  1  0  0  0  0  0  0  0  0
   -3.6062    1.6948   -0.1455 H   0  0  0  1  0  0  0  0  0  0  0  0
   -7.3257    1.7462   -3.0413 H   0  0  0  1  0  0  0  0  0  0  0  0
   -6.7442    2.5060   -4.4434 H   0  0  0  1  0  0  0  0  0  0  0  0
  1  4  1  0  0  0  0
  2  4  1  0  0  0  0
  2  5  2  0  0  0  0
  2  6  1  0  0  0  0
  3  4  1  0  0  0  0
  3  7  1  0  0  0  0
  3  8  1  0  0  0  0
  4 19  1  0  0  0  0
  6  9  1  0  0  0  0
  6 12  1  0  0  0  0
  8 10  1  0  0  0  0
  8 11  2  0  0  0  0
  9 13  1  0  0  0  0
  9 14  1  0  0  0  0
  9 15  1  0  0  0  0
 10 16  1  0  0  0  0
 10 17  1  0  0  0  0
 10 18  1  0  0  0  0
 19 20  1  0  0  0  0
 19 27  1  0  0  0  0
 19 28  1  0  0  0  0
 20 21  4  0  0  0  0
 20 25  4  0  0  0  0
 21 22  4  0  0  0  0
 21 29  1  0  0  0  0
 22 23  4  0  0  0  0
 22 30  1  0  0  0  0
 23 24  4  0  0  0  0
 23 26  1  0  0  0  0
 24 25  4  0  0  0  0
 24 31  1  0  0  0  0
 25 32  1  0  0  0  0
 26 33  1  0  0  0  0
 26 34  1  0  0  0  0
M  END
> <BCLConfClusterSize>
1

> <ConfClashScore>
0 

> <ConfOneFourInteractionScore>
-0.960608 

> <ConfScore>
0.243715 

> <ConfScorePBest>
0.00427374 

> <ConfTolerance>
0.563858 

> <RosettaParamsInstructions>
M  ROOT 3
M  POLY_N_BB 3
M  POLY_CA_BB 4
M  POLY_C_BB 2
M  POLY_O_BB 5
M  POLY_IGNORE 9 10 11 12 13 14 15 16 17 18 
M  POLY_UPPER 6
M  POLY_LOWER 8
M  POLY_CHG 0
M  POLY_PROPERTIES ALPHA_AA D_AA PROTEIN AROMATIC POLYMER 
M  END

$$$$



 34 34  0  0  0  0  0  0  0  0999 V2000
   -2.3560    3.6472    0.3525 H   0  0  0  1  0  0  0  0  0  0  0  0
   -0.5028    4.6073    0.1027 C   0  0  0  1  0  0  0  0  0  0  0  0
   -0.9080    2.3809    1.0826 N   0  0  0  1  0  0  0  0  0  0  0  0
   -1.3586    3.3541    0.0990 C   0  0  0  1  0  0  0  0  0  0  0  0
    0.1135    4.9271    1.1213 O   0  0  0  1  0  0  0  0  0  0  0  0
   -0.3949    5.2696   -1.0599 N   0  0  0  1  0  0  0  0  0  0  0  0
   -0.6822    1.4831    0.7612 H   0  0  0  1  0  0  0  0  0  0  0  0
   -0.7788    2.6192    2.3909 C   0  0  0  1  0  0  0  0  0  0  0  0
    0.5611    6.3496   -1.2535 C   0  0  0  1  0  0  0  0  0  0  0  0
   -0.5135    1.4045    3.2587 C   0  0  0  1  0  0  0  0  0  0  0  0
   -0.8665    3.7454    2.8785 O   0  0  0  1  0  0  0  0  0  0  0  0
   -0.9802    5.0170   -1.8043 H   0  0  0  1  0  0  0  0  0  0  0  0
    0.6820    6.8882   -0.3369 H   0  0  0  1  0  0  0  0  0  0  0  0
    0.2006    7.0130   -2.0118 H   0  0  0  1  0  0  0  0  0  0  0  0
    1.5035    5.9418   -1.5543 H   0  0  0  1  0  0  0  0  0  0  0  0
   -0.0044    0.6592    2.6840 H   0  0  0  1  0  0  0  0  0  0  0  0
   -1.4428    1.0089    3.6119 H   0  0  0  1  0  0  0  0  0  0  0  0
    0.0940    1.6881    4.0927 H   0  0  0  1  0  0  0  0  0  0  0  0
   -1.4101    2.7198   -1.2848 C   0  0  0  1  0  0  0  0  0  0  0  0
   -2.7852    2.5732   -1.8760 C   0  0  0  1  0  0  0  0  0  0  0  0
   -3.0363    3.0152   -3.1613 C   0  0  0  1  0  0  0  0  0  0  0  0
   -4.3025    2.8749   -3.7076 C   0  0  0  1  0  0  0  0  0  0  0  0
   -5.3153    2.2978   -2.9650 C   0  0  0  1  0  0  0  0  0  0  0  0
   -5.0636    1.8544   -1.6760 C   0  0  0  1  0  0  0  0  0  0  0  0
   -3.8011    1.9944   -1.1314 C   0  0  0  1  0  0  0  0  0  0  0  0
   -6.6088    2.1595   -3.5204 N   0  0  0  1  0  0  0  0  0  0  0  0
   -0.9740    1.7450   -1.2174 H   0  0  0  1  0  0  0  0  0  0  0  0
   -0.8287    3.3261   -1.9476 H   0  0  0  1  0  0  0  0  0  0  0  0
   -2.2751    3.4531   -3.7185 H   0  0  0  1  0  0  0  0  0  0  0  0
   -4.4904    3.2038   -4.6762 H   0  0  0  1  0  0  0  0  0  0  0  0
   -5.8247    1.4165   -1.1187 H   0  0  0  1  0  0  0  0  0  0  0  0
   -3.6132    1.6654   -0.1629 H   0  0  0  1  0  0  0  0  0  0  0  0
   -7.3645    1.9133   -2.9471 H   0  0  0  1  0  0  0  0  0  0  0  0
   -6.7493    2.3100   -4.4786 H   0  0  0  1  0  0  0  0  0  0  0  0
  1  4  1  0  0  0  0
  2  4  1  0  0  0  0
  2  5  2  0  0  0  0
  2  6  1  0  0  0  0
  3  4  1  0  0  0  0
  3  7  1  0  0  0  0
  3  8  1  0  0  0  0
  4 19  1  0  0  0  0
  6  9  1  0  0  0  0
  6 12  1  0  0  0  0
  8 10  1  0  0  0  0
  8 11  2  0  0  0  0
  9 13  1  0  0  0  0
  9 14  1  0  0  0  0
  9 15  1  0  0  0  0
 10 16  1  0  0  0  0
 10 17  1  0  0  0  0
 10 18  1  0  0  0  0
 19 20  1  0  0  0  0
 19 27  1  0  0  0  0
 19 28  1  0  0  0  0
 20 21  4  0  0  0  0
 20 25  4  0  0  0  0
 21 22  4  0  0  0  0
 21 29  1  0  0  0  0
 22 23  4  0  0  0  0
 22 30  1  0  0  0  0
 23 24  4  0  0  0  0
 23 26  1  0  0  0  0
 24 25  4  0  0  0  0
 24 31  1  0  0  0  0
 25 32  1  0  0  0  0
 26 33  1  0  0  0  0
 26 34  1  0  0  0  0
M  END
> <BCLConfClusterSize>
1

> <ConfClashScore>
0 

> <ConfOneFourInteractionScore>
-0.947371 

> <ConfScore>
0.244436 

> <ConfScorePBest>
0.00424526 

> <ConfTolerance>
0.553669 

> <RosettaParamsInstructions>
M  ROOT 3
M  POLY_N_BB 3
M  POLY_CA_BB 4
M  POLY_C_BB 2
M  POLY_O_BB 5
M  POLY_IGNORE 9 10 11 12 13 14 15 16 17 18 
M  POLY_UPPER 6
M  POLY_LOWER 8
M  POLY_CHG 0
M  POLY_PROPERTIES ALPHA_AA D_AA PROTEIN AROMATIC POLYMER 
M  END

$$$$



 34 34  0  0  0  0  0  0  0  0999 V2000
   -0.3019    3.9462    0.0382 H   0  0  0  1  0  0  0  0  0  0  0  0
   -2.3282    4.2197    0.5219 C   0  0  0  1  0  0  0  0  0  0  0  0
   -1.1246    5.1381   -1.4233 N   0  0  0  1  0  0  0  0  0  0  0  0
   -1.2248    4.0189   -0.4985 C   0  0  0  1  0  0  0  0  0  0  0  0
   -3.3086    4.9033    0.2775 O   0  0  0  1  0  0  0  0  0  0  0  0
   -2.1115    3.5824    1.6834 N   0  0  0  1  0  0  0  0  0  0  0  0
   -1.9201    5.7041   -1.5079 H   0  0  0  1  0  0  0  0  0  0  0  0
   -0.0624    5.4846   -2.1762 C   0  0  0  1  0  0  0  0  0  0  0  0
   -3.0627    3.6269    2.7839 C   0  0  0  1  0  0  0  0  0  0  0  0
   -0.2328    6.7388   -3.0237 C   0  0  0  1  0  0  0  0  0  0  0  0
    0.9864    4.8415   -2.1914 O   0  0  0  1  0  0  0  0  0  0  0  0
   -1.2838    3.0694    1.7941 H   0  0  0  1  0  0  0  0  0  0  0  0
   -3.6513    4.5175    2.7114 H   0  0  0  1  0  0  0  0  0  0  0  0
   -2.5328    3.6245    3.7134 H   0  0  0  1  0  0  0  0  0  0  0  0
   -3.7035    2.7713    2.7359 H   0  0  0  1  0  0  0  0  0  0  0  0
   -1.0237    6.5888   -3.7286 H   0  0  0  1  0  0  0  0  0  0  0  0
    0.6778    6.9415   -3.5476 H   0  0  0  1  0  0  0  0  0  0  0  0
   -0.4724    7.5672   -2.3902 H   0  0  0  1  0  0  0  0  0  0  0  0
   -1.4071    2.7159   -1.2658 C   0  0  0  1  0  0  0  0  0  0  0  0
   -2.7891    2.5704   -1.8680 C   0  0  0  1  0  0  0  0  0  0  0  0
   -3.0329    3.0117   -3.1550 C   0  0  0  1  0  0  0  0  0  0  0  0
   -4.2967    2.8734   -3.7075 C   0  0  0  1  0  0  0  0  0  0  0  0
   -5.3144    2.2990   -2.9694 C   0  0  0  1  0  0  0  0  0  0  0  0
   -5.0700    1.8564   -1.6787 C   0  0  0  1  0  0  0  0  0  0  0  0
   -3.8100    1.9944   -1.1280 C   0  0  0  1  0  0  0  0  0  0  0  0
   -6.6053    2.1628   -3.5312 N   0  0  0  1  0  0  0  0  0  0  0  0
   -1.2402    1.8994   -0.5948 H   0  0  0  1  0  0  0  0  0  0  0  0
   -0.6861    2.6821   -2.0557 H   0  0  0  1  0  0  0  0  0  0  0  0
   -2.2681    3.4475   -3.7088 H   0  0  0  1  0  0  0  0  0  0  0  0
   -4.4790    3.2017   -4.6773 H   0  0  0  1  0  0  0  0  0  0  0  0
   -5.8348    1.4206   -1.1249 H   0  0  0  1  0  0  0  0  0  0  0  0
   -3.6276    1.6661   -0.1582 H   0  0  0  1  0  0  0  0  0  0  0  0
   -6.7794    2.4804   -4.4419 H   0  0  0  1  0  0  0  0  0  0  0  0
   -7.3256    1.7508   -3.0098 H   0  0  0  1  0  0  0  0  0  0  0  0
  1  4  1  0  0  0  0
  2  4  1  0  0  0  0
  2  5  2  0  0  0  0
  2  6  1  0  0  0  0
  3  4  1  0  0  0  0
  3  7  1  0  0  0  0
  3  8  1  0  0  0  0
  4 19  1  0  0  0  0
  6  9  1  0  0  0  0
  6 12  1  0  0  0  0
  8 10  1  0  0  0  0
  8 11  2  0  0  0  0
  9 13  1  0  0  0  0
  9 14  1  0  0  0  0
  9 15  1  0  0  0  0
 10 16  1  0  0  0  0
 10 17  1  0  0  0  0
 10 18  1  0  0  0  0
 19 20  1  0  0  0  0
 19 27  1  0  0  0  0
 19 28  1  0  0  0  0
 20 21  4  0  0  0  0
 20 25  4  0  0  0  0
 21 22  4  0  0  0  0
 21 29  1  0  0  0  0
 22 23  4  0  0  0  0
 22 30  1  0  0  0  0
 23 24  4  0  0  0  0
 23 26  1  0  0  0  0
 24 25  4  0  0  0  0
 24 31  1  0  0  0  0
 25 32  1  0  0  0  0
 26 33  1  0  0  0  0
 26 34  1  0  0  0  0
M  END
> <BCLConfClusterSize>
1

> <ConfClashScore>
0 

> <ConfOneFourInteractionScore>
-0.987258 

> <ConfScore>
0.247656 

> <ConfScorePBest>
0.00421678 

> <ConfTolerance>
0.453693 

> <RosettaParamsInstructions>
M  ROOT 3
M  POLY_N_BB 3
M  POLY_CA_BB 4
M  POLY_C_BB 2
M  POLY_O_BB 5
M  POLY_IGNORE 9 10 11 12 13 14 15 16 17 18 
M  POLY_UPPER 6
M  POLY_LOWER 8
M  POLY_CHG 0
M  POLY_PROPERTIES ALPHA_AA D_AA PROTEIN AROMATIC POLYMER 
M  END

$$$$



 34 34  0  0  0  0  0  0  0  0999 V2000
   -0.3722    3.7117    0.2620 H   0  0  0  1  0  0  0  0  0  0  0  0
   -2.0593    2.7684    1.1131 C   0  0  0  1  0  0  0  0  0  0  0  0
   -1.9944    4.8573   -0.2909 N   0  0  0  1  0  0  0  0  0  0  0  0
   -1.3960    3.5608   -0.0098 C   0  0  0  1  0  0  0  0  0  0  0  0
   -1.6363    1.6898    1.4872 O   0  0  0  1  0  0  0  0  0  0  0  0
   -3.1432    3.2717    1.7104 N   0  0  0  1  0  0  0  0  0  0  0  0
   -2.8924    5.0640    0.0424 H   0  0  0  1  0  0  0  0  0  0  0  0
   -1.3162    5.7740   -1.0086 C   0  0  0  1  0  0  0  0  0  0  0  0
   -3.9064    2.5213    2.6966 C   0  0  0  1  0  0  0  0  0  0  0  0
   -2.0056    7.1298   -1.1432 C   0  0  0  1  0  0  0  0  0  0  0  0
   -0.2574    5.5424   -1.5863 O   0  0  0  1  0  0  0  0  0  0  0  0
   -3.4346    4.1776    1.4764 H   0  0  0  1  0  0  0  0  0  0  0  0
   -3.3286    2.4165    3.5910 H   0  0  0  1  0  0  0  0  0  0  0  0
   -4.1378    1.5524    2.3061 H   0  0  0  1  0  0  0  0  0  0  0  0
   -4.8138    3.0435    2.9176 H   0  0  0  1  0  0  0  0  0  0  0  0
   -2.6767    7.1082   -1.9763 H   0  0  0  1  0  0  0  0  0  0  0  0
   -1.2691    7.8903   -1.2984 H   0  0  0  1  0  0  0  0  0  0  0  0
   -2.5542    7.3410   -0.2491 H   0  0  0  1  0  0  0  0  0  0  0  0
   -1.4101    2.7245   -1.2826 C   0  0  0  1  0  0  0  0  0  0  0  0
   -2.7859    2.5757   -1.8752 C   0  0  0  1  0  0  0  0  0  0  0  0
   -3.0305    2.9938   -3.1696 C   0  0  0  1  0  0  0  0  0  0  0  0
   -4.2963    2.8516   -3.7166 C   0  0  0  1  0  0  0  0  0  0  0  0
   -5.3151    2.2965   -2.9655 C   0  0  0  1  0  0  0  0  0  0  0  0
   -5.0699    1.8770   -1.6673 C   0  0  0  1  0  0  0  0  0  0  0  0
   -3.8079    2.0189   -1.1221 C   0  0  0  1  0  0  0  0  0  0  0  0
   -6.6080    2.1563   -3.5217 N   0  0  0  1  0  0  0  0  0  0  0  0
   -1.0304    1.7505   -1.0543 H   0  0  0  1  0  0  0  0  0  0  0  0
   -0.7768    3.1943   -2.0058 H   0  0  0  1  0  0  0  0  0  0  0  0
   -2.2648    3.4152   -3.7333 H   0  0  0  1  0  0  0  0  0  0  0  0
   -4.4793    3.1626   -4.6920 H   0  0  0  1  0  0  0  0  0  0  0  0
   -5.8356    1.4556   -1.1035 H   0  0  0  1  0  0  0  0  0  0  0  0
   -3.6249    1.7079   -0.1467 H   0  0  0  1  0  0  0  0  0  0  0  0
   -7.2940    1.6444   -3.0443 H   0  0  0  1  0  0  0  0  0  0  0  0
   -6.8180    2.5711   -4.3844 H   0  0  0  1  0  0  0  0  0  0  0  0
  1  4  1  0  0  0  0
  2  4  1  0  0  0  0
  2  5  2  0  0  0  0
  2  6  1  0  0  0  0
  3  4  1  0  0  0  0
  3  7  1  0  0  0  0
  3  8  1  0  0  0  0
  4 19  1  0  0  0  0
  6  9  1  0  0  0  0
  6 12  1  0  0  0  0
  8 10  1  0  0  0  0
  8 11  2  0  0  0  0
  9 13  1  0  0  0  0
  9 14  1  0  0  0  0
  9 15  1  0  0  0  0
 10 16  1  0  0  0  0
 10 17  1  0  0  0  0
 10 18  1  0  0  0  0
 19 20  1  0  0  0  0
 19 27  1  0  0  0  0
 19 28  1  0  0  0  0
 20 21  4  0  0  0  0
 20 25  4  0  0  0  0
 21 22  4  0  0  0  0
 21 29  1  0  0  0  0
 22 23  4  0  0  0  0
 22 30  1  0  0  0  0
 23 24  4  0  0  0  0
 23 26  1  0  0  0  0
 24 25  4  0  0  0  0
 24 31  1  0  0  0  0
 25 32  1  0  0  0  0
 26 33  1  0  0  0  0
 26 34  1  0  0  0  0
M  END
> <BCLConfClusterSize>
1

> <ConfClashScore>
0 

> <ConfOneFourInteractionScore>
-0.951253 

> <ConfScore>
0.248856 

> <ConfScorePBest>
0.0041883 

> <ConfTolerance>
0.629144 

> <RosettaParamsInstructions>
M  ROOT 3
M  POLY_N_BB 3
M  POLY_CA_BB 4
M  POLY_C_BB 2
M  POLY_O_BB 5
M  POLY_IGNORE 9 10 11 12 13 14 15 16 17 18 
M  POLY_UPPER 6
M  POLY_LOWER 8
M  POLY_CHG 0
M  POLY_PROPERTIES ALPHA_AA D_AA PROTEIN AROMATIC POLYMER 
M  END

$$$$



 34 34  0  0  0  0  0  0  0  0999 V2000
   -1.2958    0.6256   -1.3087 H   0  0  0  1  0  0  0  0  0  0  0  0
   -1.0792    1.0915    0.7098 C   0  0  0  1  0  0  0  0  0  0  0  0
    0.6180    1.2985   -1.0388 N   0  0  0  1  0  0  0  0  0  0  0  0
   -0.8157    1.4022   -0.7508 C   0  0  0  1  0  0  0  0  0  0  0  0
   -0.4560    0.2106    1.2965 O   0  0  0  1  0  0  0  0  0  0  0  0
   -2.0257    1.8361    1.3029 N   0  0  0  1  0  0  0  0  0  0  0  0
    1.0552    2.0744   -1.4477 H   0  0  0  1  0  0  0  0  0  0  0  0
    1.3797    0.2169   -0.7836 C   0  0  0  1  0  0  0  0  0  0  0  0
   -2.4778    1.6696    2.6761 C   0  0  0  1  0  0  0  0  0  0  0  0
    2.8433    0.3947   -1.1665 C   0  0  0  1  0  0  0  0  0  0  0  0
    0.9684   -0.8223   -0.2931 O   0  0  0  1  0  0  0  0  0  0  0  0
   -2.4437    2.5452    0.7711 H   0  0  0  1  0  0  0  0  0  0  0  0
   -3.5067    1.9535    2.7503 H   0  0  0  1  0  0  0  0  0  0  0  0
   -1.8900    2.2876    3.3223 H   0  0  0  1  0  0  0  0  0  0  0  0
   -2.3690    0.6452    2.9655 H   0  0  0  1  0  0  0  0  0  0  0  0
    3.0942    1.4347   -1.1457 H   0  0  0  1  0  0  0  0  0  0  0  0
    3.0033    0.0091   -2.1517 H   0  0  0  1  0  0  0  0  0  0  0  0
    3.4605   -0.1348   -0.4711 H   0  0  0  1  0  0  0  0  0  0  0  0
   -1.4263    2.7043   -1.2425 C   0  0  0  1  0  0  0  0  0  0  0  0
   -2.7826    2.5794   -1.8836 C   0  0  0  1  0  0  0  0  0  0  0  0
   -3.0318    2.9992   -3.1767 C   0  0  0  1  0  0  0  0  0  0  0  0
   -4.2989    2.8556   -3.7201 C   0  0  0  1  0  0  0  0  0  0  0  0
   -5.3145    2.2973   -2.9669 C   0  0  0  1  0  0  0  0  0  0  0  0
   -5.0647    1.8763   -1.6701 C   0  0  0  1  0  0  0  0  0  0  0  0
   -3.8013    2.0195   -1.1284 C   0  0  0  1  0  0  0  0  0  0  0  0
   -6.6089    2.1557   -3.5194 N   0  0  0  1  0  0  0  0  0  0  0  0
   -0.7591    3.1307   -1.9622 H   0  0  0  1  0  0  0  0  0  0  0  0
   -1.5168    3.3636   -0.4047 H   0  0  0  1  0  0  0  0  0  0  0  0
   -2.2686    3.4229   -3.7420 H   0  0  0  1  0  0  0  0  0  0  0  0
   -4.4854    3.1678   -4.6945 H   0  0  0  1  0  0  0  0  0  0  0  0
   -5.8279    1.4526   -1.1047 H   0  0  0  1  0  0  0  0  0  0  0  0
   -3.6148    1.7073   -0.1541 H   0  0  0  1  0  0  0  0  0  0  0  0
   -7.3030    1.6730   -3.0239 H   0  0  0  1  0  0  0  0  0  0  0  0
   -6.8115    2.5403   -4.3977 H   0  0  0  1  0  0  0  0  0  0  0  0
  1  4  1  0  0  0  0
  2  4  1  0  0  0  0
  2  5  2  0  0  0  0
  2  6  1  0  0  0  0
  3  4  1  0  0  0  0
  3  7  1  0  0  0  0
  3  8  1  0  0  0  0
  4 19  1  0  0  0  0
  6  9  1  0  0  0  0
  6 12  1  0  0  0  0
  8 10  1  0  0  0  0
  8 11  2  0  0  0  0
  9 13  1  0  0  0  0
  9 14  1  0  0  0  0
  9 15  1  0  0  0  0
 10 16  1  0  0  0  0
 10 17  1  0  0  0  0
 10 18  1  0  0  0  0
 19 20  1  0  0  0  0
 19 27  1  0  0  0  0
 19 28  1  0  0  0  0
 20 21  4  0  0  0  0
 20 25  4  0  0  0  0
 21 22  4  0  0  0  0
 21 29  1  0  0  0  0
 22 23  4  0  0  0  0
 22 30  1  0  0  0  0
 23 24  4  0  0  0  0
 23 26  1  0  0  0  0
 24 25  4  0  0  0  0
 24 31  1  0  0  0  0
 25 32  1  0  0  0  0
 26 33  1  0  0  0  0
 26 34  1  0  0  0  0
M  END
> <BCLConfClusterSize>
1

> <ConfClashScore>
0.000250783 

> <ConfOneFourInteractionScore>
-0.941057 

> <ConfScore>
0.253909 

> <ConfScorePBest>
0.00415982 

> <ConfTolerance>
0.362355 

> <RosettaParamsInstructions>
M  ROOT 3
M  POLY_N_BB 3
M  POLY_CA_BB 4
M  POLY_C_BB 2
M  POLY_O_BB 5
M  POLY_IGNORE 9 10 11 12 13 14 15 16 17 18 
M  POLY_UPPER 6
M  POLY_LOWER 8
M  POLY_CHG 0
M  POLY_PROPERTIES ALPHA_AA D_AA PROTEIN AROMATIC POLYMER 
M  END

$$$$



 34 34  0  0  0  0  0  0  0  0999 V2000
    0.3929    1.6571   -0.9593 H   0  0  0  1  0  0  0  0  0  0  0  0
   -0.5132    0.8333   -2.6846 C   0  0  0  1  0  0  0  0  0  0  0  0
   -1.2151    0.5133   -0.3471 N   0  0  0  1  0  0  0  0  0  0  0  0
   -0.6002    1.4325   -1.2882 C   0  0  0  1  0  0  0  0  0  0  0  0
   -1.5165    0.6742   -3.3612 O   0  0  0  1  0  0  0  0  0  0  0  0
    0.7041    0.4844   -3.1503 N   0  0  0  1  0  0  0  0  0  0  0  0
   -2.1329    0.2032   -0.4951 H   0  0  0  1  0  0  0  0  0  0  0  0
   -0.5265    0.0859    0.7292 C   0  0  0  1  0  0  0  0  0  0  0  0
    0.8609    0.0466   -4.5293 C   0  0  0  1  0  0  0  0  0  0  0  0
   -1.2334   -0.8205    1.7113 C   0  0  0  1  0  0  0  0  0  0  0  0
    0.6339    0.4192    0.9083 O   0  0  0  1  0  0  0  0  0  0  0  0
    1.4843    0.5259   -2.5588 H   0  0  0  1  0  0  0  0  0  0  0  0
    0.1753    0.5804   -5.1537 H   0  0  0  1  0  0  0  0  0  0  0  0
    0.6604   -1.0024   -4.5952 H   0  0  0  1  0  0  0  0  0  0  0  0
    1.8623    0.2398   -4.8529 H   0  0  0  1  0  0  0  0  0  0  0  0
   -1.8240   -1.5349    1.1767 H   0  0  0  1  0  0  0  0  0  0  0  0
   -1.8678   -0.2352    2.3435 H   0  0  0  1  0  0  0  0  0  0  0  0
   -0.5085   -1.3330    2.3087 H   0  0  0  1  0  0  0  0  0  0  0  0
   -1.3962    2.7415   -1.3215 C   0  0  0  1  0  0  0  0  0  0  0  0
   -2.7886    2.5712   -1.8676 C   0  0  0  1  0  0  0  0  0  0  0  0
   -3.0315    2.9975   -3.1597 C   0  0  0  1  0  0  0  0  0  0  0  0
   -4.2962    2.8574   -3.7097 C   0  0  0  1  0  0  0  0  0  0  0  0
   -5.3156    2.2962   -2.9639 C   0  0  0  1  0  0  0  0  0  0  0  0
   -5.0721    1.8685   -1.6681 C   0  0  0  1  0  0  0  0  0  0  0  0
   -3.8111    2.0083   -1.1199 C   0  0  0  1  0  0  0  0  0  0  0  0
   -6.6075    2.1582   -3.5231 N   0  0  0  1  0  0  0  0  0  0  0  0
   -0.8725    3.4430   -1.9366 H   0  0  0  1  0  0  0  0  0  0  0  0
   -1.4659    3.1231   -0.3243 H   0  0  0  1  0  0  0  0  0  0  0  0
   -2.2654    3.4235   -3.7194 H   0  0  0  1  0  0  0  0  0  0  0  0
   -4.4780    3.1746   -4.6833 H   0  0  0  1  0  0  0  0  0  0  0  0
   -5.8382    1.4425   -1.1084 H   0  0  0  1  0  0  0  0  0  0  0  0
   -3.6294    1.6911   -0.1463 H   0  0  0  1  0  0  0  0  0  0  0  0
   -7.3194    1.7217   -3.0102 H   0  0  0  1  0  0  0  0  0  0  0  0
   -6.7907    2.4990   -4.4235 H   0  0  0  1  0  0  0  0  0  0  0  0
  1  4  1  0  0  0  0
  2  4  1  0  0  0  0
  2  5  2  0  0  0  0
  2  6  1  0  0  0  0
  3  4  1  0  0  0  0
  3  7  1  0  0  0  0
  3  8  1  0  0  0  0
  4 19  1  0  0  0  0
  6  9  1  0  0  0  0
  6 12  1  0  0  0  0
  8 10  1  0  0  0  0
  8 11  2  0  0  0  0
  9 13  1  0  0  0  0
  9 14  1  0  0  0  0
  9 15  1  0  0  0  0
 10 16  1  0  0  0  0
 10 17  1  0  0  0  0
 10 18  1  0  0  0  0
 19 20  1  0  0  0  0
 19 27  1  0  0  0  0
 19 28  1  0  0  0  0
 20 21  4  0  0  0  0
 20 25  4  0  0  0  0
 21 22  4  0  0  0  0
 21 29  1  0  0  0  0
 22 23  4  0  0  0  0
 22 30  1  0  0  0  0
 23 24  4  0  0  0  0
 23 26  1  0  0  0  0
 24 25  4  0  0  0  0
 24 31  1  0  0  0  0
 25 32  1  0  0  0  0
 26 33  1  0  0  0  0
 26 34  1  0  0  0  0
M  END
> <BCLConfClusterSize>
1

> <ConfClashScore>
0 

> <ConfOneFourInteractionScore>
-0.97589 

> <ConfScore>
0.255319 

> <ConfScorePBest>
0.00413134 

> <ConfTolerance>
0.613152 

> <RosettaParamsInstructions>
M  ROOT 3
M  POLY_N_BB 3
M  POLY_CA_BB 4
M  POLY_C_BB 2
M  POLY_O_BB 5
M  POLY_IGNORE 9 10 11 12 13 14 15 16 17 18 
M  POLY_UPPER 6
M  POLY_LOWER 8
M  POLY_CHG 0
M  POLY_PROPERTIES ALPHA_AA D_AA PROTEIN AROMATIC POLYMER 
M  END

$$$$



 34 34  0  0  0  0  0  0  0  0999 V2000
   -1.3860    4.8772   -1.5738 H   0  0  0  1  0  0  0  0  0  0  0  0
    0.1837    4.4280   -0.2317 C   0  0  0  1  0  0  0  0  0  0  0  0
   -2.1909    4.5337    0.2977 N   0  0  0  1  0  0  0  0  0  0  0  0
   -1.2316    4.2135   -0.7489 C   0  0  0  1  0  0  0  0  0  0  0  0
    0.4748    3.9483    0.8522 O   0  0  0  1  0  0  0  0  0  0  0  0
    1.0326    5.1286   -0.9889 N   0  0  0  1  0  0  0  0  0  0  0  0
   -2.1147    4.0811    1.1636 H   0  0  0  1  0  0  0  0  0  0  0  0
   -3.1717    5.4231    0.1190 C   0  0  0  1  0  0  0  0  0  0  0  0
    2.3266    5.5762   -0.4957 C   0  0  0  1  0  0  0  0  0  0  0  0
   -3.9109    5.8492    1.3725 C   0  0  0  1  0  0  0  0  0  0  0  0
   -3.4678    5.8746   -0.9750 O   0  0  0  1  0  0  0  0  0  0  0  0
    0.7751    5.3488   -1.9085 H   0  0  0  1  0  0  0  0  0  0  0  0
    2.9194    4.7271   -0.2266 H   0  0  0  1  0  0  0  0  0  0  0  0
    2.1848    6.1985    0.3631 H   0  0  0  1  0  0  0  0  0  0  0  0
    2.8268    6.1321   -1.2609 H   0  0  0  1  0  0  0  0  0  0  0  0
   -4.7357    5.1892    1.5425 H   0  0  0  1  0  0  0  0  0  0  0  0
   -4.2733    6.8485    1.2502 H   0  0  0  1  0  0  0  0  0  0  0  0
   -3.2452    5.8106    2.2093 H   0  0  0  1  0  0  0  0  0  0  0  0
   -1.4276    2.7814   -1.2550 C   0  0  0  1  0  0  0  0  0  0  0  0
   -2.7820    2.5556   -1.8800 C   0  0  0  1  0  0  0  0  0  0  0  0
   -3.0175    2.9905   -3.1706 C   0  0  0  1  0  0  0  0  0  0  0  0
   -4.2815    2.8631   -3.7253 C   0  0  0  1  0  0  0  0  0  0  0  0
   -5.3077    2.3061   -2.9856 C   0  0  0  1  0  0  0  0  0  0  0  0
   -5.0716    1.8700   -1.6912 C   0  0  0  1  0  0  0  0  0  0  0  0
   -3.8113    1.9970   -1.1383 C   0  0  0  1  0  0  0  0  0  0  0  0
   -6.6172    2.1568   -3.4991 N   0  0  0  1  0  0  0  0  0  0  0  0
   -1.3176    2.1102   -0.4289 H   0  0  0  1  0  0  0  0  0  0  0  0
   -0.6757    2.5730   -1.9871 H   0  0  0  1  0  0  0  0  0  0  0  0
   -2.2463    3.4132   -3.7257 H   0  0  0  1  0  0  0  0  0  0  0  0
   -4.4577    3.1866   -4.6979 H   0  0  0  1  0  0  0  0  0  0  0  0
   -5.8428    1.4472   -1.1361 H   0  0  0  1  0  0  0  0  0  0  0  0
   -3.6352    1.6735   -0.1658 H   0  0  0  1  0  0  0  0  0  0  0  0
   -7.3116    1.7311   -2.9542 H   0  0  0  1  0  0  0  0  0  0  0  0
   -6.8300    2.4790   -4.3998 H   0  0  0  1  0  0  0  0  0  0  0  0
  1  4  1  0  0  0  0
  2  4  1  0  0  0  0
  2  5  2  0  0  0  0
  2  6  1  0  0  0  0
  3  4  1  0  0  0  0
  3  7  1  0  0  0  0
  3  8  1  0  0  0  0
  4 19  1  0  0  0  0
  6  9  1  0  0  0  0
  6 12  1  0  0  0  0
  8 10  1  0  0  0  0
  8 11  2  0  0  0  0
  9 13  1  0  0  0  0
  9 14  1  0  0  0  0
  9 15  1  0  0  0  0
 10 16  1  0  0  0  0
 10 17  1  0  0  0  0
 10 18  1  0  0  0  0
 19 20  1  0  0  0  0
 19 27  1  0  0  0  0
 19 28  1  0  0  0  0
 20 21  4  0  0  0  0
 20 25  4  0  0  0  0
 21 22  4  0  0  0  0
 21 29  1  0  0  0  0
 22 23  4  0  0  0  0
 22 30  1  0  0  0  0
 23 24  4  0  0  0  0
 23 26  1  0  0  0  0
 24 25  4  0  0  0  0
 24 31  1  0  0  0  0
 25 32  1  0  0  0  0
 26 33  1  0  0  0  0
 26 34  1  0  0  0  0
M  END
> <BCLConfClusterSize>
1

> <ConfClashScore>
0 

> <ConfOneFourInteractionScore>
-0.990503 

> <ConfScore>
0.256031 

> <ConfScorePBest>
0.00410286 

> <ConfTolerance>
0.553511 

> <RosettaParamsInstructions>
M  ROOT 3
M  POLY_N_BB 3
M  POLY_CA_BB 4
M  POLY_C_BB 2
M  POLY_O_BB 5
M  POLY_IGNORE 9 10 11 12 13 14 15 16 17 18 
M  POLY_UPPER 6
M  POLY_LOWER 8
M  POLY_CHG 0
M  POLY_PROPERTIES ALPHA_AA D_AA PROTEIN AROMATIC POLYMER 
M  END

$$$$



 34 34  0  0  0  0  0  0  0  0999 V2000
    0.2985    1.6254   -0.7712 H   0  0  0  1  0  0  0  0  0  0  0  0
   -0.2356    0.9310   -2.6709 C   0  0  0  1  0  0  0  0  0  0  0  0
   -1.3254    0.3763   -0.5341 N   0  0  0  1  0  0  0  0  0  0  0  0
   -0.6164    1.4267   -1.2894 C   0  0  0  1  0  0  0  0  0  0  0  0
   -0.6136   -0.1685   -3.0731 O   0  0  0  1  0  0  0  0  0  0  0  0
    0.5247    1.7267   -3.4396 N   0  0  0  1  0  0  0  0  0  0  0  0
   -1.4523   -0.5017   -0.9506 H   0  0  0  1  0  0  0  0  0  0  0  0
   -1.8004    0.5804    0.6978 C   0  0  0  1  0  0  0  0  0  0  0  0
    1.0162    1.3085   -4.7439 C   0  0  0  1  0  0  0  0  0  0  0  0
   -2.5920   -0.5658    1.2968 C   0  0  0  1  0  0  0  0  0  0  0  0
   -1.6175    1.6248    1.3218 O   0  0  0  1  0  0  0  0  0  0  0  0
    0.7568    2.6203   -3.1109 H   0  0  0  1  0  0  0  0  0  0  0  0
    1.2603    2.1717   -5.3272 H   0  0  0  1  0  0  0  0  0  0  0  0
    0.2594    0.7421   -5.2452 H   0  0  0  1  0  0  0  0  0  0  0  0
    1.8903    0.7043   -4.6185 H   0  0  0  1  0  0  0  0  0  0  0  0
   -2.0432   -1.4771    1.1823 H   0  0  0  1  0  0  0  0  0  0  0  0
   -3.5326   -0.6506    0.7938 H   0  0  0  1  0  0  0  0  0  0  0  0
   -2.7588   -0.3785    2.3370 H   0  0  0  1  0  0  0  0  0  0  0  0
   -1.4134    2.7209   -1.2776 C   0  0  0  1  0  0  0  0  0  0  0  0
   -2.7905    2.5707   -1.8667 C   0  0  0  1  0  0  0  0  0  0  0  0
   -3.0421    3.0009   -3.1559 C   0  0  0  1  0  0  0  0  0  0  0  0
   -4.3091    2.8575   -3.6997 C   0  0  0  1  0  0  0  0  0  0  0  0
   -5.3221    2.2890   -2.9507 C   0  0  0  1  0  0  0  0  0  0  0  0
   -5.0699    1.8575   -1.6578 C   0  0  0  1  0  0  0  0  0  0  0  0
   -3.8066    2.0006   -1.1157 C   0  0  0  1  0  0  0  0  0  0  0  0
   -6.5920    2.1728   -3.5513 N   0  0  0  1  0  0  0  0  0  0  0  0
   -0.8790    3.4551   -1.8436 H   0  0  0  1  0  0  0  0  0  0  0  0
   -1.5105    3.0519   -0.2648 H   0  0  0  1  0  0  0  0  0  0  0  0
   -2.2808    3.4323   -3.7180 H   0  0  0  1  0  0  0  0  0  0  0  0
   -4.4973    3.1775   -4.6712 H   0  0  0  1  0  0  0  0  0  0  0  0
   -5.8312    1.4262   -1.0957 H   0  0  0  1  0  0  0  0  0  0  0  0
   -3.6184    1.6806   -0.1443 H   0  0  0  1  0  0  0  0  0  0  0  0
   -6.7119    2.4115   -4.4941 H   0  0  0  1  0  0  0  0  0  0  0  0
   -7.3551    1.8531   -3.0259 H   0  0  0  1  0  0  0  0  0  0  0  0
  1  4  1  0  0  0  0
  2  4  1  0  0  0  0
  2  5  2  0  0  0  0
  2  6  1  0  0  0  0
  3  4  1  0  0  0  0
  3  7  1  0  0  0  0
  3  8  1  0  0  0  0
  4 19  1  0  0  0  0
  6  9  1  0  0  0  0
  6 12  1  0  0  0  0
  8 10  1  0  0  0  0
  8 11  2  0  0  0  0
  9 13  1  0  0  0  0
  9 14  1  0  0  0  0
  9 15  1  0  0  0  0
 10 16  1  0  0  0  0
 10 17  1  0  0  0  0
 10 18  1  0  0  0  0
 19 20  1  0  0  0  0
 19 27  1  0  0  0  0
 19 28  1  0  0  0  0
 20 21  4  0  0  0  0
 20 25  4  0  0  0  0
 21 22  4  0  0  0  0
 21 29  1  0  0  0  0
 22 23  4  0  0  0  0
 22 30  1  0  0  0  0
 23 24  4  0  0  0  0
 23 26  1  0  0  0  0
 24 25  4  0  0  0  0
 24 31  1  0  0  0  0
 25 32  1  0  0  0  0
 26 33  1  0  0  0  0
 26 34  1  0  0  0  0
M  END
> <BCLConfClusterSize>
1

> <ConfClashScore>
0 

> <ConfOneFourInteractionScore>
-0.980011 

> <ConfScore>
0.256177 

> <ConfScorePBest>
0.00407438 

> <ConfTolerance>
0.631462 

> <RosettaParamsInstructions>
M  ROOT 3
M  POLY_N_BB 3
M  POLY_CA_BB 4
M  POLY_C_BB 2
M  POLY_O_BB 5
M  POLY_IGNORE 9 10 11 12 13 14 15 16 17 18 
M  POLY_UPPER 6
M  POLY_LOWER 8
M  POLY_CHG 0
M  POLY_PROPERTIES ALPHA_AA D_AA PROTEIN AROMATIC POLYMER 
M  END

$$$$



 34 34  0  0  0  0  0  0  0  0999 V2000
   -1.5927    1.1241    0.0654 H   0  0  0  1  0  0  0  0  0  0  0  0
    0.4350    1.6760    0.0594 C   0  0  0  1  0  0  0  0  0  0  0  0
   -0.7638    0.3927   -1.6704 N   0  0  0  1  0  0  0  0  0  0  0  0
   -0.8760    1.4383   -0.6643 C   0  0  0  1  0  0  0  0  0  0  0  0
    0.7935    2.8097    0.3752 O   0  0  0  1  0  0  0  0  0  0  0  0
    1.1617    0.5790    0.3251 N   0  0  0  1  0  0  0  0  0  0  0  0
   -1.5585   -0.1352   -1.8946 H   0  0  0  1  0  0  0  0  0  0  0  0
    0.3962    0.1249   -2.3052 C   0  0  0  1  0  0  0  0  0  0  0  0
    2.4699    0.6478    0.9590 C   0  0  0  1  0  0  0  0  0  0  0  0
    0.4698   -1.1270   -3.1576 C   0  0  0  1  0  0  0  0  0  0  0  0
    1.3671    0.8727   -2.1973 O   0  0  0  1  0  0  0  0  0  0  0  0
    0.7986   -0.2988    0.0839 H   0  0  0  1  0  0  0  0  0  0  0  0
    2.7463    1.6722    1.0974 H   0  0  0  1  0  0  0  0  0  0  0  0
    3.1935    0.1644    0.3363 H   0  0  0  1  0  0  0  0  0  0  0  0
    2.4318    0.1573    1.9092 H   0  0  0  1  0  0  0  0  0  0  0  0
   -0.3415   -1.1322   -3.8553 H   0  0  0  1  0  0  0  0  0  0  0  0
    0.4049   -1.9905   -2.5291 H   0  0  0  1  0  0  0  0  0  0  0  0
    1.3978   -1.1416   -3.6900 H   0  0  0  1  0  0  0  0  0  0  0  0
   -1.4073    2.7278   -1.2971 C   0  0  0  1  0  0  0  0  0  0  0  0
   -2.7877    2.5745   -1.8777 C   0  0  0  1  0  0  0  0  0  0  0  0
   -3.0473    3.0008   -3.1666 C   0  0  0  1  0  0  0  0  0  0  0  0
   -4.3173    2.8544   -3.7026 C   0  0  0  1  0  0  0  0  0  0  0  0
   -5.3253    2.2870   -2.9461 C   0  0  0  1  0  0  0  0  0  0  0  0
   -5.0651    1.8595   -1.6534 C   0  0  0  1  0  0  0  0  0  0  0  0
   -3.7988    2.0054   -1.1192 C   0  0  0  1  0  0  0  0  0  0  0  0
   -6.5925    2.1683   -3.5360 N   0  0  0  1  0  0  0  0  0  0  0  0
   -0.7398    3.0235   -2.0793 H   0  0  0  1  0  0  0  0  0  0  0  0
   -1.4365    3.4890   -0.5457 H   0  0  0  1  0  0  0  0  0  0  0  0
   -2.2898    3.4313   -3.7343 H   0  0  0  1  0  0  0  0  0  0  0  0
   -4.5116    3.1715   -4.6738 H   0  0  0  1  0  0  0  0  0  0  0  0
   -5.8226    1.4289   -1.0857 H   0  0  0  1  0  0  0  0  0  0  0  0
   -3.6046    1.6883   -0.1480 H   0  0  0  1  0  0  0  0  0  0  0  0
   -7.3369    1.7868   -3.0253 H   0  0  0  1  0  0  0  0  0  0  0  0
   -6.7333    2.4667   -4.4587 H   0  0  0  1  0  0  0  0  0  0  0  0
  1  4  1  0  0  0  0
  2  4  1  0  0  0  0
  2  5  2  0  0  0  0
  2  6  1  0  0  0  0
  3  4  1  0  0  0  0
  3  7  1  0  0  0  0
  3  8  1  0  0  0  0
  4 19  1  0  0  0  0
  6  9  1  0  0  0  0
  6 12  1  0  0  0  0
  8 10  1  0  0  0  0
  8 11  2  0  0  0  0
  9 13  1  0  0  0  0
  9 14  1  0  0  0  0
  9 15  1  0  0  0  0
 10 16  1  0  0  0  0
 10 17  1  0  0  0  0
 10 18  1  0  0  0  0
 19 20  1  0  0  0  0
 19 27  1  0  0  0  0
 19 28  1  0  0  0  0
 20 21  4  0  0  0  0
 20 25  4  0  0  0  0
 21 22  4  0  0  0  0
 21 29  1  0  0  0  0
 22 23  4  0  0  0  0
 22 30  1  0  0  0  0
 23 24  4  0  0  0  0
 23 26  1  0  0  0  0
 24 25  4  0  0  0  0
 24 31  1  0  0  0  0
 25 32  1  0  0  0  0
 26 33  1  0  0  0  0
 26 34  1  0  0  0  0
M  END
> <BCLConfClusterSize>
1

> <ConfClashScore>
0 

> <ConfOneFourInteractionScore>
-0.957364 

> <ConfScore>
0.257574 

> <ConfScorePBest>
0.00404589 

> <ConfTolerance>
0.355169 

> <RosettaParamsInstructions>
M  ROOT 3
M  POLY_N_BB 3
M  POLY_CA_BB 4
M  POLY_C_BB 2
M  POLY_O_BB 5
M  POLY_IGNORE 9 10 11 12 13 14 15 16 17 18 
M  POLY_UPPER 6
M  POLY_LOWER 8
M  POLY_CHG 0
M  POLY_PROPERTIES ALPHA_AA D_AA PROTEIN AROMATIC POLYMER 
M  END

$$$$



 34 34  0  0  0  0  0  0  0  0999 V2000
    0.5029    1.9122   -1.2523 H   0  0  0  1  0  0  0  0  0  0  0  0
   -0.0483    2.0330   -3.2769 C   0  0  0  1  0  0  0  0  0  0  0  0
   -0.8519    0.4024   -1.6560 N   0  0  0  1  0  0  0  0  0  0  0  0
   -0.3951    1.7895   -1.8210 C   0  0  0  1  0  0  0  0  0  0  0  0
   -0.1385    3.1520   -3.7750 O   0  0  0  1  0  0  0  0  0  0  0  0
    0.3568    0.9558   -3.9679 N   0  0  0  1  0  0  0  0  0  0  0  0
   -0.5234   -0.1520   -0.9176 H   0  0  0  1  0  0  0  0  0  0  0  0
   -1.7365   -0.0862   -2.5500 C   0  0  0  1  0  0  0  0  0  0  0  0
    0.7049    0.8911   -5.3795 C   0  0  0  1  0  0  0  0  0  0  0  0
   -2.2618   -1.4793   -2.2631 C   0  0  0  1  0  0  0  0  0  0  0  0
   -2.1050    0.5437   -3.5405 O   0  0  0  1  0  0  0  0  0  0  0  0
    0.4260    0.1177   -3.4647 H   0  0  0  1  0  0  0  0  0  0  0  0
    0.2129    0.0548   -5.8307 H   0  0  0  1  0  0  0  0  0  0  0  0
    1.7641    0.7785   -5.4806 H   0  0  0  1  0  0  0  0  0  0  0  0
    0.3935    1.7923   -5.8651 H   0  0  0  1  0  0  0  0  0  0  0  0
   -2.6870   -1.5056   -1.2815 H   0  0  0  1  0  0  0  0  0  0  0  0
   -1.4575   -2.1826   -2.3220 H   0  0  0  1  0  0  0  0  0  0  0  0
   -3.0115   -1.7329   -2.9832 H   0  0  0  1  0  0  0  0  0  0  0  0
   -1.4259    2.7537   -1.2569 C   0  0  0  1  0  0  0  0  0  0  0  0
   -2.7898    2.5842   -1.8707 C   0  0  0  1  0  0  0  0  0  0  0  0
   -3.0255    3.0155   -3.1625 C   0  0  0  1  0  0  0  0  0  0  0  0
   -4.2803    2.8543   -3.7291 C   0  0  0  1  0  0  0  0  0  0  0  0
   -5.2973    2.2670   -3.0002 C   0  0  0  1  0  0  0  0  0  0  0  0
   -5.0610    1.8344   -1.7046 C   0  0  0  1  0  0  0  0  0  0  0  0
   -3.8099    1.9952   -1.1398 C   0  0  0  1  0  0  0  0  0  0  0  0
   -6.6192    2.1713   -3.4942 N   0  0  0  1  0  0  0  0  0  0  0  0
   -1.0923    3.7539   -1.4391 H   0  0  0  1  0  0  0  0  0  0  0  0
   -1.5042    2.5899   -0.2024 H   0  0  0  1  0  0  0  0  0  0  0  0
   -2.2614    3.4610   -3.7095 H   0  0  0  1  0  0  0  0  0  0  0  0
   -4.4565    3.1752   -4.7025 H   0  0  0  1  0  0  0  0  0  0  0  0
   -5.8252    1.3889   -1.1576 H   0  0  0  1  0  0  0  0  0  0  0  0
   -3.6337    1.6743   -0.1664 H   0  0  0  1  0  0  0  0  0  0  0  0
   -7.3497    1.9161   -2.8928 H   0  0  0  1  0  0  0  0  0  0  0  0
   -6.8045    2.3600   -4.4378 H   0  0  0  1  0  0  0  0  0  0  0  0
  1  4  1  0  0  0  0
  2  4  1  0  0  0  0
  2  5  2  0  0  0  0
  2  6  1  0  0  0  0
  3  4  1  0  0  0  0
  3  7  1  0  0  0  0
  3  8  1  0  0  0  0
  4 19  1  0  0  0  0
  6  9  1  0  0  0  0
  6 12  1  0  0  0  0
  8 10  1  0  0  0  0
  8 11  2  0  0  0  0
  9 13  1  0  0  0  0
  9 14  1  0  0  0  0
  9 15  1  0  0  0  0
 10 16  1  0  0  0  0
 10 17  1  0  0  0  0
 10 18  1  0  0  0  0
 19 20  1  0  0  0  0
 19 27  1  0  0  0  0
 19 28  1  0  0  0  0
 20 21  4  0  0  0  0
 20 25  4  0  0  0  0
 21 22  4  0  0  0  0
 21 29  1  0  0  0  0
 22 23  4  0  0  0  0
 22 30  1  0  0  0  0
 23 24  4  0  0  0  0
 23 26  1  0  0  0  0
 24 25  4  0  0  0  0
 24 31  1  0  0  0  0
 25 32  1  0  0  0  0
 26 33  1  0  0  0  0
 26 34  1  0  0  0  0
M  END
> <BCLConfClusterSize>
1

> <ConfClashScore>
0.000500419 

> <ConfOneFourInteractionScore>
-0.928983 

> <ConfScore>
0.257588 

> <ConfScorePBest>
0.00401741 

> <ConfTolerance>
0.271826 

> <RosettaParamsInstructions>
M  ROOT 3
M  POLY_N_BB 3
M  POLY_CA_BB 4
M  POLY_C_BB 2
M  POLY_O_BB 5
M  POLY_IGNORE 9 10 11 12 13 14 15 16 17 18 
M  POLY_UPPER 6
M  POLY_LOWER 8
M  POLY_CHG 0
M  POLY_PROPERTIES ALPHA_AA D_AA PROTEIN AROMATIC POLYMER 
M  END

$$$$



 34 34  0  0  0  0  0  0  0  0999 V2000
   -1.4883    3.7858    0.5374 H   0  0  0  1  0  0  0  0  0  0  0  0
   -2.1769    5.0867   -0.9620 C   0  0  0  1  0  0  0  0  0  0  0  0
    0.1576    4.4354   -0.5125 N   0  0  0  1  0  0  0  0  0  0  0  0
   -1.2319    4.0041   -0.4783 C   0  0  0  1  0  0  0  0  0  0  0  0
   -1.8019    5.9583   -1.7490 O   0  0  0  1  0  0  0  0  0  0  0  0
   -3.4281    5.0271   -0.4792 N   0  0  0  1  0  0  0  0  0  0  0  0
    0.7930    3.9398   -1.0702 H   0  0  0  1  0  0  0  0  0  0  0  0
    0.5971    5.4834    0.1899 C   0  0  0  1  0  0  0  0  0  0  0  0
   -4.4892    5.8993   -0.9599 C   0  0  0  1  0  0  0  0  0  0  0  0
    2.0553    5.8470   -0.0120 C   0  0  0  1  0  0  0  0  0  0  0  0
   -0.1193    6.1235    0.9551 O   0  0  0  1  0  0  0  0  0  0  0  0
   -3.6340    4.3735    0.2214 H   0  0  0  1  0  0  0  0  0  0  0  0
   -5.1526    6.1326   -0.1535 H   0  0  0  1  0  0  0  0  0  0  0  0
   -5.0331    5.4040   -1.7370 H   0  0  0  1  0  0  0  0  0  0  0  0
   -4.0621    6.8025   -1.3428 H   0  0  0  1  0  0  0  0  0  0  0  0
    2.6720    5.0183    0.2671 H   0  0  0  1  0  0  0  0  0  0  0  0
    2.2990    6.6933    0.5957 H   0  0  0  1  0  0  0  0  0  0  0  0
    2.2238    6.0859   -1.0412 H   0  0  0  1  0  0  0  0  0  0  0  0
   -1.4044    2.7181   -1.2759 C   0  0  0  1  0  0  0  0  0  0  0  0
   -2.7904    2.5685   -1.8679 C   0  0  0  1  0  0  0  0  0  0  0  0
   -3.0483    3.0207   -3.1483 C   0  0  0  1  0  0  0  0  0  0  0  0
   -4.3157    2.8787   -3.6915 C   0  0  0  1  0  0  0  0  0  0  0  0
   -5.3229    2.2897   -2.9507 C   0  0  0  1  0  0  0  0  0  0  0  0
   -5.0645    1.8361   -1.6666 C   0  0  0  1  0  0  0  0  0  0  0  0
   -3.8008    1.9778   -1.1251 C   0  0  0  1  0  0  0  0  0  0  0  0
   -6.5935    2.1758   -3.5501 N   0  0  0  1  0  0  0  0  0  0  0  0
   -1.2197    1.8875   -0.6271 H   0  0  0  1  0  0  0  0  0  0  0  0
   -0.6911    2.7137   -2.0735 H   0  0  0  1  0  0  0  0  0  0  0  0
   -2.2913    3.4675   -3.7042 H   0  0  0  1  0  0  0  0  0  0  0  0
   -4.5086    3.2153   -4.6565 H   0  0  0  1  0  0  0  0  0  0  0  0
   -5.8214    1.3893   -1.1107 H   0  0  0  1  0  0  0  0  0  0  0  0
   -3.6079    1.6412   -0.1602 H   0  0  0  1  0  0  0  0  0  0  0  0
   -6.7871    2.6547   -4.3830 H   0  0  0  1  0  0  0  0  0  0  0  0
   -7.2834    1.6178   -3.1341 H   0  0  0  1  0  0  0  0  0  0  0  0
  1  4  1  0  0  0  0
  2  4  1  0  0  0  0
  2  5  2  0  0  0  0
  2  6  1  0  0  0  0
  3  4  1  0  0  0  0
  3  7  1  0  0  0  0
  3  8  1  0  0  0  0
  4 19  1  0  0  0  0
  6  9  1  0  0  0  0
  6 12  1  0  0  0  0
  8 10  1  0  0  0  0
  8 11  2  0  0  0  0
  9 13  1  0  0  0  0
  9 14  1  0  0  0  0
  9 15  1  0  0  0  0
 10 16  1  0  0  0  0
 10 17  1  0  0  0  0
 10 18  1  0  0  0  0
 19 20  1  0  0  0  0
 19 27  1  0  0  0  0
 19 28  1  0  0  0  0
 20 21  4  0  0  0  0
 20 25  4  0  0  0  0
 21 22  4  0  0  0  0
 21 29  1  0  0  0  0
 22 23  4  0  0  0  0
 22 30  1  0  0  0  0
 23 24  4  0  0  0  0
 23 26  1  0  0  0  0
 24 25  4  0  0  0  0
 24 31  1  0  0  0  0
 25 32  1  0  0  0  0
 26 33  1  0  0  0  0
 26 34  1  0  0  0  0
M  END
> <BCLConfClusterSize>
1

> <ConfClashScore>
0 

> <ConfOneFourInteractionScore>
-0.967834 

> <ConfScore>
0.260542 

> <ConfScorePBest>
0.00398893 

> <ConfTolerance>
0.719194 

> <RosettaParamsInstructions>
M  ROOT 3
M  POLY_N_BB 3
M  POLY_CA_BB 4
M  POLY_C_BB 2
M  POLY_O_BB 5
M  POLY_IGNORE 9 10 11 12 13 14 15 16 17 18 
M  POLY_UPPER 6
M  POLY_LOWER 8
M  POLY_CHG 0
M  POLY_PROPERTIES ALPHA_AA D_AA PROTEIN AROMATIC POLYMER 
M  END

$$$$



 34 34  0  0  0  0  0  0  0  0999 V2000
   -0.2717    2.6193   -3.0363 H   0  0  0  1  0  0  0  0  0  0  0  0
    1.0088    3.3729   -1.5626 C   0  0  0  1  0  0  0  0  0  0  0  0
   -0.7348    4.6053   -2.7685 N   0  0  0  1  0  0  0  0  0  0  0  0
   -0.3577    3.3005   -2.2157 C   0  0  0  1  0  0  0  0  0  0  0  0
    1.4583    2.4319   -0.9284 O   0  0  0  1  0  0  0  0  0  0  0  0
    1.6750    4.5262   -1.7303 N   0  0  0  1  0  0  0  0  0  0  0  0
   -0.8355    4.6801   -3.7404 H   0  0  0  1  0  0  0  0  0  0  0  0
   -0.9521    5.7095   -2.0242 C   0  0  0  1  0  0  0  0  0  0  0  0
    3.0155    4.6310   -1.1734 C   0  0  0  1  0  0  0  0  0  0  0  0
   -1.4425    6.9469   -2.7222 C   0  0  0  1  0  0  0  0  0  0  0  0
   -0.7553    5.7061   -0.8097 O   0  0  0  1  0  0  0  0  0  0  0  0
    1.2702    5.2763   -2.2139 H   0  0  0  1  0  0  0  0  0  0  0  0
    3.0868    4.0212   -0.2971 H   0  0  0  1  0  0  0  0  0  0  0  0
    3.2158    5.6500   -0.9158 H   0  0  0  1  0  0  0  0  0  0  0  0
    3.7293    4.2987   -1.8979 H   0  0  0  1  0  0  0  0  0  0  0  0
   -2.2585    6.6939   -3.3664 H   0  0  0  1  0  0  0  0  0  0  0  0
   -0.6477    7.3676   -3.3021 H   0  0  0  1  0  0  0  0  0  0  0  0
   -1.7703    7.6601   -1.9950 H   0  0  0  1  0  0  0  0  0  0  0  0
   -1.4101    2.7244   -1.2827 C   0  0  0  1  0  0  0  0  0  0  0  0
   -2.7859    2.5756   -1.8752 C   0  0  0  1  0  0  0  0  0  0  0  0
   -3.0306    2.9944   -3.1694 C   0  0  0  1  0  0  0  0  0  0  0  0
   -4.2964    2.8523   -3.7164 C   0  0  0  1  0  0  0  0  0  0  0  0
   -5.3151    2.2965   -2.9655 C   0  0  0  1  0  0  0  0  0  0  0  0
   -5.0697    1.8764   -1.6675 C   0  0  0  1  0  0  0  0  0  0  0  0
   -3.8077    2.0182   -1.1223 C   0  0  0  1  0  0  0  0  0  0  0  0
   -6.6081    2.1564   -3.5216 N   0  0  0  1  0  0  0  0  0  0  0  0
   -1.4851    3.3687   -0.4317 H   0  0  0  1  0  0  0  0  0  0  0  0
   -1.0791    1.7562   -0.9695 H   0  0  0  1  0  0  0  0  0  0  0  0
   -2.2651    3.4163   -3.7329 H   0  0  0  1  0  0  0  0  0  0  0  0
   -4.4796    3.1637   -4.6916 H   0  0  0  1  0  0  0  0  0  0  0  0
   -5.8353    1.4546   -1.1039 H   0  0  0  1  0  0  0  0  0  0  0  0
   -3.6246    1.7068   -0.1471 H   0  0  0  1  0  0  0  0  0  0  0  0
   -7.2963    1.6513   -3.0404 H   0  0  0  1  0  0  0  0  0  0  0  0
   -6.8156    2.5645   -4.3881 H   0  0  0  1  0  0  0  0  0  0  0  0
  1  4  1  0  0  0  0
  2  4  1  0  0  0  0
  2  5  2  0  0  0  0
  2  6  1  0  0  0  0
  3  4  1  0  0  0  0
  3  7  1  0  0  0  0
  3  8  1  0  0  0  0
  4 19  1  0  0  0  0
  6  9  1  0  0  0  0
  6 12  1  0  0  0  0
  8 10  1  0  0  0  0
  8 11  2  0  0  0  0
  9 13  1  0  0  0  0
  9 14  1  0  0  0  0
  9 15  1  0  0  0  0
 10 16  1  0  0  0  0
 10 17  1  0  0  0  0
 10 18  1  0  0  0  0
 19 20  1  0  0  0  0
 19 27  1  0  0  0  0
 19 28  1  0  0  0  0
 20 21  4  0  0  0  0
 20 25  4  0  0  0  0
 21 22  4  0  0  0  0
 21 29  1  0  0  0  0
 22 23  4  0  0  0  0
 22 30  1  0  0  0  0
 23 24  4  0  0  0  0
 23 26  1  0  0  0  0
 24 25  4  0  0  0  0
 24 31  1  0  0  0  0
 25 32  1  0  0  0  0
 26 33  1  0  0  0  0
 26 34  1  0  0  0  0
M  END
> <BCLConfClusterSize>
1

> <ConfClashScore>
0 

> <ConfOneFourInteractionScore>
-0.931613 

> <ConfScore>
0.262443 

> <ConfScorePBest>
0.00396045 

> <ConfTolerance>
0.454849 

> <RosettaParamsInstructions>
M  ROOT 3
M  POLY_N_BB 3
M  POLY_CA_BB 4
M  POLY_C_BB 2
M  POLY_O_BB 5
M  POLY_IGNORE 9 10 11 12 13 14 15 16 17 18 
M  POLY_UPPER 6
M  POLY_LOWER 8
M  POLY_CHG 0
M  POLY_PROPERTIES ALPHA_AA D_AA PROTEIN AROMATIC POLYMER 
M  END

$$$$



 34 34  0  0  0  0  0  0  0  0999 V2000
   -2.0265    4.2749   -0.0010 H   0  0  0  1  0  0  0  0  0  0  0  0
   -1.1183    5.1891   -1.6618 C   0  0  0  1  0  0  0  0  0  0  0  0
    0.0072    4.0424    0.2088 N   0  0  0  1  0  0  0  0  0  0  0  0
   -1.1823    4.0794   -0.6287 C   0  0  0  1  0  0  0  0  0  0  0  0
   -1.7729    5.2022   -2.6871 O   0  0  0  1  0  0  0  0  0  0  0  0
   -0.2799    6.1931   -1.3894 N   0  0  0  1  0  0  0  0  0  0  0  0
   -0.0914    4.3050    1.1478 H   0  0  0  1  0  0  0  0  0  0  0  0
    1.2697    3.6636   -0.2216 C   0  0  0  1  0  0  0  0  0  0  0  0
   -0.1528    7.3563   -2.2547 C   0  0  0  1  0  0  0  0  0  0  0  0
    2.4132    3.6933    0.7532 C   0  0  0  1  0  0  0  0  0  0  0  0
    1.4102    3.3179   -1.3806 O   0  0  0  1  0  0  0  0  0  0  0  0
    0.2686    6.1445   -0.5787 H   0  0  0  1  0  0  0  0  0  0  0  0
   -0.4083    7.0849   -3.2577 H   0  0  0  1  0  0  0  0  0  0  0  0
    0.8559    7.7121   -2.2277 H   0  0  0  1  0  0  0  0  0  0  0  0
   -0.8126    8.1270   -1.9149 H   0  0  0  1  0  0  0  0  0  0  0  0
    2.8466    2.7177    0.8252 H   0  0  0  1  0  0  0  0  0  0  0  0
    2.0541    3.9957    1.7147 H   0  0  0  1  0  0  0  0  0  0  0  0
    3.1531    4.3877    0.4136 H   0  0  0  1  0  0  0  0  0  0  0  0
   -1.4090    2.7204   -1.2842 C   0  0  0  1  0  0  0  0  0  0  0  0
   -2.7853    2.5734   -1.8760 C   0  0  0  1  0  0  0  0  0  0  0  0
   -3.0358    3.0132   -3.1621 C   0  0  0  1  0  0  0  0  0  0  0  0
   -4.3020    2.8727   -3.7085 C   0  0  0  1  0  0  0  0  0  0  0  0
   -5.3154    2.2976   -2.9651 C   0  0  0  1  0  0  0  0  0  0  0  0
   -5.0643    1.8565   -1.6752 C   0  0  0  1  0  0  0  0  0  0  0  0
   -3.8018    1.9967   -1.1306 C   0  0  0  1  0  0  0  0  0  0  0  0
   -6.6088    2.1592   -3.5206 N   0  0  0  1  0  0  0  0  0  0  0  0
   -1.2731    1.9588   -0.5449 H   0  0  0  1  0  0  0  0  0  0  0  0
   -0.6876    2.5939   -2.0642 H   0  0  0  1  0  0  0  0  0  0  0  0
   -2.2742    3.4496   -3.7200 H   0  0  0  1  0  0  0  0  0  0  0  0
   -4.4895    3.2000   -4.6777 H   0  0  0  1  0  0  0  0  0  0  0  0
   -5.8258    1.4201   -1.1173 H   0  0  0  1  0  0  0  0  0  0  0  0
   -3.6144    1.6694   -0.1614 H   0  0  0  1  0  0  0  0  0  0  0  0
   -7.3595    1.8868   -2.9525 H   0  0  0  1  0  0  0  0  0  0  0  0
   -6.7543    2.3357   -4.4735 H   0  0  0  1  0  0  0  0  0  0  0  0
  1  4  1  0  0  0  0
  2  4  1  0  0  0  0
  2  5  2  0  0  0  0
  2  6  1  0  0  0  0
  3  4  1  0  0  0  0
  3  7  1  0  0  0  0
  3  8  1  0  0  0  0
  4 19  1  0  0  0  0
  6  9  1  0  0  0  0
  6 12  1  0  0  0  0
  8 10  1  0  0  0  0
  8 11  2  0  0  0  0
  9 13  1  0  0  0  0
  9 14  1  0  0  0  0
  9 15  1  0  0  0  0
 10 16  1  0  0  0  0
 10 17  1  0  0  0  0
 10 18  1  0  0  0  0
 19 20  1  0  0  0  0
 19 27  1  0  0  0  0
 19 28  1  0  0  0  0
 20 21  4  0  0  0  0
 20 25  4  0  0  0  0
 21 22  4  0  0  0  0
 21 29  1  0  0  0  0
 22 23  4  0  0  0  0
 22 30  1  0  0  0  0
 23 24  4  0  0  0  0
 23 26  1  0  0  0  0
 24 25  4  0  0  0  0
 24 31  1  0  0  0  0
 25 32  1  0  0  0  0
 26 33  1  0  0  0  0
 26 34  1  0  0  0  0
M  END
> <BCLConfClusterSize>
1

> <ConfClashScore>
0 

> <ConfOneFourInteractionScore>
-0.95733 

> <ConfScore>
0.263478 

> <ConfScorePBest>
0.00393197 

> <ConfTolerance>
0.307704 

> <RosettaParamsInstructions>
M  ROOT 3
M  POLY_N_BB 3
M  POLY_CA_BB 4
M  POLY_C_BB 2
M  POLY_O_BB 5
M  POLY_IGNORE 9 10 11 12 13 14 15 16 17 18 
M  POLY_UPPER 6
M  POLY_LOWER 8
M  POLY_CHG 0
M  POLY_PROPERTIES ALPHA_AA D_AA PROTEIN AROMATIC POLYMER 
M  END

$$$$



 34 34  0  0  0  0  0  0  0  0999 V2000
   -0.3370    1.4199   -2.5490 H   0  0  0  1  0  0  0  0  0  0  0  0
   -1.3285    0.1690   -1.1392 C   0  0  0  1  0  0  0  0  0  0  0  0
    0.6646    1.5032   -0.7184 N   0  0  0  1  0  0  0  0  0  0  0  0
   -0.5755    1.4472   -1.5063 C   0  0  0  1  0  0  0  0  0  0  0  0
   -1.8865   -0.5208   -1.9730 O   0  0  0  1  0  0  0  0  0  0  0  0
   -1.3798   -0.2112    0.1465 N   0  0  0  1  0  0  0  0  0  0  0  0
    0.6026    1.5450    0.2587 H   0  0  0  1  0  0  0  0  0  0  0  0
    1.8730    1.4990   -1.2882 C   0  0  0  1  0  0  0  0  0  0  0  0
   -2.1567   -1.3797    0.5325 C   0  0  0  1  0  0  0  0  0  0  0  0
    3.0470    1.6722   -0.3443 C   0  0  0  1  0  0  0  0  0  0  0  0
    2.0406    1.3655   -2.4892 O   0  0  0  1  0  0  0  0  0  0  0  0
   -0.8930    0.2989    0.8270 H   0  0  0  1  0  0  0  0  0  0  0  0
   -2.1148   -2.1103   -0.2481 H   0  0  0  1  0  0  0  0  0  0  0  0
   -3.1741   -1.0925    0.6978 H   0  0  0  1  0  0  0  0  0  0  0  0
   -1.7523   -1.7954    1.4317 H   0  0  0  1  0  0  0  0  0  0  0  0
    3.9614    1.6083   -0.8962 H   0  0  0  1  0  0  0  0  0  0  0  0
    3.0241    0.9020    0.3981 H   0  0  0  1  0  0  0  0  0  0  0  0
    2.9838    2.6287    0.1313 H   0  0  0  1  0  0  0  0  0  0  0  0
   -1.4220    2.6934   -1.2267 C   0  0  0  1  0  0  0  0  0  0  0  0
   -2.7856    2.5738   -1.8770 C   0  0  0  1  0  0  0  0  0  0  0  0
   -3.0363    3.0242   -3.1594 C   0  0  0  1  0  0  0  0  0  0  0  0
   -4.3017    2.8848   -3.7081 C   0  0  0  1  0  0  0  0  0  0  0  0
   -5.3140    2.3003   -2.9706 C   0  0  0  1  0  0  0  0  0  0  0  0
   -5.0626    1.8485   -1.6844 C   0  0  0  1  0  0  0  0  0  0  0  0
   -3.8010    1.9875   -1.1376 C   0  0  0  1  0  0  0  0  0  0  0  0
   -6.6066    2.1630   -3.5283 N   0  0  0  1  0  0  0  0  0  0  0  0
   -0.9205    3.5534   -1.6189 H   0  0  0  1  0  0  0  0  0  0  0  0
   -1.5459    2.8034   -0.1696 H   0  0  0  1  0  0  0  0  0  0  0  0
   -2.2756    3.4676   -3.7128 H   0  0  0  1  0  0  0  0  0  0  0  0
   -4.4893    3.2201   -4.6745 H   0  0  0  1  0  0  0  0  0  0  0  0
   -5.8233    1.4050   -1.1310 H   0  0  0  1  0  0  0  0  0  0  0  0
   -3.6134    1.6522   -0.1711 H   0  0  0  1  0  0  0  0  0  0  0  0
   -6.8194    2.5920   -4.3833 H   0  0  0  1  0  0  0  0  0  0  0  0
   -7.2893    1.6388   -3.0598 H   0  0  0  1  0  0  0  0  0  0  0  0
  1  4  1  0  0  0  0
  2  4  1  0  0  0  0
  2  5  2  0  0  0  0
  2  6  1  0  0  0  0
  3  4  1  0  0  0  0
  3  7  1  0  0  0  0
  3  8  1  0  0  0  0
  4 19  1  0  0  0  0
  6  9  1  0  0  0  0
  6 12  1  0  0  0  0
  8 10  1  0  0  0  0
  8 11  2  0  0  0  0
  9 13  1  0  0  0  0
  9 14  1  0  0  0  0
  9 15  1  0  0  0  0
 10 16  1  0  0  0  0
 10 17  1  0  0  0  0
 10 18  1  0  0  0  0
 19 20  1  0  0  0  0
 19 27  1  0  0  0  0
 19 28  1  0  0  0  0
 20 21  4  0  0  0  0
 20 25  4  0  0  0  0
 21 22  4  0  0  0  0
 21 29  1  0  0  0  0
 22 23  4  0  0  0  0
 22 30  1  0  0  0  0
 23 24  4  0  0  0  0
 23 26  1  0  0  0  0
 24 25  4  0  0  0  0
 24 31  1  0  0  0  0
 25 32  1  0  0  0  0
 26 33  1  0  0  0  0
 26 34  1  0  0  0  0
M  END
> <BCLConfClusterSize>
1

> <ConfClashScore>
0 

> <ConfOneFourInteractionScore>
-0.965014 

> <ConfScore>
0.267599 

> <ConfScorePBest>
0.00390349 

> <ConfTolerance>
0.624795 

> <RosettaParamsInstructions>
M  ROOT 3
M  POLY_N_BB 3
M  POLY_CA_BB 4
M  POLY_C_BB 2
M  POLY_O_BB 5
M  POLY_IGNORE 9 10 11 12 13 14 15 16 17 18 
M  POLY_UPPER 6
M  POLY_LOWER 8
M  POLY_CHG 0
M  POLY_PROPERTIES ALPHA_AA D_AA PROTEIN AROMATIC POLYMER 
M  END

$$$$



 34 34  0  0  0  0  0  0  0  0999 V2000
   -0.4723    3.6494   -2.9804 H   0  0  0  1  0  0  0  0  0  0  0  0
   -0.3857    1.5383   -3.2266 C   0  0  0  1  0  0  0  0  0  0  0  0
    0.9926    2.8800   -1.7194 N   0  0  0  1  0  0  0  0  0  0  0  0
   -0.3086    2.7897   -2.3648 C   0  0  0  1  0  0  0  0  0  0  0  0
   -1.1004    1.5077   -4.2138 O   0  0  0  1  0  0  0  0  0  0  0  0
    0.4443    0.5508   -2.8576 N   0  0  0  1  0  0  0  0  0  0  0  0
    1.0316    3.0585   -0.7566 H   0  0  0  1  0  0  0  0  0  0  0  0
    2.1471    2.7264   -2.4004 C   0  0  0  1  0  0  0  0  0  0  0  0
    0.4829   -0.7737   -3.4593 C   0  0  0  1  0  0  0  0  0  0  0  0
    3.4454    3.0402   -1.6826 C   0  0  0  1  0  0  0  0  0  0  0  0
    2.1492    2.3434   -3.5693 O   0  0  0  1  0  0  0  0  0  0  0  0
    1.0720    0.7354   -2.1279 H   0  0  0  1  0  0  0  0  0  0  0  0
   -0.4878   -1.0245   -3.8332 H   0  0  0  1  0  0  0  0  0  0  0  0
    0.7775   -1.4915   -2.7225 H   0  0  0  1  0  0  0  0  0  0  0  0
    1.1873   -0.7789   -4.2647 H   0  0  0  1  0  0  0  0  0  0  0  0
    3.9051    3.8949   -2.1332 H   0  0  0  1  0  0  0  0  0  0  0  0
    4.1048    2.2007   -1.7555 H   0  0  0  1  0  0  0  0  0  0  0  0
    3.2422    3.2463   -0.6525 H   0  0  0  1  0  0  0  0  0  0  0  0
   -1.4045    2.7261   -1.2969 C   0  0  0  1  0  0  0  0  0  0  0  0
   -2.7851    2.5736   -1.8771 C   0  0  0  1  0  0  0  0  0  0  0  0
   -3.0479    3.0114   -3.1615 C   0  0  0  1  0  0  0  0  0  0  0  0
   -4.3181    2.8658   -3.6972 C   0  0  0  1  0  0  0  0  0  0  0  0
   -5.3231    2.2876   -2.9449 C   0  0  0  1  0  0  0  0  0  0  0  0
   -5.0597    1.8485   -1.6568 C   0  0  0  1  0  0  0  0  0  0  0  0
   -3.7932    1.9937   -1.1228 C   0  0  0  1  0  0  0  0  0  0  0  0
   -6.6012    2.1691   -3.5392 N   0  0  0  1  0  0  0  0  0  0  0  0
   -1.3740    3.6289   -0.7234 H   0  0  0  1  0  0  0  0  0  0  0  0
   -1.2094    1.8903   -0.6580 H   0  0  0  1  0  0  0  0  0  0  0  0
   -2.2927    3.4500   -3.7260 H   0  0  0  1  0  0  0  0  0  0  0  0
   -4.5148    3.1915   -4.6651 H   0  0  0  1  0  0  0  0  0  0  0  0
   -5.8150    1.4098   -1.0922 H   0  0  0  1  0  0  0  0  0  0  0  0
   -3.5966    1.6680   -0.1549 H   0  0  0  1  0  0  0  0  0  0  0  0
   -7.3752    1.9212   -2.9915 H   0  0  0  1  0  0  0  0  0  0  0  0
   -6.7128    2.3349   -4.4986 H   0  0  0  1  0  0  0  0  0  0  0  0
  1  4  1  0  0  0  0
  2  4  1  0  0  0  0
  2  5  2  0  0  0  0
  2  6  1  0  0  0  0
  3  4  1  0  0  0  0
  3  7  1  0  0  0  0
  3  8  1  0  0  0  0
  4 19  1  0  0  0  0
  6  9  1  0  0  0  0
  6 12  1  0  0  0  0
  8 10  1  0  0  0  0
  8 11  2  0  0  0  0
  9 13  1  0  0  0  0
  9 14  1  0  0  0  0
  9 15  1  0  0  0  0
 10 16  1  0  0  0  0
 10 17  1  0  0  0  0
 10 18  1  0  0  0  0
 19 20  1  0  0  0  0
 19 27  1  0  0  0  0
 19 28  1  0  0  0  0
 20 21  4  0  0  0  0
 20 25  4  0  0  0  0
 21 22  4  0  0  0  0
 21 29  1  0  0  0  0
 22 23  4  0  0  0  0
 22 30  1  0  0  0  0
 23 24  4  0  0  0  0
 23 26  1  0  0  0  0
 24 25  4  0  0  0  0
 24 31  1  0  0  0  0
 25 32  1  0  0  0  0
 26 33  1  0  0  0  0
 26 34  1  0  0  0  0
M  END
> <BCLConfClusterSize>
1

> <ConfClashScore>
0 

> <ConfOneFourInteractionScore>
-0.952877 

> <ConfScore>
0.268979 

> <ConfScorePBest>
0.00387501 

> <ConfTolerance>
0.513331 

> <RosettaParamsInstructions>
M  ROOT 3
M  POLY_N_BB 3
M  POLY_CA_BB 4
M  POLY_C_BB 2
M  POLY_O_BB 5
M  POLY_IGNORE 9 10 11 12 13 14 15 16 17 18 
M  POLY_UPPER 6
M  POLY_LOWER 8
M  POLY_CHG 0
M  POLY_PROPERTIES ALPHA_AA D_AA PROTEIN AROMATIC POLYMER 
M  END

$$$$



 34 34  0  0  0  0  0  0  0  0999 V2000
   -0.0494    4.2014   -0.5820 H   0  0  0  1  0  0  0  0  0  0  0  0
   -1.8842    5.2166   -0.7590 C   0  0  0  1  0  0  0  0  0  0  0  0
   -0.4154    4.5512   -2.5878 N   0  0  0  1  0  0  0  0  0  0  0  0
   -0.8875    4.1785   -1.2468 C   0  0  0  1  0  0  0  0  0  0  0  0
   -2.2130    5.2763    0.4143 O   0  0  0  1  0  0  0  0  0  0  0  0
   -2.3683    6.0493   -1.6990 N   0  0  0  1  0  0  0  0  0  0  0  0
   -0.5173    3.9389   -3.3462 H   0  0  0  1  0  0  0  0  0  0  0  0
    0.1625    5.7602   -2.7451 C   0  0  0  1  0  0  0  0  0  0  0  0
   -3.3067    7.0811   -1.2834 C   0  0  0  1  0  0  0  0  0  0  0  0
    0.7580    6.0932   -4.0943 C   0  0  0  1  0  0  0  0  0  0  0  0
    0.2048    6.5696   -1.8195 O   0  0  0  1  0  0  0  0  0  0  0  0
   -2.0965    5.9634   -2.6367 H   0  0  0  1  0  0  0  0  0  0  0  0
   -4.1282    6.6298   -0.7673 H   0  0  0  1  0  0  0  0  0  0  0  0
   -3.6696    7.6010   -2.1454 H   0  0  0  1  0  0  0  0  0  0  0  0
   -2.8123    7.7711   -0.6320 H   0  0  0  1  0  0  0  0  0  0  0  0
    1.4025    6.9422   -4.0005 H   0  0  0  1  0  0  0  0  0  0  0  0
   -0.0277    6.3168   -4.7853 H   0  0  0  1  0  0  0  0  0  0  0  0
    1.3208    5.2563   -4.4519 H   0  0  0  1  0  0  0  0  0  0  0  0
   -1.4244    2.7532   -1.2539 C   0  0  0  1  0  0  0  0  0  0  0  0
   -2.7903    2.5812   -1.8628 C   0  0  0  1  0  0  0  0  0  0  0  0
   -3.0327    3.0165   -3.1520 C   0  0  0  1  0  0  0  0  0  0  0  0
   -4.2893    2.8530   -3.7141 C   0  0  0  1  0  0  0  0  0  0  0  0
   -5.3011    2.2594   -2.9832 C   0  0  0  1  0  0  0  0  0  0  0  0
   -5.0581    1.8228   -1.6903 C   0  0  0  1  0  0  0  0  0  0  0  0
   -3.8052    1.9859   -1.1300 C   0  0  0  1  0  0  0  0  0  0  0  0
   -6.6164    2.1842   -3.5262 N   0  0  0  1  0  0  0  0  0  0  0  0
   -1.4694    2.4124   -0.2406 H   0  0  0  1  0  0  0  0  0  0  0  0
   -0.7382    2.1448   -1.8052 H   0  0  0  1  0  0  0  0  0  0  0  0
   -2.2724    3.4668   -3.7004 H   0  0  0  1  0  0  0  0  0  0  0  0
   -4.4706    3.1769   -4.6855 H   0  0  0  1  0  0  0  0  0  0  0  0
   -5.8184    1.3725   -1.1419 H   0  0  0  1  0  0  0  0  0  0  0  0
   -3.6240    1.6620   -0.1585 H   0  0  0  1  0  0  0  0  0  0  0  0
   -6.8108    2.5892   -4.3972 H   0  0  0  1  0  0  0  0  0  0  0  0
   -7.3265    1.7276   -3.0287 H   0  0  0  1  0  0  0  0  0  0  0  0
  1  4  1  0  0  0  0
  2  4  1  0  0  0  0
  2  5  2  0  0  0  0
  2  6  1  0  0  0  0
  3  4  1  0  0  0  0
  3  7  1  0  0  0  0
  3  8  1  0  0  0  0
  4 19  1  0  0  0  0
  6  9  1  0  0  0  0
  6 12  1  0  0  0  0
  8 10  1  0  0  0  0
  8 11  2  0  0  0  0
  9 13  1  0  0  0  0
  9 14  1  0  0  0  0
  9 15  1  0  0  0  0
 10 16  1  0  0  0  0
 10 17  1  0  0  0  0
 10 18  1  0  0  0  0
 19 20  1  0  0  0  0
 19 27  1  0  0  0  0
 19 28  1  0  0  0  0
 20 21  4  0  0  0  0
 20 25  4  0  0  0  0
 21 22  4  0  0  0  0
 21 29  1  0  0  0  0
 22 23  4  0  0  0  0
 22 30  1  0  0  0  0
 23 24  4  0  0  0  0
 23 26  1  0  0  0  0
 24 25  4  0  0  0  0
 24 31  1  0  0  0  0
 25 32  1  0  0  0  0
 26 33  1  0  0  0  0
 26 34  1  0  0  0  0
M  END
> <BCLConfClusterSize>
1

> <ConfClashScore>
0 

> <ConfOneFourInteractionScore>
-0.957074 

> <ConfScore>
0.271651 

> <ConfScorePBest>
0.00384653 

> <ConfTolerance>
0.309643 

> <RosettaParamsInstructions>
M  ROOT 3
M  POLY_N_BB 3
M  POLY_CA_BB 4
M  POLY_C_BB 2
M  POLY_O_BB 5
M  POLY_IGNORE 9 10 11 12 13 14 15 16 17 18 
M  POLY_UPPER 6
M  POLY_LOWER 8
M  POLY_CHG 0
M  POLY_PROPERTIES ALPHA_AA D_AA PROTEIN AROMATIC POLYMER 
M  END

$$$$



 34 34  0  0  0  0  0  0  0  0999 V2000
   -0.8244    1.2248   -2.6261 H   0  0  0  1  0  0  0  0  0  0  0  0
   -0.3377    0.4981   -0.7189 C   0  0  0  1  0  0  0  0  0  0  0  0
    0.8572    2.2297   -1.9964 N   0  0  0  1  0  0  0  0  0  0  0  0
   -0.4391    1.6315   -1.7145 C   0  0  0  1  0  0  0  0  0  0  0  0
    0.6824   -0.1855   -0.6428 O   0  0  0  1  0  0  0  0  0  0  0  0
   -1.3872    0.2624    0.0736 N   0  0  0  1  0  0  0  0  0  0  0  0
    1.0201    2.6082   -2.8856 H   0  0  0  1  0  0  0  0  0  0  0  0
    1.8331    2.2807   -1.0853 C   0  0  0  1  0  0  0  0  0  0  0  0
   -1.3499   -0.7284    1.1388 C   0  0  0  1  0  0  0  0  0  0  0  0
    3.1375    2.8978   -1.5510 C   0  0  0  1  0  0  0  0  0  0  0  0
    1.7014    1.8626    0.0532 O   0  0  0  1  0  0  0  0  0  0  0  0
   -2.2107    0.7745   -0.0674 H   0  0  0  1  0  0  0  0  0  0  0  0
   -0.3347   -0.9044    1.4275 H   0  0  0  1  0  0  0  0  0  0  0  0
   -1.7852   -1.6420    0.7913 H   0  0  0  1  0  0  0  0  0  0  0  0
   -1.9023   -0.3672    1.9810 H   0  0  0  1  0  0  0  0  0  0  0  0
    3.6034    2.2516   -2.2653 H   0  0  0  1  0  0  0  0  0  0  0  0
    3.7886    3.0303   -0.7123 H   0  0  0  1  0  0  0  0  0  0  0  0
    2.9410    3.8471   -2.0040 H   0  0  0  1  0  0  0  0  0  0  0  0
   -1.4261    2.7035   -1.2429 C   0  0  0  1  0  0  0  0  0  0  0  0
   -2.7825    2.5790   -1.8838 C   0  0  0  1  0  0  0  0  0  0  0  0
   -3.0327    3.0026   -3.1754 C   0  0  0  1  0  0  0  0  0  0  0  0
   -4.2999    2.8593   -3.7187 C   0  0  0  1  0  0  0  0  0  0  0  0
   -5.3145    2.2975   -2.9668 C   0  0  0  1  0  0  0  0  0  0  0  0
   -5.0637    1.8727   -1.6714 C   0  0  0  1  0  0  0  0  0  0  0  0
   -3.8002    2.0157   -1.1299 C   0  0  0  1  0  0  0  0  0  0  0  0
   -6.6090    2.1562   -3.5192 N   0  0  0  1  0  0  0  0  0  0  0  0
   -1.0236    3.6657   -1.4817 H   0  0  0  1  0  0  0  0  0  0  0  0
   -1.5412    2.6176   -0.1826 H   0  0  0  1  0  0  0  0  0  0  0  0
   -2.2702    3.4290   -3.7397 H   0  0  0  1  0  0  0  0  0  0  0  0
   -4.4872    3.1744   -4.6920 H   0  0  0  1  0  0  0  0  0  0  0  0
   -5.8262    1.4463   -1.1071 H   0  0  0  1  0  0  0  0  0  0  0  0
   -3.6130    1.7006   -0.1566 H   0  0  0  1  0  0  0  0  0  0  0  0
   -7.3159    1.7141   -3.0042 H   0  0  0  1  0  0  0  0  0  0  0  0
   -6.7989    2.5004   -4.4169 H   0  0  0  1  0  0  0  0  0  0  0  0
  1  4  1  0  0  0  0
  2  4  1  0  0  0  0
  2  5  2  0  0  0  0
  2  6  1  0  0  0  0
  3  4  1  0  0  0  0
  3  7  1  0  0  0  0
  3  8  1  0  0  0  0
  4 19  1  0  0  0  0
  6  9  1  0  0  0  0
  6 12  1  0  0  0  0
  8 10  1  0  0  0  0
  8 11  2  0  0  0  0
  9 13  1  0  0  0  0
  9 14  1  0  0  0  0
  9 15  1  0  0  0  0
 10 16  1  0  0  0  0
 10 17  1  0  0  0  0
 10 18  1  0  0  0  0
 19 20  1  0  0  0  0
 19 27  1  0  0  0  0
 19 28  1  0  0  0  0
 20 21  4  0  0  0  0
 20 25  4  0  0  0  0
 21 22  4  0  0  0  0
 21 29  1  0  0  0  0
 22 23  4  0  0  0  0
 22 30  1  0  0  0  0
 23 24  4  0  0  0  0
 23 26  1  0  0  0  0
 24 25  4  0  0  0  0
 24 31  1  0  0  0  0
 25 32  1  0  0  0  0
 26 33  1  0  0  0  0
 26 34  1  0  0  0  0
M  END
> <BCLConfClusterSize>
1

> <ConfClashScore>
0.000506416 

> <ConfOneFourInteractionScore>
-0.926255 

> <ConfScore>
0.275027 

> <ConfScorePBest>
0.00381805 

> <ConfTolerance>
0.370814 

> <RosettaParamsInstructions>
M  ROOT 3
M  POLY_N_BB 3
M  POLY_CA_BB 4
M  POLY_C_BB 2
M  POLY_O_BB 5
M  POLY_IGNORE 9 10 11 12 13 14 15 16 17 18 
M  POLY_UPPER 6
M  POLY_LOWER 8
M  POLY_CHG 0
M  POLY_PROPERTIES ALPHA_AA D_AA PROTEIN AROMATIC POLYMER 
M  END

$$$$



 34 34  0  0  0  0  0  0  0  0999 V2000
   -0.9841    0.7266   -1.3242 H   0  0  0  1  0  0  0  0  0  0  0  0
    0.6812    1.7182   -0.4943 C   0  0  0  1  0  0  0  0  0  0  0  0
   -0.0355    1.6532   -2.9055 N   0  0  0  1  0  0  0  0  0  0  0  0
   -0.4505    1.6358   -1.5073 C   0  0  0  1  0  0  0  0  0  0  0  0
    1.0346    2.7881   -0.0250 O   0  0  0  1  0  0  0  0  0  0  0  0
    1.2490    0.5552   -0.1624 N   0  0  0  1  0  0  0  0  0  0  0  0
   -0.6520    1.2734   -3.5659 H   0  0  0  1  0  0  0  0  0  0  0  0
    1.1332    2.1527   -3.3582 C   0  0  0  1  0  0  0  0  0  0  0  0
    2.3893    0.3480    0.7177 C   0  0  0  1  0  0  0  0  0  0  0  0
    1.3719    2.1626   -4.8556 C   0  0  0  1  0  0  0  0  0  0  0  0
    1.9803    2.5873   -2.5824 O   0  0  0  1  0  0  0  0  0  0  0  0
    0.8525   -0.2497   -0.5565 H   0  0  0  1  0  0  0  0  0  0  0  0
    2.9894    1.2336    0.7393 H   0  0  0  1  0  0  0  0  0  0  0  0
    2.9751   -0.4708    0.3552 H   0  0  0  1  0  0  0  0  0  0  0  0
    2.0418    0.1287    1.7056 H   0  0  0  1  0  0  0  0  0  0  0  0
    0.6151    2.7486   -5.3340 H   0  0  0  1  0  0  0  0  0  0  0  0
    1.3359    1.1605   -5.2288 H   0  0  0  1  0  0  0  0  0  0  0  0
    2.3331    2.5858   -5.0605 H   0  0  0  1  0  0  0  0  0  0  0  0
   -1.4177    2.7872   -1.2654 C   0  0  0  1  0  0  0  0  0  0  0  0
   -2.7816    2.5555   -1.8812 C   0  0  0  1  0  0  0  0  0  0  0  0
   -3.0299    2.9901   -3.1696 C   0  0  0  1  0  0  0  0  0  0  0  0
   -4.2982    2.8580   -3.7134 C   0  0  0  1  0  0  0  0  0  0  0  0
   -5.3156    2.2965   -2.9653 C   0  0  0  1  0  0  0  0  0  0  0  0
   -5.0668    1.8606   -1.6732 C   0  0  0  1  0  0  0  0  0  0  0  0
   -3.8023    1.9924   -1.1311 C   0  0  0  1  0  0  0  0  0  0  0  0
   -6.6111    2.1666   -3.5183 N   0  0  0  1  0  0  0  0  0  0  0  0
   -1.0001    3.6772   -1.6878 H   0  0  0  1  0  0  0  0  0  0  0  0
   -1.5379    2.9151   -0.2099 H   0  0  0  1  0  0  0  0  0  0  0  0
   -2.2652    3.4163   -3.7310 H   0  0  0  1  0  0  0  0  0  0  0  0
   -4.4840    3.1814   -4.6843 H   0  0  0  1  0  0  0  0  0  0  0  0
   -5.8315    1.4344   -1.1118 H   0  0  0  1  0  0  0  0  0  0  0  0
   -3.6165    1.6690   -0.1603 H   0  0  0  1  0  0  0  0  0  0  0  0
   -7.3361    1.7818   -2.9828 H   0  0  0  1  0  0  0  0  0  0  0  0
   -6.7836    2.4614   -4.4368 H   0  0  0  1  0  0  0  0  0  0  0  0
  1  4  1  0  0  0  0
  2  4  1  0  0  0  0
  2  5  2  0  0  0  0
  2  6  1  0  0  0  0
  3  4  1  0  0  0  0
  3  7  1  0  0  0  0
  3  8  1  0  0  0  0
  4 19  1  0  0  0  0
  6  9  1  0  0  0  0
  6 12  1  0  0  0  0
  8 10  1  0  0  0  0
  8 11  2  0  0  0  0
  9 13  1  0  0  0  0
  9 14  1  0  0  0  0
  9 15  1  0  0  0  0
 10 16  1  0  0  0  0
 10 17  1  0  0  0  0
 10 18  1  0  0  0  0
 19 20  1  0  0  0  0
 19 27  1  0  0  0  0
 19 28  1  0  0  0  0
 20 21  4  0  0  0  0
 20 25  4  0  0  0  0
 21 22  4  0  0  0  0
 21 29  1  0  0  0  0
 22 23  4  0  0  0  0
 22 30  1  0  0  0  0
 23 24  4  0  0  0  0
 23 26  1  0  0  0  0
 24 25  4  0  0  0  0
 24 31  1  0  0  0  0
 25 32  1  0  0  0  0
 26 33  1  0  0  0  0
 26 34  1  0  0  0  0
M  END
> <BCLConfClusterSize>
1

> <ConfClashScore>
0 

> <ConfOneFourInteractionScore>
-0.972663 

> <ConfScore>
0.275888 

> <ConfScorePBest>
0.00378957 

> <ConfTolerance>
0.560207 

> <RosettaParamsInstructions>
M  ROOT 3
M  POLY_N_BB 3
M  POLY_CA_BB 4
M  POLY_C_BB 2
M  POLY_O_BB 5
M  POLY_IGNORE 9 10 11 12 13 14 15 16 17 18 
M  POLY_UPPER 6
M  POLY_LOWER 8
M  POLY_CHG 0
M  POLY_PROPERTIES ALPHA_AA D_AA PROTEIN AROMATIC POLYMER 
M  END

$$$$



 34 34  0  0  0  0  0  0  0  0999 V2000
   -0.5603    1.3106   -2.5694 H   0  0  0  1  0  0  0  0  0  0  0  0
   -1.1421    0.1901   -0.9013 C   0  0  0  1  0  0  0  0  0  0  0  0
    0.8177    1.6697   -1.0775 N   0  0  0  1  0  0  0  0  0  0  0  0
   -0.5769    1.4587   -1.5099 C   0  0  0  1  0  0  0  0  0  0  0  0
   -2.0675    0.2267   -0.1063 O   0  0  0  1  0  0  0  0  0  0  0  0
   -0.5605   -0.9544   -1.2939 N   0  0  0  1  0  0  0  0  0  0  0  0
    1.4798    1.9025   -1.7614 H   0  0  0  1  0  0  0  0  0  0  0  0
    1.2347    1.5637    0.1845 C   0  0  0  1  0  0  0  0  0  0  0  0
   -0.9391   -2.2820   -0.8334 C   0  0  0  1  0  0  0  0  0  0  0  0
    2.7213    1.7638    0.4061 C   0  0  0  1  0  0  0  0  0  0  0  0
    0.4765    1.3197    1.1222 O   0  0  0  1  0  0  0  0  0  0  0  0
    0.1743   -0.8911   -1.9392 H   0  0  0  1  0  0  0  0  0  0  0  0
   -0.1212   -2.9567   -0.9774 H   0  0  0  1  0  0  0  0  0  0  0  0
   -1.7860   -2.6244   -1.3905 H   0  0  0  1  0  0  0  0  0  0  0  0
   -1.1884   -2.2409    0.2064 H   0  0  0  1  0  0  0  0  0  0  0  0
    3.2602    1.4138   -0.4495 H   0  0  0  1  0  0  0  0  0  0  0  0
    3.0298    1.2145    1.2709 H   0  0  0  1  0  0  0  0  0  0  0  0
    2.9228    2.8043    0.5532 H   0  0  0  1  0  0  0  0  0  0  0  0
   -1.4086    2.7095   -1.2577 C   0  0  0  1  0  0  0  0  0  0  0  0
   -2.7887    2.5698   -1.8699 C   0  0  0  1  0  0  0  0  0  0  0  0
   -3.0250    3.0236   -3.1538 C   0  0  0  1  0  0  0  0  0  0  0  0
   -4.2856    2.8908   -3.7150 C   0  0  0  1  0  0  0  0  0  0  0  0
   -5.3075    2.3093   -2.9884 C   0  0  0  1  0  0  0  0  0  0  0  0
   -5.0706    1.8542   -1.7006 C   0  0  0  1  0  0  0  0  0  0  0  0
   -3.8137    1.9867   -1.1414 C   0  0  0  1  0  0  0  0  0  0  0  0
   -6.6135    2.1534   -3.5088 N   0  0  0  1  0  0  0  0  0  0  0  0
   -0.9151    3.5528   -1.6938 H   0  0  0  1  0  0  0  0  0  0  0  0
   -1.5063    2.8590   -0.2027 H   0  0  0  1  0  0  0  0  0  0  0  0
   -2.2571    3.4647   -3.6990 H   0  0  0  1  0  0  0  0  0  0  0  0
   -4.4624    3.2286   -4.6825 H   0  0  0  1  0  0  0  0  0  0  0  0
   -5.8386    1.4131   -1.1555 H   0  0  0  1  0  0  0  0  0  0  0  0
   -3.6370    1.6489   -0.1738 H   0  0  0  1  0  0  0  0  0  0  0  0
   -6.8504    2.5607   -4.3681 H   0  0  0  1  0  0  0  0  0  0  0  0
   -7.2814    1.6379   -3.0102 H   0  0  0  1  0  0  0  0  0  0  0  0
  1  4  1  0  0  0  0
  2  4  1  0  0  0  0
  2  5  2  0  0  0  0
  2  6  1  0  0  0  0
  3  4  1  0  0  0  0
  3  7  1  0  0  0  0
  3  8  1  0  0  0  0
  4 19  1  0  0  0  0
  6  9  1  0  0  0  0
  6 12  1  0  0  0  0
  8 10  1  0  0  0  0
  8 11  2  0  0  0  0
  9 13  1  0  0  0  0
  9 14  1  0  0  0  0
  9 15  1  0  0  0  0
 10 16  1  0  0  0  0
 10 17  1  0  0  0  0
 10 18  1  0  0  0  0
 19 20  1  0  0  0  0
 19 27  1  0  0  0  0
 19 28  1  0  0  0  0
 20 21  4  0  0  0  0
 20 25  4  0  0  0  0
 21 22  4  0  0  0  0
 21 29  1  0  0  0  0
 22 23  4  0  0  0  0
 22 30  1  0  0  0  0
 23 24  4  0  0  0  0
 23 26  1  0  0  0  0
 24 25  4  0  0  0  0
 24 31  1  0  0  0  0
 25 32  1  0  0  0  0
 26 33  1  0  0  0  0
 26 34  1  0  0  0  0
M  END
> <BCLConfClusterSize>
1

> <ConfClashScore>
0 

> <ConfOneFourInteractionScore>
-0.976539 

> <ConfScore>
0.27597 

> <ConfScorePBest>
0.00376109 

> <ConfTolerance>
0.455992 

> <RosettaParamsInstructions>
M  ROOT 3
M  POLY_N_BB 3
M  POLY_CA_BB 4
M  POLY_C_BB 2
M  POLY_O_BB 5
M  POLY_IGNORE 9 10 11 12 13 14 15 16 17 18 
M  POLY_UPPER 6
M  POLY_LOWER 8
M  POLY_CHG 0
M  POLY_PROPERTIES ALPHA_AA D_AA PROTEIN AROMATIC POLYMER 
M  END

$$$$



 34 34  0  0  0  0  0  0  0  0999 V2000
   -0.0291    4.2565   -0.8411 H   0  0  0  1  0  0  0  0  0  0  0  0
   -1.4475    4.2233    0.7198 C   0  0  0  1  0  0  0  0  0  0  0  0
   -1.7724    5.1437   -1.5059 N   0  0  0  1  0  0  0  0  0  0  0  0
   -1.0848    4.1089   -0.7480 C   0  0  0  1  0  0  0  0  0  0  0  0
   -1.9401    5.2561    1.1785 O   0  0  0  1  0  0  0  0  0  0  0  0
   -1.1972    3.1377    1.4687 N   0  0  0  1  0  0  0  0  0  0  0  0
   -1.3182    5.5475   -2.2748 H   0  0  0  1  0  0  0  0  0  0  0  0
   -3.0012    5.5623   -1.1901 C   0  0  0  1  0  0  0  0  0  0  0  0
   -1.6082    3.1020    2.8643 C   0  0  0  1  0  0  0  0  0  0  0  0
   -3.5099    6.7537   -1.9697 C   0  0  0  1  0  0  0  0  0  0  0  0
   -3.6896    5.0253   -0.3233 O   0  0  0  1  0  0  0  0  0  0  0  0
   -0.7367    2.3675    1.0747 H   0  0  0  1  0  0  0  0  0  0  0  0
   -2.1008    4.0182    3.1150 H   0  0  0  1  0  0  0  0  0  0  0  0
   -0.7465    2.9788    3.4866 H   0  0  0  1  0  0  0  0  0  0  0  0
   -2.2794    2.2829    3.0174 H   0  0  0  1  0  0  0  0  0  0  0  0
   -2.7258    7.1364   -2.5891 H   0  0  0  1  0  0  0  0  0  0  0  0
   -3.8300    7.5147   -1.2890 H   0  0  0  1  0  0  0  0  0  0  0  0
   -4.3338    6.4531   -2.5826 H   0  0  0  1  0  0  0  0  0  0  0  0
   -1.4108    2.7272   -1.2910 C   0  0  0  1  0  0  0  0  0  0  0  0
   -2.7942    2.5686   -1.8630 C   0  0  0  1  0  0  0  0  0  0  0  0
   -3.0114    3.0039   -3.1566 C   0  0  0  1  0  0  0  0  0  0  0  0
   -4.2668    2.8747   -3.7300 C   0  0  0  1  0  0  0  0  0  0  0  0
   -5.3027    2.3154   -3.0059 C   0  0  0  1  0  0  0  0  0  0  0  0
   -5.0851    1.8787   -1.7085 C   0  0  0  1  0  0  0  0  0  0  0  0
   -3.8333    2.0076   -1.1370 C   0  0  0  1  0  0  0  0  0  0  0  0
   -6.6090    2.1434   -3.4880 N   0  0  0  1  0  0  0  0  0  0  0  0
   -1.3015    2.0243   -0.4917 H   0  0  0  1  0  0  0  0  0  0  0  0
   -0.7062    2.5016   -2.0639 H   0  0  0  1  0  0  0  0  0  0  0  0
   -2.2328    3.4285   -3.7000 H   0  0  0  1  0  0  0  0  0  0  0  0
   -4.4292    3.1987   -4.7048 H   0  0  0  1  0  0  0  0  0  0  0  0
   -5.8636    1.4541   -1.1651 H   0  0  0  1  0  0  0  0  0  0  0  0
   -3.6709    1.6837   -0.1622 H   0  0  0  1  0  0  0  0  0  0  0  0
   -6.8053    2.2951   -4.4360 H   0  0  0  1  0  0  0  0  0  0  0  0
   -7.3251    1.8716   -2.8766 H   0  0  0  1  0  0  0  0  0  0  0  0
  1  4  1  0  0  0  0
  2  4  1  0  0  0  0
  2  5  2  0  0  0  0
  2  6  1  0  0  0  0
  3  4  1  0  0  0  0
  3  7  1  0  0  0  0
  3  8  1  0  0  0  0
  4 19  1  0  0  0  0
  6  9  1  0  0  0  0
  6 12  1  0  0  0  0
  8 10  1  0  0  0  0
  8 11  2  0  0  0  0
  9 13  1  0  0  0  0
  9 14  1  0  0  0  0
  9 15  1  0  0  0  0
 10 16  1  0  0  0  0
 10 17  1  0  0  0  0
 10 18  1  0  0  0  0
 19 20  1  0  0  0  0
 19 27  1  0  0  0  0
 19 28  1  0  0  0  0
 20 21  4  0  0  0  0
 20 25  4  0  0  0  0
 21 22  4  0  0  0  0
 21 29  1  0  0  0  0
 22 23  4  0  0  0  0
 22 30  1  0  0  0  0
 23 24  4  0  0  0  0
 23 26  1  0  0  0  0
 24 25  4  0  0  0  0
 24 31  1  0  0  0  0
 25 32  1  0  0  0  0
 26 33  1  0  0  0  0
 26 34  1  0  0  0  0
M  END
> <BCLConfClusterSize>
1

> <ConfClashScore>
0 

> <ConfOneFourInteractionScore>
-0.922305 

> <ConfScore>
0.279438 

> <ConfScorePBest>
0.00373261 

> <ConfTolerance>
0.47227 

> <RosettaParamsInstructions>
M  ROOT 3
M  POLY_N_BB 3
M  POLY_CA_BB 4
M  POLY_C_BB 2
M  POLY_O_BB 5
M  POLY_IGNORE 9 10 11 12 13 14 15 16 17 18 
M  POLY_UPPER 6
M  POLY_LOWER 8
M  POLY_CHG 0
M  POLY_PROPERTIES ALPHA_AA D_AA PROTEIN AROMATIC POLYMER 
M  END

$$$$



 34 34  0  0  0  0  0  0  0  0999 V2000
   -1.4539    4.6309   -2.1282 H   0  0  0  1  0  0  0  0  0  0  0  0
    0.5331    4.3266   -1.5257 C   0  0  0  1  0  0  0  0  0  0  0  0
   -1.3448    4.8607   -0.0756 N   0  0  0  1  0  0  0  0  0  0  0  0
   -0.9538    4.1608   -1.3074 C   0  0  0  1  0  0  0  0  0  0  0  0
    1.1646    5.2219   -0.9660 O   0  0  0  1  0  0  0  0  0  0  0  0
    1.1053    3.4373   -2.3636 N   0  0  0  1  0  0  0  0  0  0  0  0
   -2.1853    5.3646   -0.0644 H   0  0  0  1  0  0  0  0  0  0  0  0
   -0.5881    4.8336    1.0388 C   0  0  0  1  0  0  0  0  0  0  0  0
    2.5403    3.4718   -2.5958 C   0  0  0  1  0  0  0  0  0  0  0  0
   -1.1602    5.6464    2.1839 C   0  0  0  1  0  0  0  0  0  0  0  0
    0.4697    4.2196    1.1507 O   0  0  0  1  0  0  0  0  0  0  0  0
    0.5526    2.7667   -2.8166 H   0  0  0  1  0  0  0  0  0  0  0  0
    3.0409    3.7632   -1.6961 H   0  0  0  1  0  0  0  0  0  0  0  0
    2.7592    4.1773   -3.3700 H   0  0  0  1  0  0  0  0  0  0  0  0
    2.8768    2.5003   -2.8923 H   0  0  0  1  0  0  0  0  0  0  0  0
   -1.0037    5.1250    3.1051 H   0  0  0  1  0  0  0  0  0  0  0  0
   -2.2092    5.7902    2.0296 H   0  0  0  1  0  0  0  0  0  0  0  0
   -0.6715    6.5974    2.2251 H   0  0  0  1  0  0  0  0  0  0  0  0
   -1.4196    2.7114   -1.2609 C   0  0  0  1  0  0  0  0  0  0  0  0
   -2.7894    2.5713   -1.8693 C   0  0  0  1  0  0  0  0  0  0  0  0
   -3.0217    3.0107   -3.1590 C   0  0  0  1  0  0  0  0  0  0  0  0
   -4.2819    2.8766   -3.7206 C   0  0  0  1  0  0  0  0  0  0  0  0
   -5.3075    2.3082   -2.9888 C   0  0  0  1  0  0  0  0  0  0  0  0
   -5.0746    1.8675   -1.6954 C   0  0  0  1  0  0  0  0  0  0  0  0
   -3.8181    2.0013   -1.1356 C   0  0  0  1  0  0  0  0  0  0  0  0
   -6.6087    2.1521   -3.5078 N   0  0  0  1  0  0  0  0  0  0  0  0
   -1.4534    2.3862   -0.2421 H   0  0  0  1  0  0  0  0  0  0  0  0
   -0.7292    2.1033   -1.8073 H   0  0  0  1  0  0  0  0  0  0  0  0
   -2.2510    3.4421   -3.7081 H   0  0  0  1  0  0  0  0  0  0  0  0
   -4.4557    3.2036   -4.6925 H   0  0  0  1  0  0  0  0  0  0  0  0
   -5.8454    1.4362   -1.1463 H   0  0  0  1  0  0  0  0  0  0  0  0
   -3.6444    1.6743   -0.1638 H   0  0  0  1  0  0  0  0  0  0  0  0
   -6.7997    2.4038   -4.4355 H   0  0  0  1  0  0  0  0  0  0  0  0
   -7.3224    1.7919   -2.9410 H   0  0  0  1  0  0  0  0  0  0  0  0
  1  4  1  0  0  0  0
  2  4  1  0  0  0  0
  2  5  2  0  0  0  0
  2  6  1  0  0  0  0
  3  4  1  0  0  0  0
  3  7  1  0  0  0  0
  3  8  1  0  0  0  0
  4 19  1  0  0  0  0
  6  9  1  0  0  0  0
  6 12  1  0  0  0  0
  8 10  1  0  0  0  0
  8 11  2  0  0  0  0
  9 13  1  0  0  0  0
  9 14  1  0  0  0  0
  9 15  1  0  0  0  0
 10 16  1  0  0  0  0
 10 17  1  0  0  0  0
 10 18  1  0  0  0  0
 19 20  1  0  0  0  0
 19 27  1  0  0  0  0
 19 28  1  0  0  0  0
 20 21  4  0  0  0  0
 20 25  4  0  0  0  0
 21 22  4  0  0  0  0
 21 29  1  0  0  0  0
 22 23  4  0  0  0  0
 22 30  1  0  0  0  0
 23 24  4  0  0  0  0
 23 26  1  0  0  0  0
 24 25  4  0  0  0  0
 24 31  1  0  0  0  0
 25 32  1  0  0  0  0
 26 33  1  0  0  0  0
 26 34  1  0  0  0  0
M  END
> <BCLConfClusterSize>
1

> <ConfClashScore>
0 

> <ConfOneFourInteractionScore>
-0.953206 

> <ConfScore>
0.2817 

> <ConfScorePBest>
0.00370413 

> <ConfTolerance>
0.690465 

> <RosettaParamsInstructions>
M  ROOT 3
M  POLY_N_BB 3
M  POLY_CA_BB 4
M  POLY_C_BB 2
M  POLY_O_BB 5
M  POLY_IGNORE 9 10 11 12 13 14 15 16 17 18 
M  POLY_UPPER 6
M  POLY_LOWER 8
M  POLY_CHG 0
M  POLY_PROPERTIES ALPHA_AA D_AA PROTEIN AROMATIC POLYMER 
M  END

$$$$



 34 34  0  0  0  0  0  0  0  0999 V2000
   -0.3997    4.0984    0.0179 H   0  0  0  1  0  0  0  0  0  0  0  0
   -2.1499    3.5462    1.0279 C   0  0  0  1  0  0  0  0  0  0  0  0
   -1.9326    5.1233   -0.8939 N   0  0  0  1  0  0  0  0  0  0  0  0
   -1.4221    3.9212   -0.2432 C   0  0  0  1  0  0  0  0  0  0  0  0
   -2.6767    4.4007    1.7234 O   0  0  0  1  0  0  0  0  0  0  0  0
   -2.1990    2.2484    1.3676 N   0  0  0  1  0  0  0  0  0  0  0  0
   -2.2927    5.0081   -1.7980 H   0  0  0  1  0  0  0  0  0  0  0  0
   -1.9650    6.3709   -0.3940 C   0  0  0  1  0  0  0  0  0  0  0  0
   -2.6885    1.8546    2.6803 C   0  0  0  1  0  0  0  0  0  0  0  0
   -1.4403    6.5573    1.0459 C   0  0  0  1  0  0  0  0  0  0  0  0
   -2.3132    7.3505   -1.0510 O   0  0  0  1  0  0  0  0  0  0  0  0
   -1.9045    1.5646    0.7303 H   0  0  0  1  0  0  0  0  0  0  0  0
   -2.5132    0.8095    2.8282 H   0  0  0  1  0  0  0  0  0  0  0  0
   -3.7382    2.0523    2.7433 H   0  0  0  1  0  0  0  0  0  0  0  0
   -2.1741    2.4126    3.4346 H   0  0  0  1  0  0  0  0  0  0  0  0
   -0.6911    5.8215    1.2511 H   0  0  0  1  0  0  0  0  0  0  0  0
   -2.2491    6.4449    1.7373 H   0  0  0  1  0  0  0  0  0  0  0  0
   -1.0170    7.5348    1.1472 H   0  0  0  1  0  0  0  0  0  0  0  0
   -1.4313    2.7819   -1.2539 C   0  0  0  1  0  0  0  0  0  0  0  0
   -2.7845    2.5533   -1.8725 C   0  0  0  1  0  0  0  0  0  0  0  0
   -3.0247    2.9844   -3.1635 C   0  0  0  1  0  0  0  0  0  0  0  0
   -4.2903    2.8540   -3.7137 C   0  0  0  1  0  0  0  0  0  0  0  0
   -5.3134    2.2977   -2.9692 C   0  0  0  1  0  0  0  0  0  0  0  0
   -5.0726    1.8653   -1.6744 C   0  0  0  1  0  0  0  0  0  0  0  0
   -3.8107    1.9954   -1.1260 C   0  0  0  1  0  0  0  0  0  0  0  0
   -6.6062    2.1696   -3.5286 N   0  0  0  1  0  0  0  0  0  0  0  0
   -1.1276    1.8839   -0.7576 H   0  0  0  1  0  0  0  0  0  0  0  0
   -0.7351    3.0122   -2.0331 H   0  0  0  1  0  0  0  0  0  0  0  0
   -2.2558    3.4066   -3.7223 H   0  0  0  1  0  0  0  0  0  0  0  0
   -4.4701    3.1747   -4.6866 H   0  0  0  1  0  0  0  0  0  0  0  0
   -5.8415    1.4431   -1.1157 H   0  0  0  1  0  0  0  0  0  0  0  0
   -3.6310    1.6747   -0.1532 H   0  0  0  1  0  0  0  0  0  0  0  0
   -6.7420    2.3180   -4.4878 H   0  0  0  1  0  0  0  0  0  0  0  0
   -7.3661    1.9326   -2.9571 H   0  0  0  1  0  0  0  0  0  0  0  0
  1  4  1  0  0  0  0
  2  4  1  0  0  0  0
  2  5  2  0  0  0  0
  2  6  1  0  0  0  0
  3  4  1  0  0  0  0
  3  7  1  0  0  0  0
  3  8  1  0  0  0  0
  4 19  1  0  0  0  0
  6  9  1  0  0  0  0
  6 12  1  0  0  0  0
  8 10  1  0  0  0  0
  8 11  2  0  0  0  0
  9 13  1  0  0  0  0
  9 14  1  0  0  0  0
  9 15  1  0  0  0  0
 10 16  1  0  0  0  0
 10 17  1  0  0  0  0
 10 18  1  0  0  0  0
 19 20  1  0  0  0  0
 19 27  1  0  0  0  0
 19 28  1  0  0  0  0
 20 21  4  0  0  0  0
 20 25  4  0  0  0  0
 21 22  4  0  0  0  0
 21 29  1  0  0  0  0
 22 23  4  0  0  0  0
 22 30  1  0  0  0  0
 23 24  4  0  0  0  0
 23 26  1  0  0  0  0
 24 25  4  0  0  0  0
 24 31  1  0  0  0  0
 25 32  1  0  0  0  0
 26 33  1  0  0  0  0
 26 34  1  0  0  0  0
M  END
> <BCLConfClusterSize>
1

> <ConfClashScore>
0 

> <ConfOneFourInteractionScore>
-0.949142 

> <ConfScore>
0.283992 

> <ConfScorePBest>
0.00367564 

> <ConfTolerance>
0.876785 

> <RosettaParamsInstructions>
M  ROOT 3
M  POLY_N_BB 3
M  POLY_CA_BB 4
M  POLY_C_BB 2
M  POLY_O_BB 5
M  POLY_IGNORE 9 10 11 12 13 14 15 16 17 18 
M  POLY_UPPER 6
M  POLY_LOWER 8
M  POLY_CHG 0
M  POLY_PROPERTIES ALPHA_AA D_AA PROTEIN AROMATIC POLYMER 
M  END

$$$$



 34 34  0  0  0  0  0  0  0  0999 V2000
   -0.2216    4.2083   -0.3319 H   0  0  0  1  0  0  0  0  0  0  0  0
   -2.1913    4.3597    0.4137 C   0  0  0  1  0  0  0  0  0  0  0  0
   -1.3768    5.1418   -1.7711 N   0  0  0  1  0  0  0  0  0  0  0  0
   -1.2144    4.1427   -0.7255 C   0  0  0  1  0  0  0  0  0  0  0  0
   -3.3965    4.3863    0.2186 O   0  0  0  1  0  0  0  0  0  0  0  0
   -1.6439    4.5174    1.6293 N   0  0  0  1  0  0  0  0  0  0  0  0
   -1.2124    4.8832   -2.7020 H   0  0  0  1  0  0  0  0  0  0  0  0
   -1.7421    6.3993   -1.5061 C   0  0  0  1  0  0  0  0  0  0  0  0
   -2.4460    4.7796    2.8149 C   0  0  0  1  0  0  0  0  0  0  0  0
   -1.9977    7.2767   -2.7106 C   0  0  0  1  0  0  0  0  0  0  0  0
   -1.8676    6.8334   -0.3618 O   0  0  0  1  0  0  0  0  0  0  0  0
   -0.6703    4.4539    1.7214 H   0  0  0  1  0  0  0  0  0  0  0  0
   -2.6509    3.8580    3.3185 H   0  0  0  1  0  0  0  0  0  0  0  0
   -3.3675    5.2409    2.5270 H   0  0  0  1  0  0  0  0  0  0  0  0
   -1.9094    5.4326    3.4710 H   0  0  0  1  0  0  0  0  0  0  0  0
   -2.4367    8.1995   -2.3935 H   0  0  0  1  0  0  0  0  0  0  0  0
   -2.6651    6.7763   -3.3808 H   0  0  0  1  0  0  0  0  0  0  0  0
   -1.0724    7.4751   -3.2098 H   0  0  0  1  0  0  0  0  0  0  0  0
   -1.3966    2.7426   -1.3209 C   0  0  0  1  0  0  0  0  0  0  0  0
   -2.7888    2.5720   -1.8673 C   0  0  0  1  0  0  0  0  0  0  0  0
   -3.0297    2.9909   -3.1622 C   0  0  0  1  0  0  0  0  0  0  0  0
   -4.2943    2.8502   -3.7124 C   0  0  0  1  0  0  0  0  0  0  0  0
   -5.3155    2.2958   -2.9641 C   0  0  0  1  0  0  0  0  0  0  0  0
   -5.0741    1.8756   -1.6654 C   0  0  0  1  0  0  0  0  0  0  0  0
   -3.8132    2.0160   -1.1170 C   0  0  0  1  0  0  0  0  0  0  0  0
   -6.6072    2.1572   -3.5236 N   0  0  0  1  0  0  0  0  0  0  0  0
   -1.2272    2.0120   -0.5577 H   0  0  0  1  0  0  0  0  0  0  0  0
   -0.6897    2.6031   -2.1120 H   0  0  0  1  0  0  0  0  0  0  0  0
   -2.2622    3.4117   -3.7238 H   0  0  0  1  0  0  0  0  0  0  0  0
   -4.4745    3.1617   -4.6881 H   0  0  0  1  0  0  0  0  0  0  0  0
   -5.8416    1.4548   -1.1038 H   0  0  0  1  0  0  0  0  0  0  0  0
   -3.6330    1.7045   -0.1412 H   0  0  0  1  0  0  0  0  0  0  0  0
   -7.2935    1.6420   -3.0503 H   0  0  0  1  0  0  0  0  0  0  0  0
   -6.8159    2.5763   -4.3845 H   0  0  0  1  0  0  0  0  0  0  0  0
  1  4  1  0  0  0  0
  2  4  1  0  0  0  0
  2  5  2  0  0  0  0
  2  6  1  0  0  0  0
  3  4  1  0  0  0  0
  3  7  1  0  0  0  0
  3  8  1  0  0  0  0
  4 19  1  0  0  0  0
  6  9  1  0  0  0  0
  6 12  1  0  0  0  0
  8 10  1  0  0  0  0
  8 11  2  0  0  0  0
  9 13  1  0  0  0  0
  9 14  1  0  0  0  0
  9 15  1  0  0  0  0
 10 16  1  0  0  0  0
 10 17  1  0  0  0  0
 10 18  1  0  0  0  0
 19 20  1  0  0  0  0
 19 27  1  0  0  0  0
 19 28  1  0  0  0  0
 20 21  4  0  0  0  0
 20 25  4  0  0  0  0
 21 22  4  0  0  0  0
 21 29  1  0  0  0  0
 22 23  4  0  0  0  0
 22 30  1  0  0  0  0
 23 24  4  0  0  0  0
 23 26  1  0  0  0  0
 24 25  4  0  0  0  0
 24 31  1  0  0  0  0
 25 32  1  0  0  0  0
 26 33  1  0  0  0  0
 26 34  1  0  0  0  0
M  END
> <BCLConfClusterSize>
1

> <ConfClashScore>
0 

> <ConfOneFourInteractionScore>
-0.969045 

> <ConfScore>
0.285679 

> <ConfScorePBest>
0.00364716 

> <ConfTolerance>
0.512048 

> <RosettaParamsInstructions>
M  ROOT 3
M  POLY_N_BB 3
M  POLY_CA_BB 4
M  POLY_C_BB 2
M  POLY_O_BB 5
M  POLY_IGNORE 9 10 11 12 13 14 15 16 17 18 
M  POLY_UPPER 6
M  POLY_LOWER 8
M  POLY_CHG 0
M  POLY_PROPERTIES ALPHA_AA D_AA PROTEIN AROMATIC POLYMER 
M  END

$$$$



 34 34  0  0  0  0  0  0  0  0999 V2000
    0.5312    1.8758   -1.3569 H   0  0  0  1  0  0  0  0  0  0  0  0
   -0.2372    1.7323   -3.3135 C   0  0  0  1  0  0  0  0  0  0  0  0
   -0.8761    0.3576   -1.3586 N   0  0  0  1  0  0  0  0  0  0  0  0
   -0.4183    1.6758   -1.8078 C   0  0  0  1  0  0  0  0  0  0  0  0
   -0.8874    0.9987   -4.0399 O   0  0  0  1  0  0  0  0  0  0  0  0
    0.7202    2.5470   -3.7844 N   0  0  0  1  0  0  0  0  0  0  0  0
   -0.4377   -0.0576   -0.5867 H   0  0  0  1  0  0  0  0  0  0  0  0
   -1.8703   -0.2975   -1.9649 C   0  0  0  1  0  0  0  0  0  0  0  0
    1.0750    2.5957   -5.1949 C   0  0  0  1  0  0  0  0  0  0  0  0
   -2.0489   -1.7682   -1.5789 C   0  0  0  1  0  0  0  0  0  0  0  0
   -2.6376    0.1713   -2.7894 O   0  0  0  1  0  0  0  0  0  0  0  0
    1.1967    3.1292   -3.1564 H   0  0  0  1  0  0  0  0  0  0  0  0
    0.5043    3.3594   -5.6807 H   0  0  0  1  0  0  0  0  0  0  0  0
    0.8637    1.6499   -5.6485 H   0  0  0  1  0  0  0  0  0  0  0  0
    2.1180    2.8136   -5.2927 H   0  0  0  1  0  0  0  0  0  0  0  0
   -1.0890   -2.2217   -1.4455 H   0  0  0  1  0  0  0  0  0  0  0  0
   -2.5794   -2.2786   -2.3554 H   0  0  0  1  0  0  0  0  0  0  0  0
   -2.6034   -1.8323   -0.6660 H   0  0  0  1  0  0  0  0  0  0  0  0
   -1.4053    2.7291   -1.2959 C   0  0  0  1  0  0  0  0  0  0  0  0
   -2.7856    2.5753   -1.8766 C   0  0  0  1  0  0  0  0  0  0  0  0
   -3.0437    2.9959   -3.1676 C   0  0  0  1  0  0  0  0  0  0  0  0
   -4.3136    2.8491   -3.7036 C   0  0  0  1  0  0  0  0  0  0  0  0
   -5.3230    2.2870   -2.9450 C   0  0  0  1  0  0  0  0  0  0  0  0
   -5.0643    1.8652   -1.6502 C   0  0  0  1  0  0  0  0  0  0  0  0
   -3.7981    2.0116   -1.1159 C   0  0  0  1  0  0  0  0  0  0  0  0
   -6.6006    2.1666   -3.5400 N   0  0  0  1  0  0  0  0  0  0  0  0
   -1.0332    3.6985   -1.5542 H   0  0  0  1  0  0  0  0  0  0  0  0
   -1.4722    2.6442   -0.2314 H   0  0  0  1  0  0  0  0  0  0  0  0
   -2.2851    3.4225   -3.7369 H   0  0  0  1  0  0  0  0  0  0  0  0
   -4.5068    3.1619   -4.6765 H   0  0  0  1  0  0  0  0  0  0  0  0
   -5.8228    1.4386   -1.0809 H   0  0  0  1  0  0  0  0  0  0  0  0
   -3.6049    1.6988   -0.1431 H   0  0  0  1  0  0  0  0  0  0  0  0
   -7.3271    1.7223   -3.0550 H   0  0  0  1  0  0  0  0  0  0  0  0
   -6.7593    2.5274   -4.4373 H   0  0  0  1  0  0  0  0  0  0  0  0
  1  4  1  0  0  0  0
  2  4  1  0  0  0  0
  2  5  2  0  0  0  0
  2  6  1  0  0  0  0
  3  4  1  0  0  0  0
  3  7  1  0  0  0  0
  3  8  1  0  0  0  0
  4 19  1  0  0  0  0
  6  9  1  0  0  0  0
  6 12  1  0  0  0  0
  8 10  1  0  0  0  0
  8 11  2  0  0  0  0
  9 13  1  0  0  0  0
  9 14  1  0  0  0  0
  9 15  1  0  0  0  0
 10 16  1  0  0  0  0
 10 17  1  0  0  0  0
 10 18  1  0  0  0  0
 19 20  1  0  0  0  0
 19 27  1  0  0  0  0
 19 28  1  0  0  0  0
 20 21  4  0  0  0  0
 20 25  4  0  0  0  0
 21 22  4  0  0  0  0
 21 29  1  0  0  0  0
 22 23  4  0  0  0  0
 22 30  1  0  0  0  0
 23 24  4  0  0  0  0
 23 26  1  0  0  0  0
 24 25  4  0  0  0  0
 24 31  1  0  0  0  0
 25 32  1  0  0  0  0
 26 33  1  0  0  0  0
 26 34  1  0  0  0  0
M  END
> <BCLConfClusterSize>
1

> <ConfClashScore>
0 

> <ConfOneFourInteractionScore>
-0.977545 

> <ConfScore>
0.287136 

> <ConfScorePBest>
0.00361868 

> <ConfTolerance>
0.679287 

> <RosettaParamsInstructions>
M  ROOT 3
M  POLY_N_BB 3
M  POLY_CA_BB 4
M  POLY_C_BB 2
M  POLY_O_BB 5
M  POLY_IGNORE 9 10 11 12 13 14 15 16 17 18 
M  POLY_UPPER 6
M  POLY_LOWER 8
M  POLY_CHG 0
M  POLY_PROPERTIES ALPHA_AA D_AA PROTEIN AROMATIC POLYMER 
M  END

$$$$



 34 34  0  0  0  0  0  0  0  0999 V2000
   -1.7880    1.1177    0.0183 H   0  0  0  1  0  0  0  0  0  0  0  0
   -1.7283    2.7883    1.2742 C   0  0  0  1  0  0  0  0  0  0  0  0
    0.1892    1.6029    0.2879 N   0  0  0  1  0  0  0  0  0  0  0  0
   -1.2087    2.0161    0.0648 C   0  0  0  1  0  0  0  0  0  0  0  0
   -1.2273    2.6830    2.3789 O   0  0  0  1  0  0  0  0  0  0  0  0
   -2.7701    3.6106    1.1209 N   0  0  0  1  0  0  0  0  0  0  0  0
    0.4298    0.6612    0.1624 H   0  0  0  1  0  0  0  0  0  0  0  0
    1.1376    2.4662    0.6547 C   0  0  0  1  0  0  0  0  0  0  0  0
   -3.3348    4.3649    2.2299 C   0  0  0  1  0  0  0  0  0  0  0  0
    2.5185    1.8769    0.8668 C   0  0  0  1  0  0  0  0  0  0  0  0
    0.9244    3.6672    0.8153 O   0  0  0  1  0  0  0  0  0  0  0  0
   -3.1678    3.7092    0.2307 H   0  0  0  1  0  0  0  0  0  0  0  0
   -3.2242    3.8056    3.1354 H   0  0  0  1  0  0  0  0  0  0  0  0
   -4.3736    4.5445    2.0466 H   0  0  0  1  0  0  0  0  0  0  0  0
   -2.8218    5.2993    2.3233 H   0  0  0  1  0  0  0  0  0  0  0  0
    2.4938    0.8267    0.6632 H   0  0  0  1  0  0  0  0  0  0  0  0
    2.8222    2.0364    1.8803 H   0  0  0  1  0  0  0  0  0  0  0  0
    3.2139    2.3517    0.2066 H   0  0  0  1  0  0  0  0  0  0  0  0
   -1.4146    2.7139   -1.2697 C   0  0  0  1  0  0  0  0  0  0  0  0
   -2.7884    2.5699   -1.8680 C   0  0  0  1  0  0  0  0  0  0  0  0
   -3.0339    3.0173   -3.1525 C   0  0  0  1  0  0  0  0  0  0  0  0
   -4.2978    2.8795   -3.7049 C   0  0  0  1  0  0  0  0  0  0  0  0
   -5.3138    2.2994   -2.9690 C   0  0  0  1  0  0  0  0  0  0  0  0
   -5.0677    1.8506   -1.6808 C   0  0  0  1  0  0  0  0  0  0  0  0
   -3.8075    1.9881   -1.1303 C   0  0  0  1  0  0  0  0  0  0  0  0
   -6.6050    2.1637   -3.5306 N   0  0  0  1  0  0  0  0  0  0  0  0
   -0.7079    2.3116   -1.9651 H   0  0  0  1  0  0  0  0  0  0  0  0
   -1.2234    3.7574   -1.1296 H   0  0  0  1  0  0  0  0  0  0  0  0
   -2.2703    3.4575   -3.7046 H   0  0  0  1  0  0  0  0  0  0  0  0
   -4.4815    3.2126   -4.6728 H   0  0  0  1  0  0  0  0  0  0  0  0
   -5.8313    1.4104   -1.1287 H   0  0  0  1  0  0  0  0  0  0  0  0
   -3.6239    1.6550   -0.1623 H   0  0  0  1  0  0  0  0  0  0  0  0
   -6.7996    2.5491   -4.4104 H   0  0  0  1  0  0  0  0  0  0  0  0
   -7.3048    1.6843   -3.0399 H   0  0  0  1  0  0  0  0  0  0  0  0
  1  4  1  0  0  0  0
  2  4  1  0  0  0  0
  2  5  2  0  0  0  0
  2  6  1  0  0  0  0
  3  4  1  0  0  0  0
  3  7  1  0  0  0  0
  3  8  1  0  0  0  0
  4 19  1  0  0  0  0
  6  9  1  0  0  0  0
  6 12  1  0  0  0  0
  8 10  1  0  0  0  0
  8 11  2  0  0  0  0
  9 13  1  0  0  0  0
  9 14  1  0  0  0  0
  9 15  1  0  0  0  0
 10 16  1  0  0  0  0
 10 17  1  0  0  0  0
 10 18  1  0  0  0  0
 19 20  1  0  0  0  0
 19 27  1  0  0  0  0
 19 28  1  0  0  0  0
 20 21  4  0  0  0  0
 20 25  4  0  0  0  0
 21 22  4  0  0  0  0
 21 29  1  0  0  0  0
 22 23  4  0  0  0  0
 22 30  1  0  0  0  0
 23 24  4  0  0  0  0
 23 26  1  0  0  0  0
 24 25  4  0  0  0  0
 24 31  1  0  0  0  0
 25 32  1  0  0  0  0
 26 33  1  0  0  0  0
 26 34  1  0  0  0  0
M  END
> <BCLConfClusterSize>
1

> <ConfClashScore>
0 

> <ConfOneFourInteractionScore>
-0.918814 

> <ConfScore>
0.287295 

> <ConfScorePBest>
0.0035902 

> <ConfTolerance>
0.620792 

> <RosettaParamsInstructions>
M  ROOT 3
M  POLY_N_BB 3
M  POLY_CA_BB 4
M  POLY_C_BB 2
M  POLY_O_BB 5
M  POLY_IGNORE 9 10 11 12 13 14 15 16 17 18 
M  POLY_UPPER 6
M  POLY_LOWER 8
M  POLY_CHG 0
M  POLY_PROPERTIES ALPHA_AA D_AA PROTEIN AROMATIC POLYMER 
M  END

$$$$



 34 34  0  0  0  0  0  0  0  0999 V2000
   -1.1093    0.5984   -1.0270 H   0  0  0  1  0  0  0  0  0  0  0  0
    0.7640    1.5094   -0.7422 C   0  0  0  1  0  0  0  0  0  0  0  0
   -0.3918    1.1168   -2.8849 N   0  0  0  1  0  0  0  0  0  0  0  0
   -0.5641    1.4060   -1.4691 C   0  0  0  1  0  0  0  0  0  0  0  0
    0.9408    2.1767    0.2594 O   0  0  0  1  0  0  0  0  0  0  0  0
    1.7809    0.8043   -1.2716 N   0  0  0  1  0  0  0  0  0  0  0  0
    0.4688    1.3192   -3.3077 H   0  0  0  1  0  0  0  0  0  0  0  0
   -1.3662    0.5850   -3.6284 C   0  0  0  1  0  0  0  0  0  0  0  0
    3.0586    0.8246   -0.5831 C   0  0  0  1  0  0  0  0  0  0  0  0
   -1.0354    0.3710   -5.0926 C   0  0  0  1  0  0  0  0  0  0  0  0
   -2.4585    0.2844   -3.1756 O   0  0  0  1  0  0  0  0  0  0  0  0
    1.6621    0.2916   -2.0983 H   0  0  0  1  0  0  0  0  0  0  0  0
    3.3926    1.8359   -0.4799 H   0  0  0  1  0  0  0  0  0  0  0  0
    3.7768    0.2679   -1.1480 H   0  0  0  1  0  0  0  0  0  0  0  0
    2.9482    0.3851    0.3862 H   0  0  0  1  0  0  0  0  0  0  0  0
   -1.7258    0.9196   -5.6986 H   0  0  0  1  0  0  0  0  0  0  0  0
   -1.1066   -0.6709   -5.3255 H   0  0  0  1  0  0  0  0  0  0  0  0
   -0.0404    0.7132   -5.2869 H   0  0  0  1  0  0  0  0  0  0  0  0
   -1.4022    2.6744   -1.2855 C   0  0  0  1  0  0  0  0  0  0  0  0
   -2.7835    2.5585   -1.8725 C   0  0  0  1  0  0  0  0  0  0  0  0
   -3.0331    3.0221   -3.1504 C   0  0  0  1  0  0  0  0  0  0  0  0
   -4.3040    2.9103   -3.6925 C   0  0  0  1  0  0  0  0  0  0  0  0
   -5.3229    2.3399   -2.9529 C   0  0  0  1  0  0  0  0  0  0  0  0
   -5.0726    1.8749   -1.6713 C   0  0  0  1  0  0  0  0  0  0  0  0
   -3.8055    1.9865   -1.1310 C   0  0  0  1  0  0  0  0  0  0  0  0
   -6.6061    2.1423   -3.5399 N   0  0  0  1  0  0  0  0  0  0  0  0
   -0.8969    3.4884   -1.7618 H   0  0  0  1  0  0  0  0  0  0  0  0
   -1.4929    2.8740   -0.2382 H   0  0  0  1  0  0  0  0  0  0  0  0
   -2.2674    3.4549   -3.7053 H   0  0  0  1  0  0  0  0  0  0  0  0
   -4.4909    3.2555   -4.6556 H   0  0  0  1  0  0  0  0  0  0  0  0
   -5.8384    1.4421   -1.1163 H   0  0  0  1  0  0  0  0  0  0  0  0
   -3.6186    1.6412   -0.1679 H   0  0  0  1  0  0  0  0  0  0  0  0
   -6.8171    2.5504   -4.4055 H   0  0  0  1  0  0  0  0  0  0  0  0
   -7.2777    1.5983   -3.0779 H   0  0  0  1  0  0  0  0  0  0  0  0
  1  4  1  0  0  0  0
  2  4  1  0  0  0  0
  2  5  2  0  0  0  0
  2  6  1  0  0  0  0
  3  4  1  0  0  0  0
  3  7  1  0  0  0  0
  3  8  1  0  0  0  0
  4 19  1  0  0  0  0
  6  9  1  0  0  0  0
  6 12  1  0  0  0  0
  8 10  1  0  0  0  0
  8 11  2  0  0  0  0
  9 13  1  0  0  0  0
  9 14  1  0  0  0  0
  9 15  1  0  0  0  0
 10 16  1  0  0  0  0
 10 17  1  0  0  0  0
 10 18  1  0  0  0  0
 19 20  1  0  0  0  0
 19 27  1  0  0  0  0
 19 28  1  0  0  0  0
 20 21  4  0  0  0  0
 20 25  4  0  0  0  0
 21 22  4  0  0  0  0
 21 29  1  0  0  0  0
 22 23  4  0  0  0  0
 22 30  1  0  0  0  0
 23 24  4  0  0  0  0
 23 26  1  0  0  0  0
 24 25  4  0  0  0  0
 24 31  1  0  0  0  0
 25 32  1  0  0  0  0
 26 33  1  0  0  0  0
 26 34  1  0  0  0  0
M  END
> <BCLConfClusterSize>
1

> <ConfClashScore>
0 

> <ConfOneFourInteractionScore>
-0.960608 

> <ConfScore>
0.288572 

> <ConfScorePBest>
0.00356172 

> <ConfTolerance>
0.780015 

> <RosettaParamsInstructions>
M  ROOT 3
M  POLY_N_BB 3
M  POLY_CA_BB 4
M  POLY_C_BB 2
M  POLY_O_BB 5
M  POLY_IGNORE 9 10 11 12 13 14 15 16 17 18 
M  POLY_UPPER 6
M  POLY_LOWER 8
M  POLY_CHG 0
M  POLY_PROPERTIES ALPHA_AA D_AA PROTEIN AROMATIC POLYMER 
M  END

$$$$



 34 34  0  0  0  0  0  0  0  0999 V2000
   -0.0134    4.1285   -0.6143 H   0  0  0  1  0  0  0  0  0  0  0  0
   -1.8879    5.0404   -0.3788 C   0  0  0  1  0  0  0  0  0  0  0  0
   -0.6455    4.7311   -2.4768 N   0  0  0  1  0  0  0  0  0  0  0  0
   -0.9326    4.1493   -1.1617 C   0  0  0  1  0  0  0  0  0  0  0  0
   -2.7937    4.6208    0.3163 O   0  0  0  1  0  0  0  0  0  0  0  0
   -1.6835    6.3539   -0.4901 N   0  0  0  1  0  0  0  0  0  0  0  0
    0.2163    4.5378   -2.9015 H   0  0  0  1  0  0  0  0  0  0  0  0
   -1.5253    5.5220   -3.1215 C   0  0  0  1  0  0  0  0  0  0  0  0
   -2.4379    7.3773    0.2180 C   0  0  0  1  0  0  0  0  0  0  0  0
   -0.9985    6.0801   -4.4293 C   0  0  0  1  0  0  0  0  0  0  0  0
   -2.6562    5.7872   -2.7162 O   0  0  0  1  0  0  0  0  0  0  0  0
   -0.9718    6.6521   -1.0941 H   0  0  0  1  0  0  0  0  0  0  0  0
   -1.9838    7.5619    1.1691 H   0  0  0  1  0  0  0  0  0  0  0  0
   -3.4439    7.0428    0.3622 H   0  0  0  1  0  0  0  0  0  0  0  0
   -2.4405    8.2798   -0.3568 H   0  0  0  1  0  0  0  0  0  0  0  0
   -0.0569    6.5591   -4.2597 H   0  0  0  1  0  0  0  0  0  0  0  0
   -1.6955    6.7920   -4.8194 H   0  0  0  1  0  0  0  0  0  0  0  0
   -0.8714    5.2828   -5.1315 H   0  0  0  1  0  0  0  0  0  0  0  0
   -1.4263    2.7041   -1.2427 C   0  0  0  1  0  0  0  0  0  0  0  0
   -2.7825    2.5793   -1.8837 C   0  0  0  1  0  0  0  0  0  0  0  0
   -3.0321    3.0002   -3.1763 C   0  0  0  1  0  0  0  0  0  0  0  0
   -4.2992    2.8567   -3.7197 C   0  0  0  1  0  0  0  0  0  0  0  0
   -5.3145    2.2974   -2.9669 C   0  0  0  1  0  0  0  0  0  0  0  0
   -5.0644    1.8752   -1.6705 C   0  0  0  1  0  0  0  0  0  0  0  0
   -3.8009    2.0184   -1.1289 C   0  0  0  1  0  0  0  0  0  0  0  0
   -6.6089    2.1559   -3.5193 N   0  0  0  1  0  0  0  0  0  0  0  0
   -1.4806    2.3067   -0.2507 H   0  0  0  1  0  0  0  0  0  0  0  0
   -0.7245    2.1362   -1.8171 H   0  0  0  1  0  0  0  0  0  0  0  0
   -2.2691    3.4247   -3.7413 H   0  0  0  1  0  0  0  0  0  0  0  0
   -4.4859    3.1697   -4.6937 H   0  0  0  1  0  0  0  0  0  0  0  0
   -5.8274    1.4507   -1.1054 H   0  0  0  1  0  0  0  0  0  0  0  0
   -3.6143    1.7053   -0.1548 H   0  0  0  1  0  0  0  0  0  0  0  0
   -7.3070    1.6852   -3.0178 H   0  0  0  1  0  0  0  0  0  0  0  0
   -6.8076    2.5285   -4.4037 H   0  0  0  1  0  0  0  0  0  0  0  0
  1  4  1  0  0  0  0
  2  4  1  0  0  0  0
  2  5  2  0  0  0  0
  2  6  1  0  0  0  0
  3  4  1  0  0  0  0
  3  7  1  0  0  0  0
  3  8  1  0  0  0  0
  4 19  1  0  0  0  0
  6  9  1  0  0  0  0
  6 12  1  0  0  0  0
  8 10  1  0  0  0  0
  8 11  2  0  0  0  0
  9 13  1  0  0  0  0
  9 14  1  0  0  0  0
  9 15  1  0  0  0  0
 10 16  1  0  0  0  0
 10 17  1  0  0  0  0
 10 18  1  0  0  0  0
 19 20  1  0  0  0  0
 19 27  1  0  0  0  0
 19 28  1  0  0  0  0
 20 21  4  0  0  0  0
 20 25  4  0  0  0  0
 21 22  4  0  0  0  0
 21 29  1  0  0  0  0
 22 23  4  0  0  0  0
 22 30  1  0  0  0  0
 23 24  4  0  0  0  0
 23 26  1  0  0  0  0
 24 25  4  0  0  0  0
 24 31  1  0  0  0  0
 25 32  1  0  0  0  0
 26 33  1  0  0  0  0
 26 34  1  0  0  0  0
M  END
> <BCLConfClusterSize>
1

> <ConfClashScore>
0 

> <ConfOneFourInteractionScore>
-0.95412 

> <ConfScore>
0.289792 

> <ConfScorePBest>
0.00353324 

> <ConfTolerance>
0.44155 

> <RosettaParamsInstructions>
M  ROOT 3
M  POLY_N_BB 3
M  POLY_CA_BB 4
M  POLY_C_BB 2
M  POLY_O_BB 5
M  POLY_IGNORE 9 10 11 12 13 14 15 16 17 18 
M  POLY_UPPER 6
M  POLY_LOWER 8
M  POLY_CHG 0
M  POLY_PROPERTIES ALPHA_AA D_AA PROTEIN AROMATIC POLYMER 
M  END

$$$$



 34 34  0  0  0  0  0  0  0  0999 V2000
   -0.6513    2.9607   -3.2423 H   0  0  0  1  0  0  0  0  0  0  0  0
    0.0837    1.1315   -2.4464 C   0  0  0  1  0  0  0  0  0  0  0  0
    0.8532    3.3782   -1.8642 N   0  0  0  1  0  0  0  0  0  0  0  0
   -0.2976    2.5956   -2.3008 C   0  0  0  1  0  0  0  0  0  0  0  0
    1.2618    0.7806   -2.4971 O   0  0  0  1  0  0  0  0  0  0  0  0
   -0.9355    0.2703   -2.5139 N   0  0  0  1  0  0  0  0  0  0  0  0
    0.7604    3.8989   -1.0392 H   0  0  0  1  0  0  0  0  0  0  0  0
    2.0342    3.4391   -2.5097 C   0  0  0  1  0  0  0  0  0  0  0  0
   -0.7361   -1.1713   -2.5178 C   0  0  0  1  0  0  0  0  0  0  0  0
    3.0326    4.3816   -1.8662 C   0  0  0  1  0  0  0  0  0  0  0  0
    2.3098    2.8043   -3.5269 O   0  0  0  1  0  0  0  0  0  0  0  0
   -1.8491    0.6215   -2.5624 H   0  0  0  1  0  0  0  0  0  0  0  0
   -0.3642   -1.4778   -3.4732 H   0  0  0  1  0  0  0  0  0  0  0  0
   -1.6678   -1.6605   -2.3243 H   0  0  0  1  0  0  0  0  0  0  0  0
   -0.0296   -1.4355   -1.7589 H   0  0  0  1  0  0  0  0  0  0  0  0
    3.3252    5.1293   -2.5735 H   0  0  0  1  0  0  0  0  0  0  0  0
    3.8943    3.8293   -1.5543 H   0  0  0  1  0  0  0  0  0  0  0  0
    2.5827    4.8514   -1.0165 H   0  0  0  1  0  0  0  0  0  0  0  0
   -1.4152    2.7160   -1.2689 C   0  0  0  1  0  0  0  0  0  0  0  0
   -2.7887    2.5710   -1.8676 C   0  0  0  1  0  0  0  0  0  0  0  0
   -3.0312    3.0077   -3.1563 C   0  0  0  1  0  0  0  0  0  0  0  0
   -4.2949    2.8690   -3.7090 C   0  0  0  1  0  0  0  0  0  0  0  0
   -5.3137    2.2988   -2.9693 C   0  0  0  1  0  0  0  0  0  0  0  0
   -5.0706    1.8608   -1.6768 C   0  0  0  1  0  0  0  0  0  0  0  0
   -3.8106    1.9992   -1.1259 C   0  0  0  1  0  0  0  0  0  0  0  0
   -6.6046    2.1623   -3.5312 N   0  0  0  1  0  0  0  0  0  0  0  0
   -1.3464    3.6768   -0.8030 H   0  0  0  1  0  0  0  0  0  0  0  0
   -1.2823    1.9514   -0.5322 H   0  0  0  1  0  0  0  0  0  0  0  0
   -2.2655    3.4403   -3.7114 H   0  0  0  1  0  0  0  0  0  0  0  0
   -4.4763    3.1939   -4.6801 H   0  0  0  1  0  0  0  0  0  0  0  0
   -5.8363    1.4282   -1.1217 H   0  0  0  1  0  0  0  0  0  0  0  0
   -3.6293    1.6742   -0.1548 H   0  0  0  1  0  0  0  0  0  0  0  0
   -6.7652    2.4291   -4.4604 H   0  0  0  1  0  0  0  0  0  0  0  0
   -7.3382    1.8008   -2.9913 H   0  0  0  1  0  0  0  0  0  0  0  0
  1  4  1  0  0  0  0
  2  4  1  0  0  0  0
  2  5  2  0  0  0  0
  2  6  1  0  0  0  0
  3  4  1  0  0  0  0
  3  7  1  0  0  0  0
  3  8  1  0  0  0  0
  4 19  1  0  0  0  0
  6  9  1  0  0  0  0
  6 12  1  0  0  0  0
  8 10  1  0  0  0  0
  8 11  2  0  0  0  0
  9 13  1  0  0  0  0
  9 14  1  0  0  0  0
  9 15  1  0  0  0  0
 10 16  1  0  0  0  0
 10 17  1  0  0  0  0
 10 18  1  0  0  0  0
 19 20  1  0  0  0  0
 19 27  1  0  0  0  0
 19 28  1  0  0  0  0
 20 21  4  0  0  0  0
 20 25  4  0  0  0  0
 21 22  4  0  0  0  0
 21 29  1  0  0  0  0
 22 23  4  0  0  0  0
 22 30  1  0  0  0  0
 23 24  4  0  0  0  0
 23 26  1  0  0  0  0
 24 25  4  0  0  0  0
 24 31  1  0  0  0  0
 25 32  1  0  0  0  0
 26 33  1  0  0  0  0
 26 34  1  0  0  0  0
M  END
> <BCLConfClusterSize>
1

> <ConfClashScore>
0 

> <ConfOneFourInteractionScore>
-0.939929 

> <ConfScore>
0.29353 

> <ConfScorePBest>
0.00350476 

> <ConfTolerance>
0.800061 

> <RosettaParamsInstructions>
M  ROOT 3
M  POLY_N_BB 3
M  POLY_CA_BB 4
M  POLY_C_BB 2
M  POLY_O_BB 5
M  POLY_IGNORE 9 10 11 12 13 14 15 16 17 18 
M  POLY_UPPER 6
M  POLY_LOWER 8
M  POLY_CHG 0
M  POLY_PROPERTIES ALPHA_AA D_AA PROTEIN AROMATIC POLYMER 
M  END

$$$$



 34 34  0  0  0  0  0  0  0  0999 V2000
   -0.1292    4.2828   -0.6636 H   0  0  0  1  0  0  0  0  0  0  0  0
   -2.0322    5.1262   -1.0430 C   0  0  0  1  0  0  0  0  0  0  0  0
   -0.3849    4.3705   -2.7165 N   0  0  0  1  0  0  0  0  0  0  0  0
   -0.9156    4.1471   -1.3764 C   0  0  0  1  0  0  0  0  0  0  0  0
   -2.9300    4.8513   -0.2678 O   0  0  0  1  0  0  0  0  0  0  0  0
   -2.0321    6.3318   -1.6188 N   0  0  0  1  0  0  0  0  0  0  0  0
   -0.5867    3.6993   -3.4015 H   0  0  0  1  0  0  0  0  0  0  0  0
    0.3544    5.4196   -3.0800 C   0  0  0  1  0  0  0  0  0  0  0  0
   -3.0446    7.3345   -1.3235 C   0  0  0  1  0  0  0  0  0  0  0  0
    0.7957    5.4427   -4.5259 C   0  0  0  1  0  0  0  0  0  0  0  0
    0.6670    6.3204   -2.3026 O   0  0  0  1  0  0  0  0  0  0  0  0
   -1.3255    6.5484   -2.2625 H   0  0  0  1  0  0  0  0  0  0  0  0
   -2.8308    8.2296   -1.8694 H   0  0  0  1  0  0  0  0  0  0  0  0
   -3.0405    7.5470   -0.2748 H   0  0  0  1  0  0  0  0  0  0  0  0
   -4.0070    6.9641   -1.6091 H   0  0  0  1  0  0  0  0  0  0  0  0
    0.4480    6.3413   -4.9912 H   0  0  0  1  0  0  0  0  0  0  0  0
    0.3874    4.5958   -5.0368 H   0  0  0  1  0  0  0  0  0  0  0  0
    1.8641    5.4073   -4.5731 H   0  0  0  1  0  0  0  0  0  0  0  0
   -1.4194    2.7116   -1.2592 C   0  0  0  1  0  0  0  0  0  0  0  0
   -2.7898    2.5738   -1.8749 C   0  0  0  1  0  0  0  0  0  0  0  0
   -3.0140    3.0076   -3.1679 C   0  0  0  1  0  0  0  0  0  0  0  0
   -4.2720    2.8757   -3.7350 C   0  0  0  1  0  0  0  0  0  0  0  0
   -5.3035    2.3153   -3.0054 C   0  0  0  1  0  0  0  0  0  0  0  0
   -5.0787    1.8802   -1.7086 C   0  0  0  1  0  0  0  0  0  0  0  0
   -3.8244    2.0117   -1.1434 C   0  0  0  1  0  0  0  0  0  0  0  0
   -6.6117    2.1407   -3.4810 N   0  0  0  1  0  0  0  0  0  0  0  0
   -1.4706    2.4411   -0.2252 H   0  0  0  1  0  0  0  0  0  0  0  0
   -0.7398    2.0588   -1.7660 H   0  0  0  1  0  0  0  0  0  0  0  0
   -2.2388    3.4329   -3.7154 H   0  0  0  1  0  0  0  0  0  0  0  0
   -4.4397    3.1985   -4.7094 H   0  0  0  1  0  0  0  0  0  0  0  0
   -5.8539    1.4549   -1.1611 H   0  0  0  1  0  0  0  0  0  0  0  0
   -3.6568    1.6890   -0.1691 H   0  0  0  1  0  0  0  0  0  0  0  0
   -7.2871    1.7153   -2.9123 H   0  0  0  1  0  0  0  0  0  0  0  0
   -6.8503    2.4441   -4.3817 H   0  0  0  1  0  0  0  0  0  0  0  0
  1  4  1  0  0  0  0
  2  4  1  0  0  0  0
  2  5  2  0  0  0  0
  2  6  1  0  0  0  0
  3  4  1  0  0  0  0
  3  7  1  0  0  0  0
  3  8  1  0  0  0  0
  4 19  1  0  0  0  0
  6  9  1  0  0  0  0
  6 12  1  0  0  0  0
  8 10  1  0  0  0  0
  8 11  2  0  0  0  0
  9 13  1  0  0  0  0
  9 14  1  0  0  0  0
  9 15  1  0  0  0  0
 10 16  1  0  0  0  0
 10 17  1  0  0  0  0
 10 18  1  0  0  0  0
 19 20  1  0  0  0  0
 19 27  1  0  0  0  0
 19 28  1  0  0  0  0
 20 21  4  0  0  0  0
 20 25  4  0  0  0  0
 21 22  4  0  0  0  0
 21 29  1  0  0  0  0
 22 23  4  0  0  0  0
 22 30  1  0  0  0  0
 23 24  4  0  0  0  0
 23 26  1  0  0  0  0
 24 25  4  0  0  0  0
 24 31  1  0  0  0  0
 25 32  1  0  0  0  0
 26 33  1  0  0  0  0
 26 34  1  0  0  0  0
M  END
> <BCLConfClusterSize>
1

> <ConfClashScore>
0.00256403 

> <ConfOneFourInteractionScore>
-0.941987 

> <ConfScore>
0.294436 

> <ConfScorePBest>
0.00347628 

> <ConfTolerance>
0.428736 

> <RosettaParamsInstructions>
M  ROOT 3
M  POLY_N_BB 3
M  POLY_CA_BB 4
M  POLY_C_BB 2
M  POLY_O_BB 5
M  POLY_IGNORE 9 10 11 12 13 14 15 16 17 18 
M  POLY_UPPER 6
M  POLY_LOWER 8
M  POLY_CHG 0
M  POLY_PROPERTIES ALPHA_AA D_AA PROTEIN AROMATIC POLYMER 
M  END

$$$$



 34 34  0  0  0  0  0  0  0  0999 V2000
   -1.7831    3.9261    0.3655 H   0  0  0  1  0  0  0  0  0  0  0  0
   -1.4284    5.2374   -1.2380 C   0  0  0  1  0  0  0  0  0  0  0  0
    0.2455    3.9360    0.0193 N   0  0  0  1  0  0  0  0  0  0  0  0
   -1.1228    3.9628   -0.4757 C   0  0  0  1  0  0  0  0  0  0  0  0
   -0.6803    5.6462   -2.1221 O   0  0  0  1  0  0  0  0  0  0  0  0
   -2.5555    5.8739   -0.8819 N   0  0  0  1  0  0  0  0  0  0  0  0
    0.4072    3.6691    0.9483 H   0  0  0  1  0  0  0  0  0  0  0  0
    1.2888    4.2627   -0.7487 C   0  0  0  1  0  0  0  0  0  0  0  0
   -2.8742    7.2131   -1.3539 C   0  0  0  1  0  0  0  0  0  0  0  0
    2.5898    4.5255   -0.0155 C   0  0  0  1  0  0  0  0  0  0  0  0
    1.2182    4.3489   -1.9636 O   0  0  0  1  0  0  0  0  0  0  0  0
   -3.1855    5.4209   -0.2834 H   0  0  0  1  0  0  0  0  0  0  0  0
   -3.9203    7.3975   -1.2254 H   0  0  0  1  0  0  0  0  0  0  0  0
   -2.6226    7.2949   -2.3907 H   0  0  0  1  0  0  0  0  0  0  0  0
   -2.3141    7.9315   -0.7927 H   0  0  0  1  0  0  0  0  0  0  0  0
    2.8473    3.6697    0.5728 H   0  0  0  1  0  0  0  0  0  0  0  0
    2.4732    5.3755    0.6238 H   0  0  0  1  0  0  0  0  0  0  0  0
    3.3669    4.7167   -0.7258 H   0  0  0  1  0  0  0  0  0  0  0  0
   -1.3988    2.7380   -1.3157 C   0  0  0  1  0  0  0  0  0  0  0  0
   -2.7922    2.5658   -1.8587 C   0  0  0  1  0  0  0  0  0  0  0  0
   -3.0429    3.0073   -3.1443 C   0  0  0  1  0  0  0  0  0  0  0  0
   -4.3088    2.8662   -3.6912 C   0  0  0  1  0  0  0  0  0  0  0  0
   -5.3217    2.2888   -2.9488 C   0  0  0  1  0  0  0  0  0  0  0  0
   -5.0704    1.8461   -1.6596 C   0  0  0  1  0  0  0  0  0  0  0  0
   -3.8082    1.9868   -1.1144 C   0  0  0  1  0  0  0  0  0  0  0  0
   -6.5949    2.1750   -3.5543 N   0  0  0  1  0  0  0  0  0  0  0  0
   -1.1819    1.8809   -0.7130 H   0  0  0  1  0  0  0  0  0  0  0  0
   -0.7308    2.7655   -2.1511 H   0  0  0  1  0  0  0  0  0  0  0  0
   -2.2817    3.4453   -3.7013 H   0  0  0  1  0  0  0  0  0  0  0  0
   -4.4964    3.1947   -4.6599 H   0  0  0  1  0  0  0  0  0  0  0  0
   -5.8316    1.4080   -1.1025 H   0  0  0  1  0  0  0  0  0  0  0  0
   -3.6206    1.6583   -0.1457 H   0  0  0  1  0  0  0  0  0  0  0  0
   -6.7417    2.5278   -4.4567 H   0  0  0  1  0  0  0  0  0  0  0  0
   -7.3303    1.7432   -3.0714 H   0  0  0  1  0  0  0  0  0  0  0  0
  1  4  1  0  0  0  0
  2  4  1  0  0  0  0
  2  5  2  0  0  0  0
  2  6  1  0  0  0  0
  3  4  1  0  0  0  0
  3  7  1  0  0  0  0
  3  8  1  0  0  0  0
  4 19  1  0  0  0  0
  6  9  1  0  0  0  0
  6 12  1  0  0  0  0
  8 10  1  0  0  0  0
  8 11  2  0  0  0  0
  9 13  1  0  0  0  0
  9 14  1  0  0  0  0
  9 15  1  0  0  0  0
 10 16  1  0  0  0  0
 10 17  1  0  0  0  0
 10 18  1  0  0  0  0
 19 20  1  0  0  0  0
 19 27  1  0  0  0  0
 19 28  1  0  0  0  0
 20 21  4  0  0  0  0
 20 25  4  0  0  0  0
 21 22  4  0  0  0  0
 21 29  1  0  0  0  0
 22 23  4  0  0  0  0
 22 30  1  0  0  0  0
 23 24  4  0  0  0  0
 23 26  1  0  0  0  0
 24 25  4  0  0  0  0
 24 31  1  0  0  0  0
 25 32  1  0  0  0  0
 26 33  1  0  0  0  0
 26 34  1  0  0  0  0
M  END
> <BCLConfClusterSize>
1

> <ConfClashScore>
0 

> <ConfOneFourInteractionScore>
-0.987258 

> <ConfScore>
0.297533 

> <ConfScorePBest>
0.0034478 

> <ConfTolerance>
0.606762 

> <RosettaParamsInstructions>
M  ROOT 3
M  POLY_N_BB 3
M  POLY_CA_BB 4
M  POLY_C_BB 2
M  POLY_O_BB 5
M  POLY_IGNORE 9 10 11 12 13 14 15 16 17 18 
M  POLY_UPPER 6
M  POLY_LOWER 8
M  POLY_CHG 0
M  POLY_PROPERTIES ALPHA_AA D_AA PROTEIN AROMATIC POLYMER 
M  END

$$$$



 34 34  0  0  0  0  0  0  0  0999 V2000
   -1.4420    4.8292   -1.3640 H   0  0  0  1  0  0  0  0  0  0  0  0
    0.3970    4.2896   -0.4842 C   0  0  0  1  0  0  0  0  0  0  0  0
   -1.8383    4.2564    0.5717 N   0  0  0  1  0  0  0  0  0  0  0  0
   -1.1040    4.0866   -0.6718 C   0  0  0  1  0  0  0  0  0  0  0  0
    0.8468    4.8449    0.5203 O   0  0  0  1  0  0  0  0  0  0  0  0
    1.1763    3.8275   -1.4748 N   0  0  0  1  0  0  0  0  0  0  0  0
   -1.4101    4.0389    1.4260 H   0  0  0  1  0  0  0  0  0  0  0  0
   -3.1078    4.7126    0.5519 C   0  0  0  1  0  0  0  0  0  0  0  0
    2.6283    3.9132   -1.4259 C   0  0  0  1  0  0  0  0  0  0  0  0
   -3.8193    4.8984    1.8779 C   0  0  0  1  0  0  0  0  0  0  0  0
   -3.6738    4.9711   -0.5095 O   0  0  0  1  0  0  0  0  0  0  0  0
    0.7528    3.4183   -2.2581 H   0  0  0  1  0  0  0  0  0  0  0  0
    2.9188    4.9110   -1.1710 H   0  0  0  1  0  0  0  0  0  0  0  0
    3.0328    3.6578   -2.3830 H   0  0  0  1  0  0  0  0  0  0  0  0
    3.0007    3.2340   -0.6879 H   0  0  0  1  0  0  0  0  0  0  0  0
   -4.2129    5.8917    1.9360 H   0  0  0  1  0  0  0  0  0  0  0  0
   -3.1272    4.7419    2.6788 H   0  0  0  1  0  0  0  0  0  0  0  0
   -4.6200    4.1927    1.9547 H   0  0  0  1  0  0  0  0  0  0  0  0
   -1.4096    2.7225   -1.2834 C   0  0  0  1  0  0  0  0  0  0  0  0
   -2.7856    2.5746   -1.8756 C   0  0  0  1  0  0  0  0  0  0  0  0
   -3.0331    3.0033   -3.1661 C   0  0  0  1  0  0  0  0  0  0  0  0
   -4.2991    2.8619   -3.7127 C   0  0  0  1  0  0  0  0  0  0  0  0
   -5.3152    2.2970   -2.9653 C   0  0  0  1  0  0  0  0  0  0  0  0
   -5.0672    1.8670   -1.6710 C   0  0  0  1  0  0  0  0  0  0  0  0
   -3.8049    2.0081   -1.1262 C   0  0  0  1  0  0  0  0  0  0  0  0
   -6.6084    2.1577   -3.5211 N   0  0  0  1  0  0  0  0  0  0  0  0
   -1.2992    1.9847   -0.5164 H   0  0  0  1  0  0  0  0  0  0  0  0
   -0.6952    2.5410   -2.0591 H   0  0  0  1  0  0  0  0  0  0  0  0
   -2.2694    3.4319   -3.7270 H   0  0  0  1  0  0  0  0  0  0  0  0
   -4.4843    3.1808   -4.6852 H   0  0  0  1  0  0  0  0  0  0  0  0
   -5.8308    1.4384   -1.1101 H   0  0  0  1  0  0  0  0  0  0  0  0
   -3.6197    1.6892   -0.1537 H   0  0  0  1  0  0  0  0  0  0  0  0
   -7.3293    1.7584   -2.9907 H   0  0  0  1  0  0  0  0  0  0  0  0
   -6.7836    2.4604   -4.4365 H   0  0  0  1  0  0  0  0  0  0  0  0
  1  4  1  0  0  0  0
  2  4  1  0  0  0  0
  2  5  2  0  0  0  0
  2  6  1  0  0  0  0
  3  4  1  0  0  0  0
  3  7  1  0  0  0  0
  3  8  1  0  0  0  0
  4 19  1  0  0  0  0
  6  9  1  0  0  0  0
  6 12  1  0  0  0  0
  8 10  1  0  0  0  0
  8 11  2  0  0  0  0
  9 13  1  0  0  0  0
  9 14  1  0  0  0  0
  9 15  1  0  0  0  0
 10 16  1  0  0  0  0
 10 17  1  0  0  0  0
 10 18  1  0  0  0  0
 19 20  1  0  0  0  0
 19 27  1  0  0  0  0
 19 28  1  0  0  0  0
 20 21  4  0  0  0  0
 20 25  4  0  0  0  0
 21 22  4  0  0  0  0
 21 29  1  0  0  0  0
 22 23  4  0  0  0  0
 22 30  1  0  0  0  0
 23 24  4  0  0  0  0
 23 26  1  0  0  0  0
 24 25  4  0  0  0  0
 24 31  1  0  0  0  0
 25 32  1  0  0  0  0
 26 33  1  0  0  0  0
 26 34  1  0  0  0  0
M  END
> <BCLConfClusterSize>
1

> <ConfClashScore>
0 

> <ConfOneFourInteractionScore>
-0.960255 

> <ConfScore>
0.297911 

> <ConfScorePBest>
0.00341932 

> <ConfTolerance>
0.768898 

> <RosettaParamsInstructions>
M  ROOT 3
M  POLY_N_BB 3
M  POLY_CA_BB 4
M  POLY_C_BB 2
M  POLY_O_BB 5
M  POLY_IGNORE 9 10 11 12 13 14 15 16 17 18 
M  POLY_UPPER 6
M  POLY_LOWER 8
M  POLY_CHG 0
M  POLY_PROPERTIES ALPHA_AA D_AA PROTEIN AROMATIC POLYMER 
M  END

$$$$



 34 34  0  0  0  0  0  0  0  0999 V2000
   -0.2526    2.7873   -3.0971 H   0  0  0  1  0  0  0  0  0  0  0  0
   -0.6120    0.7313   -2.7488 C   0  0  0  1  0  0  0  0  0  0  0  0
    0.9709    2.2346   -1.5079 N   0  0  0  1  0  0  0  0  0  0  0  0
   -0.3007    2.1375   -2.2484 C   0  0  0  1  0  0  0  0  0  0  0  0
   -1.7733    0.3586   -2.9282 O   0  0  0  1  0  0  0  0  0  0  0  0
    0.4515   -0.0558   -2.9753 N   0  0  0  1  0  0  0  0  0  0  0  0
    1.5166    3.0293   -1.6842 H   0  0  0  1  0  0  0  0  0  0  0  0
    1.4636    1.3622   -0.6241 C   0  0  0  1  0  0  0  0  0  0  0  0
    0.3225   -1.3989   -3.5206 C   0  0  0  1  0  0  0  0  0  0  0  0
    2.8390    1.6961   -0.0609 C   0  0  0  1  0  0  0  0  0  0  0  0
    0.8598    0.3486   -0.2753 O   0  0  0  1  0  0  0  0  0  0  0  0
    1.3459    0.2858   -2.7661 H   0  0  0  1  0  0  0  0  0  0  0  0
   -0.1459   -1.3508   -4.4814 H   0  0  0  1  0  0  0  0  0  0  0  0
   -0.2745   -1.9950   -2.8625 H   0  0  0  1  0  0  0  0  0  0  0  0
    1.2931   -1.8384   -3.6190 H   0  0  0  1  0  0  0  0  0  0  0  0
    3.1235    0.9510    0.6524 H   0  0  0  1  0  0  0  0  0  0  0  0
    2.8057    2.6528    0.4172 H   0  0  0  1  0  0  0  0  0  0  0  0
    3.5540    1.7192   -0.8566 H   0  0  0  1  0  0  0  0  0  0  0  0
   -1.3803    2.6687   -1.3197 C   0  0  0  1  0  0  0  0  0  0  0  0
   -2.7965    2.5855   -1.8547 C   0  0  0  1  0  0  0  0  0  0  0  0
   -3.0366    3.0248   -3.1430 C   0  0  0  1  0  0  0  0  0  0  0  0
   -4.2969    2.8790   -3.7016 C   0  0  0  1  0  0  0  0  0  0  0  0
   -5.3147    2.2990   -2.9682 C   0  0  0  1  0  0  0  0  0  0  0  0
   -5.0741    1.8584   -1.6761 C   0  0  0  1  0  0  0  0  0  0  0  0
   -3.8175    2.0039   -1.1194 C   0  0  0  1  0  0  0  0  0  0  0  0
   -6.6022    2.1552   -3.5361 N   0  0  0  1  0  0  0  0  0  0  0  0
   -1.1642    3.6967   -1.1162 H   0  0  0  1  0  0  0  0  0  0  0  0
   -1.3379    2.1078   -0.4094 H   0  0  0  1  0  0  0  0  0  0  0  0
   -2.2716    3.4649   -3.6933 H   0  0  0  1  0  0  0  0  0  0  0  0
   -4.4764    3.2059   -4.6724 H   0  0  0  1  0  0  0  0  0  0  0  0
   -5.8390    1.4184   -1.1258 H   0  0  0  1  0  0  0  0  0  0  0  0
   -3.6380    1.6769   -0.1486 H   0  0  0  1  0  0  0  0  0  0  0  0
   -6.7797    2.4915   -4.4393 H   0  0  0  1  0  0  0  0  0  0  0  0
   -7.3166    1.7191   -3.0264 H   0  0  0  1  0  0  0  0  0  0  0  0
  1  4  1  0  0  0  0
  2  4  1  0  0  0  0
  2  5  2  0  0  0  0
  2  6  1  0  0  0  0
  3  4  1  0  0  0  0
  3  7  1  0  0  0  0
  3  8  1  0  0  0  0
  4 19  1  0  0  0  0
  6  9  1  0  0  0  0
  6 12  1  0  0  0  0
  8 10  1  0  0  0  0
  8 11  2  0  0  0  0
  9 13  1  0  0  0  0
  9 14  1  0  0  0  0
  9 15  1  0  0  0  0
 10 16  1  0  0  0  0
 10 17  1  0  0  0  0
 10 18  1  0  0  0  0
 19 20  1  0  0  0  0
 19 27  1  0  0  0  0
 19 28  1  0  0  0  0
 20 21  4  0  0  0  0
 20 25  4  0  0  0  0
 21 22  4  0  0  0  0
 21 29  1  0  0  0  0
 22 23  4  0  0  0  0
 22 30  1  0  0  0  0
 23 24  4  0  0  0  0
 23 26  1  0  0  0  0
 24 25  4  0  0  0  0
 24 31  1  0  0  0  0
 25 32  1  0  0  0  0
 26 33  1  0  0  0  0
 26 34  1  0  0  0  0
M  END
> <BCLConfClusterSize>
1

> <ConfClashScore>
0 

> <ConfOneFourInteractionScore>
-0.953489 

> <ConfScore>
0.303069 

> <ConfScorePBest>
0.00339084 

> <ConfTolerance>
0.522864 

> <RosettaParamsInstructions>
M  ROOT 3
M  POLY_N_BB 3
M  POLY_CA_BB 4
M  POLY_C_BB 2
M  POLY_O_BB 5
M  POLY_IGNORE 9 10 11 12 13 14 15 16 17 18 
M  POLY_UPPER 6
M  POLY_LOWER 8
M  POLY_CHG 0
M  POLY_PROPERTIES ALPHA_AA D_AA PROTEIN AROMATIC POLYMER 
M  END

$$$$



 34 34  0  0  0  0  0  0  0  0999 V2000
   -2.2369    3.6114    0.4577 H   0  0  0  1  0  0  0  0  0  0  0  0
   -1.3503    5.1500   -0.6847 C   0  0  0  1  0  0  0  0  0  0  0  0
   -0.1867    3.4758    0.6898 N   0  0  0  1  0  0  0  0  0  0  0  0
   -1.3556    3.7364   -0.1361 C   0  0  0  1  0  0  0  0  0  0  0  0
   -2.2367    5.5447   -1.4377 O   0  0  0  1  0  0  0  0  0  0  0  0
   -0.3249    5.9233   -0.2942 N   0  0  0  1  0  0  0  0  0  0  0  0
    0.6414    3.1528    0.2771 H   0  0  0  1  0  0  0  0  0  0  0  0
   -0.2403    3.6778    2.0227 C   0  0  0  1  0  0  0  0  0  0  0  0
   -0.1850    7.3057   -0.7268 C   0  0  0  1  0  0  0  0  0  0  0  0
    0.9638    3.2785    2.8532 C   0  0  0  1  0  0  0  0  0  0  0  0
   -1.2358    4.1711    2.5512 O   0  0  0  1  0  0  0  0  0  0  0  0
    0.3531    5.5437    0.3030 H   0  0  0  1  0  0  0  0  0  0  0  0
   -0.4484    7.3848   -1.7608 H   0  0  0  1  0  0  0  0  0  0  0  0
    0.8288    7.6205   -0.5921 H   0  0  0  1  0  0  0  0  0  0  0  0
   -0.8325    7.9284   -0.1455 H   0  0  0  1  0  0  0  0  0  0  0  0
    1.6319    4.1102    2.9365 H   0  0  0  1  0  0  0  0  0  0  0  0
    1.4684    2.4622    2.3800 H   0  0  0  1  0  0  0  0  0  0  0  0
    0.6411    2.9815    3.8292 H   0  0  0  1  0  0  0  0  0  0  0  0
   -1.4095    2.7223   -1.2835 C   0  0  0  1  0  0  0  0  0  0  0  0
   -2.7856    2.5745   -1.8756 C   0  0  0  1  0  0  0  0  0  0  0  0
   -3.0333    3.0042   -3.1657 C   0  0  0  1  0  0  0  0  0  0  0  0
   -4.2994    2.8629   -3.7123 C   0  0  0  1  0  0  0  0  0  0  0  0
   -5.3152    2.2971   -2.9653 C   0  0  0  1  0  0  0  0  0  0  0  0
   -5.0669    1.8661   -1.6714 C   0  0  0  1  0  0  0  0  0  0  0  0
   -3.8046    2.0070   -1.1266 C   0  0  0  1  0  0  0  0  0  0  0  0
   -6.6085    2.1578   -3.5210 N   0  0  0  1  0  0  0  0  0  0  0  0
   -1.0948    1.7698   -0.9113 H   0  0  0  1  0  0  0  0  0  0  0  0
   -0.7400    3.0438   -2.0538 H   0  0  0  1  0  0  0  0  0  0  0  0
   -2.2699    3.4336   -3.7264 H   0  0  0  1  0  0  0  0  0  0  0  0
   -4.4847    3.1826   -4.6845 H   0  0  0  1  0  0  0  0  0  0  0  0
   -5.8303    1.4367   -1.1107 H   0  0  0  1  0  0  0  0  0  0  0  0
   -3.6192    1.6873   -0.1544 H   0  0  0  1  0  0  0  0  0  0  0  0
   -7.3324    1.7700   -2.9863 H   0  0  0  1  0  0  0  0  0  0  0  0
   -6.7805    2.4492   -4.4408 H   0  0  0  1  0  0  0  0  0  0  0  0
  1  4  1  0  0  0  0
  2  4  1  0  0  0  0
  2  5  2  0  0  0  0
  2  6  1  0  0  0  0
  3  4  1  0  0  0  0
  3  7  1  0  0  0  0
  3  8  1  0  0  0  0
  4 19  1  0  0  0  0
  6  9  1  0  0  0  0
  6 12  1  0  0  0  0
  8 10  1  0  0  0  0
  8 11  2  0  0  0  0
  9 13  1  0  0  0  0
  9 14  1  0  0  0  0
  9 15  1  0  0  0  0
 10 16  1  0  0  0  0
 10 17  1  0  0  0  0
 10 18  1  0  0  0  0
 19 20  1  0  0  0  0
 19 27  1  0  0  0  0
 19 28  1  0  0  0  0
 20 21  4  0  0  0  0
 20 25  4  0  0  0  0
 21 22  4  0  0  0  0
 21 29  1  0  0  0  0
 22 23  4  0  0  0  0
 22 30  1  0  0  0  0
 23 24  4  0  0  0  0
 23 26  1  0  0  0  0
 24 25  4  0  0  0  0
 24 31  1  0  0  0  0
 25 32  1  0  0  0  0
 26 33  1  0  0  0  0
 26 34  1  0  0  0  0
M  END
> <BCLConfClusterSize>
1

> <ConfClashScore>
0 

> <ConfOneFourInteractionScore>
-0.948834 

> <ConfScore>
0.305629 

> <ConfScorePBest>
0.00336236 

> <ConfTolerance>
0.491702 

> <RosettaParamsInstructions>
M  ROOT 3
M  POLY_N_BB 3
M  POLY_CA_BB 4
M  POLY_C_BB 2
M  POLY_O_BB 5
M  POLY_IGNORE 9 10 11 12 13 14 15 16 17 18 
M  POLY_UPPER 6
M  POLY_LOWER 8
M  POLY_CHG 0
M  POLY_PROPERTIES ALPHA_AA D_AA PROTEIN AROMATIC POLYMER 
M  END

$$$$



 34 34  0  0  0  0  0  0  0  0999 V2000
   -0.2434    2.3640    0.4415 H   0  0  0  1  0  0  0  0  0  0  0  0
   -1.5547    0.7105    0.1667 C   0  0  0  1  0  0  0  0  0  0  0  0
   -2.1761    2.9428    0.9478 N   0  0  0  1  0  0  0  0  0  0  0  0
   -1.2470    2.2012    0.1082 C   0  0  0  1  0  0  0  0  0  0  0  0
   -2.5377    0.2892    0.7550 O   0  0  0  1  0  0  0  0  0  0  0  0
   -0.6858   -0.0866   -0.4615 N   0  0  0  1  0  0  0  0  0  0  0  0
   -2.5590    3.7778    0.6063 H   0  0  0  1  0  0  0  0  0  0  0  0
   -2.5253    2.5247    2.1677 C   0  0  0  1  0  0  0  0  0  0  0  0
   -0.8420   -1.5331   -0.4956 C   0  0  0  1  0  0  0  0  0  0  0  0
   -3.5055    3.4104    2.9120 C   0  0  0  1  0  0  0  0  0  0  0  0
   -2.0899    1.4902    2.6715 O   0  0  0  1  0  0  0  0  0  0  0  0
    0.0836    0.3169   -0.9151 H   0  0  0  1  0  0  0  0  0  0  0  0
    0.1180   -1.9936   -0.6023 H   0  0  0  1  0  0  0  0  0  0  0  0
   -1.4619   -1.8052   -1.3241 H   0  0  0  1  0  0  0  0  0  0  0  0
   -1.2967   -1.8640    0.4147 H   0  0  0  1  0  0  0  0  0  0  0  0
   -3.4195    3.2332    3.9638 H   0  0  0  1  0  0  0  0  0  0  0  0
   -4.5019    3.1859    2.5931 H   0  0  0  1  0  0  0  0  0  0  0  0
   -3.2868    4.4371    2.7045 H   0  0  0  1  0  0  0  0  0  0  0  0
   -1.3755    2.6763   -1.3331 C   0  0  0  1  0  0  0  0  0  0  0  0
   -2.7935    2.5904   -1.8627 C   0  0  0  1  0  0  0  0  0  0  0  0
   -3.0361    3.0120   -3.1564 C   0  0  0  1  0  0  0  0  0  0  0  0
   -4.2985    2.8626   -3.7090 C   0  0  0  1  0  0  0  0  0  0  0  0
   -5.3162    2.2967   -2.9643 C   0  0  0  1  0  0  0  0  0  0  0  0
   -5.0731    1.8738   -1.6668 C   0  0  0  1  0  0  0  0  0  0  0  0
   -3.8143    2.0229   -1.1160 C   0  0  0  1  0  0  0  0  0  0  0  0
   -6.6058    2.1491   -3.5263 N   0  0  0  1  0  0  0  0  0  0  0  0
   -0.7446    2.0701   -1.9491 H   0  0  0  1  0  0  0  0  0  0  0  0
   -1.0534    3.6953   -1.3858 H   0  0  0  1  0  0  0  0  0  0  0  0
   -2.2713    3.4414   -3.7153 H   0  0  0  1  0  0  0  0  0  0  0  0
   -4.4800    3.1761   -4.6839 H   0  0  0  1  0  0  0  0  0  0  0  0
   -5.8378    1.4444   -1.1079 H   0  0  0  1  0  0  0  0  0  0  0  0
   -3.6329    1.7093   -0.1411 H   0  0  0  1  0  0  0  0  0  0  0  0
   -7.3171    1.7126   -3.0126 H   0  0  0  1  0  0  0  0  0  0  0  0
   -6.7880    2.4834   -4.4293 H   0  0  0  1  0  0  0  0  0  0  0  0
  1  4  1  0  0  0  0
  2  4  1  0  0  0  0
  2  5  2  0  0  0  0
  2  6  1  0  0  0  0
  3  4  1  0  0  0  0
  3  7  1  0  0  0  0
  3  8  1  0  0  0  0
  4 19  1  0  0  0  0
  6  9  1  0  0  0  0
  6 12  1  0  0  0  0
  8 10  1  0  0  0  0
  8 11  2  0  0  0  0
  9 13  1  0  0  0  0
  9 14  1  0  0  0  0
  9 15  1  0  0  0  0
 10 16  1  0  0  0  0
 10 17  1  0  0  0  0
 10 18  1  0  0  0  0
 19 20  1  0  0  0  0
 19 27  1  0  0  0  0
 19 28  1  0  0  0  0
 20 21  4  0  0  0  0
 20 25  4  0  0  0  0
 21 22  4  0  0  0  0
 21 29  1  0  0  0  0
 22 23  4  0  0  0  0
 22 30  1  0  0  0  0
 23 24  4  0  0  0  0
 23 26  1  0  0  0  0
 24 25  4  0  0  0  0
 24 31  1  0  0  0  0
 25 32  1  0  0  0  0
 26 33  1  0  0  0  0
 26 34  1  0  0  0  0
M  END
> <BCLConfClusterSize>
1

> <ConfClashScore>
0 

> <ConfOneFourInteractionScore>
-0.97054 

> <ConfScore>
0.307124 

> <ConfScorePBest>
0.00333388 

> <ConfTolerance>
0.660494 

> <RosettaParamsInstructions>
M  ROOT 3
M  POLY_N_BB 3
M  POLY_CA_BB 4
M  POLY_C_BB 2
M  POLY_O_BB 5
M  POLY_IGNORE 9 10 11 12 13 14 15 16 17 18 
M  POLY_UPPER 6
M  POLY_LOWER 8
M  POLY_CHG 0
M  POLY_PROPERTIES ALPHA_AA D_AA PROTEIN AROMATIC POLYMER 
M  END

$$$$



 34 34  0  0  0  0  0  0  0  0999 V2000
    0.4085    3.8193   -1.5626 H   0  0  0  1  0  0  0  0  0  0  0  0
   -1.0587    4.9556   -2.5500 C   0  0  0  1  0  0  0  0  0  0  0  0
   -0.0338    2.9011   -3.3629 N   0  0  0  1  0  0  0  0  0  0  0  0
   -0.4607    3.6197   -2.1539 C   0  0  0  1  0  0  0  0  0  0  0  0
   -1.9788    5.4570   -1.9094 O   0  0  0  1  0  0  0  0  0  0  0  0
   -0.5185    5.5386   -3.6318 N   0  0  0  1  0  0  0  0  0  0  0  0
   -0.5657    2.9937   -4.1807 H   0  0  0  1  0  0  0  0  0  0  0  0
    1.0525    2.1273   -3.3856 C   0  0  0  1  0  0  0  0  0  0  0  0
   -0.9203    6.8623   -4.0838 C   0  0  0  1  0  0  0  0  0  0  0  0
    1.3940    1.5040   -4.7354 C   0  0  0  1  0  0  0  0  0  0  0  0
    1.7469    1.9180   -2.3918 O   0  0  0  1  0  0  0  0  0  0  0  0
    0.1704    5.0560   -4.1348 H   0  0  0  1  0  0  0  0  0  0  0  0
   -0.2520    7.5950   -3.6820 H   0  0  0  1  0  0  0  0  0  0  0  0
   -1.9159    7.0662   -3.7489 H   0  0  0  1  0  0  0  0  0  0  0  0
   -0.8885    6.8988   -5.1527 H   0  0  0  1  0  0  0  0  0  0  0  0
    1.7413    2.2650   -5.4026 H   0  0  0  1  0  0  0  0  0  0  0  0
    0.5207    1.0417   -5.1457 H   0  0  0  1  0  0  0  0  0  0  0  0
    2.1597    0.7681   -4.6047 H   0  0  0  1  0  0  0  0  0  0  0  0
   -1.3884    2.7428   -1.3181 C   0  0  0  1  0  0  0  0  0  0  0  0
   -2.7893    2.5714   -1.8677 C   0  0  0  1  0  0  0  0  0  0  0  0
   -3.0315    2.9951   -3.1608 C   0  0  0  1  0  0  0  0  0  0  0  0
   -4.2961    2.8547   -3.7109 C   0  0  0  1  0  0  0  0  0  0  0  0
   -5.3162    2.2960   -2.9642 C   0  0  0  1  0  0  0  0  0  0  0  0
   -5.0734    1.8710   -1.6674 C   0  0  0  1  0  0  0  0  0  0  0  0
   -3.8125    2.0110   -1.1191 C   0  0  0  1  0  0  0  0  0  0  0  0
   -6.6080    2.1577   -3.5236 N   0  0  0  1  0  0  0  0  0  0  0  0
   -1.4670    3.1796   -0.3445 H   0  0  0  1  0  0  0  0  0  0  0  0
   -0.9436    1.7728   -1.2395 H   0  0  0  1  0  0  0  0  0  0  0  0
   -2.2649    3.4192   -3.7212 H   0  0  0  1  0  0  0  0  0  0  0  0
   -4.4773    3.1699   -4.6853 H   0  0  0  1  0  0  0  0  0  0  0  0
   -5.8401    1.4469   -1.1070 H   0  0  0  1  0  0  0  0  0  0  0  0
   -3.6313    1.6959   -0.1447 H   0  0  0  1  0  0  0  0  0  0  0  0
   -7.3111    1.6924   -3.0239 H   0  0  0  1  0  0  0  0  0  0  0  0
   -6.8000    2.5273   -4.4107 H   0  0  0  1  0  0  0  0  0  0  0  0
  1  4  1  0  0  0  0
  2  4  1  0  0  0  0
  2  5  2  0  0  0  0
  2  6  1  0  0  0  0
  3  4  1  0  0  0  0
  3  7  1  0  0  0  0
  3  8  1  0  0  0  0
  4 19  1  0  0  0  0
  6  9  1  0  0  0  0
  6 12  1  0  0  0  0
  8 10  1  0  0  0  0
  8 11  2  0  0  0  0
  9 13  1  0  0  0  0
  9 14  1  0  0  0  0
  9 15  1  0  0  0  0
 10 16  1  0  0  0  0
 10 17  1  0  0  0  0
 10 18  1  0  0  0  0
 19 20  1  0  0  0  0
 19 27  1  0  0  0  0
 19 28  1  0  0  0  0
 20 21  4  0  0  0  0
 20 25  4  0  0  0  0
 21 22  4  0  0  0  0
 21 29  1  0  0  0  0
 22 23  4  0  0  0  0
 22 30  1  0  0  0  0
 23 24  4  0  0  0  0
 23 26  1  0  0  0  0
 24 25  4  0  0  0  0
 24 31  1  0  0  0  0
 25 32  1  0  0  0  0
 26 33  1  0  0  0  0
 26 34  1  0  0  0  0
M  END
> <BCLConfClusterSize>
1

> <ConfClashScore>
0 

> <ConfOneFourInteractionScore>
-0.949923 

> <ConfScore>
0.314198 

> <ConfScorePBest>
0.0033054 

> <ConfTolerance>
0.818608 

> <RosettaParamsInstructions>
M  ROOT 3
M  POLY_N_BB 3
M  POLY_CA_BB 4
M  POLY_C_BB 2
M  POLY_O_BB 5
M  POLY_IGNORE 9 10 11 12 13 14 15 16 17 18 
M  POLY_UPPER 6
M  POLY_LOWER 8
M  POLY_CHG 0
M  POLY_PROPERTIES ALPHA_AA D_AA PROTEIN AROMATIC POLYMER 
M  END

$$$$



 34 34  0  0  0  0  0  0  0  0999 V2000
   -1.6763    4.5387   -0.2109 H   0  0  0  1  0  0  0  0  0  0  0  0
    0.0997    3.5964    0.5004 C   0  0  0  1  0  0  0  0  0  0  0  0
   -2.1378    2.9643    1.0719 N   0  0  0  1  0  0  0  0  0  0  0  0
   -1.3414    3.5448    0.0011 C   0  0  0  1  0  0  0  0  0  0  0  0
    1.0359    3.2582   -0.2189 O   0  0  0  1  0  0  0  0  0  0  0  0
    0.2652    4.0301    1.7593 N   0  0  0  1  0  0  0  0  0  0  0  0
   -2.3287    2.0042    1.0252 H   0  0  0  1  0  0  0  0  0  0  0  0
   -2.6324    3.6473    2.1226 C   0  0  0  1  0  0  0  0  0  0  0  0
    1.5421    3.9388    2.4514 C   0  0  0  1  0  0  0  0  0  0  0  0
   -3.3115    2.7645    3.1618 C   0  0  0  1  0  0  0  0  0  0  0  0
   -2.5600    4.8676    2.2613 O   0  0  0  1  0  0  0  0  0  0  0  0
   -0.5004    4.4221    2.2290 H   0  0  0  1  0  0  0  0  0  0  0  0
    2.2438    3.4128    1.8384 H   0  0  0  1  0  0  0  0  0  0  0  0
    1.4106    3.4131    3.3741 H   0  0  0  1  0  0  0  0  0  0  0  0
    1.9107    4.9233    2.6507 H   0  0  0  1  0  0  0  0  0  0  0  0
   -4.2205    3.2276    3.4847 H   0  0  0  1  0  0  0  0  0  0  0  0
   -2.6598    2.6355    4.0005 H   0  0  0  1  0  0  0  0  0  0  0  0
   -3.5313    1.8105    2.7302 H   0  0  0  1  0  0  0  0  0  0  0  0
   -1.4146    2.7141   -1.2697 C   0  0  0  1  0  0  0  0  0  0  0  0
   -2.7884    2.5700   -1.8680 C   0  0  0  1  0  0  0  0  0  0  0  0
   -3.0336    3.0164   -3.1528 C   0  0  0  1  0  0  0  0  0  0  0  0
   -4.2975    2.8785   -3.7053 C   0  0  0  1  0  0  0  0  0  0  0  0
   -5.3138    2.2993   -2.9691 C   0  0  0  1  0  0  0  0  0  0  0  0
   -5.0680    1.8516   -1.6805 C   0  0  0  1  0  0  0  0  0  0  0  0
   -3.8079    1.9891   -1.1298 C   0  0  0  1  0  0  0  0  0  0  0  0
   -6.6049    2.1635   -3.5307 N   0  0  0  1  0  0  0  0  0  0  0  0
   -1.0479    1.7343   -1.0451 H   0  0  0  1  0  0  0  0  0  0  0  0
   -0.7826    3.1731   -2.0009 H   0  0  0  1  0  0  0  0  0  0  0  0
   -2.2698    3.4558   -3.7053 H   0  0  0  1  0  0  0  0  0  0  0  0
   -4.4810    3.2108   -4.6735 H   0  0  0  1  0  0  0  0  0  0  0  0
   -5.8318    1.4122   -1.1280 H   0  0  0  1  0  0  0  0  0  0  0  0
   -3.6244    1.6568   -0.1616 H   0  0  0  1  0  0  0  0  0  0  0  0
   -6.7960    2.5378   -4.4160 H   0  0  0  1  0  0  0  0  0  0  0  0
   -7.3084    1.6952   -3.0344 H   0  0  0  1  0  0  0  0  0  0  0  0
  1  4  1  0  0  0  0
  2  4  1  0  0  0  0
  2  5  2  0  0  0  0
  2  6  1  0  0  0  0
  3  4  1  0  0  0  0
  3  7  1  0  0  0  0
  3  8  1  0  0  0  0
  4 19  1  0  0  0  0
  6  9  1  0  0  0  0
  6 12  1  0  0  0  0
  8 10  1  0  0  0  0
  8 11  2  0  0  0  0
  9 13  1  0  0  0  0
  9 14  1  0  0  0  0
  9 15  1  0  0  0  0
 10 16  1  0  0  0  0
 10 17  1  0  0  0  0
 10 18  1  0  0  0  0
 19 20  1  0  0  0  0
 19 27  1  0  0  0  0
 19 28  1  0  0  0  0
 20 21  4  0  0  0  0
 20 25  4  0  0  0  0
 21 22  4  0  0  0  0
 21 29  1  0  0  0  0
 22 23  4  0  0  0  0
 22 30  1  0  0  0  0
 23 24  4  0  0  0  0
 23 26  1  0  0  0  0
 24 25  4  0  0  0  0
 24 31  1  0  0  0  0
 25 32  1  0  0  0  0
 26 33  1  0  0  0  0
 26 34  1  0  0  0  0
M  END
> <BCLConfClusterSize>
1

> <ConfClashScore>
0 

> <ConfOneFourInteractionScore>
-0.95996 

> <ConfScore>
0.324355 

> <ConfScorePBest>
0.00327691 

> <ConfTolerance>
0.630031 

> <RosettaParamsInstructions>
M  ROOT 3
M  POLY_N_BB 3
M  POLY_CA_BB 4
M  POLY_C_BB 2
M  POLY_O_BB 5
M  POLY_IGNORE 9 10 11 12 13 14 15 16 17 18 
M  POLY_UPPER 6
M  POLY_LOWER 8
M  POLY_CHG 0
M  POLY_PROPERTIES ALPHA_AA D_AA PROTEIN AROMATIC POLYMER 
M  END

$$$$



 34 34  0  0  0  0  0  0  0  0999 V2000
   -2.1514    2.4695    0.7065 H   0  0  0  1  0  0  0  0  0  0  0  0
   -0.0413    2.4664    0.8038 C   0  0  0  1  0  0  0  0  0  0  0  0
   -1.4842    0.6497   -0.0122 N   0  0  0  1  0  0  0  0  0  0  0  0
   -1.3419    2.0909    0.1181 C   0  0  0  1  0  0  0  0  0  0  0  0
    0.0336    3.4602    1.5098 O   0  0  0  1  0  0  0  0  0  0  0  0
    1.0041    1.6820    0.5075 N   0  0  0  1  0  0  0  0  0  0  0  0
   -0.8990    0.1711   -0.6358 H   0  0  0  1  0  0  0  0  0  0  0  0
   -2.3926   -0.0507    0.6946 C   0  0  0  1  0  0  0  0  0  0  0  0
    2.3372    1.9312    1.0352 C   0  0  0  1  0  0  0  0  0  0  0  0
   -2.3050   -1.5497    0.4836 C   0  0  0  1  0  0  0  0  0  0  0  0
   -3.2209    0.4425    1.4423 O   0  0  0  1  0  0  0  0  0  0  0  0
    0.8660    0.9138   -0.0851 H   0  0  0  1  0  0  0  0  0  0  0  0
    2.3063    1.9178    2.1047 H   0  0  0  1  0  0  0  0  0  0  0  0
    2.6799    2.8880    0.7005 H   0  0  0  1  0  0  0  0  0  0  0  0
    3.0057    1.1711    0.6885 H   0  0  0  1  0  0  0  0  0  0  0  0
   -3.0273   -1.8504   -0.2463 H   0  0  0  1  0  0  0  0  0  0  0  0
   -2.5017   -2.0518    1.4077 H   0  0  0  1  0  0  0  0  0  0  0  0
   -1.3241   -1.8046    0.1403 H   0  0  0  1  0  0  0  0  0  0  0  0
   -1.4181    2.7413   -1.2673 C   0  0  0  1  0  0  0  0  0  0  0  0
   -2.7800    2.5414   -1.8766 C   0  0  0  1  0  0  0  0  0  0  0  0
   -3.0244    2.9912   -3.1604 C   0  0  0  1  0  0  0  0  0  0  0  0
   -4.2966    2.8873   -3.7009 C   0  0  0  1  0  0  0  0  0  0  0  0
   -5.3220    2.3387   -2.9539 C   0  0  0  1  0  0  0  0  0  0  0  0
   -5.0770    1.8876   -1.6663 C   0  0  0  1  0  0  0  0  0  0  0  0
   -3.8085    1.9913   -1.1275 C   0  0  0  1  0  0  0  0  0  0  0  0
   -6.6076    2.1486   -3.5382 N   0  0  0  1  0  0  0  0  0  0  0  0
   -0.6806    2.2986   -1.9037 H   0  0  0  1  0  0  0  0  0  0  0  0
   -1.2261    3.7898   -1.1736 H   0  0  0  1  0  0  0  0  0  0  0  0
   -2.2537    3.4076   -3.7210 H   0  0  0  1  0  0  0  0  0  0  0  0
   -4.4796    3.2221   -4.6684 H   0  0  0  1  0  0  0  0  0  0  0  0
   -5.8477    1.4712   -1.1057 H   0  0  0  1  0  0  0  0  0  0  0  0
   -3.6256    1.6565   -0.1600 H   0  0  0  1  0  0  0  0  0  0  0  0
   -6.7502    2.3531   -4.4860 H   0  0  0  1  0  0  0  0  0  0  0  0
   -7.3492    1.8133   -2.9923 H   0  0  0  1  0  0  0  0  0  0  0  0
  1  4  1  0  0  0  0
  2  4  1  0  0  0  0
  2  5  2  0  0  0  0
  2  6  1  0  0  0  0
  3  4  1  0  0  0  0
  3  7  1  0  0  0  0
  3  8  1  0  0  0  0
  4 19  1  0  0  0  0
  6  9  1  0  0  0  0
  6 12  1  0  0  0  0
  8 10  1  0  0  0  0
  8 11  2  0  0  0  0
  9 13  1  0  0  0  0
  9 14  1  0  0  0  0
  9 15  1  0  0  0  0
 10 16  1  0  0  0  0
 10 17  1  0  0  0  0
 10 18  1  0  0  0  0
 19 20  1  0  0  0  0
 19 27  1  0  0  0  0
 19 28  1  0  0  0  0
 20 21  4  0  0  0  0
 20 25  4  0  0  0  0
 21 22  4  0  0  0  0
 21 29  1  0  0  0  0
 22 23  4  0  0  0  0
 22 30  1  0  0  0  0
 23 24  4  0  0  0  0
 23 26  1  0  0  0  0
 24 25  4  0  0  0  0
 24 31  1  0  0  0  0
 25 32  1  0  0  0  0
 26 33  1  0  0  0  0
 26 34  1  0  0  0  0
M  END
> <BCLConfClusterSize>
1

> <ConfClashScore>
0 

> <ConfOneFourInteractionScore>
-0.949001 

> <ConfScore>
0.327097 

> <ConfScorePBest>
0.00324843 

> <ConfTolerance>
0.816161 

> <RosettaParamsInstructions>
M  ROOT 3
M  POLY_N_BB 3
M  POLY_CA_BB 4
M  POLY_C_BB 2
M  POLY_O_BB 5
M  POLY_IGNORE 9 10 11 12 13 14 15 16 17 18 
M  POLY_UPPER 6
M  POLY_LOWER 8
M  POLY_CHG 0
M  POLY_PROPERTIES ALPHA_AA D_AA PROTEIN AROMATIC POLYMER 
M  END

$$$$



 34 34  0  0  0  0  0  0  0  0999 V2000
   -1.2823    4.8702   -1.6107 H   0  0  0  1  0  0  0  0  0  0  0  0
    0.2253    4.4822   -0.1916 C   0  0  0  1  0  0  0  0  0  0  0  0
   -2.2709    4.5921    0.2098 N   0  0  0  1  0  0  0  0  0  0  0  0
   -1.1726    4.2371   -0.7551 C   0  0  0  1  0  0  0  0  0  0  0  0
    0.7773    5.5774   -0.3163 O   0  0  0  1  0  0  0  0  0  0  0  0
    0.8129    3.4084    0.3597 N   0  0  0  1  0  0  0  0  0  0  0  0
   -3.1674    4.2424    0.0245 H   0  0  0  1  0  0  0  0  0  0  0  0
   -2.1164    5.3471    1.2986 C   0  0  0  1  0  0  0  0  0  0  0  0
    2.1890    3.4323    0.8325 C   0  0  0  1  0  0  0  0  0  0  0  0
   -3.3708    5.5684    2.1340 C   0  0  0  1  0  0  0  0  0  0  0  0
   -1.0466    5.8374    1.6206 O   0  0  0  1  0  0  0  0  0  0  0  0
    0.2972    2.5797    0.4467 H   0  0  0  1  0  0  0  0  0  0  0  0
    2.2011    3.3633    1.9002 H   0  0  0  1  0  0  0  0  0  0  0  0
    2.6543    4.3468    0.5291 H   0  0  0  1  0  0  0  0  0  0  0  0
    2.7235    2.6043    0.4157 H   0  0  0  1  0  0  0  0  0  0  0  0
   -4.0622    4.7709    1.9583 H   0  0  0  1  0  0  0  0  0  0  0  0
   -3.8225    6.4987    1.8592 H   0  0  0  1  0  0  0  0  0  0  0  0
   -3.1089    5.5910    3.1712 H   0  0  0  1  0  0  0  0  0  0  0  0
   -1.4101    2.7243   -1.2827 C   0  0  0  1  0  0  0  0  0  0  0  0
   -2.7859    2.5756   -1.8752 C   0  0  0  1  0  0  0  0  0  0  0  0
   -3.0307    2.9946   -3.1693 C   0  0  0  1  0  0  0  0  0  0  0  0
   -4.2965    2.8524   -3.7163 C   0  0  0  1  0  0  0  0  0  0  0  0
   -5.3151    2.2965   -2.9655 C   0  0  0  1  0  0  0  0  0  0  0  0
   -5.0697    1.8763   -1.6675 C   0  0  0  1  0  0  0  0  0  0  0  0
   -3.8076    2.0181   -1.1224 C   0  0  0  1  0  0  0  0  0  0  0  0
   -6.6081    2.1564   -3.5216 N   0  0  0  1  0  0  0  0  0  0  0  0
   -1.3066    2.0461   -0.4616 H   0  0  0  1  0  0  0  0  0  0  0  0
   -0.6796    2.4946   -2.0300 H   0  0  0  1  0  0  0  0  0  0  0  0
   -2.2652    3.4165   -3.7328 H   0  0  0  1  0  0  0  0  0  0  0  0
   -4.4796    3.1640   -4.6915 H   0  0  0  1  0  0  0  0  0  0  0  0
   -5.8352    1.4543   -1.1040 H   0  0  0  1  0  0  0  0  0  0  0  0
   -3.6245    1.7065   -0.1472 H   0  0  0  1  0  0  0  0  0  0  0  0
   -7.2969    1.6529   -3.0395 H   0  0  0  1  0  0  0  0  0  0  0  0
   -6.8151    2.5628   -4.3890 H   0  0  0  1  0  0  0  0  0  0  0  0
  1  4  1  0  0  0  0
  2  4  1  0  0  0  0
  2  5  2  0  0  0  0
  2  6  1  0  0  0  0
  3  4  1  0  0  0  0
  3  7  1  0  0  0  0
  3  8  1  0  0  0  0
  4 19  1  0  0  0  0
  6  9  1  0  0  0  0
  6 12  1  0  0  0  0
  8 10  1  0  0  0  0
  8 11  2  0  0  0  0
  9 13  1  0  0  0  0
  9 14  1  0  0  0  0
  9 15  1  0  0  0  0
 10 16  1  0  0  0  0
 10 17  1  0  0  0  0
 10 18  1  0  0  0  0
 19 20  1  0  0  0  0
 19 27  1  0  0  0  0
 19 28  1  0  0  0  0
 20 21  4  0  0  0  0
 20 25  4  0  0  0  0
 21 22  4  0  0  0  0
 21 29  1  0  0  0  0
 22 23  4  0  0  0  0
 22 30  1  0  0  0  0
 23 24  4  0  0  0  0
 23 26  1  0  0  0  0
 24 25  4  0  0  0  0
 24 31  1  0  0  0  0
 25 32  1  0  0  0  0
 26 33  1  0  0  0  0
 26 34  1  0  0  0  0
M  END
> <BCLConfClusterSize>
1

> <ConfClashScore>
0 

> <ConfOneFourInteractionScore>
-0.953993 

> <ConfScore>
0.327441 

> <ConfScorePBest>
0.00321995 

> <ConfTolerance>
0.772046 

> <RosettaParamsInstructions>
M  ROOT 3
M  POLY_N_BB 3
M  POLY_CA_BB 4
M  POLY_C_BB 2
M  POLY_O_BB 5
M  POLY_IGNORE 9 10 11 12 13 14 15 16 17 18 
M  POLY_UPPER 6
M  POLY_LOWER 8
M  POLY_CHG 0
M  POLY_PROPERTIES ALPHA_AA D_AA PROTEIN AROMATIC POLYMER 
M  END

$$$$



 34 34  0  0  0  0  0  0  0  0999 V2000
   -1.7774    4.5390   -0.2606 H   0  0  0  1  0  0  0  0  0  0  0  0
    0.0144    3.7665    0.5309 C   0  0  0  1  0  0  0  0  0  0  0  0
   -2.2740    2.9563    0.9685 N   0  0  0  1  0  0  0  0  0  0  0  0
   -1.3881    3.5738   -0.0122 C   0  0  0  1  0  0  0  0  0  0  0  0
    0.9823    3.8536   -0.2201 O   0  0  0  1  0  0  0  0  0  0  0  0
    0.1176    3.8333    1.8613 N   0  0  0  1  0  0  0  0  0  0  0  0
   -3.0816    3.4495    1.2233 H   0  0  0  1  0  0  0  0  0  0  0  0
   -2.0672    1.7692    1.5454 C   0  0  0  1  0  0  0  0  0  0  0  0
    1.3823    4.0989    2.5306 C   0  0  0  1  0  0  0  0  0  0  0  0
   -3.1182    1.3316    2.5470 C   0  0  0  1  0  0  0  0  0  0  0  0
   -1.1005    1.0683    1.2951 O   0  0  0  1  0  0  0  0  0  0  0  0
   -0.6863    3.6987    2.4054 H   0  0  0  1  0  0  0  0  0  0  0  0
    1.2088    4.7073    3.3935 H   0  0  0  1  0  0  0  0  0  0  0  0
    2.0399    4.6111    1.8596 H   0  0  0  1  0  0  0  0  0  0  0  0
    1.8279    3.1736    2.8307 H   0  0  0  1  0  0  0  0  0  0  0  0
   -2.8961    0.3422    2.8885 H   0  0  0  1  0  0  0  0  0  0  0  0
   -4.0809    1.3397    2.0799 H   0  0  0  1  0  0  0  0  0  0  0  0
   -3.1194    2.0040    3.3792 H   0  0  0  1  0  0  0  0  0  0  0  0
   -1.4122    2.7234   -1.2866 C   0  0  0  1  0  0  0  0  0  0  0  0
   -2.7927    2.5693   -1.8666 C   0  0  0  1  0  0  0  0  0  0  0  0
   -3.0556    3.0048   -3.1517 C   0  0  0  1  0  0  0  0  0  0  0  0
   -4.3257    2.8577   -3.6873 C   0  0  0  1  0  0  0  0  0  0  0  0
   -5.3305    2.2803   -2.9341 C   0  0  0  1  0  0  0  0  0  0  0  0
   -5.0670    1.8435   -1.6452 C   0  0  0  1  0  0  0  0  0  0  0  0
   -3.8006    1.9902   -1.1114 C   0  0  0  1  0  0  0  0  0  0  0  0
   -6.5783    2.1843   -3.5677 N   0  0  0  1  0  0  0  0  0  0  0  0
   -1.0298    1.7513   -1.0547 H   0  0  0  1  0  0  0  0  0  0  0  0
   -0.7853    3.1886   -2.0183 H   0  0  0  1  0  0  0  0  0  0  0  0
   -2.3005    3.4429   -3.7170 H   0  0  0  1  0  0  0  0  0  0  0  0
   -4.5225    3.1818   -4.6557 H   0  0  0  1  0  0  0  0  0  0  0  0
   -5.8221    1.4054   -1.0800 H   0  0  0  1  0  0  0  0  0  0  0  0
   -3.6038    1.6661   -0.1430 H   0  0  0  1  0  0  0  0  0  0  0  0
   -6.6925    2.5255   -4.4793 H   0  0  0  1  0  0  0  0  0  0  0  0
   -7.3359    1.7760   -3.0989 H   0  0  0  1  0  0  0  0  0  0  0  0
  1  4  1  0  0  0  0
  2  4  1  0  0  0  0
  2  5  2  0  0  0  0
  2  6  1  0  0  0  0
  3  4  1  0  0  0  0
  3  7  1  0  0  0  0
  3  8  1  0  0  0  0
  4 19  1  0  0  0  0
  6  9  1  0  0  0  0
  6 12  1  0  0  0  0
  8 10  1  0  0  0  0
  8 11  2  0  0  0  0
  9 13  1  0  0  0  0
  9 14  1  0  0  0  0
  9 15  1  0  0  0  0
 10 16  1  0  0  0  0
 10 17  1  0  0  0  0
 10 18  1  0  0  0  0
 19 20  1  0  0  0  0
 19 27  1  0  0  0  0
 19 28  1  0  0  0  0
 20 21  4  0  0  0  0
 20 25  4  0  0  0  0
 21 22  4  0  0  0  0
 21 29  1  0  0  0  0
 22 23  4  0  0  0  0
 22 30  1  0  0  0  0
 23 24  4  0  0  0  0
 23 26  1  0  0  0  0
 24 25  4  0  0  0  0
 24 31  1  0  0  0  0
 25 32  1  0  0  0  0
 26 33  1  0  0  0  0
 26 34  1  0  0  0  0
M  END
> <BCLConfClusterSize>
1

> <ConfClashScore>
0 

> <ConfOneFourInteractionScore>
-0.953847 

> <ConfScore>
0.349797 

> <ConfScorePBest>
0.00319147 

> <ConfTolerance>
0.640972 

> <RosettaParamsInstructions>
M  ROOT 3
M  POLY_N_BB 3
M  POLY_CA_BB 4
M  POLY_C_BB 2
M  POLY_O_BB 5
M  POLY_IGNORE 9 10 11 12 13 14 15 16 17 18 
M  POLY_UPPER 6
M  POLY_LOWER 8
M  POLY_CHG 0
M  POLY_PROPERTIES ALPHA_AA D_AA PROTEIN AROMATIC POLYMER 
M  END

$$$$



 34 34  0  0  0  0  0  0  0  0999 V2000
   -0.2164    4.0804   -0.2079 H   0  0  0  1  0  0  0  0  0  0  0  0
   -1.9709    3.9110    0.9197 C   0  0  0  1  0  0  0  0  0  0  0  0
   -1.6747    5.1764   -1.1712 N   0  0  0  1  0  0  0  0  0  0  0  0
   -1.2604    3.9773   -0.4182 C   0  0  0  1  0  0  0  0  0  0  0  0
   -2.7138    4.8202    1.2953 O   0  0  0  1  0  0  0  0  0  0  0  0
   -1.7356    2.8101    1.6511 N   0  0  0  1  0  0  0  0  0  0  0  0
   -2.5580    5.1866   -1.5955 H   0  0  0  1  0  0  0  0  0  0  0  0
   -0.8797    6.2593   -1.2960 C   0  0  0  1  0  0  0  0  0  0  0  0
   -2.3479    2.6596    2.9627 C   0  0  0  1  0  0  0  0  0  0  0  0
   -1.2427    7.2931   -2.3441 C   0  0  0  1  0  0  0  0  0  0  0  0
    0.1111    6.4060   -0.5816 O   0  0  0  1  0  0  0  0  0  0  0  0
   -1.1502    2.1064    1.3010 H   0  0  0  1  0  0  0  0  0  0  0  0
   -2.0910    3.4984    3.5752 H   0  0  0  1  0  0  0  0  0  0  0  0
   -1.9915    1.7609    3.4213 H   0  0  0  1  0  0  0  0  0  0  0  0
   -3.4113    2.6086    2.8558 H   0  0  0  1  0  0  0  0  0  0  0  0
   -0.5832    8.1317   -2.2621 H   0  0  0  1  0  0  0  0  0  0  0  0
   -2.2512    7.6165   -2.1914 H   0  0  0  1  0  0  0  0  0  0  0  0
   -1.1500    6.8607   -3.3184 H   0  0  0  1  0  0  0  0  0  0  0  0
   -1.4095    2.7224   -1.2835 C   0  0  0  1  0  0  0  0  0  0  0  0
   -2.7856    2.5745   -1.8756 C   0  0  0  1  0  0  0  0  0  0  0  0
   -3.0332    3.0039   -3.1658 C   0  0  0  1  0  0  0  0  0  0  0  0
   -4.2993    2.8626   -3.7125 C   0  0  0  1  0  0  0  0  0  0  0  0
   -5.3152    2.2971   -2.9653 C   0  0  0  1  0  0  0  0  0  0  0  0
   -5.0670    1.8664   -1.6713 C   0  0  0  1  0  0  0  0  0  0  0  0
   -3.8047    2.0074   -1.1264 C   0  0  0  1  0  0  0  0  0  0  0  0
   -6.6085    2.1578   -3.5210 N   0  0  0  1  0  0  0  0  0  0  0  0
   -1.2056    1.8646   -0.6773 H   0  0  0  1  0  0  0  0  0  0  0  0
   -0.6988    2.7728   -2.0818 H   0  0  0  1  0  0  0  0  0  0  0  0
   -2.2697    3.4331   -3.7266 H   0  0  0  1  0  0  0  0  0  0  0  0
   -4.4846    3.1820   -4.6847 H   0  0  0  1  0  0  0  0  0  0  0  0
   -5.8305    1.4372   -1.1105 H   0  0  0  1  0  0  0  0  0  0  0  0
   -3.6194    1.6879   -0.1542 H   0  0  0  1  0  0  0  0  0  0  0  0
   -7.3315    1.7663   -2.9877 H   0  0  0  1  0  0  0  0  0  0  0  0
   -6.7815    2.4528   -4.4394 H   0  0  0  1  0  0  0  0  0  0  0  0
  1  4  1  0  0  0  0
  2  4  1  0  0  0  0
  2  5  2  0  0  0  0
  2  6  1  0  0  0  0
  3  4  1  0  0  0  0
  3  7  1  0  0  0  0
  3  8  1  0  0  0  0
  4 19  1  0  0  0  0
  6  9  1  0  0  0  0
  6 12  1  0  0  0  0
  8 10  1  0  0  0  0
  8 11  2  0  0  0  0
  9 13  1  0  0  0  0
  9 14  1  0  0  0  0
  9 15  1  0  0  0  0
 10 16  1  0  0  0  0
 10 17  1  0  0  0  0
 10 18  1  0  0  0  0
 19 20  1  0  0  0  0
 19 27  1  0  0  0  0
 19 28  1  0  0  0  0
 20 21  4  0  0  0  0
 20 25  4  0  0  0  0
 21 22  4  0  0  0  0
 21 29  1  0  0  0  0
 22 23  4  0  0  0  0
 22 30  1  0  0  0  0
 23 24  4  0  0  0  0
 23 26  1  0  0  0  0
 24 25  4  0  0  0  0
 24 31  1  0  0  0  0
 25 32  1  0  0  0  0
 26 33  1  0  0  0  0
 26 34  1  0  0  0  0
M  END
> <BCLConfClusterSize>
1

> <ConfClashScore>
0 

> <ConfOneFourInteractionScore>
-0.977982 

> <ConfScore>
0.353926 

> <ConfScorePBest>
0.00316299 

> <ConfTolerance>
0.787821 

> <RosettaParamsInstructions>
M  ROOT 3
M  POLY_N_BB 3
M  POLY_CA_BB 4
M  POLY_C_BB 2
M  POLY_O_BB 5
M  POLY_IGNORE 9 10 11 12 13 14 15 16 17 18 
M  POLY_UPPER 6
M  POLY_LOWER 8
M  POLY_CHG 0
M  POLY_PROPERTIES ALPHA_AA D_AA PROTEIN AROMATIC POLYMER 
M  END

$$$$



 34 34  0  0  0  0  0  0  0  0999 V2000
   -0.5424    1.7250   -2.9113 H   0  0  0  1  0  0  0  0  0  0  0  0
   -0.8075    0.2454   -1.4614 C   0  0  0  1  0  0  0  0  0  0  0  0
    0.9307    1.9834   -1.4916 N   0  0  0  1  0  0  0  0  0  0  0  0
   -0.4662    1.6673   -1.8456 C   0  0  0  1  0  0  0  0  0  0  0  0
   -1.4189    0.0022   -0.4224 O   0  0  0  1  0  0  0  0  0  0  0  0
   -0.4256   -0.7363   -2.2833 N   0  0  0  1  0  0  0  0  0  0  0  0
    1.2943    1.5784   -0.6767 H   0  0  0  1  0  0  0  0  0  0  0  0
    1.7452    2.7881   -2.2053 C   0  0  0  1  0  0  0  0  0  0  0  0
   -0.7750   -2.1289   -2.0460 C   0  0  0  1  0  0  0  0  0  0  0  0
    3.0811    3.1612   -1.6036 C   0  0  0  1  0  0  0  0  0  0  0  0
    1.4130    3.2072   -3.3133 O   0  0  0  1  0  0  0  0  0  0  0  0
    0.1085   -0.5107   -3.0734 H   0  0  0  1  0  0  0  0  0  0  0  0
    0.0172   -2.7598   -2.3914 H   0  0  0  1  0  0  0  0  0  0  0  0
   -1.6750   -2.3655   -2.5741 H   0  0  0  1  0  0  0  0  0  0  0  0
   -0.9242   -2.2854   -0.9981 H   0  0  0  1  0  0  0  0  0  0  0  0
    3.6414    3.7392   -2.3085 H   0  0  0  1  0  0  0  0  0  0  0  0
    3.6236    2.2715   -1.3608 H   0  0  0  1  0  0  0  0  0  0  0  0
    2.9237    3.7371   -0.7156 H   0  0  0  1  0  0  0  0  0  0  0  0
   -1.4088    2.7193   -1.2845 C   0  0  0  1  0  0  0  0  0  0  0  0
   -2.7852    2.5728   -1.8761 C   0  0  0  1  0  0  0  0  0  0  0  0
   -3.0371    3.0181   -3.1601 C   0  0  0  1  0  0  0  0  0  0  0  0
   -4.3035    2.8780   -3.7064 C   0  0  0  1  0  0  0  0  0  0  0  0
   -5.3154    2.2979   -2.9650 C   0  0  0  1  0  0  0  0  0  0  0  0
   -5.0629    1.8513   -1.6773 C   0  0  0  1  0  0  0  0  0  0  0  0
   -3.8003    1.9910   -1.1328 C   0  0  0  1  0  0  0  0  0  0  0  0
   -6.6090    2.1599   -3.5204 N   0  0  0  1  0  0  0  0  0  0  0  0
   -1.0282    3.6917   -1.5180 H   0  0  0  1  0  0  0  0  0  0  0  0
   -1.4696    2.6051   -0.2223 H   0  0  0  1  0  0  0  0  0  0  0  0
   -2.2766    3.4582   -3.7164 H   0  0  0  1  0  0  0  0  0  0  0  0
   -4.4920    3.2095   -4.6740 H   0  0  0  1  0  0  0  0  0  0  0  0
   -5.8234    1.4112   -1.1210 H   0  0  0  1  0  0  0  0  0  0  0  0
   -3.6118    1.6596   -0.1652 H   0  0  0  1  0  0  0  0  0  0  0  0
   -7.3716    1.9530   -2.9407 H   0  0  0  1  0  0  0  0  0  0  0  0
   -6.7426    2.2713   -4.4848 H   0  0  0  1  0  0  0  0  0  0  0  0
  1  4  1  0  0  0  0
  2  4  1  0  0  0  0
  2  5  2  0  0  0  0
  2  6  1  0  0  0  0
  3  4  1  0  0  0  0
  3  7  1  0  0  0  0
  3  8  1  0  0  0  0
  4 19  1  0  0  0  0
  6  9  1  0  0  0  0
  6 12  1  0  0  0  0
  8 10  1  0  0  0  0
  8 11  2  0  0  0  0
  9 13  1  0  0  0  0
  9 14  1  0  0  0  0
  9 15  1  0  0  0  0
 10 16  1  0  0  0  0
 10 17  1  0  0  0  0
 10 18  1  0  0  0  0
 19 20  1  0  0  0  0
 19 27  1  0  0  0  0
 19 28  1  0  0  0  0
 20 21  4  0  0  0  0
 20 25  4  0  0  0  0
 21 22  4  0  0  0  0
 21 29  1  0  0  0  0
 22 23  4  0  0  0  0
 22 30  1  0  0  0  0
 23 24  4  0  0  0  0
 23 26  1  0  0  0  0
 24 25  4  0  0  0  0
 24 31  1  0  0  0  0
 25 32  1  0  0  0  0
 26 33  1  0  0  0  0
 26 34  1  0  0  0  0
M  END
> <BCLConfClusterSize>
1

> <ConfClashScore>
0 

> <ConfOneFourInteractionScore>
-0.979783 

> <ConfScore>
0.358517 

> <ConfScorePBest>
0.00313451 

> <ConfTolerance>
0.741299 

> <RosettaParamsInstructions>
M  ROOT 3
M  POLY_N_BB 3
M  POLY_CA_BB 4
M  POLY_C_BB 2
M  POLY_O_BB 5
M  POLY_IGNORE 9 10 11 12 13 14 15 16 17 18 
M  POLY_UPPER 6
M  POLY_LOWER 8
M  POLY_CHG 0
M  POLY_PROPERTIES ALPHA_AA D_AA PROTEIN AROMATIC POLYMER 
M  END

$$$$



 34 34  0  0  0  0  0  0  0  0999 V2000
   -0.1874    2.1262    0.3373 H   0  0  0  1  0  0  0  0  0  0  0  0
   -1.6287    0.6171    0.0927 C   0  0  0  1  0  0  0  0  0  0  0  0
   -1.9560    2.8379    1.1112 N   0  0  0  1  0  0  0  0  0  0  0  0
   -1.2303    2.0801    0.1027 C   0  0  0  1  0  0  0  0  0  0  0  0
   -2.0362    0.0606    1.1090 O   0  0  0  1  0  0  0  0  0  0  0  0
   -1.5054   -0.0129   -1.0862 N   0  0  0  1  0  0  0  0  0  0  0  0
   -2.8521    2.5398    1.3728 H   0  0  0  1  0  0  0  0  0  0  0  0
   -1.4429    3.9258    1.6927 C   0  0  0  1  0  0  0  0  0  0  0  0
   -1.8816   -1.4073   -1.2657 C   0  0  0  1  0  0  0  0  0  0  0  0
   -2.2415    4.4491    2.8880 C   0  0  0  1  0  0  0  0  0  0  0  0
   -0.3762    4.4464    1.3773 O   0  0  0  1  0  0  0  0  0  0  0  0
   -1.1497    0.4834   -1.8528 H   0  0  0  1  0  0  0  0  0  0  0  0
   -2.4530   -1.5102   -2.1644 H   0  0  0  1  0  0  0  0  0  0  0  0
   -2.4692   -1.7281   -0.4310 H   0  0  0  1  0  0  0  0  0  0  0  0
   -0.9992   -2.0086   -1.3334 H   0  0  0  1  0  0  0  0  0  0  0  0
   -2.3907    3.6574    3.5921 H   0  0  0  1  0  0  0  0  0  0  0  0
   -3.1907    4.8107    2.5517 H   0  0  0  1  0  0  0  0  0  0  0  0
   -1.7015    5.2454    3.3562 H   0  0  0  1  0  0  0  0  0  0  0  0
   -1.4152    2.7162   -1.2688 C   0  0  0  1  0  0  0  0  0  0  0  0
   -2.7887    2.5711   -1.8676 C   0  0  0  1  0  0  0  0  0  0  0  0
   -3.0309    3.0067   -3.1567 C   0  0  0  1  0  0  0  0  0  0  0  0
   -4.2946    2.8680   -3.7094 C   0  0  0  1  0  0  0  0  0  0  0  0
   -5.3137    2.2988   -2.9693 C   0  0  0  1  0  0  0  0  0  0  0  0
   -5.0709    1.8618   -1.6764 C   0  0  0  1  0  0  0  0  0  0  0  0
   -3.8109    2.0002   -1.1255 C   0  0  0  1  0  0  0  0  0  0  0  0
   -6.6045    2.1621   -3.5312 N   0  0  0  1  0  0  0  0  0  0  0  0
   -0.7136    2.2652   -1.9391 H   0  0  0  1  0  0  0  0  0  0  0  0
   -1.2028    3.7611   -1.1794 H   0  0  0  1  0  0  0  0  0  0  0  0
   -2.2650    3.4387   -3.7121 H   0  0  0  1  0  0  0  0  0  0  0  0
   -4.4758    3.1921   -4.6808 H   0  0  0  1  0  0  0  0  0  0  0  0
   -5.8368    1.4299   -1.1210 H   0  0  0  1  0  0  0  0  0  0  0  0
   -3.6298    1.6761   -0.1540 H   0  0  0  1  0  0  0  0  0  0  0  0
   -6.7623    2.4172   -4.4642 H   0  0  0  1  0  0  0  0  0  0  0  0
   -7.3411    1.8123   -2.9876 H   0  0  0  1  0  0  0  0  0  0  0  0
  1  4  1  0  0  0  0
  2  4  1  0  0  0  0
  2  5  2  0  0  0  0
  2  6  1  0  0  0  0
  3  4  1  0  0  0  0
  3  7  1  0  0  0  0
  3  8  1  0  0  0  0
  4 19  1  0  0  0  0
  6  9  1  0  0  0  0
  6 12  1  0  0  0  0
  8 10  1  0  0  0  0
  8 11  2  0  0  0  0
  9 13  1  0  0  0  0
  9 14  1  0  0  0  0
  9 15  1  0  0  0  0
 10 16  1  0  0  0  0
 10 17  1  0  0  0  0
 10 18  1  0  0  0  0
 19 20  1  0  0  0  0
 19 27  1  0  0  0  0
 19 28  1  0  0  0  0
 20 21  4  0  0  0  0
 20 25  4  0  0  0  0
 21 22  4  0  0  0  0
 21 29  1  0  0  0  0
 22 23  4  0  0  0  0
 22 30  1  0  0  0  0
 23 24  4  0  0  0  0
 23 26  1  0  0  0  0
 24 25  4  0  0  0  0
 24 31  1  0  0  0  0
 25 32  1  0  0  0  0
 26 33  1  0  0  0  0
 26 34  1  0  0  0  0
M  END
> <BCLConfClusterSize>
1

> <ConfClashScore>
0 

> <ConfOneFourInteractionScore>
-0.926494 

> <ConfScore>
0.361036 

> <ConfScorePBest>
0.00310603 

> <ConfTolerance>
0.961266 

> <RosettaParamsInstructions>
M  ROOT 3
M  POLY_N_BB 3
M  POLY_CA_BB 4
M  POLY_C_BB 2
M  POLY_O_BB 5
M  POLY_IGNORE 9 10 11 12 13 14 15 16 17 18 
M  POLY_UPPER 6
M  POLY_LOWER 8
M  POLY_CHG 0
M  POLY_PROPERTIES ALPHA_AA D_AA PROTEIN AROMATIC POLYMER 
M  END

$$$$



 34 34  0  0  0  0  0  0  0  0999 V2000
   -0.2423    4.3201   -0.5455 H   0  0  0  1  0  0  0  0  0  0  0  0
   -1.4953    3.7321    1.0359 C   0  0  0  1  0  0  0  0  0  0  0  0
   -2.1398    5.0617   -0.9628 N   0  0  0  1  0  0  0  0  0  0  0  0
   -1.2564    3.9961   -0.4380 C   0  0  0  1  0  0  0  0  0  0  0  0
   -1.3408    2.6194    1.5132 O   0  0  0  1  0  0  0  0  0  0  0  0
   -1.8818    4.7922    1.7632 N   0  0  0  1  0  0  0  0  0  0  0  0
   -1.7876    5.6781   -1.6383 H   0  0  0  1  0  0  0  0  0  0  0  0
   -3.4131    5.2138   -0.5434 C   0  0  0  1  0  0  0  0  0  0  0  0
   -2.1948    4.6900    3.1807 C   0  0  0  1  0  0  0  0  0  0  0  0
   -4.1868    6.3491   -1.1850 C   0  0  0  1  0  0  0  0  0  0  0  0
   -3.9305    4.4876    0.3043 O   0  0  0  1  0  0  0  0  0  0  0  0
   -1.9557    5.6653    1.3242 H   0  0  0  1  0  0  0  0  0  0  0  0
   -2.6111    3.7260    3.3860 H   0  0  0  1  0  0  0  0  0  0  0  0
   -2.9027    5.4476    3.4449 H   0  0  0  1  0  0  0  0  0  0  0  0
   -1.3006    4.8214    3.7535 H   0  0  0  1  0  0  0  0  0  0  0  0
   -3.8803    6.4590   -2.2042 H   0  0  0  1  0  0  0  0  0  0  0  0
   -3.9923    7.2576   -0.6543 H   0  0  0  1  0  0  0  0  0  0  0  0
   -5.2339    6.1317   -1.1492 H   0  0  0  1  0  0  0  0  0  0  0  0
   -1.4158    2.7190   -1.2681 C   0  0  0  1  0  0  0  0  0  0  0  0
   -2.7890    2.5726   -1.8671 C   0  0  0  1  0  0  0  0  0  0  0  0
   -3.0275    2.9940   -3.1617 C   0  0  0  1  0  0  0  0  0  0  0  0
   -4.2909    2.8541   -3.7147 C   0  0  0  1  0  0  0  0  0  0  0  0
   -5.3135    2.2980   -2.9695 C   0  0  0  1  0  0  0  0  0  0  0  0
   -5.0745    1.8753   -1.6712 C   0  0  0  1  0  0  0  0  0  0  0  0
   -3.8148    2.0149   -1.1200 C   0  0  0  1  0  0  0  0  0  0  0  0
   -6.6041    2.1602   -3.5318 N   0  0  0  1  0  0  0  0  0  0  0  0
   -1.2285    1.8763   -0.6358 H   0  0  0  1  0  0  0  0  0  0  0  0
   -0.6982    2.7367   -2.0615 H   0  0  0  1  0  0  0  0  0  0  0  0
   -2.2589    3.4162   -3.7209 H   0  0  0  1  0  0  0  0  0  0  0  0
   -4.4693    3.1675   -4.6902 H   0  0  0  1  0  0  0  0  0  0  0  0
   -5.8430    1.4532   -1.1119 H   0  0  0  1  0  0  0  0  0  0  0  0
   -3.6365    1.7014   -0.1445 H   0  0  0  1  0  0  0  0  0  0  0  0
   -6.7288    2.2483   -4.4998 H   0  0  0  1  0  0  0  0  0  0  0  0
   -7.3735    1.9765   -2.9533 H   0  0  0  1  0  0  0  0  0  0  0  0
  1  4  1  0  0  0  0
  2  4  1  0  0  0  0
  2  5  2  0  0  0  0
  2  6  1  0  0  0  0
  3  4  1  0  0  0  0
  3  7  1  0  0  0  0
  3  8  1  0  0  0  0
  4 19  1  0  0  0  0
  6  9  1  0  0  0  0
  6 12  1  0  0  0  0
  8 10  1  0  0  0  0
  8 11  2  0  0  0  0
  9 13  1  0  0  0  0
  9 14  1  0  0  0  0
  9 15  1  0  0  0  0
 10 16  1  0  0  0  0
 10 17  1  0  0  0  0
 10 18  1  0  0  0  0
 19 20  1  0  0  0  0
 19 27  1  0  0  0  0
 19 28  1  0  0  0  0
 20 21  4  0  0  0  0
 20 25  4  0  0  0  0
 21 22  4  0  0  0  0
 21 29  1  0  0  0  0
 22 23  4  0  0  0  0
 22 30  1  0  0  0  0
 23 24  4  0  0  0  0
 23 26  1  0  0  0  0
 24 25  4  0  0  0  0
 24 31  1  0  0  0  0
 25 32  1  0  0  0  0
 26 33  1  0  0  0  0
 26 34  1  0  0  0  0
M  END
> <BCLConfClusterSize>
1

> <ConfClashScore>
0 

> <ConfOneFourInteractionScore>
-0.934113 

> <ConfScore>
0.367733 

> <ConfScorePBest>
0.00307755 

> <ConfTolerance>
0.345978 

> <RosettaParamsInstructions>
M  ROOT 3
M  POLY_N_BB 3
M  POLY_CA_BB 4
M  POLY_C_BB 2
M  POLY_O_BB 5
M  POLY_IGNORE 9 10 11 12 13 14 15 16 17 18 
M  POLY_UPPER 6
M  POLY_LOWER 8
M  POLY_CHG 0
M  POLY_PROPERTIES ALPHA_AA D_AA PROTEIN AROMATIC POLYMER 
M  END

$$$$



 34 34  0  0  0  0  0  0  0  0999 V2000
   -0.4328    2.7551   -3.2083 H   0  0  0  1  0  0  0  0  0  0  0  0
    0.9583    3.3281   -1.7221 C   0  0  0  1  0  0  0  0  0  0  0  0
   -0.8835    4.7019   -2.6639 N   0  0  0  1  0  0  0  0  0  0  0  0
   -0.4328    3.3601   -2.3258 C   0  0  0  1  0  0  0  0  0  0  0  0
    1.2103    3.9105   -0.6706 O   0  0  0  1  0  0  0  0  0  0  0  0
    1.8702    2.6340   -2.4046 N   0  0  0  1  0  0  0  0  0  0  0  0
   -1.4855    5.1681   -2.0470 H   0  0  0  1  0  0  0  0  0  0  0  0
   -0.5018    5.3254   -3.7957 C   0  0  0  1  0  0  0  0  0  0  0  0
    3.2286    2.5145   -1.8961 C   0  0  0  1  0  0  0  0  0  0  0  0
   -1.1641    6.6738   -4.0016 C   0  0  0  1  0  0  0  0  0  0  0  0
    0.3034    4.8733   -4.6054 O   0  0  0  1  0  0  0  0  0  0  0  0
    1.6251    2.2036   -3.2502 H   0  0  0  1  0  0  0  0  0  0  0  0
    3.9228    2.7791   -2.6661 H   0  0  0  1  0  0  0  0  0  0  0  0
    3.4061    1.5054   -1.5876 H   0  0  0  1  0  0  0  0  0  0  0  0
    3.3555    3.1710   -1.0608 H   0  0  0  1  0  0  0  0  0  0  0  0
   -0.6446    7.4173   -3.4339 H   0  0  0  1  0  0  0  0  0  0  0  0
   -2.1823    6.6242   -3.6766 H   0  0  0  1  0  0  0  0  0  0  0  0
   -1.1327    6.9315   -5.0396 H   0  0  0  1  0  0  0  0  0  0  0  0
   -1.3966    2.7426   -1.3209 C   0  0  0  1  0  0  0  0  0  0  0  0
   -2.7888    2.5720   -1.8673 C   0  0  0  1  0  0  0  0  0  0  0  0
   -3.0297    2.9907   -3.1622 C   0  0  0  1  0  0  0  0  0  0  0  0
   -4.2942    2.8500   -3.7125 C   0  0  0  1  0  0  0  0  0  0  0  0
   -5.3155    2.2958   -2.9641 C   0  0  0  1  0  0  0  0  0  0  0  0
   -5.0741    1.8758   -1.6653 C   0  0  0  1  0  0  0  0  0  0  0  0
   -3.8133    2.0162   -1.1169 C   0  0  0  1  0  0  0  0  0  0  0  0
   -6.6072    2.1571   -3.5236 N   0  0  0  1  0  0  0  0  0  0  0  0
   -1.4438    3.3767   -0.4603 H   0  0  0  1  0  0  0  0  0  0  0  0
   -1.0223    1.7815   -1.0363 H   0  0  0  1  0  0  0  0  0  0  0  0
   -2.2621    3.4114   -3.7239 H   0  0  0  1  0  0  0  0  0  0  0  0
   -4.4744    3.1614   -4.6883 H   0  0  0  1  0  0  0  0  0  0  0  0
   -5.8417    1.4551   -1.1037 H   0  0  0  1  0  0  0  0  0  0  0  0
   -3.6331    1.7048   -0.1411 H   0  0  0  1  0  0  0  0  0  0  0  0
   -7.2928    1.6400   -3.0514 H   0  0  0  1  0  0  0  0  0  0  0  0
   -6.8166    2.5782   -4.3834 H   0  0  0  1  0  0  0  0  0  0  0  0
  1  4  1  0  0  0  0
  2  4  1  0  0  0  0
  2  5  2  0  0  0  0
  2  6  1  0  0  0  0
  3  4  1  0  0  0  0
  3  7  1  0  0  0  0
  3  8  1  0  0  0  0
  4 19  1  0  0  0  0
  6  9  1  0  0  0  0
  6 12  1  0  0  0  0
  8 10  1  0  0  0  0
  8 11  2  0  0  0  0
  9 13  1  0  0  0  0
  9 14  1  0  0  0  0
  9 15  1  0  0  0  0
 10 16  1  0  0  0  0
 10 17  1  0  0  0  0
 10 18  1  0  0  0  0
 19 20  1  0  0  0  0
 19 27  1  0  0  0  0
 19 28  1  0  0  0  0
 20 21  4  0  0  0  0
 20 25  4  0  0  0  0
 21 22  4  0  0  0  0
 21 29  1  0  0  0  0
 22 23  4  0  0  0  0
 22 30  1  0  0  0  0
 23 24  4  0  0  0  0
 23 26  1  0  0  0  0
 24 25  4  0  0  0  0
 24 31  1  0  0  0  0
 25 32  1  0  0  0  0
 26 33  1  0  0  0  0
 26 34  1  0  0  0  0
M  END
> <BCLConfClusterSize>
1

> <ConfClashScore>
0 

> <ConfOneFourInteractionScore>
-0.960138 

> <ConfScore>
0.374393 

> <ConfScorePBest>
0.00304907 

> <ConfTolerance>
0.857249 

> <RosettaParamsInstructions>
M  ROOT 3
M  POLY_N_BB 3
M  POLY_CA_BB 4
M  POLY_C_BB 2
M  POLY_O_BB 5
M  POLY_IGNORE 9 10 11 12 13 14 15 16 17 18 
M  POLY_UPPER 6
M  POLY_LOWER 8
M  POLY_CHG 0
M  POLY_PROPERTIES ALPHA_AA D_AA PROTEIN AROMATIC POLYMER 
M  END

$$$$



 34 34  0  0  0  0  0  0  0  0999 V2000
   -1.5214    0.5659   -1.5313 H   0  0  0  1  0  0  0  0  0  0  0  0
   -0.4773    0.9440    0.2613 C   0  0  0  1  0  0  0  0  0  0  0  0
    0.3923    1.1101   -2.0926 N   0  0  0  1  0  0  0  0  0  0  0  0
   -0.7725    1.2583   -1.2078 C   0  0  0  1  0  0  0  0  0  0  0  0
    0.5256    0.3343    0.5961 O   0  0  0  1  0  0  0  0  0  0  0  0
   -1.4090    1.3969    1.1050 N   0  0  0  1  0  0  0  0  0  0  0  0
    0.5417    1.8067   -2.7655 H   0  0  0  1  0  0  0  0  0  0  0  0
    1.2850    0.0711   -2.0472 C   0  0  0  1  0  0  0  0  0  0  0  0
   -1.3183    1.1969    2.5436 C   0  0  0  1  0  0  0  0  0  0  0  0
    2.3823    0.0484   -3.1116 C   0  0  0  1  0  0  0  0  0  0  0  0
    1.1766   -0.8572   -1.2471 O   0  0  0  1  0  0  0  0  0  0  0  0
   -2.1804    1.8806    0.7425 H   0  0  0  1  0  0  0  0  0  0  0  0
   -1.8101    2.0023    3.0480 H   0  0  0  1  0  0  0  0  0  0  0  0
   -0.2892    1.1690    2.8354 H   0  0  0  1  0  0  0  0  0  0  0  0
   -1.7889    0.2722    2.8053 H   0  0  0  1  0  0  0  0  0  0  0  0
    3.1839   -0.5806   -2.7848 H   0  0  0  1  0  0  0  0  0  0  0  0
    2.7491    1.0416   -3.2666 H   0  0  0  1  0  0  0  0  0  0  0  0
    1.9820   -0.3317   -4.0282 H   0  0  0  1  0  0  0  0  0  0  0  0
   -1.3896    2.6592   -1.2975 C   0  0  0  1  0  0  0  0  0  0  0  0
   -2.7905    2.5933   -1.8703 C   0  0  0  1  0  0  0  0  0  0  0  0
   -3.0375    3.0176   -3.1622 C   0  0  0  1  0  0  0  0  0  0  0  0
   -4.3012    2.8671   -3.7117 C   0  0  0  1  0  0  0  0  0  0  0  0
   -5.3157    2.2975   -2.9655 C   0  0  0  1  0  0  0  0  0  0  0  0
   -5.0681    1.8719   -1.6698 C   0  0  0  1  0  0  0  0  0  0  0  0
   -3.8081    2.0221   -1.1221 C   0  0  0  1  0  0  0  0  0  0  0  0
   -6.6066    2.1489   -3.5242 N   0  0  0  1  0  0  0  0  0  0  0  0
   -0.7806    3.2710   -1.9297 H   0  0  0  1  0  0  0  0  0  0  0  0
   -1.4309    3.0878   -0.3180 H   0  0  0  1  0  0  0  0  0  0  0  0
   -2.2751    3.4499   -3.7222 H   0  0  0  1  0  0  0  0  0  0  0  0
   -4.4860    3.1828   -4.6853 H   0  0  0  1  0  0  0  0  0  0  0  0
   -5.8305    1.4397   -1.1098 H   0  0  0  1  0  0  0  0  0  0  0  0
   -3.6234    1.7064   -0.1485 H   0  0  0  1  0  0  0  0  0  0  0  0
   -7.3280    1.7525   -2.9924 H   0  0  0  1  0  0  0  0  0  0  0  0
   -6.7796    2.4424   -4.4431 H   0  0  0  1  0  0  0  0  0  0  0  0
  1  4  1  0  0  0  0
  2  4  1  0  0  0  0
  2  5  2  0  0  0  0
  2  6  1  0  0  0  0
  3  4  1  0  0  0  0
  3  7  1  0  0  0  0
  3  8  1  0  0  0  0
  4 19  1  0  0  0  0
  6  9  1  0  0  0  0
  6 12  1  0  0  0  0
  8 10  1  0  0  0  0
  8 11  2  0  0  0  0
  9 13  1  0  0  0  0
  9 14  1  0  0  0  0
  9 15  1  0  0  0  0
 10 16  1  0  0  0  0
 10 17  1  0  0  0  0
 10 18  1  0  0  0  0
 19 20  1  0  0  0  0
 19 27  1  0  0  0  0
 19 28  1  0  0  0  0
 20 21  4  0  0  0  0
 20 25  4  0  0  0  0
 21 22  4  0  0  0  0
 21 29  1  0  0  0  0
 22 23  4  0  0  0  0
 22 30  1  0  0  0  0
 23 24  4  0  0  0  0
 23 26  1  0  0  0  0
 24 25  4  0  0  0  0
 24 31  1  0  0  0  0
 25 32  1  0  0  0  0
 26 33  1  0  0  0  0
 26 34  1  0  0  0  0
M  END
> <BCLConfClusterSize>
1

> <ConfClashScore>
0.000313343 

> <ConfOneFourInteractionScore>
-0.947371 

> <ConfScore>
0.377968 

> <ConfScorePBest>
0.00302059 

> <ConfTolerance>
0.891814 

> <RosettaParamsInstructions>
M  ROOT 3
M  POLY_N_BB 3
M  POLY_CA_BB 4
M  POLY_C_BB 2
M  POLY_O_BB 5
M  POLY_IGNORE 9 10 11 12 13 14 15 16 17 18 
M  POLY_UPPER 6
M  POLY_LOWER 8
M  POLY_CHG 0
M  POLY_PROPERTIES ALPHA_AA D_AA PROTEIN AROMATIC POLYMER 
M  END

$$$$



 34 34  0  0  0  0  0  0  0  0999 V2000
    0.0359    1.4321   -1.9067 H   0  0  0  1  0  0  0  0  0  0  0  0
   -1.4580    0.2552   -1.0126 C   0  0  0  1  0  0  0  0  0  0  0  0
    0.2519    1.6126    0.1318 N   0  0  0  1  0  0  0  0  0  0  0  0
   -0.5958    1.5020   -1.0459 C   0  0  0  1  0  0  0  0  0  0  0  0
   -2.2865    0.0347   -1.8813 O   0  0  0  1  0  0  0  0  0  0  0  0
   -1.2469   -0.5724    0.0231 N   0  0  0  1  0  0  0  0  0  0  0  0
    1.1979    1.3676    0.0584 H   0  0  0  1  0  0  0  0  0  0  0  0
   -0.2194    2.0408    1.3213 C   0  0  0  1  0  0  0  0  0  0  0  0
   -2.0235   -1.7876    0.2180 C   0  0  0  1  0  0  0  0  0  0  0  0
    0.7841    2.3625    2.4116 C   0  0  0  1  0  0  0  0  0  0  0  0
   -1.4251    2.1671    1.5178 O   0  0  0  1  0  0  0  0  0  0  0  0
   -0.5454   -0.3505    0.6704 H   0  0  0  1  0  0  0  0  0  0  0  0
   -3.0609   -1.5774    0.0614 H   0  0  0  1  0  0  0  0  0  0  0  0
   -1.8792   -2.1466    1.2156 H   0  0  0  1  0  0  0  0  0  0  0  0
   -1.7014   -2.5322   -0.4797 H   0  0  0  1  0  0  0  0  0  0  0  0
    1.1702    3.3491    2.2619 H   0  0  0  1  0  0  0  0  0  0  0  0
    1.5872    1.6563    2.3766 H   0  0  0  1  0  0  0  0  0  0  0  0
    0.3030    2.3091    3.3659 H   0  0  0  1  0  0  0  0  0  0  0  0
   -1.4394    2.7562   -1.2064 C   0  0  0  1  0  0  0  0  0  0  0  0
   -2.7811    2.5546   -1.8830 C   0  0  0  1  0  0  0  0  0  0  0  0
   -3.0214    3.0117   -3.1651 C   0  0  0  1  0  0  0  0  0  0  0  0
   -4.2854    2.8865   -3.7202 C   0  0  0  1  0  0  0  0  0  0  0  0
   -5.3068    2.3094   -2.9894 C   0  0  0  1  0  0  0  0  0  0  0  0
   -5.0660    1.8510   -1.7036 C   0  0  0  1  0  0  0  0  0  0  0  0
   -3.8057    1.9759   -1.1503 C   0  0  0  1  0  0  0  0  0  0  0  0
   -6.6162    2.1612   -3.5037 N   0  0  0  1  0  0  0  0  0  0  0  0
   -0.8791    3.4587   -1.7872 H   0  0  0  1  0  0  0  0  0  0  0  0
   -1.6184    3.1605   -0.2321 H   0  0  0  1  0  0  0  0  0  0  0  0
   -2.2538    3.4495   -3.7134 H   0  0  0  1  0  0  0  0  0  0  0  0
   -4.4652    3.2268   -4.6864 H   0  0  0  1  0  0  0  0  0  0  0  0
   -5.8336    1.4131   -1.1553 H   0  0  0  1  0  0  0  0  0  0  0  0
   -3.6260    1.6356   -0.1841 H   0  0  0  1  0  0  0  0  0  0  0  0
   -6.8531    2.5650   -4.3646 H   0  0  0  1  0  0  0  0  0  0  0  0
   -7.2864    1.6548   -2.9990 H   0  0  0  1  0  0  0  0  0  0  0  0
  1  4  1  0  0  0  0
  2  4  1  0  0  0  0
  2  5  2  0  0  0  0
  2  6  1  0  0  0  0
  3  4  1  0  0  0  0
  3  7  1  0  0  0  0
  3  8  1  0  0  0  0
  4 19  1  0  0  0  0
  6  9  1  0  0  0  0
  6 12  1  0  0  0  0
  8 10  1  0  0  0  0
  8 11  2  0  0  0  0
  9 13  1  0  0  0  0
  9 14  1  0  0  0  0
  9 15  1  0  0  0  0
 10 16  1  0  0  0  0
 10 17  1  0  0  0  0
 10 18  1  0  0  0  0
 19 20  1  0  0  0  0
 19 27  1  0  0  0  0
 19 28  1  0  0  0  0
 20 21  4  0  0  0  0
 20 25  4  0  0  0  0
 21 22  4  0  0  0  0
 21 29  1  0  0  0  0
 22 23  4  0  0  0  0
 22 30  1  0  0  0  0
 23 24  4  0  0  0  0
 23 26  1  0  0  0  0
 24 25  4  0  0  0  0
 24 31  1  0  0  0  0
 25 32  1  0  0  0  0
 26 33  1  0  0  0  0
 26 34  1  0  0  0  0
M  END
> <BCLConfClusterSize>
1

> <ConfClashScore>
5.7523e-05 

> <ConfOneFourInteractionScore>
-0.940738 

> <ConfScore>
0.386887 

> <ConfScorePBest>
0.00299211 

> <ConfTolerance>
0.562415 

> <RosettaParamsInstructions>
M  ROOT 3
M  POLY_N_BB 3
M  POLY_CA_BB 4
M  POLY_C_BB 2
M  POLY_O_BB 5
M  POLY_IGNORE 9 10 11 12 13 14 15 16 17 18 
M  POLY_UPPER 6
M  POLY_LOWER 8
M  POLY_CHG 0
M  POLY_PROPERTIES ALPHA_AA D_AA PROTEIN AROMATIC POLYMER 
M  END

$$$$



 34 34  0  0  0  0  0  0  0  0999 V2000
   -1.1284    4.3295   -2.5344 H   0  0  0  1  0  0  0  0  0  0  0  0
    0.0562    2.7756   -3.3102 C   0  0  0  1  0  0  0  0  0  0  0  0
    0.5607    4.1375   -1.3551 N   0  0  0  1  0  0  0  0  0  0  0  0
   -0.5293    3.5370   -2.1370 C   0  0  0  1  0  0  0  0  0  0  0  0
   -0.6548    2.3856   -4.2388 O   0  0  0  1  0  0  0  0  0  0  0  0
    1.3806    2.5615   -3.2641 N   0  0  0  1  0  0  0  0  0  0  0  0
    1.0001    3.5985   -0.6646 H   0  0  0  1  0  0  0  0  0  0  0  0
    0.9735    5.3927   -1.5529 C   0  0  0  1  0  0  0  0  0  0  0  0
    2.1079    1.9484   -4.3655 C   0  0  0  1  0  0  0  0  0  0  0  0
    2.2471    5.7888   -0.8317 C   0  0  0  1  0  0  0  0  0  0  0  0
    0.3769    6.1837   -2.2648 O   0  0  0  1  0  0  0  0  0  0  0  0
    1.8750    2.8274   -2.4607 H   0  0  0  1  0  0  0  0  0  0  0  0
    2.1298    0.8870   -4.2320 H   0  0  0  1  0  0  0  0  0  0  0  0
    3.1089    2.3259   -4.3856 H   0  0  0  1  0  0  0  0  0  0  0  0
    1.6196    2.1816   -5.2886 H   0  0  0  1  0  0  0  0  0  0  0  0
    2.4551    6.8221   -1.0155 H   0  0  0  1  0  0  0  0  0  0  0  0
    3.0599    5.1924   -1.1902 H   0  0  0  1  0  0  0  0  0  0  0  0
    2.1250    5.6313    0.2196 H   0  0  0  1  0  0  0  0  0  0  0  0
   -1.4311    2.6948   -1.2297 C   0  0  0  1  0  0  0  0  0  0  0  0
   -2.7852    2.5747   -1.8763 C   0  0  0  1  0  0  0  0  0  0  0  0
   -3.0332    3.0154   -3.1626 C   0  0  0  1  0  0  0  0  0  0  0  0
   -4.2983    2.8753   -3.7116 C   0  0  0  1  0  0  0  0  0  0  0  0
   -5.3132    2.2998   -2.9705 C   0  0  0  1  0  0  0  0  0  0  0  0
   -5.0646    1.8578   -1.6804 C   0  0  0  1  0  0  0  0  0  0  0  0
   -3.8032    1.9975   -1.1332 C   0  0  0  1  0  0  0  0  0  0  0  0
   -6.6055    2.1618   -3.5286 N   0  0  0  1  0  0  0  0  0  0  0  0
   -1.5280    3.1705   -0.2762 H   0  0  0  1  0  0  0  0  0  0  0  0
   -1.0054    1.7215   -1.1017 H   0  0  0  1  0  0  0  0  0  0  0  0
   -2.2705    3.4521   -3.7187 H   0  0  0  1  0  0  0  0  0  0  0  0
   -4.4838    3.2033   -4.6809 H   0  0  0  1  0  0  0  0  0  0  0  0
   -5.8273    1.4211   -1.1243 H   0  0  0  1  0  0  0  0  0  0  0  0
   -3.6177    1.6695   -0.1639 H   0  0  0  1  0  0  0  0  0  0  0  0
   -6.7847    2.4863   -4.4358 H   0  0  0  1  0  0  0  0  0  0  0  0
   -7.3218    1.7417   -3.0081 H   0  0  0  1  0  0  0  0  0  0  0  0
  1  4  1  0  0  0  0
  2  4  1  0  0  0  0
  2  5  2  0  0  0  0
  2  6  1  0  0  0  0
  3  4  1  0  0  0  0
  3  7  1  0  0  0  0
  3  8  1  0  0  0  0
  4 19  1  0  0  0  0
  6  9  1  0  0  0  0
  6 12  1  0  0  0  0
  8 10  1  0  0  0  0
  8 11  2  0  0  0  0
  9 13  1  0  0  0  0
  9 14  1  0  0  0  0
  9 15  1  0  0  0  0
 10 16  1  0  0  0  0
 10 17  1  0  0  0  0
 10 18  1  0  0  0  0
 19 20  1  0  0  0  0
 19 27  1  0  0  0  0
 19 28  1  0  0  0  0
 20 21  4  0  0  0  0
 20 25  4  0  0  0  0
 21 22  4  0  0  0  0
 21 29  1  0  0  0  0
 22 23  4  0  0  0  0
 22 30  1  0  0  0  0
 23 24  4  0  0  0  0
 23 26  1  0  0  0  0
 24 25  4  0  0  0  0
 24 31  1  0  0  0  0
 25 32  1  0  0  0  0
 26 33  1  0  0  0  0
 26 34  1  0  0  0  0
M  END
> <BCLConfClusterSize>
1

> <ConfClashScore>
0 

> <ConfOneFourInteractionScore>
-0.941392 

> <ConfScore>
0.39404 

> <ConfScorePBest>
0.00296363 

> <ConfTolerance>
0.777646 

> <RosettaParamsInstructions>
M  ROOT 3
M  POLY_N_BB 3
M  POLY_CA_BB 4
M  POLY_C_BB 2
M  POLY_O_BB 5
M  POLY_IGNORE 9 10 11 12 13 14 15 16 17 18 
M  POLY_UPPER 6
M  POLY_LOWER 8
M  POLY_CHG 0
M  POLY_PROPERTIES ALPHA_AA D_AA PROTEIN AROMATIC POLYMER 
M  END

$$$$



 34 34  0  0  0  0  0  0  0  0999 V2000
   -1.3979    1.1461    0.1191 H   0  0  0  1  0  0  0  0  0  0  0  0
    0.6205    1.5733   -0.3226 C   0  0  0  1  0  0  0  0  0  0  0  0
   -0.9997    0.3501   -1.7376 N   0  0  0  1  0  0  0  0  0  0  0  0
   -0.8356    1.4095   -0.7523 C   0  0  0  1  0  0  0  0  0  0  0  0
    1.3568    2.3941   -0.8737 O   0  0  0  1  0  0  0  0  0  0  0  0
    1.0354    0.7132    0.6209 N   0  0  0  1  0  0  0  0  0  0  0  0
   -1.7958   -0.2196   -1.6914 H   0  0  0  1  0  0  0  0  0  0  0  0
   -0.0940    0.1256   -2.7121 C   0  0  0  1  0  0  0  0  0  0  0  0
    2.3935    0.7284    1.1436 C   0  0  0  1  0  0  0  0  0  0  0  0
   -0.3656   -0.9989   -3.6923 C   0  0  0  1  0  0  0  0  0  0  0  0
    0.9230    0.8116   -2.8048 O   0  0  0  1  0  0  0  0  0  0  0  0
    0.4017    0.0521    0.9699 H   0  0  0  1  0  0  0  0  0  0  0  0
    2.9851    0.0053    0.6219 H   0  0  0  1  0  0  0  0  0  0  0  0
    2.3767    0.4897    2.1865 H   0  0  0  1  0  0  0  0  0  0  0  0
    2.8173    1.7013    1.0066 H   0  0  0  1  0  0  0  0  0  0  0  0
   -1.2484   -0.7771   -4.2548 H   0  0  0  1  0  0  0  0  0  0  0  0
   -0.5056   -1.9138   -3.1553 H   0  0  0  1  0  0  0  0  0  0  0  0
    0.4656   -1.0995   -4.3586 H   0  0  0  1  0  0  0  0  0  0  0  0
   -1.4124    2.7240   -1.2864 C   0  0  0  1  0  0  0  0  0  0  0  0
   -2.7928    2.5696   -1.8665 C   0  0  0  1  0  0  0  0  0  0  0  0
   -3.0547    3.0014   -3.1531 C   0  0  0  1  0  0  0  0  0  0  0  0
   -4.3247    2.8541   -3.6887 C   0  0  0  1  0  0  0  0  0  0  0  0
   -5.3305    2.2803   -2.9341 C   0  0  0  1  0  0  0  0  0  0  0  0
   -5.0680    1.8472   -1.6438 C   0  0  0  1  0  0  0  0  0  0  0  0
   -3.8017    1.9941   -1.1099 C   0  0  0  1  0  0  0  0  0  0  0  0
   -6.5782    2.1837   -3.5680 N   0  0  0  1  0  0  0  0  0  0  0  0
   -0.7617    3.0960   -2.0500 H   0  0  0  1  0  0  0  0  0  0  0  0
   -1.4579    3.4277   -0.4817 H   0  0  0  1  0  0  0  0  0  0  0  0
   -2.2988    3.4368   -3.7194 H   0  0  0  1  0  0  0  0  0  0  0  0
   -4.5207    3.1753   -4.6583 H   0  0  0  1  0  0  0  0  0  0  0  0
   -5.8239    1.4118   -1.0774 H   0  0  0  1  0  0  0  0  0  0  0  0
   -3.6057    1.6729   -0.1404 H   0  0  0  1  0  0  0  0  0  0  0  0
   -6.6809    2.4824   -4.4957 H   0  0  0  1  0  0  0  0  0  0  0  0
   -7.3471    1.8176   -3.0831 H   0  0  0  1  0  0  0  0  0  0  0  0
  1  4  1  0  0  0  0
  2  4  1  0  0  0  0
  2  5  2  0  0  0  0
  2  6  1  0  0  0  0
  3  4  1  0  0  0  0
  3  7  1  0  0  0  0
  3  8  1  0  0  0  0
  4 19  1  0  0  0  0
  6  9  1  0  0  0  0
  6 12  1  0  0  0  0
  8 10  1  0  0  0  0
  8 11  2  0  0  0  0
  9 13  1  0  0  0  0
  9 14  1  0  0  0  0
  9 15  1  0  0  0  0
 10 16  1  0  0  0  0
 10 17  1  0  0  0  0
 10 18  1  0  0  0  0
 19 20  1  0  0  0  0
 19 27  1  0  0  0  0
 19 28  1  0  0  0  0
 20 21  4  0  0  0  0
 20 25  4  0  0  0  0
 21 22  4  0  0  0  0
 21 29  1  0  0  0  0
 22 23  4  0  0  0  0
 22 30  1  0  0  0  0
 23 24  4  0  0  0  0
 23 26  1  0  0  0  0
 24 25  4  0  0  0  0
 24 31  1  0  0  0  0
 25 32  1  0  0  0  0
 26 33  1  0  0  0  0
 26 34  1  0  0  0  0
M  END
> <BCLConfClusterSize>
1

> <ConfClashScore>
0 

> <ConfOneFourInteractionScore>
-0.976539 

> <ConfScore>
0.394214 

> <ConfScorePBest>
0.00293515 

> <ConfTolerance>
0.695995 

> <RosettaParamsInstructions>
M  ROOT 3
M  POLY_N_BB 3
M  POLY_CA_BB 4
M  POLY_C_BB 2
M  POLY_O_BB 5
M  POLY_IGNORE 9 10 11 12 13 14 15 16 17 18 
M  POLY_UPPER 6
M  POLY_LOWER 8
M  POLY_CHG 0
M  POLY_PROPERTIES ALPHA_AA D_AA PROTEIN AROMATIC POLYMER 
M  END

$$$$



 34 34  0  0  0  0  0  0  0  0999 V2000
   -0.4667    3.4430    0.4290 H   0  0  0  1  0  0  0  0  0  0  0  0
   -2.5127    3.6951    0.7704 C   0  0  0  1  0  0  0  0  0  0  0  0
   -1.0573    5.0258   -0.7453 N   0  0  0  1  0  0  0  0  0  0  0  0
   -1.3206    3.7065   -0.1595 C   0  0  0  1  0  0  0  0  0  0  0  0
   -2.5239    2.9811    1.7753 O   0  0  0  1  0  0  0  0  0  0  0  0
   -3.5491    4.4796    0.4710 N   0  0  0  1  0  0  0  0  0  0  0  0
   -1.1789    5.1668   -1.7074 H   0  0  0  1  0  0  0  0  0  0  0  0
   -0.6392    6.0674    0.0549 C   0  0  0  1  0  0  0  0  0  0  0  0
   -4.8088    4.5099    1.1991 C   0  0  0  1  0  0  0  0  0  0  0  0
   -0.4756    7.3942   -0.6274 C   0  0  0  1  0  0  0  0  0  0  0  0
   -0.4261    5.8798    1.2414 O   0  0  0  1  0  0  0  0  0  0  0  0
   -3.4553    5.0807   -0.2973 H   0  0  0  1  0  0  0  0  0  0  0  0
   -5.2253    3.5249    1.2335 H   0  0  0  1  0  0  0  0  0  0  0  0
   -5.4912    5.1683    0.7035 H   0  0  0  1  0  0  0  0  0  0  0  0
   -4.6360    4.8588    2.1958 H   0  0  0  1  0  0  0  0  0  0  0  0
    0.2731    7.9665   -0.1206 H   0  0  0  1  0  0  0  0  0  0  0  0
   -1.4051    7.9237   -0.6046 H   0  0  0  1  0  0  0  0  0  0  0  0
   -0.1781    7.2383   -1.6433 H   0  0  0  1  0  0  0  0  0  0  0  0
   -1.4046    2.6794   -1.2811 C   0  0  0  1  0  0  0  0  0  0  0  0
   -2.7847    2.5614   -1.8704 C   0  0  0  1  0  0  0  0  0  0  0  0
   -3.0252    2.9942   -3.1608 C   0  0  0  1  0  0  0  0  0  0  0  0
   -4.2951    2.8803   -3.7049 C   0  0  0  1  0  0  0  0  0  0  0  0
   -5.3220    2.3388   -2.9549 C   0  0  0  1  0  0  0  0  0  0  0  0
   -5.0810    1.9047   -1.6607 C   0  0  0  1  0  0  0  0  0  0  0  0
   -3.8148    2.0183   -1.1184 C   0  0  0  1  0  0  0  0  0  0  0  0
   -6.6049    2.1382   -3.5417 N   0  0  0  1  0  0  0  0  0  0  0  0
   -1.1180    1.7251   -0.8911 H   0  0  0  1  0  0  0  0  0  0  0  0
   -0.7262    2.9664   -2.0572 H   0  0  0  1  0  0  0  0  0  0  0  0
   -2.2533    3.4054   -3.7237 H   0  0  0  1  0  0  0  0  0  0  0  0
   -4.4750    3.2024   -4.6773 H   0  0  0  1  0  0  0  0  0  0  0  0
   -5.8528    1.4935   -1.0979 H   0  0  0  1  0  0  0  0  0  0  0  0
   -3.6348    1.6963   -0.1461 H   0  0  0  1  0  0  0  0  0  0  0  0
   -6.7135    2.1960   -4.5139 H   0  0  0  1  0  0  0  0  0  0  0  0
   -7.3786    1.9423   -2.9730 H   0  0  0  1  0  0  0  0  0  0  0  0
  1  4  1  0  0  0  0
  2  4  1  0  0  0  0
  2  5  2  0  0  0  0
  2  6  1  0  0  0  0
  3  4  1  0  0  0  0
  3  7  1  0  0  0  0
  3  8  1  0  0  0  0
  4 19  1  0  0  0  0
  6  9  1  0  0  0  0
  6 12  1  0  0  0  0
  8 10  1  0  0  0  0
  8 11  2  0  0  0  0
  9 13  1  0  0  0  0
  9 14  1  0  0  0  0
  9 15  1  0  0  0  0
 10 16  1  0  0  0  0
 10 17  1  0  0  0  0
 10 18  1  0  0  0  0
 19 20  1  0  0  0  0
 19 27  1  0  0  0  0
 19 28  1  0  0  0  0
 20 21  4  0  0  0  0
 20 25  4  0  0  0  0
 21 22  4  0  0  0  0
 21 29  1  0  0  0  0
 22 23  4  0  0  0  0
 22 30  1  0  0  0  0
 23 24  4  0  0  0  0
 23 26  1  0  0  0  0
 24 25  4  0  0  0  0
 24 31  1  0  0  0  0
 25 32  1  0  0  0  0
 26 33  1  0  0  0  0
 26 34  1  0  0  0  0
M  END
> <BCLConfClusterSize>
1

> <ConfClashScore>
0 

> <ConfOneFourInteractionScore>
-0.942345 

> <ConfScore>
0.403219 

> <ConfScorePBest>
0.00290666 

> <ConfTolerance>
0.629634 

> <RosettaParamsInstructions>
M  ROOT 3
M  POLY_N_BB 3
M  POLY_CA_BB 4
M  POLY_C_BB 2
M  POLY_O_BB 5
M  POLY_IGNORE 9 10 11 12 13 14 15 16 17 18 
M  POLY_UPPER 6
M  POLY_LOWER 8
M  POLY_CHG 0
M  POLY_PROPERTIES ALPHA_AA D_AA PROTEIN AROMATIC POLYMER 
M  END

$$$$



 34 34  0  0  0  0  0  0  0  0999 V2000
   -1.1895    0.7392   -1.7005 H   0  0  0  1  0  0  0  0  0  0  0  0
   -1.0467    0.9600    0.3845 C   0  0  0  1  0  0  0  0  0  0  0  0
    0.6703    1.5203   -1.2930 N   0  0  0  1  0  0  0  0  0  0  0  0
   -0.7577    1.4455   -1.0226 C   0  0  0  1  0  0  0  0  0  0  0  0
   -1.9911    1.4114    1.0357 O   0  0  0  1  0  0  0  0  0  0  0  0
   -0.2142    0.0201    0.8597 N   0  0  0  1  0  0  0  0  0  0  0  0
    1.0136    1.2781   -2.1784 H   0  0  0  1  0  0  0  0  0  0  0  0
    1.5150    1.9188   -0.3359 C   0  0  0  1  0  0  0  0  0  0  0  0
   -0.3508   -0.5347    2.1981 C   0  0  0  1  0  0  0  0  0  0  0  0
    2.9974    1.8156   -0.6959 C   0  0  0  1  0  0  0  0  0  0  0  0
    1.1586    2.2747    0.7865 O   0  0  0  1  0  0  0  0  0  0  0  0
    0.5108   -0.3036    0.2852 H   0  0  0  1  0  0  0  0  0  0  0  0
   -1.3420   -0.9166    2.3270 H   0  0  0  1  0  0  0  0  0  0  0  0
   -0.1672    0.2316    2.9220 H   0  0  0  1  0  0  0  0  0  0  0  0
    0.3563   -1.3269    2.3294 H   0  0  0  1  0  0  0  0  0  0  0  0
    3.1465    2.1607   -1.6977 H   0  0  0  1  0  0  0  0  0  0  0  0
    3.3126    0.7959   -0.6196 H   0  0  0  1  0  0  0  0  0  0  0  0
    3.5705    2.4180   -0.0224 H   0  0  0  1  0  0  0  0  0  0  0  0
   -1.4201    2.7994   -1.2941 C   0  0  0  1  0  0  0  0  0  0  0  0
   -2.7840    2.5573   -1.8833 C   0  0  0  1  0  0  0  0  0  0  0  0
   -3.0504    2.9686   -3.1757 C   0  0  0  1  0  0  0  0  0  0  0  0
   -4.3258    2.8259   -3.6996 C   0  0  0  1  0  0  0  0  0  0  0  0
   -5.3325    2.2773   -2.9276 C   0  0  0  1  0  0  0  0  0  0  0  0
   -5.0655    1.8648   -1.6314 C   0  0  0  1  0  0  0  0  0  0  0  0
   -3.7938    2.0071   -1.1092 C   0  0  0  1  0  0  0  0  0  0  0  0
   -6.5857    2.1833   -3.5508 N   0  0  0  1  0  0  0  0  0  0  0  0
   -0.8242    3.3603   -1.9834 H   0  0  0  1  0  0  0  0  0  0  0  0
   -1.5149    3.3444   -0.3782 H   0  0  0  1  0  0  0  0  0  0  0  0
   -2.2938    3.3851   -3.7551 H   0  0  0  1  0  0  0  0  0  0  0  0
   -4.5252    3.1317   -4.6734 H   0  0  0  1  0  0  0  0  0  0  0  0
   -5.8220    1.4483   -1.0520 H   0  0  0  1  0  0  0  0  0  0  0  0
   -3.5944    1.7014   -0.1354 H   0  0  0  1  0  0  0  0  0  0  0  0
   -7.2905    1.6307   -3.1531 H   0  0  0  1  0  0  0  0  0  0  0  0
   -6.7563    2.6703   -4.3839 H   0  0  0  1  0  0  0  0  0  0  0  0
  1  4  1  0  0  0  0
  2  4  1  0  0  0  0
  2  5  2  0  0  0  0
  2  6  1  0  0  0  0
  3  4  1  0  0  0  0
  3  7  1  0  0  0  0
  3  8  1  0  0  0  0
  4 19  1  0  0  0  0
  6  9  1  0  0  0  0
  6 12  1  0  0  0  0
  8 10  1  0  0  0  0
  8 11  2  0  0  0  0
  9 13  1  0  0  0  0
  9 14  1  0  0  0  0
  9 15  1  0  0  0  0
 10 16  1  0  0  0  0
 10 17  1  0  0  0  0
 10 18  1  0  0  0  0
 19 20  1  0  0  0  0
 19 27  1  0  0  0  0
 19 28  1  0  0  0  0
 20 21  4  0  0  0  0
 20 25  4  0  0  0  0
 21 22  4  0  0  0  0
 21 29  1  0  0  0  0
 22 23  4  0  0  0  0
 22 30  1  0  0  0  0
 23 24  4  0  0  0  0
 23 26  1  0  0  0  0
 24 25  4  0  0  0  0
 24 31  1  0  0  0  0
 25 32  1  0  0  0  0
 26 33  1  0  0  0  0
 26 34  1  0  0  0  0
M  END
> <BCLConfClusterSize>
1

> <ConfClashScore>
0 

> <ConfOneFourInteractionScore>
-0.949684 

> <ConfScore>
0.405767 

> <ConfScorePBest>
0.00287818 

> <ConfTolerance>
0.528197 

> <RosettaParamsInstructions>
M  ROOT 3
M  POLY_N_BB 3
M  POLY_CA_BB 4
M  POLY_C_BB 2
M  POLY_O_BB 5
M  POLY_IGNORE 9 10 11 12 13 14 15 16 17 18 
M  POLY_UPPER 6
M  POLY_LOWER 8
M  POLY_CHG 0
M  POLY_PROPERTIES ALPHA_AA D_AA PROTEIN AROMATIC POLYMER 
M  END

$$$$



 34 34  0  0  0  0  0  0  0  0999 V2000
    0.1419    1.7038   -0.3571 H   0  0  0  1  0  0  0  0  0  0  0  0
   -0.7254    0.3151   -1.6577 C   0  0  0  1  0  0  0  0  0  0  0  0
   -1.5807    1.0307    0.5358 N   0  0  0  1  0  0  0  0  0  0  0  0
   -0.8546    1.4712   -0.6698 C   0  0  0  1  0  0  0  0  0  0  0  0
    0.3797   -0.0381   -2.0673 O   0  0  0  1  0  0  0  0  0  0  0  0
   -1.8792   -0.3063   -1.9488 N   0  0  0  1  0  0  0  0  0  0  0  0
   -2.0882    1.6925    1.0505 H   0  0  0  1  0  0  0  0  0  0  0  0
   -1.5705   -0.2794    0.9640 C   0  0  0  1  0  0  0  0  0  0  0  0
   -1.8682   -1.5563   -2.6940 C   0  0  0  1  0  0  0  0  0  0  0  0
   -2.6067   -0.6435    1.9869 C   0  0  0  1  0  0  0  0  0  0  0  0
   -0.7543   -1.0616    0.5147 O   0  0  0  1  0  0  0  0  0  0  0  0
   -2.7307    0.0826   -1.6588 H   0  0  0  1  0  0  0  0  0  0  0  0
   -1.8098   -1.3470   -3.7417 H   0  0  0  1  0  0  0  0  0  0  0  0
   -2.7657   -2.1015   -2.4888 H   0  0  0  1  0  0  0  0  0  0  0  0
   -1.0208   -2.1394   -2.3993 H   0  0  0  1  0  0  0  0  0  0  0  0
   -2.4529   -0.0639    2.8731 H   0  0  0  1  0  0  0  0  0  0  0  0
   -2.5245   -1.6839    2.2229 H   0  0  0  1  0  0  0  0  0  0  0  0
   -3.5815   -0.4423    1.5941 H   0  0  0  1  0  0  0  0  0  0  0  0
   -1.4193    2.7645   -1.2686 C   0  0  0  1  0  0  0  0  0  0  0  0
   -2.7875    2.5873   -1.8707 C   0  0  0  1  0  0  0  0  0  0  0  0
   -3.0295    2.9930   -3.1696 C   0  0  0  1  0  0  0  0  0  0  0  0
   -4.2883    2.8246   -3.7253 C   0  0  0  1  0  0  0  0  0  0  0  0
   -5.3028    2.2560   -2.9785 C   0  0  0  1  0  0  0  0  0  0  0  0
   -5.0602    1.8491   -1.6758 C   0  0  0  1  0  0  0  0  0  0  0  0
   -3.8052    2.0170   -1.1219 C   0  0  0  1  0  0  0  0  0  0  0  0
   -6.6195    2.1768   -3.5171 N   0  0  0  1  0  0  0  0  0  0  0  0
   -0.7525    3.1055   -2.0328 H   0  0  0  1  0  0  0  0  0  0  0  0
   -1.4807    3.5000   -0.4939 H   0  0  0  1  0  0  0  0  0  0  0  0
   -2.2672    3.4245   -3.7301 H   0  0  0  1  0  0  0  0  0  0  0  0
   -4.4692    3.1262   -4.7040 H   0  0  0  1  0  0  0  0  0  0  0  0
   -5.8225    1.4176   -1.1152 H   0  0  0  1  0  0  0  0  0  0  0  0
   -3.6242    1.7155   -0.1431 H   0  0  0  1  0  0  0  0  0  0  0  0
   -7.3162    1.6819   -3.0375 H   0  0  0  1  0  0  0  0  0  0  0  0
   -6.8285    2.6173   -4.3673 H   0  0  0  1  0  0  0  0  0  0  0  0
  1  4  1  0  0  0  0
  2  4  1  0  0  0  0
  2  5  2  0  0  0  0
  2  6  1  0  0  0  0
  3  4  1  0  0  0  0
  3  7  1  0  0  0  0
  3  8  1  0  0  0  0
  4 19  1  0  0  0  0
  6  9  1  0  0  0  0
  6 12  1  0  0  0  0
  8 10  1  0  0  0  0
  8 11  2  0  0  0  0
  9 13  1  0  0  0  0
  9 14  1  0  0  0  0
  9 15  1  0  0  0  0
 10 16  1  0  0  0  0
 10 17  1  0  0  0  0
 10 18  1  0  0  0  0
 19 20  1  0  0  0  0
 19 27  1  0  0  0  0
 19 28  1  0  0  0  0
 20 21  4  0  0  0  0
 20 25  4  0  0  0  0
 21 22  4  0  0  0  0
 21 29  1  0  0  0  0
 22 23  4  0  0  0  0
 22 30  1  0  0  0  0
 23 24  4  0  0  0  0
 23 26  1  0  0  0  0
 24 25  4  0  0  0  0
 24 31  1  0  0  0  0
 25 32  1  0  0  0  0
 26 33  1  0  0  0  0
 26 34  1  0  0  0  0
M  END
> <BCLConfClusterSize>
1

> <ConfClashScore>
0 

> <ConfOneFourInteractionScore>
-0.958525 

> <ConfScore>
0.408617 

> <ConfScorePBest>
0.0028497 

> <ConfTolerance>
0.457635 

> <RosettaParamsInstructions>
M  ROOT 3
M  POLY_N_BB 3
M  POLY_CA_BB 4
M  POLY_C_BB 2
M  POLY_O_BB 5
M  POLY_IGNORE 9 10 11 12 13 14 15 16 17 18 
M  POLY_UPPER 6
M  POLY_LOWER 8
M  POLY_CHG 0
M  POLY_PROPERTIES ALPHA_AA D_AA PROTEIN AROMATIC POLYMER 
M  END

$$$$



 34 34  0  0  0  0  0  0  0  0999 V2000
   -0.2747    4.5236   -1.4208 H   0  0  0  1  0  0  0  0  0  0  0  0
   -0.6501    4.1626    0.6396 C   0  0  0  1  0  0  0  0  0  0  0  0
   -2.2231    5.0570   -0.9162 N   0  0  0  1  0  0  0  0  0  0  0  0
   -1.0794    4.1628   -0.8147 C   0  0  0  1  0  0  0  0  0  0  0  0
   -0.8830    3.1981    1.3656 O   0  0  0  1  0  0  0  0  0  0  0  0
   -0.0064    5.2505    1.1112 N   0  0  0  1  0  0  0  0  0  0  0  0
   -3.1110    4.6732   -1.0730 H   0  0  0  1  0  0  0  0  0  0  0  0
   -2.1046    6.3830   -0.8030 C   0  0  0  1  0  0  0  0  0  0  0  0
    0.3086    5.3560    2.5268 C   0  0  0  1  0  0  0  0  0  0  0  0
   -3.4047    7.1633   -0.8083 C   0  0  0  1  0  0  0  0  0  0  0  0
   -1.0195    6.9518   -0.7002 O   0  0  0  1  0  0  0  0  0  0  0  0
    0.2494    5.9712    0.4983 H   0  0  0  1  0  0  0  0  0  0  0  0
    1.0343    6.1283    2.6747 H   0  0  0  1  0  0  0  0  0  0  0  0
    0.7037    4.4244    2.8744 H   0  0  0  1  0  0  0  0  0  0  0  0
   -0.5804    5.5930    3.0731 H   0  0  0  1  0  0  0  0  0  0  0  0
   -4.2277    6.4868   -0.7089 H   0  0  0  1  0  0  0  0  0  0  0  0
   -3.4942    7.7006   -1.7293 H   0  0  0  1  0  0  0  0  0  0  0  0
   -3.4096    7.8532    0.0096 H   0  0  0  1  0  0  0  0  0  0  0  0
   -1.4299    2.7483   -1.2464 C   0  0  0  1  0  0  0  0  0  0  0  0
   -2.7920    2.5813   -1.8649 C   0  0  0  1  0  0  0  0  0  0  0  0
   -3.0247    3.0206   -3.1546 C   0  0  0  1  0  0  0  0  0  0  0  0
   -4.2778    2.8617   -3.7256 C   0  0  0  1  0  0  0  0  0  0  0  0
   -5.2961    2.2687   -3.0032 C   0  0  0  1  0  0  0  0  0  0  0  0
   -5.0629    1.8281   -1.7097 C   0  0  0  1  0  0  0  0  0  0  0  0
   -3.8134    1.9866   -1.1406 C   0  0  0  1  0  0  0  0  0  0  0  0
   -6.6166    2.1747   -3.5013 N   0  0  0  1  0  0  0  0  0  0  0  0
   -1.3797    2.1178   -0.3833 H   0  0  0  1  0  0  0  0  0  0  0  0
   -0.7009    2.4317   -1.9629 H   0  0  0  1  0  0  0  0  0  0  0  0
   -2.2596    3.4704   -3.6966 H   0  0  0  1  0  0  0  0  0  0  0  0
   -4.4518    3.1886   -4.6974 H   0  0  0  1  0  0  0  0  0  0  0  0
   -5.8280    1.3783   -1.1677 H   0  0  0  1  0  0  0  0  0  0  0  0
   -3.6395    1.6597   -0.1688 H   0  0  0  1  0  0  0  0  0  0  0  0
   -6.8445    2.5787   -4.3646 H   0  0  0  1  0  0  0  0  0  0  0  0
   -7.3035    1.7055   -2.9832 H   0  0  0  1  0  0  0  0  0  0  0  0
  1  4  1  0  0  0  0
  2  4  1  0  0  0  0
  2  5  2  0  0  0  0
  2  6  1  0  0  0  0
  3  4  1  0  0  0  0
  3  7  1  0  0  0  0
  3  8  1  0  0  0  0
  4 19  1  0  0  0  0
  6  9  1  0  0  0  0
  6 12  1  0  0  0  0
  8 10  1  0  0  0  0
  8 11  2  0  0  0  0
  9 13  1  0  0  0  0
  9 14  1  0  0  0  0
  9 15  1  0  0  0  0
 10 16  1  0  0  0  0
 10 17  1  0  0  0  0
 10 18  1  0  0  0  0
 19 20  1  0  0  0  0
 19 27  1  0  0  0  0
 19 28  1  0  0  0  0
 20 21  4  0  0  0  0
 20 25  4  0  0  0  0
 21 22  4  0  0  0  0
 21 29  1  0  0  0  0
 22 23  4  0  0  0  0
 22 30  1  0  0  0  0
 23 24  4  0  0  0  0
 23 26  1  0  0  0  0
 24 25  4  0  0  0  0
 24 31  1  0  0  0  0
 25 32  1  0  0  0  0
 26 33  1  0  0  0  0
 26 34  1  0  0  0  0
M  END
> <BCLConfClusterSize>
1

> <ConfClashScore>
0.000312251 

> <ConfOneFourInteractionScore>
-0.955883 

> <ConfScore>
0.42055 

> <ConfScorePBest>
0.00282122 

> <ConfTolerance>
0.833085 

> <RosettaParamsInstructions>
M  ROOT 3
M  POLY_N_BB 3
M  POLY_CA_BB 4
M  POLY_C_BB 2
M  POLY_O_BB 5
M  POLY_IGNORE 9 10 11 12 13 14 15 16 17 18 
M  POLY_UPPER 6
M  POLY_LOWER 8
M  POLY_CHG 0
M  POLY_PROPERTIES ALPHA_AA D_AA PROTEIN AROMATIC POLYMER 
M  END

$$$$



 34 34  0  0  0  0  0  0  0  0999 V2000
   -0.9640    4.6384   -2.0200 H   0  0  0  1  0  0  0  0  0  0  0  0
    0.4865    4.1958   -0.5652 C   0  0  0  1  0  0  0  0  0  0  0  0
   -1.8587    4.8495   -0.1788 N   0  0  0  1  0  0  0  0  0  0  0  0
   -0.9433    4.1502   -1.0681 C   0  0  0  1  0  0  0  0  0  0  0  0
    1.3731    3.5237   -1.0960 O   0  0  0  1  0  0  0  0  0  0  0  0
    0.7111    5.0066    0.4809 N   0  0  0  1  0  0  0  0  0  0  0  0
   -2.2203    4.3730    0.5975 H   0  0  0  1  0  0  0  0  0  0  0  0
   -2.2235    6.1196   -0.3840 C   0  0  0  1  0  0  0  0  0  0  0  0
    2.0267    5.1472    1.0870 C   0  0  0  1  0  0  0  0  0  0  0  0
   -1.4845    6.8466   -1.4906 C   0  0  0  1  0  0  0  0  0  0  0  0
   -3.1003    6.6792    0.2730 O   0  0  0  1  0  0  0  0  0  0  0  0
   -0.0368    5.5218    0.8491 H   0  0  0  1  0  0  0  0  0  0  0  0
    2.5018    4.1897    1.1354 H   0  0  0  1  0  0  0  0  0  0  0  0
    1.9232    5.5440    2.0753 H   0  0  0  1  0  0  0  0  0  0  0  0
    2.6223    5.8112    0.4961 H   0  0  0  1  0  0  0  0  0  0  0  0
   -0.4486    6.5803   -1.4632 H   0  0  0  1  0  0  0  0  0  0  0  0
   -1.5848    7.9028   -1.3520 H   0  0  0  1  0  0  0  0  0  0  0  0
   -1.8988    6.5697   -2.4375 H   0  0  0  1  0  0  0  0  0  0  0  0
   -1.4101    2.7200   -1.2847 C   0  0  0  1  0  0  0  0  0  0  0  0
   -2.7852    2.5733   -1.8760 C   0  0  0  1  0  0  0  0  0  0  0  0
   -3.0360    3.0144   -3.1616 C   0  0  0  1  0  0  0  0  0  0  0  0
   -4.3023    2.8740   -3.7080 C   0  0  0  1  0  0  0  0  0  0  0  0
   -5.3153    2.2977   -2.9650 C   0  0  0  1  0  0  0  0  0  0  0  0
   -5.0639    1.8553   -1.6756 C   0  0  0  1  0  0  0  0  0  0  0  0
   -3.8013    1.9953   -1.1311 C   0  0  0  1  0  0  0  0  0  0  0  0
   -6.6088    2.1594   -3.5205 N   0  0  0  1  0  0  0  0  0  0  0  0
   -1.4037    2.2236   -0.3369 H   0  0  0  1  0  0  0  0  0  0  0  0
   -0.7150    2.2420   -1.9430 H   0  0  0  1  0  0  0  0  0  0  0  0
   -2.2747    3.4516   -3.7191 H   0  0  0  1  0  0  0  0  0  0  0  0
   -4.4900    3.2022   -4.6768 H   0  0  0  1  0  0  0  0  0  0  0  0
   -5.8251    1.4180   -1.1181 H   0  0  0  1  0  0  0  0  0  0  0  0
   -3.6137    1.6671   -0.1622 H   0  0  0  1  0  0  0  0  0  0  0  0
   -7.3624    1.9023   -2.9492 H   0  0  0  1  0  0  0  0  0  0  0  0
   -6.7513    2.3206   -4.4766 H   0  0  0  1  0  0  0  0  0  0  0  0
  1  4  1  0  0  0  0
  2  4  1  0  0  0  0
  2  5  2  0  0  0  0
  2  6  1  0  0  0  0
  3  4  1  0  0  0  0
  3  7  1  0  0  0  0
  3  8  1  0  0  0  0
  4 19  1  0  0  0  0
  6  9  1  0  0  0  0
  6 12  1  0  0  0  0
  8 10  1  0  0  0  0
  8 11  2  0  0  0  0
  9 13  1  0  0  0  0
  9 14  1  0  0  0  0
  9 15  1  0  0  0  0
 10 16  1  0  0  0  0
 10 17  1  0  0  0  0
 10 18  1  0  0  0  0
 19 20  1  0  0  0  0
 19 27  1  0  0  0  0
 19 28  1  0  0  0  0
 20 21  4  0  0  0  0
 20 25  4  0  0  0  0
 21 22  4  0  0  0  0
 21 29  1  0  0  0  0
 22 23  4  0  0  0  0
 22 30  1  0  0  0  0
 23 24  4  0  0  0  0
 23 26  1  0  0  0  0
 24 25  4  0  0  0  0
 24 31  1  0  0  0  0
 25 32  1  0  0  0  0
 26 33  1  0  0  0  0
 26 34  1  0  0  0  0
M  END
> <BCLConfClusterSize>
1

> <ConfClashScore>
0 

> <ConfOneFourInteractionScore>
-0.94165 

> <ConfScore>
0.421986 

> <ConfScorePBest>
0.00279274 

> <ConfTolerance>
1.00149 

> <RosettaParamsInstructions>
M  ROOT 3
M  POLY_N_BB 3
M  POLY_CA_BB 4
M  POLY_C_BB 2
M  POLY_O_BB 5
M  POLY_IGNORE 9 10 11 12 13 14 15 16 17 18 
M  POLY_UPPER 6
M  POLY_LOWER 8
M  POLY_CHG 0
M  POLY_PROPERTIES ALPHA_AA D_AA PROTEIN AROMATIC POLYMER 
M  END

$$$$



 34 34  0  0  0  0  0  0  0  0999 V2000
   -1.7707    4.1007    0.2676 H   0  0  0  1  0  0  0  0  0  0  0  0
   -1.6435    5.2445   -1.5028 C   0  0  0  1  0  0  0  0  0  0  0  0
    0.2284    4.1939   -0.2637 N   0  0  0  1  0  0  0  0  0  0  0  0
   -1.1870    4.0833   -0.6290 C   0  0  0  1  0  0  0  0  0  0  0  0
   -0.8448    6.0177   -2.0085 O   0  0  0  1  0  0  0  0  0  0  0  0
   -2.9696    5.3184   -1.6479 N   0  0  0  1  0  0  0  0  0  0  0  0
    0.7514    4.9427   -0.6189 H   0  0  0  1  0  0  0  0  0  0  0  0
    0.8361    3.3007    0.5445 C   0  0  0  1  0  0  0  0  0  0  0  0
   -3.6110    6.3862   -2.4004 C   0  0  0  1  0  0  0  0  0  0  0  0
    2.2510    3.5928    0.9901 C   0  0  0  1  0  0  0  0  0  0  0  0
    0.2564    2.2747    0.9106 O   0  0  0  1  0  0  0  0  0  0  0  0
   -3.5299    4.6296   -1.2331 H   0  0  0  1  0  0  0  0  0  0  0  0
   -4.6738    6.2806   -2.3352 H   0  0  0  1  0  0  0  0  0  0  0  0
   -3.3095    6.3306   -3.4255 H   0  0  0  1  0  0  0  0  0  0  0  0
   -3.3213    7.3326   -1.9938 H   0  0  0  1  0  0  0  0  0  0  0  0
    2.3951    3.2261    1.9849 H   0  0  0  1  0  0  0  0  0  0  0  0
    2.4195    4.6493    0.9718 H   0  0  0  1  0  0  0  0  0  0  0  0
    2.9398    3.1098    0.3290 H   0  0  0  1  0  0  0  0  0  0  0  0
   -1.4059    2.7311   -1.2948 C   0  0  0  1  0  0  0  0  0  0  0  0
   -2.7859    2.5765   -1.8760 C   0  0  0  1  0  0  0  0  0  0  0  0
   -3.0406    2.9847   -3.1716 C   0  0  0  1  0  0  0  0  0  0  0  0
   -4.3103    2.8372   -3.7080 C   0  0  0  1  0  0  0  0  0  0  0  0
   -5.3229    2.2867   -2.9452 C   0  0  0  1  0  0  0  0  0  0  0  0
   -5.0676    1.8772   -1.6458 C   0  0  0  1  0  0  0  0  0  0  0  0
   -3.8017    2.0243   -1.1111 C   0  0  0  1  0  0  0  0  0  0  0  0
   -6.6000    2.1649   -3.5409 N   0  0  0  1  0  0  0  0  0  0  0  0
   -1.2560    1.9635   -0.5645 H   0  0  0  1  0  0  0  0  0  0  0  0
   -0.6903    2.6194   -2.0824 H   0  0  0  1  0  0  0  0  0  0  0  0
   -2.2796    3.4027   -3.7442 H   0  0  0  1  0  0  0  0  0  0  0  0
   -4.5009    3.1407   -4.6843 H   0  0  0  1  0  0  0  0  0  0  0  0
   -5.8286    1.4592   -1.0732 H   0  0  0  1  0  0  0  0  0  0  0  0
   -3.6111    1.7208   -0.1348 H   0  0  0  1  0  0  0  0  0  0  0  0
   -7.2803    1.5923   -3.1288 H   0  0  0  1  0  0  0  0  0  0  0  0
   -6.8046    2.6530   -4.3657 H   0  0  0  1  0  0  0  0  0  0  0  0
  1  4  1  0  0  0  0
  2  4  1  0  0  0  0
  2  5  2  0  0  0  0
  2  6  1  0  0  0  0
  3  4  1  0  0  0  0
  3  7  1  0  0  0  0
  3  8  1  0  0  0  0
  4 19  1  0  0  0  0
  6  9  1  0  0  0  0
  6 12  1  0  0  0  0
  8 10  1  0  0  0  0
  8 11  2  0  0  0  0
  9 13  1  0  0  0  0
  9 14  1  0  0  0  0
  9 15  1  0  0  0  0
 10 16  1  0  0  0  0
 10 17  1  0  0  0  0
 10 18  1  0  0  0  0
 19 20  1  0  0  0  0
 19 27  1  0  0  0  0
 19 28  1  0  0  0  0
 20 21  4  0  0  0  0
 20 25  4  0  0  0  0
 21 22  4  0  0  0  0
 21 29  1  0  0  0  0
 22 23  4  0  0  0  0
 22 30  1  0  0  0  0
 23 24  4  0  0  0  0
 23 26  1  0  0  0  0
 24 25  4  0  0  0  0
 24 31  1  0  0  0  0
 25 32  1  0  0  0  0
 26 33  1  0  0  0  0
 26 34  1  0  0  0  0
M  END
> <BCLConfClusterSize>
1

> <ConfClashScore>
0 

> <ConfOneFourInteractionScore>
-0.983961 

> <ConfScore>
0.423097 

> <ConfScorePBest>
0.00276426 

> <ConfTolerance>
1.01082 

> <RosettaParamsInstructions>
M  ROOT 3
M  POLY_N_BB 3
M  POLY_CA_BB 4
M  POLY_C_BB 2
M  POLY_O_BB 5
M  POLY_IGNORE 9 10 11 12 13 14 15 16 17 18 
M  POLY_UPPER 6
M  POLY_LOWER 8
M  POLY_CHG 0
M  POLY_PROPERTIES ALPHA_AA D_AA PROTEIN AROMATIC POLYMER 
M  END

$$$$



 34 34  0  0  0  0  0  0  0  0999 V2000
   -0.7912    0.8491   -2.0220 H   0  0  0  1  0  0  0  0  0  0  0  0
    0.9683    1.7598   -1.3322 C   0  0  0  1  0  0  0  0  0  0  0  0
   -0.2662    2.2903   -3.4020 N   0  0  0  1  0  0  0  0  0  0  0  0
   -0.3972    1.8437   -2.0021 C   0  0  0  1  0  0  0  0  0  0  0  0
    1.6650    2.7494   -1.1738 O   0  0  0  1  0  0  0  0  0  0  0  0
    1.3061    0.5183   -0.9494 N   0  0  0  1  0  0  0  0  0  0  0  0
   -0.3661    1.6144   -4.1045 H   0  0  0  1  0  0  0  0  0  0  0  0
   -0.0219    3.5449   -3.7836 C   0  0  0  1  0  0  0  0  0  0  0  0
    2.5603    0.1572   -0.3056 C   0  0  0  1  0  0  0  0  0  0  0  0
   -0.0035    3.7857   -5.2761 C   0  0  0  1  0  0  0  0  0  0  0  0
    0.1781    4.4606   -2.9867 O   0  0  0  1  0  0  0  0  0  0  0  0
    0.6595   -0.1990   -1.1161 H   0  0  0  1  0  0  0  0  0  0  0  0
    2.8695   -0.8100   -0.6429 H   0  0  0  1  0  0  0  0  0  0  0  0
    2.4236    0.1377    0.7555 H   0  0  0  1  0  0  0  0  0  0  0  0
    3.3100    0.8785   -0.5559 H   0  0  0  1  0  0  0  0  0  0  0  0
    0.9825    4.0691   -5.5801 H   0  0  0  1  0  0  0  0  0  0  0  0
   -0.6905    4.5692   -5.5192 H   0  0  0  1  0  0  0  0  0  0  0  0
   -0.2895    2.8891   -5.7853 H   0  0  0  1  0  0  0  0  0  0  0  0
   -1.4225    2.7053   -1.2576 C   0  0  0  1  0  0  0  0  0  0  0  0
   -2.7842    2.5774   -1.8864 C   0  0  0  1  0  0  0  0  0  0  0  0
   -3.0510    3.0148   -3.1700 C   0  0  0  1  0  0  0  0  0  0  0  0
   -4.3224    2.8676   -3.7024 C   0  0  0  1  0  0  0  0  0  0  0  0
   -5.3247    2.2882   -2.9474 C   0  0  0  1  0  0  0  0  0  0  0  0
   -5.0573    1.8494   -1.6600 C   0  0  0  1  0  0  0  0  0  0  0  0
   -3.7896    1.9963   -1.1294 C   0  0  0  1  0  0  0  0  0  0  0  0
   -6.5938    2.1690   -3.5335 N   0  0  0  1  0  0  0  0  0  0  0  0
   -1.1136    3.7291   -1.2949 H   0  0  0  1  0  0  0  0  0  0  0  0
   -1.4755    2.3852   -0.2380 H   0  0  0  1  0  0  0  0  0  0  0  0
   -2.2978    3.4545   -3.7366 H   0  0  0  1  0  0  0  0  0  0  0  0
   -4.5221    3.1931   -4.6697 H   0  0  0  1  0  0  0  0  0  0  0  0
   -5.8105    1.4098   -1.0934 H   0  0  0  1  0  0  0  0  0  0  0  0
   -3.5900    1.6708   -0.1620 H   0  0  0  1  0  0  0  0  0  0  0  0
   -7.3679    1.9310   -2.9817 H   0  0  0  1  0  0  0  0  0  0  0  0
   -6.7061    2.3238   -4.4946 H   0  0  0  1  0  0  0  0  0  0  0  0
  1  4  1  0  0  0  0
  2  4  1  0  0  0  0
  2  5  2  0  0  0  0
  2  6  1  0  0  0  0
  3  4  1  0  0  0  0
  3  7  1  0  0  0  0
  3  8  1  0  0  0  0
  4 19  1  0  0  0  0
  6  9  1  0  0  0  0
  6 12  1  0  0  0  0
  8 10  1  0  0  0  0
  8 11  2  0  0  0  0
  9 13  1  0  0  0  0
  9 14  1  0  0  0  0
  9 15  1  0  0  0  0
 10 16  1  0  0  0  0
 10 17  1  0  0  0  0
 10 18  1  0  0  0  0
 19 20  1  0  0  0  0
 19 27  1  0  0  0  0
 19 28  1  0  0  0  0
 20 21  4  0  0  0  0
 20 25  4  0  0  0  0
 21 22  4  0  0  0  0
 21 29  1  0  0  0  0
 22 23  4  0  0  0  0
 22 30  1  0  0  0  0
 23 24  4  0  0  0  0
 23 26  1  0  0  0  0
 24 25  4  0  0  0  0
 24 31  1  0  0  0  0
 25 32  1  0  0  0  0
 26 33  1  0  0  0  0
 26 34  1  0  0  0  0
M  END
> <BCLConfClusterSize>
1

> <ConfClashScore>
0 

> <ConfOneFourInteractionScore>
-0.980324 

> <ConfScore>
0.425303 

> <ConfScorePBest>
0.00273578 

> <ConfTolerance>
0.915841 

> <RosettaParamsInstructions>
M  ROOT 3
M  POLY_N_BB 3
M  POLY_CA_BB 4
M  POLY_C_BB 2
M  POLY_O_BB 5
M  POLY_IGNORE 9 10 11 12 13 14 15 16 17 18 
M  POLY_UPPER 6
M  POLY_LOWER 8
M  POLY_CHG 0
M  POLY_PROPERTIES ALPHA_AA D_AA PROTEIN AROMATIC POLYMER 
M  END

$$$$



 34 34  0  0  0  0  0  0  0  0999 V2000
   -0.6057    3.9132    0.2013 H   0  0  0  1  0  0  0  0  0  0  0  0
   -2.3013    4.8938   -0.6129 C   0  0  0  1  0  0  0  0  0  0  0  0
   -0.0589    4.7036   -1.6306 N   0  0  0  1  0  0  0  0  0  0  0  0
   -1.0344    4.0523   -0.7691 C   0  0  0  1  0  0  0  0  0  0  0  0
   -3.0865    4.6628    0.2925 O   0  0  0  1  0  0  0  0  0  0  0  0
   -2.5429    5.8168   -1.5573 N   0  0  0  1  0  0  0  0  0  0  0  0
   -0.0240    4.4550   -2.5779 H   0  0  0  1  0  0  0  0  0  0  0  0
    0.7908    5.6285   -1.1750 C   0  0  0  1  0  0  0  0  0  0  0  0
   -3.6410    6.7662   -1.4535 C   0  0  0  1  0  0  0  0  0  0  0  0
    1.8457    6.0957   -2.1589 C   0  0  0  1  0  0  0  0  0  0  0  0
    0.7367    6.0800   -0.0429 O   0  0  0  1  0  0  0  0  0  0  0  0
   -1.9596    5.8524   -2.3440 H   0  0  0  1  0  0  0  0  0  0  0  0
   -4.3618    6.5635   -2.2178 H   0  0  0  1  0  0  0  0  0  0  0  0
   -3.2647    7.7607   -1.5731 H   0  0  0  1  0  0  0  0  0  0  0  0
   -4.1036    6.6724   -0.4933 H   0  0  0  1  0  0  0  0  0  0  0  0
    1.6793    5.6311   -3.1083 H   0  0  0  1  0  0  0  0  0  0  0  0
    2.8157    5.8271   -1.7957 H   0  0  0  1  0  0  0  0  0  0  0  0
    1.7865    7.1586   -2.2669 H   0  0  0  1  0  0  0  0  0  0  0  0
   -1.3808    2.6731   -1.3378 C   0  0  0  1  0  0  0  0  0  0  0  0
   -2.7925    2.5881   -1.8630 C   0  0  0  1  0  0  0  0  0  0  0  0
   -3.0403    3.0290   -3.1493 C   0  0  0  1  0  0  0  0  0  0  0  0
   -4.3032    2.8812   -3.7015 C   0  0  0  1  0  0  0  0  0  0  0  0
   -5.3159    2.2978   -2.9637 C   0  0  0  1  0  0  0  0  0  0  0  0
   -5.0676    1.8556   -1.6737 C   0  0  0  1  0  0  0  0  0  0  0  0
   -3.8084    2.0030   -1.1233 C   0  0  0  1  0  0  0  0  0  0  0  0
   -6.6060    2.1519   -3.5252 N   0  0  0  1  0  0  0  0  0  0  0  0
   -1.2614    1.9453   -0.5626 H   0  0  0  1  0  0  0  0  0  0  0  0
   -0.7057    2.4557   -2.1390 H   0  0  0  1  0  0  0  0  0  0  0  0
   -2.2793    3.4716   -3.7029 H   0  0  0  1  0  0  0  0  0  0  0  0
   -4.4886    3.2093   -4.6708 H   0  0  0  1  0  0  0  0  0  0  0  0
   -5.8286    1.4130   -1.1201 H   0  0  0  1  0  0  0  0  0  0  0  0
   -3.6231    1.6749   -0.1539 H   0  0  0  1  0  0  0  0  0  0  0  0
   -7.3692    1.9353   -2.9498 H   0  0  0  1  0  0  0  0  0  0  0  0
   -6.7366    2.2675   -4.4896 H   0  0  0  1  0  0  0  0  0  0  0  0
  1  4  1  0  0  0  0
  2  4  1  0  0  0  0
  2  5  2  0  0  0  0
  2  6  1  0  0  0  0
  3  4  1  0  0  0  0
  3  7  1  0  0  0  0
  3  8  1  0  0  0  0
  4 19  1  0  0  0  0
  6  9  1  0  0  0  0
  6 12  1  0  0  0  0
  8 10  1  0  0  0  0
  8 11  2  0  0  0  0
  9 13  1  0  0  0  0
  9 14  1  0  0  0  0
  9 15  1  0  0  0  0
 10 16  1  0  0  0  0
 10 17  1  0  0  0  0
 10 18  1  0  0  0  0
 19 20  1  0  0  0  0
 19 27  1  0  0  0  0
 19 28  1  0  0  0  0
 20 21  4  0  0  0  0
 20 25  4  0  0  0  0
 21 22  4  0  0  0  0
 21 29  1  0  0  0  0
 22 23  4  0  0  0  0
 22 30  1  0  0  0  0
 23 24  4  0  0  0  0
 23 26  1  0  0  0  0
 24 25  4  0  0  0  0
 24 31  1  0  0  0  0
 25 32  1  0  0  0  0
 26 33  1  0  0  0  0
 26 34  1  0  0  0  0
M  END
> <BCLConfClusterSize>
1

> <ConfClashScore>
0 

> <ConfOneFourInteractionScore>
-0.942345 

> <ConfScore>
0.446125 

> <ConfScorePBest>
0.0027073 

> <ConfTolerance>
0.876284 

> <RosettaParamsInstructions>
M  ROOT 3
M  POLY_N_BB 3
M  POLY_CA_BB 4
M  POLY_C_BB 2
M  POLY_O_BB 5
M  POLY_IGNORE 9 10 11 12 13 14 15 16 17 18 
M  POLY_UPPER 6
M  POLY_LOWER 8
M  POLY_CHG 0
M  POLY_PROPERTIES ALPHA_AA D_AA PROTEIN AROMATIC POLYMER 
M  END

$$$$



 34 34  0  0  0  0  0  0  0  0999 V2000
   -0.0755    4.1065   -0.4218 H   0  0  0  1  0  0  0  0  0  0  0  0
   -1.8553    4.2992    0.6817 C   0  0  0  1  0  0  0  0  0  0  0  0
   -1.4435    5.1621   -1.5594 N   0  0  0  1  0  0  0  0  0  0  0  0
   -1.1248    4.0703   -0.6285 C   0  0  0  1  0  0  0  0  0  0  0  0
   -1.3349    3.9984    1.7552 O   0  0  0  1  0  0  0  0  0  0  0  0
   -3.0778    4.8360    0.6338 N   0  0  0  1  0  0  0  0  0  0  0  0
   -2.3184    5.5988   -1.4944 H   0  0  0  1  0  0  0  0  0  0  0  0
   -0.5820    5.5798   -2.4913 C   0  0  0  1  0  0  0  0  0  0  0  0
   -3.9285    4.9384    1.8100 C   0  0  0  1  0  0  0  0  0  0  0  0
    0.6856    4.7597   -2.6315 C   0  0  0  1  0  0  0  0  0  0  0  0
   -0.7852    6.5564   -3.1938 O   0  0  0  1  0  0  0  0  0  0  0  0
   -3.4133    5.1726   -0.2233 H   0  0  0  1  0  0  0  0  0  0  0  0
   -3.4272    5.5071    2.5651 H   0  0  0  1  0  0  0  0  0  0  0  0
   -4.1397    3.9582    2.1835 H   0  0  0  1  0  0  0  0  0  0  0  0
   -4.8442    5.4251    1.5464 H   0  0  0  1  0  0  0  0  0  0  0  0
    1.5055    5.2922   -2.1965 H   0  0  0  1  0  0  0  0  0  0  0  0
    0.8841    4.5848   -3.6682 H   0  0  0  1  0  0  0  0  0  0  0  0
    0.5618    3.8234   -2.1286 H   0  0  0  1  0  0  0  0  0  0  0  0
   -1.4147    2.7205   -1.2782 C   0  0  0  1  0  0  0  0  0  0  0  0
   -2.7918    2.5704   -1.8673 C   0  0  0  1  0  0  0  0  0  0  0  0
   -3.0436    3.0017   -3.1560 C   0  0  0  1  0  0  0  0  0  0  0  0
   -4.3106    2.8584   -3.6999 C   0  0  0  1  0  0  0  0  0  0  0  0
   -5.3234    2.2890   -2.9514 C   0  0  0  1  0  0  0  0  0  0  0  0
   -5.0709    1.8564   -1.6588 C   0  0  0  1  0  0  0  0  0  0  0  0
   -3.8077    1.9994   -1.1168 C   0  0  0  1  0  0  0  0  0  0  0  0
   -6.5873    2.1734   -3.5491 N   0  0  0  1  0  0  0  0  0  0  0  0
   -1.2897    1.9622   -0.5336 H   0  0  0  1  0  0  0  0  0  0  0  0
   -0.7021    2.5718   -2.0625 H   0  0  0  1  0  0  0  0  0  0  0  0
   -2.2824    3.4339   -3.7178 H   0  0  0  1  0  0  0  0  0  0  0  0
   -4.4990    3.1793   -4.6710 H   0  0  0  1  0  0  0  0  0  0  0  0
   -5.8321    1.4243   -1.0971 H   0  0  0  1  0  0  0  0  0  0  0  0
   -3.6193    1.6785   -0.1456 H   0  0  0  1  0  0  0  0  0  0  0  0
   -6.7099    2.4246   -4.4884 H   0  0  0  1  0  0  0  0  0  0  0  0
   -7.3476    1.8415   -3.0273 H   0  0  0  1  0  0  0  0  0  0  0  0
  1  4  1  0  0  0  0
  2  4  1  0  0  0  0
  2  5  2  0  0  0  0
  2  6  1  0  0  0  0
  3  4  1  0  0  0  0
  3  7  1  0  0  0  0
  3  8  1  0  0  0  0
  4 19  1  0  0  0  0
  6  9  1  0  0  0  0
  6 12  1  0  0  0  0
  8 10  1  0  0  0  0
  8 11  2  0  0  0  0
  9 13  1  0  0  0  0
  9 14  1  0  0  0  0
  9 15  1  0  0  0  0
 10 16  1  0  0  0  0
 10 17  1  0  0  0  0
 10 18  1  0  0  0  0
 19 20  1  0  0  0  0
 19 27  1  0  0  0  0
 19 28  1  0  0  0  0
 20 21  4  0  0  0  0
 20 25  4  0  0  0  0
 21 22  4  0  0  0  0
 21 29  1  0  0  0  0
 22 23  4  0  0  0  0
 22 30  1  0  0  0  0
 23 24  4  0  0  0  0
 23 26  1  0  0  0  0
 24 25  4  0  0  0  0
 24 31  1  0  0  0  0
 25 32  1  0  0  0  0
 26 33  1  0  0  0  0
 26 34  1  0  0  0  0
M  END
> <BCLConfClusterSize>
1

> <ConfClashScore>
0 

> <ConfOneFourInteractionScore>
-0.9553 

> <ConfScore>
0.448234 

> <ConfScorePBest>
0.00267882 

> <ConfTolerance>
0.988935 

> <RosettaParamsInstructions>
M  ROOT 3
M  POLY_N_BB 3
M  POLY_CA_BB 4
M  POLY_C_BB 2
M  POLY_O_BB 5
M  POLY_IGNORE 9 10 11 12 13 14 15 16 17 18 
M  POLY_UPPER 6
M  POLY_LOWER 8
M  POLY_CHG 0
M  POLY_PROPERTIES ALPHA_AA D_AA PROTEIN AROMATIC POLYMER 
M  END

$$$$



 34 34  0  0  0  0  0  0  0  0999 V2000
   -2.1020    4.3869   -0.2534 H   0  0  0  1  0  0  0  0  0  0  0  0
   -0.3111    4.9112   -1.2118 C   0  0  0  1  0  0  0  0  0  0  0  0
   -0.5592    3.5928    0.8518 N   0  0  0  1  0  0  0  0  0  0  0  0
   -1.1536    3.9256   -0.4342 C   0  0  0  1  0  0  0  0  0  0  0  0
    0.3811    5.7408   -0.6426 O   0  0  0  1  0  0  0  0  0  0  0  0
   -0.3786    4.8095   -2.5423 N   0  0  0  1  0  0  0  0  0  0  0  0
   -0.9874    3.9211    1.6699 H   0  0  0  1  0  0  0  0  0  0  0  0
    0.5501    2.8554    0.9560 C   0  0  0  1  0  0  0  0  0  0  0  0
    0.2950    5.7467   -3.4287 C   0  0  0  1  0  0  0  0  0  0  0  0
    1.0533    2.6182    2.3665 C   0  0  0  1  0  0  0  0  0  0  0  0
    1.1388    2.3906   -0.0181 O   0  0  0  1  0  0  0  0  0  0  0  0
   -0.8998    4.0784   -2.9349 H   0  0  0  1  0  0  0  0  0  0  0  0
    0.9189    5.2078   -4.1108 H   0  0  0  1  0  0  0  0  0  0  0  0
    0.8957    6.4164   -2.8494 H   0  0  0  1  0  0  0  0  0  0  0  0
   -0.4342    6.3050   -3.9777 H   0  0  0  1  0  0  0  0  0  0  0  0
    0.2209    2.4749    3.0234 H   0  0  0  1  0  0  0  0  0  0  0  0
    1.6206    3.4659    2.6898 H   0  0  0  1  0  0  0  0  0  0  0  0
    1.6736    1.7465    2.3817 H   0  0  0  1  0  0  0  0  0  0  0  0
   -1.4122    2.6585   -1.2389 C   0  0  0  1  0  0  0  0  0  0  0  0
   -2.7816    2.5645   -1.8798 C   0  0  0  1  0  0  0  0  0  0  0  0
   -3.0290    3.0064   -3.1658 C   0  0  0  1  0  0  0  0  0  0  0  0
   -4.3006    2.8915   -3.7057 C   0  0  0  1  0  0  0  0  0  0  0  0
   -5.3223    2.3398   -2.9559 C   0  0  0  1  0  0  0  0  0  0  0  0
   -5.0743    1.8967   -1.6661 C   0  0  0  1  0  0  0  0  0  0  0  0
   -3.8064    2.0113   -1.1280 C   0  0  0  1  0  0  0  0  0  0  0  0
   -6.6067    2.1384   -3.5391 N   0  0  0  1  0  0  0  0  0  0  0  0
   -1.2968    1.8214   -0.5826 H   0  0  0  1  0  0  0  0  0  0  0  0
   -0.6794    2.6062   -2.0168 H   0  0  0  1  0  0  0  0  0  0  0  0
   -2.2611    3.4251   -3.7285 H   0  0  0  1  0  0  0  0  0  0  0  0
   -4.4858    3.2203   -4.6749 H   0  0  0  1  0  0  0  0  0  0  0  0
   -5.8421    1.4779   -1.1034 H   0  0  0  1  0  0  0  0  0  0  0  0
   -3.6213    1.6825   -0.1589 H   0  0  0  1  0  0  0  0  0  0  0  0
   -6.7456    2.3181   -4.4924 H   0  0  0  1  0  0  0  0  0  0  0  0
   -7.3511    1.8201   -2.9869 H   0  0  0  1  0  0  0  0  0  0  0  0
  1  4  1  0  0  0  0
  2  4  1  0  0  0  0
  2  5  2  0  0  0  0
  2  6  1  0  0  0  0
  3  4  1  0  0  0  0
  3  7  1  0  0  0  0
  3  8  1  0  0  0  0
  4 19  1  0  0  0  0
  6  9  1  0  0  0  0
  6 12  1  0  0  0  0
  8 10  1  0  0  0  0
  8 11  2  0  0  0  0
  9 13  1  0  0  0  0
  9 14  1  0  0  0  0
  9 15  1  0  0  0  0
 10 16  1  0  0  0  0
 10 17  1  0  0  0  0
 10 18  1  0  0  0  0
 19 20  1  0  0  0  0
 19 27  1  0  0  0  0
 19 28  1  0  0  0  0
 20 21  4  0  0  0  0
 20 25  4  0  0  0  0
 21 22  4  0  0  0  0
 21 29  1  0  0  0  0
 22 23  4  0  0  0  0
 22 30  1  0  0  0  0
 23 24  4  0  0  0  0
 23 26  1  0  0  0  0
 24 25  4  0  0  0  0
 24 31  1  0  0  0  0
 25 32  1  0  0  0  0
 26 33  1  0  0  0  0
 26 34  1  0  0  0  0
M  END
> <BCLConfClusterSize>
1

> <ConfClashScore>
0 

> <ConfOneFourInteractionScore>
-0.925862 

> <ConfScore>
0.455252 

> <ConfScorePBest>
0.00265034 

> <ConfTolerance>
0.79678 

> <RosettaParamsInstructions>
M  ROOT 3
M  POLY_N_BB 3
M  POLY_CA_BB 4
M  POLY_C_BB 2
M  POLY_O_BB 5
M  POLY_IGNORE 9 10 11 12 13 14 15 16 17 18 
M  POLY_UPPER 6
M  POLY_LOWER 8
M  POLY_CHG 0
M  POLY_PROPERTIES ALPHA_AA D_AA PROTEIN AROMATIC POLYMER 
M  END

$$$$



 34 34  0  0  0  0  0  0  0  0999 V2000
   -0.3365    3.5297    0.3490 H   0  0  0  1  0  0  0  0  0  0  0  0
   -1.9669    2.4404    1.1455 C   0  0  0  1  0  0  0  0  0  0  0  0
   -2.0552    4.6546    0.0501 N   0  0  0  1  0  0  0  0  0  0  0  0
   -1.3633    3.3643    0.0974 C   0  0  0  1  0  0  0  0  0  0  0  0
   -1.8985    1.2180    1.0237 O   0  0  0  1  0  0  0  0  0  0  0  0
   -2.5718    2.9962    2.1992 N   0  0  0  1  0  0  0  0  0  0  0  0
   -1.4953    5.4419   -0.1146 H   0  0  0  1  0  0  0  0  0  0  0  0
   -3.3601    4.8797    0.2056 C   0  0  0  1  0  0  0  0  0  0  0  0
   -3.2491    2.2033    3.2143 C   0  0  0  1  0  0  0  0  0  0  0  0
   -3.8986    6.2500   -0.1572 C   0  0  0  1  0  0  0  0  0  0  0  0
   -4.1558    4.0411    0.6266 O   0  0  0  1  0  0  0  0  0  0  0  0
   -2.5588    3.9717    2.2917 H   0  0  0  1  0  0  0  0  0  0  0  0
   -2.7534    2.3277    4.1543 H   0  0  0  1  0  0  0  0  0  0  0  0
   -3.2271    1.1710    2.9336 H   0  0  0  1  0  0  0  0  0  0  0  0
   -4.2649    2.5283    3.3013 H   0  0  0  1  0  0  0  0  0  0  0  0
   -3.2408    6.7177   -0.8597 H   0  0  0  1  0  0  0  0  0  0  0  0
   -3.9644    6.8520    0.7249 H   0  0  0  1  0  0  0  0  0  0  0  0
   -4.8704    6.1472   -0.5929 H   0  0  0  1  0  0  0  0  0  0  0  0
   -1.4139    2.7092   -1.2732 C   0  0  0  1  0  0  0  0  0  0  0  0
   -2.7873    2.5673   -1.8696 C   0  0  0  1  0  0  0  0  0  0  0  0
   -3.0407    3.0410   -3.1431 C   0  0  0  1  0  0  0  0  0  0  0  0
   -4.3054    2.9051   -3.6943 C   0  0  0  1  0  0  0  0  0  0  0  0
   -5.3142    2.3007   -2.9682 C   0  0  0  1  0  0  0  0  0  0  0  0
   -5.0602    1.8256   -1.6910 C   0  0  0  1  0  0  0  0  0  0  0  0
   -3.7993    1.9611   -1.1416 C   0  0  0  1  0  0  0  0  0  0  0  0
   -6.6061    2.1670   -3.5285 N   0  0  0  1  0  0  0  0  0  0  0  0
   -0.9887    1.7310   -1.1874 H   0  0  0  1  0  0  0  0  0  0  0  0
   -0.8226    3.2983   -1.9427 H   0  0  0  1  0  0  0  0  0  0  0  0
   -2.2826    3.4994   -3.6878 H   0  0  0  1  0  0  0  0  0  0  0  0
   -4.4950    3.2580   -4.6541 H   0  0  0  1  0  0  0  0  0  0  0  0
   -5.8183    1.3672   -1.1463 H   0  0  0  1  0  0  0  0  0  0  0  0
   -3.6097    1.6083   -0.1818 H   0  0  0  1  0  0  0  0  0  0  0  0
   -6.9178    2.8089   -4.2002 H   0  0  0  1  0  0  0  0  0  0  0  0
   -7.1895    1.4323   -3.2450 H   0  0  0  1  0  0  0  0  0  0  0  0
  1  4  1  0  0  0  0
  2  4  1  0  0  0  0
  2  5  2  0  0  0  0
  2  6  1  0  0  0  0
  3  4  1  0  0  0  0
  3  7  1  0  0  0  0
  3  8  1  0  0  0  0
  4 19  1  0  0  0  0
  6  9  1  0  0  0  0
  6 12  1  0  0  0  0
  8 10  1  0  0  0  0
  8 11  2  0  0  0  0
  9 13  1  0  0  0  0
  9 14  1  0  0  0  0
  9 15  1  0  0  0  0
 10 16  1  0  0  0  0
 10 17  1  0  0  0  0
 10 18  1  0  0  0  0
 19 20  1  0  0  0  0
 19 27  1  0  0  0  0
 19 28  1  0  0  0  0
 20 21  4  0  0  0  0
 20 25  4  0  0  0  0
 21 22  4  0  0  0  0
 21 29  1  0  0  0  0
 22 23  4  0  0  0  0
 22 30  1  0  0  0  0
 23 24  4  0  0  0  0
 23 26  1  0  0  0  0
 24 25  4  0  0  0  0
 24 31  1  0  0  0  0
 25 32  1  0  0  0  0
 26 33  1  0  0  0  0
 26 34  1  0  0  0  0
M  END
> <BCLConfClusterSize>
1

> <ConfClashScore>
0 

> <ConfOneFourInteractionScore>
-0.947651 

> <ConfScore>
0.460198 

> <ConfScorePBest>
0.00262186 

> <ConfTolerance>
0.40176 

> <RosettaParamsInstructions>
M  ROOT 3
M  POLY_N_BB 3
M  POLY_CA_BB 4
M  POLY_C_BB 2
M  POLY_O_BB 5
M  POLY_IGNORE 9 10 11 12 13 14 15 16 17 18 
M  POLY_UPPER 6
M  POLY_LOWER 8
M  POLY_CHG 0
M  POLY_PROPERTIES ALPHA_AA D_AA PROTEIN AROMATIC POLYMER 
M  END

$$$$



 34 34  0  0  0  0  0  0  0  0999 V2000
   -0.5998    2.2364   -3.1426 H   0  0  0  1  0  0  0  0  0  0  0  0
    0.0211    0.6906   -1.8923 C   0  0  0  1  0  0  0  0  0  0  0  0
    0.9573    2.9453   -2.0211 N   0  0  0  1  0  0  0  0  0  0  0  0
   -0.2745    2.1594   -2.1262 C   0  0  0  1  0  0  0  0  0  0  0  0
   -0.8051   -0.0497   -1.3654 O   0  0  0  1  0  0  0  0  0  0  0  0
    1.2237    0.2695   -2.2940 N   0  0  0  1  0  0  0  0  0  0  0  0
    1.2624    3.4530   -2.8018 H   0  0  0  1  0  0  0  0  0  0  0  0
    1.6792    2.9938   -0.8979 C   0  0  0  1  0  0  0  0  0  0  0  0
    1.6680   -1.1040   -2.1096 C   0  0  0  1  0  0  0  0  0  0  0  0
    2.9618    3.7992   -0.9736 C   0  0  0  1  0  0  0  0  0  0  0  0
    1.3417    2.4288    0.1390 O   0  0  0  1  0  0  0  0  0  0  0  0
    1.8276    0.9077   -2.7280 H   0  0  0  1  0  0  0  0  0  0  0  0
    2.0172   -1.4947   -3.0424 H   0  0  0  1  0  0  0  0  0  0  0  0
    0.8510   -1.6986   -1.7576 H   0  0  0  1  0  0  0  0  0  0  0  0
    2.4623   -1.1285   -1.3931 H   0  0  0  1  0  0  0  0  0  0  0  0
    3.5651    3.4352   -1.7788 H   0  0  0  1  0  0  0  0  0  0  0  0
    3.4989    3.7013   -0.0533 H   0  0  0  1  0  0  0  0  0  0  0  0
    2.7264    4.8293   -1.1420 H   0  0  0  1  0  0  0  0  0  0  0  0
   -1.4090    2.7201   -1.2842 C   0  0  0  1  0  0  0  0  0  0  0  0
   -2.7853    2.5732   -1.8760 C   0  0  0  1  0  0  0  0  0  0  0  0
   -3.0362    3.0145   -3.1616 C   0  0  0  1  0  0  0  0  0  0  0  0
   -4.3024    2.8741   -3.7080 C   0  0  0  1  0  0  0  0  0  0  0  0
   -5.3154    2.2977   -2.9651 C   0  0  0  1  0  0  0  0  0  0  0  0
   -5.0639    1.8551   -1.6757 C   0  0  0  1  0  0  0  0  0  0  0  0
   -3.8014    1.9952   -1.1312 C   0  0  0  1  0  0  0  0  0  0  0  0
   -6.6089    2.1594   -3.5205 N   0  0  0  1  0  0  0  0  0  0  0  0
   -1.2239    3.7632   -1.1338 H   0  0  0  1  0  0  0  0  0  0  0  0
   -1.4000    2.2160   -0.3405 H   0  0  0  1  0  0  0  0  0  0  0  0
   -2.2749    3.4518   -3.7191 H   0  0  0  1  0  0  0  0  0  0  0  0
   -4.4901    3.2025   -4.6767 H   0  0  0  1  0  0  0  0  0  0  0  0
   -5.8252    1.4178   -1.1183 H   0  0  0  1  0  0  0  0  0  0  0  0
   -3.6137    1.6668   -0.1624 H   0  0  0  1  0  0  0  0  0  0  0  0
   -7.3629    1.9041   -2.9489 H   0  0  0  1  0  0  0  0  0  0  0  0
   -6.7511    2.3189   -4.4769 H   0  0  0  1  0  0  0  0  0  0  0  0
  1  4  1  0  0  0  0
  2  4  1  0  0  0  0
  2  5  2  0  0  0  0
  2  6  1  0  0  0  0
  3  4  1  0  0  0  0
  3  7  1  0  0  0  0
  3  8  1  0  0  0  0
  4 19  1  0  0  0  0
  6  9  1  0  0  0  0
  6 12  1  0  0  0  0
  8 10  1  0  0  0  0
  8 11  2  0  0  0  0
  9 13  1  0  0  0  0
  9 14  1  0  0  0  0
  9 15  1  0  0  0  0
 10 16  1  0  0  0  0
 10 17  1  0  0  0  0
 10 18  1  0  0  0  0
 19 20  1  0  0  0  0
 19 27  1  0  0  0  0
 19 28  1  0  0  0  0
 20 21  4  0  0  0  0
 20 25  4  0  0  0  0
 21 22  4  0  0  0  0
 21 29  1  0  0  0  0
 22 23  4  0  0  0  0
 22 30  1  0  0  0  0
 23 24  4  0  0  0  0
 23 26  1  0  0  0  0
 24 25  4  0  0  0  0
 24 31  1  0  0  0  0
 25 32  1  0  0  0  0
 26 33  1  0  0  0  0
 26 34  1  0  0  0  0
M  END
> <BCLConfClusterSize>
1

> <ConfClashScore>
0 

> <ConfOneFourInteractionScore>
-0.949684 

> <ConfScore>
0.468855 

> <ConfScorePBest>
0.00259338 

> <ConfTolerance>
0.924052 

> <RosettaParamsInstructions>
M  ROOT 3
M  POLY_N_BB 3
M  POLY_CA_BB 4
M  POLY_C_BB 2
M  POLY_O_BB 5
M  POLY_IGNORE 9 10 11 12 13 14 15 16 17 18 
M  POLY_UPPER 6
M  POLY_LOWER 8
M  POLY_CHG 0
M  POLY_PROPERTIES ALPHA_AA D_AA PROTEIN AROMATIC POLYMER 
M  END

$$$$



 34 34  0  0  0  0  0  0  0  0999 V2000
   -1.1385    0.7861   -2.1258 H   0  0  0  1  0  0  0  0  0  0  0  0
    0.0525    0.9253   -0.3620 C   0  0  0  1  0  0  0  0  0  0  0  0
    0.5150    1.9630   -2.5181 N   0  0  0  1  0  0  0  0  0  0  0  0
   -0.5367    1.5260   -1.6406 C   0  0  0  1  0  0  0  0  0  0  0  0
   -0.0181    1.5143    0.7063 O   0  0  0  1  0  0  0  0  0  0  0  0
    0.6413   -0.2734   -0.4983 N   0  0  0  1  0  0  0  0  0  0  0  0
    0.7097    2.9230   -2.5489 H   0  0  0  1  0  0  0  0  0  0  0  0
    1.2468    1.1590   -3.2947 C   0  0  0  1  0  0  0  0  0  0  0  0
    1.1729   -1.0120    0.6374 C   0  0  0  1  0  0  0  0  0  0  0  0
    2.2268    1.8725   -4.2232 C   0  0  0  1  0  0  0  0  0  0  0  0
    1.1113   -0.0541   -3.3351 O   0  0  0  1  0  0  0  0  0  0  0  0
    0.7158   -0.6647   -1.3937 H   0  0  0  1  0  0  0  0  0  0  0  0
    1.8434   -0.3860    1.1883 H   0  0  0  1  0  0  0  0  0  0  0  0
    1.6985   -1.8754    0.2865 H   0  0  0  1  0  0  0  0  0  0  0  0
    0.3677   -1.3175    1.2723 H   0  0  0  1  0  0  0  0  0  0  0  0
    2.4122    1.2633   -5.0831 H   0  0  0  1  0  0  0  0  0  0  0  0
    3.1465    2.0466   -3.7048 H   0  0  0  1  0  0  0  0  0  0  0  0
    1.8085    2.8076   -4.5323 H   0  0  0  1  0  0  0  0  0  0  0  0
   -1.4146    2.7140   -1.2697 C   0  0  0  1  0  0  0  0  0  0  0  0
   -2.7884    2.5699   -1.8680 C   0  0  0  1  0  0  0  0  0  0  0  0
   -3.0338    3.0170   -3.1526 C   0  0  0  1  0  0  0  0  0  0  0  0
   -4.2977    2.8792   -3.7050 C   0  0  0  1  0  0  0  0  0  0  0  0
   -5.3138    2.2994   -2.9691 C   0  0  0  1  0  0  0  0  0  0  0  0
   -5.0678    1.8509   -1.6807 C   0  0  0  1  0  0  0  0  0  0  0  0
   -3.8076    1.9884   -1.1301 C   0  0  0  1  0  0  0  0  0  0  0  0
   -6.6049    2.1636   -3.5306 N   0  0  0  1  0  0  0  0  0  0  0  0
   -0.9639    3.6118   -1.6381 H   0  0  0  1  0  0  0  0  0  0  0  0
   -1.4998    2.7682   -0.2045 H   0  0  0  1  0  0  0  0  0  0  0  0
   -2.2701    3.4569   -3.7048 H   0  0  0  1  0  0  0  0  0  0  0  0
   -4.4813    3.2120   -4.6730 H   0  0  0  1  0  0  0  0  0  0  0  0
   -5.8315    1.4110   -1.1285 H   0  0  0  1  0  0  0  0  0  0  0  0
   -3.6241    1.6556   -0.1621 H   0  0  0  1  0  0  0  0  0  0  0  0
   -6.7985    2.5454   -4.4122 H   0  0  0  1  0  0  0  0  0  0  0  0
   -7.3060    1.6878   -3.0381 H   0  0  0  1  0  0  0  0  0  0  0  0
  1  4  1  0  0  0  0
  2  4  1  0  0  0  0
  2  5  2  0  0  0  0
  2  6  1  0  0  0  0
  3  4  1  0  0  0  0
  3  7  1  0  0  0  0
  3  8  1  0  0  0  0
  4 19  1  0  0  0  0
  6  9  1  0  0  0  0
  6 12  1  0  0  0  0
  8 10  1  0  0  0  0
  8 11  2  0  0  0  0
  9 13  1  0  0  0  0
  9 14  1  0  0  0  0
  9 15  1  0  0  0  0
 10 16  1  0  0  0  0
 10 17  1  0  0  0  0
 10 18  1  0  0  0  0
 19 20  1  0  0  0  0
 19 27  1  0  0  0  0
 19 28  1  0  0  0  0
 20 21  4  0  0  0  0
 20 25  4  0  0  0  0
 21 22  4  0  0  0  0
 21 29  1  0  0  0  0
 22 23  4  0  0  0  0
 22 30  1  0  0  0  0
 23 24  4  0  0  0  0
 23 26  1  0  0  0  0
 24 25  4  0  0  0  0
 24 31  1  0  0  0  0
 25 32  1  0  0  0  0
 26 33  1  0  0  0  0
 26 34  1  0  0  0  0
M  END
> <BCLConfClusterSize>
1

> <ConfClashScore>
0 

> <ConfOneFourInteractionScore>
-0.96765 

> <ConfScore>
0.487033 

> <ConfScorePBest>
0.0025649 

> <ConfTolerance>
1.17241 

> <RosettaParamsInstructions>
M  ROOT 3
M  POLY_N_BB 3
M  POLY_CA_BB 4
M  POLY_C_BB 2
M  POLY_O_BB 5
M  POLY_IGNORE 9 10 11 12 13 14 15 16 17 18 
M  POLY_UPPER 6
M  POLY_LOWER 8
M  POLY_CHG 0
M  POLY_PROPERTIES ALPHA_AA D_AA PROTEIN AROMATIC POLYMER 
M  END

$$$$



 34 34  0  0  0  0  0  0  0  0999 V2000
   -0.5497    3.9452    0.2309 H   0  0  0  1  0  0  0  0  0  0  0  0
   -1.4033    2.2214    1.1466 C   0  0  0  1  0  0  0  0  0  0  0  0
   -2.6191    4.1549    0.2666 N   0  0  0  1  0  0  0  0  0  0  0  0
   -1.4237    3.3400    0.1087 C   0  0  0  1  0  0  0  0  0  0  0  0
   -2.4330    1.6427    1.4572 O   0  0  0  1  0  0  0  0  0  0  0  0
   -0.1810    1.8928    1.5940 N   0  0  0  1  0  0  0  0  0  0  0  0
   -3.3628    3.8051    0.8004 H   0  0  0  1  0  0  0  0  0  0  0  0
   -2.7390    5.3734   -0.2956 C   0  0  0  1  0  0  0  0  0  0  0  0
   -0.0303    0.8910    2.6389 C   0  0  0  1  0  0  0  0  0  0  0  0
   -4.0913    6.0198   -0.0667 C   0  0  0  1  0  0  0  0  0  0  0  0
   -1.8628    5.9326   -0.9345 O   0  0  0  1  0  0  0  0  0  0  0  0
    0.6114    2.3284    1.2162 H   0  0  0  1  0  0  0  0  0  0  0  0
   -0.3035    1.3152    3.5824 H   0  0  0  1  0  0  0  0  0  0  0  0
    0.9883    0.5654    2.6761 H   0  0  0  1  0  0  0  0  0  0  0  0
   -0.6647    0.0560    2.4263 H   0  0  0  1  0  0  0  0  0  0  0  0
   -4.8527    5.4300   -0.5330 H   0  0  0  1  0  0  0  0  0  0  0  0
   -4.0928    7.0026   -0.4897 H   0  0  0  1  0  0  0  0  0  0  0  0
   -4.2829    6.0829    0.9841 H   0  0  0  1  0  0  0  0  0  0  0  0
   -1.4106    2.7228   -1.2837 C   0  0  0  1  0  0  0  0  0  0  0  0
   -2.7866    2.5747   -1.8759 C   0  0  0  1  0  0  0  0  0  0  0  0
   -3.0335    3.0013   -3.1672 C   0  0  0  1  0  0  0  0  0  0  0  0
   -4.2995    2.8598   -3.7139 C   0  0  0  1  0  0  0  0  0  0  0  0
   -5.3162    2.2968   -2.9657 C   0  0  0  1  0  0  0  0  0  0  0  0
   -5.0687    1.8689   -1.6707 C   0  0  0  1  0  0  0  0  0  0  0  0
   -3.8064    2.0101   -1.1258 C   0  0  0  1  0  0  0  0  0  0  0  0
   -6.6048    2.1578   -3.5197 N   0  0  0  1  0  0  0  0  0  0  0  0
   -0.9601    1.7542   -1.2226 H   0  0  0  1  0  0  0  0  0  0  0  0
   -0.8281    3.3477   -1.9278 H   0  0  0  1  0  0  0  0  0  0  0  0
   -2.2695    3.4286   -3.7286 H   0  0  0  1  0  0  0  0  0  0  0  0
   -4.4842    3.1772   -4.6869 H   0  0  0  1  0  0  0  0  0  0  0  0
   -5.8327    1.4416   -1.1092 H   0  0  0  1  0  0  0  0  0  0  0  0
   -3.6217    1.6927   -0.1528 H   0  0  0  1  0  0  0  0  0  0  0  0
   -7.3195    1.7364   -2.9981 H   0  0  0  1  0  0  0  0  0  0  0  0
   -6.7861    2.4826   -4.4264 H   0  0  0  1  0  0  0  0  0  0  0  0
  1  4  1  0  0  0  0
  2  4  1  0  0  0  0
  2  5  2  0  0  0  0
  2  6  1  0  0  0  0
  3  4  1  0  0  0  0
  3  7  1  0  0  0  0
  3  8  1  0  0  0  0
  4 19  1  0  0  0  0
  6  9  1  0  0  0  0
  6 12  1  0  0  0  0
  8 10  1  0  0  0  0
  8 11  2  0  0  0  0
  9 13  1  0  0  0  0
  9 14  1  0  0  0  0
  9 15  1  0  0  0  0
 10 16  1  0  0  0  0
 10 17  1  0  0  0  0
 10 18  1  0  0  0  0
 19 20  1  0  0  0  0
 19 27  1  0  0  0  0
 19 28  1  0  0  0  0
 20 21  4  0  0  0  0
 20 25  4  0  0  0  0
 21 22  4  0  0  0  0
 21 29  1  0  0  0  0
 22 23  4  0  0  0  0
 22 30  1  0  0  0  0
 23 24  4  0  0  0  0
 23 26  1  0  0  0  0
 24 25  4  0  0  0  0
 24 31  1  0  0  0  0
 25 32  1  0  0  0  0
 26 33  1  0  0  0  0
 26 34  1  0  0  0  0
M  END
> <BCLConfClusterSize>
1

> <ConfClashScore>
0 

> <ConfOneFourInteractionScore>
-0.967251 

> <ConfScore>
0.495473 

> <ConfScorePBest>
0.00253641 

> <ConfTolerance>
0.99005 

> <RosettaParamsInstructions>
M  ROOT 3
M  POLY_N_BB 3
M  POLY_CA_BB 4
M  POLY_C_BB 2
M  POLY_O_BB 5
M  POLY_IGNORE 9 10 11 12 13 14 15 16 17 18 
M  POLY_UPPER 6
M  POLY_LOWER 8
M  POLY_CHG 0
M  POLY_PROPERTIES ALPHA_AA D_AA PROTEIN AROMATIC POLYMER 
M  END

$$$$



 34 34  0  0  0  0  0  0  0  0999 V2000
    0.3764    1.5675   -1.3390 H   0  0  0  1  0  0  0  0  0  0  0  0
    0.3828    2.7861   -3.0687 C   0  0  0  1  0  0  0  0  0  0  0  0
   -0.9748    0.7659   -2.6844 N   0  0  0  1  0  0  0  0  0  0  0  0
   -0.3412    1.9139   -2.0530 C   0  0  0  1  0  0  0  0  0  0  0  0
    1.4672    3.3093   -2.8688 O   0  0  0  1  0  0  0  0  0  0  0  0
   -0.2406    2.9635   -4.2346 N   0  0  0  1  0  0  0  0  0  0  0  0
   -1.8743    0.5045   -2.3964 H   0  0  0  1  0  0  0  0  0  0  0  0
   -0.3738    0.0573   -3.6414 C   0  0  0  1  0  0  0  0  0  0  0  0
    0.2146    3.8484   -5.2965 C   0  0  0  1  0  0  0  0  0  0  0  0
   -1.0866   -1.2114   -4.0676 C   0  0  0  1  0  0  0  0  0  0  0  0
    0.6908    0.3955   -4.1570 O   0  0  0  1  0  0  0  0  0  0  0  0
   -1.0673    2.4600   -4.3875 H   0  0  0  1  0  0  0  0  0  0  0  0
    1.1896    3.5477   -5.6187 H   0  0  0  1  0  0  0  0  0  0  0  0
    0.2541    4.8531   -4.9308 H   0  0  0  1  0  0  0  0  0  0  0  0
   -0.4654    3.7949   -6.1210 H   0  0  0  1  0  0  0  0  0  0  0  0
   -0.4792   -2.0595   -3.8295 H   0  0  0  1  0  0  0  0  0  0  0  0
   -1.2625   -1.1840   -5.1227 H   0  0  0  1  0  0  0  0  0  0  0  0
   -2.0209   -1.2859   -3.5515 H   0  0  0  1  0  0  0  0  0  0  0  0
   -1.3965    2.7354   -1.3051 C   0  0  0  1  0  0  0  0  0  0  0  0
   -2.7889    2.5755   -1.8787 C   0  0  0  1  0  0  0  0  0  0  0  0
   -3.0564    2.9882   -3.1704 C   0  0  0  1  0  0  0  0  0  0  0  0
   -4.3298    2.8367   -3.6968 C   0  0  0  1  0  0  0  0  0  0  0  0
   -5.3332    2.2778   -2.9280 C   0  0  0  1  0  0  0  0  0  0  0  0
   -5.0650    1.8639   -1.6325 C   0  0  0  1  0  0  0  0  0  0  0  0
   -3.7954    2.0150   -1.1079 C   0  0  0  1  0  0  0  0  0  0  0  0
   -6.5846    2.1754   -3.5535 N   0  0  0  1  0  0  0  0  0  0  0  0
   -1.1234    3.7687   -1.3569 H   0  0  0  1  0  0  0  0  0  0  0  0
   -1.4113    2.4207   -0.2825 H   0  0  0  1  0  0  0  0  0  0  0  0
   -2.3023    3.4124   -3.7474 H   0  0  0  1  0  0  0  0  0  0  0  0
   -4.5301    3.1436   -4.6701 H   0  0  0  1  0  0  0  0  0  0  0  0
   -5.8191    1.4397   -1.0555 H   0  0  0  1  0  0  0  0  0  0  0  0
   -3.5951    1.7082   -0.1346 H   0  0  0  1  0  0  0  0  0  0  0  0
   -7.3123    1.6856   -3.1165 H   0  0  0  1  0  0  0  0  0  0  0  0
   -6.7312    2.5936   -4.4276 H   0  0  0  1  0  0  0  0  0  0  0  0
  1  4  1  0  0  0  0
  2  4  1  0  0  0  0
  2  5  2  0  0  0  0
  2  6  1  0  0  0  0
  3  4  1  0  0  0  0
  3  7  1  0  0  0  0
  3  8  1  0  0  0  0
  4 19  1  0  0  0  0
  6  9  1  0  0  0  0
  6 12  1  0  0  0  0
  8 10  1  0  0  0  0
  8 11  2  0  0  0  0
  9 13  1  0  0  0  0
  9 14  1  0  0  0  0
  9 15  1  0  0  0  0
 10 16  1  0  0  0  0
 10 17  1  0  0  0  0
 10 18  1  0  0  0  0
 19 20  1  0  0  0  0
 19 27  1  0  0  0  0
 19 28  1  0  0  0  0
 20 21  4  0  0  0  0
 20 25  4  0  0  0  0
 21 22  4  0  0  0  0
 21 29  1  0  0  0  0
 22 23  4  0  0  0  0
 22 30  1  0  0  0  0
 23 24  4  0  0  0  0
 23 26  1  0  0  0  0
 24 25  4  0  0  0  0
 24 31  1  0  0  0  0
 25 32  1  0  0  0  0
 26 33  1  0  0  0  0
 26 34  1  0  0  0  0
M  END
> <BCLConfClusterSize>
1

> <ConfClashScore>
0.000416699 

> <ConfOneFourInteractionScore>
-0.937067 

> <ConfScore>
0.501907 

> <ConfScorePBest>
0.00250793 

> <ConfTolerance>
0.478196 

> <RosettaParamsInstructions>
M  ROOT 3
M  POLY_N_BB 3
M  POLY_CA_BB 4
M  POLY_C_BB 2
M  POLY_O_BB 5
M  POLY_IGNORE 9 10 11 12 13 14 15 16 17 18 
M  POLY_UPPER 6
M  POLY_LOWER 8
M  POLY_CHG 0
M  POLY_PROPERTIES ALPHA_AA D_AA PROTEIN AROMATIC POLYMER 
M  END

$$$$



 34 34  0  0  0  0  0  0  0  0999 V2000
   -0.8955    0.8884   -2.1899 H   0  0  0  1  0  0  0  0  0  0  0  0
    0.6857    1.3668   -0.8895 C   0  0  0  1  0  0  0  0  0  0  0  0
    0.2009    2.3826   -3.0826 N   0  0  0  1  0  0  0  0  0  0  0  0
   -0.3760    1.7757   -1.8937 C   0  0  0  1  0  0  0  0  0  0  0  0
    1.0124    0.1987   -0.7535 O   0  0  0  1  0  0  0  0  0  0  0  0
    1.2286    2.3656   -0.1756 N   0  0  0  1  0  0  0  0  0  0  0  0
    0.1759    1.8857   -3.9269 H   0  0  0  1  0  0  0  0  0  0  0  0
    0.7650    3.5966   -3.0638 C   0  0  0  1  0  0  0  0  0  0  0  0
    2.3107    2.0919    0.7583 C   0  0  0  1  0  0  0  0  0  0  0  0
    1.2326    4.1265   -4.4054 C   0  0  0  1  0  0  0  0  0  0  0  0
    0.9036    4.2550   -2.0338 O   0  0  0  1  0  0  0  0  0  0  0  0
    0.8957    3.2809   -0.2835 H   0  0  0  1  0  0  0  0  0  0  0  0
    2.5682    1.0543    0.7125 H   0  0  0  1  0  0  0  0  0  0  0  0
    1.9955    2.3374    1.7509 H   0  0  0  1  0  0  0  0  0  0  0  0
    3.1640    2.6827    0.4981 H   0  0  0  1  0  0  0  0  0  0  0  0
    1.6814    5.0887   -4.2726 H   0  0  0  1  0  0  0  0  0  0  0  0
    0.3955    4.2118   -5.0663 H   0  0  0  1  0  0  0  0  0  0  0  0
    1.9510    3.4529   -4.8239 H   0  0  0  1  0  0  0  0  0  0  0  0
   -1.4072    2.7175   -1.2651 C   0  0  0  1  0  0  0  0  0  0  0  0
   -2.7894    2.5713   -1.8677 C   0  0  0  1  0  0  0  0  0  0  0  0
   -3.0309    3.0045   -3.1578 C   0  0  0  1  0  0  0  0  0  0  0  0
   -4.2945    2.8655   -3.7106 C   0  0  0  1  0  0  0  0  0  0  0  0
   -5.3143    2.2986   -2.9696 C   0  0  0  1  0  0  0  0  0  0  0  0
   -5.0722    1.8641   -1.6758 C   0  0  0  1  0  0  0  0  0  0  0  0
   -3.8123    2.0027   -1.1248 C   0  0  0  1  0  0  0  0  0  0  0  0
   -6.6051    2.1617   -3.5316 N   0  0  0  1  0  0  0  0  0  0  0  0
   -1.0787    3.7259   -1.4072 H   0  0  0  1  0  0  0  0  0  0  0  0
   -1.4681    2.5058   -0.2180 H   0  0  0  1  0  0  0  0  0  0  0  0
   -2.2646    3.4347   -3.7139 H   0  0  0  1  0  0  0  0  0  0  0  0
   -4.4752    3.1878   -4.6827 H   0  0  0  1  0  0  0  0  0  0  0  0
   -5.8385    1.4338   -1.1197 H   0  0  0  1  0  0  0  0  0  0  0  0
   -3.6316    1.6804   -0.1526 H   0  0  0  1  0  0  0  0  0  0  0  0
   -6.7562    2.3888   -4.4729 H   0  0  0  1  0  0  0  0  0  0  0  0
   -7.3482    1.8398   -2.9798 H   0  0  0  1  0  0  0  0  0  0  0  0
  1  4  1  0  0  0  0
  2  4  1  0  0  0  0
  2  5  2  0  0  0  0
  2  6  1  0  0  0  0
  3  4  1  0  0  0  0
  3  7  1  0  0  0  0
  3  8  1  0  0  0  0
  4 19  1  0  0  0  0
  6  9  1  0  0  0  0
  6 12  1  0  0  0  0
  8 10  1  0  0  0  0
  8 11  2  0  0  0  0
  9 13  1  0  0  0  0
  9 14  1  0  0  0  0
  9 15  1  0  0  0  0
 10 16  1  0  0  0  0
 10 17  1  0  0  0  0
 10 18  1  0  0  0  0
 19 20  1  0  0  0  0
 19 27  1  0  0  0  0
 19 28  1  0  0  0  0
 20 21  4  0  0  0  0
 20 25  4  0  0  0  0
 21 22  4  0  0  0  0
 21 29  1  0  0  0  0
 22 23  4  0  0  0  0
 22 30  1  0  0  0  0
 23 24  4  0  0  0  0
 23 26  1  0  0  0  0
 24 25  4  0  0  0  0
 24 31  1  0  0  0  0
 25 32  1  0  0  0  0
 26 33  1  0  0  0  0
 26 34  1  0  0  0  0
M  END
> <BCLConfClusterSize>
1

> <ConfClashScore>
0 

> <ConfOneFourInteractionScore>
-0.919548 

> <ConfScore>
0.515727 

> <ConfScorePBest>
0.00247945 

> <ConfTolerance>
1.19342 

> <RosettaParamsInstructions>
M  ROOT 3
M  POLY_N_BB 3
M  POLY_CA_BB 4
M  POLY_C_BB 2
M  POLY_O_BB 5
M  POLY_IGNORE 9 10 11 12 13 14 15 16 17 18 
M  POLY_UPPER 6
M  POLY_LOWER 8
M  POLY_CHG 0
M  POLY_PROPERTIES ALPHA_AA D_AA PROTEIN AROMATIC POLYMER 
M  END

$$$$



 34 34  0  0  0  0  0  0  0  0999 V2000
   -0.7775    1.4540   -2.8012 H   0  0  0  1  0  0  0  0  0  0  0  0
   -0.0548    0.5885   -1.0276 C   0  0  0  1  0  0  0  0  0  0  0  0
    0.8190    2.5935   -2.1703 N   0  0  0  1  0  0  0  0  0  0  0  0
   -0.3721    1.8050   -1.8753 C   0  0  0  1  0  0  0  0  0  0  0  0
    1.0578    0.0648   -1.0538 O   0  0  0  1  0  0  0  0  0  0  0  0
   -1.0540    0.1362   -0.2646 N   0  0  0  1  0  0  0  0  0  0  0  0
    1.6916    2.3080   -1.8278 H   0  0  0  1  0  0  0  0  0  0  0  0
    0.7197    3.7394   -2.9299 C   0  0  0  1  0  0  0  0  0  0  0  0
   -0.8537   -1.0259    0.5883 C   0  0  0  1  0  0  0  0  0  0  0  0
    1.9917    4.5132   -3.1195 C   0  0  0  1  0  0  0  0  0  0  0  0
   -0.3529    4.0685   -3.4002 O   0  0  0  1  0  0  0  0  0  0  0  0
   -1.9236    0.5878   -0.2793 H   0  0  0  1  0  0  0  0  0  0  0  0
   -1.3073   -0.8517    1.5416 H   0  0  0  1  0  0  0  0  0  0  0  0
    0.1947   -1.1962    0.7182 H   0  0  0  1  0  0  0  0  0  0  0  0
   -1.3011   -1.8842    0.1321 H   0  0  0  1  0  0  0  0  0  0  0  0
    2.7919    4.0146   -2.6135 H   0  0  0  1  0  0  0  0  0  0  0  0
    1.8737    5.4974   -2.7166 H   0  0  0  1  0  0  0  0  0  0  0  0
    2.2165    4.5793   -4.1635 H   0  0  0  1  0  0  0  0  0  0  0  0
   -1.4393    2.6835   -1.2157 C   0  0  0  1  0  0  0  0  0  0  0  0
   -2.7858    2.5744   -1.8798 C   0  0  0  1  0  0  0  0  0  0  0  0
   -3.0168    3.0296   -3.1642 C   0  0  0  1  0  0  0  0  0  0  0  0
   -4.2757    2.8993   -3.7299 C   0  0  0  1  0  0  0  0  0  0  0  0
   -5.3011    2.3189   -3.0073 C   0  0  0  1  0  0  0  0  0  0  0  0
   -5.0695    1.8624   -1.7192 C   0  0  0  1  0  0  0  0  0  0  0  0
   -3.8143    1.9924   -1.1553 C   0  0  0  1  0  0  0  0  0  0  0  0
   -6.6158    2.1431   -3.4843 N   0  0  0  1  0  0  0  0  0  0  0  0
   -1.1179    3.7030   -1.2628 H   0  0  0  1  0  0  0  0  0  0  0  0
   -1.5392    2.3874   -0.1924 H   0  0  0  1  0  0  0  0  0  0  0  0
   -2.2462    3.4698   -3.7063 H   0  0  0  1  0  0  0  0  0  0  0  0
   -4.4485    3.2381   -4.6978 H   0  0  0  1  0  0  0  0  0  0  0  0
   -5.8401    1.4222   -1.1770 H   0  0  0  1  0  0  0  0  0  0  0  0
   -3.6416    1.6536   -0.1874 H   0  0  0  1  0  0  0  0  0  0  0  0
   -6.8829    2.5365   -4.3412 H   0  0  0  1  0  0  0  0  0  0  0  0
   -7.2627    1.6274   -2.9591 H   0  0  0  1  0  0  0  0  0  0  0  0
  1  4  1  0  0  0  0
  2  4  1  0  0  0  0
  2  5  2  0  0  0  0
  2  6  1  0  0  0  0
  3  4  1  0  0  0  0
  3  7  1  0  0  0  0
  3  8  1  0  0  0  0
  4 19  1  0  0  0  0
  6  9  1  0  0  0  0
  6 12  1  0  0  0  0
  8 10  1  0  0  0  0
  8 11  2  0  0  0  0
  9 13  1  0  0  0  0
  9 14  1  0  0  0  0
  9 15  1  0  0  0  0
 10 16  1  0  0  0  0
 10 17  1  0  0  0  0
 10 18  1  0  0  0  0
 19 20  1  0  0  0  0
 19 27  1  0  0  0  0
 19 28  1  0  0  0  0
 20 21  4  0  0  0  0
 20 25  4  0  0  0  0
 21 22  4  0  0  0  0
 21 29  1  0  0  0  0
 22 23  4  0  0  0  0
 22 30  1  0  0  0  0
 23 24  4  0  0  0  0
 23 26  1  0  0  0  0
 24 25  4  0  0  0  0
 24 31  1  0  0  0  0
 25 32  1  0  0  0  0
 26 33  1  0  0  0  0
 26 34  1  0  0  0  0
M  END
> <BCLConfClusterSize>
1

> <ConfClashScore>
0 

> <ConfOneFourInteractionScore>
-0.925695 

> <ConfScore>
0.532559 

> <ConfScorePBest>
0.00245097 

> <ConfTolerance>
1.42774 

> <RosettaParamsInstructions>
M  ROOT 3
M  POLY_N_BB 3
M  POLY_CA_BB 4
M  POLY_C_BB 2
M  POLY_O_BB 5
M  POLY_IGNORE 9 10 11 12 13 14 15 16 17 18 
M  POLY_UPPER 6
M  POLY_LOWER 8
M  POLY_CHG 0
M  POLY_PROPERTIES ALPHA_AA D_AA PROTEIN AROMATIC POLYMER 
M  END

$$$$



 34 34  0  0  0  0  0  0  0  0999 V2000
    0.4591    1.7423   -1.2325 H   0  0  0  1  0  0  0  0  0  0  0  0
   -0.0199    1.9145   -3.2766 C   0  0  0  1  0  0  0  0  0  0  0  0
   -1.0001    0.3484   -1.6359 N   0  0  0  1  0  0  0  0  0  0  0  0
   -0.4266    1.6720   -1.8287 C   0  0  0  1  0  0  0  0  0  0  0  0
   -0.3856    2.9066   -3.8862 O   0  0  0  1  0  0  0  0  0  0  0  0
    0.7551    0.9522   -3.7850 N   0  0  0  1  0  0  0  0  0  0  0  0
   -1.9753    0.2544   -1.6123 H   0  0  0  1  0  0  0  0  0  0  0  0
   -0.2261   -0.7678   -1.4867 C   0  0  0  1  0  0  0  0  0  0  0  0
    1.1326    0.9194   -5.1901 C   0  0  0  1  0  0  0  0  0  0  0  0
   -1.0147   -2.0445   -1.4568 C   0  0  0  1  0  0  0  0  0  0  0  0
    0.9883   -0.7048   -1.3893 O   0  0  0  1  0  0  0  0  0  0  0  0
    1.0806    0.2439   -3.1911 H   0  0  0  1  0  0  0  0  0  0  0  0
    0.7878    0.0076   -5.6314 H   0  0  0  1  0  0  0  0  0  0  0  0
    2.1978    0.9756   -5.2744 H   0  0  0  1  0  0  0  0  0  0  0  0
    0.6898    1.7508   -5.6977 H   0  0  0  1  0  0  0  0  0  0  0  0
   -1.5426   -2.1600   -2.3803 H   0  0  0  1  0  0  0  0  0  0  0  0
   -1.7143   -2.0124   -0.6479 H   0  0  0  1  0  0  0  0  0  0  0  0
   -0.3492   -2.8713   -1.3208 H   0  0  0  1  0  0  0  0  0  0  0  0
   -1.3921    2.7417   -1.3356 C   0  0  0  1  0  0  0  0  0  0  0  0
   -2.7885    2.5673   -1.8700 C   0  0  0  1  0  0  0  0  0  0  0  0
   -3.0528    3.0257   -3.1469 C   0  0  0  1  0  0  0  0  0  0  0  0
   -4.3220    2.8833   -3.6857 C   0  0  0  1  0  0  0  0  0  0  0  0
   -5.3246    2.2876   -2.9440 C   0  0  0  1  0  0  0  0  0  0  0  0
   -5.0598    1.8277   -1.6634 C   0  0  0  1  0  0  0  0  0  0  0  0
   -3.7943    1.9698   -1.1263 C   0  0  0  1  0  0  0  0  0  0  0  0
   -6.5974    2.1736   -3.5389 N   0  0  0  1  0  0  0  0  0  0  0  0
   -1.0265    3.6988   -1.6440 H   0  0  0  1  0  0  0  0  0  0  0  0
   -1.4289    2.7008   -0.2670 H   0  0  0  1  0  0  0  0  0  0  0  0
   -2.2993    3.4775   -3.7034 H   0  0  0  1  0  0  0  0  0  0  0  0
   -4.5198    3.2246   -4.6480 H   0  0  0  1  0  0  0  0  0  0  0  0
   -5.8132    1.3759   -1.1069 H   0  0  0  1  0  0  0  0  0  0  0  0
   -3.5965    1.6285   -0.1640 H   0  0  0  1  0  0  0  0  0  0  0  0
   -7.4017    2.1722   -2.9789 H   0  0  0  1  0  0  0  0  0  0  0  0
   -6.6781    2.0958   -4.5125 H   0  0  0  1  0  0  0  0  0  0  0  0
  1  4  1  0  0  0  0
  2  4  1  0  0  0  0
  2  5  2  0  0  0  0
  2  6  1  0  0  0  0
  3  4  1  0  0  0  0
  3  7  1  0  0  0  0
  3  8  1  0  0  0  0
  4 19  1  0  0  0  0
  6  9  1  0  0  0  0
  6 12  1  0  0  0  0
  8 10  1  0  0  0  0
  8 11  2  0  0  0  0
  9 13  1  0  0  0  0
  9 14  1  0  0  0  0
  9 15  1  0  0  0  0
 10 16  1  0  0  0  0
 10 17  1  0  0  0  0
 10 18  1  0  0  0  0
 19 20  1  0  0  0  0
 19 27  1  0  0  0  0
 19 28  1  0  0  0  0
 20 21  4  0  0  0  0
 20 25  4  0  0  0  0
 21 22  4  0  0  0  0
 21 29  1  0  0  0  0
 22 23  4  0  0  0  0
 22 30  1  0  0  0  0
 23 24  4  0  0  0  0
 23 26  1  0  0  0  0
 24 25  4  0  0  0  0
 24 31  1  0  0  0  0
 25 32  1  0  0  0  0
 26 33  1  0  0  0  0
 26 34  1  0  0  0  0
M  END
> <BCLConfClusterSize>
1

> <ConfClashScore>
0 

> <ConfOneFourInteractionScore>
-0.969421 

> <ConfScore>
0.533124 

> <ConfScorePBest>
0.00242249 

> <ConfTolerance>
0.622049 

> <RosettaParamsInstructions>
M  ROOT 3
M  POLY_N_BB 3
M  POLY_CA_BB 4
M  POLY_C_BB 2
M  POLY_O_BB 5
M  POLY_IGNORE 9 10 11 12 13 14 15 16 17 18 
M  POLY_UPPER 6
M  POLY_LOWER 8
M  POLY_CHG 0
M  POLY_PROPERTIES ALPHA_AA D_AA PROTEIN AROMATIC POLYMER 
M  END

$$$$



 34 34  0  0  0  0  0  0  0  0999 V2000
    0.3416    1.6027   -1.2179 H   0  0  0  1  0  0  0  0  0  0  0  0
   -1.2322    0.2794   -1.7129 C   0  0  0  1  0  0  0  0  0  0  0  0
   -0.7576    1.3146    0.5069 N   0  0  0  1  0  0  0  0  0  0  0  0
   -0.6828    1.4719   -0.9379 C   0  0  0  1  0  0  0  0  0  0  0  0
   -1.7623    0.4228   -2.8138 O   0  0  0  1  0  0  0  0  0  0  0  0
   -1.0973   -0.9158   -1.1167 N   0  0  0  1  0  0  0  0  0  0  0  0
   -0.0540    1.7100    1.0628 H   0  0  0  1  0  0  0  0  0  0  0  0
   -1.7521    0.6498    1.1019 C   0  0  0  1  0  0  0  0  0  0  0  0
   -1.6154   -2.1156   -1.7586 C   0  0  0  1  0  0  0  0  0  0  0  0
   -1.7054    0.6122    2.6170 C   0  0  0  1  0  0  0  0  0  0  0  0
   -2.6550    0.0983    0.4782 O   0  0  0  1  0  0  0  0  0  0  0  0
   -0.6491   -0.9809   -0.2476 H   0  0  0  1  0  0  0  0  0  0  0  0
   -2.4466   -1.8572   -2.3808 H   0  0  0  1  0  0  0  0  0  0  0  0
   -1.9330   -2.8113   -1.0102 H   0  0  0  1  0  0  0  0  0  0  0  0
   -0.8472   -2.5601   -2.3563 H   0  0  0  1  0  0  0  0  0  0  0  0
   -0.6867    0.5755    2.9422 H   0  0  0  1  0  0  0  0  0  0  0  0
   -2.2231   -0.2560    2.9681 H   0  0  0  1  0  0  0  0  0  0  0  0
   -2.1736    1.4904    3.0100 H   0  0  0  1  0  0  0  0  0  0  0  0
   -1.4188    2.7600   -1.2685 C   0  0  0  1  0  0  0  0  0  0  0  0
   -2.7872    2.5849   -1.8708 C   0  0  0  1  0  0  0  0  0  0  0  0
   -3.0344    3.0114   -3.1620 C   0  0  0  1  0  0  0  0  0  0  0  0
   -4.2933    2.8450   -3.7180 C   0  0  0  1  0  0  0  0  0  0  0  0
   -5.3027    2.2575   -2.9790 C   0  0  0  1  0  0  0  0  0  0  0  0
   -5.0550    1.8297   -1.6840 C   0  0  0  1  0  0  0  0  0  0  0  0
   -3.7998    1.9956   -1.1299 C   0  0  0  1  0  0  0  0  0  0  0  0
   -6.6202    2.1796   -3.5163 N   0  0  0  1  0  0  0  0  0  0  0  0
   -0.8209    3.3129   -1.9626 H   0  0  0  1  0  0  0  0  0  0  0  0
   -1.5257    3.3206   -0.3634 H   0  0  0  1  0  0  0  0  0  0  0  0
   -2.2758    3.4571   -3.7166 H   0  0  0  1  0  0  0  0  0  0  0  0
   -4.4781    3.1623   -4.6910 H   0  0  0  1  0  0  0  0  0  0  0  0
   -5.8135    1.3840   -1.1295 H   0  0  0  1  0  0  0  0  0  0  0  0
   -3.6149    1.6784   -0.1568 H   0  0  0  1  0  0  0  0  0  0  0  0
   -7.3685    1.9135   -2.9423 H   0  0  0  1  0  0  0  0  0  0  0  0
   -6.7779    2.3922   -4.4599 H   0  0  0  1  0  0  0  0  0  0  0  0
  1  4  1  0  0  0  0
  2  4  1  0  0  0  0
  2  5  2  0  0  0  0
  2  6  1  0  0  0  0
  3  4  1  0  0  0  0
  3  7  1  0  0  0  0
  3  8  1  0  0  0  0
  4 19  1  0  0  0  0
  6  9  1  0  0  0  0
  6 12  1  0  0  0  0
  8 10  1  0  0  0  0
  8 11  2  0  0  0  0
  9 13  1  0  0  0  0
  9 14  1  0  0  0  0
  9 15  1  0  0  0  0
 10 16  1  0  0  0  0
 10 17  1  0  0  0  0
 10 18  1  0  0  0  0
 19 20  1  0  0  0  0
 19 27  1  0  0  0  0
 19 28  1  0  0  0  0
 20 21  4  0  0  0  0
 20 25  4  0  0  0  0
 21 22  4  0  0  0  0
 21 29  1  0  0  0  0
 22 23  4  0  0  0  0
 22 30  1  0  0  0  0
 23 24  4  0  0  0  0
 23 26  1  0  0  0  0
 24 25  4  0  0  0  0
 24 31  1  0  0  0  0
 25 32  1  0  0  0  0
 26 33  1  0  0  0  0
 26 34  1  0  0  0  0
M  END
> <BCLConfClusterSize>
1

> <ConfClashScore>
0.00164602 

> <ConfOneFourInteractionScore>
-0.939391 

> <ConfScore>
0.548936 

> <ConfScorePBest>
0.00239401 

> <ConfTolerance>
0.659772 

> <RosettaParamsInstructions>
M  ROOT 3
M  POLY_N_BB 3
M  POLY_CA_BB 4
M  POLY_C_BB 2
M  POLY_O_BB 5
M  POLY_IGNORE 9 10 11 12 13 14 15 16 17 18 
M  POLY_UPPER 6
M  POLY_LOWER 8
M  POLY_CHG 0
M  POLY_PROPERTIES ALPHA_AA D_AA PROTEIN AROMATIC POLYMER 
M  END

$$$$



 34 34  0  0  0  0  0  0  0  0999 V2000
   -0.3977    4.2502   -2.3053 H   0  0  0  1  0  0  0  0  0  0  0  0
    0.3053    4.3187   -0.3302 C   0  0  0  1  0  0  0  0  0  0  0  0
   -1.8398    5.1771   -1.1689 N   0  0  0  1  0  0  0  0  0  0  0  0
   -0.8263    4.1300   -1.3323 C   0  0  0  1  0  0  0  0  0  0  0  0
    0.0859    4.6986    0.8088 O   0  0  0  1  0  0  0  0  0  0  0  0
    1.5322    4.0428   -0.7814 N   0  0  0  1  0  0  0  0  0  0  0  0
   -1.7600    5.9989   -1.6968 H   0  0  0  1  0  0  0  0  0  0  0  0
   -2.8768    5.0486   -0.3184 C   0  0  0  1  0  0  0  0  0  0  0  0
    2.6941    4.3027    0.0555 C   0  0  0  1  0  0  0  0  0  0  0  0
   -3.7379    6.3004   -0.2094 C   0  0  0  1  0  0  0  0  0  0  0  0
   -3.1309    4.0397    0.3197 O   0  0  0  1  0  0  0  0  0  0  0  0
    1.6500    3.6647   -1.6778 H   0  0  0  1  0  0  0  0  0  0  0  0
    2.5720    3.8121    0.9985 H   0  0  0  1  0  0  0  0  0  0  0  0
    2.7921    5.3566    0.2120 H   0  0  0  1  0  0  0  0  0  0  0  0
    3.5726    3.9303   -0.4288 H   0  0  0  1  0  0  0  0  0  0  0  0
   -3.1351    7.1211    0.1192 H   0  0  0  1  0  0  0  0  0  0  0  0
   -4.5248    6.1313    0.4956 H   0  0  0  1  0  0  0  0  0  0  0  0
   -4.1587    6.5280   -1.1665 H   0  0  0  1  0  0  0  0  0  0  0  0
   -1.4100    2.7241   -1.2828 C   0  0  0  1  0  0  0  0  0  0  0  0
   -2.7858    2.5754   -1.8753 C   0  0  0  1  0  0  0  0  0  0  0  0
   -3.0310    2.9959   -3.1689 C   0  0  0  1  0  0  0  0  0  0  0  0
   -4.2969    2.8538   -3.7158 C   0  0  0  1  0  0  0  0  0  0  0  0
   -5.3151    2.2966   -2.9654 C   0  0  0  1  0  0  0  0  0  0  0  0
   -5.0693    1.8749   -1.6681 C   0  0  0  1  0  0  0  0  0  0  0  0
   -3.8072    2.0166   -1.1230 C   0  0  0  1  0  0  0  0  0  0  0  0
   -6.6081    2.1566   -3.5215 N   0  0  0  1  0  0  0  0  0  0  0  0
   -1.4579    2.4225   -0.2573 H   0  0  0  1  0  0  0  0  0  0  0  0
   -0.7489    2.0732   -1.8160 H   0  0  0  1  0  0  0  0  0  0  0  0
   -2.2658    3.4189   -3.7320 H   0  0  0  1  0  0  0  0  0  0  0  0
   -4.4803    3.1665   -4.6905 H   0  0  0  1  0  0  0  0  0  0  0  0
   -5.8345    1.4519   -1.1049 H   0  0  0  1  0  0  0  0  0  0  0  0
   -3.6238    1.7038   -0.1482 H   0  0  0  1  0  0  0  0  0  0  0  0
   -7.3022    1.6686   -3.0312 H   0  0  0  1  0  0  0  0  0  0  0  0
   -6.8099    2.5477   -4.3972 H   0  0  0  1  0  0  0  0  0  0  0  0
  1  4  1  0  0  0  0
  2  4  1  0  0  0  0
  2  5  2  0  0  0  0
  2  6  1  0  0  0  0
  3  4  1  0  0  0  0
  3  7  1  0  0  0  0
  3  8  1  0  0  0  0
  4 19  1  0  0  0  0
  6  9  1  0  0  0  0
  6 12  1  0  0  0  0
  8 10  1  0  0  0  0
  8 11  2  0  0  0  0
  9 13  1  0  0  0  0
  9 14  1  0  0  0  0
  9 15  1  0  0  0  0
 10 16  1  0  0  0  0
 10 17  1  0  0  0  0
 10 18  1  0  0  0  0
 19 20  1  0  0  0  0
 19 27  1  0  0  0  0
 19 28  1  0  0  0  0
 20 21  4  0  0  0  0
 20 25  4  0  0  0  0
 21 22  4  0  0  0  0
 21 29  1  0  0  0  0
 22 23  4  0  0  0  0
 22 30  1  0  0  0  0
 23 24  4  0  0  0  0
 23 26  1  0  0  0  0
 24 25  4  0  0  0  0
 24 31  1  0  0  0  0
 25 32  1  0  0  0  0
 26 33  1  0  0  0  0
 26 34  1  0  0  0  0
M  END
> <BCLConfClusterSize>
1

> <ConfClashScore>
0 

> <ConfOneFourInteractionScore>
-0.97257 

> <ConfScore>
0.562775 

> <ConfScorePBest>
0.00236553 

> <ConfTolerance>
1.12687 

> <RosettaParamsInstructions>
M  ROOT 3
M  POLY_N_BB 3
M  POLY_CA_BB 4
M  POLY_C_BB 2
M  POLY_O_BB 5
M  POLY_IGNORE 9 10 11 12 13 14 15 16 17 18 
M  POLY_UPPER 6
M  POLY_LOWER 8
M  POLY_CHG 0
M  POLY_PROPERTIES ALPHA_AA D_AA PROTEIN AROMATIC POLYMER 
M  END

$$$$



 34 34  0  0  0  0  0  0  0  0999 V2000
   -0.4376    2.8275    0.5851 H   0  0  0  1  0  0  0  0  0  0  0  0
   -1.4695    0.9955    0.5562 C   0  0  0  1  0  0  0  0  0  0  0  0
   -2.4488    3.2439    0.8428 N   0  0  0  1  0  0  0  0  0  0  0  0
   -1.3751    2.4660    0.2174 C   0  0  0  1  0  0  0  0  0  0  0  0
   -2.1720    0.2448   -0.1027 O   0  0  0  1  0  0  0  0  0  0  0  0
   -0.7626    0.5439    1.5961 N   0  0  0  1  0  0  0  0  0  0  0  0
   -2.7811    4.0444    0.3853 H   0  0  0  1  0  0  0  0  0  0  0  0
   -2.9901    2.8997    2.0147 C   0  0  0  1  0  0  0  0  0  0  0  0
   -0.8552   -0.8323    2.0602 C   0  0  0  1  0  0  0  0  0  0  0  0
   -4.2315    3.6709    2.4189 C   0  0  0  1  0  0  0  0  0  0  0  0
   -2.5259    2.0176    2.7323 O   0  0  0  1  0  0  0  0  0  0  0  0
   -0.1607    1.1609    2.0625 H   0  0  0  1  0  0  0  0  0  0  0  0
    0.0147   -1.3729    1.7506 H   0  0  0  1  0  0  0  0  0  0  0  0
   -1.7272   -1.2911    1.6431 H   0  0  0  1  0  0  0  0  0  0  0  0
   -0.9213   -0.8446    3.1281 H   0  0  0  1  0  0  0  0  0  0  0  0
   -4.8326    3.8588    1.5539 H   0  0  0  1  0  0  0  0  0  0  0  0
   -3.9444    4.6013    2.8624 H   0  0  0  1  0  0  0  0  0  0  0  0
   -4.7935    3.0967    3.1256 H   0  0  0  1  0  0  0  0  0  0  0  0
   -1.4094    2.7220   -1.2836 C   0  0  0  1  0  0  0  0  0  0  0  0
   -2.7855    2.5743   -1.8757 C   0  0  0  1  0  0  0  0  0  0  0  0
   -3.0337    3.0056   -3.1652 C   0  0  0  1  0  0  0  0  0  0  0  0
   -4.2998    2.8644   -3.7117 C   0  0  0  1  0  0  0  0  0  0  0  0
   -5.3153    2.2972   -2.9652 C   0  0  0  1  0  0  0  0  0  0  0  0
   -5.0665    1.8646   -1.6720 C   0  0  0  1  0  0  0  0  0  0  0  0
   -3.8041    2.0054   -1.1272 C   0  0  0  1  0  0  0  0  0  0  0  0
   -6.6085    2.1580   -3.5209 N   0  0  0  1  0  0  0  0  0  0  0  0
   -0.7556    2.0239   -1.7632 H   0  0  0  1  0  0  0  0  0  0  0  0
   -1.0649    3.7183   -1.4672 H   0  0  0  1  0  0  0  0  0  0  0  0
   -2.2706    3.4361   -3.7254 H   0  0  0  1  0  0  0  0  0  0  0  0
   -4.4855    3.1853   -4.6834 H   0  0  0  1  0  0  0  0  0  0  0  0
   -5.8296    1.4340   -1.1118 H   0  0  0  1  0  0  0  0  0  0  0  0
   -3.6185    1.6845   -0.1555 H   0  0  0  1  0  0  0  0  0  0  0  0
   -7.3371    1.7881   -2.9799 H   0  0  0  1  0  0  0  0  0  0  0  0
   -6.7760    2.4316   -4.4470 H   0  0  0  1  0  0  0  0  0  0  0  0
  1  4  1  0  0  0  0
  2  4  1  0  0  0  0
  2  5  2  0  0  0  0
  2  6  1  0  0  0  0
  3  4  1  0  0  0  0
  3  7  1  0  0  0  0
  3  8  1  0  0  0  0
  4 19  1  0  0  0  0
  6  9  1  0  0  0  0
  6 12  1  0  0  0  0
  8 10  1  0  0  0  0
  8 11  2  0  0  0  0
  9 13  1  0  0  0  0
  9 14  1  0  0  0  0
  9 15  1  0  0  0  0
 10 16  1  0  0  0  0
 10 17  1  0  0  0  0
 10 18  1  0  0  0  0
 19 20  1  0  0  0  0
 19 27  1  0  0  0  0
 19 28  1  0  0  0  0
 20 21  4  0  0  0  0
 20 25  4  0  0  0  0
 21 22  4  0  0  0  0
 21 29  1  0  0  0  0
 22 23  4  0  0  0  0
 22 30  1  0  0  0  0
 23 24  4  0  0  0  0
 23 26  1  0  0  0  0
 24 25  4  0  0  0  0
 24 31  1  0  0  0  0
 25 32  1  0  0  0  0
 26 33  1  0  0  0  0
 26 34  1  0  0  0  0
M  END
> <BCLConfClusterSize>
1

> <ConfClashScore>
0.00109154 

> <ConfOneFourInteractionScore>
-0.954931 

> <ConfScore>
0.563547 

> <ConfScorePBest>
0.00233705 

> <ConfTolerance>
0.940827 

> <RosettaParamsInstructions>
M  ROOT 3
M  POLY_N_BB 3
M  POLY_CA_BB 4
M  POLY_C_BB 2
M  POLY_O_BB 5
M  POLY_IGNORE 9 10 11 12 13 14 15 16 17 18 
M  POLY_UPPER 6
M  POLY_LOWER 8
M  POLY_CHG 0
M  POLY_PROPERTIES ALPHA_AA D_AA PROTEIN AROMATIC POLYMER 
M  END

$$$$



 34 34  0  0  0  0  0  0  0  0999 V2000
   -0.4667    4.0243    0.0995 H   0  0  0  1  0  0  0  0  0  0  0  0
   -1.2841    2.3840    1.1700 C   0  0  0  1  0  0  0  0  0  0  0  0
   -2.5161    4.3153    0.1914 N   0  0  0  1  0  0  0  0  0  0  0  0
   -1.3613    3.4382    0.0691 C   0  0  0  1  0  0  0  0  0  0  0  0
   -0.8778    2.6745    2.2944 O   0  0  0  1  0  0  0  0  0  0  0  0
   -1.6719    1.1333    0.8745 N   0  0  0  1  0  0  0  0  0  0  0  0
   -2.5884    5.0601   -0.4415 H   0  0  0  1  0  0  0  0  0  0  0  0
   -3.4946    4.1805    1.1104 C   0  0  0  1  0  0  0  0  0  0  0  0
   -1.4754    0.0211    1.7922 C   0  0  0  1  0  0  0  0  0  0  0  0
   -4.4585    5.3356    1.3000 C   0  0  0  1  0  0  0  0  0  0  0  0
   -3.6038    3.1518    1.7762 O   0  0  0  1  0  0  0  0  0  0  0  0
   -2.1025    0.9632    0.0107 H   0  0  0  1  0  0  0  0  0  0  0  0
   -2.0194    0.2029    2.6955 H   0  0  0  1  0  0  0  0  0  0  0  0
   -0.4337   -0.0758    2.0169 H   0  0  0  1  0  0  0  0  0  0  0  0
   -1.8285   -0.8816    1.3391 H   0  0  0  1  0  0  0  0  0  0  0  0
   -4.0069    6.2393    0.9475 H   0  0  0  1  0  0  0  0  0  0  0  0
   -4.6939    5.4364    2.3389 H   0  0  0  1  0  0  0  0  0  0  0  0
   -5.3550    5.1461    0.7474 H   0  0  0  1  0  0  0  0  0  0  0  0
   -1.4156    2.7180   -1.2683 C   0  0  0  1  0  0  0  0  0  0  0  0
   -2.7889    2.5721   -1.8673 C   0  0  0  1  0  0  0  0  0  0  0  0
   -3.0286    2.9984   -3.1600 C   0  0  0  1  0  0  0  0  0  0  0  0
   -4.2921    2.8589   -3.7129 C   0  0  0  1  0  0  0  0  0  0  0  0
   -5.3136    2.2983   -2.9694 C   0  0  0  1  0  0  0  0  0  0  0  0
   -5.0733    1.8706   -1.6730 C   0  0  0  1  0  0  0  0  0  0  0  0
   -3.8135    2.0098   -1.1218 C   0  0  0  1  0  0  0  0  0  0  0  0
   -6.6042    2.1608   -3.5316 N   0  0  0  1  0  0  0  0  0  0  0  0
   -1.0091    1.7377   -1.1320 H   0  0  0  1  0  0  0  0  0  0  0  0
   -0.8094    3.2629   -1.9614 H   0  0  0  1  0  0  0  0  0  0  0  0
   -2.2610    3.4240   -3.7179 H   0  0  0  1  0  0  0  0  0  0  0  0
   -4.4715    3.1761   -4.6870 H   0  0  0  1  0  0  0  0  0  0  0  0
   -5.8409    1.4451   -1.1150 H   0  0  0  1  0  0  0  0  0  0  0  0
   -3.6342    1.6927   -0.1478 H   0  0  0  1  0  0  0  0  0  0  0  0
   -6.7390    2.3080   -4.4911 H   0  0  0  1  0  0  0  0  0  0  0  0
   -7.3637    1.9185   -2.9617 H   0  0  0  1  0  0  0  0  0  0  0  0
  1  4  1  0  0  0  0
  2  4  1  0  0  0  0
  2  5  2  0  0  0  0
  2  6  1  0  0  0  0
  3  4  1  0  0  0  0
  3  7  1  0  0  0  0
  3  8  1  0  0  0  0
  4 19  1  0  0  0  0
  6  9  1  0  0  0  0
  6 12  1  0  0  0  0
  8 10  1  0  0  0  0
  8 11  2  0  0  0  0
  9 13  1  0  0  0  0
  9 14  1  0  0  0  0
  9 15  1  0  0  0  0
 10 16  1  0  0  0  0
 10 17  1  0  0  0  0
 10 18  1  0  0  0  0
 19 20  1  0  0  0  0
 19 27  1  0  0  0  0
 19 28  1  0  0  0  0
 20 21  4  0  0  0  0
 20 25  4  0  0  0  0
 21 22  4  0  0  0  0
 21 29  1  0  0  0  0
 22 23  4  0  0  0  0
 22 30  1  0  0  0  0
 23 24  4  0  0  0  0
 23 26  1  0  0  0  0
 24 25  4  0  0  0  0
 24 31  1  0  0  0  0
 25 32  1  0  0  0  0
 26 33  1  0  0  0  0
 26 34  1  0  0  0  0
M  END
> <BCLConfClusterSize>
1

> <ConfClashScore>
0.00154155 

> <ConfOneFourInteractionScore>
-0.90437 

> <ConfScore>
0.570981 

> <ConfScorePBest>
0.00230857 

> <ConfTolerance>
0.475301 

> <RosettaParamsInstructions>
M  ROOT 3
M  POLY_N_BB 3
M  POLY_CA_BB 4
M  POLY_C_BB 2
M  POLY_O_BB 5
M  POLY_IGNORE 9 10 11 12 13 14 15 16 17 18 
M  POLY_UPPER 6
M  POLY_LOWER 8
M  POLY_CHG 0
M  POLY_PROPERTIES ALPHA_AA D_AA PROTEIN AROMATIC POLYMER 
M  END

$$$$



 34 34  0  0  0  0  0  0  0  0999 V2000
   -0.3649    3.8188   -2.7115 H   0  0  0  1  0  0  0  0  0  0  0  0
   -0.1803    1.8090   -3.2863 C   0  0  0  1  0  0  0  0  0  0  0  0
    1.0137    2.9023   -1.4715 N   0  0  0  1  0  0  0  0  0  0  0  0
   -0.2522    2.8762   -2.2178 C   0  0  0  1  0  0  0  0  0  0  0  0
    0.0207    2.1042   -4.4534 O   0  0  0  1  0  0  0  0  0  0  0  0
   -0.3440    0.5299   -2.9129 N   0  0  0  1  0  0  0  0  0  0  0  0
    1.6445    3.6404   -1.6044 H   0  0  0  1  0  0  0  0  0  0  0  0
    1.3075    1.9177   -0.6086 C   0  0  0  1  0  0  0  0  0  0  0  0
   -0.2531   -0.5734   -3.8575 C   0  0  0  1  0  0  0  0  0  0  0  0
    2.6215    2.0631    0.1340 C   0  0  0  1  0  0  0  0  0  0  0  0
    0.5717    0.9528   -0.4192 O   0  0  0  1  0  0  0  0  0  0  0  0
   -0.5312    0.3324   -1.9714 H   0  0  0  1  0  0  0  0  0  0  0  0
   -1.2355   -0.8512   -4.1778 H   0  0  0  1  0  0  0  0  0  0  0  0
    0.2173   -1.4099   -3.3842 H   0  0  0  1  0  0  0  0  0  0  0  0
    0.3257   -0.2704   -4.7048 H   0  0  0  1  0  0  0  0  0  0  0  0
    2.7983    3.0964    0.3483 H   0  0  0  1  0  0  0  0  0  0  0  0
    3.4174    1.6835   -0.4721 H   0  0  0  1  0  0  0  0  0  0  0  0
    2.5760    1.5118    1.0500 H   0  0  0  1  0  0  0  0  0  0  0  0
   -1.4165    2.7229   -1.2676 C   0  0  0  1  0  0  0  0  0  0  0  0
   -2.7894    2.5748   -1.8669 C   0  0  0  1  0  0  0  0  0  0  0  0
   -3.0230    2.9769   -3.1684 C   0  0  0  1  0  0  0  0  0  0  0  0
   -4.2862    2.8353   -3.7216 C   0  0  0  1  0  0  0  0  0  0  0  0
   -5.3133    2.2969   -2.9696 C   0  0  0  1  0  0  0  0  0  0  0  0
   -5.0791    1.8936   -1.6643 C   0  0  0  1  0  0  0  0  0  0  0  0
   -3.8197    2.0348   -1.1129 C   0  0  0  1  0  0  0  0  0  0  0  0
   -6.6036    2.1574   -3.5321 N   0  0  0  1  0  0  0  0  0  0  0  0
   -1.4331    3.5889   -0.6393 H   0  0  0  1  0  0  0  0  0  0  0  0
   -1.2315    1.8533   -0.6722 H   0  0  0  1  0  0  0  0  0  0  0  0
   -2.2511    3.3857   -3.7329 H   0  0  0  1  0  0  0  0  0  0  0  0
   -4.4610    3.1342   -4.7023 H   0  0  0  1  0  0  0  0  0  0  0  0
   -5.8511    1.4847   -1.0998 H   0  0  0  1  0  0  0  0  0  0  0  0
   -3.6449    1.7359   -0.1323 H   0  0  0  1  0  0  0  0  0  0  0  0
   -6.7043    1.9995   -4.4941 H   0  0  0  1  0  0  0  0  0  0  0  0
   -7.3969    2.2186   -2.9599 H   0  0  0  1  0  0  0  0  0  0  0  0
  1  4  1  0  0  0  0
  2  4  1  0  0  0  0
  2  5  2  0  0  0  0
  2  6  1  0  0  0  0
  3  4  1  0  0  0  0
  3  7  1  0  0  0  0
  3  8  1  0  0  0  0
  4 19  1  0  0  0  0
  6  9  1  0  0  0  0
  6 12  1  0  0  0  0
  8 10  1  0  0  0  0
  8 11  2  0  0  0  0
  9 13  1  0  0  0  0
  9 14  1  0  0  0  0
  9 15  1  0  0  0  0
 10 16  1  0  0  0  0
 10 17  1  0  0  0  0
 10 18  1  0  0  0  0
 19 20  1  0  0  0  0
 19 27  1  0  0  0  0
 19 28  1  0  0  0  0
 20 21  4  0  0  0  0
 20 25  4  0  0  0  0
 21 22  4  0  0  0  0
 21 29  1  0  0  0  0
 22 23  4  0  0  0  0
 22 30  1  0  0  0  0
 23 24  4  0  0  0  0
 23 26  1  0  0  0  0
 24 25  4  0  0  0  0
 24 31  1  0  0  0  0
 25 32  1  0  0  0  0
 26 33  1  0  0  0  0
 26 34  1  0  0  0  0
M  END
> <BCLConfClusterSize>
1

> <ConfClashScore>
0 

> <ConfOneFourInteractionScore>
-0.939617 

> <ConfScore>
0.698131 

> <ConfScorePBest>
0.00228009 

> <ConfTolerance>
1.18098 

> <RosettaParamsInstructions>
M  ROOT 3
M  POLY_N_BB 3
M  POLY_CA_BB 4
M  POLY_C_BB 2
M  POLY_O_BB 5
M  POLY_IGNORE 9 10 11 12 13 14 15 16 17 18 
M  POLY_UPPER 6
M  POLY_LOWER 8
M  POLY_CHG 0
M  POLY_PROPERTIES ALPHA_AA D_AA PROTEIN AROMATIC POLYMER 
M  END

$$$$



 34 34  0  0  0  0  0  0  0  0999 V2000
   -2.0410    4.2960   -0.0197 H   0  0  0  1  0  0  0  0  0  0  0  0
   -1.3360    5.1404   -1.8154 C   0  0  0  1  0  0  0  0  0  0  0  0
    0.0118    4.2273    0.0844 N   0  0  0  1  0  0  0  0  0  0  0  0
   -1.2223    4.1193   -0.6856 C   0  0  0  1  0  0  0  0  0  0  0  0
   -2.3742    5.7727   -1.9908 O   0  0  0  1  0  0  0  0  0  0  0  0
   -0.2696    5.3251   -2.6084 N   0  0  0  1  0  0  0  0  0  0  0  0
    0.4953    3.3986    0.2841 H   0  0  0  1  0  0  0  0  0  0  0  0
    0.5320    5.3692    0.5371 C   0  0  0  1  0  0  0  0  0  0  0  0
    0.9296    4.5226   -2.4191 C   0  0  0  1  0  0  0  0  0  0  0  0
    1.7618    5.2018    1.4314 C   0  0  0  1  0  0  0  0  0  0  0  0
    0.1372    6.4881    0.2201 O   0  0  0  1  0  0  0  0  0  0  0  0
   -0.2983    6.0019   -3.3166 H   0  0  0  1  0  0  0  0  0  0  0  0
    0.6728    3.4843   -2.4490 H   0  0  0  1  0  0  0  0  0  0  0  0
    1.3674    4.7543   -1.4707 H   0  0  0  1  0  0  0  0  0  0  0  0
    1.6301    4.7392   -3.1984 H   0  0  0  1  0  0  0  0  0  0  0  0
    1.4503    5.0773    2.4474 H   0  0  0  1  0  0  0  0  0  0  0  0
    2.3809    6.0708    1.3523 H   0  0  0  1  0  0  0  0  0  0  0  0
    2.3143    4.3400    1.1199 H   0  0  0  1  0  0  0  0  0  0  0  0
   -1.4158    2.7147   -1.2697 C   0  0  0  1  0  0  0  0  0  0  0  0
   -2.7895    2.5702   -1.8682 C   0  0  0  1  0  0  0  0  0  0  0  0
   -3.0336    3.0128   -3.1546 C   0  0  0  1  0  0  0  0  0  0  0  0
   -4.2974    2.8746   -3.7072 C   0  0  0  1  0  0  0  0  0  0  0  0
   -5.3147    2.2990   -2.9696 C   0  0  0  1  0  0  0  0  0  0  0  0
   -5.0700    1.8551   -1.6794 C   0  0  0  1  0  0  0  0  0  0  0  0
   -3.8100    1.9930   -1.1287 C   0  0  0  1  0  0  0  0  0  0  0  0
   -6.6012    2.1634   -3.5294 N   0  0  0  1  0  0  0  0  0  0  0  0
   -1.2946    1.9911   -0.4909 H   0  0  0  1  0  0  0  0  0  0  0  0
   -0.6823    2.5470   -2.0304 H   0  0  0  1  0  0  0  0  0  0  0  0
   -2.2690    3.4495   -3.7081 H   0  0  0  1  0  0  0  0  0  0  0  0
   -4.4800    3.2040   -4.6766 H   0  0  0  1  0  0  0  0  0  0  0  0
   -5.8346    1.4184   -1.1259 H   0  0  0  1  0  0  0  0  0  0  0  0
   -3.6274    1.6636   -0.1593 H   0  0  0  1  0  0  0  0  0  0  0  0
   -6.7795    2.4956   -4.4340 H   0  0  0  1  0  0  0  0  0  0  0  0
   -7.3174    1.7370   -3.0140 H   0  0  0  1  0  0  0  0  0  0  0  0
  1  4  1  0  0  0  0
  2  4  1  0  0  0  0
  2  5  2  0  0  0  0
  2  6  1  0  0  0  0
  3  4  1  0  0  0  0
  3  7  1  0  0  0  0
  3  8  1  0  0  0  0
  4 19  1  0  0  0  0
  6  9  1  0  0  0  0
  6 12  1  0  0  0  0
  8 10  1  0  0  0  0
  8 11  2  0  0  0  0
  9 13  1  0  0  0  0
  9 14  1  0  0  0  0
  9 15  1  0  0  0  0
 10 16  1  0  0  0  0
 10 17  1  0  0  0  0
 10 18  1  0  0  0  0
 19 20  1  0  0  0  0
 19 27  1  0  0  0  0
 19 28  1  0  0  0  0
 20 21  4  0  0  0  0
 20 25  4  0  0  0  0
 21 22  4  0  0  0  0
 21 29  1  0  0  0  0
 22 23  4  0  0  0  0
 22 30  1  0  0  0  0
 23 24  4  0  0  0  0
 23 26  1  0  0  0  0
 24 25  4  0  0  0  0
 24 31  1  0  0  0  0
 25 32  1  0  0  0  0
 26 33  1  0  0  0  0
 26 34  1  0  0  0  0
M  END
> <BCLConfClusterSize>
1

> <ConfClashScore>
0.00259478 

> <ConfOneFourInteractionScore>
-0.960318 

> <ConfScore>
0.770986 

> <ConfScorePBest>
0.00225161 

> <ConfTolerance>
1.7423 

> <RosettaParamsInstructions>
M  ROOT 3
M  POLY_N_BB 3
M  POLY_CA_BB 4
M  POLY_C_BB 2
M  POLY_O_BB 5
M  POLY_IGNORE 9 10 11 12 13 14 15 16 17 18 
M  POLY_UPPER 6
M  POLY_LOWER 8
M  POLY_CHG 0
M  POLY_PROPERTIES ALPHA_AA D_AA PROTEIN AROMATIC POLYMER 
M  END

$$$$



 34 34  0  0  0  0  0  0  0  0999 V2000
   -0.0399    1.2984   -0.4530 H   0  0  0  1  0  0  0  0  0  0  0  0
    0.4054    1.5397   -2.5230 C   0  0  0  1  0  0  0  0  0  0  0  0
   -1.4751    0.2874   -1.5746 N   0  0  0  1  0  0  0  0  0  0  0  0
   -0.5833    1.4227   -1.3663 C   0  0  0  1  0  0  0  0  0  0  0  0
    1.4694    0.9518   -2.5702 O   0  0  0  1  0  0  0  0  0  0  0  0
    0.0411    2.3470   -3.5234 N   0  0  0  1  0  0  0  0  0  0  0  0
   -1.9229   -0.0873   -0.7876 H   0  0  0  1  0  0  0  0  0  0  0  0
   -1.7274   -0.2801   -2.7576 C   0  0  0  1  0  0  0  0  0  0  0  0
    0.8636    2.5354   -4.7091 C   0  0  0  1  0  0  0  0  0  0  0  0
   -2.4926   -1.5883   -2.7108 C   0  0  0  1  0  0  0  0  0  0  0  0
   -1.3728    0.2084   -3.8178 O   0  0  0  1  0  0  0  0  0  0  0  0
   -0.8095    2.8290   -3.4563 H   0  0  0  1  0  0  0  0  0  0  0  0
    1.6549    3.2214   -4.4895 H   0  0  0  1  0  0  0  0  0  0  0  0
    0.2615    2.9278   -5.5018 H   0  0  0  1  0  0  0  0  0  0  0  0
    1.2791    1.5957   -5.0076 H   0  0  0  1  0  0  0  0  0  0  0  0
   -3.2265   -1.6009   -3.4893 H   0  0  0  1  0  0  0  0  0  0  0  0
   -2.9780   -1.6835   -1.7619 H   0  0  0  1  0  0  0  0  0  0  0  0
   -1.8134   -2.4036   -2.8480 H   0  0  0  1  0  0  0  0  0  0  0  0
   -1.4077    2.7108   -1.2848 C   0  0  0  1  0  0  0  0  0  0  0  0
   -2.7846    2.5681   -1.8763 C   0  0  0  1  0  0  0  0  0  0  0  0
   -3.0467    3.0533   -3.1437 C   0  0  0  1  0  0  0  0  0  0  0  0
   -4.3134    2.9168   -3.6899 C   0  0  0  1  0  0  0  0  0  0  0  0
   -5.3157    2.3003   -2.9649 C   0  0  0  1  0  0  0  0  0  0  0  0
   -5.0530    1.8137   -1.6938 C   0  0  0  1  0  0  0  0  0  0  0  0
   -3.7900    1.9499   -1.1494 C   0  0  0  1  0  0  0  0  0  0  0  0
   -6.6097    2.1659   -3.5201 N   0  0  0  1  0  0  0  0  0  0  0  0
   -0.8879    3.4819   -1.8141 H   0  0  0  1  0  0  0  0  0  0  0  0
   -1.5060    2.9877   -0.2560 H   0  0  0  1  0  0  0  0  0  0  0  0
   -2.2935    3.5207   -3.6875 H   0  0  0  1  0  0  0  0  0  0  0  0
   -4.5096    3.2783   -4.6452 H   0  0  0  1  0  0  0  0  0  0  0  0
   -5.8062    1.3463   -1.1500 H   0  0  0  1  0  0  0  0  0  0  0  0
   -3.5939    1.5884   -0.1941 H   0  0  0  1  0  0  0  0  0  0  0  0
   -7.3891    2.5094   -3.0352 H   0  0  0  1  0  0  0  0  0  0  0  0
   -6.7270    1.7293   -4.3896 H   0  0  0  1  0  0  0  0  0  0  0  0
  1  4  1  0  0  0  0
  2  4  1  0  0  0  0
  2  5  2  0  0  0  0
  2  6  1  0  0  0  0
  3  4  1  0  0  0  0
  3  7  1  0  0  0  0
  3  8  1  0  0  0  0
  4 19  1  0  0  0  0
  6  9  1  0  0  0  0
  6 12  1  0  0  0  0
  8 10  1  0  0  0  0
  8 11  2  0  0  0  0
  9 13  1  0  0  0  0
  9 14  1  0  0  0  0
  9 15  1  0  0  0  0
 10 16  1  0  0  0  0
 10 17  1  0  0  0  0
 10 18  1  0  0  0  0
 19 20  1  0  0  0  0
 19 27  1  0  0  0  0
 19 28  1  0  0  0  0
 20 21  4  0  0  0  0
 20 25  4  0  0  0  0
 21 22  4  0  0  0  0
 21 29  1  0  0  0  0
 22 23  4  0  0  0  0
 22 30  1  0  0  0  0
 23 24  4  0  0  0  0
 23 26  1  0  0  0  0
 24 25  4  0  0  0  0
 24 31  1  0  0  0  0
 25 32  1  0  0  0  0
 26 33  1  0  0  0  0
 26 34  1  0  0  0  0
M  END
> <BCLConfClusterSize>
1

> <ConfClashScore>
0.00179351 

> <ConfOneFourInteractionScore>
-0.90437 

> <ConfScore>
0.961534 

> <ConfScorePBest>
0.00222313 

> <ConfTolerance>
0.849643 

> <RosettaParamsInstructions>
M  ROOT 3
M  POLY_N_BB 3
M  POLY_CA_BB 4
M  POLY_C_BB 2
M  POLY_O_BB 5
M  POLY_IGNORE 9 10 11 12 13 14 15 16 17 18 
M  POLY_UPPER 6
M  POLY_LOWER 8
M  POLY_CHG 0
M  POLY_PROPERTIES ALPHA_AA D_AA PROTEIN AROMATIC POLYMER 
M  END

$$$$



 34 34  0  0  0  0  0  0  0  0999 V2000
    0.3782    1.5825   -1.3291 H   0  0  0  1  0  0  0  0  0  0  0  0
   -1.1494    0.1906   -1.6575 C   0  0  0  1  0  0  0  0  0  0  0  0
   -0.5176    1.2645    0.4867 N   0  0  0  1  0  0  0  0  0  0  0  0
   -0.6121    1.4220   -0.9570 C   0  0  0  1  0  0  0  0  0  0  0  0
   -1.2081   -0.8470   -1.1080 O   0  0  0  1  0  0  0  0  0  0  0  0
   -1.5569    0.3737   -2.9635 N   0  0  0  1  0  0  0  0  0  0  0  0
    0.2531    1.6483    0.9548 H   0  0  0  1  0  0  0  0  0  0  0  0
   -1.4540    0.6086    1.2030 C   0  0  0  1  0  0  0  0  0  0  0  0
   -1.9531   -0.7365   -3.8171 C   0  0  0  1  0  0  0  0  0  0  0  0
   -1.2604    0.5043    2.7032 C   0  0  0  1  0  0  0  0  0  0  0  0
   -2.4370    0.1089    0.6573 O   0  0  0  1  0  0  0  0  0  0  0  0
   -1.5804    1.2828   -3.3286 H   0  0  0  1  0  0  0  0  0  0  0  0
   -1.6342   -0.5468   -4.8207 H   0  0  0  1  0  0  0  0  0  0  0  0
   -3.0177   -0.8407   -3.7951 H   0  0  0  1  0  0  0  0  0  0  0  0
   -1.4985   -1.6381   -3.4630 H   0  0  0  1  0  0  0  0  0  0  0  0
   -1.1596   -0.5245    2.9797 H   0  0  0  1  0  0  0  0  0  0  0  0
   -2.1079    0.9260    3.2021 H   0  0  0  1  0  0  0  0  0  0  0  0
   -0.3772    1.0377    2.9866 H   0  0  0  1  0  0  0  0  0  0  0  0
   -1.4160    2.7321   -1.2711 C   0  0  0  1  0  0  0  0  0  0  0  0
   -2.7891    2.5798   -1.8689 C   0  0  0  1  0  0  0  0  0  0  0  0
   -3.0158    2.9440   -3.1828 C   0  0  0  1  0  0  0  0  0  0  0  0
   -4.2792    2.7986   -3.7343 C   0  0  0  1  0  0  0  0  0  0  0  0
   -5.3135    2.2943   -2.9686 C   0  0  0  1  0  0  0  0  0  0  0  0
   -5.0862    1.9290   -1.6509 C   0  0  0  1  0  0  0  0  0  0  0  0
   -3.8265    2.0741   -1.1011 C   0  0  0  1  0  0  0  0  0  0  0  0
   -6.6040    2.1510   -3.5297 N   0  0  0  1  0  0  0  0  0  0  0  0
   -0.8311    3.3102   -1.9556 H   0  0  0  1  0  0  0  0  0  0  0  0
   -1.5246    3.2691   -0.3521 H   0  0  0  1  0  0  0  0  0  0  0  0
   -2.2384    3.3272   -3.7577 H   0  0  0  1  0  0  0  0  0  0  0  0
   -4.4488    3.0689   -4.7242 H   0  0  0  1  0  0  0  0  0  0  0  0
   -5.8636    1.5458   -1.0760 H   0  0  0  1  0  0  0  0  0  0  0  0
   -3.6569    1.8038   -0.1113 H   0  0  0  1  0  0  0  0  0  0  0  0
   -6.8287    1.3468   -4.0427 H   0  0  0  1  0  0  0  0  0  0  0  0
   -7.2734    2.8558   -3.4054 H   0  0  0  1  0  0  0  0  0  0  0  0
  1  4  1  0  0  0  0
  2  4  1  0  0  0  0
  2  5  2  0  0  0  0
  2  6  1  0  0  0  0
  3  4  1  0  0  0  0
  3  7  1  0  0  0  0
  3  8  1  0  0  0  0
  4 19  1  0  0  0  0
  6  9  1  0  0  0  0
  6 12  1  0  0  0  0
  8 10  1  0  0  0  0
  8 11  2  0  0  0  0
  9 13  1  0  0  0  0
  9 14  1  0  0  0  0
  9 15  1  0  0  0  0
 10 16  1  0  0  0  0
 10 17  1  0  0  0  0
 10 18  1  0  0  0  0
 19 20  1  0  0  0  0
 19 27  1  0  0  0  0
 19 28  1  0  0  0  0
 20 21  4  0  0  0  0
 20 25  4  0  0  0  0
 21 22  4  0  0  0  0
 21 29  1  0  0  0  0
 22 23  4  0  0  0  0
 22 30  1  0  0  0  0
 23 24  4  0  0  0  0
 23 26  1  0  0  0  0
 24 25  4  0  0  0  0
 24 31  1  0  0  0  0
 25 32  1  0  0  0  0
 26 33  1  0  0  0  0
 26 34  1  0  0  0  0
M  END
> <BCLConfClusterSize>
1

> <ConfClashScore>
0.00205012 

> <ConfOneFourInteractionScore>
-0.942914 

> <ConfScore>
0.992455 

> <ConfScorePBest>
0.00219465 

> <ConfTolerance>
1.18772 

> <RosettaParamsInstructions>
M  ROOT 3
M  POLY_N_BB 3
M  POLY_CA_BB 4
M  POLY_C_BB 2
M  POLY_O_BB 5
M  POLY_IGNORE 9 10 11 12 13 14 15 16 17 18 
M  POLY_UPPER 6
M  POLY_LOWER 8
M  POLY_CHG 0
M  POLY_PROPERTIES ALPHA_AA D_AA PROTEIN AROMATIC POLYMER 
M  END

$$$$



 34 34  0  0  0  0  0  0  0  0999 V2000
   -1.3022    4.8101   -1.0907 H   0  0  0  1  0  0  0  0  0  0  0  0
    0.2034    4.0158    0.1418 C   0  0  0  1  0  0  0  0  0  0  0  0
   -2.2184    4.0721    0.5978 N   0  0  0  1  0  0  0  0  0  0  0  0
   -1.1982    3.9709   -0.4350 C   0  0  0  1  0  0  0  0  0  0  0  0
    1.0748    4.7296   -0.3530 O   0  0  0  1  0  0  0  0  0  0  0  0
    0.4180    3.2379    1.2065 N   0  0  0  1  0  0  0  0  0  0  0  0
   -1.9757    3.8646    1.5243 H   0  0  0  1  0  0  0  0  0  0  0  0
   -3.4868    4.4417    0.3243 C   0  0  0  1  0  0  0  0  0  0  0  0
   -0.5314    2.2708    1.7368 C   0  0  0  1  0  0  0  0  0  0  0  0
   -4.4901    4.4424    1.4612 C   0  0  0  1  0  0  0  0  0  0  0  0
   -3.8221    4.7690   -0.8133 O   0  0  0  1  0  0  0  0  0  0  0  0
    1.2797    3.3251    1.6651 H   0  0  0  1  0  0  0  0  0  0  0  0
   -1.3291    2.1328    1.0371 H   0  0  0  1  0  0  0  0  0  0  0  0
   -0.9280    2.6315    2.6628 H   0  0  0  1  0  0  0  0  0  0  0  0
   -0.0352    1.3370    1.9003 H   0  0  0  1  0  0  0  0  0  0  0  0
   -5.4179    4.8506    1.1186 H   0  0  0  1  0  0  0  0  0  0  0  0
   -4.1149    5.0377    2.2673 H   0  0  0  1  0  0  0  0  0  0  0  0
   -4.6455    3.4395    1.8001 H   0  0  0  1  0  0  0  0  0  0  0  0
   -1.4157    2.7184   -1.2682 C   0  0  0  1  0  0  0  0  0  0  0  0
   -2.7890    2.5723   -1.8672 C   0  0  0  1  0  0  0  0  0  0  0  0
   -3.0282    2.9966   -3.1607 C   0  0  0  1  0  0  0  0  0  0  0  0
   -4.2916    2.8569   -3.7136 C   0  0  0  1  0  0  0  0  0  0  0  0
   -5.3135    2.2981   -2.9695 C   0  0  0  1  0  0  0  0  0  0  0  0
   -5.0738    1.8726   -1.6722 C   0  0  0  1  0  0  0  0  0  0  0  0
   -3.8140    2.0119   -1.1211 C   0  0  0  1  0  0  0  0  0  0  0  0
   -6.6042    2.1606   -3.5317 N   0  0  0  1  0  0  0  0  0  0  0  0
   -1.2371    1.8699   -0.6413 H   0  0  0  1  0  0  0  0  0  0  0  0
   -0.7057    2.7270   -2.0686 H   0  0  0  1  0  0  0  0  0  0  0  0
   -2.2601    3.4207   -3.7192 H   0  0  0  1  0  0  0  0  0  0  0  0
   -4.4705    3.1725   -4.6883 H   0  0  0  1  0  0  0  0  0  0  0  0
   -5.8418    1.4485   -1.1137 H   0  0  0  1  0  0  0  0  0  0  0  0
   -3.6351    1.6963   -0.1464 H   0  0  0  1  0  0  0  0  0  0  0  0
   -6.7345    2.2833   -4.4952 H   0  0  0  1  0  0  0  0  0  0  0  0
   -7.3680    1.9425   -2.9577 H   0  0  0  1  0  0  0  0  0  0  0  0
  1  4  1  0  0  0  0
  2  4  1  0  0  0  0
  2  5  2  0  0  0  0
  2  6  1  0  0  0  0
  3  4  1  0  0  0  0
  3  7  1  0  0  0  0
  3  8  1  0  0  0  0
  4 19  1  0  0  0  0
  6  9  1  0  0  0  0
  6 12  1  0  0  0  0
  8 10  1  0  0  0  0
  8 11  2  0  0  0  0
  9 13  1  0  0  0  0
  9 14  1  0  0  0  0
  9 15  1  0  0  0  0
 10 16  1  0  0  0  0
 10 17  1  0  0  0  0
 10 18  1  0  0  0  0
 19 20  1  0  0  0  0
 19 27  1  0  0  0  0
 19 28  1  0  0  0  0
 20 21  4  0  0  0  0
 20 25  4  0  0  0  0
 21 22  4  0  0  0  0
 21 29  1  0  0  0  0
 22 23  4  0  0  0  0
 22 30  1  0  0  0  0
 23 24  4  0  0  0  0
 23 26  1  0  0  0  0
 24 25  4  0  0  0  0
 24 31  1  0  0  0  0
 25 32  1  0  0  0  0
 26 33  1  0  0  0  0
 26 34  1  0  0  0  0
M  END
> <BCLConfClusterSize>
1

> <ConfClashScore>
0.00354878 

> <ConfOneFourInteractionScore>
-0.965014 

> <ConfScore>
0.999759 

> <ConfScorePBest>
0.00216617 

> <ConfTolerance>
1.85153 

> <RosettaParamsInstructions>
M  ROOT 3
M  POLY_N_BB 3
M  POLY_CA_BB 4
M  POLY_C_BB 2
M  POLY_O_BB 5
M  POLY_IGNORE 9 10 11 12 13 14 15 16 17 18 
M  POLY_UPPER 6
M  POLY_LOWER 8
M  POLY_CHG 0
M  POLY_PROPERTIES ALPHA_AA D_AA PROTEIN AROMATIC POLYMER 
M  END

$$$$
